
     RDKit          3D

 45 48  0  0  0  0  0  0  0  0999 V2000
  138.0440   70.3990  221.1220 O   0  0  0  0  0  0  0  0  0  0  0  0
  138.2440   71.2380  222.0610 C   0  0  0  0  0  0  0  0  0  0  0  0
  137.7850   72.6020  221.9360 N   0  0  0  0  0  0  0  0  0  0  0  0
  137.1070   72.9410  220.7220 C   0  0  0  0  0  0  0  0  0  0  0  0
  137.0120   74.3270  220.3190 C   0  0  0  0  0  0  0  0  0  0  0  0
  137.0180   74.5220  219.0380 O   0  0  0  0  0  0  0  0  0  0  0  0
  136.9160   75.4990  221.0950 N   0  0  0  0  0  0  0  0  0  0  0  0
  135.6850   76.2670  221.3930 C   0  0  0  0  0  0  0  0  0  0  0  0
  135.8450   76.6480  222.8410 C   0  0  0  0  0  0  0  0  0  0  0  0
  137.3180   76.6100  223.1040 C   0  0  0  0  0  0  0  0  0  0  0  0
  137.9320   76.2900  221.7580 C   0  0  1  0  0  0  0  0  0  0  0  0
  139.2490   75.6970  221.8040 C   0  0  0  0  0  0  0  0  0  0  0  0
  140.4220   76.4360  221.5440 C   0  0  0  0  0  0  0  0  0  0  0  0
  141.4880   75.6310  221.6170 N   0  0  0  0  0  0  0  0  0  0  0  0
  141.0260   74.4170  221.9110 C   0  0  0  0  0  0  0  0  0  0  0  0
  139.7050   74.4560  222.0210 N   0  0  0  0  0  0  0  0  0  0  0  0
  138.9410   70.8440  223.2830 C   0  0  0  0  0  0  0  0  0  0  0  0
  139.9320   71.6700  223.7740 C   0  0  0  0  0  0  0  0  0  0  0  0
  140.6090   71.3260  224.9250 C   0  0  0  0  0  0  0  0  0  0  0  0
  140.2930   70.1550  225.5840 C   0  0  0  0  0  0  0  0  0  0  0  0
  140.9210   69.7430  226.7340 C   0  0  0  0  0  0  0  0  0  0  0  0
  140.5720   68.5620  227.3590 C   0  0  0  0  0  0  0  0  0  0  0  0
  141.4420   68.1340  228.8260 Cl  0  0  0  0  0  0  0  0  0  0  0  0
  139.5730   67.7410  226.8520 C   0  0  0  0  0  0  0  0  0  0  0  0
  138.9340   68.1460  225.6930 C   0  0  0  0  0  0  0  0  0  0  0  0
  139.2900   69.3310  225.0750 C   0  0  0  0  0  0  0  0  0  0  0  0
  138.6640   69.7110  223.9540 N   0  0  0  0  0  0  0  0  0  0  0  0
  137.9690   73.2580  222.7280 H   0  0  0  0  0  0  0  0  0  0  0  0
  137.6209   72.4067  219.9093 H   0  0  0  0  0  0  0  0  0  0  0  0
  136.0628   72.6600  220.9238 H   0  0  0  0  0  0  0  0  0  0  0  0
  135.6171   77.1619  220.7569 H   0  0  0  0  0  0  0  0  0  0  0  0
  134.7667   75.6923  221.2020 H   0  0  0  0  0  0  0  0  0  0  0  0
  135.4487   77.6586  223.0187 H   0  0  0  0  0  0  0  0  0  0  0  0
  135.2940   75.9663  223.5057 H   0  0  0  0  0  0  0  0  0  0  0  0
  137.6730   77.5838  223.4723 H   0  0  0  0  0  0  0  0  0  0  0  0
  137.5877   75.8724  223.8742 H   0  0  0  0  0  0  0  0  0  0  0  0
  138.1716   77.2017  221.1911 H   0  0  0  0  0  0  0  0  0  0  0  0
  140.4552   77.5115  221.3158 H   0  0  0  0  0  0  0  0  0  0  0  0
  142.5020   75.8390  221.4820 H   0  0  0  0  0  0  0  0  0  0  0  0
  141.6462   73.5181  222.0426 H   0  0  0  0  0  0  0  0  0  0  0  0
  140.1817   72.6027  223.2470 H   0  0  0  0  0  0  0  0  0  0  0  0
  141.3991   71.9833  225.3171 H   0  0  0  0  0  0  0  0  0  0  0  0
  141.7179   70.3662  227.1658 H   0  0  0  0  0  0  0  0  0  0  0  0
  139.2991   66.8014  227.3542 H   0  0  0  0  0  0  0  0  0  0  0  0
  138.1382   67.5216  225.2607 H   0  0  0  0  0  0  0  0  0  0  0  0
  1  2  2  0
  2  3  1  0
  3  4  1  0
  4  5  1  0
  5  6  2  0
  5  7  1  0
  7  8  1  0
  8  9  1  0
  9 10  1  0
 10 11  1  0
 11 12  1  0
 12 13  2  0
 13 14  1  0
 14 15  1  0
 15 16  2  0
  2 17  1  0
 17 18  2  0
 18 19  1  0
 19 20  2  0
 20 21  1  0
 21 22  2  0
 22 23  1  0
 22 24  1  0
 24 25  2  0
 25 26  1  0
 26 27  2  0
 11  7  1  0
 16 12  1  0
 27 17  1  0
 26 20  1  0
  3 28  1  0
  4 29  1  0
  4 30  1  0
  8 31  1  0
  8 32  1  0
  9 33  1  0
  9 34  1  0
 10 35  1  0
 10 36  1  0
 11 37  1  6
 13 38  1  0
 14 39  1  0
 15 40  1  0
 18 41  1  0
 19 42  1  0
 21 43  1  0
 24 44  1  0
 25 45  1  0
M  END
>  <smiles>  (1) 
O=C(NCC(=O)N1CCC[C@H]1c1c[nH]cn1)c1ccc2cc(Cl)ccc2n1

>  <score_type>  (1) 
oracle

>  <origin>  (1) 
autodockgpu

>  <m_score__min__energy>  (1) 
-8.1600000000000001

>  <m_primary>  (1) 
energy

>  <rmsd>  (1) 
4.006914656655623

>  <m_score__min__rmsd>  (1) 
4.006914656655623

>  <meeko>  (1) 
{"free_energy": -6.68, "intermolecular_energy": -8.18, "internal_energy": -1.92, "cluster_size": 11, "cluster_id": 6, "rank_in_cluster": 2}

>  <energy>  (1) 
-8.16

>  <cluster_rmsd>  (1) 
0.0

>  <cluster>  (1) 
1

$$$$

     RDKit          3D

 45 48  0  0  0  0  0  0  0  0999 V2000
  134.6710   68.5580  224.9740 O   0  0  0  0  0  0  0  0  0  0  0  0
  135.2060   69.7030  225.1400 C   0  0  0  0  0  0  0  0  0  0  0  0
  136.5760   69.9370  224.7470 N   0  0  0  0  0  0  0  0  0  0  0  0
  137.2750   68.8280  224.1710 C   0  0  0  0  0  0  0  0  0  0  0  0
  138.7090   68.7250  224.3330 C   0  0  0  0  0  0  0  0  0  0  0  0
  139.1440   67.5270  224.5650 O   0  0  0  0  0  0  0  0  0  0  0  0
  139.7080   69.7170  224.2810 N   0  0  0  0  0  0  0  0  0  0  0  0
  139.9660   70.6590  223.1670 C   0  0  0  0  0  0  0  0  0  0  0  0
  140.2650   71.9590  223.8630 C   0  0  0  0  0  0  0  0  0  0  0  0
  140.7310   71.5820  225.2340 C   0  0  0  0  0  0  0  0  0  0  0  0
  140.7530   70.0680  225.2200 C   0  0  1  0  0  0  0  0  0  0  0  0
  140.6630   69.4350  226.5160 C   0  0  0  0  0  0  0  0  0  0  0  0
  141.1280   68.1250  226.7520 C   0  0  0  0  0  0  0  0  0  0  0  0
  140.8840   67.7820  228.0230 N   0  0  0  0  0  0  0  0  0  0  0  0
  140.2820   68.8260  228.5870 C   0  0  0  0  0  0  0  0  0  0  0  0
  140.1510   69.8020  227.6990 N   0  0  0  0  0  0  0  0  0  0  0  0
  134.4510   70.8050  225.7340 C   0  0  0  0  0  0  0  0  0  0  0  0
  133.4290   70.5080  226.6120 C   0  0  0  0  0  0  0  0  0  0  0  0
  132.6980   71.5260  227.1880 C   0  0  0  0  0  0  0  0  0  0  0  0
  132.9910   72.8400  226.8830 C   0  0  0  0  0  0  0  0  0  0  0  0
  132.3100   73.9080  227.4140 C   0  0  0  0  0  0  0  0  0  0  0  0
  132.6380   75.2060  227.0800 C   0  0  0  0  0  0  0  0  0  0  0  0
  131.6980   76.4960  227.8210 Cl  0  0  0  0  0  0  0  0  0  0  0  0
  133.6690   75.4890  226.1940 C   0  0  0  0  0  0  0  0  0  0  0  0
  134.3630   74.4210  225.6520 C   0  0  0  0  0  0  0  0  0  0  0  0
  134.0270   73.1230  225.9940 C   0  0  0  0  0  0  0  0  0  0  0  0
  134.7060   72.0980  225.4620 N   0  0  0  0  0  0  0  0  0  0  0  0
  136.9770   70.8890  224.9010 H   0  0  0  0  0  0  0  0  0  0  0  0
  136.8383   67.9157  224.6034 H   0  0  0  0  0  0  0  0  0  0  0  0
  137.1486   68.9784  223.0887 H   0  0  0  0  0  0  0  0  0  0  0  0
  140.8257   70.3292  222.5653 H   0  0  0  0  0  0  0  0  0  0  0  0
  139.1207   70.7341  222.4671 H   0  0  0  0  0  0  0  0  0  0  0  0
  141.0525   72.5093  223.3273 H   0  0  0  0  0  0  0  0  0  0  0  0
  139.3825   72.6147  223.8985 H   0  0  0  0  0  0  0  0  0  0  0  0
  141.7363   71.9843  225.4280 H   0  0  0  0  0  0  0  0  0  0  0  0
  140.0804   71.9850  226.0241 H   0  0  0  0  0  0  0  0  0  0  0  0
  141.7314   69.6766  224.9044 H   0  0  0  0  0  0  0  0  0  0  0  0
  141.6171   67.4823  226.0052 H   0  0  0  0  0  0  0  0  0  0  0  0
  141.0920   66.8960  228.5350 H   0  0  0  0  0  0  0  0  0  0  0  0
  139.9438   68.8724  229.6327 H   0  0  0  0  0  0  0  0  0  0  0  0
  133.1973   69.4599  226.8525 H   0  0  0  0  0  0  0  0  0  0  0  0
  131.8833   71.2913  227.8889 H   0  0  0  0  0  0  0  0  0  0  0  0
  131.4864   73.7249  228.1198 H   0  0  0  0  0  0  0  0  0  0  0  0
  133.9254   76.5261  225.9319 H   0  0  0  0  0  0  0  0  0  0  0  0
  135.1859   74.6051  224.9457 H   0  0  0  0  0  0  0  0  0  0  0  0
  1  2  2  0
  2  3  1  0
  3  4  1  0
  4  5  1  0
  5  6  2  0
  5  7  1  0
  7  8  1  0
  8  9  1  0
  9 10  1  0
 10 11  1  0
 11 12  1  0
 12 13  2  0
 13 14  1  0
 14 15  1  0
 15 16  2  0
  2 17  1  0
 17 18  2  0
 18 19  1  0
 19 20  2  0
 20 21  1  0
 21 22  2  0
 22 23  1  0
 22 24  1  0
 24 25  2  0
 25 26  1  0
 26 27  2  0
 11  7  1  0
 16 12  1  0
 27 17  1  0
 26 20  1  0
  3 28  1  0
  4 29  1  0
  4 30  1  0
  8 31  1  0
  8 32  1  0
  9 33  1  0
  9 34  1  0
 10 35  1  0
 10 36  1  0
 11 37  1  6
 13 38  1  0
 14 39  1  0
 15 40  1  0
 18 41  1  0
 19 42  1  0
 21 43  1  0
 24 44  1  0
 25 45  1  0
M  END
>  <smiles>  (2) 
O=C(NCC(=O)N1CCC[C@H]1c1c[nH]cn1)c1ccc2cc(Cl)ccc2n1

>  <score_type>  (2) 
oracle

>  <origin>  (2) 
autodockgpu

>  <m_score__min__energy>  (2) 
-8.1600000000000001

>  <m_primary>  (2) 
energy

>  <rmsd>  (2) 
7.920597137654313

>  <m_score__min__rmsd>  (2) 
7.920597137654313

>  <meeko>  (2) 
{"free_energy": -7.67, "intermolecular_energy": -9.16, "internal_energy": -1.33, "cluster_size": 3, "cluster_id": 2, "rank_in_cluster": 2}

>  <energy>  (2) 
-8.11

>  <cluster_rmsd>  (2) 
0.22

>  <cluster>  (2) 
1

$$$$

     RDKit          3D

 45 48  0  0  0  0  0  0  0  0999 V2000
  140.4580   72.5080  220.7220 O   0  0  0  0  0  0  0  0  0  0  0  0
  140.1330   72.8890  221.8950 C   0  0  0  0  0  0  0  0  0  0  0  0
  139.7770   74.2650  222.1460 N   0  0  0  0  0  0  0  0  0  0  0  0
  139.8080   75.1510  221.0220 C   0  0  0  0  0  0  0  0  0  0  0  0
  140.8400   76.1620  220.9370 C   0  0  0  0  0  0  0  0  0  0  0  0
  141.9260   75.7820  220.3430 O   0  0  0  0  0  0  0  0  0  0  0  0
  140.8520   77.4940  221.3980 N   0  0  0  0  0  0  0  0  0  0  0  0
  140.5540   77.9600  222.7720 C   0  0  0  0  0  0  0  0  0  0  0  0
  141.5800   79.0330  223.0150 C   0  0  0  0  0  0  0  0  0  0  0  0
  141.9870   79.5130  221.6580 C   0  0  0  0  0  0  0  0  0  0  0  0
  141.1000   78.7410  220.7050 C   0  0  1  0  0  0  0  0  0  0  0  0
  141.6030   78.6130  219.3560 C   0  0  0  0  0  0  0  0  0  0  0  0
  142.3810   79.6150  218.7390 C   0  0  0  0  0  0  0  0  0  0  0  0
  142.6760   79.2500  217.4860 N   0  0  0  0  0  0  0  0  0  0  0  0
  142.1100   78.0600  217.2960 C   0  0  0  0  0  0  0  0  0  0  0  0
  141.4770   77.6840  218.3980 N   0  0  0  0  0  0  0  0  0  0  0  0
  140.1150   71.9470  223.0120 C   0  0  0  0  0  0  0  0  0  0  0  0
  139.6030   70.6830  222.8020 C   0  0  0  0  0  0  0  0  0  0  0  0
  139.5710   69.7710  223.8360 C   0  0  0  0  0  0  0  0  0  0  0  0
  140.0540   70.1260  225.0810 C   0  0  0  0  0  0  0  0  0  0  0  0
  140.0570   69.2760  226.1590 C   0  0  0  0  0  0  0  0  0  0  0  0
  140.5490   69.6750  227.3860 C   0  0  0  0  0  0  0  0  0  0  0  0
  140.5040   68.5040  228.6970 Cl  0  0  0  0  0  0  0  0  0  0  0  0
  141.0610   70.9510  227.5810 C   0  0  0  0  0  0  0  0  0  0  0  0
  141.0630   71.8170  226.5010 C   0  0  0  0  0  0  0  0  0  0  0  0
  140.5680   71.4070  225.2760 C   0  0  0  0  0  0  0  0  0  0  0  0
  140.5750   72.2550  224.2390 N   0  0  0  0  0  0  0  0  0  0  0  0
  139.5170   74.5370  223.1210 H   0  0  0  0  0  0  0  0  0  0  0  0
  139.9005   74.5237  220.1232 H   0  0  0  0  0  0  0  0  0  0  0  0
  138.8829   75.7362  221.1302 H   0  0  0  0  0  0  0  0  0  0  0  0
  139.5352   78.3700  222.8348 H   0  0  0  0  0  0  0  0  0  0  0  0
  140.5991   77.1508  223.5158 H   0  0  0  0  0  0  0  0  0  0  0  0
  141.1436   79.8567  223.5990 H   0  0  0  0  0  0  0  0  0  0  0  0
  142.4390   78.6534  223.5877 H   0  0  0  0  0  0  0  0  0  0  0  0
  141.8151   80.5950  221.5599 H   0  0  0  0  0  0  0  0  0  0  0  0
  143.0568   79.3519  221.4593 H   0  0  0  0  0  0  0  0  0  0  0  0
  140.1653   79.2798  220.4907 H   0  0  0  0  0  0  0  0  0  0  0  0
  142.6973   80.5544  219.2159 H   0  0  0  0  0  0  0  0  0  0  0  0
  143.2280   79.7450  216.7510 H   0  0  0  0  0  0  0  0  0  0  0  0
  142.1602   77.4768  216.3647 H   0  0  0  0  0  0  0  0  0  0  0  0
  139.2202   70.4027  221.8096 H   0  0  0  0  0  0  0  0  0  0  0  0
  139.1620   68.7635  223.6700 H   0  0  0  0  0  0  0  0  0  0  0  0
  139.6596   68.2569  226.0430 H   0  0  0  0  0  0  0  0  0  0  0  0
  141.4519   71.2631  228.5607 H   0  0  0  0  0  0  0  0  0  0  0  0
  141.4602   72.8362  226.6175 H   0  0  0  0  0  0  0  0  0  0  0  0
  1  2  2  0
  2  3  1  0
  3  4  1  0
  4  5  1  0
  5  6  2  0
  5  7  1  0
  7  8  1  0
  8  9  1  0
  9 10  1  0
 10 11  1  0
 11 12  1  0
 12 13  2  0
 13 14  1  0
 14 15  1  0
 15 16  2  0
  2 17  1  0
 17 18  2  0
 18 19  1  0
 19 20  2  0
 20 21  1  0
 21 22  2  0
 22 23  1  0
 22 24  1  0
 24 25  2  0
 25 26  1  0
 26 27  2  0
 11  7  1  0
 16 12  1  0
 27 17  1  0
 26 20  1  0
  3 28  1  0
  4 29  1  0
  4 30  1  0
  8 31  1  0
  8 32  1  0
  9 33  1  0
  9 34  1  0
 10 35  1  0
 10 36  1  0
 11 37  1  6
 13 38  1  0
 14 39  1  0
 15 40  1  0
 18 41  1  0
 19 42  1  0
 21 43  1  0
 24 44  1  0
 25 45  1  0
M  END
>  <smiles>  (3) 
O=C(NCC(=O)N1CCC[C@H]1c1c[nH]cn1)c1ccc2cc(Cl)ccc2n1

>  <score_type>  (3) 
oracle

>  <origin>  (3) 
autodockgpu

>  <m_score__min__energy>  (3) 
-8.1600000000000001

>  <m_primary>  (3) 
energy

>  <rmsd>  (3) 
3.36291222817034

>  <m_score__min__rmsd>  (3) 
3.36291222817034

>  <meeko>  (3) 
{"free_energy": -8.03, "intermolecular_energy": -9.52, "internal_energy": -1.11, "cluster_size": 12, "cluster_id": 1, "rank_in_cluster": 5}

>  <energy>  (3) 
-8.08

>  <cluster_rmsd>  (3) 
0.21

>  <cluster>  (3) 
1

$$$$

     RDKit          3D

 45 48  0  0  0  0  0  0  0  0999 V2000
  140.1380   72.0910  220.8420 O   0  0  0  0  0  0  0  0  0  0  0  0
  139.9250   72.4880  222.0340 C   0  0  0  0  0  0  0  0  0  0  0  0
  139.6270   73.8750  222.3040 N   0  0  0  0  0  0  0  0  0  0  0  0
  139.5870   74.7520  221.1740 C   0  0  0  0  0  0  0  0  0  0  0  0
  140.6260   75.7450  221.0020 C   0  0  0  0  0  0  0  0  0  0  0  0
  140.9710   76.3630  222.0860 O   0  0  0  0  0  0  0  0  0  0  0  0
  141.3200   76.1490  219.8440 N   0  0  0  0  0  0  0  0  0  0  0  0
  141.0110   77.3160  218.9860 C   0  0  0  0  0  0  0  0  0  0  0  0
  142.3660   77.8820  218.6530 C   0  0  0  0  0  0  0  0  0  0  0  0
  143.3250   76.7450  218.8160 C   0  0  0  0  0  0  0  0  0  0  0  0
  142.4480   75.5580  219.1540 C   0  0  1  0  0  0  0  0  0  0  0  0
  143.1080   74.4790  219.8520 C   0  0  0  0  0  0  0  0  0  0  0  0
  144.4510   74.5600  220.2750 C   0  0  0  0  0  0  0  0  0  0  0  0
  144.8100   73.4100  220.8580 N   0  0  0  0  0  0  0  0  0  0  0  0
  143.7450   72.6140  220.8130 C   0  0  0  0  0  0  0  0  0  0  0  0
  142.7400   73.2440  220.2200 N   0  0  0  0  0  0  0  0  0  0  0  0
  139.9760   71.5530  223.1570 C   0  0  0  0  0  0  0  0  0  0  0  0
  139.5110   70.2670  222.9680 C   0  0  0  0  0  0  0  0  0  0  0  0
  139.5460   69.3620  224.0070 C   0  0  0  0  0  0  0  0  0  0  0  0
  140.0480   69.7440  225.2360 C   0  0  0  0  0  0  0  0  0  0  0  0
  140.1160   68.9020  226.3180 C   0  0  0  0  0  0  0  0  0  0  0  0
  140.6240   69.3290  227.5280 C   0  0  0  0  0  0  0  0  0  0  0  0
  140.6640   68.1650  228.8470 Cl  0  0  0  0  0  0  0  0  0  0  0  0
  141.0890   70.6260  227.7030 C   0  0  0  0  0  0  0  0  0  0  0  0
  141.0240   71.4840  226.6190 C   0  0  0  0  0  0  0  0  0  0  0  0
  140.5130   71.0470  225.4100 C   0  0  0  0  0  0  0  0  0  0  0  0
  140.4560   71.8870  224.3680 N   0  0  0  0  0  0  0  0  0  0  0  0
  139.4580   74.1590  223.2950 H   0  0  0  0  0  0  0  0  0  0  0  0
  139.6006   74.1167  220.2761 H   0  0  0  0  0  0  0  0  0  0  0  0
  138.6826   75.3537  221.3475 H   0  0  0  0  0  0  0  0  0  0  0  0
  140.4815   77.0032  218.0740 H   0  0  0  0  0  0  0  0  0  0  0  0
  140.3533   78.0464  219.4799 H   0  0  0  0  0  0  0  0  0  0  0  0
  142.3834   78.2543  217.6181 H   0  0  0  0  0  0  0  0  0  0  0  0
  142.6248   78.7307  219.3031 H   0  0  0  0  0  0  0  0  0  0  0  0
  143.8791   76.5663  217.8827 H   0  0  0  0  0  0  0  0  0  0  0  0
  144.0809   76.9418  219.5905 H   0  0  0  0  0  0  0  0  0  0  0  0
  142.1329   75.0127  218.2521 H   0  0  0  0  0  0  0  0  0  0  0  0
  145.1043   75.4355  220.1454 H   0  0  0  0  0  0  0  0  0  0  0  0
  145.7210   73.1240  221.2810 H   0  0  0  0  0  0  0  0  0  0  0  0
  143.7042   71.5882  221.2080 H   0  0  0  0  0  0  0  0  0  0  0  0
  139.1126   69.9646  221.9883 H   0  0  0  0  0  0  0  0  0  0  0  0
  139.1748   68.3373  223.8578 H   0  0  0  0  0  0  0  0  0  0  0  0
  139.7585   67.8665  226.2186 H   0  0  0  0  0  0  0  0  0  0  0  0
  141.4948   70.9596  228.6695 H   0  0  0  0  0  0  0  0  0  0  0  0
  141.3808   72.5197  226.7194 H   0  0  0  0  0  0  0  0  0  0  0  0
  1  2  2  0
  2  3  1  0
  3  4  1  0
  4  5  1  0
  5  6  2  0
  5  7  1  0
  7  8  1  0
  8  9  1  0
  9 10  1  0
 10 11  1  0
 11 12  1  0
 12 13  2  0
 13 14  1  0
 14 15  1  0
 15 16  2  0
  2 17  1  0
 17 18  2  0
 18 19  1  0
 19 20  2  0
 20 21  1  0
 21 22  2  0
 22 23  1  0
 22 24  1  0
 24 25  2  0
 25 26  1  0
 26 27  2  0
 11  7  1  0
 16 12  1  0
 27 17  1  0
 26 20  1  0
  3 28  1  0
  4 29  1  0
  4 30  1  0
  8 31  1  0
  8 32  1  0
  9 33  1  0
  9 34  1  0
 10 35  1  0
 10 36  1  0
 11 37  1  6
 13 38  1  0
 14 39  1  0
 15 40  1  0
 18 41  1  0
 19 42  1  0
 21 43  1  0
 24 44  1  0
 25 45  1  0
M  END
>  <smiles>  (4) 
O=C(NCC(=O)N1CCC[C@H]1c1c[nH]cn1)c1ccc2cc(Cl)ccc2n1

>  <score_type>  (4) 
oracle

>  <origin>  (4) 
autodockgpu

>  <m_score__min__energy>  (4) 
-8.1600000000000001

>  <m_primary>  (4) 
energy

>  <rmsd>  (4) 
2.781555702915796

>  <m_score__min__rmsd>  (4) 
2.781555702915796

>  <meeko>  (4) 
{"free_energy": -7.27, "intermolecular_energy": -8.76, "internal_energy": -1.57, "cluster_size": 8, "cluster_id": 3, "rank_in_cluster": 4}

>  <energy>  (4) 
-8.05

>  <cluster_rmsd>  (4) 
0.26

>  <cluster>  (4) 
1

$$$$

     RDKit          3D

 45 48  0  0  0  0  0  0  0  0999 V2000
  134.7740   68.5290  225.2930 O   0  0  0  0  0  0  0  0  0  0  0  0
  135.1820   69.7270  225.1400 C   0  0  0  0  0  0  0  0  0  0  0  0
  136.3900   70.0020  224.3990 N   0  0  0  0  0  0  0  0  0  0  0  0
  137.0810   68.8700  223.8590 C   0  0  0  0  0  0  0  0  0  0  0  0
  138.4030   68.5410  224.3450 C   0  0  0  0  0  0  0  0  0  0  0  0
  138.9310   67.4860  223.8110 O   0  0  0  0  0  0  0  0  0  0  0  0
  139.2080   69.1820  225.3080 N   0  0  0  0  0  0  0  0  0  0  0  0
  139.6840   68.6120  226.5890 C   0  0  0  0  0  0  0  0  0  0  0  0
  141.1030   69.1000  226.6910 C   0  0  0  0  0  0  0  0  0  0  0  0
  141.1670   70.3290  225.8390 C   0  0  0  0  0  0  0  0  0  0  0  0
  139.7450   70.5270  225.3600 C   0  0  1  0  0  0  0  0  0  0  0  0
  139.6020   71.3000  224.1470 C   0  0  0  0  0  0  0  0  0  0  0  0
  140.7000   71.9030  223.5000 C   0  0  0  0  0  0  0  0  0  0  0  0
  140.2750   72.5840  222.4290 N   0  0  0  0  0  0  0  0  0  0  0  0
  138.9530   72.4310  222.3840 C   0  0  0  0  0  0  0  0  0  0  0  0
  138.5560   71.6730  223.3980 N   0  0  0  0  0  0  0  0  0  0  0  0
  134.4400   70.8510  225.7100 C   0  0  0  0  0  0  0  0  0  0  0  0
  133.3890   70.5840  226.5630 C   0  0  0  0  0  0  0  0  0  0  0  0
  132.6700   71.6220  227.1170 C   0  0  0  0  0  0  0  0  0  0  0  0
  133.0050   72.9280  226.8160 C   0  0  0  0  0  0  0  0  0  0  0  0
  132.3390   74.0140  227.3260 C   0  0  0  0  0  0  0  0  0  0  0  0
  132.7090   75.3030  226.9970 C   0  0  0  0  0  0  0  0  0  0  0  0
  131.7850   76.6190  227.7100 Cl  0  0  0  0  0  0  0  0  0  0  0  0
  133.7700   75.5550  226.1370 C   0  0  0  0  0  0  0  0  0  0  0  0
  134.4480   74.4670  225.6160 C   0  0  0  0  0  0  0  0  0  0  0  0
  134.0700   73.1800  225.9520 C   0  0  0  0  0  0  0  0  0  0  0  0
  134.7350   72.1360  225.4410 N   0  0  0  0  0  0  0  0  0  0  0  0
  136.6890   70.9970  224.2960 H   0  0  0  0  0  0  0  0  0  0  0  0
  136.4456   67.9909  224.0418 H   0  0  0  0  0  0  0  0  0  0  0  0
  137.2554   69.1517  222.8101 H   0  0  0  0  0  0  0  0  0  0  0  0
  139.0806   68.9817  227.4311 H   0  0  0  0  0  0  0  0  0  0  0  0
  139.6070   67.5152  226.6223 H   0  0  0  0  0  0  0  0  0  0  0  0
  141.3517   69.3427  227.7347 H   0  0  0  0  0  0  0  0  0  0  0  0
  141.8215   68.3361  226.3589 H   0  0  0  0  0  0  0  0  0  0  0  0
  141.5036   71.1946  226.4285 H   0  0  0  0  0  0  0  0  0  0  0  0
  141.8800   70.2271  225.0076 H   0  0  0  0  0  0  0  0  0  0  0  0
  139.1697   71.1685  226.0437 H   0  0  0  0  0  0  0  0  0  0  0  0
  141.7477   71.8255  223.8261 H   0  0  0  0  0  0  0  0  0  0  0  0
  140.8090   73.1440  221.7290 H   0  0  0  0  0  0  0  0  0  0  0  0
  138.2905   72.8669  221.6217 H   0  0  0  0  0  0  0  0  0  0  0  0
  133.1247   69.5431  226.8011 H   0  0  0  0  0  0  0  0  0  0  0  0
  131.8316   71.4107  227.7970 H   0  0  0  0  0  0  0  0  0  0  0  0
  131.4931   73.8544  228.0109 H   0  0  0  0  0  0  0  0  0  0  0  0
  134.0613   76.5839  225.8789 H   0  0  0  0  0  0  0  0  0  0  0  0
  135.2930   74.6269  224.9302 H   0  0  0  0  0  0  0  0  0  0  0  0
  1  2  2  0
  2  3  1  0
  3  4  1  0
  4  5  1  0
  5  6  2  0
  5  7  1  0
  7  8  1  0
  8  9  1  0
  9 10  1  0
 10 11  1  0
 11 12  1  0
 12 13  2  0
 13 14  1  0
 14 15  1  0
 15 16  2  0
  2 17  1  0
 17 18  2  0
 18 19  1  0
 19 20  2  0
 20 21  1  0
 21 22  2  0
 22 23  1  0
 22 24  1  0
 24 25  2  0
 25 26  1  0
 26 27  2  0
 11  7  1  0
 16 12  1  0
 27 17  1  0
 26 20  1  0
  3 28  1  0
  4 29  1  0
  4 30  1  0
  8 31  1  0
  8 32  1  0
  9 33  1  0
  9 34  1  0
 10 35  1  0
 10 36  1  0
 11 37  1  1
 13 38  1  0
 14 39  1  0
 15 40  1  0
 18 41  1  0
 19 42  1  0
 21 43  1  0
 24 44  1  0
 25 45  1  0
M  END
>  <smiles>  (5) 
O=C(NCC(=O)N1CCC[C@H]1c1c[nH]cn1)c1ccc2cc(Cl)ccc2n1

>  <score_type>  (5) 
oracle

>  <origin>  (5) 
autodockgpu

>  <m_score__min__energy>  (5) 
-8.1600000000000001

>  <m_primary>  (5) 
energy

>  <rmsd>  (5) 
8.194555848672744

>  <m_score__min__rmsd>  (5) 
8.194555848672744

>  <meeko>  (5) 
{"free_energy": -6.77, "intermolecular_energy": -8.26, "internal_energy": -2.19, "cluster_size": 7, "cluster_id": 5, "rank_in_cluster": 7}

>  <energy>  (5) 
-8.03

>  <cluster_rmsd>  (5) 
0.26

>  <cluster>  (5) 
1

$$$$

     RDKit          3D

 45 48  0  0  0  0  0  0  0  0999 V2000
  140.7800   72.6350  220.9160 O   0  0  0  0  0  0  0  0  0  0  0  0
  140.2410   72.9400  222.0300 C   0  0  0  0  0  0  0  0  0  0  0  0
  139.6770   74.2530  222.2380 N   0  0  0  0  0  0  0  0  0  0  0  0
  139.7570   75.1650  221.1370 C   0  0  0  0  0  0  0  0  0  0  0  0
  140.8290   76.1360  221.0890 C   0  0  0  0  0  0  0  0  0  0  0  0
  141.9590   75.6760  220.6530 O   0  0  0  0  0  0  0  0  0  0  0  0
  140.8420   77.5000  221.4430 N   0  0  0  0  0  0  0  0  0  0  0  0
  140.4340   78.0840  222.7410 C   0  0  0  0  0  0  0  0  0  0  0  0
  141.4680   79.1470  222.9940 C   0  0  0  0  0  0  0  0  0  0  0  0
  142.0120   79.5050  221.6470 C   0  0  0  0  0  0  0  0  0  0  0  0
  141.1920   78.6800  220.6790 C   0  0  1  0  0  0  0  0  0  0  0  0
  141.8130   78.4290  219.3980 C   0  0  0  0  0  0  0  0  0  0  0  0
  142.3430   79.4630  218.5990 C   0  0  0  0  0  0  0  0  0  0  0  0
  142.8170   78.9520  217.4570 N   0  0  0  0  0  0  0  0  0  0  0  0
  142.6020   77.6390  217.5110 C   0  0  0  0  0  0  0  0  0  0  0  0
  142.0090   77.3310  218.6570 N   0  0  0  0  0  0  0  0  0  0  0  0
  140.1830   71.9730  223.1250 C   0  0  0  0  0  0  0  0  0  0  0  0
  139.6430   70.7280  222.8790 C   0  0  0  0  0  0  0  0  0  0  0  0
  139.5730   69.7940  223.8910 C   0  0  0  0  0  0  0  0  0  0  0  0
  140.0450   70.1080  225.1500 C   0  0  0  0  0  0  0  0  0  0  0  0
  140.0100   69.2350  226.2090 C   0  0  0  0  0  0  0  0  0  0  0  0
  140.4930   69.5930  227.4510 C   0  0  0  0  0  0  0  0  0  0  0  0
  140.3990   68.3940  228.7340 Cl  0  0  0  0  0  0  0  0  0  0  0  0
  141.0340   70.8510  227.6840 C   0  0  0  0  0  0  0  0  0  0  0  0
  141.0730   71.7410  226.6240 C   0  0  0  0  0  0  0  0  0  0  0  0
  140.5870   71.3720  225.3830 C   0  0  0  0  0  0  0  0  0  0  0  0
  140.6310   72.2420  224.3650 N   0  0  0  0  0  0  0  0  0  0  0  0
  139.2450   74.4630  223.1650 H   0  0  0  0  0  0  0  0  0  0  0  0
  139.8357   74.5570  220.2237 H   0  0  0  0  0  0  0  0  0  0  0  0
  138.8546   75.7838  221.2497 H   0  0  0  0  0  0  0  0  0  0  0  0
  139.4278   78.5234  222.6746 H   0  0  0  0  0  0  0  0  0  0  0  0
  140.3836   77.3376  223.5474 H   0  0  0  0  0  0  0  0  0  0  0  0
  141.0074   80.0260  223.4685 H   0  0  0  0  0  0  0  0  0  0  0  0
  142.2586   78.7937  223.6724 H   0  0  0  0  0  0  0  0  0  0  0  0
  141.8840   80.5793  221.4484 H   0  0  0  0  0  0  0  0  0  0  0  0
  143.0898   79.3022  221.5625 H   0  0  0  0  0  0  0  0  0  0  0  0
  140.2988   79.2222  220.3352 H   0  0  0  0  0  0  0  0  0  0  0  0
  142.3636   80.5281  218.8731 H   0  0  0  0  0  0  0  0  0  0  0  0
  143.2740   79.4230  216.6440 H   0  0  0  0  0  0  0  0  0  0  0  0
  142.8746   76.9193  216.7250 H   0  0  0  0  0  0  0  0  0  0  0  0
  139.2680   70.4800  221.8751 H   0  0  0  0  0  0  0  0  0  0  0  0
  139.1421   68.8009  223.6957 H   0  0  0  0  0  0  0  0  0  0  0  0
  139.5882   68.2294  226.0644 H   0  0  0  0  0  0  0  0  0  0  0  0
  141.4181   71.1305  228.6762 H   0  0  0  0  0  0  0  0  0  0  0  0
  141.4929   72.7472  226.7698 H   0  0  0  0  0  0  0  0  0  0  0  0
  1  2  2  0
  2  3  1  0
  3  4  1  0
  4  5  1  0
  5  6  2  0
  5  7  1  0
  7  8  1  0
  8  9  1  0
  9 10  1  0
 10 11  1  0
 11 12  1  0
 12 13  2  0
 13 14  1  0
 14 15  1  0
 15 16  2  0
  2 17  1  0
 17 18  2  0
 18 19  1  0
 19 20  2  0
 20 21  1  0
 21 22  2  0
 22 23  1  0
 22 24  1  0
 24 25  2  0
 25 26  1  0
 26 27  2  0
 11  7  1  0
 16 12  1  0
 27 17  1  0
 26 20  1  0
  3 28  1  0
  4 29  1  0
  4 30  1  0
  8 31  1  0
  8 32  1  0
  9 33  1  0
  9 34  1  0
 10 35  1  0
 10 36  1  0
 11 37  1  6
 13 38  1  0
 14 39  1  0
 15 40  1  0
 18 41  1  0
 19 42  1  0
 21 43  1  0
 24 44  1  0
 25 45  1  0
M  END
>  <smiles>  (6) 
O=C(NCC(=O)N1CCC[C@H]1c1c[nH]cn1)c1ccc2cc(Cl)ccc2n1

>  <score_type>  (6) 
oracle

>  <origin>  (6) 
autodockgpu

>  <m_score__min__energy>  (6) 
-8.1600000000000001

>  <m_primary>  (6) 
energy

>  <rmsd>  (6) 
3.3573662580935295

>  <m_score__min__rmsd>  (6) 
3.3573662580935295

>  <meeko>  (6) 
{"free_energy": -8.16, "intermolecular_energy": -9.65, "internal_energy": -0.97, "cluster_size": 12, "cluster_id": 1, "rank_in_cluster": 1}

>  <energy>  (6) 
-8.01

>  <cluster_rmsd>  (6) 
0.27

>  <cluster>  (6) 
1

$$$$

     RDKit          3D

 45 48  0  0  0  0  0  0  0  0999 V2000
  139.7930   72.5040  220.3730 O   0  0  0  0  0  0  0  0  0  0  0  0
  140.2580   72.8490  221.5090 C   0  0  0  0  0  0  0  0  0  0  0  0
  140.8830   74.1380  221.6850 N   0  0  0  0  0  0  0  0  0  0  0  0
  140.9440   74.9830  220.5310 C   0  0  0  0  0  0  0  0  0  0  0  0
  141.6660   76.2360  220.5990 C   0  0  0  0  0  0  0  0  0  0  0  0
  142.8150   76.2340  220.0020 O   0  0  0  0  0  0  0  0  0  0  0  0
  141.3190   77.4570  221.2120 N   0  0  0  0  0  0  0  0  0  0  0  0
  140.9030   77.6560  222.6190 C   0  0  0  0  0  0  0  0  0  0  0  0
  141.6030   78.9260  223.0210 C   0  0  0  0  0  0  0  0  0  0  0  0
  141.8700   79.6580  221.7440 C   0  0  0  0  0  0  0  0  0  0  0  0
  141.2250   78.7990  220.6770 C   0  0  1  0  0  0  0  0  0  0  0  0
  141.7480   78.9740  219.3410 C   0  0  0  0  0  0  0  0  0  0  0  0
  142.5080   80.1020  218.9670 C   0  0  0  0  0  0  0  0  0  0  0  0
  142.8270   80.0210  217.6700 N   0  0  0  0  0  0  0  0  0  0  0  0
  142.2940   78.8870  217.2190 C   0  0  0  0  0  0  0  0  0  0  0  0
  141.6570   78.2700  218.2050 N   0  0  0  0  0  0  0  0  0  0  0  0
  140.1710   71.9510  222.6600 C   0  0  0  0  0  0  0  0  0  0  0  0
  139.5510   70.7290  222.4990 C   0  0  0  0  0  0  0  0  0  0  0  0
  139.4530   69.8600  223.5650 C   0  0  0  0  0  0  0  0  0  0  0  0
  139.9770   70.2160  224.7920 C   0  0  0  0  0  0  0  0  0  0  0  0
  139.9190   69.4070  225.9000 C   0  0  0  0  0  0  0  0  0  0  0  0
  140.4550   69.8060  227.1090 C   0  0  0  0  0  0  0  0  0  0  0  0
  140.3240   68.6890  228.4610 Cl  0  0  0  0  0  0  0  0  0  0  0  0
  141.0760   71.0400  227.2550 C   0  0  0  0  0  0  0  0  0  0  0  0
  141.1400   71.8630  226.1440 C   0  0  0  0  0  0  0  0  0  0  0  0
  140.6000   71.4550  224.9390 C   0  0  0  0  0  0  0  0  0  0  0  0
  140.6670   72.2620  223.8710 N   0  0  0  0  0  0  0  0  0  0  0  0
  141.2510   74.3830  222.6320 H   0  0  0  0  0  0  0  0  0  0  0  0
  141.4054   74.3918  219.7263 H   0  0  0  0  0  0  0  0  0  0  0  0
  139.8994   75.2958  220.3860 H   0  0  0  0  0  0  0  0  0  0  0  0
  139.8114   77.7693  222.6931 H   0  0  0  0  0  0  0  0  0  0  0  0
  141.1613   76.8038  223.2648 H   0  0  0  0  0  0  0  0  0  0  0  0
  140.9600   79.5268  223.6810 H   0  0  0  0  0  0  0  0  0  0  0  0
  142.5308   78.7220  223.5756 H   0  0  0  0  0  0  0  0  0  0  0  0
  141.4143   80.6589  221.7663 H   0  0  0  0  0  0  0  0  0  0  0  0
  142.9443   79.8127  221.5656 H   0  0  0  0  0  0  0  0  0  0  0  0
  140.1805   79.0912  220.4934 H   0  0  0  0  0  0  0  0  0  0  0  0
  142.7949   80.9237  219.6396 H   0  0  0  0  0  0  0  0  0  0  0  0
  143.3760   80.6740  217.0670 H   0  0  0  0  0  0  0  0  0  0  0  0
  142.3705   78.5181  216.1855 H   0  0  0  0  0  0  0  0  0  0  0  0
  139.1349   70.4480  221.5203 H   0  0  0  0  0  0  0  0  0  0  0  0
  138.9586   68.8855  223.4383 H   0  0  0  0  0  0  0  0  0  0  0  0
  139.4361   68.4216  225.8233 H   0  0  0  0  0  0  0  0  0  0  0  0
  141.5020   71.3522  228.2199 H   0  0  0  0  0  0  0  0  0  0  0  0
  141.6237   72.8480  226.2206 H   0  0  0  0  0  0  0  0  0  0  0  0
  1  2  2  0
  2  3  1  0
  3  4  1  0
  4  5  1  0
  5  6  2  0
  5  7  1  0
  7  8  1  0
  8  9  1  0
  9 10  1  0
 10 11  1  0
 11 12  1  0
 12 13  2  0
 13 14  1  0
 14 15  1  0
 15 16  2  0
  2 17  1  0
 17 18  2  0
 18 19  1  0
 19 20  2  0
 20 21  1  0
 21 22  2  0
 22 23  1  0
 22 24  1  0
 24 25  2  0
 25 26  1  0
 26 27  2  0
 11  7  1  0
 16 12  1  0
 27 17  1  0
 26 20  1  0
  3 28  1  0
  4 29  1  0
  4 30  1  0
  8 31  1  0
  8 32  1  0
  9 33  1  0
  9 34  1  0
 10 35  1  0
 10 36  1  0
 11 37  1  6
 13 38  1  0
 14 39  1  0
 15 40  1  0
 18 41  1  0
 19 42  1  0
 21 43  1  0
 24 44  1  0
 25 45  1  0
M  END
>  <smiles>  (7) 
O=C(NCC(=O)N1CCC[C@H]1c1c[nH]cn1)c1ccc2cc(Cl)ccc2n1

>  <score_type>  (7) 
oracle

>  <origin>  (7) 
autodockgpu

>  <m_score__min__energy>  (7) 
-8.1600000000000001

>  <m_primary>  (7) 
energy

>  <rmsd>  (7) 
3.487994478084757

>  <m_score__min__rmsd>  (7) 
3.487994478084757

>  <meeko>  (7) 
{"free_energy": -7.28, "intermolecular_energy": -8.77, "internal_energy": -1.29, "cluster_size": 12, "cluster_id": 1, "rank_in_cluster": 12}

>  <energy>  (7) 
-7.92

>  <cluster_rmsd>  (7) 
0.28

>  <cluster>  (7) 
1

$$$$

     RDKit          3D

 45 48  0  0  0  0  0  0  0  0999 V2000
  139.3750   71.3640  220.4420 O   0  0  0  0  0  0  0  0  0  0  0  0
  139.2920   71.9060  221.5930 C   0  0  0  0  0  0  0  0  0  0  0  0
  139.0100   73.3160  221.7230 N   0  0  0  0  0  0  0  0  0  0  0  0
  138.8310   74.0470  220.5050 C   0  0  0  0  0  0  0  0  0  0  0  0
  139.9870   74.5680  219.8070 C   0  0  0  0  0  0  0  0  0  0  0  0
  140.0920   74.1890  218.5730 O   0  0  0  0  0  0  0  0  0  0  0  0
  141.0180   75.4180  220.2540 N   0  0  0  0  0  0  0  0  0  0  0  0
  142.3920   75.5100  219.7090 C   0  0  0  0  0  0  0  0  0  0  0  0
  142.6780   76.9870  219.7140 C   0  0  0  0  0  0  0  0  0  0  0  0
  141.7670   77.5690  220.7480 C   0  0  0  0  0  0  0  0  0  0  0  0
  141.0630   76.3700  221.3450 C   0  0  1  0  0  0  0  0  0  0  0  0
  139.7940   76.6490  221.9790 C   0  0  0  0  0  0  0  0  0  0  0  0
  139.2210   77.9380  221.9920 C   0  0  0  0  0  0  0  0  0  0  0  0
  138.0720   77.9140  222.6760 N   0  0  0  0  0  0  0  0  0  0  0  0
  137.9060   76.6600  223.0930 C   0  0  0  0  0  0  0  0  0  0  0  0
  138.9220   75.9140  222.6820 N   0  0  0  0  0  0  0  0  0  0  0  0
  139.4820   71.1160  222.8090 C   0  0  0  0  0  0  0  0  0  0  0  0
  139.0400   69.8090  222.8240 C   0  0  0  0  0  0  0  0  0  0  0  0
  139.2040   69.0390  223.9560 C   0  0  0  0  0  0  0  0  0  0  0  0
  139.8120   69.5780  225.0720 C   0  0  0  0  0  0  0  0  0  0  0  0
  140.0120   68.8770  226.2360 C   0  0  0  0  0  0  0  0  0  0  0  0
  140.6230   69.4580  227.3280 C   0  0  0  0  0  0  0  0  0  0  0  0
  140.8280   68.4650  228.7660 Cl  0  0  0  0  0  0  0  0  0  0  0  0
  141.0630   70.7750  227.2980 C   0  0  0  0  0  0  0  0  0  0  0  0
  140.8670   71.4920  226.1300 C   0  0  0  0  0  0  0  0  0  0  0  0
  140.2530   70.9010  225.0410 C   0  0  0  0  0  0  0  0  0  0  0  0
  140.0690   71.6060  223.9170 N   0  0  0  0  0  0  0  0  0  0  0  0
  138.9510   73.7200  222.6840 H   0  0  0  0  0  0  0  0  0  0  0  0
  138.3097   73.3779  219.8046 H   0  0  0  0  0  0  0  0  0  0  0  0
  138.2944   74.9523  220.8250 H   0  0  0  0  0  0  0  0  0  0  0  0
  143.1051   74.9700  220.3492 H   0  0  0  0  0  0  0  0  0  0  0  0
  142.4857   75.0605  218.7094 H   0  0  0  0  0  0  0  0  0  0  0  0
  143.7291   77.1738  219.9792 H   0  0  0  0  0  0  0  0  0  0  0  0
  142.5114   77.4375  218.7244 H   0  0  0  0  0  0  0  0  0  0  0  0
  142.3426   78.1053  221.5168 H   0  0  0  0  0  0  0  0  0  0  0  0
  141.0636   78.3007  220.3239 H   0  0  0  0  0  0  0  0  0  0  0  0
  141.6060   75.9682  222.2131 H   0  0  0  0  0  0  0  0  0  0  0  0
  139.6538   78.8282  221.5121 H   0  0  0  0  0  0  0  0  0  0  0  0
  137.3930   78.6800  222.8840 H   0  0  0  0  0  0  0  0  0  0  0  0
  137.0548   76.2981  223.6883 H   0  0  0  0  0  0  0  0  0  0  0  0
  138.5569   69.3814  221.9331 H   0  0  0  0  0  0  0  0  0  0  0  0
  138.8510   67.9973  223.9698 H   0  0  0  0  0  0  0  0  0  0  0  0
  139.6781   67.8308  226.2989 H   0  0  0  0  0  0  0  0  0  0  0  0
  141.5502   71.2324  228.1717 H   0  0  0  0  0  0  0  0  0  0  0  0
  141.2017   72.5380  226.0679 H   0  0  0  0  0  0  0  0  0  0  0  0
  1  2  2  0
  2  3  1  0
  3  4  1  0
  4  5  1  0
  5  6  2  0
  5  7  1  0
  7  8  1  0
  8  9  1  0
  9 10  1  0
 10 11  1  0
 11 12  1  0
 12 13  2  0
 13 14  1  0
 14 15  1  0
 15 16  2  0
  2 17  1  0
 17 18  2  0
 18 19  1  0
 19 20  2  0
 20 21  1  0
 21 22  2  0
 22 23  1  0
 22 24  1  0
 24 25  2  0
 25 26  1  0
 26 27  2  0
 11  7  1  0
 16 12  1  0
 27 17  1  0
 26 20  1  0
  3 28  1  0
  4 29  1  0
  4 30  1  0
  8 31  1  0
  8 32  1  0
  9 33  1  0
  9 34  1  0
 10 35  1  0
 10 36  1  0
 11 37  1  1
 13 38  1  0
 14 39  1  0
 15 40  1  0
 18 41  1  0
 19 42  1  0
 21 43  1  0
 24 44  1  0
 25 45  1  0
M  END
>  <smiles>  (8) 
O=C(NCC(=O)N1CCC[C@H]1c1c[nH]cn1)c1ccc2cc(Cl)ccc2n1

>  <score_type>  (8) 
oracle

>  <origin>  (8) 
autodockgpu

>  <m_score__min__energy>  (8) 
-8.1600000000000001

>  <m_primary>  (8) 
energy

>  <rmsd>  (8) 
2.270909956673677

>  <m_score__min__rmsd>  (8) 
2.270909956673677

>  <meeko>  (8) 
{"free_energy": -6.5, "intermolecular_energy": -7.99, "internal_energy": -1.85, "cluster_size": 1, "cluster_id": 7, "rank_in_cluster": 1}

>  <energy>  (8) 
-7.58

>  <cluster_rmsd>  (8) 
0.88

>  <cluster>  (8) 
1

$$$$

     RDKit          3D

 45 48  0  0  0  0  0  0  0  0999 V2000
  139.5570   71.9820  220.7000 O   0  0  0  0  0  0  0  0  0  0  0  0
  139.5950   72.4290  221.8930 C   0  0  0  0  0  0  0  0  0  0  0  0
  139.5100   73.8480  222.1490 N   0  0  0  0  0  0  0  0  0  0  0  0
  139.3810   74.6980  221.0040 C   0  0  0  0  0  0  0  0  0  0  0  0
  140.4980   74.8500  220.0970 C   0  0  0  0  0  0  0  0  0  0  0  0
  140.1830   75.2780  218.9160 O   0  0  0  0  0  0  0  0  0  0  0  0
  141.8720   74.6040  220.2900 N   0  0  0  0  0  0  0  0  0  0  0  0
  142.4840   73.3770  220.8500 C   0  0  0  0  0  0  0  0  0  0  0  0
  143.6970   73.1590  219.9880 C   0  0  0  0  0  0  0  0  0  0  0  0
  144.0310   74.5020  219.4190 C   0  0  0  0  0  0  0  0  0  0  0  0
  143.0320   75.4400  220.0600 C   0  0  1  0  0  0  0  0  0  0  0  0
  142.7810   76.6660  219.3370 C   0  0  0  0  0  0  0  0  0  0  0  0
  143.3170   76.9130  218.0560 C   0  0  0  0  0  0  0  0  0  0  0  0
  142.9560   78.1340  217.6440 N   0  0  0  0  0  0  0  0  0  0  0  0
  142.2160   78.6590  218.6180 C   0  0  0  0  0  0  0  0  0  0  0  0
  142.1130   77.7940  219.6170 N   0  0  0  0  0  0  0  0  0  0  0  0
  139.7270   71.5200  223.0300 C   0  0  0  0  0  0  0  0  0  0  0  0
  139.2890   70.2190  222.8910 C   0  0  0  0  0  0  0  0  0  0  0  0
  139.4000   69.3380  223.9460 C   0  0  0  0  0  0  0  0  0  0  0  0
  139.9500   69.7600  225.1400 C   0  0  0  0  0  0  0  0  0  0  0  0
  140.0930   68.9440  226.2350 C   0  0  0  0  0  0  0  0  0  0  0  0
  140.6490   69.4110  227.4090 C   0  0  0  0  0  0  0  0  0  0  0  0
  140.7850   68.2770  228.7480 Cl  0  0  0  0  0  0  0  0  0  0  0  0
  141.0850   70.7230  227.5340 C   0  0  0  0  0  0  0  0  0  0  0  0
  140.9440   71.5550  226.4370 C   0  0  0  0  0  0  0  0  0  0  0  0
  140.3870   71.0780  225.2650 C   0  0  0  0  0  0  0  0  0  0  0  0
  140.2560   71.8940  224.2100 N   0  0  0  0  0  0  0  0  0  0  0  0
  139.5450   74.1720  223.1410 H   0  0  0  0  0  0  0  0  0  0  0  0
  138.5390   74.3104  220.4117 H   0  0  0  0  0  0  0  0  0  0  0  0
  139.2657   75.7012  221.4402 H   0  0  0  0  0  0  0  0  0  0  0  0
  142.7714   73.5265  221.9012 H   0  0  0  0  0  0  0  0  0  0  0  0
  141.7974   72.5176  220.8454 H   0  0  0  0  0  0  0  0  0  0  0  0
  144.5341   72.7785  220.5918 H   0  0  0  0  0  0  0  0  0  0  0  0
  143.5078   72.4172  219.1981 H   0  0  0  0  0  0  0  0  0  0  0  0
  145.0597   74.7908  219.6805 H   0  0  0  0  0  0  0  0  0  0  0  0
  143.9766   74.5178  218.3205 H   0  0  0  0  0  0  0  0  0  0  0  0
  143.4171   75.8676  220.9975 H   0  0  0  0  0  0  0  0  0  0  0  0
  143.9377   76.2088  217.4825 H   0  0  0  0  0  0  0  0  0  0  0  0
  143.1730   78.6380  216.7550 H   0  0  0  0  0  0  0  0  0  0  0  0
  141.7591   79.6594  218.5970 H   0  0  0  0  0  0  0  0  0  0  0  0
  138.8514   69.8847  221.9388 H   0  0  0  0  0  0  0  0  0  0  0  0
  139.0509   68.3006  223.8365 H   0  0  0  0  0  0  0  0  0  0  0  0
  139.7580   67.8979  226.1756 H   0  0  0  0  0  0  0  0  0  0  0  0
  141.5273   71.0887  228.4724 H   0  0  0  0  0  0  0  0  0  0  0  0
  141.2770   72.6016  226.4980 H   0  0  0  0  0  0  0  0  0  0  0  0
  1  2  2  0
  2  3  1  0
  3  4  1  0
  4  5  1  0
  5  6  2  0
  5  7  1  0
  7  8  1  0
  8  9  1  0
  9 10  1  0
 10 11  1  0
 11 12  1  0
 12 13  2  0
 13 14  1  0
 14 15  1  0
 15 16  2  0
  2 17  1  0
 17 18  2  0
 18 19  1  0
 19 20  2  0
 20 21  1  0
 21 22  2  0
 22 23  1  0
 22 24  1  0
 24 25  2  0
 25 26  1  0
 26 27  2  0
 11  7  1  0
 16 12  1  0
 27 17  1  0
 26 20  1  0
  3 28  1  0
  4 29  1  0
  4 30  1  0
  8 31  1  0
  8 32  1  0
  9 33  1  0
  9 34  1  0
 10 35  1  0
 10 36  1  0
 11 37  1  1
 13 38  1  0
 14 39  1  0
 15 40  1  0
 18 41  1  0
 19 42  1  0
 21 43  1  0
 24 44  1  0
 25 45  1  0
M  END
>  <smiles>  (9) 
O=C(NCC(=O)N1CCC[C@H]1c1c[nH]cn1)c1ccc2cc(Cl)ccc2n1

>  <score_type>  (9) 
oracle

>  <origin>  (9) 
autodockgpu

>  <m_score__min__energy>  (9) 
-8.1600000000000001

>  <m_primary>  (9) 
energy

>  <rmsd>  (9) 
2.8136835677173337

>  <m_score__min__rmsd>  (9) 
2.8136835677173337

>  <meeko>  (9) 
{"free_energy": -7.35, "intermolecular_energy": -8.84, "internal_energy": -1.49, "cluster_size": 12, "cluster_id": 1, "rank_in_cluster": 11}

>  <energy>  (9) 
-7.54

>  <cluster_rmsd>  (9) 
0.95

>  <cluster>  (9) 
1

$$$$

     RDKit          3D

 45 48  0  0  0  0  0  0  0  0999 V2000
  134.9280   68.5130  225.3150 O   0  0  0  0  0  0  0  0  0  0  0  0
  135.2430   69.7330  225.1180 C   0  0  0  0  0  0  0  0  0  0  0  0
  136.4130   70.0740  224.3450 N   0  0  0  0  0  0  0  0  0  0  0  0
  137.1770   68.9800  223.8240 C   0  0  0  0  0  0  0  0  0  0  0  0
  138.4090   68.5940  224.4770 C   0  0  0  0  0  0  0  0  0  0  0  0
  138.8580   67.4260  224.1420 O   0  0  0  0  0  0  0  0  0  0  0  0
  139.1980   69.2820  225.4200 N   0  0  0  0  0  0  0  0  0  0  0  0
  139.6610   68.7720  226.7310 C   0  0  0  0  0  0  0  0  0  0  0  0
  141.0760   69.2740  226.8290 C   0  0  0  0  0  0  0  0  0  0  0  0
  141.1420   70.4650  225.9250 C   0  0  0  0  0  0  0  0  0  0  0  0
  139.7250   70.6310  225.4200 C   0  0  1  0  0  0  0  0  0  0  0  0
  139.5920   71.3500  224.1730 C   0  0  0  0  0  0  0  0  0  0  0  0
  140.6980   71.9090  223.4990 C   0  0  0  0  0  0  0  0  0  0  0  0
  140.2810   72.5450  222.3980 N   0  0  0  0  0  0  0  0  0  0  0  0
  138.9580   72.4060  222.3590 C   0  0  0  0  0  0  0  0  0  0  0  0
  138.5510   71.7010  223.4060 N   0  0  0  0  0  0  0  0  0  0  0  0
  134.4300   70.8160  225.6700 C   0  0  0  0  0  0  0  0  0  0  0  0
  133.3340   70.4920  226.4430 C   0  0  0  0  0  0  0  0  0  0  0  0
  132.5480   71.4900  226.9780 C   0  0  0  0  0  0  0  0  0  0  0  0
  132.8600   72.8140  226.7380 C   0  0  0  0  0  0  0  0  0  0  0  0
  132.1270   73.8630  227.2340 C   0  0  0  0  0  0  0  0  0  0  0  0
  132.4770   75.1720  226.9670 C   0  0  0  0  0  0  0  0  0  0  0  0
  131.4660   76.4370  227.6550 Cl  0  0  0  0  0  0  0  0  0  0  0  0
  133.5830   75.4830  226.1870 C   0  0  0  0  0  0  0  0  0  0  0  0
  134.3290   74.4320  225.6810 C   0  0  0  0  0  0  0  0  0  0  0  0
  133.9710   73.1250  225.9550 C   0  0  0  0  0  0  0  0  0  0  0  0
  134.7010   72.1170  225.4590 N   0  0  0  0  0  0  0  0  0  0  0  0
  136.6360   71.0850  224.2070 H   0  0  0  0  0  0  0  0  0  0  0  0
  136.5199   68.0979  223.8343 H   0  0  0  0  0  0  0  0  0  0  0  0
  137.5099   69.3438  222.8407 H   0  0  0  0  0  0  0  0  0  0  0  0
  139.0445   69.1743  227.5484 H   0  0  0  0  0  0  0  0  0  0  0  0
  139.5903   67.6773  226.8118 H   0  0  0  0  0  0  0  0  0  0  0  0
  141.3102   69.5637  227.8640 H   0  0  0  0  0  0  0  0  0  0  0  0
  141.8037   68.5015  226.5396 H   0  0  0  0  0  0  0  0  0  0  0  0
  141.4648   71.3580  226.4802 H   0  0  0  0  0  0  0  0  0  0  0  0
  141.8663   70.3324  225.1078 H   0  0  0  0  0  0  0  0  0  0  0  0
  139.1365   71.2971  226.0680 H   0  0  0  0  0  0  0  0  0  0  0  0
  141.7447   71.8335  223.8286 H   0  0  0  0  0  0  0  0  0  0  0  0
  140.8230   73.0660  221.6740 H   0  0  0  0  0  0  0  0  0  0  0  0
  138.3013   72.8142  221.5766 H   0  0  0  0  0  0  0  0  0  0  0  0
  133.0874   69.4369  226.6324 H   0  0  0  0  0  0  0  0  0  0  0  0
  131.6743   71.2326  227.5947 H   0  0  0  0  0  0  0  0  0  0  0  0
  131.2436   73.6571  227.8563 H   0  0  0  0  0  0  0  0  0  0  0  0
  133.8568   76.5278  225.9784 H   0  0  0  0  0  0  0  0  0  0  0  0
  135.2115   74.6381  225.0575 H   0  0  0  0  0  0  0  0  0  0  0  0
  1  2  2  0
  2  3  1  0
  3  4  1  0
  4  5  1  0
  5  6  2  0
  5  7  1  0
  7  8  1  0
  8  9  1  0
  9 10  1  0
 10 11  1  0
 11 12  1  0
 12 13  2  0
 13 14  1  0
 14 15  1  0
 15 16  2  0
  2 17  1  0
 17 18  2  0
 18 19  1  0
 19 20  2  0
 20 21  1  0
 21 22  2  0
 22 23  1  0
 22 24  1  0
 24 25  2  0
 25 26  1  0
 26 27  2  0
 11  7  1  0
 16 12  1  0
 27 17  1  0
 26 20  1  0
  3 28  1  0
  4 29  1  0
  4 30  1  0
  8 31  1  0
  8 32  1  0
  9 33  1  0
  9 34  1  0
 10 35  1  0
 10 36  1  0
 11 37  1  1
 13 38  1  0
 14 39  1  0
 15 40  1  0
 18 41  1  0
 19 42  1  0
 21 43  1  0
 24 44  1  0
 25 45  1  0
M  END
>  <smiles>  (10) 
O=C(NCC(=O)N1CCC[C@H]1c1c[nH]cn1)c1ccc2cc(Cl)ccc2n1

>  <score_type>  (10) 
oracle

>  <origin>  (10) 
autodockgpu

>  <m_score__min__energy>  (10) 
-8.1600000000000001

>  <m_primary>  (10) 
energy

>  <rmsd>  (10) 
8.197652962922263

>  <m_score__min__rmsd>  (10) 
8.197652962922263

>  <meeko>  (10) 
{"free_energy": -6.85, "intermolecular_energy": -8.35, "internal_energy": -2.18, "cluster_size": 7, "cluster_id": 5, "rank_in_cluster": 5}

>  <energy>  (10) 
-7.37

>  <cluster_rmsd>  (10) 
1.36

>  <cluster>  (10) 
1

$$$$

     RDKit          3D

 45 48  0  0  0  0  0  0  0  0999 V2000
  139.5850   72.0320  220.7980 O   0  0  0  0  0  0  0  0  0  0  0  0
  139.6300   72.4490  222.0020 C   0  0  0  0  0  0  0  0  0  0  0  0
  139.5330   73.8600  222.2940 N   0  0  0  0  0  0  0  0  0  0  0  0
  139.3840   74.7370  221.1730 C   0  0  0  0  0  0  0  0  0  0  0  0
  140.3180   75.8280  220.9890 C   0  0  0  0  0  0  0  0  0  0  0  0
  140.4060   76.6420  221.9930 O   0  0  0  0  0  0  0  0  0  0  0  0
  141.1450   76.1470  219.8940 N   0  0  0  0  0  0  0  0  0  0  0  0
  141.2300   77.4510  219.1970 C   0  0  0  0  0  0  0  0  0  0  0  0
  142.7030   77.6220  218.9400 C   0  0  0  0  0  0  0  0  0  0  0  0
  143.2750   76.2400  218.9520 C   0  0  0  0  0  0  0  0  0  0  0  0
  142.0730   75.3370  219.1320 C   0  0  1  0  0  0  0  0  0  0  0  0
  142.3560   74.0310  219.6820 C   0  0  0  0  0  0  0  0  0  0  0  0
  141.8600   72.8430  219.1060 C   0  0  0  0  0  0  0  0  0  0  0  0
  142.2430   71.7920  219.8400 N   0  0  0  0  0  0  0  0  0  0  0  0
  142.9570   72.2780  220.8540 C   0  0  0  0  0  0  0  0  0  0  0  0
  143.0230   73.5990  220.7610 N   0  0  0  0  0  0  0  0  0  0  0  0
  139.7820   71.5130  223.1140 C   0  0  0  0  0  0  0  0  0  0  0  0
  139.4180   70.1960  222.9240 C   0  0  0  0  0  0  0  0  0  0  0  0
  139.5490   69.2890  223.9550 C   0  0  0  0  0  0  0  0  0  0  0  0
  140.0450   69.7020  225.1750 C   0  0  0  0  0  0  0  0  0  0  0  0
  140.2040   68.8610  226.2490 C   0  0  0  0  0  0  0  0  0  0  0  0
  140.7030   69.3190  227.4520 C   0  0  0  0  0  0  0  0  0  0  0  0
  140.8660   68.1530  228.7580 Cl  0  0  0  0  0  0  0  0  0  0  0  0
  141.0640   70.6480  227.6280 C   0  0  0  0  0  0  0  0  0  0  0  0
  140.9070   71.5060  226.5530 C   0  0  0  0  0  0  0  0  0  0  0  0
  140.4070   71.0370  225.3520 C   0  0  0  0  0  0  0  0  0  0  0  0
  140.2590   71.8770  224.3190 N   0  0  0  0  0  0  0  0  0  0  0  0
  139.5740   74.1600  223.2940 H   0  0  0  0  0  0  0  0  0  0  0  0
  139.4403   74.1125  220.2692 H   0  0  0  0  0  0  0  0  0  0  0  0
  138.4293   75.2464  221.3703 H   0  0  0  0  0  0  0  0  0  0  0  0
  140.6669   77.4284  218.2523 H   0  0  0  0  0  0  0  0  0  0  0  0
  140.8006   78.2768  219.7832 H   0  0  0  0  0  0  0  0  0  0  0  0
  142.8698   78.0984  217.9626 H   0  0  0  0  0  0  0  0  0  0  0  0
  143.1766   78.2658  219.6958 H   0  0  0  0  0  0  0  0  0  0  0  0
  143.7869   76.0223  218.0030 H   0  0  0  0  0  0  0  0  0  0  0  0
  144.0249   76.1033  219.7451 H   0  0  0  0  0  0  0  0  0  0  0  0
  141.6454   75.0284  218.1667 H   0  0  0  0  0  0  0  0  0  0  0  0
  141.2506   72.7888  218.1918 H   0  0  0  0  0  0  0  0  0  0  0  0
  142.0580   70.7730  219.7090 H   0  0  0  0  0  0  0  0  0  0  0  0
  143.4214   71.6749  221.6481 H   0  0  0  0  0  0  0  0  0  0  0  0
  139.0234   69.8692  221.9506 H   0  0  0  0  0  0  0  0  0  0  0  0
  139.2587   68.2386  223.8051 H   0  0  0  0  0  0  0  0  0  0  0  0
  139.9281   67.8009  226.1487 H   0  0  0  0  0  0  0  0  0  0  0  0
  141.4612   71.0070  228.5889 H   0  0  0  0  0  0  0  0  0  0  0  0
  141.1814   72.5664  226.6547 H   0  0  0  0  0  0  0  0  0  0  0  0
  1  2  2  0
  2  3  1  0
  3  4  1  0
  4  5  1  0
  5  6  2  0
  5  7  1  0
  7  8  1  0
  8  9  1  0
  9 10  1  0
 10 11  1  0
 11 12  1  0
 12 13  2  0
 13 14  1  0
 14 15  1  0
 15 16  2  0
  2 17  1  0
 17 18  2  0
 18 19  1  0
 19 20  2  0
 20 21  1  0
 21 22  2  0
 22 23  1  0
 22 24  1  0
 24 25  2  0
 25 26  1  0
 26 27  2  0
 11  7  1  0
 16 12  1  0
 27 17  1  0
 26 20  1  0
  3 28  1  0
  4 29  1  0
  4 30  1  0
  8 31  1  0
  8 32  1  0
  9 33  1  0
  9 34  1  0
 10 35  1  0
 10 36  1  0
 11 37  1  6
 13 38  1  0
 14 39  1  0
 15 40  1  0
 18 41  1  0
 19 42  1  0
 21 43  1  0
 24 44  1  0
 25 45  1  0
M  END
>  <smiles>  (11) 
O=C(NCC(=O)N1CCC[C@H]1c1c[nH]cn1)c1ccc2cc(Cl)ccc2n1

>  <score_type>  (11) 
oracle

>  <origin>  (11) 
autodockgpu

>  <m_score__min__energy>  (11) 
-8.1600000000000001

>  <m_primary>  (11) 
energy

>  <rmsd>  (11) 
2.7976319378484105

>  <m_score__min__rmsd>  (11) 
2.7976319378484105

>  <meeko>  (11) 
{"free_energy": -6.53, "intermolecular_energy": -8.02, "internal_energy": -1.84, "cluster_size": 8, "cluster_id": 3, "rank_in_cluster": 8}

>  <energy>  (11) 
-7.35

>  <cluster_rmsd>  (11) 
1.62

>  <cluster>  (11) 
1

$$$$

     RDKit          3D

 45 48  0  0  0  0  0  0  0  0999 V2000
  138.0280   72.7910  222.1370 O   0  0  0  0  0  0  0  0  0  0  0  0
  139.1890   72.3160  222.3640 C   0  0  0  0  0  0  0  0  0  0  0  0
  140.3040   72.6660  221.5150 N   0  0  0  0  0  0  0  0  0  0  0  0
  140.0270   73.5600  220.4320 C   0  0  0  0  0  0  0  0  0  0  0  0
  140.5700   74.9010  220.4560 C   0  0  0  0  0  0  0  0  0  0  0  0
  140.0860   75.6670  221.3810 O   0  0  0  0  0  0  0  0  0  0  0  0
  141.5400   75.5080  219.6330 N   0  0  0  0  0  0  0  0  0  0  0  0
  141.4010   76.7830  218.8910 C   0  0  0  0  0  0  0  0  0  0  0  0
  142.7400   77.4460  219.0690 C   0  0  0  0  0  0  0  0  0  0  0  0
  143.7010   76.3360  219.3590 C   0  0  0  0  0  0  0  0  0  0  0  0
  142.8680   75.0780  219.2460 C   0  0  1  0  0  0  0  0  0  0  0  0
  143.3800   73.9290  219.9570 C   0  0  0  0  0  0  0  0  0  0  0  0
  144.7260   73.8290  220.3650 C   0  0  0  0  0  0  0  0  0  0  0  0
  144.9300   72.6510  220.9650 N   0  0  0  0  0  0  0  0  0  0  0  0
  143.7630   72.0090  220.9450 C   0  0  0  0  0  0  0  0  0  0  0  0
  142.8490   72.7630  220.3510 N   0  0  0  0  0  0  0  0  0  0  0  0
  139.4220   71.4060  223.4840 C   0  0  0  0  0  0  0  0  0  0  0  0
  138.9200   70.1230  223.4080 C   0  0  0  0  0  0  0  0  0  0  0  0
  139.1230   69.2400  224.4490 C   0  0  0  0  0  0  0  0  0  0  0  0
  139.8280   69.6440  225.5650 C   0  0  0  0  0  0  0  0  0  0  0  0
  140.0710   68.8270  226.6410 C   0  0  0  0  0  0  0  0  0  0  0  0
  140.7810   69.2740  227.7370 C   0  0  0  0  0  0  0  0  0  0  0  0
  141.0330   68.1400  229.0570 Cl  0  0  0  0  0  0  0  0  0  0  0  0
  141.2800   70.5690  227.7990 C   0  0  0  0  0  0  0  0  0  0  0  0
  141.0400   71.4030  226.7200 C   0  0  0  0  0  0  0  0  0  0  0  0
  140.3280   70.9450  225.6260 C   0  0  0  0  0  0  0  0  0  0  0  0
  140.1030   71.7620  224.5890 N   0  0  0  0  0  0  0  0  0  0  0  0
  141.2390   72.2550  221.7350 H   0  0  0  0  0  0  0  0  0  0  0  0
  140.4029   73.0794  219.5168 H   0  0  0  0  0  0  0  0  0  0  0  0
  138.9411   73.7207  220.5022 H   0  0  0  0  0  0  0  0  0  0  0  0
  141.1935   76.5971  217.8269 H   0  0  0  0  0  0  0  0  0  0  0  0
  140.5672   77.4005  219.2563 H   0  0  0  0  0  0  0  0  0  0  0  0
  143.0314   77.9765  218.1505 H   0  0  0  0  0  0  0  0  0  0  0  0
  142.7218   78.1914  219.8777 H   0  0  0  0  0  0  0  0  0  0  0  0
  144.5197   76.3280  218.6244 H   0  0  0  0  0  0  0  0  0  0  0  0
  144.1741   76.4383  220.3468 H   0  0  0  0  0  0  0  0  0  0  0  0
  142.8826   74.6700  218.2246 H   0  0  0  0  0  0  0  0  0  0  0  0
  145.4927   74.6030  220.2129 H   0  0  0  0  0  0  0  0  0  0  0  0
  145.7970   72.2470  221.3840 H   0  0  0  0  0  0  0  0  0  0  0  0
  143.5849   71.0054  221.3587 H   0  0  0  0  0  0  0  0  0  0  0  0
  138.3581   69.8040  222.5178 H   0  0  0  0  0  0  0  0  0  0  0  0
  138.7240   68.2166  224.3896 H   0  0  0  0  0  0  0  0  0  0  0  0
  139.6919   67.7944  226.6296 H   0  0  0  0  0  0  0  0  0  0  0  0
  141.8460   70.9196  228.6746 H   0  0  0  0  0  0  0  0  0  0  0  0
  141.4178   72.4360  226.7329 H   0  0  0  0  0  0  0  0  0  0  0  0
  1  2  2  0
  2  3  1  0
  3  4  1  0
  4  5  1  0
  5  6  2  0
  5  7  1  0
  7  8  1  0
  8  9  1  0
  9 10  1  0
 10 11  1  0
 11 12  1  0
 12 13  2  0
 13 14  1  0
 14 15  1  0
 15 16  2  0
  2 17  1  0
 17 18  2  0
 18 19  1  0
 19 20  2  0
 20 21  1  0
 21 22  2  0
 22 23  1  0
 22 24  1  0
 24 25  2  0
 25 26  1  0
 26 27  2  0
 11  7  1  0
 16 12  1  0
 27 17  1  0
 26 20  1  0
  3 28  1  0
  4 29  1  0
  4 30  1  0
  8 31  1  0
  8 32  1  0
  9 33  1  0
  9 34  1  0
 10 35  1  0
 10 36  1  0
 11 37  1  6
 13 38  1  0
 14 39  1  0
 15 40  1  0
 18 41  1  0
 19 42  1  0
 21 43  1  0
 24 44  1  0
 25 45  1  0
M  END
>  <smiles>  (12) 
O=C(NCC(=O)N1CCC[C@H]1c1c[nH]cn1)c1ccc2cc(Cl)ccc2n1

>  <score_type>  (12) 
oracle

>  <origin>  (12) 
autodockgpu

>  <m_score__min__energy>  (12) 
-8.1600000000000001

>  <m_primary>  (12) 
energy

>  <rmsd>  (12) 
3.0123030875733257

>  <m_score__min__rmsd>  (12) 
3.0123030875733257

>  <meeko>  (12) 
{"free_energy": -6.91, "intermolecular_energy": -8.41, "internal_energy": -1.73, "cluster_size": 8, "cluster_id": 3, "rank_in_cluster": 7}

>  <energy>  (12) 
-7.28

>  <cluster_rmsd>  (12) 
0.86

>  <cluster>  (12) 
1

$$$$

     RDKit          3D

 45 48  0  0  0  0  0  0  0  0999 V2000
  140.6450   72.5080  220.7530 O   0  0  0  0  0  0  0  0  0  0  0  0
  140.2410   72.8880  221.9010 C   0  0  0  0  0  0  0  0  0  0  0  0
  139.8420   74.2580  222.1210 N   0  0  0  0  0  0  0  0  0  0  0  0
  139.9250   75.1390  220.9950 C   0  0  0  0  0  0  0  0  0  0  0  0
  140.9320   76.1780  220.9730 C   0  0  0  0  0  0  0  0  0  0  0  0
  142.0750   75.8170  220.4840 O   0  0  0  0  0  0  0  0  0  0  0  0
  140.8680   77.5200  221.4010 N   0  0  0  0  0  0  0  0  0  0  0  0
  140.4860   78.0040  222.7480 C   0  0  0  0  0  0  0  0  0  0  0  0
  141.4560   79.1250  223.0110 C   0  0  0  0  0  0  0  0  0  0  0  0
  141.9050   79.5910  221.6620 C   0  0  0  0  0  0  0  0  0  0  0  0
  141.0960   78.7600  220.6890 C   0  0  1  0  0  0  0  0  0  0  0  0
  141.6670   78.6220  219.3680 C   0  0  0  0  0  0  0  0  0  0  0  0
  142.3100   79.6880  218.7060 C   0  0  0  0  0  0  0  0  0  0  0  0
  142.7060   79.2910  217.4910 N   0  0  0  0  0  0  0  0  0  0  0  0
  142.3330   78.0190  217.3680 C   0  0  0  0  0  0  0  0  0  0  0  0
  141.7200   77.6240  218.4750 N   0  0  0  0  0  0  0  0  0  0  0  0
  140.1730   71.9510  223.0210 C   0  0  0  0  0  0  0  0  0  0  0  0
  139.6130   70.7080  222.8090 C   0  0  0  0  0  0  0  0  0  0  0  0
  139.5340   69.8020  223.8450 C   0  0  0  0  0  0  0  0  0  0  0  0
  140.0150   70.1420  225.0940 C   0  0  0  0  0  0  0  0  0  0  0  0
  139.9720   69.2970  226.1750 C   0  0  0  0  0  0  0  0  0  0  0  0
  140.4650   69.6800  227.4060 C   0  0  0  0  0  0  0  0  0  0  0  0
  140.3580   68.5160  228.7200 Cl  0  0  0  0  0  0  0  0  0  0  0  0
  141.0250   70.9360  227.6040 C   0  0  0  0  0  0  0  0  0  0  0  0
  141.0730   71.7970  226.5210 C   0  0  0  0  0  0  0  0  0  0  0  0
  140.5770   71.4030  225.2920 C   0  0  0  0  0  0  0  0  0  0  0  0
  140.6290   72.2450  224.2520 N   0  0  0  0  0  0  0  0  0  0  0  0
  139.5170   74.5290  223.0770 H   0  0  0  0  0  0  0  0  0  0  0  0
  140.0958   74.5098  220.1090 H   0  0  0  0  0  0  0  0  0  0  0  0
  138.9789   75.6986  221.0360 H   0  0  0  0  0  0  0  0  0  0  0  0
  139.4495   78.3724  222.7534 H   0  0  0  0  0  0  0  0  0  0  0  0
  140.5280   77.2147  223.5131 H   0  0  0  0  0  0  0  0  0  0  0  0
  140.9601   79.9427  223.5546 H   0  0  0  0  0  0  0  0  0  0  0  0
  142.3025   78.7947  223.6309 H   0  0  0  0  0  0  0  0  0  0  0  0
  141.6927   80.6622  221.5295 H   0  0  0  0  0  0  0  0  0  0  0  0
  142.9887   79.4714  221.5160 H   0  0  0  0  0  0  0  0  0  0  0  0
  140.1507   79.2534  220.4187 H   0  0  0  0  0  0  0  0  0  0  0  0
  142.4629   80.6936  219.1248 H   0  0  0  0  0  0  0  0  0  0  0  0
  143.2070   79.8150  216.7400 H   0  0  0  0  0  0  0  0  0  0  0  0
  142.5071   77.3908  216.4819 H   0  0  0  0  0  0  0  0  0  0  0  0
  139.2296   70.4400  221.8134 H   0  0  0  0  0  0  0  0  0  0  0  0
  139.0887   68.8103  223.6771 H   0  0  0  0  0  0  0  0  0  0  0  0
  139.5357   68.2941  226.0578 H   0  0  0  0  0  0  0  0  0  0  0  0
  141.4166   71.2359  228.5872 H   0  0  0  0  0  0  0  0  0  0  0  0
  141.5082   72.8003  226.6389 H   0  0  0  0  0  0  0  0  0  0  0  0
  1  2  2  0
  2  3  1  0
  3  4  1  0
  4  5  1  0
  5  6  2  0
  5  7  1  0
  7  8  1  0
  8  9  1  0
  9 10  1  0
 10 11  1  0
 11 12  1  0
 12 13  2  0
 13 14  1  0
 14 15  1  0
 15 16  2  0
  2 17  1  0
 17 18  2  0
 18 19  1  0
 19 20  2  0
 20 21  1  0
 21 22  2  0
 22 23  1  0
 22 24  1  0
 24 25  2  0
 25 26  1  0
 26 27  2  0
 11  7  1  0
 16 12  1  0
 27 17  1  0
 26 20  1  0
  3 28  1  0
  4 29  1  0
  4 30  1  0
  8 31  1  0
  8 32  1  0
  9 33  1  0
  9 34  1  0
 10 35  1  0
 10 36  1  0
 11 37  1  6
 13 38  1  0
 14 39  1  0
 15 40  1  0
 18 41  1  0
 19 42  1  0
 21 43  1  0
 24 44  1  0
 25 45  1  0
M  END
>  <smiles>  (13) 
O=C(NCC(=O)N1CCC[C@H]1c1c[nH]cn1)c1ccc2cc(Cl)ccc2n1

>  <score_type>  (13) 
oracle

>  <origin>  (13) 
autodockgpu

>  <m_score__min__energy>  (13) 
-8.1600000000000001

>  <m_primary>  (13) 
energy

>  <rmsd>  (13) 
3.3714372141039646

>  <m_score__min__rmsd>  (13) 
3.3714372141039646

>  <meeko>  (13) 
{"free_energy": -8.11, "intermolecular_energy": -9.6, "internal_energy": -1.07, "cluster_size": 12, "cluster_id": 1, "rank_in_cluster": 2}

>  <energy>  (13) 
-7.75

>  <cluster_rmsd>  (13) 
0.0

>  <cluster>  (13) 
2

$$$$

     RDKit          3D

 45 48  0  0  0  0  0  0  0  0999 V2000
  140.5370   72.5180  220.7030 O   0  0  0  0  0  0  0  0  0  0  0  0
  140.1920   72.9010  221.8690 C   0  0  0  0  0  0  0  0  0  0  0  0
  139.8320   74.2780  222.1130 N   0  0  0  0  0  0  0  0  0  0  0  0
  139.8830   75.1610  220.9880 C   0  0  0  0  0  0  0  0  0  0  0  0
  140.9020   76.1880  220.9300 C   0  0  0  0  0  0  0  0  0  0  0  0
  142.0140   75.8180  220.3780 O   0  0  0  0  0  0  0  0  0  0  0  0
  140.8790   77.5230  221.3790 N   0  0  0  0  0  0  0  0  0  0  0  0
  140.5420   77.9950  222.7420 C   0  0  0  0  0  0  0  0  0  0  0  0
  141.5420   79.0890  222.9980 C   0  0  0  0  0  0  0  0  0  0  0  0
  141.9690   79.5660  221.6450 C   0  0  0  0  0  0  0  0  0  0  0  0
  141.1180   78.7690  220.6800 C   0  0  1  0  0  0  0  0  0  0  0  0
  141.6530   78.6390  219.3440 C   0  0  0  0  0  0  0  0  0  0  0  0
  142.4200   79.6530  218.7330 C   0  0  0  0  0  0  0  0  0  0  0  0
  142.7490   79.2820  217.4900 N   0  0  0  0  0  0  0  0  0  0  0  0
  142.2170   78.0770  217.3010 C   0  0  0  0  0  0  0  0  0  0  0  0
  141.5700   77.6970  218.3940 N   0  0  0  0  0  0  0  0  0  0  0  0
  140.1550   71.9600  222.9880 C   0  0  0  0  0  0  0  0  0  0  0  0
  139.6320   70.7010  222.7750 C   0  0  0  0  0  0  0  0  0  0  0  0
  139.5820   69.7910  223.8100 C   0  0  0  0  0  0  0  0  0  0  0  0
  140.0580   70.1430  225.0580 C   0  0  0  0  0  0  0  0  0  0  0  0
  140.0430   69.2950  226.1370 C   0  0  0  0  0  0  0  0  0  0  0  0
  140.5290   69.6900  227.3670 C   0  0  0  0  0  0  0  0  0  0  0  0
  140.4610   68.5210  228.6790 Cl  0  0  0  0  0  0  0  0  0  0  0  0
  141.0530   70.9610  227.5660 C   0  0  0  0  0  0  0  0  0  0  0  0
  141.0720   71.8250  226.4840 C   0  0  0  0  0  0  0  0  0  0  0  0
  140.5840   71.4190  225.2560 C   0  0  0  0  0  0  0  0  0  0  0  0
  140.6080   72.2650  224.2180 N   0  0  0  0  0  0  0  0  0  0  0  0
  139.5560   74.5510  223.0830 H   0  0  0  0  0  0  0  0  0  0  0  0
  140.0116   74.5326  220.0944 H   0  0  0  0  0  0  0  0  0  0  0  0
  138.9464   75.7324  221.0671 H   0  0  0  0  0  0  0  0  0  0  0  0
  139.5146   78.3863  222.7788 H   0  0  0  0  0  0  0  0  0  0  0  0
  140.5857   77.1931  223.4937 H   0  0  0  0  0  0  0  0  0  0  0  0
  141.0778   79.9089  223.5657 H   0  0  0  0  0  0  0  0  0  0  0  0
  142.3955   78.7305  223.5921 H   0  0  0  0  0  0  0  0  0  0  0  0
  141.7782   80.6436  221.5339 H   0  0  0  0  0  0  0  0  0  0  0  0
  143.0458   79.4243  221.4706 H   0  0  0  0  0  0  0  0  0  0  0  0
  140.1780   79.2877  220.4404 H   0  0  0  0  0  0  0  0  0  0  0  0
  142.7045   80.6043  219.2064 H   0  0  0  0  0  0  0  0  0  0  0  0
  143.3050   79.7830  216.7610 H   0  0  0  0  0  0  0  0  0  0  0  0
  142.3013   77.4855  216.3774 H   0  0  0  0  0  0  0  0  0  0  0  0
  139.2550   70.4232  221.7797 H   0  0  0  0  0  0  0  0  0  0  0  0
  139.1641   68.7874  223.6421 H   0  0  0  0  0  0  0  0  0  0  0  0
  139.6355   68.2801  226.0192 H   0  0  0  0  0  0  0  0  0  0  0  0
  141.4392   71.2703  228.5484 H   0  0  0  0  0  0  0  0  0  0  0  0
  141.4779   72.8405  226.6024 H   0  0  0  0  0  0  0  0  0  0  0  0
  1  2  2  0
  2  3  1  0
  3  4  1  0
  4  5  1  0
  5  6  2  0
  5  7  1  0
  7  8  1  0
  8  9  1  0
  9 10  1  0
 10 11  1  0
 11 12  1  0
 12 13  2  0
 13 14  1  0
 14 15  1  0
 15 16  2  0
  2 17  1  0
 17 18  2  0
 18 19  1  0
 19 20  2  0
 20 21  1  0
 21 22  2  0
 22 23  1  0
 22 24  1  0
 24 25  2  0
 25 26  1  0
 26 27  2  0
 11  7  1  0
 16 12  1  0
 27 17  1  0
 26 20  1  0
  3 28  1  0
  4 29  1  0
  4 30  1  0
  8 31  1  0
  8 32  1  0
  9 33  1  0
  9 34  1  0
 10 35  1  0
 10 36  1  0
 11 37  1  6
 13 38  1  0
 14 39  1  0
 15 40  1  0
 18 41  1  0
 19 42  1  0
 21 43  1  0
 24 44  1  0
 25 45  1  0
M  END
>  <smiles>  (14) 
O=C(NCC(=O)N1CCC[C@H]1c1c[nH]cn1)c1ccc2cc(Cl)ccc2n1

>  <score_type>  (14) 
oracle

>  <origin>  (14) 
autodockgpu

>  <m_score__min__energy>  (14) 
-8.1600000000000001

>  <m_primary>  (14) 
energy

>  <rmsd>  (14) 
3.3764100887715487

>  <m_score__min__rmsd>  (14) 
3.3764100887715487

>  <meeko>  (14) 
{"free_energy": -8.05, "intermolecular_energy": -9.54, "internal_energy": -1.11, "cluster_size": 12, "cluster_id": 1, "rank_in_cluster": 4}

>  <energy>  (14) 
-7.67

>  <cluster_rmsd>  (14) 
0.16

>  <cluster>  (14) 
2

$$$$

     RDKit          3D

 45 48  0  0  0  0  0  0  0  0999 V2000
  136.8520   71.2130  221.3080 O   0  0  0  0  0  0  0  0  0  0  0  0
  137.6130   71.7650  222.1690 C   0  0  0  0  0  0  0  0  0  0  0  0
  137.9760   73.1570  222.0430 N   0  0  0  0  0  0  0  0  0  0  0  0
  137.4360   73.8600  220.9190 C   0  0  0  0  0  0  0  0  0  0  0  0
  138.2700   74.7930  220.1920 C   0  0  0  0  0  0  0  0  0  0  0  0
  138.0890   74.7980  218.9090 O   0  0  0  0  0  0  0  0  0  0  0  0
  139.2490   75.6950  220.6540 N   0  0  0  0  0  0  0  0  0  0  0  0
  139.1370   77.1700  220.7180 C   0  0  0  0  0  0  0  0  0  0  0  0
  139.7810   77.5200  222.0320 C   0  0  0  0  0  0  0  0  0  0  0  0
  140.7020   76.3820  222.3420 C   0  0  0  0  0  0  0  0  0  0  0  0
  140.5980   75.4750  221.1350 C   0  0  1  0  0  0  0  0  0  0  0  0
  140.9580   74.0940  221.3650 C   0  0  0  0  0  0  0  0  0  0  0  0
  141.7250   73.3490  220.4460 C   0  0  0  0  0  0  0  0  0  0  0  0
  141.8740   72.0970  220.8930 N   0  0  0  0  0  0  0  0  0  0  0  0
  141.2270   72.0310  222.0550 C   0  0  0  0  0  0  0  0  0  0  0  0
  140.6870   73.2090  222.3330 N   0  0  0  0  0  0  0  0  0  0  0  0
  138.1380   71.0050  223.3020 C   0  0  0  0  0  0  0  0  0  0  0  0
  137.6670   69.7260  223.5160 C   0  0  0  0  0  0  0  0  0  0  0  0
  138.1430   68.9840  224.5760 C   0  0  0  0  0  0  0  0  0  0  0  0
  139.0910   69.5240  225.4220 C   0  0  0  0  0  0  0  0  0  0  0  0
  139.6130   68.8490  226.4980 C   0  0  0  0  0  0  0  0  0  0  0  0
  140.5600   69.4300  227.3180 C   0  0  0  0  0  0  0  0  0  0  0  0
  141.1600   68.4730  228.6670 Cl  0  0  0  0  0  0  0  0  0  0  0  0
  141.0250   70.7180  227.0900 C   0  0  0  0  0  0  0  0  0  0  0  0
  140.5050   71.4080  226.0080 C   0  0  0  0  0  0  0  0  0  0  0  0
  139.5570   70.8180  225.1920 C   0  0  0  0  0  0  0  0  0  0  0  0
  139.0620   71.4960  224.1490 N   0  0  0  0  0  0  0  0  0  0  0  0
  138.6020   73.5710  222.7700 H   0  0  0  0  0  0  0  0  0  0  0  0
  137.1023   73.1001  220.1971 H   0  0  0  0  0  0  0  0  0  0  0  0
  136.6607   74.5007  221.3644 H   0  0  0  0  0  0  0  0  0  0  0  0
  139.6731   77.6408  219.8807 H   0  0  0  0  0  0  0  0  0  0  0  0
  138.0974   77.5221  220.6457 H   0  0  0  0  0  0  0  0  0  0  0  0
  140.3466   78.4594  221.9447 H   0  0  0  0  0  0  0  0  0  0  0  0
  139.0340   77.6681  222.8258 H   0  0  0  0  0  0  0  0  0  0  0  0
  141.7338   76.7405  222.4719 H   0  0  0  0  0  0  0  0  0  0  0  0
  140.4343   75.8683  223.2771 H   0  0  0  0  0  0  0  0  0  0  0  0
  141.3484   75.7249  220.3705 H   0  0  0  0  0  0  0  0  0  0  0  0
  142.1384   73.7384  219.5039 H   0  0  0  0  0  0  0  0  0  0  0  0
  142.3770   71.2840  220.4720 H   0  0  0  0  0  0  0  0  0  0  0  0
  141.1521   71.1346  222.6882 H   0  0  0  0  0  0  0  0  0  0  0  0
  136.9115   69.2981  222.8407 H   0  0  0  0  0  0  0  0  0  0  0  0
  137.7683   67.9641  224.7473 H   0  0  0  0  0  0  0  0  0  0  0  0
  139.2701   67.8257  226.7108 H   0  0  0  0  0  0  0  0  0  0  0  0
  141.7805   71.1747  227.7463 H   0  0  0  0  0  0  0  0  0  0  0  0
  140.8480   72.4315  225.7962 H   0  0  0  0  0  0  0  0  0  0  0  0
  1  2  2  0
  2  3  1  0
  3  4  1  0
  4  5  1  0
  5  6  2  0
  5  7  1  0
  7  8  1  0
  8  9  1  0
  9 10  1  0
 10 11  1  0
 11 12  1  0
 12 13  2  0
 13 14  1  0
 14 15  1  0
 15 16  2  0
  2 17  1  0
 17 18  2  0
 18 19  1  0
 19 20  2  0
 20 21  1  0
 21 22  2  0
 22 23  1  0
 22 24  1  0
 24 25  2  0
 25 26  1  0
 26 27  2  0
 11  7  1  0
 16 12  1  0
 27 17  1  0
 26 20  1  0
  3 28  1  0
  4 29  1  0
  4 30  1  0
  8 31  1  0
  8 32  1  0
  9 33  1  0
  9 34  1  0
 10 35  1  0
 10 36  1  0
 11 37  1  6
 13 38  1  0
 14 39  1  0
 15 40  1  0
 18 41  1  0
 19 42  1  0
 21 43  1  0
 24 44  1  0
 25 45  1  0
M  END
>  <smiles>  (15) 
O=C(NCC(=O)N1CCC[C@H]1c1c[nH]cn1)c1ccc2cc(Cl)ccc2n1

>  <score_type>  (15) 
oracle

>  <origin>  (15) 
autodockgpu

>  <m_score__min__energy>  (15) 
-8.1600000000000001

>  <m_primary>  (15) 
energy

>  <rmsd>  (15) 
3.063592638467522

>  <m_score__min__rmsd>  (15) 
3.063592638467522

>  <meeko>  (15) 
{"free_energy": -6.4, "intermolecular_energy": -7.89, "internal_energy": -2.5, "cluster_size": 11, "cluster_id": 6, "rank_in_cluster": 8}

>  <energy>  (15) 
-7.04

>  <cluster_rmsd>  (15) 
0.79

>  <cluster>  (15) 
2

$$$$

     RDKit          3D

 45 48  0  0  0  0  0  0  0  0999 V2000
  136.8200   71.1370  221.3140 O   0  0  0  0  0  0  0  0  0  0  0  0
  137.5910   71.7090  222.1540 C   0  0  0  0  0  0  0  0  0  0  0  0
  137.9190   73.1080  222.0150 N   0  0  0  0  0  0  0  0  0  0  0  0
  137.3360   73.7940  220.9020 C   0  0  0  0  0  0  0  0  0  0  0  0
  138.0750   74.8530  220.2480 C   0  0  0  0  0  0  0  0  0  0  0  0
  137.8120   75.0010  218.9890 O   0  0  0  0  0  0  0  0  0  0  0  0
  139.0350   75.7480  220.7610 N   0  0  0  0  0  0  0  0  0  0  0  0
  138.8890   77.2130  220.9170 C   0  0  0  0  0  0  0  0  0  0  0  0
  139.5340   77.4960  222.2470 C   0  0  0  0  0  0  0  0  0  0  0  0
  140.4830   76.3630  222.4810 C   0  0  0  0  0  0  0  0  0  0  0  0
  140.3920   75.5300  221.2200 C   0  0  1  0  0  0  0  0  0  0  0  0
  140.7850   74.1470  221.3620 C   0  0  0  0  0  0  0  0  0  0  0  0
  141.4000   73.4240  220.3180 C   0  0  0  0  0  0  0  0  0  0  0  0
  141.6190   72.1630  220.7110 N   0  0  0  0  0  0  0  0  0  0  0  0
  141.1630   72.0710  221.9580 C   0  0  0  0  0  0  0  0  0  0  0  0
  140.6710   73.2410  222.3430 N   0  0  0  0  0  0  0  0  0  0  0  0
  138.1620   70.9650  223.2750 C   0  0  0  0  0  0  0  0  0  0  0  0
  137.7920   69.6470  223.4510 C   0  0  0  0  0  0  0  0  0  0  0  0
  138.3130   68.9180  224.5000 C   0  0  0  0  0  0  0  0  0  0  0  0
  139.2050   69.5100  225.3720 C   0  0  0  0  0  0  0  0  0  0  0  0
  139.7660   68.8530  226.4380 C   0  0  0  0  0  0  0  0  0  0  0  0
  140.6530   69.4860  227.2860 C   0  0  0  0  0  0  0  0  0  0  0  0
  141.3110   68.5470  228.6190 Cl  0  0  0  0  0  0  0  0  0  0  0  0
  141.0160   70.8130  227.0960 C   0  0  0  0  0  0  0  0  0  0  0  0
  140.4560   71.4860  226.0240 C   0  0  0  0  0  0  0  0  0  0  0  0
  139.5680   70.8430  225.1810 C   0  0  0  0  0  0  0  0  0  0  0  0
  139.0320   71.5060  224.1470 N   0  0  0  0  0  0  0  0  0  0  0  0
  138.5540   73.5380  222.7240 H   0  0  0  0  0  0  0  0  0  0  0  0
  137.1205   73.0346  220.1359 H   0  0  0  0  0  0  0  0  0  0  0  0
  136.4749   74.3164  221.3442 H   0  0  0  0  0  0  0  0  0  0  0  0
  139.4081   77.7473  220.1077 H   0  0  0  0  0  0  0  0  0  0  0  0
  137.8410   77.5442  220.8723 H   0  0  0  0  0  0  0  0  0  0  0  0
  140.0772   78.4520  222.2150 H   0  0  0  0  0  0  0  0  0  0  0  0
  138.7892   77.5771  223.0524 H   0  0  0  0  0  0  0  0  0  0  0  0
  141.5071   76.7368  222.6277 H   0  0  0  0  0  0  0  0  0  0  0  0
  140.2334   75.7862  223.3838 H   0  0  0  0  0  0  0  0  0  0  0  0
  141.1313   75.8439  220.4684 H   0  0  0  0  0  0  0  0  0  0  0  0
  141.6600   73.8341  219.3310 H   0  0  0  0  0  0  0  0  0  0  0  0
  142.0510   71.3620  220.1990 H   0  0  0  0  0  0  0  0  0  0  0  0
  141.1901   71.1616  222.5762 H   0  0  0  0  0  0  0  0  0  0  0  0
  137.0815   69.1777  222.7546 H   0  0  0  0  0  0  0  0  0  0  0  0
  138.0185   67.8676  224.6414 H   0  0  0  0  0  0  0  0  0  0  0  0
  139.5038   67.8005  226.6208 H   0  0  0  0  0  0  0  0  0  0  0  0
  141.7241   71.3119  227.7740 H   0  0  0  0  0  0  0  0  0  0  0  0
  140.7188   72.5384  225.8415 H   0  0  0  0  0  0  0  0  0  0  0  0
  1  2  2  0
  2  3  1  0
  3  4  1  0
  4  5  1  0
  5  6  2  0
  5  7  1  0
  7  8  1  0
  8  9  1  0
  9 10  1  0
 10 11  1  0
 11 12  1  0
 12 13  2  0
 13 14  1  0
 14 15  1  0
 15 16  2  0
  2 17  1  0
 17 18  2  0
 18 19  1  0
 19 20  2  0
 20 21  1  0
 21 22  2  0
 22 23  1  0
 22 24  1  0
 24 25  2  0
 25 26  1  0
 26 27  2  0
 11  7  1  0
 16 12  1  0
 27 17  1  0
 26 20  1  0
  3 28  1  0
  4 29  1  0
  4 30  1  0
  8 31  1  0
  8 32  1  0
  9 33  1  0
  9 34  1  0
 10 35  1  0
 10 36  1  0
 11 37  1  6
 13 38  1  0
 14 39  1  0
 15 40  1  0
 18 41  1  0
 19 42  1  0
 21 43  1  0
 24 44  1  0
 25 45  1  0
M  END
>  <smiles>  (16) 
O=C(NCC(=O)N1CCC[C@H]1c1c[nH]cn1)c1ccc2cc(Cl)ccc2n1

>  <score_type>  (16) 
oracle

>  <origin>  (16) 
autodockgpu

>  <m_score__min__energy>  (16) 
-8.1600000000000001

>  <m_primary>  (16) 
energy

>  <rmsd>  (16) 
3.1116608886681223

>  <m_score__min__rmsd>  (16) 
3.1116608886681223

>  <meeko>  (16) 
{"free_energy": -6.23, "intermolecular_energy": -7.72, "internal_energy": -2.54, "cluster_size": 11, "cluster_id": 6, "rank_in_cluster": 11}

>  <energy>  (16) 
-7.45

>  <cluster_rmsd>  (16) 
0.0

>  <cluster>  (16) 
3

$$$$

     RDKit          3D

 45 48  0  0  0  0  0  0  0  0999 V2000
  140.9470   72.6720  220.9330 O   0  0  0  0  0  0  0  0  0  0  0  0
  140.3320   72.9640  222.0110 C   0  0  0  0  0  0  0  0  0  0  0  0
  139.7050   74.2560  222.1710 N   0  0  0  0  0  0  0  0  0  0  0  0
  139.8150   75.1610  221.0680 C   0  0  0  0  0  0  0  0  0  0  0  0
  140.8570   76.1650  221.0670 C   0  0  0  0  0  0  0  0  0  0  0  0
  142.0230   75.7370  220.7030 O   0  0  0  0  0  0  0  0  0  0  0  0
  140.8070   77.5330  221.4020 N   0  0  0  0  0  0  0  0  0  0  0  0
  140.5110   78.1110  222.7330 C   0  0  0  0  0  0  0  0  0  0  0  0
  141.4830   79.2540  222.8490 C   0  0  0  0  0  0  0  0  0  0  0  0
  141.8350   79.6240  221.4430 C   0  0  0  0  0  0  0  0  0  0  0  0
  140.9720   78.7210  220.5890 C   0  0  1  0  0  0  0  0  0  0  0  0
  141.4540   78.4920  219.2460 C   0  0  0  0  0  0  0  0  0  0  0  0
  142.4370   79.3050  218.6450 C   0  0  0  0  0  0  0  0  0  0  0  0
  142.6630   78.8900  217.3930 N   0  0  0  0  0  0  0  0  0  0  0  0
  141.8580   77.8500  217.1880 C   0  0  0  0  0  0  0  0  0  0  0  0
  141.1440   77.6150  218.2810 N   0  0  0  0  0  0  0  0  0  0  0  0
  140.2460   72.0050  223.1110 C   0  0  0  0  0  0  0  0  0  0  0  0
  139.6750   70.7720  222.8690 C   0  0  0  0  0  0  0  0  0  0  0  0
  139.5790   69.8460  223.8860 C   0  0  0  0  0  0  0  0  0  0  0  0
  140.0570   70.1540  225.1440 C   0  0  0  0  0  0  0  0  0  0  0  0
  139.9980   69.2870  226.2070 C   0  0  0  0  0  0  0  0  0  0  0  0
  140.4870   69.6390  227.4490 C   0  0  0  0  0  0  0  0  0  0  0  0
  140.3600   68.4490  228.7380 Cl  0  0  0  0  0  0  0  0  0  0  0  0
  141.0600   70.8840  227.6770 C   0  0  0  0  0  0  0  0  0  0  0  0
  141.1240   71.7670  226.6120 C   0  0  0  0  0  0  0  0  0  0  0  0
  140.6310   71.4050  225.3720 C   0  0  0  0  0  0  0  0  0  0  0  0
  140.6990   72.2680  224.3500 N   0  0  0  0  0  0  0  0  0  0  0  0
  139.2110   74.4560  223.0700 H   0  0  0  0  0  0  0  0  0  0  0  0
  139.9609   74.5486  220.1659 H   0  0  0  0  0  0  0  0  0  0  0  0
  138.8892   75.7520  221.1276 H   0  0  0  0  0  0  0  0  0  0  0  0
  139.4731   78.4721  222.7820 H   0  0  0  0  0  0  0  0  0  0  0  0
  140.6136   77.3795  223.5481 H   0  0  0  0  0  0  0  0  0  0  0  0
  141.0152   80.1055  223.3649 H   0  0  0  0  0  0  0  0  0  0  0  0
  142.3729   78.9752  223.4324 H   0  0  0  0  0  0  0  0  0  0  0  0
  141.6028   80.6816  221.2490 H   0  0  0  0  0  0  0  0  0  0  0  0
  142.9076   79.5003  221.2328 H   0  0  0  0  0  0  0  0  0  0  0  0
  140.0053   79.1879  220.3490 H   0  0  0  0  0  0  0  0  0  0  0  0
  142.9418   80.1524  219.1318 H   0  0  0  0  0  0  0  0  0  0  0  0
  143.3180   79.2580  216.6680 H   0  0  0  0  0  0  0  0  0  0  0  0
  141.7944   77.2728  216.2538 H   0  0  0  0  0  0  0  0  0  0  0  0
  139.2967   70.5282  221.8653 H   0  0  0  0  0  0  0  0  0  0  0  0
  139.1224   68.8636  223.6954 H   0  0  0  0  0  0  0  0  0  0  0  0
  139.5519   68.2914  226.0661 H   0  0  0  0  0  0  0  0  0  0  0  0
  141.4491   71.1587  228.6685 H   0  0  0  0  0  0  0  0  0  0  0  0
  141.5698   72.7626  226.7535 H   0  0  0  0  0  0  0  0  0  0  0  0
  1  2  2  0
  2  3  1  0
  3  4  1  0
  4  5  1  0
  5  6  2  0
  5  7  1  0
  7  8  1  0
  8  9  1  0
  9 10  1  0
 10 11  1  0
 11 12  1  0
 12 13  2  0
 13 14  1  0
 14 15  1  0
 15 16  2  0
  2 17  1  0
 17 18  2  0
 18 19  1  0
 19 20  2  0
 20 21  1  0
 21 22  2  0
 22 23  1  0
 22 24  1  0
 24 25  2  0
 25 26  1  0
 26 27  2  0
 11  7  1  0
 16 12  1  0
 27 17  1  0
 26 20  1  0
  3 28  1  0
  4 29  1  0
  4 30  1  0
  8 31  1  0
  8 32  1  0
  9 33  1  0
  9 34  1  0
 10 35  1  0
 10 36  1  0
 11 37  1  6
 13 38  1  0
 14 39  1  0
 15 40  1  0
 18 41  1  0
 19 42  1  0
 21 43  1  0
 24 44  1  0
 25 45  1  0
M  END
>  <smiles>  (17) 
O=C(NCC(=O)N1CCC[C@H]1c1c[nH]cn1)c1ccc2cc(Cl)ccc2n1

>  <score_type>  (17) 
oracle

>  <origin>  (17) 
autodockgpu

>  <m_score__min__energy>  (17) 
-8.1600000000000001

>  <m_primary>  (17) 
energy

>  <rmsd>  (17) 
3.3691366511382697

>  <m_score__min__rmsd>  (17) 
3.3691366511382697

>  <meeko>  (17) 
{"free_energy": -7.92, "intermolecular_energy": -9.42, "internal_energy": -1.12, "cluster_size": 12, "cluster_id": 1, "rank_in_cluster": 7}

>  <energy>  (17) 
-7.4

>  <cluster_rmsd>  (17) 
0.07

>  <cluster>  (17) 
3

$$$$

     RDKit          3D

 45 48  0  0  0  0  0  0  0  0999 V2000
  136.8390   71.1970  221.3880 O   0  0  0  0  0  0  0  0  0  0  0  0
  137.6190   71.7510  222.2320 C   0  0  0  0  0  0  0  0  0  0  0  0
  137.9650   73.1470  222.1040 N   0  0  0  0  0  0  0  0  0  0  0  0
  137.3880   73.8510  220.9990 C   0  0  0  0  0  0  0  0  0  0  0  0
  138.1920   74.7960  220.2550 C   0  0  0  0  0  0  0  0  0  0  0  0
  137.9540   74.8280  218.9830 O   0  0  0  0  0  0  0  0  0  0  0  0
  139.1950   75.6860  220.6920 N   0  0  0  0  0  0  0  0  0  0  0  0
  139.1030   77.1620  220.7580 C   0  0  0  0  0  0  0  0  0  0  0  0
  139.7850   77.5030  222.0550 C   0  0  0  0  0  0  0  0  0  0  0  0
  140.7000   76.3540  222.3420 C   0  0  0  0  0  0  0  0  0  0  0  0
  140.5520   75.4480  221.1380 C   0  0  1  0  0  0  0  0  0  0  0  0
  140.9000   74.0630  221.3580 C   0  0  0  0  0  0  0  0  0  0  0  0
  141.5620   73.2840  220.3860 C   0  0  0  0  0  0  0  0  0  0  0  0
  141.7220   72.0360  220.8410 N   0  0  0  0  0  0  0  0  0  0  0  0
  141.1850   72.0040  222.0580 C   0  0  0  0  0  0  0  0  0  0  0  0
  140.6990   73.2000  222.3640 N   0  0  0  0  0  0  0  0  0  0  0  0
  138.1830   70.9900  223.3450 C   0  0  0  0  0  0  0  0  0  0  0  0
  137.8080   69.6710  223.5010 C   0  0  0  0  0  0  0  0  0  0  0  0
  138.3220   68.9270  224.5420 C   0  0  0  0  0  0  0  0  0  0  0  0
  139.2120   69.5040  225.4260 C   0  0  0  0  0  0  0  0  0  0  0  0
  139.7660   68.8300  226.4850 C   0  0  0  0  0  0  0  0  0  0  0  0
  140.6520   69.4480  227.3450 C   0  0  0  0  0  0  0  0  0  0  0  0
  141.3010   68.4880  228.6680 Cl  0  0  0  0  0  0  0  0  0  0  0  0
  141.0200   70.7770  227.1750 C   0  0  0  0  0  0  0  0  0  0  0  0
  140.4660   71.4660  226.1100 C   0  0  0  0  0  0  0  0  0  0  0  0
  139.5800   70.8380  225.2550 C   0  0  0  0  0  0  0  0  0  0  0  0
  139.0510   71.5160  224.2280 N   0  0  0  0  0  0  0  0  0  0  0  0
  138.6060   73.5630  222.8160 H   0  0  0  0  0  0  0  0  0  0  0  0
  137.0422   73.0918  220.2820 H   0  0  0  0  0  0  0  0  0  0  0  0
  136.6192   74.4818  221.4692 H   0  0  0  0  0  0  0  0  0  0  0  0
  139.6233   77.6261  219.9071 H   0  0  0  0  0  0  0  0  0  0  0  0
  138.0665   77.5275  220.7119 H   0  0  0  0  0  0  0  0  0  0  0  0
  140.3596   78.4355  221.9532 H   0  0  0  0  0  0  0  0  0  0  0  0
  139.0602   77.6593  222.8675 H   0  0  0  0  0  0  0  0  0  0  0  0
  141.7393   76.6996  222.4442 H   0  0  0  0  0  0  0  0  0  0  0  0
  140.4516   75.8442  223.2846 H   0  0  0  0  0  0  0  0  0  0  0  0
  141.2855   75.6880  220.3542 H   0  0  0  0  0  0  0  0  0  0  0  0
  141.8960   73.6475  219.4030 H   0  0  0  0  0  0  0  0  0  0  0  0
  142.1660   71.2050  220.3900 H   0  0  0  0  0  0  0  0  0  0  0  0
  141.1494   71.1198  222.7114 H   0  0  0  0  0  0  0  0  0  0  0  0
  137.0993   69.2133  222.7951 H   0  0  0  0  0  0  0  0  0  0  0  0
  138.0236   67.8758  224.6680 H   0  0  0  0  0  0  0  0  0  0  0  0
  139.4989   67.7761  226.6522 H   0  0  0  0  0  0  0  0  0  0  0  0
  141.7268   71.2645  227.8626 H   0  0  0  0  0  0  0  0  0  0  0  0
  140.7326   72.5201  225.9430 H   0  0  0  0  0  0  0  0  0  0  0  0
  1  2  2  0
  2  3  1  0
  3  4  1  0
  4  5  1  0
  5  6  2  0
  5  7  1  0
  7  8  1  0
  8  9  1  0
  9 10  1  0
 10 11  1  0
 11 12  1  0
 12 13  2  0
 13 14  1  0
 14 15  1  0
 15 16  2  0
  2 17  1  0
 17 18  2  0
 18 19  1  0
 19 20  2  0
 20 21  1  0
 21 22  2  0
 22 23  1  0
 22 24  1  0
 24 25  2  0
 25 26  1  0
 26 27  2  0
 11  7  1  0
 16 12  1  0
 27 17  1  0
 26 20  1  0
  3 28  1  0
  4 29  1  0
  4 30  1  0
  8 31  1  0
  8 32  1  0
  9 33  1  0
  9 34  1  0
 10 35  1  0
 10 36  1  0
 11 37  1  6
 13 38  1  0
 14 39  1  0
 15 40  1  0
 18 41  1  0
 19 42  1  0
 21 43  1  0
 24 44  1  0
 25 45  1  0
M  END
>  <smiles>  (18) 
O=C(NCC(=O)N1CCC[C@H]1c1c[nH]cn1)c1ccc2cc(Cl)ccc2n1

>  <score_type>  (18) 
oracle

>  <origin>  (18) 
autodockgpu

>  <m_score__min__energy>  (18) 
-8.1600000000000001

>  <m_primary>  (18) 
energy

>  <rmsd>  (18) 
3.0614153644286115

>  <m_score__min__rmsd>  (18) 
3.0614153644286115

>  <meeko>  (18) 
{"free_energy": -6.36, "intermolecular_energy": -7.85, "internal_energy": -2.53, "cluster_size": 11, "cluster_id": 6, "rank_in_cluster": 10}

>  <energy>  (18) 
-7.37

>  <cluster_rmsd>  (18) 
0.14

>  <cluster>  (18) 
3

$$$$

     RDKit          3D

 45 48  0  0  0  0  0  0  0  0999 V2000
  140.2470   73.4520  220.3770 O   0  0  0  0  0  0  0  0  0  0  0  0
  139.8610   73.5870  221.5840 C   0  0  0  0  0  0  0  0  0  0  0  0
  139.5040   74.8880  222.1000 N   0  0  0  0  0  0  0  0  0  0  0  0
  139.6050   75.9870  221.1880 C   0  0  0  0  0  0  0  0  0  0  0  0
  140.7820   76.8290  221.2110 C   0  0  0  0  0  0  0  0  0  0  0  0
  141.8510   76.2830  220.7260 O   0  0  0  0  0  0  0  0  0  0  0  0
  140.9510   78.1480  221.6790 N   0  0  0  0  0  0  0  0  0  0  0  0
  140.9490   78.5950  223.0910 C   0  0  0  0  0  0  0  0  0  0  0  0
  142.0570   79.6130  223.1430 C   0  0  0  0  0  0  0  0  0  0  0  0
  142.2150   80.1050  221.7390 C   0  0  0  0  0  0  0  0  0  0  0  0
  141.1220   79.3980  220.9680 C   0  0  1  0  0  0  0  0  0  0  0  0
  141.3460   79.2770  219.5450 C   0  0  0  0  0  0  0  0  0  0  0  0
  142.5240   79.7400  218.9220 C   0  0  0  0  0  0  0  0  0  0  0  0
  142.4460   79.5350  217.6020 N   0  0  0  0  0  0  0  0  0  0  0  0
  141.2650   78.9640  217.3760 C   0  0  0  0  0  0  0  0  0  0  0  0
  140.6160   78.8120  218.5220 N   0  0  0  0  0  0  0  0  0  0  0  0
  139.7740   72.4330  222.4780 C   0  0  0  0  0  0  0  0  0  0  0  0
  139.0030   71.3550  222.0910 C   0  0  0  0  0  0  0  0  0  0  0  0
  138.9000   70.2520  222.9120 C   0  0  0  0  0  0  0  0  0  0  0  0
  139.5690   70.2290  224.1200 C   0  0  0  0  0  0  0  0  0  0  0  0
  139.5160   69.1690  224.9910 C   0  0  0  0  0  0  0  0  0  0  0  0
  140.2010   69.1900  226.1890 C   0  0  0  0  0  0  0  0  0  0  0  0
  140.0620   67.7770  227.2270 Cl  0  0  0  0  0  0  0  0  0  0  0  0
  140.9720   70.2820  226.5650 C   0  0  0  0  0  0  0  0  0  0  0  0
  141.0320   71.3570  225.6940 C   0  0  0  0  0  0  0  0  0  0  0  0
  140.3430   71.3260  224.4960 C   0  0  0  0  0  0  0  0  0  0  0  0
  140.4090   72.3720  223.6620 N   0  0  0  0  0  0  0  0  0  0  0  0
  139.1930   74.9550  223.0950 H   0  0  0  0  0  0  0  0  0  0  0  0
  139.5316   75.5681  220.1735 H   0  0  0  0  0  0  0  0  0  0  0  0
  138.7988   76.6629  221.5093 H   0  0  0  0  0  0  0  0  0  0  0  0
  139.9840   79.0512  223.3569 H   0  0  0  0  0  0  0  0  0  0  0  0
  141.0957   77.7677  223.8009 H   0  0  0  0  0  0  0  0  0  0  0  0
  141.7857   80.4424  223.8126 H   0  0  0  0  0  0  0  0  0  0  0  0
  142.9908   79.1799  223.5308 H   0  0  0  0  0  0  0  0  0  0  0  0
  142.0819   81.1959  221.6914 H   0  0  0  0  0  0  0  0  0  0  0  0
  143.2160   79.8988  221.3323 H   0  0  0  0  0  0  0  0  0  0  0  0
  140.1921   79.9853  220.9482 H   0  0  0  0  0  0  0  0  0  0  0  0
  143.3771   80.1997  219.4424 H   0  0  0  0  0  0  0  0  0  0  0  0
  143.1300   79.7530  216.8440 H   0  0  0  0  0  0  0  0  0  0  0  0
  140.8852   78.6638  216.3883 H   0  0  0  0  0  0  0  0  0  0  0  0
  138.4712   71.3761  221.1283 H   0  0  0  0  0  0  0  0  0  0  0  0
  138.2862   69.3922  222.6054 H   0  0  0  0  0  0  0  0  0  0  0  0
  138.9156   68.2854  224.7288 H   0  0  0  0  0  0  0  0  0  0  0  0
  141.5159   70.2928  227.5210 H   0  0  0  0  0  0  0  0  0  0  0  0
  141.6316   72.2409  225.9571 H   0  0  0  0  0  0  0  0  0  0  0  0
  1  2  2  0
  2  3  1  0
  3  4  1  0
  4  5  1  0
  5  6  2  0
  5  7  1  0
  7  8  1  0
  8  9  1  0
  9 10  1  0
 10 11  1  0
 11 12  1  0
 12 13  2  0
 13 14  1  0
 14 15  1  0
 15 16  2  0
  2 17  1  0
 17 18  2  0
 18 19  1  0
 19 20  2  0
 20 21  1  0
 21 22  2  0
 22 23  1  0
 22 24  1  0
 24 25  2  0
 25 26  1  0
 26 27  2  0
 11  7  1  0
 16 12  1  0
 27 17  1  0
 26 20  1  0
  3 28  1  0
  4 29  1  0
  4 30  1  0
  8 31  1  0
  8 32  1  0
  9 33  1  0
  9 34  1  0
 10 35  1  0
 10 36  1  0
 11 37  1  6
 13 38  1  0
 14 39  1  0
 15 40  1  0
 18 41  1  0
 19 42  1  0
 21 43  1  0
 24 44  1  0
 25 45  1  0
M  END
>  <smiles>  (19) 
O=C(NCC(=O)N1CCC[C@H]1c1c[nH]cn1)c1ccc2cc(Cl)ccc2n1

>  <score_type>  (19) 
oracle

>  <origin>  (19) 
autodockgpu

>  <m_score__min__energy>  (19) 
-8.1600000000000001

>  <m_primary>  (19) 
energy

>  <rmsd>  (19) 
3.7737417038235725

>  <m_score__min__rmsd>  (19) 
3.7737417038235725

>  <meeko>  (19) 
{"free_energy": -7.54, "intermolecular_energy": -9.03, "internal_energy": -1.15, "cluster_size": 12, "cluster_id": 1, "rank_in_cluster": 9}

>  <energy>  (19) 
-7.27

>  <cluster_rmsd>  (19) 
0.45

>  <cluster>  (19) 
3

$$$$

     RDKit          3D

 45 48  0  0  0  0  0  0  0  0999 V2000
  140.0030   73.9890  221.9780 O   0  0  0  0  0  0  0  0  0  0  0  0
  140.1630   72.7340  221.8230 C   0  0  0  0  0  0  0  0  0  0  0  0
  140.3990   72.1810  220.5100 N   0  0  0  0  0  0  0  0  0  0  0  0
  140.4440   73.1110  219.4230 C   0  0  0  0  0  0  0  0  0  0  0  0
  141.7150   73.4420  218.8170 C   0  0  0  0  0  0  0  0  0  0  0  0
  142.3660   72.4320  218.3340 O   0  0  0  0  0  0  0  0  0  0  0  0
  142.3600   74.6870  218.6690 N   0  0  0  0  0  0  0  0  0  0  0  0
  141.7970   75.9100  218.0530 C   0  0  0  0  0  0  0  0  0  0  0  0
  142.2790   77.0160  218.9520 C   0  0  0  0  0  0  0  0  0  0  0  0
  143.5000   76.4780  219.6290 C   0  0  0  0  0  0  0  0  0  0  0  0
  143.7020   75.1120  219.0100 C   0  0  1  0  0  0  0  0  0  0  0  0
  144.4660   74.1780  219.8050 C   0  0  0  0  0  0  0  0  0  0  0  0
  145.0620   73.0240  219.2550 C   0  0  0  0  0  0  0  0  0  0  0  0
  145.6710   72.3270  220.2200 N   0  0  0  0  0  0  0  0  0  0  0  0
  145.4770   72.9990  221.3530 C   0  0  0  0  0  0  0  0  0  0  0  0
  144.7660   74.0910  221.1090 N   0  0  0  0  0  0  0  0  0  0  0  0
  140.1100   71.8240  222.9660 C   0  0  0  0  0  0  0  0  0  0  0  0
  139.5230   70.5860  222.7980 C   0  0  0  0  0  0  0  0  0  0  0  0
  139.4570   69.7050  223.8570 C   0  0  0  0  0  0  0  0  0  0  0  0
  139.9790   70.0640  225.0830 C   0  0  0  0  0  0  0  0  0  0  0  0
  139.9510   69.2450  226.1840 C   0  0  0  0  0  0  0  0  0  0  0  0
  140.4840   69.6470  227.3920 C   0  0  0  0  0  0  0  0  0  0  0  0
  140.3940   68.5150  228.7350 Cl  0  0  0  0  0  0  0  0  0  0  0  0
  141.0710   70.8960  227.5460 C   0  0  0  0  0  0  0  0  0  0  0  0
  141.1040   71.7320  226.4430 C   0  0  0  0  0  0  0  0  0  0  0  0
  140.5680   71.3190  225.2370 C   0  0  0  0  0  0  0  0  0  0  0  0
  140.6050   72.1370  224.1770 N   0  0  0  0  0  0  0  0  0  0  0  0
  140.5250   71.1470  220.4260 H   0  0  0  0  0  0  0  0  0  0  0  0
  139.8071   72.7009  218.6254 H   0  0  0  0  0  0  0  0  0  0  0  0
  140.1239   74.0581  219.8819 H   0  0  0  0  0  0  0  0  0  0  0  0
  142.1758   76.0436  217.0290 H   0  0  0  0  0  0  0  0  0  0  0  0
  140.7009   75.8780  217.9663 H   0  0  0  0  0  0  0  0  0  0  0  0
  142.5292   77.9098  218.3616 H   0  0  0  0  0  0  0  0  0  0  0  0
  141.5091   77.3164  219.6779 H   0  0  0  0  0  0  0  0  0  0  0  0
  144.3687   77.1249  219.4367 H   0  0  0  0  0  0  0  0  0  0  0  0
  143.3870   76.4306  220.7221 H   0  0  0  0  0  0  0  0  0  0  0  0
  144.3524   75.1574  218.1240 H   0  0  0  0  0  0  0  0  0  0  0  0
  145.0305   72.7403  218.1927 H   0  0  0  0  0  0  0  0  0  0  0  0
  146.2050   71.4310  220.1710 H   0  0  0  0  0  0  0  0  0  0  0  0
  145.8502   72.6942  222.3418 H   0  0  0  0  0  0  0  0  0  0  0  0
  139.1079   70.3022  221.8196 H   0  0  0  0  0  0  0  0  0  0  0  0
  138.9893   68.7182  223.7247 H   0  0  0  0  0  0  0  0  0  0  0  0
  139.4944   68.2476  226.1020 H   0  0  0  0  0  0  0  0  0  0  0  0
  141.4951   71.2103  228.5111 H   0  0  0  0  0  0  0  0  0  0  0  0
  141.5590   72.7300  226.5263 H   0  0  0  0  0  0  0  0  0  0  0  0
  1  2  2  0
  2  3  1  0
  3  4  1  0
  4  5  1  0
  5  6  2  0
  5  7  1  0
  7  8  1  0
  8  9  1  0
  9 10  1  0
 10 11  1  0
 11 12  1  0
 12 13  2  0
 13 14  1  0
 14 15  1  0
 15 16  2  0
  2 17  1  0
 17 18  2  0
 18 19  1  0
 19 20  2  0
 20 21  1  0
 21 22  2  0
 22 23  1  0
 22 24  1  0
 24 25  2  0
 25 26  1  0
 26 27  2  0
 11  7  1  0
 16 12  1  0
 27 17  1  0
 26 20  1  0
  3 28  1  0
  4 29  1  0
  4 30  1  0
  8 31  1  0
  8 32  1  0
  9 33  1  0
  9 34  1  0
 10 35  1  0
 10 36  1  0
 11 37  1  6
 13 38  1  0
 14 39  1  0
 15 40  1  0
 18 41  1  0
 19 42  1  0
 21 43  1  0
 24 44  1  0
 25 45  1  0
M  END
>  <smiles>  (20) 
O=C(NCC(=O)N1CCC[C@H]1c1c[nH]cn1)c1ccc2cc(Cl)ccc2n1

>  <score_type>  (20) 
oracle

>  <origin>  (20) 
autodockgpu

>  <m_score__min__energy>  (20) 
-8.1600000000000001

>  <m_primary>  (20) 
energy

>  <rmsd>  (20) 
3.2702345793517735

>  <m_score__min__rmsd>  (20) 
3.2702345793517735

>  <meeko>  (20) 
{"free_energy": -7.27, "intermolecular_energy": -8.76, "internal_energy": -1.19, "cluster_size": 8, "cluster_id": 3, "rank_in_cluster": 5}

>  <energy>  (20) 
-7.27

>  <cluster_rmsd>  (20) 
1.67

>  <cluster>  (20) 
3

$$$$

     RDKit          3D

 45 48  0  0  0  0  0  0  0  0999 V2000
  134.8420   68.4910  225.2920 O   0  0  0  0  0  0  0  0  0  0  0  0
  135.1980   69.7020  225.1150 C   0  0  0  0  0  0  0  0  0  0  0  0
  136.3920   70.0140  224.3660 N   0  0  0  0  0  0  0  0  0  0  0  0
  137.1300   68.9030  223.8460 C   0  0  0  0  0  0  0  0  0  0  0  0
  138.3910   68.5350  224.4540 C   0  0  0  0  0  0  0  0  0  0  0  0
  138.8630   67.3910  224.0740 O   0  0  0  0  0  0  0  0  0  0  0  0
  139.1850   69.2200  225.3960 N   0  0  0  0  0  0  0  0  0  0  0  0
  139.6460   68.7090  226.7070 C   0  0  0  0  0  0  0  0  0  0  0  0
  141.0650   69.2010  226.8020 C   0  0  0  0  0  0  0  0  0  0  0  0
  141.1380   70.3890  225.8950 C   0  0  0  0  0  0  0  0  0  0  0  0
  139.7220   70.5650  225.3920 C   0  0  1  0  0  0  0  0  0  0  0  0
  139.5930   71.2820  224.1430 C   0  0  0  0  0  0  0  0  0  0  0  0
  140.7000   71.8430  223.4740 C   0  0  0  0  0  0  0  0  0  0  0  0
  140.2870   72.4770  222.3710 N   0  0  0  0  0  0  0  0  0  0  0  0
  138.9640   72.3350  222.3260 C   0  0  0  0  0  0  0  0  0  0  0  0
  138.5540   71.6300  223.3710 N   0  0  0  0  0  0  0  0  0  0  0  0
  134.4090   70.8030  225.6650 C   0  0  0  0  0  0  0  0  0  0  0  0
  133.3120   70.5050  226.4460 C   0  0  0  0  0  0  0  0  0  0  0  0
  132.5480   71.5220  226.9790 C   0  0  0  0  0  0  0  0  0  0  0  0
  132.8840   72.8380  226.7290 C   0  0  0  0  0  0  0  0  0  0  0  0
  132.1750   73.9040  227.2230 C   0  0  0  0  0  0  0  0  0  0  0  0
  132.5480   75.2040  226.9460 C   0  0  0  0  0  0  0  0  0  0  0  0
  131.5660   76.4930  227.6320 Cl  0  0  0  0  0  0  0  0  0  0  0  0
  133.6550   75.4890  226.1580 C   0  0  0  0  0  0  0  0  0  0  0  0
  134.3780   74.4210  225.6540 C   0  0  0  0  0  0  0  0  0  0  0  0
  133.9960   73.1220  225.9370 C   0  0  0  0  0  0  0  0  0  0  0  0
  134.7040   72.0980  225.4440 N   0  0  0  0  0  0  0  0  0  0  0  0
  136.6480   71.0200  224.2430 H   0  0  0  0  0  0  0  0  0  0  0  0
  136.4734   68.0231  223.9145 H   0  0  0  0  0  0  0  0  0  0  0  0
  137.4177   69.2347  222.8374 H   0  0  0  0  0  0  0  0  0  0  0  0
  139.0336   69.1172  227.5246 H   0  0  0  0  0  0  0  0  0  0  0  0
  139.5674   67.6149  226.7899 H   0  0  0  0  0  0  0  0  0  0  0  0
  141.3027   69.4916  227.8360 H   0  0  0  0  0  0  0  0  0  0  0  0
  141.7869   68.4226  226.5138 H   0  0  0  0  0  0  0  0  0  0  0  0
  141.4687   71.2809  226.4474 H   0  0  0  0  0  0  0  0  0  0  0  0
  141.8595   70.2484  225.0767 H   0  0  0  0  0  0  0  0  0  0  0  0
  139.1394   71.2373  226.0390 H   0  0  0  0  0  0  0  0  0  0  0  0
  141.7454   71.7703  223.8086 H   0  0  0  0  0  0  0  0  0  0  0  0
  140.8310   72.9990  221.6480 H   0  0  0  0  0  0  0  0  0  0  0  0
  138.3100   72.7413  221.5404 H   0  0  0  0  0  0  0  0  0  0  0  0
  133.0464   69.4560  226.6438 H   0  0  0  0  0  0  0  0  0  0  0  0
  131.6728   71.2854  227.6020 H   0  0  0  0  0  0  0  0  0  0  0  0
  131.2919   73.7190  227.8522 H   0  0  0  0  0  0  0  0  0  0  0  0
  133.9475   76.5271  225.9416 H   0  0  0  0  0  0  0  0  0  0  0  0
  135.2611   74.6066  225.0250 H   0  0  0  0  0  0  0  0  0  0  0  0
  1  2  2  0
  2  3  1  0
  3  4  1  0
  4  5  1  0
  5  6  2  0
  5  7  1  0
  7  8  1  0
  8  9  1  0
  9 10  1  0
 10 11  1  0
 11 12  1  0
 12 13  2  0
 13 14  1  0
 14 15  1  0
 15 16  2  0
  2 17  1  0
 17 18  2  0
 18 19  1  0
 19 20  2  0
 20 21  1  0
 21 22  2  0
 22 23  1  0
 22 24  1  0
 24 25  2  0
 25 26  1  0
 26 27  2  0
 11  7  1  0
 16 12  1  0
 27 17  1  0
 26 20  1  0
  3 28  1  0
  4 29  1  0
  4 30  1  0
  8 31  1  0
  8 32  1  0
  9 33  1  0
  9 34  1  0
 10 35  1  0
 10 36  1  0
 11 37  1  1
 13 38  1  0
 14 39  1  0
 15 40  1  0
 18 41  1  0
 19 42  1  0
 21 43  1  0
 24 44  1  0
 25 45  1  0
M  END
>  <smiles>  (21) 
O=C(NCC(=O)N1CCC[C@H]1c1c[nH]cn1)c1ccc2cc(Cl)ccc2n1

>  <score_type>  (21) 
oracle

>  <origin>  (21) 
autodockgpu

>  <m_score__min__energy>  (21) 
-8.1600000000000001

>  <m_primary>  (21) 
energy

>  <rmsd>  (21) 
8.215122226840366

>  <m_score__min__rmsd>  (21) 
8.215122226840366

>  <meeko>  (21) 
{"free_energy": -6.88, "intermolecular_energy": -8.37, "internal_energy": -2.18, "cluster_size": 7, "cluster_id": 5, "rank_in_cluster": 3}

>  <energy>  (21) 
-7.06

>  <cluster_rmsd>  (21) 
0.84

>  <cluster>  (21) 
3

$$$$

     RDKit          3D

 45 48  0  0  0  0  0  0  0  0999 V2000
  140.1320   71.9260  220.9150 O   0  0  0  0  0  0  0  0  0  0  0  0
  139.9560   72.3520  222.1040 C   0  0  0  0  0  0  0  0  0  0  0  0
  139.7080   73.7520  222.3530 N   0  0  0  0  0  0  0  0  0  0  0  0
  139.6690   74.6090  221.2070 C   0  0  0  0  0  0  0  0  0  0  0  0
  140.7710   75.5120  220.9520 C   0  0  0  0  0  0  0  0  0  0  0  0
  141.1360   76.2240  221.9710 O   0  0  0  0  0  0  0  0  0  0  0  0
  141.5090   75.7420  219.7740 N   0  0  0  0  0  0  0  0  0  0  0  0
  141.3730   76.8930  218.8530 C   0  0  0  0  0  0  0  0  0  0  0  0
  142.7940   77.2290  218.4900 C   0  0  0  0  0  0  0  0  0  0  0  0
  143.5730   75.9720  218.7160 C   0  0  0  0  0  0  0  0  0  0  0  0
  142.5300   74.9510  219.1180 C   0  0  1  0  0  0  0  0  0  0  0  0
  143.0260   73.8250  219.8760 C   0  0  0  0  0  0  0  0  0  0  0  0
  144.3050   73.8160  220.4700 C   0  0  0  0  0  0  0  0  0  0  0  0
  144.5140   72.6390  221.0730 N   0  0  0  0  0  0  0  0  0  0  0  0
  143.4160   71.9130  220.8760 C   0  0  0  0  0  0  0  0  0  0  0  0
  142.5370   72.6120  220.1700 N   0  0  0  0  0  0  0  0  0  0  0  0
  140.0040   71.4370  223.2430 C   0  0  0  0  0  0  0  0  0  0  0  0
  139.5480   70.1450  223.0730 C   0  0  0  0  0  0  0  0  0  0  0  0
  139.5790   69.2580  224.1280 C   0  0  0  0  0  0  0  0  0  0  0  0
  140.0680   69.6650  225.3540 C   0  0  0  0  0  0  0  0  0  0  0  0
  140.1310   68.8430  226.4510 C   0  0  0  0  0  0  0  0  0  0  0  0
  140.6270   69.2940  227.6580 C   0  0  0  0  0  0  0  0  0  0  0  0
  140.6620   68.1530  228.9970 Cl  0  0  0  0  0  0  0  0  0  0  0  0
  141.0820   70.5960  227.8140 C   0  0  0  0  0  0  0  0  0  0  0  0
  141.0220   71.4350  226.7150 C   0  0  0  0  0  0  0  0  0  0  0  0
  140.5240   70.9740  225.5100 C   0  0  0  0  0  0  0  0  0  0  0  0
  140.4710   71.7950  224.4530 N   0  0  0  0  0  0  0  0  0  0  0  0
  139.5690   74.0600  223.3420 H   0  0  0  0  0  0  0  0  0  0  0  0
  139.5782   73.9586  220.3246 H   0  0  0  0  0  0  0  0  0  0  0  0
  138.8269   75.2842  221.4191 H   0  0  0  0  0  0  0  0  0  0  0  0
  140.7953   76.6142  217.9594 H   0  0  0  0  0  0  0  0  0  0  0  0
  140.8369   77.7402  219.3056 H   0  0  0  0  0  0  0  0  0  0  0  0
  142.8588   77.5370  217.4360 H   0  0  0  0  0  0  0  0  0  0  0  0
  143.1824   78.0633  219.0925 H   0  0  0  0  0  0  0  0  0  0  0  0
  144.0871   75.6614  217.7944 H   0  0  0  0  0  0  0  0  0  0  0  0
  144.3559   76.0949  219.4789 H   0  0  0  0  0  0  0  0  0  0  0  0
  142.1296   74.4112  218.2472 H   0  0  0  0  0  0  0  0  0  0  0  0
  145.0222   74.6496  220.4421 H   0  0  0  0  0  0  0  0  0  0  0  0
  145.3420   72.2910  221.6040 H   0  0  0  0  0  0  0  0  0  0  0  0
  143.2608   70.8878  221.2433 H   0  0  0  0  0  0  0  0  0  0  0  0
  139.1598   69.8232  222.0954 H   0  0  0  0  0  0  0  0  0  0  0  0
  139.2152   68.2286  223.9937 H   0  0  0  0  0  0  0  0  0  0  0  0
  139.7793   67.8041  226.3671 H   0  0  0  0  0  0  0  0  0  0  0  0
  141.4768   70.9489  228.7782 H   0  0  0  0  0  0  0  0  0  0  0  0
  141.3723   72.4742  226.8004 H   0  0  0  0  0  0  0  0  0  0  0  0
  1  2  2  0
  2  3  1  0
  3  4  1  0
  4  5  1  0
  5  6  2  0
  5  7  1  0
  7  8  1  0
  8  9  1  0
  9 10  1  0
 10 11  1  0
 11 12  1  0
 12 13  2  0
 13 14  1  0
 14 15  1  0
 15 16  2  0
  2 17  1  0
 17 18  2  0
 18 19  1  0
 19 20  2  0
 20 21  1  0
 21 22  2  0
 22 23  1  0
 22 24  1  0
 24 25  2  0
 25 26  1  0
 26 27  2  0
 11  7  1  0
 16 12  1  0
 27 17  1  0
 26 20  1  0
  3 28  1  0
  4 29  1  0
  4 30  1  0
  8 31  1  0
  8 32  1  0
  9 33  1  0
  9 34  1  0
 10 35  1  0
 10 36  1  0
 11 37  1  6
 13 38  1  0
 14 39  1  0
 15 40  1  0
 18 41  1  0
 19 42  1  0
 21 43  1  0
 24 44  1  0
 25 45  1  0
M  END
>  <smiles>  (22) 
O=C(NCC(=O)N1CCC[C@H]1c1c[nH]cn1)c1ccc2cc(Cl)ccc2n1

>  <score_type>  (22) 
oracle

>  <origin>  (22) 
autodockgpu

>  <m_score__min__energy>  (22) 
-8.1600000000000001

>  <m_primary>  (22) 
energy

>  <rmsd>  (22) 
2.9386840879518923

>  <m_score__min__rmsd>  (22) 
2.9386840879518923

>  <meeko>  (22) 
{"free_energy": -7.4, "intermolecular_energy": -8.89, "internal_energy": -1.58, "cluster_size": 8, "cluster_id": 3, "rank_in_cluster": 2}

>  <energy>  (22) 
-6.91

>  <cluster_rmsd>  (22) 
0.94

>  <cluster>  (22) 
3

$$$$

     RDKit          3D

 45 48  0  0  0  0  0  0  0  0999 V2000
  136.7520   71.2360  221.5250 O   0  0  0  0  0  0  0  0  0  0  0  0
  137.5150   71.7680  222.3970 C   0  0  0  0  0  0  0  0  0  0  0  0
  137.8480   73.1710  222.3240 N   0  0  0  0  0  0  0  0  0  0  0  0
  137.2760   73.9080  221.2380 C   0  0  0  0  0  0  0  0  0  0  0  0
  138.1240   74.7450  220.4160 C   0  0  0  0  0  0  0  0  0  0  0  0
  137.9190   74.6400  219.1420 O   0  0  0  0  0  0  0  0  0  0  0  0
  139.1390   75.6530  220.7800 N   0  0  0  0  0  0  0  0  0  0  0  0
  139.0440   77.1300  220.7930 C   0  0  0  0  0  0  0  0  0  0  0  0
  139.7740   77.5230  222.0490 C   0  0  0  0  0  0  0  0  0  0  0  0
  140.7040   76.3870  222.3430 C   0  0  0  0  0  0  0  0  0  0  0  0
  140.5140   75.4360  221.1810 C   0  0  1  0  0  0  0  0  0  0  0  0
  140.8760   74.0610  221.4410 C   0  0  0  0  0  0  0  0  0  0  0  0
  141.7730   73.3460  220.6200 C   0  0  0  0  0  0  0  0  0  0  0  0
  141.8940   72.0920  221.0690 N   0  0  0  0  0  0  0  0  0  0  0  0
  141.1060   71.9950  222.1380 C   0  0  0  0  0  0  0  0  0  0  0  0
  140.5050   73.1570  222.3570 N   0  0  0  0  0  0  0  0  0  0  0  0
  138.0750   70.9730  223.4880 C   0  0  0  0  0  0  0  0  0  0  0  0
  137.6290   69.6780  223.6590 C   0  0  0  0  0  0  0  0  0  0  0  0
  138.1370   68.9030  224.6800 C   0  0  0  0  0  0  0  0  0  0  0  0
  139.0920   69.4250  225.5300 C   0  0  0  0  0  0  0  0  0  0  0  0
  139.6450   68.7180  226.5680 C   0  0  0  0  0  0  0  0  0  0  0  0
  140.5970   69.2820  227.3940 C   0  0  0  0  0  0  0  0  0  0  0  0
  141.2370   68.2830  228.6930 Cl  0  0  0  0  0  0  0  0  0  0  0  0
  141.0350   70.5870  227.2110 C   0  0  0  0  0  0  0  0  0  0  0  0
  140.4830   71.3090  226.1670 C   0  0  0  0  0  0  0  0  0  0  0  0
  139.5310   70.7350  225.3450 C   0  0  0  0  0  0  0  0  0  0  0  0
  139.0050   71.4460  224.3380 N   0  0  0  0  0  0  0  0  0  0  0  0
  138.4770   73.5670  223.0570 H   0  0  0  0  0  0  0  0  0  0  0  0
  136.8049   73.1744  220.5673 H   0  0  0  0  0  0  0  0  0  0  0  0
  136.6114   74.6280  221.7380 H   0  0  0  0  0  0  0  0  0  0  0  0
  139.5294   77.5622  219.9055 H   0  0  0  0  0  0  0  0  0  0  0  0
  138.0050   77.4907  220.7731 H   0  0  0  0  0  0  0  0  0  0  0  0
  140.3406   78.4523  221.8896 H   0  0  0  0  0  0  0  0  0  0  0  0
  139.0809   77.7093  222.8826 H   0  0  0  0  0  0  0  0  0  0  0  0
  141.7451   76.7387  222.3921 H   0  0  0  0  0  0  0  0  0  0  0  0
  140.4933   75.9123  223.3127 H   0  0  0  0  0  0  0  0  0  0  0  0
  141.2152   75.6478  220.3604 H   0  0  0  0  0  0  0  0  0  0  0  0
  142.2942   73.7576  219.7431 H   0  0  0  0  0  0  0  0  0  0  0  0
  142.4670   71.2980  220.7080 H   0  0  0  0  0  0  0  0  0  0  0  0
  140.9735   71.0887  222.7471 H   0  0  0  0  0  0  0  0  0  0  0  0
  136.8683   69.2642  222.9807 H   0  0  0  0  0  0  0  0  0  0  0  0
  137.7822   67.8709  224.8172 H   0  0  0  0  0  0  0  0  0  0  0  0
  139.3234   67.6812  226.7456 H   0  0  0  0  0  0  0  0  0  0  0  0
  141.7937   71.0312  227.8722 H   0  0  0  0  0  0  0  0  0  0  0  0
  140.8038   72.3462  225.9902 H   0  0  0  0  0  0  0  0  0  0  0  0
  1  2  2  0
  2  3  1  0
  3  4  1  0
  4  5  1  0
  5  6  2  0
  5  7  1  0
  7  8  1  0
  8  9  1  0
  9 10  1  0
 10 11  1  0
 11 12  1  0
 12 13  2  0
 13 14  1  0
 14 15  1  0
 15 16  2  0
  2 17  1  0
 17 18  2  0
 18 19  1  0
 19 20  2  0
 20 21  1  0
 21 22  2  0
 22 23  1  0
 22 24  1  0
 24 25  2  0
 25 26  1  0
 26 27  2  0
 11  7  1  0
 16 12  1  0
 27 17  1  0
 26 20  1  0
  3 28  1  0
  4 29  1  0
  4 30  1  0
  8 31  1  0
  8 32  1  0
  9 33  1  0
  9 34  1  0
 10 35  1  0
 10 36  1  0
 11 37  1  6
 13 38  1  0
 14 39  1  0
 15 40  1  0
 18 41  1  0
 19 42  1  0
 21 43  1  0
 24 44  1  0
 25 45  1  0
M  END
>  <smiles>  (23) 
O=C(NCC(=O)N1CCC[C@H]1c1c[nH]cn1)c1ccc2cc(Cl)ccc2n1

>  <score_type>  (23) 
oracle

>  <origin>  (23) 
autodockgpu

>  <m_score__min__energy>  (23) 
-8.1600000000000001

>  <m_primary>  (23) 
energy

>  <rmsd>  (23) 
3.0803653213468367

>  <m_score__min__rmsd>  (23) 
3.0803653213468367

>  <meeko>  (23) 
{"free_energy": -6.5, "intermolecular_energy": -7.99, "internal_energy": -2.44, "cluster_size": 11, "cluster_id": 6, "rank_in_cluster": 5}

>  <energy>  (23) 
-6.53

>  <cluster_rmsd>  (23) 
1.07

>  <cluster>  (23) 
3

$$$$

     RDKit          3D

 45 48  0  0  0  0  0  0  0  0999 V2000
  139.6820   74.5210  222.2430 O   0  0  0  0  0  0  0  0  0  0  0  0
  140.8110   74.7860  221.7130 C   0  0  0  0  0  0  0  0  0  0  0  0
  141.2830   76.1480  221.6330 N   0  0  0  0  0  0  0  0  0  0  0  0
  140.4230   77.1560  222.1760 C   0  0  0  0  0  0  0  0  0  0  0  0
  140.9950   78.3720  222.7110 C   0  0  0  0  0  0  0  0  0  0  0  0
  141.7470   78.2060  223.7520 O   0  0  0  0  0  0  0  0  0  0  0  0
  140.8640   79.7090  222.2820 N   0  0  0  0  0  0  0  0  0  0  0  0
  140.3770   80.8540  223.0850 C   0  0  0  0  0  0  0  0  0  0  0  0
  141.2940   81.9800  222.6910 C   0  0  0  0  0  0  0  0  0  0  0  0
  141.8210   81.6130  221.3390 C   0  0  0  0  0  0  0  0  0  0  0  0
  141.1050   80.3250  220.9940 C   0  0  1  0  0  0  0  0  0  0  0  0
  141.7690   79.4890  220.0200 C   0  0  0  0  0  0  0  0  0  0  0  0
  142.3350   80.0080  218.8370 C   0  0  0  0  0  0  0  0  0  0  0  0
  142.8470   79.0110  218.1060 N   0  0  0  0  0  0  0  0  0  0  0  0
  142.6200   77.8890  218.7860 C   0  0  0  0  0  0  0  0  0  0  0  0
  141.9840   78.1710  219.9150 N   0  0  0  0  0  0  0  0  0  0  0  0
  141.6550   73.7210  221.1730 C   0  0  0  0  0  0  0  0  0  0  0  0
  141.0920   72.4820  220.9450 C   0  0  0  0  0  0  0  0  0  0  0  0
  141.8610   71.4580  220.4370 C   0  0  0  0  0  0  0  0  0  0  0  0
  143.1960   71.6740  220.1570 C   0  0  0  0  0  0  0  0  0  0  0  0
  144.0270   70.7060  219.6500 C   0  0  0  0  0  0  0  0  0  0  0  0
  145.3570   70.9680  219.3860 C   0  0  0  0  0  0  0  0  0  0  0  0
  146.3290   69.6530  218.7370 Cl  0  0  0  0  0  0  0  0  0  0  0  0
  145.9100   72.2200  219.6210 C   0  0  0  0  0  0  0  0  0  0  0  0
  145.0810   73.2040  220.1320 C   0  0  0  0  0  0  0  0  0  0  0  0
  143.7510   72.9320  220.3930 C   0  0  0  0  0  0  0  0  0  0  0  0
  142.9590   73.8920  220.8880 N   0  0  0  0  0  0  0  0  0  0  0  0
  142.2130   76.3230  221.1920 H   0  0  0  0  0  0  0  0  0  0  0  0
  139.7335   77.4541  221.3725 H   0  0  0  0  0  0  0  0  0  0  0  0
  139.9825   76.6694  223.0587 H   0  0  0  0  0  0  0  0  0  0  0  0
  139.3327   81.0926  222.8352 H   0  0  0  0  0  0  0  0  0  0  0  0
  140.3886   80.6526  224.1663 H   0  0  0  0  0  0  0  0  0  0  0  0
  140.7391   82.9286  222.6427 H   0  0  0  0  0  0  0  0  0  0  0  0
  142.1052   82.1197  223.4207 H   0  0  0  0  0  0  0  0  0  0  0  0
  141.5875   82.3973  220.6039 H   0  0  0  0  0  0  0  0  0  0  0  0
  142.9151   81.4999  221.3315 H   0  0  0  0  0  0  0  0  0  0  0  0
  140.1669   80.5122  220.4509 H   0  0  0  0  0  0  0  0  0  0  0  0
  142.3529   81.0717  218.5575 H   0  0  0  0  0  0  0  0  0  0  0  0
  143.3350   79.0310  217.1830 H   0  0  0  0  0  0  0  0  0  0  0  0
  142.9153   76.8806  218.4605 H   0  0  0  0  0  0  0  0  0  0  0  0
  140.0286   72.3118  221.1690 H   0  0  0  0  0  0  0  0  0  0  0  0
  141.4125   70.4702  220.2547 H   0  0  0  0  0  0  0  0  0  0  0  0
  143.6255   69.7016  219.4500 H   0  0  0  0  0  0  0  0  0  0  0  0
  146.9700   72.4228  219.4085 H   0  0  0  0  0  0  0  0  0  0  0  0
  145.4830   74.2083  220.3315 H   0  0  0  0  0  0  0  0  0  0  0  0
  1  2  2  0
  2  3  1  0
  3  4  1  0
  4  5  1  0
  5  6  2  0
  5  7  1  0
  7  8  1  0
  8  9  1  0
  9 10  1  0
 10 11  1  0
 11 12  1  0
 12 13  2  0
 13 14  1  0
 14 15  1  0
 15 16  2  0
  2 17  1  0
 17 18  2  0
 18 19  1  0
 19 20  2  0
 20 21  1  0
 21 22  2  0
 22 23  1  0
 22 24  1  0
 24 25  2  0
 25 26  1  0
 26 27  2  0
 11  7  1  0
 16 12  1  0
 27 17  1  0
 26 20  1  0
  3 28  1  0
  4 29  1  0
  4 30  1  0
  8 31  1  0
  8 32  1  0
  9 33  1  0
  9 34  1  0
 10 35  1  0
 10 36  1  0
 11 37  1  6
 13 38  1  0
 14 39  1  0
 15 40  1  0
 18 41  1  0
 19 42  1  0
 21 43  1  0
 24 44  1  0
 25 45  1  0
M  END
>  <smiles>  (24) 
O=C(NCC(=O)N1CCC[C@H]1c1c[nH]cn1)c1ccc2cc(Cl)ccc2n1

>  <score_type>  (24) 
oracle

>  <origin>  (24) 
autodockgpu

>  <m_score__min__energy>  (24) 
-8.1600000000000001

>  <m_primary>  (24) 
energy

>  <rmsd>  (24) 
6.277360129878272

>  <m_score__min__rmsd>  (24) 
6.277360129878272

>  <meeko>  (24) 
{"free_energy": -7.09, "intermolecular_energy": -8.58, "internal_energy": -1.85, "cluster_size": 7, "cluster_id": 4, "rank_in_cluster": 1}

>  <energy>  (24) 
-7.09

>  <cluster_rmsd>  (24) 
0.0

>  <cluster>  (24) 
4

$$$$

     RDKit          3D

 45 48  0  0  0  0  0  0  0  0999 V2000
  136.8330   71.2270  221.4510 O   0  0  0  0  0  0  0  0  0  0  0  0
  137.5930   71.7730  222.3170 C   0  0  0  0  0  0  0  0  0  0  0  0
  137.9260   73.1750  222.2230 N   0  0  0  0  0  0  0  0  0  0  0  0
  137.3580   73.8940  221.1220 C   0  0  0  0  0  0  0  0  0  0  0  0
  138.1940   74.7800  220.3410 C   0  0  0  0  0  0  0  0  0  0  0  0
  138.0080   74.7130  219.0610 O   0  0  0  0  0  0  0  0  0  0  0  0
  139.1780   75.7030  220.7480 N   0  0  0  0  0  0  0  0  0  0  0  0
  139.0500   77.1780  220.7890 C   0  0  0  0  0  0  0  0  0  0  0  0
  139.7390   77.5600  222.0700 C   0  0  0  0  0  0  0  0  0  0  0  0
  140.6860   76.4400  222.3650 C   0  0  0  0  0  0  0  0  0  0  0  0
  140.5470   75.5080  221.1810 C   0  0  1  0  0  0  0  0  0  0  0  0
  140.9330   74.1370  221.4220 C   0  0  0  0  0  0  0  0  0  0  0  0
  141.8120   73.4360  220.5700 C   0  0  0  0  0  0  0  0  0  0  0  0
  141.9620   72.1810  221.0090 N   0  0  0  0  0  0  0  0  0  0  0  0
  141.2090   72.0700  222.1020 C   0  0  0  0  0  0  0  0  0  0  0  0
  140.6020   73.2240  222.3460 N   0  0  0  0  0  0  0  0  0  0  0  0
  138.1480   70.9960  223.4250 C   0  0  0  0  0  0  0  0  0  0  0  0
  137.7280   69.6920  223.5930 C   0  0  0  0  0  0  0  0  0  0  0  0
  138.2330   68.9340  224.6280 C   0  0  0  0  0  0  0  0  0  0  0  0
  139.1580   69.4820  225.4940 C   0  0  0  0  0  0  0  0  0  0  0  0
  139.7050   68.7920  226.5480 C   0  0  0  0  0  0  0  0  0  0  0  0
  140.6270   69.3820  227.3900 C   0  0  0  0  0  0  0  0  0  0  0  0
  141.2630   68.4040  228.7060 Cl  0  0  0  0  0  0  0  0  0  0  0  0
  141.0390   70.6950  227.2080 C   0  0  0  0  0  0  0  0  0  0  0  0
  140.4930   71.4000  226.1490 C   0  0  0  0  0  0  0  0  0  0  0  0
  139.5710   70.8010  225.3110 C   0  0  0  0  0  0  0  0  0  0  0  0
  139.0490   71.4940  224.2900 N   0  0  0  0  0  0  0  0  0  0  0  0
  138.5510   73.5830  222.9530 H   0  0  0  0  0  0  0  0  0  0  0  0
  136.9497   73.1450  220.4276 H   0  0  0  0  0  0  0  0  0  0  0  0
  136.6390   74.5743  221.6018 H   0  0  0  0  0  0  0  0  0  0  0  0
  139.5478   77.6392  219.9232 H   0  0  0  0  0  0  0  0  0  0  0  0
  138.0041   77.5164  220.7501 H   0  0  0  0  0  0  0  0  0  0  0  0
  140.2884   78.5046  221.9440 H   0  0  0  0  0  0  0  0  0  0  0  0
  139.0210   77.7132  222.8891 H   0  0  0  0  0  0  0  0  0  0  0  0
  141.7173   76.8137  222.4473 H   0  0  0  0  0  0  0  0  0  0  0  0
  140.4616   75.9416  223.3196 H   0  0  0  0  0  0  0  0  0  0  0  0
  141.2648   75.7514  220.3838 H   0  0  0  0  0  0  0  0  0  0  0  0
  142.3004   73.8576  219.6791 H   0  0  0  0  0  0  0  0  0  0  0  0
  142.5330   71.3950  220.6260 H   0  0  0  0  0  0  0  0  0  0  0  0
  141.1060   71.1593  222.7103 H   0  0  0  0  0  0  0  0  0  0  0  0
  136.9908   69.2578  222.9016 H   0  0  0  0  0  0  0  0  0  0  0  0
  137.8995   67.8946  224.7635 H   0  0  0  0  0  0  0  0  0  0  0  0
  139.4029   67.7492  226.7249 H   0  0  0  0  0  0  0  0  0  0  0  0
  141.7740   71.1593  227.8820 H   0  0  0  0  0  0  0  0  0  0  0  0
  140.7946   72.4431  225.9733 H   0  0  0  0  0  0  0  0  0  0  0  0
  1  2  2  0
  2  3  1  0
  3  4  1  0
  4  5  1  0
  5  6  2  0
  5  7  1  0
  7  8  1  0
  8  9  1  0
  9 10  1  0
 10 11  1  0
 11 12  1  0
 12 13  2  0
 13 14  1  0
 14 15  1  0
 15 16  2  0
  2 17  1  0
 17 18  2  0
 18 19  1  0
 19 20  2  0
 20 21  1  0
 21 22  2  0
 22 23  1  0
 22 24  1  0
 24 25  2  0
 25 26  1  0
 26 27  2  0
 11  7  1  0
 16 12  1  0
 27 17  1  0
 26 20  1  0
  3 28  1  0
  4 29  1  0
  4 30  1  0
  8 31  1  0
  8 32  1  0
  9 33  1  0
  9 34  1  0
 10 35  1  0
 10 36  1  0
 11 37  1  6
 13 38  1  0
 14 39  1  0
 15 40  1  0
 18 41  1  0
 19 42  1  0
 21 43  1  0
 24 44  1  0
 25 45  1  0
M  END
>  <smiles>  (25) 
O=C(NCC(=O)N1CCC[C@H]1c1c[nH]cn1)c1ccc2cc(Cl)ccc2n1

>  <score_type>  (25) 
oracle

>  <origin>  (25) 
autodockgpu

>  <m_score__min__energy>  (25) 
-8.1600000000000001

>  <m_primary>  (25) 
energy

>  <rmsd>  (25) 
3.0604216087363367

>  <m_score__min__rmsd>  (25) 
3.0604216087363367

>  <meeko>  (25) 
{"free_energy": -6.45, "intermolecular_energy": -7.94, "internal_energy": -2.46, "cluster_size": 11, "cluster_id": 6, "rank_in_cluster": 6}

>  <energy>  (25) 
-7.06

>  <cluster_rmsd>  (25) 
0.09

>  <cluster>  (25) 
4

$$$$

     RDKit          3D

 45 48  0  0  0  0  0  0  0  0999 V2000
  139.6940   74.5200  222.2020 O   0  0  0  0  0  0  0  0  0  0  0  0
  140.8270   74.7790  221.6780 C   0  0  0  0  0  0  0  0  0  0  0  0
  141.3130   76.1370  221.6140 N   0  0  0  0  0  0  0  0  0  0  0  0
  140.4620   77.1480  222.1650 C   0  0  0  0  0  0  0  0  0  0  0  0
  141.0350   78.4010  222.6080 C   0  0  0  0  0  0  0  0  0  0  0  0
  141.8210   78.3060  223.6330 O   0  0  0  0  0  0  0  0  0  0  0  0
  140.8730   79.7070  222.1060 N   0  0  0  0  0  0  0  0  0  0  0  0
  140.3410   80.8800  222.8370 C   0  0  0  0  0  0  0  0  0  0  0  0
  141.2310   82.0090  222.3950 C   0  0  0  0  0  0  0  0  0  0  0  0
  141.7910   81.5850  221.0740 C   0  0  0  0  0  0  0  0  0  0  0  0
  141.1170   80.2600  220.7890 C   0  0  1  0  0  0  0  0  0  0  0  0
  141.8200   79.3920  219.8720 C   0  0  0  0  0  0  0  0  0  0  0  0
  142.3950   79.8630  218.6730 C   0  0  0  0  0  0  0  0  0  0  0  0
  142.9450   78.8430  218.0050 N   0  0  0  0  0  0  0  0  0  0  0  0
  142.7340   77.7520  218.7390 C   0  0  0  0  0  0  0  0  0  0  0  0
  142.0700   78.0760  219.8400 N   0  0  0  0  0  0  0  0  0  0  0  0
  141.6610   73.7110  221.1290 C   0  0  0  0  0  0  0  0  0  0  0  0
  141.0820   72.4840  220.8770 C   0  0  0  0  0  0  0  0  0  0  0  0
  141.8420   71.4560  220.3590 C   0  0  0  0  0  0  0  0  0  0  0  0
  143.1820   71.6590  220.0940 C   0  0  0  0  0  0  0  0  0  0  0  0
  144.0040   70.6870  219.5790 C   0  0  0  0  0  0  0  0  0  0  0  0
  145.3400   70.9350  219.3310 C   0  0  0  0  0  0  0  0  0  0  0  0
  146.2990   69.6160  218.6700 Cl  0  0  0  0  0  0  0  0  0  0  0  0
  145.9080   72.1750  219.5900 C   0  0  0  0  0  0  0  0  0  0  0  0
  145.0880   73.1620  220.1090 C   0  0  0  0  0  0  0  0  0  0  0  0
  143.7520   72.9050  220.3540 C   0  0  0  0  0  0  0  0  0  0  0  0
  142.9690   73.8680  220.8580 N   0  0  0  0  0  0  0  0  0  0  0  0
  142.2470   76.3060  221.1770 H   0  0  0  0  0  0  0  0  0  0  0  0
  139.7161   77.3925  221.3944 H   0  0  0  0  0  0  0  0  0  0  0  0
  140.0897   76.6925  223.0944 H   0  0  0  0  0  0  0  0  0  0  0  0
  139.2944   81.0737  222.5593 H   0  0  0  0  0  0  0  0  0  0  0  0
  140.3415   80.7387  223.9279 H   0  0  0  0  0  0  0  0  0  0  0  0
  140.6496   82.9364  222.2859 H   0  0  0  0  0  0  0  0  0  0  0  0
  142.0256   82.2124  223.1280 H   0  0  0  0  0  0  0  0  0  0  0  0
  141.5483   82.3213  220.2936 H   0  0  0  0  0  0  0  0  0  0  0  0
  142.8879   81.5034  221.0896 H   0  0  0  0  0  0  0  0  0  0  0  0
  140.1829   80.3908  220.2229 H   0  0  0  0  0  0  0  0  0  0  0  0
  142.3916   80.9108  218.3380 H   0  0  0  0  0  0  0  0  0  0  0  0
  143.4500   78.8280  217.0910 H   0  0  0  0  0  0  0  0  0  0  0  0
  143.0610   76.7361  218.4723 H   0  0  0  0  0  0  0  0  0  0  0  0
  140.0143   72.3257  221.0892 H   0  0  0  0  0  0  0  0  0  0  0  0
  141.3820   70.4773  220.1576 H   0  0  0  0  0  0  0  0  0  0  0  0
  143.5905   69.6916  219.3597 H   0  0  0  0  0  0  0  0  0  0  0  0
  146.9725   72.3665  219.3898 H   0  0  0  0  0  0  0  0  0  0  0  0
  145.5021   74.1573  220.3279 H   0  0  0  0  0  0  0  0  0  0  0  0
  1  2  2  0
  2  3  1  0
  3  4  1  0
  4  5  1  0
  5  6  2  0
  5  7  1  0
  7  8  1  0
  8  9  1  0
  9 10  1  0
 10 11  1  0
 11 12  1  0
 12 13  2  0
 13 14  1  0
 14 15  1  0
 15 16  2  0
  2 17  1  0
 17 18  2  0
 18 19  1  0
 19 20  2  0
 20 21  1  0
 21 22  2  0
 22 23  1  0
 22 24  1  0
 24 25  2  0
 25 26  1  0
 26 27  2  0
 11  7  1  0
 16 12  1  0
 27 17  1  0
 26 20  1  0
  3 28  1  0
  4 29  1  0
  4 30  1  0
  8 31  1  0
  8 32  1  0
  9 33  1  0
  9 34  1  0
 10 35  1  0
 10 36  1  0
 11 37  1  6
 13 38  1  0
 14 39  1  0
 15 40  1  0
 18 41  1  0
 19 42  1  0
 21 43  1  0
 24 44  1  0
 25 45  1  0
M  END
>  <smiles>  (26) 
O=C(NCC(=O)N1CCC[C@H]1c1c[nH]cn1)c1ccc2cc(Cl)ccc2n1

>  <score_type>  (26) 
oracle

>  <origin>  (26) 
autodockgpu

>  <m_score__min__energy>  (26) 
-8.1600000000000001

>  <m_primary>  (26) 
energy

>  <rmsd>  (26) 
6.253193074996057

>  <m_score__min__rmsd>  (26) 
6.253193074996057

>  <meeko>  (26) 
{"free_energy": -7.04, "intermolecular_energy": -8.53, "internal_energy": -1.9, "cluster_size": 7, "cluster_id": 4, "rank_in_cluster": 3}

>  <energy>  (26) 
-7.04

>  <cluster_rmsd>  (26) 
0.15

>  <cluster>  (26) 
4

$$$$

     RDKit          3D

 45 48  0  0  0  0  0  0  0  0999 V2000
  134.7800   68.4760  225.2470 O   0  0  0  0  0  0  0  0  0  0  0  0
  135.1690   69.6830  225.1080 C   0  0  0  0  0  0  0  0  0  0  0  0
  136.3820   69.9840  224.3850 N   0  0  0  0  0  0  0  0  0  0  0  0
  137.1000   68.8690  223.8460 C   0  0  0  0  0  0  0  0  0  0  0  0
  138.3890   68.5140  224.4000 C   0  0  0  0  0  0  0  0  0  0  0  0
  138.8830   67.4020  223.9550 O   0  0  0  0  0  0  0  0  0  0  0  0
  139.1930   69.1820  225.3450 N   0  0  0  0  0  0  0  0  0  0  0  0
  139.6720   68.6460  226.6400 C   0  0  0  0  0  0  0  0  0  0  0  0
  141.0900   69.1410  226.7280 C   0  0  0  0  0  0  0  0  0  0  0  0
  141.1470   70.3490  225.8460 C   0  0  0  0  0  0  0  0  0  0  0  0
  139.7240   70.5290  225.3630 C   0  0  1  0  0  0  0  0  0  0  0  0
  139.5770   71.2710  224.1310 C   0  0  0  0  0  0  0  0  0  0  0  0
  140.6750   71.8460  223.4580 C   0  0  0  0  0  0  0  0  0  0  0  0
  140.2460   72.5030  222.3740 N   0  0  0  0  0  0  0  0  0  0  0  0
  138.9230   72.3620  222.3450 C   0  0  0  0  0  0  0  0  0  0  0  0
  138.5280   71.6360  223.3820 N   0  0  0  0  0  0  0  0  0  0  0  0
  134.4000   70.7890  225.6760 C   0  0  0  0  0  0  0  0  0  0  0  0
  133.3070   70.4970  226.4660 C   0  0  0  0  0  0  0  0  0  0  0  0
  132.5610   71.5180  227.0160 C   0  0  0  0  0  0  0  0  0  0  0  0
  132.9120   72.8320  226.7750 C   0  0  0  0  0  0  0  0  0  0  0  0
  132.2210   73.9020  227.2860 C   0  0  0  0  0  0  0  0  0  0  0  0
  132.6070   75.2000  227.0170 C   0  0  0  0  0  0  0  0  0  0  0  0
  131.6490   76.4940  227.7240 Cl  0  0  0  0  0  0  0  0  0  0  0  0
  133.7100   75.4780  226.2190 C   0  0  0  0  0  0  0  0  0  0  0  0
  134.4140   74.4060  225.6990 C   0  0  0  0  0  0  0  0  0  0  0  0
  134.0190   73.1100  225.9740 C   0  0  0  0  0  0  0  0  0  0  0  0
  134.7080   72.0810  225.4640 N   0  0  0  0  0  0  0  0  0  0  0  0
  136.6650   70.9860  224.2940 H   0  0  0  0  0  0  0  0  0  0  0  0
  136.4511   67.9876  223.9562 H   0  0  0  0  0  0  0  0  0  0  0  0
  137.3395   69.1882  222.8209 H   0  0  0  0  0  0  0  0  0  0  0  0
  139.0682   69.0352  227.4731 H   0  0  0  0  0  0  0  0  0  0  0  0
  139.5983   67.5502  226.7014 H   0  0  0  0  0  0  0  0  0  0  0  0
  141.3397   69.4099  227.7650 H   0  0  0  0  0  0  0  0  0  0  0  0
  141.8111   68.3719  226.4140 H   0  0  0  0  0  0  0  0  0  0  0  0
  141.4799   71.2303  226.4138 H   0  0  0  0  0  0  0  0  0  0  0  0
  141.8597   70.2297  225.0166 H   0  0  0  0  0  0  0  0  0  0  0  0
  139.1464   71.1851  226.0308 H   0  0  0  0  0  0  0  0  0  0  0  0
  141.7250   71.7664  223.7760 H   0  0  0  0  0  0  0  0  0  0  0  0
  140.7800   73.0390  221.6540 H   0  0  0  0  0  0  0  0  0  0  0  0
  138.2578   72.7838  221.5771 H   0  0  0  0  0  0  0  0  0  0  0  0
  133.0307   69.4495  226.6571 H   0  0  0  0  0  0  0  0  0  0  0  0
  131.6887   71.2867  227.6450 H   0  0  0  0  0  0  0  0  0  0  0  0
  131.3421   73.7219  227.9225 H   0  0  0  0  0  0  0  0  0  0  0  0
  134.0131   76.5141  226.0079 H   0  0  0  0  0  0  0  0  0  0  0  0
  135.2932   74.5862  225.0630 H   0  0  0  0  0  0  0  0  0  0  0  0
  1  2  2  0
  2  3  1  0
  3  4  1  0
  4  5  1  0
  5  6  2  0
  5  7  1  0
  7  8  1  0
  8  9  1  0
  9 10  1  0
 10 11  1  0
 11 12  1  0
 12 13  2  0
 13 14  1  0
 14 15  1  0
 15 16  2  0
  2 17  1  0
 17 18  2  0
 18 19  1  0
 19 20  2  0
 20 21  1  0
 21 22  2  0
 22 23  1  0
 22 24  1  0
 24 25  2  0
 25 26  1  0
 26 27  2  0
 11  7  1  0
 16 12  1  0
 27 17  1  0
 26 20  1  0
  3 28  1  0
  4 29  1  0
  4 30  1  0
  8 31  1  0
  8 32  1  0
  9 33  1  0
  9 34  1  0
 10 35  1  0
 10 36  1  0
 11 37  1  1
 13 38  1  0
 14 39  1  0
 15 40  1  0
 18 41  1  0
 19 42  1  0
 21 43  1  0
 24 44  1  0
 25 45  1  0
M  END
>  <smiles>  (27) 
O=C(NCC(=O)N1CCC[C@H]1c1c[nH]cn1)c1ccc2cc(Cl)ccc2n1

>  <score_type>  (27) 
oracle

>  <origin>  (27) 
autodockgpu

>  <m_score__min__energy>  (27) 
-8.1600000000000001

>  <m_primary>  (27) 
energy

>  <rmsd>  (27) 
8.20461229857788

>  <m_score__min__rmsd>  (27) 
8.20461229857788

>  <meeko>  (27) 
{"free_energy": -6.86, "intermolecular_energy": -8.35, "internal_energy": -2.19, "cluster_size": 7, "cluster_id": 5, "rank_in_cluster": 4}

>  <energy>  (27) 
-6.96

>  <cluster_rmsd>  (27) 
0.81

>  <cluster>  (27) 
4

$$$$

     RDKit          3D

 45 48  0  0  0  0  0  0  0  0999 V2000
  140.4310   72.4620  220.6870 O   0  0  0  0  0  0  0  0  0  0  0  0
  140.1310   72.8510  221.8630 C   0  0  0  0  0  0  0  0  0  0  0  0
  139.8030   74.2330  222.1180 N   0  0  0  0  0  0  0  0  0  0  0  0
  139.8320   75.1160  220.9910 C   0  0  0  0  0  0  0  0  0  0  0  0
  140.8550   76.1370  220.9090 C   0  0  0  0  0  0  0  0  0  0  0  0
  141.9490   75.7630  220.3250 O   0  0  0  0  0  0  0  0  0  0  0  0
  140.8520   77.4700  221.3640 N   0  0  0  0  0  0  0  0  0  0  0  0
  140.5470   77.9390  222.7350 C   0  0  0  0  0  0  0  0  0  0  0  0
  141.5610   79.0250  222.9740 C   0  0  0  0  0  0  0  0  0  0  0  0
  141.9640   79.5030  221.6150 C   0  0  0  0  0  0  0  0  0  0  0  0
  141.0870   78.7170  220.6650 C   0  0  1  0  0  0  0  0  0  0  0  0
  141.5930   78.5880  219.3170 C   0  0  0  0  0  0  0  0  0  0  0  0
  142.3780   79.5870  218.7040 C   0  0  0  0  0  0  0  0  0  0  0  0
  142.6740   79.2220  217.4510 N   0  0  0  0  0  0  0  0  0  0  0  0
  142.1020   78.0360  217.2570 C   0  0  0  0  0  0  0  0  0  0  0  0
  141.4640   77.6620  218.3580 N   0  0  0  0  0  0  0  0  0  0  0  0
  140.1140   71.9110  222.9830 C   0  0  0  0  0  0  0  0  0  0  0  0
  139.6030   70.6460  222.7760 C   0  0  0  0  0  0  0  0  0  0  0  0
  139.5730   69.7360  223.8120 C   0  0  0  0  0  0  0  0  0  0  0  0
  140.0540   70.0940  225.0550 C   0  0  0  0  0  0  0  0  0  0  0  0
  140.0580   69.2470  226.1350 C   0  0  0  0  0  0  0  0  0  0  0  0
  140.5490   69.6490  227.3610 C   0  0  0  0  0  0  0  0  0  0  0  0
  140.5050   68.4800  228.6750 Cl  0  0  0  0  0  0  0  0  0  0  0  0
  141.0600   70.9260  227.5540 C   0  0  0  0  0  0  0  0  0  0  0  0
  141.0610   71.7890  226.4720 C   0  0  0  0  0  0  0  0  0  0  0  0
  140.5670   71.3770  225.2480 C   0  0  0  0  0  0  0  0  0  0  0  0
  140.5730   72.2220  224.2090 N   0  0  0  0  0  0  0  0  0  0  0  0
  139.5630   74.5110  223.0960 H   0  0  0  0  0  0  0  0  0  0  0  0
  139.9360   74.4868  220.0947 H   0  0  0  0  0  0  0  0  0  0  0  0
  138.9006   75.6925  221.0917 H   0  0  0  0  0  0  0  0  0  0  0  0
  139.5236   78.3378  222.7946 H   0  0  0  0  0  0  0  0  0  0  0  0
  140.6001   77.1340  223.4828 H   0  0  0  0  0  0  0  0  0  0  0  0
  141.1148   79.8466  223.5536 H   0  0  0  0  0  0  0  0  0  0  0  0
  142.4236   78.6579  223.5494 H   0  0  0  0  0  0  0  0  0  0  0  0
  141.7802   80.5826  221.5116 H   0  0  0  0  0  0  0  0  0  0  0  0
  143.0358   79.3527  221.4182 H   0  0  0  0  0  0  0  0  0  0  0  0
  140.1467   79.2445  220.4470 H   0  0  0  0  0  0  0  0  0  0  0  0
  142.6982   80.5239  219.1832 H   0  0  0  0  0  0  0  0  0  0  0  0
  143.2310   79.7150  216.7180 H   0  0  0  0  0  0  0  0  0  0  0  0
  142.1510   77.4541  216.3248 H   0  0  0  0  0  0  0  0  0  0  0  0
  139.2195   70.3633  221.7845 H   0  0  0  0  0  0  0  0  0  0  0  0
  139.1666   68.7271  223.6479 H   0  0  0  0  0  0  0  0  0  0  0  0
  139.6619   68.2271  226.0213 H   0  0  0  0  0  0  0  0  0  0  0  0
  141.4504   71.2406  228.5331 H   0  0  0  0  0  0  0  0  0  0  0  0
  141.4572   72.8088  226.5864 H   0  0  0  0  0  0  0  0  0  0  0  0
  1  2  2  0
  2  3  1  0
  3  4  1  0
  4  5  1  0
  5  6  2  0
  5  7  1  0
  7  8  1  0
  8  9  1  0
  9 10  1  0
 10 11  1  0
 11 12  1  0
 12 13  2  0
 13 14  1  0
 14 15  1  0
 15 16  2  0
  2 17  1  0
 17 18  2  0
 18 19  1  0
 19 20  2  0
 20 21  1  0
 21 22  2  0
 22 23  1  0
 22 24  1  0
 24 25  2  0
 25 26  1  0
 26 27  2  0
 11  7  1  0
 16 12  1  0
 27 17  1  0
 26 20  1  0
  3 28  1  0
  4 29  1  0
  4 30  1  0
  8 31  1  0
  8 32  1  0
  9 33  1  0
  9 34  1  0
 10 35  1  0
 10 36  1  0
 11 37  1  6
 13 38  1  0
 14 39  1  0
 15 40  1  0
 18 41  1  0
 19 42  1  0
 21 43  1  0
 24 44  1  0
 25 45  1  0
M  END
>  <smiles>  (28) 
O=C(NCC(=O)N1CCC[C@H]1c1c[nH]cn1)c1ccc2cc(Cl)ccc2n1

>  <score_type>  (28) 
oracle

>  <origin>  (28) 
autodockgpu

>  <m_score__min__energy>  (28) 
-8.1600000000000001

>  <m_primary>  (28) 
energy

>  <rmsd>  (28) 
3.346545495812996

>  <m_score__min__rmsd>  (28) 
3.346545495812996

>  <meeko>  (28) 
{"free_energy": -8.01, "intermolecular_energy": -9.5, "internal_energy": -1.12, "cluster_size": 12, "cluster_id": 1, "rank_in_cluster": 6}

>  <energy>  (28) 
-6.95

>  <cluster_rmsd>  (28) 
1.12

>  <cluster>  (28) 
4

$$$$

     RDKit          3D

 45 48  0  0  0  0  0  0  0  0999 V2000
  139.9260   74.2250  221.9860 O   0  0  0  0  0  0  0  0  0  0  0  0
  140.9990   74.7920  221.5940 C   0  0  0  0  0  0  0  0  0  0  0  0
  141.1730   76.2170  221.7450 N   0  0  0  0  0  0  0  0  0  0  0  0
  140.0910   76.9330  222.3500 C   0  0  0  0  0  0  0  0  0  0  0  0
  139.8370   78.3050  221.9640 C   0  0  0  0  0  0  0  0  0  0  0  0
  138.7500   78.4850  221.2840 O   0  0  0  0  0  0  0  0  0  0  0  0
  140.5830   79.4750  222.2070 N   0  0  0  0  0  0  0  0  0  0  0  0
  140.5100   80.3420  223.4060 C   0  0  0  0  0  0  0  0  0  0  0  0
  141.9460   80.6970  223.6770 C   0  0  0  0  0  0  0  0  0  0  0  0
  142.6540   80.5340  222.3690 C   0  0  0  0  0  0  0  0  0  0  0  0
  141.5560   80.1730  221.3910 C   0  0  1  0  0  0  0  0  0  0  0  0
  141.9890   79.4710  220.2050 C   0  0  0  0  0  0  0  0  0  0  0  0
  142.3780   80.1420  219.0270 C   0  0  0  0  0  0  0  0  0  0  0  0
  142.6920   79.2490  218.0810 N   0  0  0  0  0  0  0  0  0  0  0  0
  142.5130   78.0460  218.6220 C   0  0  0  0  0  0  0  0  0  0  0  0
  142.0980   78.1760  219.8750 N   0  0  0  0  0  0  0  0  0  0  0  0
  142.0770   74.0170  220.9820 C   0  0  0  0  0  0  0  0  0  0  0  0
  143.2110   74.6800  220.5620 C   0  0  0  0  0  0  0  0  0  0  0  0
  144.2460   73.9770  219.9800 C   0  0  0  0  0  0  0  0  0  0  0  0
  144.1430   72.6090  219.8210 C   0  0  0  0  0  0  0  0  0  0  0  0
  145.1270   71.8400  219.2520 C   0  0  0  0  0  0  0  0  0  0  0  0
  144.9800   70.4750  219.1110 C   0  0  0  0  0  0  0  0  0  0  0  0
  146.3060   69.5890  218.3690 Cl  0  0  0  0  0  0  0  0  0  0  0  0
  143.8320   69.8210  219.5390 C   0  0  0  0  0  0  0  0  0  0  0  0
  142.8320   70.5870  220.1140 C   0  0  0  0  0  0  0  0  0  0  0  0
  142.9890   71.9540  220.2500 C   0  0  0  0  0  0  0  0  0  0  0  0
  142.0140   72.6840  220.8080 N   0  0  0  0  0  0  0  0  0  0  0  0
  142.0670   76.6430  221.4110 H   0  0  0  0  0  0  0  0  0  0  0  0
  139.1732   76.3657  222.1359 H   0  0  0  0  0  0  0  0  0  0  0  0
  140.3940   77.0143  223.4043 H   0  0  0  0  0  0  0  0  0  0  0  0
  139.9146   81.2442  223.2021 H   0  0  0  0  0  0  0  0  0  0  0  0
  140.0244   79.8479  224.2605 H   0  0  0  0  0  0  0  0  0  0  0  0
  142.0248   81.7360  224.0295 H   0  0  0  0  0  0  0  0  0  0  0  0
  142.3828   80.0583  224.4588 H   0  0  0  0  0  0  0  0  0  0  0  0
  143.1464   81.4720  222.0730 H   0  0  0  0  0  0  0  0  0  0  0  0
  143.4456   79.7714  222.4120 H   0  0  0  0  0  0  0  0  0  0  0  0
  141.1233   81.0657  220.9159 H   0  0  0  0  0  0  0  0  0  0  0  0
  142.4174   81.2344  218.9043 H   0  0  0  0  0  0  0  0  0  0  0  0
  143.0170   79.3920  217.0990 H   0  0  0  0  0  0  0  0  0  0  0  0
  142.6835   77.0887  218.1076 H   0  0  0  0  0  0  0  0  0  0  0  0
  143.2905   75.7695  220.6910 H   0  0  0  0  0  0  0  0  0  0  0  0
  145.1506   74.5048  219.6436 H   0  0  0  0  0  0  0  0  0  0  0  0
  146.0518   72.3214  218.9011 H   0  0  0  0  0  0  0  0  0  0  0  0
  143.7210   68.7325  219.4252 H   0  0  0  0  0  0  0  0  0  0  0  0
  141.9074   70.1052  220.4646 H   0  0  0  0  0  0  0  0  0  0  0  0
  1  2  2  0
  2  3  1  0
  3  4  1  0
  4  5  1  0
  5  6  2  0
  5  7  1  0
  7  8  1  0
  8  9  1  0
  9 10  1  0
 10 11  1  0
 11 12  1  0
 12 13  2  0
 13 14  1  0
 14 15  1  0
 15 16  2  0
  2 17  1  0
 17 18  2  0
 18 19  1  0
 19 20  2  0
 20 21  1  0
 21 22  2  0
 22 23  1  0
 22 24  1  0
 24 25  2  0
 25 26  1  0
 26 27  2  0
 11  7  1  0
 16 12  1  0
 27 17  1  0
 26 20  1  0
  3 28  1  0
  4 29  1  0
  4 30  1  0
  8 31  1  0
  8 32  1  0
  9 33  1  0
  9 34  1  0
 10 35  1  0
 10 36  1  0
 11 37  1  6
 13 38  1  0
 14 39  1  0
 15 40  1  0
 18 41  1  0
 19 42  1  0
 21 43  1  0
 24 44  1  0
 25 45  1  0
M  END
>  <smiles>  (29) 
O=C(NCC(=O)N1CCC[C@H]1c1c[nH]cn1)c1ccc2cc(Cl)ccc2n1

>  <score_type>  (29) 
oracle

>  <origin>  (29) 
autodockgpu

>  <m_score__min__energy>  (29) 
-8.1600000000000001

>  <m_primary>  (29) 
energy

>  <rmsd>  (29) 
6.705853257048963

>  <m_score__min__rmsd>  (29) 
6.705853257048963

>  <meeko>  (29) 
{"free_energy": -6.95, "intermolecular_energy": -8.44, "internal_energy": -1.9, "cluster_size": 7, "cluster_id": 4, "rank_in_cluster": 5}

>  <energy>  (29) 
-6.93

>  <cluster_rmsd>  (29) 
1.16

>  <cluster>  (29) 
4

$$$$

     RDKit          3D

 45 48  0  0  0  0  0  0  0  0999 V2000
  137.1510   71.3400  221.3350 O   0  0  0  0  0  0  0  0  0  0  0  0
  137.8360   71.8480  222.2820 C   0  0  0  0  0  0  0  0  0  0  0  0
  138.1530   73.2570  222.2850 N   0  0  0  0  0  0  0  0  0  0  0  0
  137.6580   74.0260  221.1840 C   0  0  0  0  0  0  0  0  0  0  0  0
  137.6910   75.4710  221.2490 C   0  0  0  0  0  0  0  0  0  0  0  0
  136.5350   76.0460  221.1500 O   0  0  0  0  0  0  0  0  0  0  0  0
  138.7800   76.3540  221.4000 N   0  0  0  0  0  0  0  0  0  0  0  0
  138.7110   77.8160  221.6250 C   0  0  0  0  0  0  0  0  0  0  0  0
  139.7910   78.0710  222.6420 C   0  0  0  0  0  0  0  0  0  0  0  0
  140.7520   76.9320  222.4990 C   0  0  0  0  0  0  0  0  0  0  0  0
  140.2090   76.1250  221.3400 C   0  0  1  0  0  0  0  0  0  0  0  0
  140.6150   74.7390  221.3060 C   0  0  0  0  0  0  0  0  0  0  0  0
  140.9930   74.0890  220.1120 C   0  0  0  0  0  0  0  0  0  0  0  0
  141.2810   72.8080  220.3680 N   0  0  0  0  0  0  0  0  0  0  0  0
  141.0960   72.6320  221.6740 C   0  0  0  0  0  0  0  0  0  0  0  0
  140.7030   73.7700  222.2280 N   0  0  0  0  0  0  0  0  0  0  0  0
  138.3190   71.0210  223.3860 C   0  0  0  0  0  0  0  0  0  0  0  0
  137.8690   69.7200  223.4830 C   0  0  0  0  0  0  0  0  0  0  0  0
  138.3050   68.9140  224.5140 C   0  0  0  0  0  0  0  0  0  0  0  0
  139.1930   69.4120  225.4470 C   0  0  0  0  0  0  0  0  0  0  0  0
  139.6730   68.6740  226.5000 C   0  0  0  0  0  0  0  0  0  0  0  0
  140.5600   69.2140  227.4100 C   0  0  0  0  0  0  0  0  0  0  0  0
  141.1100   68.1770  228.7200 Cl  0  0  0  0  0  0  0  0  0  0  0  0
  141.0030   70.5260  227.3000 C   0  0  0  0  0  0  0  0  0  0  0  0
  140.5250   71.2790  226.2410 C   0  0  0  0  0  0  0  0  0  0  0  0
  139.6380   70.7290  225.3350 C   0  0  0  0  0  0  0  0  0  0  0  0
  139.1820   71.4690  224.3150 N   0  0  0  0  0  0  0  0  0  0  0  0
  138.7160   73.6330  223.0800 H   0  0  0  0  0  0  0  0  0  0  0  0
  138.2439   73.7326  220.3005 H   0  0  0  0  0  0  0  0  0  0  0  0
  136.5829   73.7937  221.1710 H   0  0  0  0  0  0  0  0  0  0  0  0
  138.9111   78.3662  220.6938 H   0  0  0  0  0  0  0  0  0  0  0  0
  137.7189   78.1492  221.9636 H   0  0  0  0  0  0  0  0  0  0  0  0
  140.2947   79.0271  222.4364 H   0  0  0  0  0  0  0  0  0  0  0  0
  139.3840   78.1360  223.6619 H   0  0  0  0  0  0  0  0  0  0  0  0
  141.7636   77.3019  222.2757 H   0  0  0  0  0  0  0  0  0  0  0  0
  140.8376   76.3373  223.4204 H   0  0  0  0  0  0  0  0  0  0  0  0
  140.6336   76.4532  220.3798 H   0  0  0  0  0  0  0  0  0  0  0  0
  141.0432   74.5637  219.1210 H   0  0  0  0  0  0  0  0  0  0  0  0
  141.5920   72.0450  219.7260 H   0  0  0  0  0  0  0  0  0  0  0  0
  141.2466   71.6848  222.2126 H   0  0  0  0  0  0  0  0  0  0  0  0
  137.1624   69.3256  222.7379 H   0  0  0  0  0  0  0  0  0  0  0  0
  137.9462   67.8771  224.5928 H   0  0  0  0  0  0  0  0  0  0  0  0
  139.3444   67.6313  226.6214 H   0  0  0  0  0  0  0  0  0  0  0  0
  141.7087   70.9517  228.0286 H   0  0  0  0  0  0  0  0  0  0  0  0
  140.8534   72.3218  226.1199 H   0  0  0  0  0  0  0  0  0  0  0  0
  1  2  2  0
  2  3  1  0
  3  4  1  0
  4  5  1  0
  5  6  2  0
  5  7  1  0
  7  8  1  0
  8  9  1  0
  9 10  1  0
 10 11  1  0
 11 12  1  0
 12 13  2  0
 13 14  1  0
 14 15  1  0
 15 16  2  0
  2 17  1  0
 17 18  2  0
 18 19  1  0
 19 20  2  0
 20 21  1  0
 21 22  2  0
 22 23  1  0
 22 24  1  0
 24 25  2  0
 25 26  1  0
 26 27  2  0
 11  7  1  0
 16 12  1  0
 27 17  1  0
 26 20  1  0
  3 28  1  0
  4 29  1  0
  4 30  1  0
  8 31  1  0
  8 32  1  0
  9 33  1  0
  9 34  1  0
 10 35  1  0
 10 36  1  0
 11 37  1  6
 13 38  1  0
 14 39  1  0
 15 40  1  0
 18 41  1  0
 19 42  1  0
 21 43  1  0
 24 44  1  0
 25 45  1  0
M  END
>  <smiles>  (30) 
O=C(NCC(=O)N1CCC[C@H]1c1c[nH]cn1)c1ccc2cc(Cl)ccc2n1

>  <score_type>  (30) 
oracle

>  <origin>  (30) 
autodockgpu

>  <m_score__min__energy>  (30) 
-8.1600000000000001

>  <m_primary>  (30) 
energy

>  <rmsd>  (30) 
3.1327460900766706

>  <m_score__min__rmsd>  (30) 
3.1327460900766706

>  <meeko>  (30) 
{"free_energy": -6.79, "intermolecular_energy": -8.28, "internal_energy": -2.08, "cluster_size": 11, "cluster_id": 6, "rank_in_cluster": 1}

>  <energy>  (30) 
-6.81

>  <cluster_rmsd>  (30) 
0.68

>  <cluster>  (30) 
4

$$$$

     RDKit          3D

 45 48  0  0  0  0  0  0  0  0999 V2000
  134.7980   68.5180  225.2790 O   0  0  0  0  0  0  0  0  0  0  0  0
  135.1840   69.7260  225.1520 C   0  0  0  0  0  0  0  0  0  0  0  0
  136.4180   70.0340  224.4680 N   0  0  0  0  0  0  0  0  0  0  0  0
  137.1590   68.9230  223.9530 C   0  0  0  0  0  0  0  0  0  0  0  0
  138.4230   68.5640  224.5600 C   0  0  0  0  0  0  0  0  0  0  0  0
  138.8900   67.4110  224.1990 O   0  0  0  0  0  0  0  0  0  0  0  0
  139.2270   69.2660  225.4800 N   0  0  0  0  0  0  0  0  0  0  0  0
  139.7070   68.7760  226.7930 C   0  0  0  0  0  0  0  0  0  0  0  0
  141.1240   69.2760  226.8630 C   0  0  0  0  0  0  0  0  0  0  0  0
  141.1800   70.4520  225.9390 C   0  0  0  0  0  0  0  0  0  0  0  0
  139.7570   70.6140  225.4500 C   0  0  1  0  0  0  0  0  0  0  0  0
  139.6090   71.3110  224.1930 C   0  0  0  0  0  0  0  0  0  0  0  0
  140.7030   71.8780  223.5080 C   0  0  0  0  0  0  0  0  0  0  0  0
  140.2730   72.4910  222.3990 N   0  0  0  0  0  0  0  0  0  0  0  0
  138.9520   72.3320  222.3670 C   0  0  0  0  0  0  0  0  0  0  0  0
  138.5590   71.6360  223.4250 N   0  0  0  0  0  0  0  0  0  0  0  0
  134.3920   70.8280  225.6940 C   0  0  0  0  0  0  0  0  0  0  0  0
  133.2760   70.5310  226.4490 C   0  0  0  0  0  0  0  0  0  0  0  0
  132.5070   71.5480  226.9740 C   0  0  0  0  0  0  0  0  0  0  0  0
  132.8570   72.8640  226.7430 C   0  0  0  0  0  0  0  0  0  0  0  0
  132.1440   73.9310  227.2310 C   0  0  0  0  0  0  0  0  0  0  0  0
  132.5320   75.2310  226.9730 C   0  0  0  0  0  0  0  0  0  0  0  0
  131.5440   76.5200  227.6490 Cl  0  0  0  0  0  0  0  0  0  0  0  0
  133.6580   75.5140  226.2110 C   0  0  0  0  0  0  0  0  0  0  0  0
  134.3840   74.4460  225.7140 C   0  0  0  0  0  0  0  0  0  0  0  0
  133.9880   73.1480  225.9780 C   0  0  0  0  0  0  0  0  0  0  0  0
  134.6990   72.1220  225.4910 N   0  0  0  0  0  0  0  0  0  0  0  0
  136.6990   71.0370  224.3850 H   0  0  0  0  0  0  0  0  0  0  0  0
  136.5062   68.0409  224.0287 H   0  0  0  0  0  0  0  0  0  0  0  0
  137.4427   69.2495  222.9416 H   0  0  0  0  0  0  0  0  0  0  0  0
  139.1028   69.1930  227.6122 H   0  0  0  0  0  0  0  0  0  0  0  0
  139.6349   67.6829  226.8927 H   0  0  0  0  0  0  0  0  0  0  0  0
  141.3733   69.5818  227.8898 H   0  0  0  0  0  0  0  0  0  0  0  0
  141.8459   68.4972  226.5760 H   0  0  0  0  0  0  0  0  0  0  0  0
  141.5123   71.3531  226.4753 H   0  0  0  0  0  0  0  0  0  0  0  0
  141.8926   70.3039  225.1143 H   0  0  0  0  0  0  0  0  0  0  0  0
  139.1793   71.2934  226.0939 H   0  0  0  0  0  0  0  0  0  0  0  0
  141.7517   71.8246  223.8357 H   0  0  0  0  0  0  0  0  0  0  0  0
  140.8050   73.0100  221.6650 H   0  0  0  0  0  0  0  0  0  0  0  0
  138.2866   72.7195  221.5814 H   0  0  0  0  0  0  0  0  0  0  0  0
  132.9996   69.4822  226.6322 H   0  0  0  0  0  0  0  0  0  0  0  0
  131.6168   71.3118  227.5754 H   0  0  0  0  0  0  0  0  0  0  0  0
  131.2462   73.7468  227.8393 H   0  0  0  0  0  0  0  0  0  0  0  0
  133.9623   76.5517  226.0094 H   0  0  0  0  0  0  0  0  0  0  0  0
  135.2814   74.6308  225.1053 H   0  0  0  0  0  0  0  0  0  0  0  0
  1  2  2  0
  2  3  1  0
  3  4  1  0
  4  5  1  0
  5  6  2  0
  5  7  1  0
  7  8  1  0
  8  9  1  0
  9 10  1  0
 10 11  1  0
 11 12  1  0
 12 13  2  0
 13 14  1  0
 14 15  1  0
 15 16  2  0
  2 17  1  0
 17 18  2  0
 18 19  1  0
 19 20  2  0
 20 21  1  0
 21 22  2  0
 22 23  1  0
 22 24  1  0
 24 25  2  0
 25 26  1  0
 26 27  2  0
 11  7  1  0
 16 12  1  0
 27 17  1  0
 26 20  1  0
  3 28  1  0
  4 29  1  0
  4 30  1  0
  8 31  1  0
  8 32  1  0
  9 33  1  0
  9 34  1  0
 10 35  1  0
 10 36  1  0
 11 37  1  1
 13 38  1  0
 14 39  1  0
 15 40  1  0
 18 41  1  0
 19 42  1  0
 21 43  1  0
 24 44  1  0
 25 45  1  0
M  END
>  <smiles>  (31) 
O=C(NCC(=O)N1CCC[C@H]1c1c[nH]cn1)c1ccc2cc(Cl)ccc2n1

>  <score_type>  (31) 
oracle

>  <origin>  (31) 
autodockgpu

>  <m_score__min__energy>  (31) 
-8.1600000000000001

>  <m_primary>  (31) 
energy

>  <rmsd>  (31) 
8.231575687766707

>  <m_score__min__rmsd>  (31) 
8.231575687766707

>  <meeko>  (31) 
{"free_energy": -6.91, "intermolecular_energy": -8.4, "internal_energy": -2.16, "cluster_size": 7, "cluster_id": 5, "rank_in_cluster": 2}

>  <energy>  (31) 
-6.94

>  <cluster_rmsd>  (31) 
0.0

>  <cluster>  (31) 
5

$$$$

     RDKit          3D

 45 48  0  0  0  0  0  0  0  0999 V2000
  139.9920   72.0740  220.7820 O   0  0  0  0  0  0  0  0  0  0  0  0
  139.8640   72.4840  221.9820 C   0  0  0  0  0  0  0  0  0  0  0  0
  139.6480   73.8840  222.2600 N   0  0  0  0  0  0  0  0  0  0  0  0
  139.5860   74.7590  221.1290 C   0  0  0  0  0  0  0  0  0  0  0  0
  140.5220   75.8570  221.0220 C   0  0  0  0  0  0  0  0  0  0  0  0
  140.7740   76.4660  222.1370 O   0  0  0  0  0  0  0  0  0  0  0  0
  141.2020   76.3720  219.9000 N   0  0  0  0  0  0  0  0  0  0  0  0
  140.8570   77.5940  219.1380 C   0  0  0  0  0  0  0  0  0  0  0  0
  142.1930   78.2240  218.8520 C   0  0  0  0  0  0  0  0  0  0  0  0
  143.1860   77.1070  218.9230 C   0  0  0  0  0  0  0  0  0  0  0  0
  142.3450   75.8720  219.1650 C   0  0  1  0  0  0  0  0  0  0  0  0
  143.0380   74.7600  219.7760 C   0  0  0  0  0  0  0  0  0  0  0  0
  142.4800   73.4660  219.8460 C   0  0  0  0  0  0  0  0  0  0  0  0
  143.3180   72.6480  220.4930 N   0  0  0  0  0  0  0  0  0  0  0  0
  144.3760   73.3810  220.8320 C   0  0  0  0  0  0  0  0  0  0  0  0
  144.2110   74.6270  220.4090 N   0  0  0  0  0  0  0  0  0  0  0  0
  139.9340   71.5500  223.1050 C   0  0  0  0  0  0  0  0  0  0  0  0
  139.4950   70.2560  222.9170 C   0  0  0  0  0  0  0  0  0  0  0  0
  139.5480   69.3520  223.9570 C   0  0  0  0  0  0  0  0  0  0  0  0
  140.0410   69.7450  225.1850 C   0  0  0  0  0  0  0  0  0  0  0  0
  140.1250   68.9060  226.2680 C   0  0  0  0  0  0  0  0  0  0  0  0
  140.6240   69.3440  227.4790 C   0  0  0  0  0  0  0  0  0  0  0  0
  140.6870   68.1820  228.7980 Cl  0  0  0  0  0  0  0  0  0  0  0  0
  141.0620   70.6500  227.6530 C   0  0  0  0  0  0  0  0  0  0  0  0
  140.9810   71.5060  226.5680 C   0  0  0  0  0  0  0  0  0  0  0  0
  140.4800   71.0580  225.3590 C   0  0  0  0  0  0  0  0  0  0  0  0
  140.4060   71.8950  224.3170 N   0  0  0  0  0  0  0  0  0  0  0  0
  139.5480   74.1790  223.2580 H   0  0  0  0  0  0  0  0  0  0  0  0
  139.7230   74.1343  220.2340 H   0  0  0  0  0  0  0  0  0  0  0  0
  138.6139   75.2605  221.2452 H   0  0  0  0  0  0  0  0  0  0  0  0
  140.3351   77.3396  218.2037 H   0  0  0  0  0  0  0  0  0  0  0  0
  140.1790   78.2628  219.6885 H   0  0  0  0  0  0  0  0  0  0  0  0
  142.1970   78.6786  217.8504 H   0  0  0  0  0  0  0  0  0  0  0  0
  142.4280   79.0247  219.5687 H   0  0  0  0  0  0  0  0  0  0  0  0
  143.7426   77.0201  217.9782 H   0  0  0  0  0  0  0  0  0  0  0  0
  143.9382   77.2635  219.7102 H   0  0  0  0  0  0  0  0  0  0  0  0
  142.0444   75.3921  218.2220 H   0  0  0  0  0  0  0  0  0  0  0  0
  141.5039   73.1740  219.4314 H   0  0  0  0  0  0  0  0  0  0  0  0
  143.2270   71.6340  220.7240 H   0  0  0  0  0  0  0  0  0  0  0  0
  145.2544   73.0095  221.3801 H   0  0  0  0  0  0  0  0  0  0  0  0
  139.1026   69.9451  221.9375 H   0  0  0  0  0  0  0  0  0  0  0  0
  139.1981   68.3198  223.8083 H   0  0  0  0  0  0  0  0  0  0  0  0
  139.7880   67.8635  226.1694 H   0  0  0  0  0  0  0  0  0  0  0  0
  141.4597   70.9927  228.6196 H   0  0  0  0  0  0  0  0  0  0  0  0
  141.3171   72.5486  226.6679 H   0  0  0  0  0  0  0  0  0  0  0  0
  1  2  2  0
  2  3  1  0
  3  4  1  0
  4  5  1  0
  5  6  2  0
  5  7  1  0
  7  8  1  0
  8  9  1  0
  9 10  1  0
 10 11  1  0
 11 12  1  0
 12 13  2  0
 13 14  1  0
 14 15  1  0
 15 16  2  0
  2 17  1  0
 17 18  2  0
 18 19  1  0
 19 20  2  0
 20 21  1  0
 21 22  2  0
 22 23  1  0
 22 24  1  0
 24 25  2  0
 25 26  1  0
 26 27  2  0
 11  7  1  0
 16 12  1  0
 27 17  1  0
 26 20  1  0
  3 28  1  0
  4 29  1  0
  4 30  1  0
  8 31  1  0
  8 32  1  0
  9 33  1  0
  9 34  1  0
 10 35  1  0
 10 36  1  0
 11 37  1  6
 13 38  1  0
 14 39  1  0
 15 40  1  0
 18 41  1  0
 19 42  1  0
 21 43  1  0
 24 44  1  0
 25 45  1  0
M  END
>  <smiles>  (32) 
O=C(NCC(=O)N1CCC[C@H]1c1c[nH]cn1)c1ccc2cc(Cl)ccc2n1

>  <score_type>  (32) 
oracle

>  <origin>  (32) 
autodockgpu

>  <m_score__min__energy>  (32) 
-8.1600000000000001

>  <m_primary>  (32) 
energy

>  <rmsd>  (32) 
2.686210660513722

>  <m_score__min__rmsd>  (32) 
2.686210660513722

>  <meeko>  (32) 
{"free_energy": -7.06, "intermolecular_energy": -8.55, "internal_energy": -1.57, "cluster_size": 8, "cluster_id": 3, "rank_in_cluster": 6}

>  <energy>  (32) 
-6.91

>  <cluster_rmsd>  (32) 
0.13

>  <cluster>  (32) 
5

$$$$

     RDKit          3D

 45 48  0  0  0  0  0  0  0  0999 V2000
  134.8820   68.4750  225.2840 O   0  0  0  0  0  0  0  0  0  0  0  0
  135.2310   69.6890  225.1130 C   0  0  0  0  0  0  0  0  0  0  0  0
  136.4260   70.0120  224.3700 N   0  0  0  0  0  0  0  0  0  0  0  0
  137.1720   68.9070  223.8480 C   0  0  0  0  0  0  0  0  0  0  0  0
  138.4280   68.5380  224.4650 C   0  0  0  0  0  0  0  0  0  0  0  0
  138.8910   67.3830  224.1050 O   0  0  0  0  0  0  0  0  0  0  0  0
  139.2270   69.2310  225.3960 N   0  0  0  0  0  0  0  0  0  0  0  0
  139.7040   68.7280  226.7050 C   0  0  0  0  0  0  0  0  0  0  0  0
  141.1200   69.2290  226.7840 C   0  0  0  0  0  0  0  0  0  0  0  0
  141.1770   70.4140  225.8730 C   0  0  0  0  0  0  0  0  0  0  0  0
  139.7550   70.5800  225.3820 C   0  0  1  0  0  0  0  0  0  0  0  0
  139.6100   71.2910  224.1320 C   0  0  0  0  0  0  0  0  0  0  0  0
  140.7090   71.8470  223.4450 C   0  0  0  0  0  0  0  0  0  0  0  0
  140.2820   72.4760  222.3440 N   0  0  0  0  0  0  0  0  0  0  0  0
  138.9580   72.3360  222.3180 C   0  0  0  0  0  0  0  0  0  0  0  0
  138.5610   71.6370  223.3730 N   0  0  0  0  0  0  0  0  0  0  0  0
  134.4340   70.7830  225.6650 C   0  0  0  0  0  0  0  0  0  0  0  0
  133.3280   70.4750  226.4300 C   0  0  0  0  0  0  0  0  0  0  0  0
  132.5560   71.4840  226.9650 C   0  0  0  0  0  0  0  0  0  0  0  0
  132.8930   72.8030  226.7330 C   0  0  0  0  0  0  0  0  0  0  0  0
  132.1760   73.8630  227.2300 C   0  0  0  0  0  0  0  0  0  0  0  0
  132.5490   75.1670  226.9710 C   0  0  0  0  0  0  0  0  0  0  0  0
  131.5570   76.4460  227.6580 Cl  0  0  0  0  0  0  0  0  0  0  0  0
  133.6650   75.4620  226.1980 C   0  0  0  0  0  0  0  0  0  0  0  0
  134.3960   74.4010  225.6920 C   0  0  0  0  0  0  0  0  0  0  0  0
  134.0130   73.0980  225.9570 C   0  0  0  0  0  0  0  0  0  0  0  0
  134.7290   72.0800  225.4610 N   0  0  0  0  0  0  0  0  0  0  0  0
  136.6760   71.0190  224.2530 H   0  0  0  0  0  0  0  0  0  0  0  0
  136.5173   68.0248  223.9034 H   0  0  0  0  0  0  0  0  0  0  0  0
  137.4681   69.2472  222.8447 H   0  0  0  0  0  0  0  0  0  0  0  0
  139.0971   69.1357  227.5269 H   0  0  0  0  0  0  0  0  0  0  0  0
  139.6330   67.6338  226.7932 H   0  0  0  0  0  0  0  0  0  0  0  0
  141.3662   69.5244  227.8146 H   0  0  0  0  0  0  0  0  0  0  0  0
  141.8436   68.4541  226.4908 H   0  0  0  0  0  0  0  0  0  0  0  0
  141.5071   71.3097  226.4196 H   0  0  0  0  0  0  0  0  0  0  0  0
  141.8918   70.2751  225.0485 H   0  0  0  0  0  0  0  0  0  0  0  0
  139.1742   71.2516  226.0314 H   0  0  0  0  0  0  0  0  0  0  0  0
  141.7587   71.7745  223.7659 H   0  0  0  0  0  0  0  0  0  0  0  0
  140.8160   72.9940  221.6120 H   0  0  0  0  0  0  0  0  0  0  0  0
  138.2939   72.7391  221.5392 H   0  0  0  0  0  0  0  0  0  0  0  0
  133.0620   69.4235  226.6132 H   0  0  0  0  0  0  0  0  0  0  0  0
  131.6740   71.2392  227.5750 H   0  0  0  0  0  0  0  0  0  0  0  0
  131.2862   73.6696  227.8471 H   0  0  0  0  0  0  0  0  0  0  0  0
  133.9576   76.5028  225.9950 H   0  0  0  0  0  0  0  0  0  0  0  0
  135.2864   74.5948  225.0758 H   0  0  0  0  0  0  0  0  0  0  0  0
  1  2  2  0
  2  3  1  0
  3  4  1  0
  4  5  1  0
  5  6  2  0
  5  7  1  0
  7  8  1  0
  8  9  1  0
  9 10  1  0
 10 11  1  0
 11 12  1  0
 12 13  2  0
 13 14  1  0
 14 15  1  0
 15 16  2  0
  2 17  1  0
 17 18  2  0
 18 19  1  0
 19 20  2  0
 20 21  1  0
 21 22  2  0
 22 23  1  0
 22 24  1  0
 24 25  2  0
 25 26  1  0
 26 27  2  0
 11  7  1  0
 16 12  1  0
 27 17  1  0
 26 20  1  0
  3 28  1  0
  4 29  1  0
  4 30  1  0
  8 31  1  0
  8 32  1  0
  9 33  1  0
  9 34  1  0
 10 35  1  0
 10 36  1  0
 11 37  1  1
 13 38  1  0
 14 39  1  0
 15 40  1  0
 18 41  1  0
 19 42  1  0
 21 43  1  0
 24 44  1  0
 25 45  1  0
M  END
>  <smiles>  (33) 
O=C(NCC(=O)N1CCC[C@H]1c1c[nH]cn1)c1ccc2cc(Cl)ccc2n1

>  <score_type>  (33) 
oracle

>  <origin>  (33) 
autodockgpu

>  <m_score__min__energy>  (33) 
-8.1600000000000001

>  <m_primary>  (33) 
energy

>  <rmsd>  (33) 
8.195080691634397

>  <m_score__min__rmsd>  (33) 
8.195080691634397

>  <meeko>  (33) 
{"free_energy": -6.85, "intermolecular_energy": -8.34, "internal_energy": -2.18, "cluster_size": 7, "cluster_id": 5, "rank_in_cluster": 6}

>  <energy>  (33) 
-6.88

>  <cluster_rmsd>  (33) 
0.16

>  <cluster>  (33) 
5

$$$$

     RDKit          3D

 45 48  0  0  0  0  0  0  0  0999 V2000
  136.6920   71.3300  221.4770 O   0  0  0  0  0  0  0  0  0  0  0  0
  137.4520   71.8370  222.3660 C   0  0  0  0  0  0  0  0  0  0  0  0
  137.7870   73.2410  222.3330 N   0  0  0  0  0  0  0  0  0  0  0  0
  137.2210   74.0090  221.2640 C   0  0  0  0  0  0  0  0  0  0  0  0
  138.0830   74.8220  220.4340 C   0  0  0  0  0  0  0  0  0  0  0  0
  137.9080   74.6730  219.1590 O   0  0  0  0  0  0  0  0  0  0  0  0
  139.0850   75.7480  220.7890 N   0  0  0  0  0  0  0  0  0  0  0  0
  138.9680   77.2240  220.7870 C   0  0  0  0  0  0  0  0  0  0  0  0
  139.6920   77.6400  222.0390 C   0  0  0  0  0  0  0  0  0  0  0  0
  140.6380   76.5210  222.3450 C   0  0  0  0  0  0  0  0  0  0  0  0
  140.4620   75.5550  221.1930 C   0  0  1  0  0  0  0  0  0  0  0  0
  140.8440   74.1880  221.4660 C   0  0  0  0  0  0  0  0  0  0  0  0
  141.8230   73.5100  220.7110 C   0  0  0  0  0  0  0  0  0  0  0  0
  141.9460   72.2550  221.1560 N   0  0  0  0  0  0  0  0  0  0  0  0
  141.0810   72.1220  222.1590 C   0  0  0  0  0  0  0  0  0  0  0  0
  140.4300   73.2620  222.3420 N   0  0  0  0  0  0  0  0  0  0  0  0
  138.0050   71.0120  223.4390 C   0  0  0  0  0  0  0  0  0  0  0  0
  137.5490   69.7180  223.5790 C   0  0  0  0  0  0  0  0  0  0  0  0
  138.0500   68.9150  224.5820 C   0  0  0  0  0  0  0  0  0  0  0  0
  139.0090   69.4090  225.4430 C   0  0  0  0  0  0  0  0  0  0  0  0
  139.5570   68.6730  226.4650 C   0  0  0  0  0  0  0  0  0  0  0  0
  140.5130   69.2100  227.3030 C   0  0  0  0  0  0  0  0  0  0  0  0
  141.1460   68.1760  228.5780 Cl  0  0  0  0  0  0  0  0  0  0  0  0
  140.9630   70.5150  227.1500 C   0  0  0  0  0  0  0  0  0  0  0  0
  140.4170   71.2660  226.1230 C   0  0  0  0  0  0  0  0  0  0  0  0
  139.4600   70.7200  225.2890 C   0  0  0  0  0  0  0  0  0  0  0  0
  138.9390   71.4570  224.2990 N   0  0  0  0  0  0  0  0  0  0  0  0
  138.4120   73.6170  223.0800 H   0  0  0  0  0  0  0  0  0  0  0  0
  136.7109   73.2993  220.5960 H   0  0  0  0  0  0  0  0  0  0  0  0
  136.5922   74.7476  221.7828 H   0  0  0  0  0  0  0  0  0  0  0  0
  139.4471   77.6544  219.8953 H   0  0  0  0  0  0  0  0  0  0  0  0
  137.9238   77.5692  220.7633 H   0  0  0  0  0  0  0  0  0  0  0  0
  140.2452   78.5757  221.8702 H   0  0  0  0  0  0  0  0  0  0  0  0
  138.9959   77.8246  222.8705 H   0  0  0  0  0  0  0  0  0  0  0  0
  141.6739   76.8882  222.3905 H   0  0  0  0  0  0  0  0  0  0  0  0
  140.4340   76.0536  223.3196 H   0  0  0  0  0  0  0  0  0  0  0  0
  141.1610   75.7686  220.3709 H   0  0  0  0  0  0  0  0  0  0  0  0
  142.3984   73.9472  219.8816 H   0  0  0  0  0  0  0  0  0  0  0  0
  142.5700   71.4820  220.8330 H   0  0  0  0  0  0  0  0  0  0  0  0
  140.9294   71.2048  222.7470 H   0  0  0  0  0  0  0  0  0  0  0  0
  136.7856   69.3264  222.8906 H   0  0  0  0  0  0  0  0  0  0  0  0
  137.6862   67.8832  224.6956 H   0  0  0  0  0  0  0  0  0  0  0  0
  139.2273   67.6349  226.6186 H   0  0  0  0  0  0  0  0  0  0  0  0
  141.7259   70.9368  227.8208 H   0  0  0  0  0  0  0  0  0  0  0  0
  140.7472   72.3041  225.9699 H   0  0  0  0  0  0  0  0  0  0  0  0
  1  2  2  0
  2  3  1  0
  3  4  1  0
  4  5  1  0
  5  6  2  0
  5  7  1  0
  7  8  1  0
  8  9  1  0
  9 10  1  0
 10 11  1  0
 11 12  1  0
 12 13  2  0
 13 14  1  0
 14 15  1  0
 15 16  2  0
  2 17  1  0
 17 18  2  0
 18 19  1  0
 19 20  2  0
 20 21  1  0
 21 22  2  0
 22 23  1  0
 22 24  1  0
 24 25  2  0
 25 26  1  0
 26 27  2  0
 11  7  1  0
 16 12  1  0
 27 17  1  0
 26 20  1  0
  3 28  1  0
  4 29  1  0
  4 30  1  0
  8 31  1  0
  8 32  1  0
  9 33  1  0
  9 34  1  0
 10 35  1  0
 10 36  1  0
 11 37  1  6
 13 38  1  0
 14 39  1  0
 15 40  1  0
 18 41  1  0
 19 42  1  0
 21 43  1  0
 24 44  1  0
 25 45  1  0
M  END
>  <smiles>  (34) 
O=C(NCC(=O)N1CCC[C@H]1c1c[nH]cn1)c1ccc2cc(Cl)ccc2n1

>  <score_type>  (34) 
oracle

>  <origin>  (34) 
autodockgpu

>  <m_score__min__energy>  (34) 
-8.1600000000000001

>  <m_primary>  (34) 
energy

>  <rmsd>  (34) 
3.075296552143695

>  <m_score__min__rmsd>  (34) 
3.075296552143695

>  <meeko>  (34) 
{"free_energy": -6.51, "intermolecular_energy": -8.0, "internal_energy": -2.4, "cluster_size": 11, "cluster_id": 6, "rank_in_cluster": 4}

>  <energy>  (34) 
-6.86

>  <cluster_rmsd>  (34) 
0.16

>  <cluster>  (34) 
5

$$$$

     RDKit          3D

 45 48  0  0  0  0  0  0  0  0999 V2000
  137.3750   71.1850  221.5800 O   0  0  0  0  0  0  0  0  0  0  0  0
  138.1770   71.6760  222.4410 C   0  0  0  0  0  0  0  0  0  0  0  0
  138.6070   73.0510  222.3430 N   0  0  0  0  0  0  0  0  0  0  0  0
  138.0850   73.8080  221.2460 C   0  0  0  0  0  0  0  0  0  0  0  0
  137.6230   75.1620  221.4670 C   0  0  0  0  0  0  0  0  0  0  0  0
  136.3370   75.2920  221.5390 O   0  0  0  0  0  0  0  0  0  0  0  0
  138.3480   76.3620  221.6130 N   0  0  0  0  0  0  0  0  0  0  0  0
  137.8020   77.6900  221.9750 C   0  0  0  0  0  0  0  0  0  0  0  0
  138.8270   78.2500  222.9240 C   0  0  0  0  0  0  0  0  0  0  0  0
  140.1020   77.5340  222.6040 C   0  0  0  0  0  0  0  0  0  0  0  0
  139.7530   76.6560  221.4210 C   0  0  1  0  0  0  0  0  0  0  0  0
  140.6080   75.5070  221.2290 C   0  0  0  0  0  0  0  0  0  0  0  0
  141.3850   75.3280  220.0650 C   0  0  0  0  0  0  0  0  0  0  0  0
  142.0460   74.1660  220.1390 N   0  0  0  0  0  0  0  0  0  0  0  0
  141.7100   73.6130  221.3020 C   0  0  0  0  0  0  0  0  0  0  0  0
  140.8620   74.4040  221.9460 N   0  0  0  0  0  0  0  0  0  0  0  0
  138.6830   70.8630  223.5450 C   0  0  0  0  0  0  0  0  0  0  0  0
  138.4070   69.5110  223.5510 C   0  0  0  0  0  0  0  0  0  0  0  0
  138.8700   68.7160  224.5780 C   0  0  0  0  0  0  0  0  0  0  0  0
  139.6090   69.2770  225.6010 C   0  0  0  0  0  0  0  0  0  0  0  0
  140.1040   68.5540  226.6580 C   0  0  0  0  0  0  0  0  0  0  0  0
  140.8370   69.1580  227.6600 C   0  0  0  0  0  0  0  0  0  0  0  0
  141.4230   68.1350  228.9650 Cl  0  0  0  0  0  0  0  0  0  0  0  0
  141.1070   70.5210  227.6410 C   0  0  0  0  0  0  0  0  0  0  0  0
  140.6120   71.2590  226.5800 C   0  0  0  0  0  0  0  0  0  0  0  0
  139.8790   70.6450  225.5820 C   0  0  0  0  0  0  0  0  0  0  0  0
  139.4050   71.3710  224.5600 N   0  0  0  0  0  0  0  0  0  0  0  0
  139.2650   73.4150  223.0690 H   0  0  0  0  0  0  0  0  0  0  0  0
  138.8801   73.8615  220.4878 H   0  0  0  0  0  0  0  0  0  0  0  0
  137.1684   73.2651  220.9719 H   0  0  0  0  0  0  0  0  0  0  0  0
  137.7011   78.3286  221.0850 H   0  0  0  0  0  0  0  0  0  0  0  0
  136.7971   77.6315  222.4186 H   0  0  0  0  0  0  0  0  0  0  0  0
  138.9444   79.3325  222.7679 H   0  0  0  0  0  0  0  0  0  0  0  0
  138.5316   78.1077  223.9740 H   0  0  0  0  0  0  0  0  0  0  0  0
  140.8941   78.2494  222.3378 H   0  0  0  0  0  0  0  0  0  0  0  0
  140.4840   76.9553  223.4579 H   0  0  0  0  0  0  0  0  0  0  0  0
  139.9342   77.1681  220.4645 H   0  0  0  0  0  0  0  0  0  0  0  0
  141.4394   76.0355  219.2245 H   0  0  0  0  0  0  0  0  0  0  0  0
  142.7040   73.7200  219.4620 H   0  0  0  0  0  0  0  0  0  0  0  0
  142.0798   72.6458  221.6732 H   0  0  0  0  0  0  0  0  0  0  0  0
  137.8170   69.0670  222.7356 H   0  0  0  0  0  0  0  0  0  0  0  0
  138.6514   67.6380  224.5825 H   0  0  0  0  0  0  0  0  0  0  0  0
  139.9128   67.4719  226.7075 H   0  0  0  0  0  0  0  0  0  0  0  0
  141.6934   70.9966  228.4410 H   0  0  0  0  0  0  0  0  0  0  0  0
  140.8032   72.3411  226.5307 H   0  0  0  0  0  0  0  0  0  0  0  0
  1  2  2  0
  2  3  1  0
  3  4  1  0
  4  5  1  0
  5  6  2  0
  5  7  1  0
  7  8  1  0
  8  9  1  0
  9 10  1  0
 10 11  1  0
 11 12  1  0
 12 13  2  0
 13 14  1  0
 14 15  1  0
 15 16  2  0
  2 17  1  0
 17 18  2  0
 18 19  1  0
 19 20  2  0
 20 21  1  0
 21 22  2  0
 22 23  1  0
 22 24  1  0
 24 25  2  0
 25 26  1  0
 26 27  2  0
 11  7  1  0
 16 12  1  0
 27 17  1  0
 26 20  1  0
  3 28  1  0
  4 29  1  0
  4 30  1  0
  8 31  1  0
  8 32  1  0
  9 33  1  0
  9 34  1  0
 10 35  1  0
 10 36  1  0
 11 37  1  6
 13 38  1  0
 14 39  1  0
 15 40  1  0
 18 41  1  0
 19 42  1  0
 21 43  1  0
 24 44  1  0
 25 45  1  0
M  END
>  <smiles>  (35) 
O=C(NCC(=O)N1CCC[C@H]1c1c[nH]cn1)c1ccc2cc(Cl)ccc2n1

>  <score_type>  (35) 
oracle

>  <origin>  (35) 
autodockgpu

>  <m_score__min__energy>  (35) 
-8.1600000000000001

>  <m_primary>  (35) 
energy

>  <rmsd>  (35) 
3.0873983106950367

>  <m_score__min__rmsd>  (35) 
3.0873983106950367

>  <meeko>  (35) 
{"free_energy": -6.67, "intermolecular_energy": -8.16, "internal_energy": -1.88, "cluster_size": 11, "cluster_id": 6, "rank_in_cluster": 3}

>  <energy>  (35) 
-6.85

>  <cluster_rmsd>  (35) 
0.18

>  <cluster>  (35) 
5

$$$$

     RDKit          3D

 45 48  0  0  0  0  0  0  0  0999 V2000
  140.4210   72.4830  220.6890 O   0  0  0  0  0  0  0  0  0  0  0  0
  140.1280   72.8770  221.8660 C   0  0  0  0  0  0  0  0  0  0  0  0
  139.8000   74.2600  222.1160 N   0  0  0  0  0  0  0  0  0  0  0  0
  139.8230   75.1380  220.9860 C   0  0  0  0  0  0  0  0  0  0  0  0
  139.3480   76.4980  221.1260 C   0  0  0  0  0  0  0  0  0  0  0  0
  138.0950   76.6670  220.8430 O   0  0  0  0  0  0  0  0  0  0  0  0
  140.0290   77.6670  221.5200 N   0  0  0  0  0  0  0  0  0  0  0  0
  139.7270   78.5170  222.6940 C   0  0  0  0  0  0  0  0  0  0  0  0
  141.0860   78.8730  223.2350 C   0  0  0  0  0  0  0  0  0  0  0  0
  142.0260   78.7290  222.0800 C   0  0  0  0  0  0  0  0  0  0  0  0
  141.1330   78.3790  220.9090 C   0  0  1  0  0  0  0  0  0  0  0  0
  141.7840   77.6940  219.8160 C   0  0  0  0  0  0  0  0  0  0  0  0
  142.9100   76.8650  220.0050 C   0  0  0  0  0  0  0  0  0  0  0  0
  143.3270   76.3950  218.8230 N   0  0  0  0  0  0  0  0  0  0  0  0
  142.5070   76.8990  217.9040 C   0  0  0  0  0  0  0  0  0  0  0  0
  141.5970   77.6660  218.4890 N   0  0  0  0  0  0  0  0  0  0  0  0
  140.1180   71.9410  222.9890 C   0  0  0  0  0  0  0  0  0  0  0  0
  139.6090   70.6740  222.7900 C   0  0  0  0  0  0  0  0  0  0  0  0
  139.5850   69.7690  223.8300 C   0  0  0  0  0  0  0  0  0  0  0  0
  140.0720   70.1340  225.0700 C   0  0  0  0  0  0  0  0  0  0  0  0
  140.0820   69.2910  226.1540 C   0  0  0  0  0  0  0  0  0  0  0  0
  140.5780   69.7000  227.3760 C   0  0  0  0  0  0  0  0  0  0  0  0
  140.5420   68.5370  228.6940 Cl  0  0  0  0  0  0  0  0  0  0  0  0
  141.0860   70.9790  227.5610 C   0  0  0  0  0  0  0  0  0  0  0  0
  141.0800   71.8370  226.4750 C   0  0  0  0  0  0  0  0  0  0  0  0
  140.5820   71.4180  225.2550 C   0  0  0  0  0  0  0  0  0  0  0  0
  140.5810   72.2590  224.2120 N   0  0  0  0  0  0  0  0  0  0  0  0
  139.5660   74.5420  223.0950 H   0  0  0  0  0  0  0  0  0  0  0  0
  140.8686   75.1981  220.6497 H   0  0  0  0  0  0  0  0  0  0  0  0
  139.0995   74.6836  220.2932 H   0  0  0  0  0  0  0  0  0  0  0  0
  139.1756   79.4200  222.3932 H   0  0  0  0  0  0  0  0  0  0  0  0
  139.0921   78.0101  223.4356 H   0  0  0  0  0  0  0  0  0  0  0  0
  141.0920   79.9075  223.6090 H   0  0  0  0  0  0  0  0  0  0  0  0
  141.3723   78.2262  224.0774 H   0  0  0  0  0  0  0  0  0  0  0  0
  142.5607   79.6720  221.8935 H   0  0  0  0  0  0  0  0  0  0  0  0
  142.7984   77.9669  222.2606 H   0  0  0  0  0  0  0  0  0  0  0  0
  140.7925   79.2768  220.3724 H   0  0  0  0  0  0  0  0  0  0  0  0
  143.3746   76.6392  220.9762 H   0  0  0  0  0  0  0  0  0  0  0  0
  144.1240   75.7610  218.5920 H   0  0  0  0  0  0  0  0  0  0  0  0
  142.5739   76.7083  216.8227 H   0  0  0  0  0  0  0  0  0  0  0  0
  139.2222   70.3859  221.8014 H   0  0  0  0  0  0  0  0  0  0  0  0
  139.1791   68.7588  223.6726 H   0  0  0  0  0  0  0  0  0  0  0  0
  139.6871   68.2699  226.0467 H   0  0  0  0  0  0  0  0  0  0  0  0
  141.4796   71.2992  228.5370 H   0  0  0  0  0  0  0  0  0  0  0  0
  141.4738   72.8584  226.5831 H   0  0  0  0  0  0  0  0  0  0  0  0
  1  2  2  0
  2  3  1  0
  3  4  1  0
  4  5  1  0
  5  6  2  0
  5  7  1  0
  7  8  1  0
  8  9  1  0
  9 10  1  0
 10 11  1  0
 11 12  1  0
 12 13  2  0
 13 14  1  0
 14 15  1  0
 15 16  2  0
  2 17  1  0
 17 18  2  0
 18 19  1  0
 19 20  2  0
 20 21  1  0
 21 22  2  0
 22 23  1  0
 22 24  1  0
 24 25  2  0
 25 26  1  0
 26 27  2  0
 11  7  1  0
 16 12  1  0
 27 17  1  0
 26 20  1  0
  3 28  1  0
  4 29  1  0
  4 30  1  0
  8 31  1  0
  8 32  1  0
  9 33  1  0
  9 34  1  0
 10 35  1  0
 10 36  1  0
 11 37  1  6
 13 38  1  0
 14 39  1  0
 15 40  1  0
 18 41  1  0
 19 42  1  0
 21 43  1  0
 24 44  1  0
 25 45  1  0
M  END
>  <smiles>  (36) 
O=C(NCC(=O)N1CCC[C@H]1c1c[nH]cn1)c1ccc2cc(Cl)ccc2n1

>  <score_type>  (36) 
oracle

>  <origin>  (36) 
autodockgpu

>  <m_score__min__energy>  (36) 
-8.1600000000000001

>  <m_primary>  (36) 
energy

>  <rmsd>  (36) 
3.412348528084777

>  <m_score__min__rmsd>  (36) 
3.412348528084777

>  <meeko>  (36) 
{"free_energy": -7.37, "intermolecular_energy": -8.86, "internal_energy": -1.2, "cluster_size": 12, "cluster_id": 1, "rank_in_cluster": 10}

>  <energy>  (36) 
-6.85

>  <cluster_rmsd>  (36) 
0.14

>  <cluster>  (36) 
5

$$$$

     RDKit          3D

 45 48  0  0  0  0  0  0  0  0999 V2000
  136.7980   71.9700  221.0650 O   0  0  0  0  0  0  0  0  0  0  0  0
  137.5800   72.4050  221.9730 C   0  0  0  0  0  0  0  0  0  0  0  0
  138.0140   73.7820  221.9710 N   0  0  0  0  0  0  0  0  0  0  0  0
  137.5200   74.6070  220.9100 C   0  0  0  0  0  0  0  0  0  0  0  0
  138.3910   75.5920  220.3060 C   0  0  0  0  0  0  0  0  0  0  0  0
  138.2950   75.6830  219.0180 O   0  0  0  0  0  0  0  0  0  0  0  0
  139.3270   76.4660  220.8930 N   0  0  0  0  0  0  0  0  0  0  0  0
  139.1420   77.9090  221.1700 C   0  0  0  0  0  0  0  0  0  0  0  0
  139.7780   78.0980  222.5200 C   0  0  0  0  0  0  0  0  0  0  0  0
  140.7570   76.9750  222.6620 C   0  0  0  0  0  0  0  0  0  0  0  0
  140.6890   76.2480  221.3370 C   0  0  1  0  0  0  0  0  0  0  0  0
  141.1190   74.8680  221.3640 C   0  0  0  0  0  0  0  0  0  0  0  0
  142.2070   74.3990  220.5990 C   0  0  0  0  0  0  0  0  0  0  0  0
  142.3570   73.0830  220.7880 N   0  0  0  0  0  0  0  0  0  0  0  0
  141.4040   72.7120  221.6400 C   0  0  0  0  0  0  0  0  0  0  0  0
  140.6730   73.7650  221.9800 N   0  0  0  0  0  0  0  0  0  0  0  0
  138.0570   71.5230  223.0370 C   0  0  0  0  0  0  0  0  0  0  0  0
  137.3620   70.3590  223.2920 C   0  0  0  0  0  0  0  0  0  0  0  0
  137.7870   69.5060  224.2890 C   0  0  0  0  0  0  0  0  0  0  0  0
  138.9080   69.8210  225.0310 C   0  0  0  0  0  0  0  0  0  0  0  0
  139.3930   69.0260  226.0400 C   0  0  0  0  0  0  0  0  0  0  0  0
  140.5180   69.3820  226.7560 C   0  0  0  0  0  0  0  0  0  0  0  0
  141.0500   68.2860  228.0260 Cl  0  0  0  0  0  0  0  0  0  0  0  0
  141.2070   70.5580  226.4890 C   0  0  0  0  0  0  0  0  0  0  0  0
  140.7260   71.3680  225.4740 C   0  0  0  0  0  0  0  0  0  0  0  0
  139.5990   71.0020  224.7620 C   0  0  0  0  0  0  0  0  0  0  0  0
  139.1440   71.7950  223.7830 N   0  0  0  0  0  0  0  0  0  0  0  0
  138.6540   74.0980  222.7330 H   0  0  0  0  0  0  0  0  0  0  0  0
  137.1949   73.9316  220.1050 H   0  0  0  0  0  0  0  0  0  0  0  0
  136.7431   75.2147  221.3970 H   0  0  0  0  0  0  0  0  0  0  0  0
  139.6471   78.5222  220.4092 H   0  0  0  0  0  0  0  0  0  0  0  0
  138.0855   78.2146  221.1503 H   0  0  0  0  0  0  0  0  0  0  0  0
  140.2954   79.0675  222.5688 H   0  0  0  0  0  0  0  0  0  0  0  0
  139.0308   78.0923  223.3273 H   0  0  0  0  0  0  0  0  0  0  0  0
  141.7706   77.3625  222.8420 H   0  0  0  0  0  0  0  0  0  0  0  0
  140.5225   76.3189  223.5132 H   0  0  0  0  0  0  0  0  0  0  0  0
  141.4204   76.6441  220.6172 H   0  0  0  0  0  0  0  0  0  0  0  0
  142.8368   75.0209  219.9459 H   0  0  0  0  0  0  0  0  0  0  0  0
  143.0530   72.4180  220.3830 H   0  0  0  0  0  0  0  0  0  0  0  0
  141.2466   71.6869  222.0067 H   0  0  0  0  0  0  0  0  0  0  0  0
  136.4686   70.1111  222.7001 H   0  0  0  0  0  0  0  0  0  0  0  0
  137.2342   68.5770  224.4925 H   0  0  0  0  0  0  0  0  0  0  0  0
  138.8746   68.0866  226.2825 H   0  0  0  0  0  0  0  0  0  0  0  0
  142.1030   70.8361  227.0634 H   0  0  0  0  0  0  0  0  0  0  0  0
  141.2437   72.3081  225.2329 H   0  0  0  0  0  0  0  0  0  0  0  0
  1  2  2  0
  2  3  1  0
  3  4  1  0
  4  5  1  0
  5  6  2  0
  5  7  1  0
  7  8  1  0
  8  9  1  0
  9 10  1  0
 10 11  1  0
 11 12  1  0
 12 13  2  0
 13 14  1  0
 14 15  1  0
 15 16  2  0
  2 17  1  0
 17 18  2  0
 18 19  1  0
 19 20  2  0
 20 21  1  0
 21 22  2  0
 22 23  1  0
 22 24  1  0
 24 25  2  0
 25 26  1  0
 26 27  2  0
 11  7  1  0
 16 12  1  0
 27 17  1  0
 26 20  1  0
  3 28  1  0
  4 29  1  0
  4 30  1  0
  8 31  1  0
  8 32  1  0
  9 33  1  0
  9 34  1  0
 10 35  1  0
 10 36  1  0
 11 37  1  6
 13 38  1  0
 14 39  1  0
 15 40  1  0
 18 41  1  0
 19 42  1  0
 21 43  1  0
 24 44  1  0
 25 45  1  0
M  END
>  <smiles>  (37) 
O=C(NCC(=O)N1CCC[C@H]1c1c[nH]cn1)c1ccc2cc(Cl)ccc2n1

>  <score_type>  (37) 
oracle

>  <origin>  (37) 
autodockgpu

>  <m_score__min__energy>  (37) 
-8.1600000000000001

>  <m_primary>  (37) 
energy

>  <rmsd>  (37) 
3.23431711974249

>  <m_score__min__rmsd>  (37) 
3.23431711974249

>  <meeko>  (37) 
{"free_energy": -6.4, "intermolecular_energy": -7.89, "internal_energy": -2.35, "cluster_size": 11, "cluster_id": 6, "rank_in_cluster": 9}

>  <energy>  (37) 
-6.77

>  <cluster_rmsd>  (37) 
0.19

>  <cluster>  (37) 
5

$$$$

     RDKit          3D

 45 48  0  0  0  0  0  0  0  0999 V2000
  139.9110   74.4350  221.9620 O   0  0  0  0  0  0  0  0  0  0  0  0
  140.9810   74.9930  221.5510 C   0  0  0  0  0  0  0  0  0  0  0  0
  141.1510   76.4230  221.6600 N   0  0  0  0  0  0  0  0  0  0  0  0
  140.0690   77.1530  222.2470 C   0  0  0  0  0  0  0  0  0  0  0  0
  139.9220   78.5650  221.9650 C   0  0  0  0  0  0  0  0  0  0  0  0
  138.8250   78.8850  221.3560 O   0  0  0  0  0  0  0  0  0  0  0  0
  140.7820   79.6460  222.2440 N   0  0  0  0  0  0  0  0  0  0  0  0
  140.8330   80.4400  223.4930 C   0  0  0  0  0  0  0  0  0  0  0  0
  142.3050   80.6460  223.7240 C   0  0  0  0  0  0  0  0  0  0  0  0
  142.9450   80.5020  222.3780 C   0  0  0  0  0  0  0  0  0  0  0  0
  141.7830   80.3030  221.4290 C   0  0  1  0  0  0  0  0  0  0  0  0
  142.1050   79.6400  220.1860 C   0  0  0  0  0  0  0  0  0  0  0  0
  142.4980   80.3460  219.0310 C   0  0  0  0  0  0  0  0  0  0  0  0
  142.6960   79.4890  218.0230 N   0  0  0  0  0  0  0  0  0  0  0  0
  142.4400   78.2740  218.5040 C   0  0  0  0  0  0  0  0  0  0  0  0
  142.0910   78.3630  219.7800 N   0  0  0  0  0  0  0  0  0  0  0  0
  142.0600   74.2040  220.9590 C   0  0  0  0  0  0  0  0  0  0  0  0
  143.1850   74.8600  220.5040 C   0  0  0  0  0  0  0  0  0  0  0  0
  144.2200   74.1440  219.9400 C   0  0  0  0  0  0  0  0  0  0  0  0
  144.1270   72.7710  219.8320 C   0  0  0  0  0  0  0  0  0  0  0  0
  145.1130   71.9890  219.2830 C   0  0  0  0  0  0  0  0  0  0  0  0
  144.9750   70.6180  219.1950 C   0  0  0  0  0  0  0  0  0  0  0  0
  146.3020   69.7150  218.4740 Cl  0  0  0  0  0  0  0  0  0  0  0  0
  143.8360   69.9720  219.6570 C   0  0  0  0  0  0  0  0  0  0  0  0
  142.8350   70.7510  220.2120 C   0  0  0  0  0  0  0  0  0  0  0  0
  142.9820   72.1230  220.2960 C   0  0  0  0  0  0  0  0  0  0  0  0
  142.0060   72.8660  220.8350 N   0  0  0  0  0  0  0  0  0  0  0  0
  142.0430   76.8410  221.3120 H   0  0  0  0  0  0  0  0  0  0  0  0
  139.1395   76.6637  221.9205 H   0  0  0  0  0  0  0  0  0  0  0  0
  140.2964   77.1283  223.3230 H   0  0  0  0  0  0  0  0  0  0  0  0
  140.3170   81.4033  223.3669 H   0  0  0  0  0  0  0  0  0  0  0  0
  140.3347   79.9402  224.3368 H   0  0  0  0  0  0  0  0  0  0  0  0
  142.4931   81.6493  224.1338 H   0  0  0  0  0  0  0  0  0  0  0  0
  142.7096   79.9232  224.4478 H   0  0  0  0  0  0  0  0  0  0  0  0
  143.5103   81.4087  222.1166 H   0  0  0  0  0  0  0  0  0  0  0  0
  143.6636   79.6699  222.3419 H   0  0  0  0  0  0  0  0  0  0  0  0
  141.4165   81.2585  221.0257 H   0  0  0  0  0  0  0  0  0  0  0  0
  142.6230   81.4371  218.9680 H   0  0  0  0  0  0  0  0  0  0  0  0
  142.9890   79.6630  217.0360 H   0  0  0  0  0  0  0  0  0  0  0  0
  142.5078   77.3383  217.9297 H   0  0  0  0  0  0  0  0  0  0  0  0
  143.2565   75.9542  220.5910 H   0  0  0  0  0  0  0  0  0  0  0  0
  145.1177   74.6659  219.5770 H   0  0  0  0  0  0  0  0  0  0  0  0
  146.0307   72.4640  218.9059 H   0  0  0  0  0  0  0  0  0  0  0  0
  143.7326   68.8793  219.5845 H   0  0  0  0  0  0  0  0  0  0  0  0
  141.9173   70.2754  220.5884 H   0  0  0  0  0  0  0  0  0  0  0  0
  1  2  2  0
  2  3  1  0
  3  4  1  0
  4  5  1  0
  5  6  2  0
  5  7  1  0
  7  8  1  0
  8  9  1  0
  9 10  1  0
 10 11  1  0
 11 12  1  0
 12 13  2  0
 13 14  1  0
 14 15  1  0
 15 16  2  0
  2 17  1  0
 17 18  2  0
 18 19  1  0
 19 20  2  0
 20 21  1  0
 21 22  2  0
 22 23  1  0
 22 24  1  0
 24 25  2  0
 25 26  1  0
 26 27  2  0
 11  7  1  0
 16 12  1  0
 27 17  1  0
 26 20  1  0
  3 28  1  0
  4 29  1  0
  4 30  1  0
  8 31  1  0
  8 32  1  0
  9 33  1  0
  9 34  1  0
 10 35  1  0
 10 36  1  0
 11 37  1  6
 13 38  1  0
 14 39  1  0
 15 40  1  0
 18 41  1  0
 19 42  1  0
 21 43  1  0
 24 44  1  0
 25 45  1  0
M  END
>  <smiles>  (38) 
O=C(NCC(=O)N1CCC[C@H]1c1c[nH]cn1)c1ccc2cc(Cl)ccc2n1

>  <score_type>  (38) 
oracle

>  <origin>  (38) 
autodockgpu

>  <m_score__min__energy>  (38) 
-8.1600000000000001

>  <m_primary>  (38) 
energy

>  <rmsd>  (38) 
6.781414045834423

>  <m_score__min__rmsd>  (38) 
6.781414045834423

>  <meeko>  (38) 
{"free_energy": -6.93, "intermolecular_energy": -8.42, "internal_energy": -1.91, "cluster_size": 7, "cluster_id": 4, "rank_in_cluster": 6}

>  <energy>  (38) 
-6.79

>  <cluster_rmsd>  (38) 
0.0

>  <cluster>  (38) 
6

$$$$

     RDKit          3D

 45 48  0  0  0  0  0  0  0  0999 V2000
  140.1620   71.8790  220.9300 O   0  0  0  0  0  0  0  0  0  0  0  0
  139.9750   72.3120  222.1150 C   0  0  0  0  0  0  0  0  0  0  0  0
  139.7220   73.7130  222.3520 N   0  0  0  0  0  0  0  0  0  0  0  0
  139.6930   74.5630  221.2000 C   0  0  0  0  0  0  0  0  0  0  0  0
  140.7580   75.5190  220.9890 C   0  0  0  0  0  0  0  0  0  0  0  0
  141.0580   76.2350  222.0260 O   0  0  0  0  0  0  0  0  0  0  0  0
  141.5200   75.7980  219.8370 N   0  0  0  0  0  0  0  0  0  0  0  0
  141.3960   76.9820  218.9570 C   0  0  0  0  0  0  0  0  0  0  0  0
  142.8230   77.3400  218.6380 C   0  0  0  0  0  0  0  0  0  0  0  0
  143.6050   76.0790  218.8340 C   0  0  0  0  0  0  0  0  0  0  0  0
  142.5600   75.0380  219.1750 C   0  0  1  0  0  0  0  0  0  0  0  0
  143.0460   73.8870  219.9000 C   0  0  0  0  0  0  0  0  0  0  0  0
  144.3240   73.8510  220.4960 C   0  0  0  0  0  0  0  0  0  0  0  0
  144.5240   72.6570  221.0650 N   0  0  0  0  0  0  0  0  0  0  0  0
  143.4210   71.9440  220.8450 C   0  0  0  0  0  0  0  0  0  0  0  0
  142.5490   72.6690  220.1580 N   0  0  0  0  0  0  0  0  0  0  0  0
  140.0140   71.4040  223.2600 C   0  0  0  0  0  0  0  0  0  0  0  0
  139.5270   70.1230  223.1050 C   0  0  0  0  0  0  0  0  0  0  0  0
  139.5490   69.2430  224.1660 C   0  0  0  0  0  0  0  0  0  0  0  0
  140.0600   69.6480  225.3840 C   0  0  0  0  0  0  0  0  0  0  0  0
  140.1170   68.8330  226.4870 C   0  0  0  0  0  0  0  0  0  0  0  0
  140.6350   69.2810  227.6850 C   0  0  0  0  0  0  0  0  0  0  0  0
  140.6590   68.1500  229.0320 Cl  0  0  0  0  0  0  0  0  0  0  0  0
  141.1220   70.5740  227.8260 C   0  0  0  0  0  0  0  0  0  0  0  0
  141.0690   71.4050  226.7210 C   0  0  0  0  0  0  0  0  0  0  0  0
  140.5480   70.9470  225.5250 C   0  0  0  0  0  0  0  0  0  0  0  0
  140.5020   71.7610  224.4620 N   0  0  0  0  0  0  0  0  0  0  0  0
  139.5740   74.0270  223.3380 H   0  0  0  0  0  0  0  0  0  0  0  0
  139.6751   73.9054  220.3184 H   0  0  0  0  0  0  0  0  0  0  0  0
  138.8098   75.1962  221.3704 H   0  0  0  0  0  0  0  0  0  0  0  0
  140.8397   76.7336  218.0411 H   0  0  0  0  0  0  0  0  0  0  0  0
  140.8443   77.8083  219.4291 H   0  0  0  0  0  0  0  0  0  0  0  0
  142.9088   77.6878  217.5980 H   0  0  0  0  0  0  0  0  0  0  0  0
  143.1928   78.1534  219.2795 H   0  0  0  0  0  0  0  0  0  0  0  0
  144.1406   75.8058  217.9129 H   0  0  0  0  0  0  0  0  0  0  0  0
  144.3705   76.1775  219.6178 H   0  0  0  0  0  0  0  0  0  0  0  0
  142.1820   74.5289  218.2762 H   0  0  0  0  0  0  0  0  0  0  0  0
  145.0472   74.6799  220.4933 H   0  0  0  0  0  0  0  0  0  0  0  0
  145.3490   72.2870  221.5870 H   0  0  0  0  0  0  0  0  0  0  0  0
  143.2580   70.9098  221.1823 H   0  0  0  0  0  0  0  0  0  0  0  0
  139.1207   69.8032  222.1341 H   0  0  0  0  0  0  0  0  0  0  0  0
  139.1607   68.2212  224.0431 H   0  0  0  0  0  0  0  0  0  0  0  0
  139.7420   67.8014  226.4145 H   0  0  0  0  0  0  0  0  0  0  0  0
  141.5355   70.9252  228.7829 H   0  0  0  0  0  0  0  0  0  0  0  0
  141.4437   72.4366  226.7945 H   0  0  0  0  0  0  0  0  0  0  0  0
  1  2  2  0
  2  3  1  0
  3  4  1  0
  4  5  1  0
  5  6  2  0
  5  7  1  0
  7  8  1  0
  8  9  1  0
  9 10  1  0
 10 11  1  0
 11 12  1  0
 12 13  2  0
 13 14  1  0
 14 15  1  0
 15 16  2  0
  2 17  1  0
 17 18  2  0
 18 19  1  0
 19 20  2  0
 20 21  1  0
 21 22  2  0
 22 23  1  0
 22 24  1  0
 24 25  2  0
 25 26  1  0
 26 27  2  0
 11  7  1  0
 16 12  1  0
 27 17  1  0
 26 20  1  0
  3 28  1  0
  4 29  1  0
  4 30  1  0
  8 31  1  0
  8 32  1  0
  9 33  1  0
  9 34  1  0
 10 35  1  0
 10 36  1  0
 11 37  1  6
 13 38  1  0
 14 39  1  0
 15 40  1  0
 18 41  1  0
 19 42  1  0
 21 43  1  0
 24 44  1  0
 25 45  1  0
M  END
>  <smiles>  (39) 
O=C(NCC(=O)N1CCC[C@H]1c1c[nH]cn1)c1ccc2cc(Cl)ccc2n1

>  <score_type>  (39) 
oracle

>  <origin>  (39) 
autodockgpu

>  <m_score__min__energy>  (39) 
-8.1600000000000001

>  <m_primary>  (39) 
energy

>  <rmsd>  (39) 
2.941874598310173

>  <m_score__min__rmsd>  (39) 
2.941874598310173

>  <meeko>  (39) 
{"free_energy": -7.45, "intermolecular_energy": -8.95, "internal_energy": -1.57, "cluster_size": 8, "cluster_id": 3, "rank_in_cluster": 1}

>  <energy>  (39) 
-6.68

>  <cluster_rmsd>  (39) 
1.7

>  <cluster>  (39) 
6

$$$$

     RDKit          3D

 45 48  0  0  0  0  0  0  0  0999 V2000
  140.3470   74.0730  221.9910 O   0  0  0  0  0  0  0  0  0  0  0  0
  141.4000   74.5030  221.4160 C   0  0  0  0  0  0  0  0  0  0  0  0
  141.6520   75.9210  221.3110 N   0  0  0  0  0  0  0  0  0  0  0  0
  140.6670   76.7900  221.8820 C   0  0  0  0  0  0  0  0  0  0  0  0
  141.0820   78.0210  222.5180 C   0  0  0  0  0  0  0  0  0  0  0  0
  141.7990   77.8660  223.5850 O   0  0  0  0  0  0  0  0  0  0  0  0
  140.8310   79.3620  222.1640 N   0  0  0  0  0  0  0  0  0  0  0  0
  140.2270   80.4080  223.0220 C   0  0  0  0  0  0  0  0  0  0  0  0
  141.0370   81.6360  222.7100 C   0  0  0  0  0  0  0  0  0  0  0  0
  141.6140   81.4000  221.3500 C   0  0  0  0  0  0  0  0  0  0  0  0
  141.0280   80.0730  220.9180 C   0  0  1  0  0  0  0  0  0  0  0  0
  141.7810   79.3620  219.9100 C   0  0  0  0  0  0  0  0  0  0  0  0
  142.3120   80.0010  218.7700 C   0  0  0  0  0  0  0  0  0  0  0  0
  142.9240   79.1000  217.9930 N   0  0  0  0  0  0  0  0  0  0  0  0
  142.7940   77.9240  218.6010 C   0  0  0  0  0  0  0  0  0  0  0  0
  142.1190   78.0770  219.7320 N   0  0  0  0  0  0  0  0  0  0  0  0
  142.3780   73.5760  220.8490 C   0  0  0  0  0  0  0  0  0  0  0  0
  143.6590   74.0300  220.6120 C   0  0  0  0  0  0  0  0  0  0  0  0
  144.6040   73.1800  220.0770 C   0  0  0  0  0  0  0  0  0  0  0  0
  144.2650   71.8750  219.7800 C   0  0  0  0  0  0  0  0  0  0  0  0
  145.1470   70.9690  219.2460 C   0  0  0  0  0  0  0  0  0  0  0  0
  144.7630   69.6730  218.9650 C   0  0  0  0  0  0  0  0  0  0  0  0
  145.9770   68.5980  218.2830 Cl  0  0  0  0  0  0  0  0  0  0  0  0
  143.4690   69.2310  219.2090 C   0  0  0  0  0  0  0  0  0  0  0  0
  142.5710   70.1360  219.7470 C   0  0  0  0  0  0  0  0  0  0  0  0
  142.9650   71.4310  220.0260 C   0  0  0  0  0  0  0  0  0  0  0  0
  142.0860   72.2980  220.5460 N   0  0  0  0  0  0  0  0  0  0  0  0
  142.5270   76.2330  220.8330 H   0  0  0  0  0  0  0  0  0  0  0  0
  139.9766   77.0663  221.0715 H   0  0  0  0  0  0  0  0  0  0  0  0
  140.2531   76.1988  222.7121 H   0  0  0  0  0  0  0  0  0  0  0  0
  139.1680   80.5613  222.7671 H   0  0  0  0  0  0  0  0  0  0  0  0
  140.2442   80.1458  224.0902 H   0  0  0  0  0  0  0  0  0  0  0  0
  140.3948   82.5291  222.7054 H   0  0  0  0  0  0  0  0  0  0  0  0
  141.8215   81.8090  223.4615 H   0  0  0  0  0  0  0  0  0  0  0  0
  141.3171   82.2008  220.6568 H   0  0  0  0  0  0  0  0  0  0  0  0
  142.7139   81.3905  221.3569 H   0  0  0  0  0  0  0  0  0  0  0  0
  140.0834   80.2030  220.3695 H   0  0  0  0  0  0  0  0  0  0  0  0
  142.2347   81.0766  218.5529 H   0  0  0  0  0  0  0  0  0  0  0  0
  143.4210   79.2210  217.0820 H   0  0  0  0  0  0  0  0  0  0  0  0
  143.1871   76.9689  218.2226 H   0  0  0  0  0  0  0  0  0  0  0  0
  143.9266   75.0701  220.8498 H   0  0  0  0  0  0  0  0  0  0  0  0
  145.6256   73.5409  219.8873 H   0  0  0  0  0  0  0  0  0  0  0  0
  146.1808   71.2819  219.0377 H   0  0  0  0  0  0  0  0  0  0  0  0
  143.1685   68.1974  218.9824 H   0  0  0  0  0  0  0  0  0  0  0  0
  141.5371   69.8227  219.9539 H   0  0  0  0  0  0  0  0  0  0  0  0
  1  2  2  0
  2  3  1  0
  3  4  1  0
  4  5  1  0
  5  6  2  0
  5  7  1  0
  7  8  1  0
  8  9  1  0
  9 10  1  0
 10 11  1  0
 11 12  1  0
 12 13  2  0
 13 14  1  0
 14 15  1  0
 15 16  2  0
  2 17  1  0
 17 18  2  0
 18 19  1  0
 19 20  2  0
 20 21  1  0
 21 22  2  0
 22 23  1  0
 22 24  1  0
 24 25  2  0
 25 26  1  0
 26 27  2  0
 11  7  1  0
 16 12  1  0
 27 17  1  0
 26 20  1  0
  3 28  1  0
  4 29  1  0
  4 30  1  0
  8 31  1  0
  8 32  1  0
  9 33  1  0
  9 34  1  0
 10 35  1  0
 10 36  1  0
 11 37  1  6
 13 38  1  0
 14 39  1  0
 15 40  1  0
 18 41  1  0
 19 42  1  0
 21 43  1  0
 24 44  1  0
 25 45  1  0
M  END
>  <smiles>  (40) 
O=C(NCC(=O)N1CCC[C@H]1c1c[nH]cn1)c1ccc2cc(Cl)ccc2n1

>  <score_type>  (40) 
oracle

>  <origin>  (40) 
autodockgpu

>  <m_score__min__energy>  (40) 
-8.1600000000000001

>  <m_primary>  (40) 
energy

>  <rmsd>  (40) 
6.585689866791918

>  <m_score__min__rmsd>  (40) 
6.585689866791918

>  <meeko>  (40) 
{"free_energy": -6.96, "intermolecular_energy": -8.46, "internal_energy": -1.62, "cluster_size": 7, "cluster_id": 4, "rank_in_cluster": 4}

>  <energy>  (40) 
-6.67

>  <cluster_rmsd>  (40) 
0.79

>  <cluster>  (40) 
6

$$$$

     RDKit          3D

 45 48  0  0  0  0  0  0  0  0999 V2000
  140.0930   71.9330  220.8800 O   0  0  0  0  0  0  0  0  0  0  0  0
  139.9390   72.3590  222.0720 C   0  0  0  0  0  0  0  0  0  0  0  0
  139.7090   73.7610  222.3270 N   0  0  0  0  0  0  0  0  0  0  0  0
  139.6620   74.6200  221.1820 C   0  0  0  0  0  0  0  0  0  0  0  0
  140.7510   75.5400  220.9330 C   0  0  0  0  0  0  0  0  0  0  0  0
  141.1140   76.2420  221.9590 O   0  0  0  0  0  0  0  0  0  0  0  0
  141.4790   75.7950  219.7540 N   0  0  0  0  0  0  0  0  0  0  0  0
  141.3040   76.9440  218.8350 C   0  0  0  0  0  0  0  0  0  0  0  0
  142.7140   77.3250  218.4700 C   0  0  0  0  0  0  0  0  0  0  0  0
  143.5320   76.0920  218.6920 C   0  0  0  0  0  0  0  0  0  0  0  0
  142.5230   75.0380  219.0940 C   0  0  1  0  0  0  0  0  0  0  0  0
  143.0550   73.9260  219.8490 C   0  0  0  0  0  0  0  0  0  0  0  0
  144.4150   73.8400  220.2120 C   0  0  0  0  0  0  0  0  0  0  0  0
  144.6350   72.6940  220.8680 N   0  0  0  0  0  0  0  0  0  0  0  0
  143.4650   72.0620  220.9270 C   0  0  0  0  0  0  0  0  0  0  0  0
  142.5330   72.7880  220.3260 N   0  0  0  0  0  0  0  0  0  0  0  0
  139.9950   71.4420  223.2090 C   0  0  0  0  0  0  0  0  0  0  0  0
  139.5390   70.1500  223.0400 C   0  0  0  0  0  0  0  0  0  0  0  0
  139.5780   69.2610  224.0940 C   0  0  0  0  0  0  0  0  0  0  0  0
  140.0740   69.6670  225.3170 C   0  0  0  0  0  0  0  0  0  0  0  0
  140.1450   68.8430  226.4130 C   0  0  0  0  0  0  0  0  0  0  0  0
  140.6470   69.2920  227.6170 C   0  0  0  0  0  0  0  0  0  0  0  0
  140.6920   68.1490  228.9540 Cl  0  0  0  0  0  0  0  0  0  0  0  0
  141.1020   70.5950  227.7730 C   0  0  0  0  0  0  0  0  0  0  0  0
  141.0340   71.4350  226.6750 C   0  0  0  0  0  0  0  0  0  0  0  0
  140.5300   70.9760  225.4720 C   0  0  0  0  0  0  0  0  0  0  0  0
  140.4690   71.7990  224.4170 N   0  0  0  0  0  0  0  0  0  0  0  0
  139.5890   74.0690  223.3180 H   0  0  0  0  0  0  0  0  0  0  0  0
  139.5846   73.9700  220.2980 H   0  0  0  0  0  0  0  0  0  0  0  0
  138.8091   75.2821  221.3922 H   0  0  0  0  0  0  0  0  0  0  0  0
  140.7334   76.6490  217.9420 H   0  0  0  0  0  0  0  0  0  0  0  0
  140.7420   77.7729  219.2901 H   0  0  0  0  0  0  0  0  0  0  0  0
  142.7673   77.6371  217.4166 H   0  0  0  0  0  0  0  0  0  0  0  0
  143.0775   78.1698  219.0735 H   0  0  0  0  0  0  0  0  0  0  0  0
  144.0536   75.7995  217.7687 H   0  0  0  0  0  0  0  0  0  0  0  0
  144.3119   76.2379  219.4538 H   0  0  0  0  0  0  0  0  0  0  0  0
  142.1387   74.4878  218.2225 H   0  0  0  0  0  0  0  0  0  0  0  0
  145.1791   74.5994  219.9898 H   0  0  0  0  0  0  0  0  0  0  0  0
  145.5150   72.3080  221.2760 H   0  0  0  0  0  0  0  0  0  0  0  0
  143.2969   71.0846  221.4028 H   0  0  0  0  0  0  0  0  0  0  0  0
  139.1444   69.8294  222.0645 H   0  0  0  0  0  0  0  0  0  0  0  0
  139.2149   68.2313  223.9605 H   0  0  0  0  0  0  0  0  0  0  0  0
  139.7945   67.8037  226.3293 H   0  0  0  0  0  0  0  0  0  0  0  0
  141.5023   70.9470  228.7352 H   0  0  0  0  0  0  0  0  0  0  0  0
  141.3832   72.4746  226.7600 H   0  0  0  0  0  0  0  0  0  0  0  0
  1  2  2  0
  2  3  1  0
  3  4  1  0
  4  5  1  0
  5  6  2  0
  5  7  1  0
  7  8  1  0
  8  9  1  0
  9 10  1  0
 10 11  1  0
 11 12  1  0
 12 13  2  0
 13 14  1  0
 14 15  1  0
 15 16  2  0
  2 17  1  0
 17 18  2  0
 18 19  1  0
 19 20  2  0
 20 21  1  0
 21 22  2  0
 22 23  1  0
 22 24  1  0
 24 25  2  0
 25 26  1  0
 26 27  2  0
 11  7  1  0
 16 12  1  0
 27 17  1  0
 26 20  1  0
  3 28  1  0
  4 29  1  0
  4 30  1  0
  8 31  1  0
  8 32  1  0
  9 33  1  0
  9 34  1  0
 10 35  1  0
 10 36  1  0
 11 37  1  6
 13 38  1  0
 14 39  1  0
 15 40  1  0
 18 41  1  0
 19 42  1  0
 21 43  1  0
 24 44  1  0
 25 45  1  0
M  END
>  <smiles>  (41) 
O=C(NCC(=O)N1CCC[C@H]1c1c[nH]cn1)c1ccc2cc(Cl)ccc2n1

>  <score_type>  (41) 
oracle

>  <origin>  (41) 
autodockgpu

>  <m_score__min__energy>  (41) 
-8.1600000000000001

>  <m_primary>  (41) 
energy

>  <rmsd>  (41) 
2.8869124237090253

>  <m_score__min__rmsd>  (41) 
2.8869124237090253

>  <meeko>  (41) 
{"free_energy": -7.37, "intermolecular_energy": -8.86, "internal_energy": -1.57, "cluster_size": 8, "cluster_id": 3, "rank_in_cluster": 3}

>  <energy>  (41) 
-6.51

>  <cluster_rmsd>  (41) 
0.83

>  <cluster>  (41) 
6

$$$$

     RDKit          3D

 45 48  0  0  0  0  0  0  0  0999 V2000
  134.6890   68.5210  225.1680 O   0  0  0  0  0  0  0  0  0  0  0  0
  135.1370   69.7150  225.1640 C   0  0  0  0  0  0  0  0  0  0  0  0
  136.4310   70.0120  224.5970 N   0  0  0  0  0  0  0  0  0  0  0  0
  137.1590   68.9060  224.0510 C   0  0  0  0  0  0  0  0  0  0  0  0
  138.5670   68.7580  224.3530 C   0  0  0  0  0  0  0  0  0  0  0  0
  138.9130   67.5800  224.7640 O   0  0  0  0  0  0  0  0  0  0  0  0
  139.6210   69.6900  224.2740 N   0  0  0  0  0  0  0  0  0  0  0  0
  139.9130   70.6060  223.1480 C   0  0  0  0  0  0  0  0  0  0  0  0
  140.3010   71.8920  223.8260 C   0  0  0  0  0  0  0  0  0  0  0  0
  140.7680   71.5000  225.1920 C   0  0  0  0  0  0  0  0  0  0  0  0
  140.7020   69.9880  225.1920 C   0  0  1  0  0  0  0  0  0  0  0  0
  140.5980   69.3720  226.4950 C   0  0  0  0  0  0  0  0  0  0  0  0
  141.1450   68.1030  226.7790 C   0  0  0  0  0  0  0  0  0  0  0  0
  140.8680   67.7660  228.0440 N   0  0  0  0  0  0  0  0  0  0  0  0
  140.1670   68.7730  228.5600 C   0  0  0  0  0  0  0  0  0  0  0  0
  140.0070   69.7210  227.6460 N   0  0  0  0  0  0  0  0  0  0  0  0
  134.3550   70.8110  225.7330 C   0  0  0  0  0  0  0  0  0  0  0  0
  133.2590   70.5060  226.5140 C   0  0  0  0  0  0  0  0  0  0  0  0
  132.5010   71.5170  227.0650 C   0  0  0  0  0  0  0  0  0  0  0  0
  132.8420   72.8350  226.8340 C   0  0  0  0  0  0  0  0  0  0  0  0
  132.1390   73.8970  227.3460 C   0  0  0  0  0  0  0  0  0  0  0  0
  132.5160   75.2000  227.0870 C   0  0  0  0  0  0  0  0  0  0  0  0
  131.5420   76.4820  227.7950 Cl  0  0  0  0  0  0  0  0  0  0  0  0
  133.6220   75.4920  226.2990 C   0  0  0  0  0  0  0  0  0  0  0  0
  134.3380   74.4290  225.7770 C   0  0  0  0  0  0  0  0  0  0  0  0
  133.9530   73.1280  226.0420 C   0  0  0  0  0  0  0  0  0  0  0  0
  134.6540   72.1070  225.5310 N   0  0  0  0  0  0  0  0  0  0  0  0
  136.7610   71.0030  224.6140 H   0  0  0  0  0  0  0  0  0  0  0  0
  136.6593   67.9906  224.4008 H   0  0  0  0  0  0  0  0  0  0  0  0
  137.1470   69.0994  222.9682 H   0  0  0  0  0  0  0  0  0  0  0  0
  140.7404   70.2212  222.5337 H   0  0  0  0  0  0  0  0  0  0  0  0
  139.0603   70.7254  222.4634 H   0  0  0  0  0  0  0  0  0  0  0  0
  141.1101   72.3898  223.2715 H   0  0  0  0  0  0  0  0  0  0  0  0
  139.4598   72.5994  223.8703 H   0  0  0  0  0  0  0  0  0  0  0  0
  141.7981   71.8448  225.3652 H   0  0  0  0  0  0  0  0  0  0  0  0
  140.1556   71.9467  225.9891 H   0  0  0  0  0  0  0  0  0  0  0  0
  141.6505   69.5383  224.8634 H   0  0  0  0  0  0  0  0  0  0  0  0
  141.7130   67.4845  226.0685 H   0  0  0  0  0  0  0  0  0  0  0  0
  141.1150   66.9060  228.5820 H   0  0  0  0  0  0  0  0  0  0  0  0
  139.7791   68.8130  229.5886 H   0  0  0  0  0  0  0  0  0  0  0  0
  132.9900   69.4552  226.6971 H   0  0  0  0  0  0  0  0  0  0  0  0
  131.6268   71.2745  227.6871 H   0  0  0  0  0  0  0  0  0  0  0  0
  131.2573   73.7062  227.9755 H   0  0  0  0  0  0  0  0  0  0  0  0
  133.9184   76.5319  226.0969 H   0  0  0  0  0  0  0  0  0  0  0  0
  135.2192   74.6205  225.1471 H   0  0  0  0  0  0  0  0  0  0  0  0
  1  2  2  0
  2  3  1  0
  3  4  1  0
  4  5  1  0
  5  6  2  0
  5  7  1  0
  7  8  1  0
  8  9  1  0
  9 10  1  0
 10 11  1  0
 11 12  1  0
 12 13  2  0
 13 14  1  0
 14 15  1  0
 15 16  2  0
  2 17  1  0
 17 18  2  0
 18 19  1  0
 19 20  2  0
 20 21  1  0
 21 22  2  0
 22 23  1  0
 22 24  1  0
 24 25  2  0
 25 26  1  0
 26 27  2  0
 11  7  1  0
 16 12  1  0
 27 17  1  0
 26 20  1  0
  3 28  1  0
  4 29  1  0
  4 30  1  0
  8 31  1  0
  8 32  1  0
  9 33  1  0
  9 34  1  0
 10 35  1  0
 10 36  1  0
 11 37  1  6
 13 38  1  0
 14 39  1  0
 15 40  1  0
 18 41  1  0
 19 42  1  0
 21 43  1  0
 24 44  1  0
 25 45  1  0
M  END
>  <smiles>  (42) 
O=C(NCC(=O)N1CCC[C@H]1c1c[nH]cn1)c1ccc2cc(Cl)ccc2n1

>  <score_type>  (42) 
oracle

>  <origin>  (42) 
autodockgpu

>  <m_score__min__energy>  (42) 
-8.1600000000000001

>  <m_primary>  (42) 
energy

>  <rmsd>  (42) 
7.956374648881382

>  <m_score__min__rmsd>  (42) 
7.956374648881382

>  <meeko>  (42) 
{"free_energy": -7.75, "intermolecular_energy": -9.25, "internal_energy": -1.38, "cluster_size": 3, "cluster_id": 2, "rank_in_cluster": 1}

>  <energy>  (42) 
-6.5

>  <cluster_rmsd>  (42) 
0.85

>  <cluster>  (42) 
6

$$$$

     RDKit          3D

 45 48  0  0  0  0  0  0  0  0999 V2000
  140.7280   72.5680  220.5520 O   0  0  0  0  0  0  0  0  0  0  0  0
  140.3710   72.9610  221.7110 C   0  0  0  0  0  0  0  0  0  0  0  0
  140.0790   74.3540  221.9560 N   0  0  0  0  0  0  0  0  0  0  0  0
  140.2120   75.2410  220.8410 C   0  0  0  0  0  0  0  0  0  0  0  0
  139.5950   76.5490  220.8900 C   0  0  0  0  0  0  0  0  0  0  0  0
  138.4400   76.6270  220.3090 O   0  0  0  0  0  0  0  0  0  0  0  0
  140.0490   77.7520  221.4670 N   0  0  0  0  0  0  0  0  0  0  0  0
  139.5840   78.3590  222.7360 C   0  0  0  0  0  0  0  0  0  0  0  0
  140.8490   78.8680  223.3710 C   0  0  0  0  0  0  0  0  0  0  0  0
  141.8150   79.0590  222.2440 C   0  0  0  0  0  0  0  0  0  0  0  0
  141.0140   78.7270  221.0030 C   0  0  1  0  0  0  0  0  0  0  0  0
  141.7930   78.3320  219.8520 C   0  0  0  0  0  0  0  0  0  0  0  0
  142.2430   79.2580  218.8880 C   0  0  0  0  0  0  0  0  0  0  0  0
  142.9020   78.6140  217.9170 N   0  0  0  0  0  0  0  0  0  0  0  0
  142.8790   77.3220  218.2370 C   0  0  0  0  0  0  0  0  0  0  0  0
  142.2240   77.1550  219.3780 N   0  0  0  0  0  0  0  0  0  0  0  0
  140.2490   72.0160  222.8200 C   0  0  0  0  0  0  0  0  0  0  0  0
  139.6330   70.8020  222.5890 C   0  0  0  0  0  0  0  0  0  0  0  0
  139.5030   69.8890  223.6140 C   0  0  0  0  0  0  0  0  0  0  0  0
  139.9890   70.1930  224.8700 C   0  0  0  0  0  0  0  0  0  0  0  0
  139.8970   69.3380  225.9410 C   0  0  0  0  0  0  0  0  0  0  0  0
  140.3960   69.6850  227.1810 C   0  0  0  0  0  0  0  0  0  0  0  0
  140.2240   68.5120  228.4800 Cl  0  0  0  0  0  0  0  0  0  0  0  0
  141.0130   70.9100  227.3980 C   0  0  0  0  0  0  0  0  0  0  0  0
  141.1110   71.7800  226.3250 C   0  0  0  0  0  0  0  0  0  0  0  0
  140.6070   71.4230  225.0880 C   0  0  0  0  0  0  0  0  0  0  0  0
  140.7080   72.2740  224.0580 N   0  0  0  0  0  0  0  0  0  0  0  0
  139.7900   74.6350  222.9200 H   0  0  0  0  0  0  0  0  0  0  0  0
  141.2893   75.4016  220.6875 H   0  0  0  0  0  0  0  0  0  0  0  0
  139.6632   74.7279  220.0376 H   0  0  0  0  0  0  0  0  0  0  0  0
  138.8825   79.1839  222.5425 H   0  0  0  0  0  0  0  0  0  0  0  0
  139.0417   77.6474  223.3759 H   0  0  0  0  0  0  0  0  0  0  0  0
  140.6638   79.8231  223.8843 H   0  0  0  0  0  0  0  0  0  0  0  0
  141.2365   78.1677  224.1256 H   0  0  0  0  0  0  0  0  0  0  0  0
  142.1731   80.0985  222.2099 H   0  0  0  0  0  0  0  0  0  0  0  0
  142.7103   78.4283  222.3470 H   0  0  0  0  0  0  0  0  0  0  0  0
  140.5224   79.6168  220.5828 H   0  0  0  0  0  0  0  0  0  0  0  0
  142.0775   80.3447  218.9280 H   0  0  0  0  0  0  0  0  0  0  0  0
  143.3640   78.9820  217.0560 H   0  0  0  0  0  0  0  0  0  0  0  0
  143.3345   76.5148  217.6445 H   0  0  0  0  0  0  0  0  0  0  0  0
  139.2460   70.5633  221.5874 H   0  0  0  0  0  0  0  0  0  0  0  0
  139.0134   68.9210  223.4315 H   0  0  0  0  0  0  0  0  0  0  0  0
  139.4164   68.3575  225.8084 H   0  0  0  0  0  0  0  0  0  0  0  0
  141.4101   71.1799  228.3877 H   0  0  0  0  0  0  0  0  0  0  0  0
  141.5923   72.7602  226.4575 H   0  0  0  0  0  0  0  0  0  0  0  0
  1  2  2  0
  2  3  1  0
  3  4  1  0
  4  5  1  0
  5  6  2  0
  5  7  1  0
  7  8  1  0
  8  9  1  0
  9 10  1  0
 10 11  1  0
 11 12  1  0
 12 13  2  0
 13 14  1  0
 14 15  1  0
 15 16  2  0
  2 17  1  0
 17 18  2  0
 18 19  1  0
 19 20  2  0
 20 21  1  0
 21 22  2  0
 22 23  1  0
 22 24  1  0
 24 25  2  0
 25 26  1  0
 26 27  2  0
 11  7  1  0
 16 12  1  0
 27 17  1  0
 26 20  1  0
  3 28  1  0
  4 29  1  0
  4 30  1  0
  8 31  1  0
  8 32  1  0
  9 33  1  0
  9 34  1  0
 10 35  1  0
 10 36  1  0
 11 37  1  6
 13 38  1  0
 14 39  1  0
 15 40  1  0
 18 41  1  0
 19 42  1  0
 21 43  1  0
 24 44  1  0
 25 45  1  0
M  END
>  <smiles>  (43) 
O=C(NCC(=O)N1CCC[C@H]1c1c[nH]cn1)c1ccc2cc(Cl)ccc2n1

>  <score_type>  (43) 
oracle

>  <origin>  (43) 
autodockgpu

>  <m_score__min__energy>  (43) 
-8.1600000000000001

>  <m_primary>  (43) 
energy

>  <rmsd>  (43) 
3.4698577402969297

>  <m_score__min__rmsd>  (43) 
3.4698577402969297

>  <meeko>  (43) 
{"free_energy": -7.58, "intermolecular_energy": -9.07, "internal_energy": -1.15, "cluster_size": 12, "cluster_id": 1, "rank_in_cluster": 8}

>  <energy>  (43) 
-6.45

>  <cluster_rmsd>  (43) 
0.83

>  <cluster>  (43) 
6

$$$$

     RDKit          3D

 45 48  0  0  0  0  0  0  0  0999 V2000
  139.5640   75.1560  222.4000 O   0  0  0  0  0  0  0  0  0  0  0  0
  140.6990   75.3760  221.8610 C   0  0  0  0  0  0  0  0  0  0  0  0
  141.2180   76.7200  221.7640 N   0  0  0  0  0  0  0  0  0  0  0  0
  140.3970   77.7630  222.3010 C   0  0  0  0  0  0  0  0  0  0  0  0
  140.9420   79.0950  222.4530 C   0  0  0  0  0  0  0  0  0  0  0  0
  141.8100   79.2210  223.4060 O   0  0  0  0  0  0  0  0  0  0  0  0
  140.6790   80.2770  221.7320 N   0  0  0  0  0  0  0  0  0  0  0  0
  140.0540   81.5140  222.2550 C   0  0  0  0  0  0  0  0  0  0  0  0
  140.8540   82.6150  221.6120 C   0  0  0  0  0  0  0  0  0  0  0  0
  141.4470   82.0110  220.3780 C   0  0  0  0  0  0  0  0  0  0  0  0
  140.8810   80.6080  220.3370 C   0  0  1  0  0  0  0  0  0  0  0  0
  141.6520   79.6510  219.5770 C   0  0  0  0  0  0  0  0  0  0  0  0
  142.3650   80.0070  218.4130 C   0  0  0  0  0  0  0  0  0  0  0  0
  142.9530   78.9220  217.8950 N   0  0  0  0  0  0  0  0  0  0  0  0
  142.6330   77.9020  218.6890 C   0  0  0  0  0  0  0  0  0  0  0  0
  141.8650   78.3320  219.6810 N   0  0  0  0  0  0  0  0  0  0  0  0
  141.5010   74.2770  221.3270 C   0  0  0  0  0  0  0  0  0  0  0  0
  140.9410   73.0170  221.2700 C   0  0  0  0  0  0  0  0  0  0  0  0
  141.6720   71.9590  220.7720 C   0  0  0  0  0  0  0  0  0  0  0  0
  142.9640   72.1640  220.3310 C   0  0  0  0  0  0  0  0  0  0  0  0
  143.7550   71.1630  219.8230 C   0  0  0  0  0  0  0  0  0  0  0  0
  145.0440   71.4150  219.3950 C   0  0  0  0  0  0  0  0  0  0  0  0
  145.9660   70.0580  218.7610 Cl  0  0  0  0  0  0  0  0  0  0  0  0
  145.5940   72.6880  219.4590 C   0  0  0  0  0  0  0  0  0  0  0  0
  144.8050   73.7050  219.9700 C   0  0  0  0  0  0  0  0  0  0  0  0
  143.5160   73.4430  220.3960 C   0  0  0  0  0  0  0  0  0  0  0  0
  142.7630   74.4350  220.8890 N   0  0  0  0  0  0  0  0  0  0  0  0
  142.1510   76.8560  221.3160 H   0  0  0  0  0  0  0  0  0  0  0  0
  139.5198   77.8499  221.6430 H   0  0  0  0  0  0  0  0  0  0  0  0
  140.2151   77.4398  223.3366 H   0  0  0  0  0  0  0  0  0  0  0  0
  138.9959   81.5741  221.9604 H   0  0  0  0  0  0  0  0  0  0  0  0
  140.0629   81.5654  223.3538 H   0  0  0  0  0  0  0  0  0  0  0  0
  140.2020   83.4614  221.3504 H   0  0  0  0  0  0  0  0  0  0  0  0
  141.6291   83.0043  222.2884 H   0  0  0  0  0  0  0  0  0  0  0  0
  141.1473   82.5780  219.4843 H   0  0  0  0  0  0  0  0  0  0  0  0
  142.5469   82.0194  220.3937 H   0  0  0  0  0  0  0  0  0  0  0  0
  139.9405   80.5638  219.7681 H   0  0  0  0  0  0  0  0  0  0  0  0
  142.4281   81.0223  217.9945 H   0  0  0  0  0  0  0  0  0  0  0  0
  143.5520   78.8190  217.0460 H   0  0  0  0  0  0  0  0  0  0  0  0
  142.9566   76.8607  218.5441 H   0  0  0  0  0  0  0  0  0  0  0  0
  139.9112   72.8565  221.6219 H   0  0  0  0  0  0  0  0  0  0  0  0
  141.2267   70.9542  220.7263 H   0  0  0  0  0  0  0  0  0  0  0  0
  143.3544   70.1407  219.7556 H   0  0  0  0  0  0  0  0  0  0  0  0
  146.6209   72.8822  219.1157 H   0  0  0  0  0  0  0  0  0  0  0  0
  145.2061   74.7270  220.0373 H   0  0  0  0  0  0  0  0  0  0  0  0
  1  2  2  0
  2  3  1  0
  3  4  1  0
  4  5  1  0
  5  6  2  0
  5  7  1  0
  7  8  1  0
  8  9  1  0
  9 10  1  0
 10 11  1  0
 11 12  1  0
 12 13  2  0
 13 14  1  0
 14 15  1  0
 15 16  2  0
  2 17  1  0
 17 18  2  0
 18 19  1  0
 19 20  2  0
 20 21  1  0
 21 22  2  0
 22 23  1  0
 22 24  1  0
 24 25  2  0
 25 26  1  0
 26 27  2  0
 11  7  1  0
 16 12  1  0
 27 17  1  0
 26 20  1  0
  3 28  1  0
  4 29  1  0
  4 30  1  0
  8 31  1  0
  8 32  1  0
  9 33  1  0
  9 34  1  0
 10 35  1  0
 10 36  1  0
 11 37  1  6
 13 38  1  0
 14 39  1  0
 15 40  1  0
 18 41  1  0
 19 42  1  0
 21 43  1  0
 24 44  1  0
 25 45  1  0
M  END
>  <smiles>  (44) 
O=C(NCC(=O)N1CCC[C@H]1c1c[nH]cn1)c1ccc2cc(Cl)ccc2n1

>  <score_type>  (44) 
oracle

>  <origin>  (44) 
autodockgpu

>  <m_score__min__energy>  (44) 
-8.1600000000000001

>  <m_primary>  (44) 
energy

>  <rmsd>  (44) 
6.37197652833296

>  <m_score__min__rmsd>  (44) 
6.37197652833296

>  <meeko>  (44) 
{"free_energy": -6.81, "intermolecular_energy": -8.3, "internal_energy": -2.02, "cluster_size": 7, "cluster_id": 4, "rank_in_cluster": 7}

>  <energy>  (44) 
-6.45

>  <cluster_rmsd>  (44) 
0.86

>  <cluster>  (44) 
6

$$$$

     RDKit          3D

 45 48  0  0  0  0  0  0  0  0999 V2000
  141.0170   72.6080  220.9040 O   0  0  0  0  0  0  0  0  0  0  0  0
  140.3510   72.9070  221.9500 C   0  0  0  0  0  0  0  0  0  0  0  0
  139.6820   74.1820  222.0550 N   0  0  0  0  0  0  0  0  0  0  0  0
  139.8110   75.0660  220.9360 C   0  0  0  0  0  0  0  0  0  0  0  0
  140.8370   76.0870  220.9450 C   0  0  0  0  0  0  0  0  0  0  0  0
  141.9850   75.7060  220.4840 O   0  0  0  0  0  0  0  0  0  0  0  0
  140.7880   77.4270  221.3770 N   0  0  0  0  0  0  0  0  0  0  0  0
  140.4050   77.9120  222.7230 C   0  0  0  0  0  0  0  0  0  0  0  0
  141.3860   79.0200  222.9960 C   0  0  0  0  0  0  0  0  0  0  0  0
  141.8490   79.4840  221.6500 C   0  0  0  0  0  0  0  0  0  0  0  0
  141.0350   78.6670  220.6700 C   0  0  1  0  0  0  0  0  0  0  0  0
  141.6110   78.5260  219.3530 C   0  0  0  0  0  0  0  0  0  0  0  0
  142.3560   79.5540  218.7380 C   0  0  0  0  0  0  0  0  0  0  0  0
  142.7340   79.1670  217.5140 N   0  0  0  0  0  0  0  0  0  0  0  0
  142.2520   77.9380  217.3390 C   0  0  0  0  0  0  0  0  0  0  0  0
  141.5890   77.5600  218.4240 N   0  0  0  0  0  0  0  0  0  0  0  0
  140.2480   71.9690  223.0670 C   0  0  0  0  0  0  0  0  0  0  0  0
  139.6640   70.7390  222.8450 C   0  0  0  0  0  0  0  0  0  0  0  0
  139.5520   69.8330  223.8790 C   0  0  0  0  0  0  0  0  0  0  0  0
  140.0260   70.1600  225.1340 C   0  0  0  0  0  0  0  0  0  0  0  0
  139.9510   69.3130  226.2120 C   0  0  0  0  0  0  0  0  0  0  0  0
  140.4370   69.6840  227.4500 C   0  0  0  0  0  0  0  0  0  0  0  0
  140.2890   68.5200  228.7610 Cl  0  0  0  0  0  0  0  0  0  0  0  0
  141.0230   70.9260  227.6580 C   0  0  0  0  0  0  0  0  0  0  0  0
  141.1030   71.7880  226.5770 C   0  0  0  0  0  0  0  0  0  0  0  0
  140.6130   71.4070  225.3410 C   0  0  0  0  0  0  0  0  0  0  0  0
  140.6970   72.2510  224.3040 N   0  0  0  0  0  0  0  0  0  0  0  0
  139.1470   74.3870  222.9280 H   0  0  0  0  0  0  0  0  0  0  0  0
  139.9938   74.4375  220.0520 H   0  0  0  0  0  0  0  0  0  0  0  0
  138.8745   75.6428  220.9551 H   0  0  0  0  0  0  0  0  0  0  0  0
  139.3730   78.2929  222.7237 H   0  0  0  0  0  0  0  0  0  0  0  0
  140.4340   77.1198  223.4856 H   0  0  0  0  0  0  0  0  0  0  0  0
  140.8964   79.8420  223.5387 H   0  0  0  0  0  0  0  0  0  0  0  0
  142.2244   78.6784  223.6209 H   0  0  0  0  0  0  0  0  0  0  0  0
  141.6517   80.5583  221.5195 H   0  0  0  0  0  0  0  0  0  0  0  0
  142.9318   79.3502  221.5098 H   0  0  0  0  0  0  0  0  0  0  0  0
  140.0976   79.1733  220.3962 H   0  0  0  0  0  0  0  0  0  0  0  0
  142.5907   80.5265  219.1953 H   0  0  0  0  0  0  0  0  0  0  0  0
  143.2900   79.6710  216.7880 H   0  0  0  0  0  0  0  0  0  0  0  0
  142.3836   77.3289  216.4326 H   0  0  0  0  0  0  0  0  0  0  0  0
  139.2879   70.4810  221.8440 H   0  0  0  0  0  0  0  0  0  0  0  0
  139.0861   68.8520  223.7042 H   0  0  0  0  0  0  0  0  0  0  0  0
  139.4950   68.3198  226.0870 H   0  0  0  0  0  0  0  0  0  0  0  0
  141.4099   71.2148  228.6464 H   0  0  0  0  0  0  0  0  0  0  0  0
  141.5588   72.7813  226.7021 H   0  0  0  0  0  0  0  0  0  0  0  0
  1  2  2  0
  2  3  1  0
  3  4  1  0
  4  5  1  0
  5  6  2  0
  5  7  1  0
  7  8  1  0
  8  9  1  0
  9 10  1  0
 10 11  1  0
 11 12  1  0
 12 13  2  0
 13 14  1  0
 14 15  1  0
 15 16  2  0
  2 17  1  0
 17 18  2  0
 18 19  1  0
 19 20  2  0
 20 21  1  0
 21 22  2  0
 22 23  1  0
 22 24  1  0
 24 25  2  0
 25 26  1  0
 26 27  2  0
 11  7  1  0
 16 12  1  0
 27 17  1  0
 26 20  1  0
  3 28  1  0
  4 29  1  0
  4 30  1  0
  8 31  1  0
  8 32  1  0
  9 33  1  0
  9 34  1  0
 10 35  1  0
 10 36  1  0
 11 37  1  6
 13 38  1  0
 14 39  1  0
 15 40  1  0
 18 41  1  0
 19 42  1  0
 21 43  1  0
 24 44  1  0
 25 45  1  0
M  END
>  <smiles>  (45) 
O=C(NCC(=O)N1CCC[C@H]1c1c[nH]cn1)c1ccc2cc(Cl)ccc2n1

>  <score_type>  (45) 
oracle

>  <origin>  (45) 
autodockgpu

>  <m_score__min__energy>  (45) 
-8.1600000000000001

>  <m_primary>  (45) 
energy

>  <rmsd>  (45) 
3.336851077378256

>  <m_score__min__rmsd>  (45) 
3.336851077378256

>  <meeko>  (45) 
{"free_energy": -8.08, "intermolecular_energy": -9.58, "internal_energy": -1.06, "cluster_size": 12, "cluster_id": 1, "rank_in_cluster": 3}

>  <energy>  (45) 
-6.4

>  <cluster_rmsd>  (45) 
0.87

>  <cluster>  (45) 
6

$$$$

     RDKit          3D

 45 48  0  0  0  0  0  0  0  0999 V2000
  141.2220   79.0210  218.8240 O   0  0  0  0  0  0  0  0  0  0  0  0
  141.9560   78.3600  219.6290 C   0  0  0  0  0  0  0  0  0  0  0  0
  142.1980   78.8450  220.9680 N   0  0  0  0  0  0  0  0  0  0  0  0
  141.5730   80.0830  221.3230 C   0  0  0  0  0  0  0  0  0  0  0  0
  140.9880   80.2380  222.6380 C   0  0  0  0  0  0  0  0  0  0  0  0
  141.7920   80.7090  223.5370 O   0  0  0  0  0  0  0  0  0  0  0  0
  139.6860   79.9560  223.0970 N   0  0  0  0  0  0  0  0  0  0  0  0
  138.7270   80.9170  223.6900 C   0  0  0  0  0  0  0  0  0  0  0  0
  137.4070   80.5200  223.0870 C   0  0  0  0  0  0  0  0  0  0  0  0
  137.5630   79.0860  222.6900 C   0  0  0  0  0  0  0  0  0  0  0  0
  138.9490   78.7120  223.1700 C   0  0  1  0  0  0  0  0  0  0  0  0
  139.5570   77.5890  222.4930 C   0  0  0  0  0  0  0  0  0  0  0  0
  140.8760   77.1680  222.7590 C   0  0  0  0  0  0  0  0  0  0  0  0
  141.1890   76.1370  221.9660 N   0  0  0  0  0  0  0  0  0  0  0  0
  140.1180   75.8990  221.2130 C   0  0  0  0  0  0  0  0  0  0  0  0
  139.1540   76.7560  221.5230 N   0  0  0  0  0  0  0  0  0  0  0  0
  142.5720   77.1000  219.2210 C   0  0  0  0  0  0  0  0  0  0  0  0
  142.6010   76.7830  217.8780 C   0  0  0  0  0  0  0  0  0  0  0  0
  143.1750   75.6010  217.4600 C   0  0  0  0  0  0  0  0  0  0  0  0
  143.7210   74.7360  218.3880 C   0  0  0  0  0  0  0  0  0  0  0  0
  144.3090   73.5420  218.0520 C   0  0  0  0  0  0  0  0  0  0  0  0
  144.8410   72.7080  219.0160 C   0  0  0  0  0  0  0  0  0  0  0  0
  145.5700   71.2030  218.4710 Cl  0  0  0  0  0  0  0  0  0  0  0  0
  144.8040   73.0400  220.3640 C   0  0  0  0  0  0  0  0  0  0  0  0
  144.2130   74.2420  220.7140 C   0  0  0  0  0  0  0  0  0  0  0  0
  143.6830   75.0700  219.7420 C   0  0  0  0  0  0  0  0  0  0  0  0
  143.1130   76.2310  220.0940 N   0  0  0  0  0  0  0  0  0  0  0  0
  142.8050   78.2730  221.5970 H   0  0  0  0  0  0  0  0  0  0  0  0
  142.3367   80.8677  221.2187 H   0  0  0  0  0  0  0  0  0  0  0  0
  140.7059   80.1359  220.6482 H   0  0  0  0  0  0  0  0  0  0  0  0
  138.7025   80.8215  224.7856 H   0  0  0  0  0  0  0  0  0  0  0  0
  138.9916   81.9650  223.4856 H   0  0  0  0  0  0  0  0  0  0  0  0
  136.5990   80.6286  223.8255 H   0  0  0  0  0  0  0  0  0  0  0  0
  137.1439   81.1546  222.2279 H   0  0  0  0  0  0  0  0  0  0  0  0
  136.8002   78.4616  223.1781 H   0  0  0  0  0  0  0  0  0  0  0  0
  137.4386   78.9343  221.6076 H   0  0  0  0  0  0  0  0  0  0  0  0
  138.9318   78.3088  224.1933 H   0  0  0  0  0  0  0  0  0  0  0  0
  141.5463   77.6190  223.5056 H   0  0  0  0  0  0  0  0  0  0  0  0
  142.0720   75.5840  221.8950 H   0  0  0  0  0  0  0  0  0  0  0  0
  140.0433   75.1110  220.4492 H   0  0  0  0  0  0  0  0  0  0  0  0
  142.1659   77.4737  217.1407 H   0  0  0  0  0  0  0  0  0  0  0  0
  143.1980   75.3476  216.3898 H   0  0  0  0  0  0  0  0  0  0  0  0
  144.3575   73.2435  216.9944 H   0  0  0  0  0  0  0  0  0  0  0  0
  145.2294   72.3713  221.1269 H   0  0  0  0  0  0  0  0  0  0  0  0
  144.1648   74.5400  221.7718 H   0  0  0  0  0  0  0  0  0  0  0  0
  1  2  2  0
  2  3  1  0
  3  4  1  0
  4  5  1  0
  5  6  2  0
  5  7  1  0
  7  8  1  0
  8  9  1  0
  9 10  1  0
 10 11  1  0
 11 12  1  0
 12 13  2  0
 13 14  1  0
 14 15  1  0
 15 16  2  0
  2 17  1  0
 17 18  2  0
 18 19  1  0
 19 20  2  0
 20 21  1  0
 21 22  2  0
 22 23  1  0
 22 24  1  0
 24 25  2  0
 25 26  1  0
 26 27  2  0
 11  7  1  0
 16 12  1  0
 27 17  1  0
 26 20  1  0
  3 28  1  0
  4 29  1  0
  4 30  1  0
  8 31  1  0
  8 32  1  0
  9 33  1  0
  9 34  1  0
 10 35  1  0
 10 36  1  0
 11 37  1  1
 13 38  1  0
 14 39  1  0
 15 40  1  0
 18 41  1  0
 19 42  1  0
 21 43  1  0
 24 44  1  0
 25 45  1  0
M  END
>  <smiles>  (46) 
O=C(NCC(=O)N1CCC[C@H]1c1c[nH]cn1)c1ccc2cc(Cl)ccc2n1

>  <score_type>  (46) 
oracle

>  <origin>  (46) 
autodockgpu

>  <m_score__min__energy>  (46) 
-8.1600000000000001

>  <m_primary>  (46) 
energy

>  <rmsd>  (46) 
7.938152608825877

>  <m_score__min__rmsd>  (46) 
7.938152608825877

>  <meeko>  (46) 
{"free_energy": -6.02, "intermolecular_energy": -7.52, "internal_energy": -2.28, "cluster_size": 1, "cluster_id": 8, "rank_in_cluster": 1}

>  <energy>  (46) 
-6.4

>  <cluster_rmsd>  (46) 
0.92

>  <cluster>  (46) 
6

$$$$

     RDKit          3D

 45 48  0  0  0  0  0  0  0  0999 V2000
  139.6830   74.5310  222.1610 O   0  0  0  0  0  0  0  0  0  0  0  0
  140.8170   74.7920  221.6410 C   0  0  0  0  0  0  0  0  0  0  0  0
  141.2990   76.1520  221.5760 N   0  0  0  0  0  0  0  0  0  0  0  0
  140.4430   77.1610  222.1210 C   0  0  0  0  0  0  0  0  0  0  0  0
  141.0170   78.3890  222.6270 C   0  0  0  0  0  0  0  0  0  0  0  0
  141.7810   78.2440  223.6630 O   0  0  0  0  0  0  0  0  0  0  0  0
  140.8780   79.7170  222.1760 N   0  0  0  0  0  0  0  0  0  0  0  0
  140.3760   80.8710  222.9560 C   0  0  0  0  0  0  0  0  0  0  0  0
  141.2860   81.9990  222.5490 C   0  0  0  0  0  0  0  0  0  0  0  0
  141.8250   81.6140  221.2070 C   0  0  0  0  0  0  0  0  0  0  0  0
  141.1220   80.3140  220.8790 C   0  0  1  0  0  0  0  0  0  0  0  0
  141.7980   79.4680  219.9230 C   0  0  0  0  0  0  0  0  0  0  0  0
  142.3650   79.9720  218.7330 C   0  0  0  0  0  0  0  0  0  0  0  0
  142.8900   78.9670  218.0230 N   0  0  0  0  0  0  0  0  0  0  0  0
  142.6710   77.8540  218.7210 C   0  0  0  0  0  0  0  0  0  0  0  0
  142.0270   78.1500  219.8420 N   0  0  0  0  0  0  0  0  0  0  0  0
  141.6570   73.7260  221.0980 C   0  0  0  0  0  0  0  0  0  0  0  0
  141.0890   72.4890  220.8720 C   0  0  0  0  0  0  0  0  0  0  0  0
  141.8550   71.4620  220.3600 C   0  0  0  0  0  0  0  0  0  0  0  0
  143.1890   71.6760  220.0760 C   0  0  0  0  0  0  0  0  0  0  0  0
  144.0160   70.7060  219.5660 C   0  0  0  0  0  0  0  0  0  0  0  0
  145.3460   70.9650  219.2980 C   0  0  0  0  0  0  0  0  0  0  0  0
  146.3120   69.6480  218.6450 Cl  0  0  0  0  0  0  0  0  0  0  0  0
  145.9030   72.2150  219.5310 C   0  0  0  0  0  0  0  0  0  0  0  0
  145.0780   73.2010  220.0450 C   0  0  0  0  0  0  0  0  0  0  0  0
  143.7480   72.9320  220.3110 C   0  0  0  0  0  0  0  0  0  0  0  0
  142.9600   73.8940  220.8090 N   0  0  0  0  0  0  0  0  0  0  0  0
  142.2340   76.3230  221.1420 H   0  0  0  0  0  0  0  0  0  0  0  0
  139.7355   77.4425  221.3271 H   0  0  0  0  0  0  0  0  0  0  0  0
  140.0234   76.6843  223.0192 H   0  0  0  0  0  0  0  0  0  0  0  0
  139.3313   81.0961  222.6953 H   0  0  0  0  0  0  0  0  0  0  0  0
  140.3825   80.6879  224.0406 H   0  0  0  0  0  0  0  0  0  0  0  0
  140.7231   82.9416  222.4811 H   0  0  0  0  0  0  0  0  0  0  0  0
  142.0910   82.1583  223.2815 H   0  0  0  0  0  0  0  0  0  0  0  0
  141.5898   82.3839  220.4574 H   0  0  0  0  0  0  0  0  0  0  0  0
  142.9201   81.5102  221.2085 H   0  0  0  0  0  0  0  0  0  0  0  0
  140.1858   80.4845  220.3272 H   0  0  0  0  0  0  0  0  0  0  0  0
  142.3739   81.0307  218.4345 H   0  0  0  0  0  0  0  0  0  0  0  0
  143.3820   78.9760  217.1020 H   0  0  0  0  0  0  0  0  0  0  0  0
  142.9776   76.8431  218.4144 H   0  0  0  0  0  0  0  0  0  0  0  0
  140.0260   72.3217  221.0999 H   0  0  0  0  0  0  0  0  0  0  0  0
  141.4040   70.4753  220.1786 H   0  0  0  0  0  0  0  0  0  0  0  0
  143.6114   69.7027  219.3669 H   0  0  0  0  0  0  0  0  0  0  0  0
  146.9628   72.4152  219.3148 H   0  0  0  0  0  0  0  0  0  0  0  0
  145.4830   74.2044  220.2429 H   0  0  0  0  0  0  0  0  0  0  0  0
  1  2  2  0
  2  3  1  0
  3  4  1  0
  4  5  1  0
  5  6  2  0
  5  7  1  0
  7  8  1  0
  8  9  1  0
  9 10  1  0
 10 11  1  0
 11 12  1  0
 12 13  2  0
 13 14  1  0
 14 15  1  0
 15 16  2  0
  2 17  1  0
 17 18  2  0
 18 19  1  0
 19 20  2  0
 20 21  1  0
 21 22  2  0
 22 23  1  0
 22 24  1  0
 24 25  2  0
 25 26  1  0
 26 27  2  0
 11  7  1  0
 16 12  1  0
 27 17  1  0
 26 20  1  0
  3 28  1  0
  4 29  1  0
  4 30  1  0
  8 31  1  0
  8 32  1  0
  9 33  1  0
  9 34  1  0
 10 35  1  0
 10 36  1  0
 11 37  1  6
 13 38  1  0
 14 39  1  0
 15 40  1  0
 18 41  1  0
 19 42  1  0
 21 43  1  0
 24 44  1  0
 25 45  1  0
M  END
>  <smiles>  (47) 
O=C(NCC(=O)N1CCC[C@H]1c1c[nH]cn1)c1ccc2cc(Cl)ccc2n1

>  <score_type>  (47) 
oracle

>  <origin>  (47) 
autodockgpu

>  <m_score__min__energy>  (47) 
-8.1600000000000001

>  <m_primary>  (47) 
energy

>  <rmsd>  (47) 
6.2899822991839045

>  <m_score__min__rmsd>  (47) 
6.2899822991839045

>  <meeko>  (47) 
{"free_energy": -7.06, "intermolecular_energy": -8.56, "internal_energy": -1.87, "cluster_size": 7, "cluster_id": 4, "rank_in_cluster": 2}

>  <energy>  (47) 
-6.36

>  <cluster_rmsd>  (47) 
0.83

>  <cluster>  (47) 
6

$$$$

     RDKit          3D

 45 48  0  0  0  0  0  0  0  0999 V2000
  136.6750   71.3200  221.4920 O   0  0  0  0  0  0  0  0  0  0  0  0
  137.4430   71.8250  222.3760 C   0  0  0  0  0  0  0  0  0  0  0  0
  137.7870   73.2260  222.3360 N   0  0  0  0  0  0  0  0  0  0  0  0
  137.2210   73.9940  221.2690 C   0  0  0  0  0  0  0  0  0  0  0  0
  138.0880   74.7650  220.4050 C   0  0  0  0  0  0  0  0  0  0  0  0
  137.8960   74.5800  219.1370 O   0  0  0  0  0  0  0  0  0  0  0  0
  139.1100   75.6840  220.7200 N   0  0  0  0  0  0  0  0  0  0  0  0
  139.0220   77.1610  220.6680 C   0  0  0  0  0  0  0  0  0  0  0  0
  139.7630   77.6050  221.9000 C   0  0  0  0  0  0  0  0  0  0  0  0
  140.6890   76.4800  222.2380 C   0  0  0  0  0  0  0  0  0  0  0  0
  140.4860   75.4780  221.1210 C   0  0  1  0  0  0  0  0  0  0  0  0
  140.8440   74.1150  221.4400 C   0  0  0  0  0  0  0  0  0  0  0  0
  141.7620   73.3730  220.6680 C   0  0  0  0  0  0  0  0  0  0  0  0
  141.8740   72.1360  221.1660 N   0  0  0  0  0  0  0  0  0  0  0  0
  141.0590   72.0760  222.2170 C   0  0  0  0  0  0  0  0  0  0  0  0
  140.4510   73.2430  222.3790 N   0  0  0  0  0  0  0  0  0  0  0  0
  137.9960   70.9990  223.4480 C   0  0  0  0  0  0  0  0  0  0  0  0
  137.5500   69.7000  223.5800 C   0  0  0  0  0  0  0  0  0  0  0  0
  138.0530   68.8960  224.5810 C   0  0  0  0  0  0  0  0  0  0  0  0
  139.0020   69.3950  225.4510 C   0  0  0  0  0  0  0  0  0  0  0  0
  139.5500   68.6590  226.4730 C   0  0  0  0  0  0  0  0  0  0  0  0
  140.4960   69.1990  227.3200 C   0  0  0  0  0  0  0  0  0  0  0  0
  141.1300   68.1650  228.5930 Cl  0  0  0  0  0  0  0  0  0  0  0  0
  140.9350   70.5090  227.1750 C   0  0  0  0  0  0  0  0  0  0  0  0
  140.3890   71.2610  226.1490 C   0  0  0  0  0  0  0  0  0  0  0  0
  139.4420   70.7100  225.3060 C   0  0  0  0  0  0  0  0  0  0  0  0
  138.9210   71.4480  224.3160 N   0  0  0  0  0  0  0  0  0  0  0  0
  138.4190   73.6000  223.0790 H   0  0  0  0  0  0  0  0  0  0  0  0
  136.6722   73.2907  220.6254 H   0  0  0  0  0  0  0  0  0  0  0  0
  136.6294   74.7611  221.7902 H   0  0  0  0  0  0  0  0  0  0  0  0
  139.5030   77.5510  219.7589 H   0  0  0  0  0  0  0  0  0  0  0  0
  137.9847   77.5259  220.6393 H   0  0  0  0  0  0  0  0  0  0  0  0
  140.3328   78.5234  221.6955 H   0  0  0  0  0  0  0  0  0  0  0  0
  139.0765   77.8310  222.7292 H   0  0  0  0  0  0  0  0  0  0  0  0
  141.7320   76.8285  222.2638 H   0  0  0  0  0  0  0  0  0  0  0  0
  140.4833   76.0506  223.2296 H   0  0  0  0  0  0  0  0  0  0  0  0
  141.1821   75.6486  220.2865 H   0  0  0  0  0  0  0  0  0  0  0  0
  142.3038   73.7535  219.7896 H   0  0  0  0  0  0  0  0  0  0  0  0
  142.4580   71.3300  220.8480 H   0  0  0  0  0  0  0  0  0  0  0  0
  140.9122   71.1918  222.8546 H   0  0  0  0  0  0  0  0  0  0  0  0
  136.7928   69.3056  222.8864 H   0  0  0  0  0  0  0  0  0  0  0  0
  137.6991   67.8598  224.6861 H   0  0  0  0  0  0  0  0  0  0  0  0
  139.2280   67.6174  226.6193 H   0  0  0  0  0  0  0  0  0  0  0  0
  141.6905   70.9341  227.8522 H   0  0  0  0  0  0  0  0  0  0  0  0
  140.7105   72.3029  226.0037 H   0  0  0  0  0  0  0  0  0  0  0  0
  1  2  2  0
  2  3  1  0
  3  4  1  0
  4  5  1  0
  5  6  2  0
  5  7  1  0
  7  8  1  0
  8  9  1  0
  9 10  1  0
 10 11  1  0
 11 12  1  0
 12 13  2  0
 13 14  1  0
 14 15  1  0
 15 16  2  0
  2 17  1  0
 17 18  2  0
 18 19  1  0
 19 20  2  0
 20 21  1  0
 21 22  2  0
 22 23  1  0
 22 24  1  0
 24 25  2  0
 25 26  1  0
 26 27  2  0
 11  7  1  0
 16 12  1  0
 27 17  1  0
 26 20  1  0
  3 28  1  0
  4 29  1  0
  4 30  1  0
  8 31  1  0
  8 32  1  0
  9 33  1  0
  9 34  1  0
 10 35  1  0
 10 36  1  0
 11 37  1  6
 13 38  1  0
 14 39  1  0
 15 40  1  0
 18 41  1  0
 19 42  1  0
 21 43  1  0
 24 44  1  0
 25 45  1  0
M  END
>  <smiles>  (48) 
O=C(NCC(=O)N1CCC[C@H]1c1c[nH]cn1)c1ccc2cc(Cl)ccc2n1

>  <score_type>  (48) 
oracle

>  <origin>  (48) 
autodockgpu

>  <m_score__min__energy>  (48) 
-8.1600000000000001

>  <m_primary>  (48) 
energy

>  <rmsd>  (48) 
3.044993732525305

>  <m_score__min__rmsd>  (48) 
3.044993732525305

>  <meeko>  (48) 
{"free_energy": -6.45, "intermolecular_energy": -7.94, "internal_energy": -2.43, "cluster_size": 11, "cluster_id": 6, "rank_in_cluster": 7}

>  <energy>  (48) 
-6.23

>  <cluster_rmsd>  (48) 
0.76

>  <cluster>  (48) 
6

$$$$

     RDKit          3D

 45 48  0  0  0  0  0  0  0  0999 V2000
  134.7290   68.5250  225.1490 O   0  0  0  0  0  0  0  0  0  0  0  0
  135.1880   69.7140  225.1440 C   0  0  0  0  0  0  0  0  0  0  0  0
  136.4860   69.9970  224.5810 N   0  0  0  0  0  0  0  0  0  0  0  0
  137.2050   68.8840  224.0390 C   0  0  0  0  0  0  0  0  0  0  0  0
  138.5050   68.5430  224.5760 C   0  0  0  0  0  0  0  0  0  0  0  0
  138.9640   67.3930  224.1970 O   0  0  0  0  0  0  0  0  0  0  0  0
  139.3500   69.2590  225.4460 N   0  0  0  0  0  0  0  0  0  0  0  0
  139.9040   68.7850  226.7350 C   0  0  0  0  0  0  0  0  0  0  0  0
  141.3190   69.2970  226.7250 C   0  0  0  0  0  0  0  0  0  0  0  0
  141.3160   70.4640  225.7890 C   0  0  0  0  0  0  0  0  0  0  0  0
  139.8670   70.6110  225.3760 C   0  0  1  0  0  0  0  0  0  0  0  0
  139.6460   71.2960  224.1230 C   0  0  0  0  0  0  0  0  0  0  0  0
  140.6980   71.8620  223.3730 C   0  0  0  0  0  0  0  0  0  0  0  0
  140.2040   72.4630  222.2850 N   0  0  0  0  0  0  0  0  0  0  0  0
  138.8840   72.2960  222.3270 C   0  0  0  0  0  0  0  0  0  0  0  0
  138.5540   71.6080  223.4110 N   0  0  0  0  0  0  0  0  0  0  0  0
  134.4150   70.8190  225.7090 C   0  0  0  0  0  0  0  0  0  0  0  0
  133.3390   70.5250  226.5220 C   0  0  0  0  0  0  0  0  0  0  0  0
  132.5890   71.5450  227.0700 C   0  0  0  0  0  0  0  0  0  0  0  0
  132.9190   72.8590  226.8040 C   0  0  0  0  0  0  0  0  0  0  0  0
  132.2230   73.9290  227.3100 C   0  0  0  0  0  0  0  0  0  0  0  0
  132.5890   75.2270  227.0160 C   0  0  0  0  0  0  0  0  0  0  0  0
  131.6260   76.5200  227.7210 Cl  0  0  0  0  0  0  0  0  0  0  0  0
  133.6740   75.5070  226.1960 C   0  0  0  0  0  0  0  0  0  0  0  0
  134.3830   74.4360  225.6800 C   0  0  0  0  0  0  0  0  0  0  0  0
  134.0090   73.1390  225.9800 C   0  0  0  0  0  0  0  0  0  0  0  0
  134.7030   72.1120  225.4730 N   0  0  0  0  0  0  0  0  0  0  0  0
  136.8260   70.9850  224.5960 H   0  0  0  0  0  0  0  0  0  0  0  0
  136.5650   67.9983  224.1649 H   0  0  0  0  0  0  0  0  0  0  0  0
  137.4267   69.1981  223.0084 H   0  0  0  0  0  0  0  0  0  0  0  0
  139.3411   69.2045  227.5818 H   0  0  0  0  0  0  0  0  0  0  0  0
  139.8469   67.6923  226.8475 H   0  0  0  0  0  0  0  0  0  0  0  0
  141.6199   69.6146  227.7343 H   0  0  0  0  0  0  0  0  0  0  0  0
  142.0311   68.5212  226.4072 H   0  0  0  0  0  0  0  0  0  0  0  0
  141.6698   71.3725  226.2983 H   0  0  0  0  0  0  0  0  0  0  0  0
  141.9843   70.3132  224.9284 H   0  0  0  0  0  0  0  0  0  0  0  0
  139.3193   71.2916  226.0444 H   0  0  0  0  0  0  0  0  0  0  0  0
  141.7636   71.8161  223.6422 H   0  0  0  0  0  0  0  0  0  0  0  0
  140.6910   72.9770  221.5180 H   0  0  0  0  0  0  0  0  0  0  0  0
  138.1742   72.6721  221.5756 H   0  0  0  0  0  0  0  0  0  0  0  0
  133.0794   69.4771  226.7330 H   0  0  0  0  0  0  0  0  0  0  0  0
  131.7305   71.3121  227.7171 H   0  0  0  0  0  0  0  0  0  0  0  0
  131.3563   73.7481  227.9628 H   0  0  0  0  0  0  0  0  0  0  0  0
  133.9601   76.5436  225.9646 H   0  0  0  0  0  0  0  0  0  0  0  0
  135.2494   74.6178  225.0271 H   0  0  0  0  0  0  0  0  0  0  0  0
  1  2  2  0
  2  3  1  0
  3  4  1  0
  4  5  1  0
  5  6  2  0
  5  7  1  0
  7  8  1  0
  8  9  1  0
  9 10  1  0
 10 11  1  0
 11 12  1  0
 12 13  2  0
 13 14  1  0
 14 15  1  0
 15 16  2  0
  2 17  1  0
 17 18  2  0
 18 19  1  0
 19 20  2  0
 20 21  1  0
 21 22  2  0
 22 23  1  0
 22 24  1  0
 24 25  2  0
 25 26  1  0
 26 27  2  0
 11  7  1  0
 16 12  1  0
 27 17  1  0
 26 20  1  0
  3 28  1  0
  4 29  1  0
  4 30  1  0
  8 31  1  0
  8 32  1  0
  9 33  1  0
  9 34  1  0
 10 35  1  0
 10 36  1  0
 11 37  1  1
 13 38  1  0
 14 39  1  0
 15 40  1  0
 18 41  1  0
 19 42  1  0
 21 43  1  0
 24 44  1  0
 25 45  1  0
M  END
>  <smiles>  (49) 
O=C(NCC(=O)N1CCC[C@H]1c1c[nH]cn1)c1ccc2cc(Cl)ccc2n1

>  <score_type>  (49) 
oracle

>  <origin>  (49) 
autodockgpu

>  <m_score__min__energy>  (49) 
-8.1600000000000001

>  <m_primary>  (49) 
energy

>  <rmsd>  (49) 
8.202342307141798

>  <m_score__min__rmsd>  (49) 
8.202342307141798

>  <meeko>  (49) 
{"free_energy": -6.94, "intermolecular_energy": -8.43, "internal_energy": -2.1, "cluster_size": 7, "cluster_id": 5, "rank_in_cluster": 1}

>  <energy>  (49) 
-6.5

>  <cluster_rmsd>  (49) 
0.0

>  <cluster>  (49) 
7

$$$$

     RDKit          3D

 45 48  0  0  0  0  0  0  0  0999 V2000
  134.9960   68.5130  225.2700 O   0  0  0  0  0  0  0  0  0  0  0  0
  135.2480   69.7110  224.9120 C   0  0  0  0  0  0  0  0  0  0  0  0
  136.2350   69.9800  223.8930 N   0  0  0  0  0  0  0  0  0  0  0  0
  136.8930   68.8440  223.3240 C   0  0  0  0  0  0  0  0  0  0  0  0
  138.3350   68.7420  223.3950 C   0  0  0  0  0  0  0  0  0  0  0  0
  138.7950   67.5320  223.3920 O   0  0  0  0  0  0  0  0  0  0  0  0
  139.3180   69.7490  223.4700 N   0  0  0  0  0  0  0  0  0  0  0  0
  139.6560   70.7390  222.4210 C   0  0  0  0  0  0  0  0  0  0  0  0
  139.8730   72.0130  223.1910 C   0  0  0  0  0  0  0  0  0  0  0  0
  140.2250   71.5850  224.5820 C   0  0  0  0  0  0  0  0  0  0  0  0
  140.2730   70.0740  224.5090 C   0  0  1  0  0  0  0  0  0  0  0  0
  140.0800   69.3870  225.7660 C   0  0  0  0  0  0  0  0  0  0  0  0
  140.2180   67.9900  225.8940 C   0  0  0  0  0  0  0  0  0  0  0  0
  139.9480   67.6230  227.1520 N   0  0  0  0  0  0  0  0  0  0  0  0
  139.6440   68.7370  227.8140 C   0  0  0  0  0  0  0  0  0  0  0  0
  139.7220   69.7780  226.9970 N   0  0  0  0  0  0  0  0  0  0  0  0
  134.5480   70.8390  225.5230 C   0  0  0  0  0  0  0  0  0  0  0  0
  133.5570   70.5800  226.4480 C   0  0  0  0  0  0  0  0  0  0  0  0
  132.8780   71.6230  227.0420 C   0  0  0  0  0  0  0  0  0  0  0  0
  133.1930   72.9260  226.7090 C   0  0  0  0  0  0  0  0  0  0  0  0
  132.5630   74.0170  227.2560 C   0  0  0  0  0  0  0  0  0  0  0  0
  132.9100   75.3030  226.8910 C   0  0  0  0  0  0  0  0  0  0  0  0
  132.0380   76.6250  227.6560 Cl  0  0  0  0  0  0  0  0  0  0  0  0
  133.9090   75.5480  225.9590 C   0  0  0  0  0  0  0  0  0  0  0  0
  134.5510   74.4550  225.4010 C   0  0  0  0  0  0  0  0  0  0  0  0
  134.1960   73.1710  225.7720 C   0  0  0  0  0  0  0  0  0  0  0  0
  134.8240   72.1220  225.2250 N   0  0  0  0  0  0  0  0  0  0  0  0
  136.4110   70.9750  223.6290 H   0  0  0  0  0  0  0  0  0  0  0  0
  136.4849   67.9542  223.8258 H   0  0  0  0  0  0  0  0  0  0  0  0
  136.6956   68.9459  222.2467 H   0  0  0  0  0  0  0  0  0  0  0  0
  140.5696   70.4448  221.8836 H   0  0  0  0  0  0  0  0  0  0  0  0
  138.8730   70.8321  221.6540 H   0  0  0  0  0  0  0  0  0  0  0  0
  140.6950   72.5945  222.7481 H   0  0  0  0  0  0  0  0  0  0  0  0
  138.9807   72.6561  223.1755 H   0  0  0  0  0  0  0  0  0  0  0  0
  141.2030   71.9918  224.8789 H   0  0  0  0  0  0  0  0  0  0  0  0
  139.5019   71.9464  225.3280 H   0  0  0  0  0  0  0  0  0  0  0  0
  141.2813   69.7089  224.2640 H   0  0  0  0  0  0  0  0  0  0  0  0
  140.5044   67.3051  225.0823 H   0  0  0  0  0  0  0  0  0  0  0  0
  139.9510   66.6770  227.5950 H   0  0  0  0  0  0  0  0  0  0  0  0
  139.3696   68.7863  228.8781 H   0  0  0  0  0  0  0  0  0  0  0  0
  133.3087   69.5413  226.7115 H   0  0  0  0  0  0  0  0  0  0  0  0
  132.0877   71.4178  227.7791 H   0  0  0  0  0  0  0  0  0  0  0  0
  131.7667   73.8636  227.9992 H   0  0  0  0  0  0  0  0  0  0  0  0
  134.1814   76.5748  225.6734 H   0  0  0  0  0  0  0  0  0  0  0  0
  135.3478   74.6091  224.6585 H   0  0  0  0  0  0  0  0  0  0  0  0
  1  2  2  0
  2  3  1  0
  3  4  1  0
  4  5  1  0
  5  6  2  0
  5  7  1  0
  7  8  1  0
  8  9  1  0
  9 10  1  0
 10 11  1  0
 11 12  1  0
 12 13  2  0
 13 14  1  0
 14 15  1  0
 15 16  2  0
  2 17  1  0
 17 18  2  0
 18 19  1  0
 19 20  2  0
 20 21  1  0
 21 22  2  0
 22 23  1  0
 22 24  1  0
 24 25  2  0
 25 26  1  0
 26 27  2  0
 11  7  1  0
 16 12  1  0
 27 17  1  0
 26 20  1  0
  3 28  1  0
  4 29  1  0
  4 30  1  0
  8 31  1  0
  8 32  1  0
  9 33  1  0
  9 34  1  0
 10 35  1  0
 10 36  1  0
 11 37  1  6
 13 38  1  0
 14 39  1  0
 15 40  1  0
 18 41  1  0
 19 42  1  0
 21 43  1  0
 24 44  1  0
 25 45  1  0
M  END
>  <smiles>  (50) 
O=C(NCC(=O)N1CCC[C@H]1c1c[nH]cn1)c1ccc2cc(Cl)ccc2n1

>  <score_type>  (50) 
oracle

>  <origin>  (50) 
autodockgpu

>  <m_score__min__energy>  (50) 
-8.1600000000000001

>  <m_primary>  (50) 
energy

>  <rmsd>  (50) 
7.648068293528967

>  <m_score__min__rmsd>  (50) 
7.648068293528967

>  <meeko>  (50) 
{"free_energy": -7.04, "intermolecular_energy": -8.54, "internal_energy": -1.49, "cluster_size": 3, "cluster_id": 2, "rank_in_cluster": 3}

>  <energy>  (50) 
-6.02

>  <cluster_rmsd>  (50) 
0.0

>  <cluster>  (50) 
8

$$$$
