
     RDKit          3D

 52 55  0  0  0  0  0  0  0  0999 V2000
  139.3000   71.0850  221.3850 O   0  0  0  0  0  0  0  0  0  0  0  0
  138.8350   71.5110  222.4810 C   0  0  0  0  0  0  0  0  0  0  0  0
  137.7400   72.4340  222.5380 N   0  0  0  0  0  0  0  0  0  0  0  0
  137.1870   72.8590  221.2660 C   0  0  0  0  0  0  0  0  0  0  0  0
  138.0490   73.8620  220.6010 C   0  0  0  0  0  0  0  0  0  0  0  0
  138.1790   73.8210  219.3560 O   0  0  0  0  0  0  0  0  0  0  0  0
  138.6870   74.8270  221.4300 N   0  0  0  0  0  0  0  0  0  0  0  0
  140.1050   74.9770  221.7310 C   0  0  0  0  0  0  0  0  0  0  0  0
  140.2410   76.4010  222.2270 C   0  0  0  0  0  0  0  0  0  0  0  0
  138.8790   77.0250  222.0680 C   0  0  2  0  0  0  0  0  0  0  0  0
  138.7020   77.9110  223.1510 O   0  0  0  0  0  0  0  0  0  0  0  0
  138.8700   79.1880  222.6200 C   0  0  0  0  0  0  0  0  0  0  0  0
  140.2810   79.6360  222.6840 C   0  0  0  0  0  0  0  0  0  0  0  0
  141.0240   79.4660  223.8240 C   0  0  0  0  0  0  0  0  0  0  0  0
  142.3500   79.8920  223.8690 C   0  0  0  0  0  0  0  0  0  0  0  0
  142.9460   80.4960  222.7610 C   0  0  0  0  0  0  0  0  0  0  0  0
  142.2050   80.6630  221.6310 C   0  0  0  0  0  0  0  0  0  0  0  0
  140.8990   80.2370  221.6050 C   0  0  0  0  0  0  0  0  0  0  0  0
  137.9500   75.8610  222.1330 C   0  0  0  0  0  0  0  0  0  0  0  0
  139.4120   71.0660  223.7450 C   0  0  0  0  0  0  0  0  0  0  0  0
  140.3280   71.8610  224.4110 C   0  0  0  0  0  0  0  0  0  0  0  0
  140.9040   71.4790  225.6160 C   0  0  0  0  0  0  0  0  0  0  0  0
  140.5520   70.2600  226.1810 C   0  0  0  0  0  0  0  0  0  0  0  0
  141.0940   69.8260  227.3830 C   0  0  0  0  0  0  0  0  0  0  0  0
  140.7130   68.5960  227.9100 C   0  0  0  0  0  0  0  0  0  0  0  0
  141.2370   68.1700  229.0800 F   0  0  0  0  0  0  0  0  0  0  0  0
  139.7920   67.8200  227.2230 C   0  0  0  0  0  0  0  0  0  0  0  0
  139.2640   68.2700  226.0260 C   0  0  0  0  0  0  0  0  0  0  0  0
  139.6320   69.4840  225.4920 C   0  0  0  0  0  0  0  0  0  0  0  0
  139.1010   69.8940  224.3280 N   0  0  0  0  0  0  0  0  0  0  0  0
  137.3700   72.7750  223.4560 H   0  0  0  0  0  0  0  0  0  0  0  0
  137.0889   71.9820  220.6093 H   0  0  0  0  0  0  0  0  0  0  0  0
  136.2072   73.3215  221.4559 H   0  0  0  0  0  0  0  0  0  0  0  0
  140.4145   74.2635  222.5089 H   0  0  0  0  0  0  0  0  0  0  0  0
  140.7408   74.7773  220.8559 H   0  0  0  0  0  0  0  0  0  0  0  0
  140.5453   76.4107  223.2840 H   0  0  0  0  0  0  0  0  0  0  0  0
  141.0070   76.9538  221.6633 H   0  0  0  0  0  0  0  0  0  0  0  0
  138.7221   77.5975  221.1419 H   0  0  0  0  0  0  0  0  0  0  0  0
  138.5474   79.1803  221.5684 H   0  0  0  0  0  0  0  0  0  0  0  0
  138.2651   79.8860  223.2173 H   0  0  0  0  0  0  0  0  0  0  0  0
  140.5712   78.9912  224.7069 H   0  0  0  0  0  0  0  0  0  0  0  0
  142.9347   79.7503  224.7899 H   0  0  0  0  0  0  0  0  0  0  0  0
  143.9932   80.8304  222.7998 H   0  0  0  0  0  0  0  0  0  0  0  0
  142.6497   81.1366  220.7433 H   0  0  0  0  0  0  0  0  0  0  0  0
  140.3186   80.3813  220.6818 H   0  0  0  0  0  0  0  0  0  0  0  0
  137.7521   75.5688  223.1748 H   0  0  0  0  0  0  0  0  0  0  0  0
  136.9611   76.0661  221.6972 H   0  0  0  0  0  0  0  0  0  0  0  0
  140.6098   72.8290  223.9710 H   0  0  0  0  0  0  0  0  0  0  0  0
  141.6310   72.1348  226.1173 H   0  0  0  0  0  0  0  0  0  0  0  0
  141.8229   70.4529  227.9175 H   0  0  0  0  0  0  0  0  0  0  0  0
  139.4811   66.8464  227.6297 H   0  0  0  0  0  0  0  0  0  0  0  0
  138.5350   67.6446  225.4899 H   0  0  0  0  0  0  0  0  0  0  0  0
  1  2  2  0
  2  3  1  0
  3  4  1  0
  4  5  1  0
  5  6  2  0
  5  7  1  0
  7  8  1  0
  8  9  1  0
  9 10  1  0
 10 11  1  0
 11 12  1  0
 12 13  1  0
 13 14  2  0
 14 15  1  0
 15 16  2  0
 16 17  1  0
 17 18  2  0
 10 19  1  0
  2 20  1  0
 20 21  2  0
 21 22  1  0
 22 23  2  0
 23 24  1  0
 24 25  2  0
 25 26  1  0
 25 27  1  0
 27 28  2  0
 28 29  1  0
 29 30  2  0
 19  7  1  0
 30 20  1  0
 18 13  1  0
 29 23  1  0
  3 31  1  0
  4 32  1  0
  4 33  1  0
  8 34  1  0
  8 35  1  0
  9 36  1  0
  9 37  1  0
 10 38  1  6
 12 39  1  0
 12 40  1  0
 14 41  1  0
 15 42  1  0
 16 43  1  0
 17 44  1  0
 18 45  1  0
 19 46  1  0
 19 47  1  0
 21 48  1  0
 22 49  1  0
 24 50  1  0
 27 51  1  0
 28 52  1  0
M  END
>  <smiles>  (1) 
O=C(NCC(=O)N1CC[C@H](OCc2ccccc2)C1)c1ccc2cc(F)ccc2n1

>  <score_type>  (1) 
oracle

>  <origin>  (1) 
autodockgpu

>  <m_score__min__energy>  (1) 
-8.9900000000000002

>  <m_primary>  (1) 
energy

>  <rmsd>  (1) 
3.2555454622809137

>  <m_score__min__rmsd>  (1) 
3.2555454622809137

>  <meeko>  (1) 
{"free_energy": -8.0, "intermolecular_energy": -10.09, "internal_energy": -1.43, "cluster_size": 11, "cluster_id": 4, "rank_in_cluster": 10}

>  <energy>  (1) 
-8.99

>  <cluster_rmsd>  (1) 
0.0

>  <cluster>  (1) 
1

$$$$

     RDKit          3D

 52 55  0  0  0  0  0  0  0  0999 V2000
  137.3520   74.2820  220.7690 O   0  0  0  0  0  0  0  0  0  0  0  0
  138.2190   74.4890  221.6650 C   0  0  0  0  0  0  0  0  0  0  0  0
  138.8950   73.4160  222.3350 N   0  0  0  0  0  0  0  0  0  0  0  0
  138.5320   72.0720  221.9300 C   0  0  0  0  0  0  0  0  0  0  0  0
  137.5990   71.4430  222.8920 C   0  0  0  0  0  0  0  0  0  0  0  0
  136.6320   72.1100  223.3250 O   0  0  0  0  0  0  0  0  0  0  0  0
  137.8610   70.0960  223.2700 N   0  0  0  0  0  0  0  0  0  0  0  0
  137.8810   68.9010  222.4360 C   0  0  0  0  0  0  0  0  0  0  0  0
  138.6740   67.8900  223.2370 C   0  0  0  0  0  0  0  0  0  0  0  0
  139.1670   68.6250  224.4570 C   0  0  2  0  0  0  0  0  0  0  0  0
  139.1530   67.7050  225.5250 O   0  0  0  0  0  0  0  0  0  0  0  0
  140.3600   67.8940  226.1960 C   0  0  0  0  0  0  0  0  0  0  0  0
  140.5070   69.2810  226.6980 C   0  0  0  0  0  0  0  0  0  0  0  0
  141.2770   70.1950  226.0250 C   0  0  0  0  0  0  0  0  0  0  0  0
  141.4060   71.4960  226.5080 C   0  0  0  0  0  0  0  0  0  0  0  0
  140.7560   71.8920  227.6790 C   0  0  0  0  0  0  0  0  0  0  0  0
  139.9930   70.9820  228.3420 C   0  0  0  0  0  0  0  0  0  0  0  0
  139.8780   69.7040  227.8510 C   0  0  0  0  0  0  0  0  0  0  0  0
  138.1650   69.7140  224.6370 C   0  0  0  0  0  0  0  0  0  0  0  0
  138.5640   75.8520  222.0520 C   0  0  0  0  0  0  0  0  0  0  0  0
  137.5850   76.8270  222.1150 C   0  0  0  0  0  0  0  0  0  0  0  0
  137.8660   78.1380  222.4780 C   0  0  0  0  0  0  0  0  0  0  0  0
  139.1720   78.4920  222.7900 C   0  0  0  0  0  0  0  0  0  0  0  0
  139.5120   79.7860  223.1600 C   0  0  0  0  0  0  0  0  0  0  0  0
  140.8350   80.0940  223.4630 C   0  0  0  0  0  0  0  0  0  0  0  0
  141.1710   81.3530  223.8230 F   0  0  0  0  0  0  0  0  0  0  0  0
  141.7970   79.0970  223.3910 C   0  0  0  0  0  0  0  0  0  0  0  0
  141.4370   77.8140  223.0210 C   0  0  0  0  0  0  0  0  0  0  0  0
  140.1330   77.4950  222.7180 C   0  0  0  0  0  0  0  0  0  0  0  0
  139.8150   76.2390  222.3620 N   0  0  0  0  0  0  0  0  0  0  0  0
  139.6100   73.6090  223.0760 H   0  0  0  0  0  0  0  0  0  0  0  0
  138.0498   72.1154  220.9423 H   0  0  0  0  0  0  0  0  0  0  0  0
  139.4488   71.4652  221.8950 H   0  0  0  0  0  0  0  0  0  0  0  0
  136.8590   68.5371  222.2543 H   0  0  0  0  0  0  0  0  0  0  0  0
  138.3238   69.0897  221.4469 H   0  0  0  0  0  0  0  0  0  0  0  0
  138.0320   67.0468  223.5317 H   0  0  0  0  0  0  0  0  0  0  0  0
  139.5074   67.4747  222.6514 H   0  0  0  0  0  0  0  0  0  0  0  0
  140.1842   69.0380  224.3875 H   0  0  0  0  0  0  0  0  0  0  0  0
  140.4038   67.2013  227.0494 H   0  0  0  0  0  0  0  0  0  0  0  0
  141.1769   67.7026  225.4846 H   0  0  0  0  0  0  0  0  0  0  0  0
  141.7948   69.9001  225.1004 H   0  0  0  0  0  0  0  0  0  0  0  0
  142.0274   72.2198  225.9602 H   0  0  0  0  0  0  0  0  0  0  0  0
  140.8591   72.9196  228.0576 H   0  0  0  0  0  0  0  0  0  0  0  0
  139.4705   71.2679  229.2668 H   0  0  0  0  0  0  0  0  0  0  0  0
  139.2554   68.9844  228.4028 H   0  0  0  0  0  0  0  0  0  0  0  0
  137.2673   69.3455  225.1550 H   0  0  0  0  0  0  0  0  0  0  0  0
  138.5325   70.5485  225.2523 H   0  0  0  0  0  0  0  0  0  0  0  0
  136.5480   76.5548  221.8691 H   0  0  0  0  0  0  0  0  0  0  0  0
  137.0623   78.8880  222.5179 H   0  0  0  0  0  0  0  0  0  0  0  0
  138.7380   80.5658  223.2136 H   0  0  0  0  0  0  0  0  0  0  0  0
  142.8462   79.3270  223.6282 H   0  0  0  0  0  0  0  0  0  0  0  0
  142.2090   77.0322  222.9678 H   0  0  0  0  0  0  0  0  0  0  0  0
  1  2  2  0
  2  3  1  0
  3  4  1  0
  4  5  1  0
  5  6  2  0
  5  7  1  0
  7  8  1  0
  8  9  1  0
  9 10  1  0
 10 11  1  0
 11 12  1  0
 12 13  1  0
 13 14  2  0
 14 15  1  0
 15 16  2  0
 16 17  1  0
 17 18  2  0
 10 19  1  0
  2 20  1  0
 20 21  2  0
 21 22  1  0
 22 23  2  0
 23 24  1  0
 24 25  2  0
 25 26  1  0
 25 27  1  0
 27 28  2  0
 28 29  1  0
 29 30  2  0
 19  7  1  0
 30 20  1  0
 18 13  1  0
 29 23  1  0
  3 31  1  0
  4 32  1  0
  4 33  1  0
  8 34  1  0
  8 35  1  0
  9 36  1  0
  9 37  1  0
 10 38  1  6
 12 39  1  0
 12 40  1  0
 14 41  1  0
 15 42  1  0
 16 43  1  0
 17 44  1  0
 18 45  1  0
 19 46  1  0
 19 47  1  0
 21 48  1  0
 22 49  1  0
 24 50  1  0
 27 51  1  0
 28 52  1  0
M  END
>  <smiles>  (2) 
O=C(NCC(=O)N1CC[C@H](OCc2ccccc2)C1)c1ccc2cc(F)ccc2n1

>  <score_type>  (2) 
oracle

>  <origin>  (2) 
autodockgpu

>  <m_score__min__energy>  (2) 
-8.9900000000000002

>  <m_primary>  (2) 
energy

>  <rmsd>  (2) 
8.48933677593497

>  <m_score__min__rmsd>  (2) 
8.48933677593497

>  <meeko>  (2) 
{"free_energy": -8.63, "intermolecular_energy": -10.72, "internal_energy": -1.32, "cluster_size": 20, "cluster_id": 1, "rank_in_cluster": 4}

>  <energy>  (2) 
-8.89

>  <cluster_rmsd>  (2) 
0.39

>  <cluster>  (2) 
1

$$$$

     RDKit          3D

 52 55  0  0  0  0  0  0  0  0999 V2000
  138.9730   72.9560  222.3830 O   0  0  0  0  0  0  0  0  0  0  0  0
  140.0130   72.2790  222.6230 C   0  0  0  0  0  0  0  0  0  0  0  0
  141.2010   72.3990  221.8290 N   0  0  0  0  0  0  0  0  0  0  0  0
  141.1500   73.3440  220.7300 C   0  0  0  0  0  0  0  0  0  0  0  0
  142.4470   74.0310  220.5360 C   0  0  0  0  0  0  0  0  0  0  0  0
  143.5060   73.3750  220.6620 O   0  0  0  0  0  0  0  0  0  0  0  0
  142.4100   75.4160  220.2140 N   0  0  0  0  0  0  0  0  0  0  0  0
  143.3580   76.1960  219.4260 C   0  0  0  0  0  0  0  0  0  0  0  0
  142.5850   77.4300  219.0120 C   0  0  0  0  0  0  0  0  0  0  0  0
  141.1760   77.2200  219.5040 C   0  0  2  0  0  0  0  0  0  0  0  0
  140.6840   78.4820  219.8970 O   0  0  0  0  0  0  0  0  0  0  0  0
  141.8060   79.2980  220.0190 C   0  0  0  0  0  0  0  0  0  0  0  0
  141.9100   79.9060  221.3670 C   0  0  0  0  0  0  0  0  0  0  0  0
  142.1970   79.1370  222.4660 C   0  0  0  0  0  0  0  0  0  0  0  0
  142.2920   79.7210  223.7270 C   0  0  0  0  0  0  0  0  0  0  0  0
  142.0980   81.0940  223.8960 C   0  0  0  0  0  0  0  0  0  0  0  0
  141.8140   81.8530  222.8030 C   0  0  0  0  0  0  0  0  0  0  0  0
  141.7250   81.2590  221.5680 C   0  0  0  0  0  0  0  0  0  0  0  0
  141.3450   76.2950  220.6620 C   0  0  0  0  0  0  0  0  0  0  0  0
  140.0360   71.3360  223.7350 C   0  0  0  0  0  0  0  0  0  0  0  0
  139.5500   70.0510  223.5700 C   0  0  0  0  0  0  0  0  0  0  0  0
  139.5500   69.1200  224.6000 C   0  0  0  0  0  0  0  0  0  0  0  0
  140.0540   69.4810  225.8430 C   0  0  0  0  0  0  0  0  0  0  0  0
  140.0810   68.5920  226.9090 C   0  0  0  0  0  0  0  0  0  0  0  0
  140.5940   69.0000  228.1360 C   0  0  0  0  0  0  0  0  0  0  0  0
  140.6210   68.1380  229.1770 F   0  0  0  0  0  0  0  0  0  0  0  0
  141.0740   70.2930  228.2750 C   0  0  0  0  0  0  0  0  0  0  0  0
  141.0390   71.1630  227.2000 C   0  0  0  0  0  0  0  0  0  0  0  0
  140.5330   70.7750  225.9800 C   0  0  0  0  0  0  0  0  0  0  0  0
  140.5130   71.6430  224.9550 N   0  0  0  0  0  0  0  0  0  0  0  0
  142.0520   71.8280  222.0430 H   0  0  0  0  0  0  0  0  0  0  0  0
  140.8916   72.8037  219.8073 H   0  0  0  0  0  0  0  0  0  0  0  0
  140.3919   74.1048  220.9677 H   0  0  0  0  0  0  0  0  0  0  0  0
  144.2334   76.4713  220.0325 H   0  0  0  0  0  0  0  0  0  0  0  0
  143.7433   75.6352  218.5616 H   0  0  0  0  0  0  0  0  0  0  0  0
  143.0217   78.3277  219.4739 H   0  0  0  0  0  0  0  0  0  0  0  0
  142.6142   77.5778  217.9224 H   0  0  0  0  0  0  0  0  0  0  0  0
  140.4712   76.8027  218.7698 H   0  0  0  0  0  0  0  0  0  0  0  0
  142.7060   78.6937  219.8322 H   0  0  0  0  0  0  0  0  0  0  0  0
  141.7131   80.1131  219.2862 H   0  0  0  0  0  0  0  0  0  0  0  0
  142.3528   78.0542  222.3510 H   0  0  0  0  0  0  0  0  0  0  0  0
  142.5226   79.0933  224.6004 H   0  0  0  0  0  0  0  0  0  0  0  0
  142.1734   81.5525  224.8930 H   0  0  0  0  0  0  0  0  0  0  0  0
  141.6565   82.9366  222.9080 H   0  0  0  0  0  0  0  0  0  0  0  0
  141.4954   81.8914  220.6977 H   0  0  0  0  0  0  0  0  0  0  0  0
  141.6386   76.8440  221.5689 H   0  0  0  0  0  0  0  0  0  0  0  0
  140.4224   75.7608  220.9329 H   0  0  0  0  0  0  0  0  0  0  0  0
  139.1497   69.7568  222.5886 H   0  0  0  0  0  0  0  0  0  0  0  0
  139.1550   68.1070  224.4334 H   0  0  0  0  0  0  0  0  0  0  0  0
  139.6980   67.5685  226.7838 H   0  0  0  0  0  0  0  0  0  0  0  0
  141.4827   70.6272  229.2400 H   0  0  0  0  0  0  0  0  0  0  0  0
  141.4236   72.1863  227.3227 H   0  0  0  0  0  0  0  0  0  0  0  0
  1  2  2  0
  2  3  1  0
  3  4  1  0
  4  5  1  0
  5  6  2  0
  5  7  1  0
  7  8  1  0
  8  9  1  0
  9 10  1  0
 10 11  1  0
 11 12  1  0
 12 13  1  0
 13 14  2  0
 14 15  1  0
 15 16  2  0
 16 17  1  0
 17 18  2  0
 10 19  1  0
  2 20  1  0
 20 21  2  0
 21 22  1  0
 22 23  2  0
 23 24  1  0
 24 25  2  0
 25 26  1  0
 25 27  1  0
 27 28  2  0
 28 29  1  0
 29 30  2  0
 19  7  1  0
 30 20  1  0
 18 13  1  0
 29 23  1  0
  3 31  1  0
  4 32  1  0
  4 33  1  0
  8 34  1  0
  8 35  1  0
  9 36  1  0
  9 37  1  0
 10 38  1  6
 12 39  1  0
 12 40  1  0
 14 41  1  0
 15 42  1  0
 16 43  1  0
 17 44  1  0
 18 45  1  0
 19 46  1  0
 19 47  1  0
 21 48  1  0
 22 49  1  0
 24 50  1  0
 27 51  1  0
 28 52  1  0
M  END
>  <smiles>  (3) 
O=C(NCC(=O)N1CC[C@H](OCc2ccccc2)C1)c1ccc2cc(F)ccc2n1

>  <score_type>  (3) 
oracle

>  <origin>  (3) 
autodockgpu

>  <m_score__min__energy>  (3) 
-8.9900000000000002

>  <m_primary>  (3) 
energy

>  <rmsd>  (3) 
2.2104895281312253

>  <m_score__min__rmsd>  (3) 
2.2104895281312253

>  <meeko>  (3) 
{"free_energy": -8.17, "intermolecular_energy": -10.26, "internal_energy": -1.43, "cluster_size": 14, "cluster_id": 3, "rank_in_cluster": 11}

>  <energy>  (3) 
-8.81

>  <cluster_rmsd>  (3) 
0.32

>  <cluster>  (3) 
1

$$$$

     RDKit          3D

 52 55  0  0  0  0  0  0  0  0999 V2000
  139.9320   70.9720  221.4060 O   0  0  0  0  0  0  0  0  0  0  0  0
  139.9270   71.5130  222.5480 C   0  0  0  0  0  0  0  0  0  0  0  0
  139.9470   72.9370  222.7170 N   0  0  0  0  0  0  0  0  0  0  0  0
  139.9720   73.7310  221.5040 C   0  0  0  0  0  0  0  0  0  0  0  0
  141.3440   73.8620  220.9630 C   0  0  0  0  0  0  0  0  0  0  0  0
  142.0670   72.8420  220.8880 O   0  0  0  0  0  0  0  0  0  0  0  0
  141.7630   75.1580  220.5540 N   0  0  0  0  0  0  0  0  0  0  0  0
  143.0740   75.5870  220.0810 C   0  0  0  0  0  0  0  0  0  0  0  0
  142.8090   76.8850  219.3480 C   0  0  0  0  0  0  0  0  0  0  0  0
  141.3120   77.0630  219.3500 C   0  0  2  0  0  0  0  0  0  0  0  0
  141.0610   78.4450  219.4690 O   0  0  0  0  0  0  0  0  0  0  0  0
  140.2950   78.5880  220.6230 C   0  0  0  0  0  0  0  0  0  0  0  0
  141.0810   79.1480  221.7480 C   0  0  0  0  0  0  0  0  0  0  0  0
  141.0930   78.5330  222.9750 C   0  0  0  0  0  0  0  0  0  0  0  0
  141.8370   79.0700  224.0230 C   0  0  0  0  0  0  0  0  0  0  0  0
  142.5820   80.2370  223.8470 C   0  0  0  0  0  0  0  0  0  0  0  0
  142.5680   80.8440  222.6290 C   0  0  0  0  0  0  0  0  0  0  0  0
  141.8290   80.3000  221.6060 C   0  0  0  0  0  0  0  0  0  0  0  0
  140.8720   76.3040  220.5570 C   0  0  0  0  0  0  0  0  0  0  0  0
  139.9020   70.6890  223.7510 C   0  0  0  0  0  0  0  0  0  0  0  0
  139.2740   69.4560  223.7380 C   0  0  0  0  0  0  0  0  0  0  0  0
  139.2240   68.6370  224.8590 C   0  0  0  0  0  0  0  0  0  0  0  0
  139.8220   69.0630  226.0380 C   0  0  0  0  0  0  0  0  0  0  0  0
  139.8040   68.2870  227.1900 C   0  0  0  0  0  0  0  0  0  0  0  0
  140.4160   68.7550  228.3480 C   0  0  0  0  0  0  0  0  0  0  0  0
  140.4010   68.0030  229.4720 F   0  0  0  0  0  0  0  0  0  0  0  0
  141.0380   69.9950  228.3340 C   0  0  0  0  0  0  0  0  0  0  0  0
  141.0440   70.7520  227.1770 C   0  0  0  0  0  0  0  0  0  0  0  0
  140.4430   70.3020  226.0230 C   0  0  0  0  0  0  0  0  0  0  0  0
  140.4670   71.0610  224.9140 N   0  0  0  0  0  0  0  0  0  0  0  0
  139.9430   73.3660  223.6720 H   0  0  0  0  0  0  0  0  0  0  0  0
  139.3356   73.2474  220.7483 H   0  0  0  0  0  0  0  0  0  0  0  0
  139.6013   74.7380  221.7458 H   0  0  0  0  0  0  0  0  0  0  0  0
  143.7576   75.7512  220.9270 H   0  0  0  0  0  0  0  0  0  0  0  0
  143.5523   74.8342  219.4371 H   0  0  0  0  0  0  0  0  0  0  0  0
  143.2947   77.7239  219.8679 H   0  0  0  0  0  0  0  0  0  0  0  0
  143.2112   76.8600  218.3245 H   0  0  0  0  0  0  0  0  0  0  0  0
  140.7878   76.7066  218.4510 H   0  0  0  0  0  0  0  0  0  0  0  0
  139.4528   79.2623  220.4084 H   0  0  0  0  0  0  0  0  0  0  0  0
  139.9412   77.5899  220.9207 H   0  0  0  0  0  0  0  0  0  0  0  0
  140.5124   77.6119  223.1315 H   0  0  0  0  0  0  0  0  0  0  0  0
  141.8374   78.5679  225.0017 H   0  0  0  0  0  0  0  0  0  0  0  0
  143.1690   80.6579  224.6766 H   0  0  0  0  0  0  0  0  0  0  0  0
  143.1454   81.7656  222.4642 H   0  0  0  0  0  0  0  0  0  0  0  0
  141.8335   80.8055  220.6291 H   0  0  0  0  0  0  0  0  0  0  0  0
  140.9991   76.9031  221.4707 H   0  0  0  0  0  0  0  0  0  0  0  0
  139.8070   76.0296  220.5365 H   0  0  0  0  0  0  0  0  0  0  0  0
  138.7979   69.1124  222.8078 H   0  0  0  0  0  0  0  0  0  0  0  0
  138.7165   67.6621  224.8134 H   0  0  0  0  0  0  0  0  0  0  0  0
  139.3073   67.3055  227.1864 H   0  0  0  0  0  0  0  0  0  0  0  0
  141.5263   70.3759  229.2431 H   0  0  0  0  0  0  0  0  0  0  0  0
  141.5393   71.7342  227.1786 H   0  0  0  0  0  0  0  0  0  0  0  0
  1  2  2  0
  2  3  1  0
  3  4  1  0
  4  5  1  0
  5  6  2  0
  5  7  1  0
  7  8  1  0
  8  9  1  0
  9 10  1  0
 10 11  1  0
 11 12  1  0
 12 13  1  0
 13 14  2  0
 14 15  1  0
 15 16  2  0
 16 17  1  0
 17 18  2  0
 10 19  1  0
  2 20  1  0
 20 21  2  0
 21 22  1  0
 22 23  2  0
 23 24  1  0
 24 25  2  0
 25 26  1  0
 25 27  1  0
 27 28  2  0
 28 29  1  0
 29 30  2  0
 19  7  1  0
 30 20  1  0
 18 13  1  0
 29 23  1  0
  3 31  1  0
  4 32  1  0
  4 33  1  0
  8 34  1  0
  8 35  1  0
  9 36  1  0
  9 37  1  0
 10 38  1  6
 12 39  1  0
 12 40  1  0
 14 41  1  0
 15 42  1  0
 16 43  1  0
 17 44  1  0
 18 45  1  0
 19 46  1  0
 19 47  1  0
 21 48  1  0
 22 49  1  0
 24 50  1  0
 27 51  1  0
 28 52  1  0
M  END
>  <smiles>  (4) 
O=C(NCC(=O)N1CC[C@H](OCc2ccccc2)C1)c1ccc2cc(F)ccc2n1

>  <score_type>  (4) 
oracle

>  <origin>  (4) 
autodockgpu

>  <m_score__min__energy>  (4) 
-8.9900000000000002

>  <m_primary>  (4) 
energy

>  <rmsd>  (4) 
1.8108889849520646

>  <m_score__min__rmsd>  (4) 
1.8108889849520646

>  <meeko>  (4) 
{"free_energy": -8.21, "intermolecular_energy": -10.3, "internal_energy": -1.39, "cluster_size": 14, "cluster_id": 3, "rank_in_cluster": 10}

>  <energy>  (4) 
-8.63

>  <cluster_rmsd>  (4) 
0.92

>  <cluster>  (4) 
1

$$$$

     RDKit          3D

 52 55  0  0  0  0  0  0  0  0999 V2000
  137.2080   75.7910  222.2030 O   0  0  0  0  0  0  0  0  0  0  0  0
  138.4590   75.9350  222.3120 C   0  0  0  0  0  0  0  0  0  0  0  0
  139.3710   74.8430  222.1370 N   0  0  0  0  0  0  0  0  0  0  0  0
  138.7830   73.5550  221.8260 C   0  0  0  0  0  0  0  0  0  0  0  0
  139.6890   72.4380  222.1790 C   0  0  0  0  0  0  0  0  0  0  0  0
  140.9030   72.6780  222.3680 O   0  0  0  0  0  0  0  0  0  0  0  0
  139.1150   71.1410  222.2860 N   0  0  0  0  0  0  0  0  0  0  0  0
  138.6620   70.2530  221.2220 C   0  0  0  0  0  0  0  0  0  0  0  0
  138.6190   68.8820  221.8630 C   0  0  0  0  0  0  0  0  0  0  0  0
  139.1720   69.0580  223.2530 C   0  0  2  0  0  0  0  0  0  0  0  0
  138.4600   68.1790  224.0950 O   0  0  0  0  0  0  0  0  0  0  0  0
  138.1610   68.9170  225.2370 C   0  0  0  0  0  0  0  0  0  0  0  0
  139.1950   68.7620  226.2880 C   0  0  0  0  0  0  0  0  0  0  0  0
  140.1360   67.7670  226.2090 C   0  0  0  0  0  0  0  0  0  0  0  0
  141.1030   67.6340  227.2040 C   0  0  0  0  0  0  0  0  0  0  0  0
  141.1330   68.5070  228.2940 C   0  0  0  0  0  0  0  0  0  0  0  0
  140.1980   69.4920  228.3670 C   0  0  0  0  0  0  0  0  0  0  0  0
  139.2520   69.6080  227.3770 C   0  0  0  0  0  0  0  0  0  0  0  0
  138.8900   70.4890  223.5630 C   0  0  0  0  0  0  0  0  0  0  0  0
  139.0220   77.2440  222.6260 C   0  0  0  0  0  0  0  0  0  0  0  0
  138.1920   78.3360  222.8030 C   0  0  0  0  0  0  0  0  0  0  0  0
  138.6820   79.6000  223.1020 C   0  0  0  0  0  0  0  0  0  0  0  0
  140.0530   79.7840  223.2310 C   0  0  0  0  0  0  0  0  0  0  0  0
  140.6010   81.0250  223.5300 C   0  0  0  0  0  0  0  0  0  0  0  0
  141.9800   81.1610  223.6470 C   0  0  0  0  0  0  0  0  0  0  0  0
  142.5180   82.3660  223.9380 F   0  0  0  0  0  0  0  0  0  0  0  0
  142.7900   80.0500  223.4650 C   0  0  0  0  0  0  0  0  0  0  0  0
  142.2240   78.8230  223.1690 C   0  0  0  0  0  0  0  0  0  0  0  0
  140.8610   78.6730  223.0480 C   0  0  0  0  0  0  0  0  0  0  0  0
  140.3420   77.4670  222.7590 N   0  0  0  0  0  0  0  0  0  0  0  0
  140.4040   74.9840  222.2320 H   0  0  0  0  0  0  0  0  0  0  0  0
  137.8457   73.4456  222.3912 H   0  0  0  0  0  0  0  0  0  0  0  0
  138.5978   73.5160  220.7424 H   0  0  0  0  0  0  0  0  0  0  0  0
  137.6630   70.5482  220.8685 H   0  0  0  0  0  0  0  0  0  0  0  0
  139.3231   70.2827  220.3433 H   0  0  0  0  0  0  0  0  0  0  0  0
  137.5838   68.5127  221.9071 H   0  0  0  0  0  0  0  0  0  0  0  0
  139.2019   68.1485  221.2866 H   0  0  0  0  0  0  0  0  0  0  0  0
  140.2429   68.8365  223.3719 H   0  0  0  0  0  0  0  0  0  0  0  0
  138.0897   69.9801  224.9637 H   0  0  0  0  0  0  0  0  0  0  0  0
  137.2085   68.5440  225.6415 H   0  0  0  0  0  0  0  0  0  0  0  0
  140.1274   67.0713  225.3570 H   0  0  0  0  0  0  0  0  0  0  0  0
  141.8518   66.8316  227.1299 H   0  0  0  0  0  0  0  0  0  0  0  0
  141.8975   68.4000  229.0776 H   0  0  0  0  0  0  0  0  0  0  0  0
  140.1990   70.1928  229.2149 H   0  0  0  0  0  0  0  0  0  0  0  0
  138.5057   70.4123  227.4561 H   0  0  0  0  0  0  0  0  0  0  0  0
  137.8519   70.6249  223.9006 H   0  0  0  0  0  0  0  0  0  0  0  0
  139.5135   70.8914  224.3750 H   0  0  0  0  0  0  0  0  0  0  0  0
  137.1052   78.1981  222.7033 H   0  0  0  0  0  0  0  0  0  0  0  0
  137.9924   80.4465  223.2353 H   0  0  0  0  0  0  0  0  0  0  0  0
  139.9463   81.8972  223.6737 H   0  0  0  0  0  0  0  0  0  0  0  0
  143.8821   80.1445  223.5560 H   0  0  0  0  0  0  0  0  0  0  0  0
  142.8767   77.9489  223.0274 H   0  0  0  0  0  0  0  0  0  0  0  0
  1  2  2  0
  2  3  1  0
  3  4  1  0
  4  5  1  0
  5  6  2  0
  5  7  1  0
  7  8  1  0
  8  9  1  0
  9 10  1  0
 10 11  1  0
 11 12  1  0
 12 13  1  0
 13 14  2  0
 14 15  1  0
 15 16  2  0
 16 17  1  0
 17 18  2  0
 10 19  1  0
  2 20  1  0
 20 21  2  0
 21 22  1  0
 22 23  2  0
 23 24  1  0
 24 25  2  0
 25 26  1  0
 25 27  1  0
 27 28  2  0
 28 29  1  0
 29 30  2  0
 19  7  1  0
 30 20  1  0
 18 13  1  0
 29 23  1  0
  3 31  1  0
  4 32  1  0
  4 33  1  0
  8 34  1  0
  8 35  1  0
  9 36  1  0
  9 37  1  0
 10 38  1  6
 12 39  1  0
 12 40  1  0
 14 41  1  0
 15 42  1  0
 16 43  1  0
 17 44  1  0
 18 45  1  0
 19 46  1  0
 19 47  1  0
 21 48  1  0
 22 49  1  0
 24 50  1  0
 27 51  1  0
 28 52  1  0
M  END
>  <smiles>  (5) 
O=C(NCC(=O)N1CC[C@H](OCc2ccccc2)C1)c1ccc2cc(F)ccc2n1

>  <score_type>  (5) 
oracle

>  <origin>  (5) 
autodockgpu

>  <m_score__min__energy>  (5) 
-8.9900000000000002

>  <m_primary>  (5) 
energy

>  <rmsd>  (5) 
8.627300580509075

>  <m_score__min__rmsd>  (5) 
8.627300580509075

>  <meeko>  (5) 
{"free_energy": -7.84, "intermolecular_energy": -9.93, "internal_energy": -1.74, "cluster_size": 20, "cluster_id": 1, "rank_in_cluster": 19}

>  <energy>  (5) 
-8.54

>  <cluster_rmsd>  (5) 
0.99

>  <cluster>  (5) 
1

$$$$

     RDKit          3D

 52 55  0  0  0  0  0  0  0  0999 V2000
  138.7540   72.0300  222.6230 O   0  0  0  0  0  0  0  0  0  0  0  0
  139.9380   71.7190  222.9400 C   0  0  0  0  0  0  0  0  0  0  0  0
  141.0440   71.9200  222.0500 N   0  0  0  0  0  0  0  0  0  0  0  0
  140.7350   72.5030  220.7590 C   0  0  0  0  0  0  0  0  0  0  0  0
  141.8250   73.3820  220.2790 C   0  0  0  0  0  0  0  0  0  0  0  0
  142.8070   72.8680  219.6960 O   0  0  0  0  0  0  0  0  0  0  0  0
  141.6870   74.7790  220.5110 N   0  0  0  0  0  0  0  0  0  0  0  0
  142.4630   75.8780  219.9500 C   0  0  0  0  0  0  0  0  0  0  0  0
  141.5900   77.1000  220.1470 C   0  0  0  0  0  0  0  0  0  0  0  0
  140.2920   76.5920  220.7180 C   0  0  2  0  0  0  0  0  0  0  0  0
  139.8290   77.5690  221.6230 O   0  0  0  0  0  0  0  0  0  0  0  0
  140.6850   77.4960  222.7200 C   0  0  0  0  0  0  0  0  0  0  0  0
  141.2230   78.8250  223.0970 C   0  0  0  0  0  0  0  0  0  0  0  0
  142.5720   79.0720  223.0710 C   0  0  0  0  0  0  0  0  0  0  0  0
  143.0630   80.3260  223.4270 C   0  0  0  0  0  0  0  0  0  0  0  0
  142.1970   81.3510  223.8140 C   0  0  0  0  0  0  0  0  0  0  0  0
  140.8590   81.1020  223.8380 C   0  0  0  0  0  0  0  0  0  0  0  0
  140.3930   79.8590  223.4830 C   0  0  0  0  0  0  0  0  0  0  0  0
  140.6830   75.3270  221.4040 C   0  0  0  0  0  0  0  0  0  0  0  0
  140.2180   71.1350  224.2470 C   0  0  0  0  0  0  0  0  0  0  0  0
  140.7510   71.9130  225.2590 C   0  0  0  0  0  0  0  0  0  0  0  0
  141.0350   71.4000  226.5180 C   0  0  0  0  0  0  0  0  0  0  0  0
  140.7780   70.0610  226.7800 C   0  0  0  0  0  0  0  0  0  0  0  0
  141.0410   69.4930  228.0200 C   0  0  0  0  0  0  0  0  0  0  0  0
  140.7680   68.1460  228.2350 C   0  0  0  0  0  0  0  0  0  0  0  0
  141.0220   67.5890  229.4400 F   0  0  0  0  0  0  0  0  0  0  0  0
  140.2340   67.3880  227.2030 C   0  0  0  0  0  0  0  0  0  0  0  0
  139.9800   67.9730  225.9760 C   0  0  0  0  0  0  0  0  0  0  0  0
  140.2450   69.3050  225.7480 C   0  0  0  0  0  0  0  0  0  0  0  0
  139.9860   69.8430  224.5440 N   0  0  0  0  0  0  0  0  0  0  0  0
  142.0170   71.6550  222.3320 H   0  0  0  0  0  0  0  0  0  0  0  0
  140.5828   71.6936  220.0298 H   0  0  0  0  0  0  0  0  0  0  0  0
  139.8259   73.1128  220.8674 H   0  0  0  0  0  0  0  0  0  0  0  0
  143.4176   75.9922  220.4845 H   0  0  0  0  0  0  0  0  0  0  0  0
  142.7175   75.7126  218.8927 H   0  0  0  0  0  0  0  0  0  0  0  0
  142.0669   77.8023  220.8465 H   0  0  0  0  0  0  0  0  0  0  0  0
  141.4317   77.6400  219.2018 H   0  0  0  0  0  0  0  0  0  0  0  0
  139.4893   76.4085  219.9886 H   0  0  0  0  0  0  0  0  0  0  0  0
  140.1309   77.0820  223.5753 H   0  0  0  0  0  0  0  0  0  0  0  0
  141.5338   76.8525  222.4451 H   0  0  0  0  0  0  0  0  0  0  0  0
  143.2688   78.2767  222.7678 H   0  0  0  0  0  0  0  0  0  0  0  0
  144.1470   80.5113  223.4030 H   0  0  0  0  0  0  0  0  0  0  0  0
  142.5885   82.3401  224.0939 H   0  0  0  0  0  0  0  0  0  0  0  0
  140.1548   81.8913  224.1398 H   0  0  0  0  0  0  0  0  0  0  0  0
  139.3081   79.6792  223.5074 H   0  0  0  0  0  0  0  0  0  0  0  0
  141.1051   75.5294  222.3994 H   0  0  0  0  0  0  0  0  0  0  0  0
  139.8372   74.6464  221.5813 H   0  0  0  0  0  0  0  0  0  0  0  0
  140.9571   72.9750  225.0596 H   0  0  0  0  0  0  0  0  0  0  0  0
  141.4591   72.0478  227.2994 H   0  0  0  0  0  0  0  0  0  0  0  0
  141.4638   70.1063  228.8294 H   0  0  0  0  0  0  0  0  0  0  0  0
  140.0127   66.3221  227.3607 H   0  0  0  0  0  0  0  0  0  0  0  0
  139.5574   67.3616  225.1651 H   0  0  0  0  0  0  0  0  0  0  0  0
  1  2  2  0
  2  3  1  0
  3  4  1  0
  4  5  1  0
  5  6  2  0
  5  7  1  0
  7  8  1  0
  8  9  1  0
  9 10  1  0
 10 11  1  0
 11 12  1  0
 12 13  1  0
 13 14  2  0
 14 15  1  0
 15 16  2  0
 16 17  1  0
 17 18  2  0
 10 19  1  0
  2 20  1  0
 20 21  2  0
 21 22  1  0
 22 23  2  0
 23 24  1  0
 24 25  2  0
 25 26  1  0
 25 27  1  0
 27 28  2  0
 28 29  1  0
 29 30  2  0
 19  7  1  0
 30 20  1  0
 18 13  1  0
 29 23  1  0
  3 31  1  0
  4 32  1  0
  4 33  1  0
  8 34  1  0
  8 35  1  0
  9 36  1  0
  9 37  1  0
 10 38  1  6
 12 39  1  0
 12 40  1  0
 14 41  1  0
 15 42  1  0
 16 43  1  0
 17 44  1  0
 18 45  1  0
 19 46  1  0
 19 47  1  0
 21 48  1  0
 22 49  1  0
 24 50  1  0
 27 51  1  0
 28 52  1  0
M  END
>  <smiles>  (6) 
O=C(NCC(=O)N1CC[C@H](OCc2ccccc2)C1)c1ccc2cc(F)ccc2n1

>  <score_type>  (6) 
oracle

>  <origin>  (6) 
autodockgpu

>  <m_score__min__energy>  (6) 
-8.9900000000000002

>  <m_primary>  (6) 
energy

>  <rmsd>  (6) 
3.1705633391613475

>  <m_score__min__rmsd>  (6) 
3.1705633391613475

>  <meeko>  (6) 
{"free_energy": -8.04, "intermolecular_energy": -10.13, "internal_energy": -1.29, "cluster_size": 14, "cluster_id": 3, "rank_in_cluster": 12}

>  <energy>  (6) 
-8.53

>  <cluster_rmsd>  (6) 
1.32

>  <cluster>  (6) 
1

$$$$

     RDKit          3D

 52 55  0  0  0  0  0  0  0  0999 V2000
  141.0830   73.7190  220.2280 O   0  0  0  0  0  0  0  0  0  0  0  0
  140.6810   74.4020  221.2130 C   0  0  0  0  0  0  0  0  0  0  0  0
  139.8810   73.8350  222.2590 N   0  0  0  0  0  0  0  0  0  0  0  0
  139.5550   72.4270  222.1310 C   0  0  0  0  0  0  0  0  0  0  0  0
  138.1080   72.1800  222.3240 C   0  0  0  0  0  0  0  0  0  0  0  0
  137.2830   72.9270  221.7500 O   0  0  0  0  0  0  0  0  0  0  0  0
  137.7380   71.0910  223.1610 N   0  0  0  0  0  0  0  0  0  0  0  0
  136.5710   70.2220  223.0650 C   0  0  0  0  0  0  0  0  0  0  0  0
  136.9440   68.9940  223.8680 C   0  0  0  0  0  0  0  0  0  0  0  0
  138.3770   69.1930  224.2870 C   0  0  2  0  0  0  0  0  0  0  0  0
  138.5140   68.6300  225.5730 O   0  0  0  0  0  0  0  0  0  0  0  0
  139.8830   68.6190  225.8320 C   0  0  0  0  0  0  0  0  0  0  0  0
  140.3360   69.8690  226.4870 C   0  0  0  0  0  0  0  0  0  0  0  0
  139.8920   70.2100  227.7390 C   0  0  0  0  0  0  0  0  0  0  0  0
  140.3280   71.3880  228.3420 C   0  0  0  0  0  0  0  0  0  0  0  0
  141.2200   72.2400  227.6880 C   0  0  0  0  0  0  0  0  0  0  0  0
  141.6580   71.8970  226.4460 C   0  0  0  0  0  0  0  0  0  0  0  0
  141.2180   70.7320  225.8670 C   0  0  0  0  0  0  0  0  0  0  0  0
  138.5340   70.6770  224.3010 C   0  0  0  0  0  0  0  0  0  0  0  0
  141.0240   75.8160  221.3150 C   0  0  0  0  0  0  0  0  0  0  0  0
  141.8300   76.4080  220.3580 C   0  0  0  0  0  0  0  0  0  0  0  0
  142.1840   77.7490  220.4140 C   0  0  0  0  0  0  0  0  0  0  0  0
  141.7170   78.5330  221.4620 C   0  0  0  0  0  0  0  0  0  0  0  0
  142.0370   79.8790  221.5700 C   0  0  0  0  0  0  0  0  0  0  0  0
  141.5470   80.6230  222.6380 C   0  0  0  0  0  0  0  0  0  0  0  0
  141.8560   81.9350  222.7470 F   0  0  0  0  0  0  0  0  0  0  0  0
  140.7410   80.0050  223.5830 C   0  0  0  0  0  0  0  0  0  0  0  0
  140.4340   78.6630  223.4570 C   0  0  0  0  0  0  0  0  0  0  0  0
  140.9120   77.9130  222.4060 C   0  0  0  0  0  0  0  0  0  0  0  0
  140.5950   76.6110  222.3120 N   0  0  0  0  0  0  0  0  0  0  0  0
  139.5570   74.4180  223.0660 H   0  0  0  0  0  0  0  0  0  0  0  0
  139.8443   72.0840  221.1267 H   0  0  0  0  0  0  0  0  0  0  0  0
  140.1036   71.8760  222.9091 H   0  0  0  0  0  0  0  0  0  0  0  0
  135.6849   70.7125  223.4942 H   0  0  0  0  0  0  0  0  0  0  0  0
  136.3163   69.9783  222.0230 H   0  0  0  0  0  0  0  0  0  0  0  0
  136.2960   68.9039  224.7523 H   0  0  0  0  0  0  0  0  0  0  0  0
  136.8202   68.0736  223.2785 H   0  0  0  0  0  0  0  0  0  0  0  0
  139.1327   68.7258  223.6384 H   0  0  0  0  0  0  0  0  0  0  0  0
  140.1124   67.7694  226.4919 H   0  0  0  0  0  0  0  0  0  0  0  0
  140.4093   68.5304  224.8701 H   0  0  0  0  0  0  0  0  0  0  0  0
  139.1889   69.5509  228.2692 H   0  0  0  0  0  0  0  0  0  0  0  0
  139.9646   71.6502  229.3466 H   0  0  0  0  0  0  0  0  0  0  0  0
  141.5618   73.1695  228.1668 H   0  0  0  0  0  0  0  0  0  0  0  0
  142.3613   72.5499  225.9083 H   0  0  0  0  0  0  0  0  0  0  0  0
  141.5852   70.4743  224.8626 H   0  0  0  0  0  0  0  0  0  0  0  0
  138.1445   71.1086  225.2348 H   0  0  0  0  0  0  0  0  0  0  0  0
  139.5821   71.0063  224.2451 H   0  0  0  0  0  0  0  0  0  0  0  0
  142.2028   75.7947  219.5244 H   0  0  0  0  0  0  0  0  0  0  0  0
  142.8277   78.1866  219.6367 H   0  0  0  0  0  0  0  0  0  0  0  0
  142.6766   80.3562  220.8129 H   0  0  0  0  0  0  0  0  0  0  0  0
  140.3464   80.5825  224.4320 H   0  0  0  0  0  0  0  0  0  0  0  0
  139.7941   78.1841  224.2127 H   0  0  0  0  0  0  0  0  0  0  0  0
  1  2  2  0
  2  3  1  0
  3  4  1  0
  4  5  1  0
  5  6  2  0
  5  7  1  0
  7  8  1  0
  8  9  1  0
  9 10  1  0
 10 11  1  0
 11 12  1  0
 12 13  1  0
 13 14  2  0
 14 15  1  0
 15 16  2  0
 16 17  1  0
 17 18  2  0
 10 19  1  0
  2 20  1  0
 20 21  2  0
 21 22  1  0
 22 23  2  0
 23 24  1  0
 24 25  2  0
 25 26  1  0
 25 27  1  0
 27 28  2  0
 28 29  1  0
 29 30  2  0
 19  7  1  0
 30 20  1  0
 18 13  1  0
 29 23  1  0
  3 31  1  0
  4 32  1  0
  4 33  1  0
  8 34  1  0
  8 35  1  0
  9 36  1  0
  9 37  1  0
 10 38  1  6
 12 39  1  0
 12 40  1  0
 14 41  1  0
 15 42  1  0
 16 43  1  0
 17 44  1  0
 18 45  1  0
 19 46  1  0
 19 47  1  0
 21 48  1  0
 22 49  1  0
 24 50  1  0
 27 51  1  0
 28 52  1  0
M  END
>  <smiles>  (7) 
O=C(NCC(=O)N1CC[C@H](OCc2ccccc2)C1)c1ccc2cc(F)ccc2n1

>  <score_type>  (7) 
oracle

>  <origin>  (7) 
autodockgpu

>  <m_score__min__energy>  (7) 
-8.9900000000000002

>  <m_primary>  (7) 
energy

>  <rmsd>  (7) 
8.681775488326009

>  <m_score__min__rmsd>  (7) 
8.681775488326009

>  <meeko>  (7) 
{"free_energy": -8.43, "intermolecular_energy": -10.52, "internal_energy": -1.36, "cluster_size": 20, "cluster_id": 1, "rank_in_cluster": 8}

>  <energy>  (7) 
-8.43

>  <cluster_rmsd>  (7) 
1.06

>  <cluster>  (7) 
1

$$$$

     RDKit          3D

 52 55  0  0  0  0  0  0  0  0999 V2000
  140.7870   74.0440  221.9370 O   0  0  0  0  0  0  0  0  0  0  0  0
  139.7750   74.8000  221.9710 C   0  0  0  0  0  0  0  0  0  0  0  0
  138.4370   74.2840  221.9630 N   0  0  0  0  0  0  0  0  0  0  0  0
  138.3020   72.8410  221.9140 C   0  0  0  0  0  0  0  0  0  0  0  0
  137.0720   72.3820  222.5970 C   0  0  0  0  0  0  0  0  0  0  0  0
  136.1020   73.1680  222.6940 O   0  0  0  0  0  0  0  0  0  0  0  0
  137.0660   71.0550  223.1100 N   0  0  0  0  0  0  0  0  0  0  0  0
  136.3330   69.8920  222.6240 C   0  0  0  0  0  0  0  0  0  0  0  0
  137.0670   68.7050  223.2120 C   0  0  0  0  0  0  0  0  0  0  0  0
  138.2700   69.2730  223.9200 C   0  0  2  0  0  0  0  0  0  0  0  0
  138.4870   68.4790  225.0650 O   0  0  0  0  0  0  0  0  0  0  0  0
  139.8540   68.5630  225.3230 C   0  0  0  0  0  0  0  0  0  0  0  0
  140.1870   69.7180  226.1900 C   0  0  0  0  0  0  0  0  0  0  0  0
  140.9650   70.7480  225.7240 C   0  0  0  0  0  0  0  0  0  0  0  0
  141.2690   71.8270  226.5500 C   0  0  0  0  0  0  0  0  0  0  0  0
  140.7920   71.8820  227.8610 C   0  0  0  0  0  0  0  0  0  0  0  0
  140.0210   70.8590  228.3190 C   0  0  0  0  0  0  0  0  0  0  0  0
  139.7310   69.8030  227.4900 C   0  0  0  0  0  0  0  0  0  0  0  0
  137.8480   70.6610  224.2670 C   0  0  0  0  0  0  0  0  0  0  0  0
  139.9420   76.2480  222.0200 C   0  0  0  0  0  0  0  0  0  0  0  0
  139.0280   77.0760  221.3930 C   0  0  0  0  0  0  0  0  0  0  0  0
  139.1460   78.4600  221.4120 C   0  0  0  0  0  0  0  0  0  0  0  0
  140.2140   79.0420  222.0830 C   0  0  0  0  0  0  0  0  0  0  0  0
  140.3830   80.4190  222.1360 C   0  0  0  0  0  0  0  0  0  0  0  0
  141.4700   80.9560  222.8190 C   0  0  0  0  0  0  0  0  0  0  0  0
  141.6390   82.2960  222.8730 F   0  0  0  0  0  0  0  0  0  0  0  0
  142.3710   80.1030  223.4390 C   0  0  0  0  0  0  0  0  0  0  0  0
  142.1840   78.7340  223.3740 C   0  0  0  0  0  0  0  0  0  0  0  0
  141.1140   78.1880  222.7010 C   0  0  0  0  0  0  0  0  0  0  0  0
  140.9610   76.8540  222.6570 N   0  0  0  0  0  0  0  0  0  0  0  0
  137.6120   74.9280  221.9910 H   0  0  0  0  0  0  0  0  0  0  0  0
  138.2655   72.5221  220.8619 H   0  0  0  0  0  0  0  0  0  0  0  0
  139.1663   72.3984  222.4308 H   0  0  0  0  0  0  0  0  0  0  0  0
  135.2904   69.9160  222.9738 H   0  0  0  0  0  0  0  0  0  0  0  0
  136.2912   69.8543  221.5254 H   0  0  0  0  0  0  0  0  0  0  0  0
  136.4212   68.1701  223.9239 H   0  0  0  0  0  0  0  0  0  0  0  0
  137.3591   67.9847  222.4337 H   0  0  0  0  0  0  0  0  0  0  0  0
  139.2049   69.2825  223.3405 H   0  0  0  0  0  0  0  0  0  0  0  0
  140.1781   67.6386  225.8234 H   0  0  0  0  0  0  0  0  0  0  0  0
  140.3726   68.6994  224.3625 H   0  0  0  0  0  0  0  0  0  0  0  0
  141.3500   70.7211  224.6939 H   0  0  0  0  0  0  0  0  0  0  0  0
  141.8931   72.6467  226.1646 H   0  0  0  0  0  0  0  0  0  0  0  0
  141.0348   72.7357  228.5108 H   0  0  0  0  0  0  0  0  0  0  0  0
  139.6319   70.8775  229.3477 H   0  0  0  0  0  0  0  0  0  0  0  0
  139.1059   68.9865  227.8805 H   0  0  0  0  0  0  0  0  0  0  0  0
  137.2369   70.6729  225.1816 H   0  0  0  0  0  0  0  0  0  0  0  0
  138.6922   71.3353  224.4736 H   0  0  0  0  0  0  0  0  0  0  0  0
  138.1785   76.6227  220.8611 H   0  0  0  0  0  0  0  0  0  0  0  0
  138.4016   79.0884  220.9011 H   0  0  0  0  0  0  0  0  0  0  0  0
  139.6601   81.0832  221.6398 H   0  0  0  0  0  0  0  0  0  0  0  0
  143.2341   80.5151  223.9823 H   0  0  0  0  0  0  0  0  0  0  0  0
  142.9050   78.0677  223.8702 H   0  0  0  0  0  0  0  0  0  0  0  0
  1  2  2  0
  2  3  1  0
  3  4  1  0
  4  5  1  0
  5  6  2  0
  5  7  1  0
  7  8  1  0
  8  9  1  0
  9 10  1  0
 10 11  1  0
 11 12  1  0
 12 13  1  0
 13 14  2  0
 14 15  1  0
 15 16  2  0
 16 17  1  0
 17 18  2  0
 10 19  1  0
  2 20  1  0
 20 21  2  0
 21 22  1  0
 22 23  2  0
 23 24  1  0
 24 25  2  0
 25 26  1  0
 25 27  1  0
 27 28  2  0
 28 29  1  0
 29 30  2  0
 19  7  1  0
 30 20  1  0
 18 13  1  0
 29 23  1  0
  3 31  1  0
  4 32  1  0
  4 33  1  0
  8 34  1  0
  8 35  1  0
  9 36  1  0
  9 37  1  0
 10 38  1  6
 12 39  1  0
 12 40  1  0
 14 41  1  0
 15 42  1  0
 16 43  1  0
 17 44  1  0
 18 45  1  0
 19 46  1  0
 19 47  1  0
 21 48  1  0
 22 49  1  0
 24 50  1  0
 27 51  1  0
 28 52  1  0
M  END
>  <smiles>  (8) 
O=C(NCC(=O)N1CC[C@H](OCc2ccccc2)C1)c1ccc2cc(F)ccc2n1

>  <score_type>  (8) 
oracle

>  <origin>  (8) 
autodockgpu

>  <m_score__min__energy>  (8) 
-8.9900000000000002

>  <m_primary>  (8) 
energy

>  <rmsd>  (8) 
8.713873127137994

>  <m_score__min__rmsd>  (8) 
8.713873127137994

>  <meeko>  (8) 
{"free_energy": -8.15, "intermolecular_energy": -10.24, "internal_energy": -1.53, "cluster_size": 20, "cluster_id": 1, "rank_in_cluster": 13}

>  <energy>  (8) 
-8.43

>  <cluster_rmsd>  (8) 
1.27

>  <cluster>  (8) 
1

$$$$

     RDKit          3D

 52 55  0  0  0  0  0  0  0  0999 V2000
  140.6050   73.9120  221.9840 O   0  0  0  0  0  0  0  0  0  0  0  0
  139.5640   74.6160  222.1180 C   0  0  0  0  0  0  0  0  0  0  0  0
  138.2480   74.0460  222.0850 N   0  0  0  0  0  0  0  0  0  0  0  0
  138.1720   72.6110  221.8900 C   0  0  0  0  0  0  0  0  0  0  0  0
  136.8720   72.0640  222.3430 C   0  0  0  0  0  0  0  0  0  0  0  0
  135.8220   72.4550  221.7840 O   0  0  0  0  0  0  0  0  0  0  0  0
  136.8960   71.1140  223.4010 N   0  0  0  0  0  0  0  0  0  0  0  0
  135.7870   70.6150  224.2050 C   0  0  0  0  0  0  0  0  0  0  0  0
  136.3000   69.3190  224.7980 C   0  0  0  0  0  0  0  0  0  0  0  0
  137.6600   69.0960  224.1910 C   0  0  2  0  0  0  0  0  0  0  0  0
  138.4630   68.4980  225.1840 O   0  0  0  0  0  0  0  0  0  0  0  0
  139.7430   69.0130  224.9900 C   0  0  0  0  0  0  0  0  0  0  0  0
  140.1340   69.9560  226.0640 C   0  0  0  0  0  0  0  0  0  0  0  0
  139.6760   69.7930  227.3460 C   0  0  0  0  0  0  0  0  0  0  0  0
  140.0520   70.6870  228.3460 C   0  0  0  0  0  0  0  0  0  0  0  0
  140.8990   71.7610  228.0640 C   0  0  0  0  0  0  0  0  0  0  0  0
  141.3510   71.9190  226.7900 C   0  0  0  0  0  0  0  0  0  0  0  0
  140.9690   71.0270  225.8180 C   0  0  0  0  0  0  0  0  0  0  0  0
  138.1200   70.4730  223.8470 C   0  0  0  0  0  0  0  0  0  0  0  0
  139.6710   76.0570  222.3120 C   0  0  0  0  0  0  0  0  0  0  0  0
  138.5330   76.8260  222.4760 C   0  0  0  0  0  0  0  0  0  0  0  0
  138.5860   78.2010  222.6630 C   0  0  0  0  0  0  0  0  0  0  0  0
  139.8220   78.8350  222.6890 C   0  0  0  0  0  0  0  0  0  0  0  0
  139.9370   80.2070  222.8740 C   0  0  0  0  0  0  0  0  0  0  0  0
  141.1960   80.7990  222.8910 C   0  0  0  0  0  0  0  0  0  0  0  0
  141.3130   82.1330  223.0710 F   0  0  0  0  0  0  0  0  0  0  0  0
  142.3210   80.0050  222.7250 C   0  0  0  0  0  0  0  0  0  0  0  0
  142.1840   78.6410  222.5430 C   0  0  0  0  0  0  0  0  0  0  0  0
  140.9450   78.0410  222.5220 C   0  0  0  0  0  0  0  0  0  0  0  0
  140.8460   76.7130  222.3430 N   0  0  0  0  0  0  0  0  0  0  0  0
  137.3980   74.6460  222.1970 H   0  0  0  0  0  0  0  0  0  0  0  0
  138.2984   72.3896  220.8200 H   0  0  0  0  0  0  0  0  0  0  0  0
  138.9679   72.1415  222.4867 H   0  0  0  0  0  0  0  0  0  0  0  0
  135.5300   71.3310  224.9995 H   0  0  0  0  0  0  0  0  0  0  0  0
  134.8726   70.4696  223.6111 H   0  0  0  0  0  0  0  0  0  0  0  0
  136.3787   69.4037  225.8919 H   0  0  0  0  0  0  0  0  0  0  0  0
  135.6205   68.4808  224.5844 H   0  0  0  0  0  0  0  0  0  0  0  0
  137.6856   68.4431  223.3061 H   0  0  0  0  0  0  0  0  0  0  0  0
  140.4611   68.1800  224.9708 H   0  0  0  0  0  0  0  0  0  0  0  0
  139.7452   69.5644  224.0382 H   0  0  0  0  0  0  0  0  0  0  0  0
  139.0085   68.9523  227.5860 H   0  0  0  0  0  0  0  0  0  0  0  0
  139.6771   70.5452  229.3704 H   0  0  0  0  0  0  0  0  0  0  0  0
  141.1949   72.4651  228.8557 H   0  0  0  0  0  0  0  0  0  0  0  0
  142.0187   72.7567  226.5401 H   0  0  0  0  0  0  0  0  0  0  0  0
  141.3464   71.1731  224.7951 H   0  0  0  0  0  0  0  0  0  0  0  0
  138.5376   70.9836  224.7273 H   0  0  0  0  0  0  0  0  0  0  0  0
  138.9223   70.4909  223.0947 H   0  0  0  0  0  0  0  0  0  0  0  0
  137.5510   76.3307  222.4576 H   0  0  0  0  0  0  0  0  0  0  0  0
  137.6602   78.7815  222.7891 H   0  0  0  0  0  0  0  0  0  0  0  0
  139.0356   80.8234  223.0066 H   0  0  0  0  0  0  0  0  0  0  0  0
  143.3223   80.4603  222.7381 H   0  0  0  0  0  0  0  0  0  0  0  0
  143.0840   78.0223  222.4122 H   0  0  0  0  0  0  0  0  0  0  0  0
  1  2  2  0
  2  3  1  0
  3  4  1  0
  4  5  1  0
  5  6  2  0
  5  7  1  0
  7  8  1  0
  8  9  1  0
  9 10  1  0
 10 11  1  0
 11 12  1  0
 12 13  1  0
 13 14  2  0
 14 15  1  0
 15 16  2  0
 16 17  1  0
 17 18  2  0
 10 19  1  0
  2 20  1  0
 20 21  2  0
 21 22  1  0
 22 23  2  0
 23 24  1  0
 24 25  2  0
 25 26  1  0
 25 27  1  0
 27 28  2  0
 28 29  1  0
 29 30  2  0
 19  7  1  0
 30 20  1  0
 18 13  1  0
 29 23  1  0
  3 31  1  0
  4 32  1  0
  4 33  1  0
  8 34  1  0
  8 35  1  0
  9 36  1  0
  9 37  1  0
 10 38  1  6
 12 39  1  0
 12 40  1  0
 14 41  1  0
 15 42  1  0
 16 43  1  0
 17 44  1  0
 18 45  1  0
 19 46  1  0
 19 47  1  0
 21 48  1  0
 22 49  1  0
 24 50  1  0
 27 51  1  0
 28 52  1  0
M  END
>  <smiles>  (9) 
O=C(NCC(=O)N1CC[C@H](OCc2ccccc2)C1)c1ccc2cc(F)ccc2n1

>  <score_type>  (9) 
oracle

>  <origin>  (9) 
autodockgpu

>  <m_score__min__energy>  (9) 
-8.9900000000000002

>  <m_primary>  (9) 
energy

>  <rmsd>  (9) 
8.711895206438417

>  <m_score__min__rmsd>  (9) 
8.711895206438417

>  <meeko>  (9) 
{"free_energy": -8.15, "intermolecular_energy": -10.24, "internal_energy": -1.33, "cluster_size": 20, "cluster_id": 1, "rank_in_cluster": 14}

>  <energy>  (9) 
-8.37

>  <cluster_rmsd>  (9) 
0.84

>  <cluster>  (9) 
1

$$$$

     RDKit          3D

 52 55  0  0  0  0  0  0  0  0999 V2000
  138.6880   71.6730  222.0300 O   0  0  0  0  0  0  0  0  0  0  0  0
  139.8660   71.5180  222.4630 C   0  0  0  0  0  0  0  0  0  0  0  0
  141.0180   71.7720  221.6470 N   0  0  0  0  0  0  0  0  0  0  0  0
  140.7630   72.2180  220.2910 C   0  0  0  0  0  0  0  0  0  0  0  0
  141.4390   73.5030  220.0010 C   0  0  0  0  0  0  0  0  0  0  0  0
  142.5970   73.4860  219.5260 O   0  0  0  0  0  0  0  0  0  0  0  0
  140.7190   74.6980  220.2820 N   0  0  0  0  0  0  0  0  0  0  0  0
  139.5920   75.2760  219.5600 C   0  0  0  0  0  0  0  0  0  0  0  0
  138.9480   76.2210  220.5520 C   0  0  0  0  0  0  0  0  0  0  0  0
  139.6960   76.0350  221.8460 C   0  0  2  0  0  0  0  0  0  0  0  0
  139.7580   77.2960  222.4730 O   0  0  0  0  0  0  0  0  0  0  0  0
  141.1050   77.5070  222.7570 C   0  0  0  0  0  0  0  0  0  0  0  0
  141.4000   78.9320  223.0380 C   0  0  0  0  0  0  0  0  0  0  0  0
  142.6910   79.3940  223.0590 C   0  0  0  0  0  0  0  0  0  0  0  0
  142.9530   80.7360  223.3250 C   0  0  0  0  0  0  0  0  0  0  0  0
  141.9110   81.6330  223.5720 C   0  0  0  0  0  0  0  0  0  0  0  0
  140.6320   81.1710  223.5500 C   0  0  0  0  0  0  0  0  0  0  0  0
  140.3930   79.8440  223.2860 C   0  0  0  0  0  0  0  0  0  0  0  0
  141.0390   75.5560  221.4080 C   0  0  0  0  0  0  0  0  0  0  0  0
  140.0920   71.0670  223.8310 C   0  0  0  0  0  0  0  0  0  0  0  0
  140.7240   71.8950  224.7420 C   0  0  0  0  0  0  0  0  0  0  0  0
  140.9610   71.5090  226.0550 C   0  0  0  0  0  0  0  0  0  0  0  0
  140.5520   70.2500  226.4780 C   0  0  0  0  0  0  0  0  0  0  0  0
  140.7620   69.8110  227.7780 C   0  0  0  0  0  0  0  0  0  0  0  0
  140.3360   68.5410  228.1550 C   0  0  0  0  0  0  0  0  0  0  0  0
  140.5380   68.1080  229.4200 F   0  0  0  0  0  0  0  0  0  0  0  0
  139.7050   67.7320  227.2220 C   0  0  0  0  0  0  0  0  0  0  0  0
  139.5060   68.1890  225.9320 C   0  0  0  0  0  0  0  0  0  0  0  0
  139.9220   69.4430  225.5440 C   0  0  0  0  0  0  0  0  0  0  0  0
  139.7140   69.8580  224.2830 N   0  0  0  0  0  0  0  0  0  0  0  0
  141.9850   71.6360  222.0240 H   0  0  0  0  0  0  0  0  0  0  0  0
  141.1315   71.4550  219.5895 H   0  0  0  0  0  0  0  0  0  0  0  0
  139.6791   72.3673  220.1772 H   0  0  0  0  0  0  0  0  0  0  0  0
  139.9395   75.8234  218.6714 H   0  0  0  0  0  0  0  0  0  0  0  0
  138.8909   74.5096  219.1979 H   0  0  0  0  0  0  0  0  0  0  0  0
  139.0384   77.2606  220.2040 H   0  0  0  0  0  0  0  0  0  0  0  0
  137.8751   76.0101  220.6722 H   0  0  0  0  0  0  0  0  0  0  0  0
  139.2440   75.3315  222.5607 H   0  0  0  0  0  0  0  0  0  0  0  0
  141.3797   76.9078  223.6376 H   0  0  0  0  0  0  0  0  0  0  0  0
  141.6878   77.2088  221.8730 H   0  0  0  0  0  0  0  0  0  0  0  0
  143.5235   78.7017  222.8649 H   0  0  0  0  0  0  0  0  0  0  0  0
  143.9931   81.0938  223.3407 H   0  0  0  0  0  0  0  0  0  0  0  0
  142.1209   82.6925  223.7803 H   0  0  0  0  0  0  0  0  0  0  0  0
  139.7933   81.8562  223.7426 H   0  0  0  0  0  0  0  0  0  0  0  0
  139.3511   79.4916  223.2715 H   0  0  0  0  0  0  0  0  0  0  0  0
  141.6782   76.3958  221.0979 H   0  0  0  0  0  0  0  0  0  0  0  0
  141.6004   75.0428  222.2027 H   0  0  0  0  0  0  0  0  0  0  0  0
  141.0500   72.8934  224.4150 H   0  0  0  0  0  0  0  0  0  0  0  0
  141.4670   72.1926  226.7526 H   0  0  0  0  0  0  0  0  0  0  0  0
  141.2632   70.4644  228.5073 H   0  0  0  0  0  0  0  0  0  0  0  0
  139.3627   66.7265  227.5081 H   0  0  0  0  0  0  0  0  0  0  0  0
  139.0051   67.5374  225.2009 H   0  0  0  0  0  0  0  0  0  0  0  0
  1  2  2  0
  2  3  1  0
  3  4  1  0
  4  5  1  0
  5  6  2  0
  5  7  1  0
  7  8  1  0
  8  9  1  0
  9 10  1  0
 10 11  1  0
 11 12  1  0
 12 13  1  0
 13 14  2  0
 14 15  1  0
 15 16  2  0
 16 17  1  0
 17 18  2  0
 10 19  1  0
  2 20  1  0
 20 21  2  0
 21 22  1  0
 22 23  2  0
 23 24  1  0
 24 25  2  0
 25 26  1  0
 25 27  1  0
 27 28  2  0
 28 29  1  0
 29 30  2  0
 19  7  1  0
 30 20  1  0
 18 13  1  0
 29 23  1  0
  3 31  1  0
  4 32  1  0
  4 33  1  0
  8 34  1  0
  8 35  1  0
  9 36  1  0
  9 37  1  0
 10 38  1  1
 12 39  1  0
 12 40  1  0
 14 41  1  0
 15 42  1  0
 16 43  1  0
 17 44  1  0
 18 45  1  0
 19 46  1  0
 19 47  1  0
 21 48  1  0
 22 49  1  0
 24 50  1  0
 27 51  1  0
 28 52  1  0
M  END
>  <smiles>  (10) 
O=C(NCC(=O)N1CC[C@H](OCc2ccccc2)C1)c1ccc2cc(F)ccc2n1

>  <score_type>  (10) 
oracle

>  <origin>  (10) 
autodockgpu

>  <m_score__min__energy>  (10) 
-8.9900000000000002

>  <m_primary>  (10) 
energy

>  <rmsd>  (10) 
3.383553887804756

>  <m_score__min__rmsd>  (10) 
3.383553887804756

>  <meeko>  (10) 
{"free_energy": -7.59, "intermolecular_energy": -9.68, "internal_energy": -1.3, "cluster_size": 14, "cluster_id": 3, "rank_in_cluster": 14}

>  <energy>  (10) 
-8.34

>  <cluster_rmsd>  (10) 
1.23

>  <cluster>  (10) 
1

$$$$

     RDKit          3D

 52 55  0  0  0  0  0  0  0  0999 V2000
  139.9060   73.5440  222.4260 O   0  0  0  0  0  0  0  0  0  0  0  0
  140.4040   72.3820  222.4370 C   0  0  0  0  0  0  0  0  0  0  0  0
  141.1620   71.8670  221.3330 N   0  0  0  0  0  0  0  0  0  0  0  0
  141.3290   72.7520  220.1970 C   0  0  0  0  0  0  0  0  0  0  0  0
  142.6040   73.5020  220.2680 C   0  0  0  0  0  0  0  0  0  0  0  0
  143.6800   72.8650  220.3360 O   0  0  0  0  0  0  0  0  0  0  0  0
  142.5270   74.9220  220.2530 N   0  0  0  0  0  0  0  0  0  0  0  0
  143.4810   75.8820  219.7110 C   0  0  0  0  0  0  0  0  0  0  0  0
  142.6810   77.1550  219.5320 C   0  0  0  0  0  0  0  0  0  0  0  0
  141.2590   76.8020  219.8840 C   0  0  2  0  0  0  0  0  0  0  0  0
  140.6970   77.9320  220.5140 O   0  0  0  0  0  0  0  0  0  0  0  0
  140.8870   77.7320  221.8790 C   0  0  0  0  0  0  0  0  0  0  0  0
  141.3270   78.9680  222.5690 C   0  0  0  0  0  0  0  0  0  0  0  0
  140.4210   79.7860  223.1950 C   0  0  0  0  0  0  0  0  0  0  0  0
  140.8490   80.9440  223.8390 C   0  0  0  0  0  0  0  0  0  0  0  0
  142.2000   81.2940  223.8610 C   0  0  0  0  0  0  0  0  0  0  0  0
  143.0950   80.4800  223.2380 C   0  0  0  0  0  0  0  0  0  0  0  0
  142.6550   79.3410  222.6080 C   0  0  0  0  0  0  0  0  0  0  0  0
  141.4070   75.6500  220.8200 C   0  0  0  0  0  0  0  0  0  0  0  0
  140.2200   71.5140  223.5940 C   0  0  0  0  0  0  0  0  0  0  0  0
  139.5630   70.3040  223.4600 C   0  0  0  0  0  0  0  0  0  0  0  0
  139.3630   69.4460  224.5340 C   0  0  0  0  0  0  0  0  0  0  0  0
  139.8370   69.8060  225.7890 C   0  0  0  0  0  0  0  0  0  0  0  0
  139.6670   68.9880  226.8980 C   0  0  0  0  0  0  0  0  0  0  0  0
  140.1570   69.3920  228.1360 C   0  0  0  0  0  0  0  0  0  0  0  0
  139.9940   68.5990  229.2190 F   0  0  0  0  0  0  0  0  0  0  0  0
  140.8120   70.6090  228.2430 C   0  0  0  0  0  0  0  0  0  0  0  0
  140.9710   71.4090  227.1250 C   0  0  0  0  0  0  0  0  0  0  0  0
  140.4900   71.0240  225.8940 C   0  0  0  0  0  0  0  0  0  0  0  0
  140.6610   71.8230  224.8270 N   0  0  0  0  0  0  0  0  0  0  0  0
  141.5660   70.9020  221.3620 H   0  0  0  0  0  0  0  0  0  0  0  0
  141.3189   72.1531  219.2744 H   0  0  0  0  0  0  0  0  0  0  0  0
  140.5034   73.4789  220.2051 H   0  0  0  0  0  0  0  0  0  0  0  0
  144.3129   76.0415  220.4128 H   0  0  0  0  0  0  0  0  0  0  0  0
  143.9316   75.5363  218.7690 H   0  0  0  0  0  0  0  0  0  0  0  0
  143.0575   77.9411  220.2031 H   0  0  0  0  0  0  0  0  0  0  0  0
  142.7591   77.5400  218.5045 H   0  0  0  0  0  0  0  0  0  0  0  0
  140.6094   76.5368  219.0368 H   0  0  0  0  0  0  0  0  0  0  0  0
  139.9384   77.3964  222.3235 H   0  0  0  0  0  0  0  0  0  0  0  0
  141.6763   76.9760  222.0034 H   0  0  0  0  0  0  0  0  0  0  0  0
  139.3522   79.5261  223.1882 H   0  0  0  0  0  0  0  0  0  0  0  0
  140.1125   81.5917  224.3371 H   0  0  0  0  0  0  0  0  0  0  0  0
  142.5344   82.2092  224.3715 H   0  0  0  0  0  0  0  0  0  0  0  0
  144.1656   80.7327  223.2388 H   0  0  0  0  0  0  0  0  0  0  0  0
  143.3956   78.6966  222.1117 H   0  0  0  0  0  0  0  0  0  0  0  0
  141.6328   75.9939  221.8402 H   0  0  0  0  0  0  0  0  0  0  0  0
  140.4942   75.0435  220.9144 H   0  0  0  0  0  0  0  0  0  0  0  0
  139.1860   70.0112  222.4690 H   0  0  0  0  0  0  0  0  0  0  0  0
  138.8349   68.4916  224.3921 H   0  0  0  0  0  0  0  0  0  0  0  0
  139.1468   68.0239  226.7982 H   0  0  0  0  0  0  0  0  0  0  0  0
  141.2052   70.9387  229.2160 H   0  0  0  0  0  0  0  0  0  0  0  0
  141.4926   72.3726  227.2221 H   0  0  0  0  0  0  0  0  0  0  0  0
  1  2  2  0
  2  3  1  0
  3  4  1  0
  4  5  1  0
  5  6  2  0
  5  7  1  0
  7  8  1  0
  8  9  1  0
  9 10  1  0
 10 11  1  0
 11 12  1  0
 12 13  1  0
 13 14  2  0
 14 15  1  0
 15 16  2  0
 16 17  1  0
 17 18  2  0
 10 19  1  0
  2 20  1  0
 20 21  2  0
 21 22  1  0
 22 23  2  0
 23 24  1  0
 24 25  2  0
 25 26  1  0
 25 27  1  0
 27 28  2  0
 28 29  1  0
 29 30  2  0
 19  7  1  0
 30 20  1  0
 18 13  1  0
 29 23  1  0
  3 31  1  0
  4 32  1  0
  4 33  1  0
  8 34  1  0
  8 35  1  0
  9 36  1  0
  9 37  1  0
 10 38  1  6
 12 39  1  0
 12 40  1  0
 14 41  1  0
 15 42  1  0
 16 43  1  0
 17 44  1  0
 18 45  1  0
 19 46  1  0
 19 47  1  0
 21 48  1  0
 22 49  1  0
 24 50  1  0
 27 51  1  0
 28 52  1  0
M  END
>  <smiles>  (11) 
O=C(NCC(=O)N1CC[C@H](OCc2ccccc2)C1)c1ccc2cc(F)ccc2n1

>  <score_type>  (11) 
oracle

>  <origin>  (11) 
autodockgpu

>  <m_score__min__energy>  (11) 
-8.9900000000000002

>  <m_primary>  (11) 
energy

>  <rmsd>  (11) 
2.394904288526387

>  <m_score__min__rmsd>  (11) 
2.394904288526387

>  <meeko>  (11) 
{"free_energy": -8.85, "intermolecular_energy": -10.93, "internal_energy": -1.36, "cluster_size": 14, "cluster_id": 3, "rank_in_cluster": 1}

>  <energy>  (11) 
-8.34

>  <cluster_rmsd>  (11) 
0.99

>  <cluster>  (11) 
1

$$$$

     RDKit          3D

 52 55  0  0  0  0  0  0  0  0999 V2000
  139.9120   73.6700  222.6290 O   0  0  0  0  0  0  0  0  0  0  0  0
  140.3430   72.4860  222.5250 C   0  0  0  0  0  0  0  0  0  0  0  0
  140.9610   72.0010  221.3260 N   0  0  0  0  0  0  0  0  0  0  0  0
  141.0690   72.9440  220.2290 C   0  0  0  0  0  0  0  0  0  0  0  0
  142.0510   74.0140  220.5200 C   0  0  0  0  0  0  0  0  0  0  0  0
  141.6560   75.0670  221.0700 O   0  0  0  0  0  0  0  0  0  0  0  0
  143.4040   73.7750  220.1510 N   0  0  0  0  0  0  0  0  0  0  0  0
  144.5890   74.5630  220.4670 C   0  0  0  0  0  0  0  0  0  0  0  0
  145.7470   73.6110  220.2570 C   0  0  0  0  0  0  0  0  0  0  0  0
  145.1300   72.2740  219.9360 C   0  0  2  0  0  0  0  0  0  0  0  0
  145.9750   71.6450  218.9990 O   0  0  0  0  0  0  0  0  0  0  0  0
  145.1400   70.8430  218.2230 C   0  0  0  0  0  0  0  0  0  0  0  0
  145.4470   69.4020  218.3810 C   0  0  0  0  0  0  0  0  0  0  0  0
  146.0410   68.6930  217.3680 C   0  0  0  0  0  0  0  0  0  0  0  0
  146.3240   67.3390  217.5310 C   0  0  0  0  0  0  0  0  0  0  0  0
  146.0110   66.6800  218.7220 C   0  0  0  0  0  0  0  0  0  0  0  0
  145.4220   67.3870  219.7240 C   0  0  0  0  0  0  0  0  0  0  0  0
  145.1500   68.7220  219.5450 C   0  0  0  0  0  0  0  0  0  0  0  0
  143.8060   72.6320  219.3510 C   0  0  0  0  0  0  0  0  0  0  0  0
  140.2210   71.5590  223.6450 C   0  0  0  0  0  0  0  0  0  0  0  0
  139.6240   70.3240  223.4660 C   0  0  0  0  0  0  0  0  0  0  0  0
  139.4860   69.4100  224.5030 C   0  0  0  0  0  0  0  0  0  0  0  0
  139.9600   69.7380  225.7660 C   0  0  0  0  0  0  0  0  0  0  0  0
  139.8500   68.8650  226.8400 C   0  0  0  0  0  0  0  0  0  0  0  0
  140.3390   69.2380  228.0880 C   0  0  0  0  0  0  0  0  0  0  0  0
  140.2330   68.3910  229.1360 F   0  0  0  0  0  0  0  0  0  0  0  0
  140.9330   70.4820  228.2400 C   0  0  0  0  0  0  0  0  0  0  0  0
  141.0330   71.3370  227.1570 C   0  0  0  0  0  0  0  0  0  0  0  0
  140.5530   70.9820  225.9170 C   0  0  0  0  0  0  0  0  0  0  0  0
  140.6660   71.8360  224.8850 N   0  0  0  0  0  0  0  0  0  0  0  0
  141.3110   71.0170  221.2600 H   0  0  0  0  0  0  0  0  0  0  0  0
  141.3876   72.4041  219.3251 H   0  0  0  0  0  0  0  0  0  0  0  0
  140.0848   73.4129  220.0822 H   0  0  0  0  0  0  0  0  0  0  0  0
  144.6708   75.4287  219.7933 H   0  0  0  0  0  0  0  0  0  0  0  0
  144.5610   74.9671  221.4897 H   0  0  0  0  0  0  0  0  0  0  0  0
  146.3763   73.9524  219.4218 H   0  0  0  0  0  0  0  0  0  0  0  0
  146.3905   73.5554  221.1474 H   0  0  0  0  0  0  0  0  0  0  0  0
  145.0082   71.5874  220.7868 H   0  0  0  0  0  0  0  0  0  0  0  0
  144.0973   71.0188  218.5261 H   0  0  0  0  0  0  0  0  0  0  0  0
  145.2991   71.1096  217.1677 H   0  0  0  0  0  0  0  0  0  0  0  0
  146.2948   69.1958  216.4231 H   0  0  0  0  0  0  0  0  0  0  0  0
  146.8002   66.7814  216.7111 H   0  0  0  0  0  0  0  0  0  0  0  0
  146.2362   65.6106  218.8473 H   0  0  0  0  0  0  0  0  0  0  0  0
  145.1649   66.8926  220.6724 H   0  0  0  0  0  0  0  0  0  0  0  0
  144.6732   69.2747  220.3679 H   0  0  0  0  0  0  0  0  0  0  0  0
  143.9016   72.9043  218.2895 H   0  0  0  0  0  0  0  0  0  0  0  0
  143.0803   71.8057  219.3735 H   0  0  0  0  0  0  0  0  0  0  0  0
  139.2456   70.0565  222.4684 H   0  0  0  0  0  0  0  0  0  0  0  0
  139.0060   68.4363  224.3253 H   0  0  0  0  0  0  0  0  0  0  0  0
  139.3775   67.8810  226.7045 H   0  0  0  0  0  0  0  0  0  0  0  0
  141.3244   70.7887  229.2212 H   0  0  0  0  0  0  0  0  0  0  0  0
  141.5061   72.3212  227.2898 H   0  0  0  0  0  0  0  0  0  0  0  0
  1  2  2  0
  2  3  1  0
  3  4  1  0
  4  5  1  0
  5  6  2  0
  5  7  1  0
  7  8  1  0
  8  9  1  0
  9 10  1  0
 10 11  1  0
 11 12  1  0
 12 13  1  0
 13 14  2  0
 14 15  1  0
 15 16  2  0
 16 17  1  0
 17 18  2  0
 10 19  1  0
  2 20  1  0
 20 21  2  0
 21 22  1  0
 22 23  2  0
 23 24  1  0
 24 25  2  0
 25 26  1  0
 25 27  1  0
 27 28  2  0
 28 29  1  0
 29 30  2  0
 19  7  1  0
 30 20  1  0
 18 13  1  0
 29 23  1  0
  3 31  1  0
  4 32  1  0
  4 33  1  0
  8 34  1  0
  8 35  1  0
  9 36  1  0
  9 37  1  0
 10 38  1  1
 12 39  1  0
 12 40  1  0
 14 41  1  0
 15 42  1  0
 16 43  1  0
 17 44  1  0
 18 45  1  0
 19 46  1  0
 19 47  1  0
 21 48  1  0
 22 49  1  0
 24 50  1  0
 27 51  1  0
 28 52  1  0
M  END
>  <smiles>  (12) 
O=C(NCC(=O)N1CC[C@H](OCc2ccccc2)C1)c1ccc2cc(F)ccc2n1

>  <score_type>  (12) 
oracle

>  <origin>  (12) 
autodockgpu

>  <m_score__min__energy>  (12) 
-8.9900000000000002

>  <m_primary>  (12) 
energy

>  <rmsd>  (12) 
3.56554017100022

>  <m_score__min__rmsd>  (12) 
3.56554017100022

>  <meeko>  (12) 
{"free_energy": -8.86, "intermolecular_energy": -10.95, "internal_energy": -1.14, "cluster_size": 2, "cluster_id": 2, "rank_in_cluster": 1}

>  <energy>  (12) 
-8.29

>  <cluster_rmsd>  (12) 
1.27

>  <cluster>  (12) 
1

$$$$

     RDKit          3D

 52 55  0  0  0  0  0  0  0  0999 V2000
  140.9740   73.6960  221.4160 O   0  0  0  0  0  0  0  0  0  0  0  0
  139.9380   74.1970  221.9390 C   0  0  0  0  0  0  0  0  0  0  0  0
  138.7980   73.4000  222.2870 N   0  0  0  0  0  0  0  0  0  0  0  0
  138.8930   71.9800  222.0070 C   0  0  0  0  0  0  0  0  0  0  0  0
  137.7240   71.2380  222.5320 C   0  0  0  0  0  0  0  0  0  0  0  0
  136.5920   71.7710  222.4760 O   0  0  0  0  0  0  0  0  0  0  0  0
  137.9620   69.9450  223.0740 N   0  0  0  0  0  0  0  0  0  0  0  0
  138.1300   68.6780  222.3720 C   0  0  0  0  0  0  0  0  0  0  0  0
  138.8240   67.7780  223.3720 C   0  0  0  0  0  0  0  0  0  0  0  0
  139.1190   68.6410  224.5710 C   0  0  2  0  0  0  0  0  0  0  0  0
  138.9740   67.8260  225.7120 O   0  0  0  0  0  0  0  0  0  0  0  0
  140.1700   67.9550  226.4170 C   0  0  0  0  0  0  0  0  0  0  0  0
  140.4410   69.3610  226.8020 C   0  0  0  0  0  0  0  0  0  0  0  0
  141.2450   70.1600  226.0290 C   0  0  0  0  0  0  0  0  0  0  0  0
  141.4910   71.4790  226.4030 C   0  0  0  0  0  0  0  0  0  0  0  0
  140.9260   72.0110  227.5640 C   0  0  0  0  0  0  0  0  0  0  0  0
  140.1300   71.2150  228.3270 C   0  0  0  0  0  0  0  0  0  0  0  0
  139.8980   69.9160  227.9430 C   0  0  0  0  0  0  0  0  0  0  0  0
  138.0750   69.7050  224.5010 C   0  0  0  0  0  0  0  0  0  0  0  0
  139.8710   75.6290  222.2090 C   0  0  0  0  0  0  0  0  0  0  0  0
  141.0260   76.3890  222.2320 C   0  0  0  0  0  0  0  0  0  0  0  0
  141.0110   77.7540  222.4850 C   0  0  0  0  0  0  0  0  0  0  0  0
  139.7980   78.3880  222.7240 C   0  0  0  0  0  0  0  0  0  0  0  0
  139.7220   79.7500  222.9830 C   0  0  0  0  0  0  0  0  0  0  0  0
  138.4840   80.3400  223.2180 C   0  0  0  0  0  0  0  0  0  0  0  0
  138.4050   81.6660  223.4700 F   0  0  0  0  0  0  0  0  0  0  0  0
  137.3410   79.5560  223.1900 C   0  0  0  0  0  0  0  0  0  0  0  0
  137.4400   78.2010  222.9310 C   0  0  0  0  0  0  0  0  0  0  0  0
  138.6570   77.6020  222.6960 C   0  0  0  0  0  0  0  0  0  0  0  0
  138.7190   76.2830  222.4470 N   0  0  0  0  0  0  0  0  0  0  0  0
  137.9490   73.8340  222.7200 H   0  0  0  0  0  0  0  0  0  0  0  0
  138.9477   71.8344  220.9181 H   0  0  0  0  0  0  0  0  0  0  0  0
  139.7954   71.5927  222.5028 H   0  0  0  0  0  0  0  0  0  0  0  0
  137.1537   68.2602  222.0853 H   0  0  0  0  0  0  0  0  0  0  0  0
  138.7050   68.7894  221.4409 H   0  0  0  0  0  0  0  0  0  0  0  0
  138.1670   66.9423  223.6547 H   0  0  0  0  0  0  0  0  0  0  0  0
  139.7429   67.3424  222.9527 H   0  0  0  0  0  0  0  0  0  0  0  0
  140.1258   69.0828  224.6047 H   0  0  0  0  0  0  0  0  0  0  0  0
  140.1123   67.3423  227.3288 H   0  0  0  0  0  0  0  0  0  0  0  0
  140.9875   67.6193  225.7620 H   0  0  0  0  0  0  0  0  0  0  0  0
  141.6970   69.7575  225.1105 H   0  0  0  0  0  0  0  0  0  0  0  0
  142.1385   72.1095  225.7759 H   0  0  0  0  0  0  0  0  0  0  0  0
  141.1210   73.0536  227.8556 H   0  0  0  0  0  0  0  0  0  0  0  0
  139.6740   71.6090  229.2472 H   0  0  0  0  0  0  0  0  0  0  0  0
  139.2499   69.2900  228.5739 H   0  0  0  0  0  0  0  0  0  0  0  0
  137.1211   69.3535  224.9212 H   0  0  0  0  0  0  0  0  0  0  0  0
  138.3301   70.6066  225.0772 H   0  0  0  0  0  0  0  0  0  0  0  0
  141.9904   75.8948  222.0432 H   0  0  0  0  0  0  0  0  0  0  0  0
  141.9496   78.3275  222.4961 H   0  0  0  0  0  0  0  0  0  0  0  0
  140.6370   80.3602  223.0023 H   0  0  0  0  0  0  0  0  0  0  0  0
  136.3565   80.0110  223.3736 H   0  0  0  0  0  0  0  0  0  0  0  0
  136.5264   77.5886  222.9124 H   0  0  0  0  0  0  0  0  0  0  0  0
  1  2  2  0
  2  3  1  0
  3  4  1  0
  4  5  1  0
  5  6  2  0
  5  7  1  0
  7  8  1  0
  8  9  1  0
  9 10  1  0
 10 11  1  0
 11 12  1  0
 12 13  1  0
 13 14  2  0
 14 15  1  0
 15 16  2  0
 16 17  1  0
 17 18  2  0
 10 19  1  0
  2 20  1  0
 20 21  2  0
 21 22  1  0
 22 23  2  0
 23 24  1  0
 24 25  2  0
 25 26  1  0
 25 27  1  0
 27 28  2  0
 28 29  1  0
 29 30  2  0
 19  7  1  0
 30 20  1  0
 18 13  1  0
 29 23  1  0
  3 31  1  0
  4 32  1  0
  4 33  1  0
  8 34  1  0
  8 35  1  0
  9 36  1  0
  9 37  1  0
 10 38  1  6
 12 39  1  0
 12 40  1  0
 14 41  1  0
 15 42  1  0
 16 43  1  0
 17 44  1  0
 18 45  1  0
 19 46  1  0
 19 47  1  0
 21 48  1  0
 22 49  1  0
 24 50  1  0
 27 51  1  0
 28 52  1  0
M  END
>  <smiles>  (13) 
O=C(NCC(=O)N1CC[C@H](OCc2ccccc2)C1)c1ccc2cc(F)ccc2n1

>  <score_type>  (13) 
oracle

>  <origin>  (13) 
autodockgpu

>  <m_score__min__energy>  (13) 
-8.9900000000000002

>  <m_primary>  (13) 
energy

>  <rmsd>  (13) 
8.675300892190009

>  <m_score__min__rmsd>  (13) 
8.675300892190009

>  <meeko>  (13) 
{"free_energy": -8.37, "intermolecular_energy": -10.46, "internal_energy": -1.67, "cluster_size": 20, "cluster_id": 1, "rank_in_cluster": 9}

>  <energy>  (13) 
-8.15

>  <cluster_rmsd>  (13) 
0.94

>  <cluster>  (13) 
1

$$$$

     RDKit          3D

 52 55  0  0  0  0  0  0  0  0999 V2000
  138.1400   70.8910  221.9080 O   0  0  0  0  0  0  0  0  0  0  0  0
  138.8770   71.3310  222.8360 C   0  0  0  0  0  0  0  0  0  0  0  0
  139.4170   72.6600  222.8160 N   0  0  0  0  0  0  0  0  0  0  0  0
  139.0710   73.4800  221.6710 C   0  0  0  0  0  0  0  0  0  0  0  0
  139.9740   74.6460  221.5390 C   0  0  0  0  0  0  0  0  0  0  0  0
  141.2070   74.4510  221.4430 O   0  0  0  0  0  0  0  0  0  0  0  0
  139.3760   75.9370  221.5280 N   0  0  0  0  0  0  0  0  0  0  0  0
  138.2750   76.4260  220.7060 C   0  0  0  0  0  0  0  0  0  0  0  0
  137.7610   77.6440  221.4440 C   0  0  0  0  0  0  0  0  0  0  0  0
  138.5440   77.7090  222.7300 C   0  0  2  0  0  0  0  0  0  0  0  0
  138.7440   79.0740  223.0220 O   0  0  0  0  0  0  0  0  0  0  0  0
  139.6560   79.5290  222.0720 C   0  0  0  0  0  0  0  0  0  0  0  0
  140.9160   80.0040  222.6930 C   0  0  0  0  0  0  0  0  0  0  0  0
  140.9090   81.0310  223.6030 C   0  0  0  0  0  0  0  0  0  0  0  0
  142.1000   81.4670  224.1780 C   0  0  0  0  0  0  0  0  0  0  0  0
  143.3180   80.8700  223.8440 C   0  0  0  0  0  0  0  0  0  0  0  0
  143.3190   79.8520  222.9410 C   0  0  0  0  0  0  0  0  0  0  0  0
  142.1350   79.4350  222.3840 C   0  0  0  0  0  0  0  0  0  0  0  0
  139.8190   77.0100  222.3990 C   0  0  0  0  0  0  0  0  0  0  0  0
  139.2080   70.4840  223.9760 C   0  0  0  0  0  0  0  0  0  0  0  0
  138.9000   69.1350  223.9540 C   0  0  0  0  0  0  0  0  0  0  0  0
  139.1950   68.2900  225.0150 C   0  0  0  0  0  0  0  0  0  0  0  0
  139.8230   68.8060  226.1420 C   0  0  0  0  0  0  0  0  0  0  0  0
  140.1430   68.0090  227.2320 C   0  0  0  0  0  0  0  0  0  0  0  0
  140.7690   68.5720  228.3400 C   0  0  0  0  0  0  0  0  0  0  0  0
  141.0830   67.8000  229.4040 F   0  0  0  0  0  0  0  0  0  0  0  0
  141.0680   69.9260  228.3360 C   0  0  0  0  0  0  0  0  0  0  0  0
  140.7400   70.7030  227.2390 C   0  0  0  0  0  0  0  0  0  0  0  0
  140.1190   70.1610  226.1360 C   0  0  0  0  0  0  0  0  0  0  0  0
  139.8140   70.9420  225.0860 N   0  0  0  0  0  0  0  0  0  0  0  0
  140.0260   73.0050  223.5940 H   0  0  0  0  0  0  0  0  0  0  0  0
  139.1433   72.8683  220.7597 H   0  0  0  0  0  0  0  0  0  0  0  0
  138.0467   73.8543  221.8146 H   0  0  0  0  0  0  0  0  0  0  0  0
  138.6318   76.7015  219.7026 H   0  0  0  0  0  0  0  0  0  0  0  0
  137.4936   75.6658  220.5593 H   0  0  0  0  0  0  0  0  0  0  0  0
  137.9297   78.5524  220.8471 H   0  0  0  0  0  0  0  0  0  0  0  0
  136.6795   77.5751  221.6328 H   0  0  0  0  0  0  0  0  0  0  0  0
  138.0627   77.2490  223.6056 H   0  0  0  0  0  0  0  0  0  0  0  0
  139.8893   78.7056  221.3810 H   0  0  0  0  0  0  0  0  0  0  0  0
  139.1985   80.3770  221.5413 H   0  0  0  0  0  0  0  0  0  0  0  0
  139.9590   81.5117  223.8793 H   0  0  0  0  0  0  0  0  0  0  0  0
  142.0815   82.2925  224.9048 H   0  0  0  0  0  0  0  0  0  0  0  0
  144.2568   81.2156  224.3014 H   0  0  0  0  0  0  0  0  0  0  0  0
  144.2641   79.3652  222.6584 H   0  0  0  0  0  0  0  0  0  0  0  0
  142.1592   78.6091  221.6578 H   0  0  0  0  0  0  0  0  0  0  0  0
  140.5164   77.6822  221.8776 H   0  0  0  0  0  0  0  0  0  0  0  0
  140.3662   76.6560  223.2851 H   0  0  0  0  0  0  0  0  0  0  0  0
  138.4043   68.7180  223.0650 H   0  0  0  0  0  0  0  0  0  0  0  0
  138.9343   67.2226  224.9641 H   0  0  0  0  0  0  0  0  0  0  0  0
  139.9026   66.9357  227.2202 H   0  0  0  0  0  0  0  0  0  0  0  0
  141.5657   70.3822  229.2044 H   0  0  0  0  0  0  0  0  0  0  0  0
  140.9805   71.7764  227.2483 H   0  0  0  0  0  0  0  0  0  0  0  0
  1  2  2  0
  2  3  1  0
  3  4  1  0
  4  5  1  0
  5  6  2  0
  5  7  1  0
  7  8  1  0
  8  9  1  0
  9 10  1  0
 10 11  1  0
 11 12  1  0
 12 13  1  0
 13 14  2  0
 14 15  1  0
 15 16  2  0
 16 17  1  0
 17 18  2  0
 10 19  1  0
  2 20  1  0
 20 21  2  0
 21 22  1  0
 22 23  2  0
 23 24  1  0
 24 25  2  0
 25 26  1  0
 25 27  1  0
 27 28  2  0
 28 29  1  0
 29 30  2  0
 19  7  1  0
 30 20  1  0
 18 13  1  0
 29 23  1  0
  3 31  1  0
  4 32  1  0
  4 33  1  0
  8 34  1  0
  8 35  1  0
  9 36  1  0
  9 37  1  0
 10 38  1  1
 12 39  1  0
 12 40  1  0
 14 41  1  0
 15 42  1  0
 16 43  1  0
 17 44  1  0
 18 45  1  0
 19 46  1  0
 19 47  1  0
 21 48  1  0
 22 49  1  0
 24 50  1  0
 27 51  1  0
 28 52  1  0
M  END
>  <smiles>  (14) 
O=C(NCC(=O)N1CC[C@H](OCc2ccccc2)C1)c1ccc2cc(F)ccc2n1

>  <score_type>  (14) 
oracle

>  <origin>  (14) 
autodockgpu

>  <m_score__min__energy>  (14) 
-8.9900000000000002

>  <m_primary>  (14) 
energy

>  <rmsd>  (14) 
2.735193803975464

>  <m_score__min__rmsd>  (14) 
2.735193803975464

>  <meeko>  (14) 
{"free_energy": -8.23, "intermolecular_energy": -10.32, "internal_energy": -1.41, "cluster_size": 14, "cluster_id": 3, "rank_in_cluster": 9}

>  <energy>  (14) 
-8.15

>  <cluster_rmsd>  (14) 
0.91

>  <cluster>  (14) 
1

$$$$

     RDKit          3D

 52 55  0  0  0  0  0  0  0  0999 V2000
  140.6950   73.0660  222.5820 O   0  0  0  0  0  0  0  0  0  0  0  0
  140.2340   73.7150  221.6000 C   0  0  0  0  0  0  0  0  0  0  0  0
  139.3080   73.1370  220.6700 N   0  0  0  0  0  0  0  0  0  0  0  0
  138.9240   71.7600  220.9140 C   0  0  0  0  0  0  0  0  0  0  0  0
  138.1830   71.6140  222.1870 C   0  0  0  0  0  0  0  0  0  0  0  0
  137.6340   72.6220  222.6880 O   0  0  0  0  0  0  0  0  0  0  0  0
  138.1380   70.3180  222.7720 N   0  0  0  0  0  0  0  0  0  0  0  0
  137.9050   69.0320  222.1240 C   0  0  0  0  0  0  0  0  0  0  0  0
  138.4450   68.0100  223.1010 C   0  0  0  0  0  0  0  0  0  0  0  0
  139.0720   68.8000  224.2210 C   0  0  2  0  0  0  0  0  0  0  0  0
  138.8420   68.0810  225.4120 O   0  0  0  0  0  0  0  0  0  0  0  0
  140.0440   68.1290  226.1150 C   0  0  0  0  0  0  0  0  0  0  0  0
  140.3280   69.4850  226.6410 C   0  0  0  0  0  0  0  0  0  0  0  0
  141.1450   70.3490  225.9570 C   0  0  0  0  0  0  0  0  0  0  0  0
  141.4030   71.6210  226.4640 C   0  0  0  0  0  0  0  0  0  0  0  0
  140.8370   72.0400  227.6690 C   0  0  0  0  0  0  0  0  0  0  0  0
  140.0270   71.1800  228.3440 C   0  0  0  0  0  0  0  0  0  0  0  0
  139.7840   69.9290  227.8300 C   0  0  0  0  0  0  0  0  0  0  0  0
  138.3310   70.0940  224.1920 C   0  0  0  0  0  0  0  0  0  0  0  0
  140.6380   75.0990  221.3800 C   0  0  0  0  0  0  0  0  0  0  0  0
  140.9990   75.5270  220.1150 C   0  0  0  0  0  0  0  0  0  0  0  0
  141.3910   76.8340  219.8580 C   0  0  0  0  0  0  0  0  0  0  0  0
  141.4250   77.7510  220.9010 C   0  0  0  0  0  0  0  0  0  0  0  0
  141.8080   79.0710  220.7030 C   0  0  0  0  0  0  0  0  0  0  0  0
  141.8280   79.9540  221.7790 C   0  0  0  0  0  0  0  0  0  0  0  0
  142.2000   81.2400  221.5920 F   0  0  0  0  0  0  0  0  0  0  0  0
  141.4610   79.4990  223.0370 C   0  0  0  0  0  0  0  0  0  0  0  0
  141.0830   78.1800  223.2120 C   0  0  0  0  0  0  0  0  0  0  0  0
  141.0590   77.2950  222.1570 C   0  0  0  0  0  0  0  0  0  0  0  0
  140.6860   76.0200  222.3600 N   0  0  0  0  0  0  0  0  0  0  0  0
  138.9390   73.6920  219.8630 H   0  0  0  0  0  0  0  0  0  0  0  0
  138.2838   71.4170  220.0879 H   0  0  0  0  0  0  0  0  0  0  0  0
  139.8407   71.1557  220.9804 H   0  0  0  0  0  0  0  0  0  0  0  0
  136.8304   68.8735  221.9503 H   0  0  0  0  0  0  0  0  0  0  0  0
  138.3913   68.9663  221.1395 H   0  0  0  0  0  0  0  0  0  0  0  0
  137.6292   67.3810  223.4866 H   0  0  0  0  0  0  0  0  0  0  0  0
  139.1740   67.3396  222.6223 H   0  0  0  0  0  0  0  0  0  0  0  0
  140.1560   68.9677  224.1383 H   0  0  0  0  0  0  0  0  0  0  0  0
  139.9898   67.4253  226.9588 H   0  0  0  0  0  0  0  0  0  0  0  0
  140.8535   67.8583  225.4211 H   0  0  0  0  0  0  0  0  0  0  0  0
  141.5982   70.0365  225.0047 H   0  0  0  0  0  0  0  0  0  0  0  0
  142.0614   72.3039  225.9072 H   0  0  0  0  0  0  0  0  0  0  0  0
  141.0417   73.0456  228.0652 H   0  0  0  0  0  0  0  0  0  0  0  0
  139.5689   71.4847  229.2965 H   0  0  0  0  0  0  0  0  0  0  0  0
  139.1257   69.2499  228.3917 H   0  0  0  0  0  0  0  0  0  0  0  0
  137.3670   70.0111  224.7153 H   0  0  0  0  0  0  0  0  0  0  0  0
  138.8641   70.9141  224.6952 H   0  0  0  0  0  0  0  0  0  0  0  0
  140.9746   74.8069  219.2838 H   0  0  0  0  0  0  0  0  0  0  0  0
  141.6717   77.1401  218.8394 H   0  0  0  0  0  0  0  0  0  0  0  0
  142.0946   79.4178  219.6992 H   0  0  0  0  0  0  0  0  0  0  0  0
  141.4706   80.1870  223.8952 H   0  0  0  0  0  0  0  0  0  0  0  0
  140.7956   77.8306  224.2147 H   0  0  0  0  0  0  0  0  0  0  0  0
  1  2  2  0
  2  3  1  0
  3  4  1  0
  4  5  1  0
  5  6  2  0
  5  7  1  0
  7  8  1  0
  8  9  1  0
  9 10  1  0
 10 11  1  0
 11 12  1  0
 12 13  1  0
 13 14  2  0
 14 15  1  0
 15 16  2  0
 16 17  1  0
 17 18  2  0
 10 19  1  0
  2 20  1  0
 20 21  2  0
 21 22  1  0
 22 23  2  0
 23 24  1  0
 24 25  2  0
 25 26  1  0
 25 27  1  0
 27 28  2  0
 28 29  1  0
 29 30  2  0
 19  7  1  0
 30 20  1  0
 18 13  1  0
 29 23  1  0
  3 31  1  0
  4 32  1  0
  4 33  1  0
  8 34  1  0
  8 35  1  0
  9 36  1  0
  9 37  1  0
 10 38  1  6
 12 39  1  0
 12 40  1  0
 14 41  1  0
 15 42  1  0
 16 43  1  0
 17 44  1  0
 18 45  1  0
 19 46  1  0
 19 47  1  0
 21 48  1  0
 22 49  1  0
 24 50  1  0
 27 51  1  0
 28 52  1  0
M  END
>  <smiles>  (15) 
O=C(NCC(=O)N1CC[C@H](OCc2ccccc2)C1)c1ccc2cc(F)ccc2n1

>  <score_type>  (15) 
oracle

>  <origin>  (15) 
autodockgpu

>  <m_score__min__energy>  (15) 
-8.9900000000000002

>  <m_primary>  (15) 
energy

>  <rmsd>  (15) 
8.481329122696572

>  <m_score__min__rmsd>  (15) 
8.481329122696572

>  <meeko>  (15) 
{"free_energy": -8.53, "intermolecular_energy": -10.61, "internal_energy": -1.32, "cluster_size": 20, "cluster_id": 1, "rank_in_cluster": 6}

>  <energy>  (15) 
-8.13

>  <cluster_rmsd>  (15) 
1.89

>  <cluster>  (15) 
1

$$$$

     RDKit          3D

 52 55  0  0  0  0  0  0  0  0999 V2000
  139.9220   73.4530  222.7140 O   0  0  0  0  0  0  0  0  0  0  0  0
  140.3400   72.2640  222.6140 C   0  0  0  0  0  0  0  0  0  0  0  0
  140.9340   71.7640  221.4080 N   0  0  0  0  0  0  0  0  0  0  0  0
  141.0340   72.6970  220.3030 C   0  0  0  0  0  0  0  0  0  0  0  0
  142.4150   73.2030  220.1350 C   0  0  0  0  0  0  0  0  0  0  0  0
  143.3560   72.3810  220.0470 O   0  0  0  0  0  0  0  0  0  0  0  0
  142.5910   74.6140  220.0830 N   0  0  0  0  0  0  0  0  0  0  0  0
  143.7980   75.3720  219.7760 C   0  0  0  0  0  0  0  0  0  0  0  0
  143.2960   76.7470  219.3900 C   0  0  0  0  0  0  0  0  0  0  0  0
  141.7920   76.6530  219.3900 C   0  0  2  0  0  0  0  0  0  0  0  0
  141.3020   77.8930  219.8490 O   0  0  0  0  0  0  0  0  0  0  0  0
  141.0000   77.7010  221.1950 C   0  0  0  0  0  0  0  0  0  0  0  0
  141.5020   78.8090  222.0420 C   0  0  0  0  0  0  0  0  0  0  0  0
  141.7580   80.0460  221.5060 C   0  0  0  0  0  0  0  0  0  0  0  0
  142.2280   81.0780  222.3150 C   0  0  0  0  0  0  0  0  0  0  0  0
  142.4480   80.8760  223.6790 C   0  0  0  0  0  0  0  0  0  0  0  0
  142.1930   79.6480  224.2060 C   0  0  0  0  0  0  0  0  0  0  0  0
  141.7290   78.6410  223.3940 C   0  0  0  0  0  0  0  0  0  0  0  0
  141.5120   75.5460  220.3490 C   0  0  0  0  0  0  0  0  0  0  0  0
  140.2260   71.3480  223.7430 C   0  0  0  0  0  0  0  0  0  0  0  0
  139.6120   70.1180  223.5840 C   0  0  0  0  0  0  0  0  0  0  0  0
  139.4800   69.2140  224.6300 C   0  0  0  0  0  0  0  0  0  0  0  0
  139.9800   69.5470  225.8820 C   0  0  0  0  0  0  0  0  0  0  0  0
  139.8770   68.6830  226.9650 C   0  0  0  0  0  0  0  0  0  0  0  0
  140.3910   69.0600  228.2010 C   0  0  0  0  0  0  0  0  0  0  0  0
  140.2940   68.2230  229.2580 F   0  0  0  0  0  0  0  0  0  0  0  0
  141.0020   70.2980  228.3330 C   0  0  0  0  0  0  0  0  0  0  0  0
  141.0940   71.1440  227.2430 C   0  0  0  0  0  0  0  0  0  0  0  0
  140.5890   70.7850  226.0130 C   0  0  0  0  0  0  0  0  0  0  0  0
  140.6940   71.6290  224.9730 N   0  0  0  0  0  0  0  0  0  0  0  0
  141.2730   70.7750  221.3450 H   0  0  0  0  0  0  0  0  0  0  0  0
  140.7262   72.1877  219.3778 H   0  0  0  0  0  0  0  0  0  0  0  0
  140.3792   73.5542  220.5185 H   0  0  0  0  0  0  0  0  0  0  0  0
  144.4543   75.4311  220.6568 H   0  0  0  0  0  0  0  0  0  0  0  0
  144.3926   74.9050  218.9771 H   0  0  0  0  0  0  0  0  0  0  0  0
  143.6325   77.4964  220.1216 H   0  0  0  0  0  0  0  0  0  0  0  0
  143.6812   77.0562  218.4071 H   0  0  0  0  0  0  0  0  0  0  0  0
  141.3258   76.4521  218.4141 H   0  0  0  0  0  0  0  0  0  0  0  0
  139.9078   77.6351  221.3077 H   0  0  0  0  0  0  0  0  0  0  0  0
  141.4915   76.7735  221.5238 H   0  0  0  0  0  0  0  0  0  0  0  0
  141.5914   80.2234  220.4332 H   0  0  0  0  0  0  0  0  0  0  0  0
  142.4285   82.0653  221.8734 H   0  0  0  0  0  0  0  0  0  0  0  0
  142.8199   81.6932  224.3145 H   0  0  0  0  0  0  0  0  0  0  0  0
  142.3575   79.4619  225.2776 H   0  0  0  0  0  0  0  0  0  0  0  0
  141.5293   77.6561  223.8413 H   0  0  0  0  0  0  0  0  0  0  0  0
  141.5442   75.9040  221.3886 H   0  0  0  0  0  0  0  0  0  0  0  0
  140.5124   75.1037  220.2257 H   0  0  0  0  0  0  0  0  0  0  0  0
  139.2147   69.8469  222.5947 H   0  0  0  0  0  0  0  0  0  0  0  0
  138.9849   68.2451  224.4686 H   0  0  0  0  0  0  0  0  0  0  0  0
  139.3904   67.7038  226.8452 H   0  0  0  0  0  0  0  0  0  0  0  0
  141.4136   70.6071  229.3051 H   0  0  0  0  0  0  0  0  0  0  0  0
  141.5804   72.1236  227.3607 H   0  0  0  0  0  0  0  0  0  0  0  0
  1  2  2  0
  2  3  1  0
  3  4  1  0
  4  5  1  0
  5  6  2  0
  5  7  1  0
  7  8  1  0
  8  9  1  0
  9 10  1  0
 10 11  1  0
 11 12  1  0
 12 13  1  0
 13 14  2  0
 14 15  1  0
 15 16  2  0
 16 17  1  0
 17 18  2  0
 10 19  1  0
  2 20  1  0
 20 21  2  0
 21 22  1  0
 22 23  2  0
 23 24  1  0
 24 25  2  0
 25 26  1  0
 25 27  1  0
 27 28  2  0
 28 29  1  0
 29 30  2  0
 19  7  1  0
 30 20  1  0
 18 13  1  0
 29 23  1  0
  3 31  1  0
  4 32  1  0
  4 33  1  0
  8 34  1  0
  8 35  1  0
  9 36  1  0
  9 37  1  0
 10 38  1  6
 12 39  1  0
 12 40  1  0
 14 41  1  0
 15 42  1  0
 16 43  1  0
 17 44  1  0
 18 45  1  0
 19 46  1  0
 19 47  1  0
 21 48  1  0
 22 49  1  0
 24 50  1  0
 27 51  1  0
 28 52  1  0
M  END
>  <smiles>  (16) 
O=C(NCC(=O)N1CC[C@H](OCc2ccccc2)C1)c1ccc2cc(F)ccc2n1

>  <score_type>  (16) 
oracle

>  <origin>  (16) 
autodockgpu

>  <m_score__min__energy>  (16) 
-8.9900000000000002

>  <m_primary>  (16) 
energy

>  <rmsd>  (16) 
2.367071833710016

>  <m_score__min__rmsd>  (16) 
2.367071833710016

>  <meeko>  (16) 
{"free_energy": -8.63, "intermolecular_energy": -10.71, "internal_energy": -1.34, "cluster_size": 14, "cluster_id": 3, "rank_in_cluster": 4}

>  <energy>  (16) 
-8.03

>  <cluster_rmsd>  (16) 
0.73

>  <cluster>  (16) 
1

$$$$

     RDKit          3D

 52 55  0  0  0  0  0  0  0  0999 V2000
  138.1880   70.1470  221.8480 O   0  0  0  0  0  0  0  0  0  0  0  0
  138.1330   70.6470  223.0080 C   0  0  0  0  0  0  0  0  0  0  0  0
  137.4610   71.8860  223.2720 N   0  0  0  0  0  0  0  0  0  0  0  0
  136.8430   72.5400  222.1350 C   0  0  0  0  0  0  0  0  0  0  0  0
  137.3180   73.9340  221.9790 C   0  0  0  0  0  0  0  0  0  0  0  0
  136.4810   74.8650  221.9870 O   0  0  0  0  0  0  0  0  0  0  0  0
  138.7180   74.1330  221.8300 N   0  0  0  0  0  0  0  0  0  0  0  0
  139.7510   73.1530  221.5160 C   0  0  0  0  0  0  0  0  0  0  0  0
  140.9160   73.9760  221.0090 C   0  0  0  0  0  0  0  0  0  0  0  0
  140.4250   75.3990  220.9560 C   0  0  2  0  0  0  0  0  0  0  0  0
  141.5150   76.2250  221.3010 O   0  0  0  0  0  0  0  0  0  0  0  0
  141.1640   77.5030  220.8720 C   0  0  0  0  0  0  0  0  0  0  0  0
  141.5050   78.5400  221.8750 C   0  0  0  0  0  0  0  0  0  0  0  0
  141.8660   79.8050  221.4860 C   0  0  0  0  0  0  0  0  0  0  0  0
  142.1830   80.7700  222.4390 C   0  0  0  0  0  0  0  0  0  0  0  0
  142.1390   80.4710  223.8020 C   0  0  0  0  0  0  0  0  0  0  0  0
  141.7800   79.2150  224.1840 C   0  0  0  0  0  0  0  0  0  0  0  0
  141.4710   78.2760  223.2290 C   0  0  0  0  0  0  0  0  0  0  0  0
  139.3440   75.4340  221.9820 C   0  0  0  0  0  0  0  0  0  0  0  0
  138.7650   69.9670  224.1330 C   0  0  0  0  0  0  0  0  0  0  0  0
  138.8060   68.5850  224.1760 C   0  0  0  0  0  0  0  0  0  0  0  0
  139.3960   67.8930  225.2260 C   0  0  0  0  0  0  0  0  0  0  0  0
  139.9670   68.6050  226.2730 C   0  0  0  0  0  0  0  0  0  0  0  0
  140.5710   67.9680  227.3490 C   0  0  0  0  0  0  0  0  0  0  0  0
  141.1280   68.7240  228.3760 C   0  0  0  0  0  0  0  0  0  0  0  0
  141.7170   68.1080  229.4260 F   0  0  0  0  0  0  0  0  0  0  0  0
  141.0730   70.1080  228.3070 C   0  0  0  0  0  0  0  0  0  0  0  0
  140.4670   70.7230  227.2270 C   0  0  0  0  0  0  0  0  0  0  0  0
  139.9100   69.9890  226.2040 C   0  0  0  0  0  0  0  0  0  0  0  0
  139.3290   70.6160  225.1670 N   0  0  0  0  0  0  0  0  0  0  0  0
  137.4270   72.2840  224.2400 H   0  0  0  0  0  0  0  0  0  0  0  0
  137.0880   71.9759  221.2230 H   0  0  0  0  0  0  0  0  0  0  0  0
  135.7563   72.5653  222.3034 H   0  0  0  0  0  0  0  0  0  0  0  0
  140.0368   72.5882  222.4156 H   0  0  0  0  0  0  0  0  0  0  0  0
  139.4119   72.4109  220.7782 H   0  0  0  0  0  0  0  0  0  0  0  0
  141.7713   73.8918  221.6956 H   0  0  0  0  0  0  0  0  0  0  0  0
  141.2558   73.6293  220.0219 H   0  0  0  0  0  0  0  0  0  0  0  0
  140.0481   75.7375  219.9796 H   0  0  0  0  0  0  0  0  0  0  0  0
  141.7004   77.7234  219.9372 H   0  0  0  0  0  0  0  0  0  0  0  0
  140.0747   77.5227  220.7206 H   0  0  0  0  0  0  0  0  0  0  0  0
  141.9053   80.0584  220.4163 H   0  0  0  0  0  0  0  0  0  0  0  0
  142.4716   81.7804  222.1137 H   0  0  0  0  0  0  0  0  0  0  0  0
  142.3895   81.2354  224.5523 H   0  0  0  0  0  0  0  0  0  0  0  0
  141.7374   78.9527  225.2514 H   0  0  0  0  0  0  0  0  0  0  0  0
  141.1832   77.2671  223.5595 H   0  0  0  0  0  0  0  0  0  0  0  0
  139.7601   75.5584  222.9926 H   0  0  0  0  0  0  0  0  0  0  0  0
  138.6447   76.2730  221.8511 H   0  0  0  0  0  0  0  0  0  0  0  0
  138.3559   68.0144  223.3503 H   0  0  0  0  0  0  0  0  0  0  0  0
  139.4108   66.7931  225.2283 H   0  0  0  0  0  0  0  0  0  0  0  0
  140.6090   66.8694  227.3894 H   0  0  0  0  0  0  0  0  0  0  0  0
  141.5115   70.7166  229.1116 H   0  0  0  0  0  0  0  0  0  0  0  0
  140.4291   71.8215  227.1843 H   0  0  0  0  0  0  0  0  0  0  0  0
  1  2  2  0
  2  3  1  0
  3  4  1  0
  4  5  1  0
  5  6  2  0
  5  7  1  0
  7  8  1  0
  8  9  1  0
  9 10  1  0
 10 11  1  0
 11 12  1  0
 12 13  1  0
 13 14  2  0
 14 15  1  0
 15 16  2  0
 16 17  1  0
 17 18  2  0
 10 19  1  0
  2 20  1  0
 20 21  2  0
 21 22  1  0
 22 23  2  0
 23 24  1  0
 24 25  2  0
 25 26  1  0
 25 27  1  0
 27 28  2  0
 28 29  1  0
 29 30  2  0
 19  7  1  0
 30 20  1  0
 18 13  1  0
 29 23  1  0
  3 31  1  0
  4 32  1  0
  4 33  1  0
  8 34  1  0
  8 35  1  0
  9 36  1  0
  9 37  1  0
 10 38  1  6
 12 39  1  0
 12 40  1  0
 14 41  1  0
 15 42  1  0
 16 43  1  0
 17 44  1  0
 18 45  1  0
 19 46  1  0
 19 47  1  0
 21 48  1  0
 22 49  1  0
 24 50  1  0
 27 51  1  0
 28 52  1  0
M  END
>  <smiles>  (17) 
O=C(NCC(=O)N1CC[C@H](OCc2ccccc2)C1)c1ccc2cc(F)ccc2n1

>  <score_type>  (17) 
oracle

>  <origin>  (17) 
autodockgpu

>  <m_score__min__energy>  (17) 
-8.9900000000000002

>  <m_primary>  (17) 
energy

>  <rmsd>  (17) 
2.601211075128646

>  <m_score__min__rmsd>  (17) 
2.601211075128646

>  <meeko>  (17) 
{"free_energy": -8.1, "intermolecular_energy": -10.19, "internal_energy": -1.39, "cluster_size": 11, "cluster_id": 4, "rank_in_cluster": 9}

>  <energy>  (17) 
-7.98

>  <cluster_rmsd>  (17) 
1.93

>  <cluster>  (17) 
1

$$$$

     RDKit          3D

 52 55  0  0  0  0  0  0  0  0999 V2000
  140.9090   73.0100  222.3270 O   0  0  0  0  0  0  0  0  0  0  0  0
  139.8580   72.5050  222.8160 C   0  0  0  0  0  0  0  0  0  0  0  0
  138.5500   72.8880  222.3720 N   0  0  0  0  0  0  0  0  0  0  0  0
  138.4910   73.8910  221.3260 C   0  0  0  0  0  0  0  0  0  0  0  0
  137.7000   75.0710  221.7410 C   0  0  0  0  0  0  0  0  0  0  0  0
  136.5140   74.9080  222.1080 O   0  0  0  0  0  0  0  0  0  0  0  0
  138.3450   76.3380  221.6980 N   0  0  0  0  0  0  0  0  0  0  0  0
  139.4530   76.7700  220.8540 C   0  0  0  0  0  0  0  0  0  0  0  0
  139.3860   78.2820  220.8830 C   0  0  0  0  0  0  0  0  0  0  0  0
  138.1470   78.6270  221.6680 C   0  0  2  0  0  0  0  0  0  0  0  0
  138.4330   79.7990  222.3970 O   0  0  0  0  0  0  0  0  0  0  0  0
  139.1370   79.3760  223.5220 C   0  0  0  0  0  0  0  0  0  0  0  0
  140.5560   79.8050  223.4860 C   0  0  0  0  0  0  0  0  0  0  0  0
  141.5480   78.9280  223.1260 C   0  0  0  0  0  0  0  0  0  0  0  0
  142.8770   79.3460  223.0960 C   0  0  0  0  0  0  0  0  0  0  0  0
  143.2230   80.6570  223.4270 C   0  0  0  0  0  0  0  0  0  0  0  0
  142.2360   81.5230  223.7830 C   0  0  0  0  0  0  0  0  0  0  0  0
  140.9310   81.0940  223.8070 C   0  0  0  0  0  0  0  0  0  0  0  0
  137.9550   77.4430  222.5540 C   0  0  0  0  0  0  0  0  0  0  0  0
  139.9480   71.4980  223.8670 C   0  0  0  0  0  0  0  0  0  0  0  0
  139.5290   70.2010  223.6280 C   0  0  0  0  0  0  0  0  0  0  0  0
  139.5950   69.2090  224.5980 C   0  0  0  0  0  0  0  0  0  0  0  0
  140.0970   69.5200  225.8550 C   0  0  0  0  0  0  0  0  0  0  0  0
  140.1880   68.5700  226.8630 C   0  0  0  0  0  0  0  0  0  0  0  0
  140.6970   68.9290  228.1070 C   0  0  0  0  0  0  0  0  0  0  0  0
  140.7860   68.0070  229.0920 F   0  0  0  0  0  0  0  0  0  0  0  0
  141.1090   70.2350  228.3210 C   0  0  0  0  0  0  0  0  0  0  0  0
  141.0110   71.1660  227.3030 C   0  0  0  0  0  0  0  0  0  0  0  0
  140.5090   70.8270  226.0670 C   0  0  0  0  0  0  0  0  0  0  0  0
  140.4260   71.7550  225.0980 N   0  0  0  0  0  0  0  0  0  0  0  0
  137.6920   72.4580  222.7900 H   0  0  0  0  0  0  0  0  0  0  0  0
  139.5142   74.2149  221.0850 H   0  0  0  0  0  0  0  0  0  0  0  0
  138.0018   73.4423  220.4489 H   0  0  0  0  0  0  0  0  0  0  0  0
  140.4119   76.4156  221.2601 H   0  0  0  0  0  0  0  0  0  0  0  0
  139.3815   76.3681  219.8325 H   0  0  0  0  0  0  0  0  0  0  0  0
  140.2784   78.6949  221.3761 H   0  0  0  0  0  0  0  0  0  0  0  0
  139.3505   78.7036  219.8676 H   0  0  0  0  0  0  0  0  0  0  0  0
  137.2426   78.8202  221.0724 H   0  0  0  0  0  0  0  0  0  0  0  0
  138.6609   79.7999  224.4185 H   0  0  0  0  0  0  0  0  0  0  0  0
  139.1160   78.2764  223.5411 H   0  0  0  0  0  0  0  0  0  0  0  0
  141.2933   77.8914  222.8602 H   0  0  0  0  0  0  0  0  0  0  0  0
  143.6637   78.6333  222.8076 H   0  0  0  0  0  0  0  0  0  0  0  0
  144.2731   80.9836  223.4006 H   0  0  0  0  0  0  0  0  0  0  0  0
  142.4815   82.5614  224.0503 H   0  0  0  0  0  0  0  0  0  0  0  0
  140.1485   81.8113  224.0955 H   0  0  0  0  0  0  0  0  0  0  0  0
  138.6006   77.5035  223.4426 H   0  0  0  0  0  0  0  0  0  0  0  0
  136.9310   77.3519  222.9454 H   0  0  0  0  0  0  0  0  0  0  0  0
  139.1297   69.9467  222.6351 H   0  0  0  0  0  0  0  0  0  0  0  0
  139.2533   68.1879  224.3730 H   0  0  0  0  0  0  0  0  0  0  0  0
  139.8587   67.5367  226.6788 H   0  0  0  0  0  0  0  0  0  0  0  0
  141.5137   70.5308  229.3001 H   0  0  0  0  0  0  0  0  0  0  0  0
  141.3413   72.1994  227.4849 H   0  0  0  0  0  0  0  0  0  0  0  0
  1  2  2  0
  2  3  1  0
  3  4  1  0
  4  5  1  0
  5  6  2  0
  5  7  1  0
  7  8  1  0
  8  9  1  0
  9 10  1  0
 10 11  1  0
 11 12  1  0
 12 13  1  0
 13 14  2  0
 14 15  1  0
 15 16  2  0
 16 17  1  0
 17 18  2  0
 10 19  1  0
  2 20  1  0
 20 21  2  0
 21 22  1  0
 22 23  2  0
 23 24  1  0
 24 25  2  0
 25 26  1  0
 25 27  1  0
 27 28  2  0
 28 29  1  0
 29 30  2  0
 19  7  1  0
 30 20  1  0
 18 13  1  0
 29 23  1  0
  3 31  1  0
  4 32  1  0
  4 33  1  0
  8 34  1  0
  8 35  1  0
  9 36  1  0
  9 37  1  0
 10 38  1  6
 12 39  1  0
 12 40  1  0
 14 41  1  0
 15 42  1  0
 16 43  1  0
 17 44  1  0
 18 45  1  0
 19 46  1  0
 19 47  1  0
 21 48  1  0
 22 49  1  0
 24 50  1  0
 27 51  1  0
 28 52  1  0
M  END
>  <smiles>  (18) 
O=C(NCC(=O)N1CC[C@H](OCc2ccccc2)C1)c1ccc2cc(F)ccc2n1

>  <score_type>  (18) 
oracle

>  <origin>  (18) 
autodockgpu

>  <m_score__min__energy>  (18) 
-8.9900000000000002

>  <m_primary>  (18) 
energy

>  <rmsd>  (18) 
2.602253500468007

>  <m_score__min__rmsd>  (18) 
2.602253500468007

>  <meeko>  (18) 
{"free_energy": -8.16, "intermolecular_energy": -10.25, "internal_energy": -1.3, "cluster_size": 11, "cluster_id": 4, "rank_in_cluster": 8}

>  <energy>  (18) 
-7.88

>  <cluster_rmsd>  (18) 
1.53

>  <cluster>  (18) 
1

$$$$

     RDKit          3D

 52 55  0  0  0  0  0  0  0  0999 V2000
  137.0930   75.8840  222.1540 O   0  0  0  0  0  0  0  0  0  0  0  0
  138.3400   75.9740  222.3410 C   0  0  0  0  0  0  0  0  0  0  0  0
  139.2120   74.8420  222.2220 N   0  0  0  0  0  0  0  0  0  0  0  0
  138.5880   73.5800  221.8740 C   0  0  0  0  0  0  0  0  0  0  0  0
  139.4670   72.4290  222.1840 C   0  0  0  0  0  0  0  0  0  0  0  0
  140.6880   72.5100  221.9210 O   0  0  0  0  0  0  0  0  0  0  0  0
  138.8600   71.2850  222.7720 N   0  0  0  0  0  0  0  0  0  0  0  0
  137.5180   70.7550  222.5630 C   0  0  0  0  0  0  0  0  0  0  0  0
  137.5980   69.3170  223.0320 C   0  0  0  0  0  0  0  0  0  0  0  0
  139.0440   69.0770  223.3810 C   0  0  2  0  0  0  0  0  0  0  0  0
  139.0620   68.2050  224.4880 O   0  0  0  0  0  0  0  0  0  0  0  0
  138.5480   68.9420  225.5520 C   0  0  0  0  0  0  0  0  0  0  0  0
  139.5460   69.1350  226.6310 C   0  0  0  0  0  0  0  0  0  0  0  0
  139.9600   70.3920  226.9900 C   0  0  0  0  0  0  0  0  0  0  0  0
  140.8990   70.5590  228.0060 C   0  0  0  0  0  0  0  0  0  0  0  0
  141.4330   69.4560  228.6760 C   0  0  0  0  0  0  0  0  0  0  0  0
  141.0190   68.2110  228.3160 C   0  0  0  0  0  0  0  0  0  0  0  0
  140.0920   68.0660  227.3120 C   0  0  0  0  0  0  0  0  0  0  0  0
  139.5520   70.4370  223.7250 C   0  0  0  0  0  0  0  0  0  0  0  0
  138.9400   77.2560  222.6910 C   0  0  0  0  0  0  0  0  0  0  0  0
  138.1370   78.3490  222.9670 C   0  0  0  0  0  0  0  0  0  0  0  0
  138.6630   79.5890  223.3040 C   0  0  0  0  0  0  0  0  0  0  0  0
  140.0420   79.7480  223.3690 C   0  0  0  0  0  0  0  0  0  0  0  0
  140.6240   80.9640  223.7010 C   0  0  0  0  0  0  0  0  0  0  0  0
  142.0100   81.0750  223.7530 C   0  0  0  0  0  0  0  0  0  0  0  0
  142.5810   82.2570  224.0750 F   0  0  0  0  0  0  0  0  0  0  0  0
  142.7910   79.9650  223.4720 C   0  0  0  0  0  0  0  0  0  0  0  0
  142.1910   78.7630  223.1430 C   0  0  0  0  0  0  0  0  0  0  0  0
  140.8210   78.6370  223.0870 C   0  0  0  0  0  0  0  0  0  0  0  0
  140.2690   77.4550  222.7650 N   0  0  0  0  0  0  0  0  0  0  0  0
  140.2420   74.9370  222.3820 H   0  0  0  0  0  0  0  0  0  0  0  0
  137.6520   73.4767  222.4425 H   0  0  0  0  0  0  0  0  0  0  0  0
  138.3943   73.5810  220.7912 H   0  0  0  0  0  0  0  0  0  0  0  0
  136.7818   71.3167  223.1567 H   0  0  0  0  0  0  0  0  0  0  0  0
  137.1967   70.8345  221.5140 H   0  0  0  0  0  0  0  0  0  0  0  0
  136.9609   69.1667  223.9160 H   0  0  0  0  0  0  0  0  0  0  0  0
  137.2481   68.6191  222.2571 H   0  0  0  0  0  0  0  0  0  0  0  0
  139.6562   68.6207  222.5892 H   0  0  0  0  0  0  0  0  0  0  0  0
  138.2322   69.9281  225.1806 H   0  0  0  0  0  0  0  0  0  0  0  0
  137.6990   68.3829  225.9722 H   0  0  0  0  0  0  0  0  0  0  0  0
  139.5492   71.2722  226.4738 H   0  0  0  0  0  0  0  0  0  0  0  0
  141.2238   71.5725  228.2839 H   0  0  0  0  0  0  0  0  0  0  0  0
  142.1732   69.5911  229.4784 H   0  0  0  0  0  0  0  0  0  0  0  0
  141.4244   67.3248  228.8261 H   0  0  0  0  0  0  0  0  0  0  0  0
  139.7701   67.0504  227.0383 H   0  0  0  0  0  0  0  0  0  0  0  0
  139.2923   70.7079  224.7590 H   0  0  0  0  0  0  0  0  0  0  0  0
  140.6474   70.5212  223.6701 H   0  0  0  0  0  0  0  0  0  0  0  0
  137.0444   78.2312  222.9177 H   0  0  0  0  0  0  0  0  0  0  0  0
  137.9951   80.4366  223.5173 H   0  0  0  0  0  0  0  0  0  0  0  0
  139.9917   81.8365  223.9221 H   0  0  0  0  0  0  0  0  0  0  0  0
  143.8878   80.0400  223.5106 H   0  0  0  0  0  0  0  0  0  0  0  0
  142.8215   77.8893  222.9214 H   0  0  0  0  0  0  0  0  0  0  0  0
  1  2  2  0
  2  3  1  0
  3  4  1  0
  4  5  1  0
  5  6  2  0
  5  7  1  0
  7  8  1  0
  8  9  1  0
  9 10  1  0
 10 11  1  0
 11 12  1  0
 12 13  1  0
 13 14  2  0
 14 15  1  0
 15 16  2  0
 16 17  1  0
 17 18  2  0
 10 19  1  0
  2 20  1  0
 20 21  2  0
 21 22  1  0
 22 23  2  0
 23 24  1  0
 24 25  2  0
 25 26  1  0
 25 27  1  0
 27 28  2  0
 28 29  1  0
 29 30  2  0
 19  7  1  0
 30 20  1  0
 18 13  1  0
 29 23  1  0
  3 31  1  0
  4 32  1  0
  4 33  1  0
  8 34  1  0
  8 35  1  0
  9 36  1  0
  9 37  1  0
 10 38  1  6
 12 39  1  0
 12 40  1  0
 14 41  1  0
 15 42  1  0
 16 43  1  0
 17 44  1  0
 18 45  1  0
 19 46  1  0
 19 47  1  0
 21 48  1  0
 22 49  1  0
 24 50  1  0
 27 51  1  0
 28 52  1  0
M  END
>  <smiles>  (19) 
O=C(NCC(=O)N1CC[C@H](OCc2ccccc2)C1)c1ccc2cc(F)ccc2n1

>  <score_type>  (19) 
oracle

>  <origin>  (19) 
autodockgpu

>  <m_score__min__energy>  (19) 
-8.9900000000000002

>  <m_primary>  (19) 
energy

>  <rmsd>  (19) 
8.67668891483928

>  <m_score__min__rmsd>  (19) 
8.67668891483928

>  <meeko>  (19) 
{"free_energy": -7.88, "intermolecular_energy": -9.97, "internal_energy": -1.59, "cluster_size": 20, "cluster_id": 1, "rank_in_cluster": 18}

>  <energy>  (19) 
-7.84

>  <cluster_rmsd>  (19) 
1.57

>  <cluster>  (19) 
1

$$$$

     RDKit          3D

 52 55  0  0  0  0  0  0  0  0999 V2000
  140.7540   73.8030  221.6360 O   0  0  0  0  0  0  0  0  0  0  0  0
  139.6990   74.3600  222.0560 C   0  0  0  0  0  0  0  0  0  0  0  0
  138.5090   73.6160  222.3490 N   0  0  0  0  0  0  0  0  0  0  0  0
  138.5750   72.1830  222.1380 C   0  0  0  0  0  0  0  0  0  0  0  0
  137.5830   71.4610  222.9670 C   0  0  0  0  0  0  0  0  0  0  0  0
  136.5410   72.0570  223.3240 O   0  0  0  0  0  0  0  0  0  0  0  0
  137.8790   70.1120  223.3110 N   0  0  0  0  0  0  0  0  0  0  0  0
  137.9680   68.9470  222.4400 C   0  0  0  0  0  0  0  0  0  0  0  0
  138.7670   67.9370  223.2350 C   0  0  0  0  0  0  0  0  0  0  0  0
  139.1930   68.6460  224.4950 C   0  0  2  0  0  0  0  0  0  0  0  0
  139.1740   67.6910  225.5320 O   0  0  0  0  0  0  0  0  0  0  0  0
  140.3640   67.8770  226.2320 C   0  0  0  0  0  0  0  0  0  0  0  0
  140.5060   69.2660  226.7310 C   0  0  0  0  0  0  0  0  0  0  0  0
  139.8840   69.6660  227.8860 C   0  0  0  0  0  0  0  0  0  0  0  0
  140.0260   70.9740  228.3440 C   0  0  0  0  0  0  0  0  0  0  0  0
  140.8020   71.8980  227.6410 C   0  0  0  0  0  0  0  0  0  0  0  0
  141.4170   71.4960  226.4950 C   0  0  0  0  0  0  0  0  0  0  0  0
  141.2650   70.2020  226.0590 C   0  0  0  0  0  0  0  0  0  0  0  0
  138.1480   69.6950  224.6740 C   0  0  0  0  0  0  0  0  0  0  0  0
  139.6620   75.8040  222.2580 C   0  0  0  0  0  0  0  0  0  0  0  0
  138.4510   76.4570  222.3970 C   0  0  0  0  0  0  0  0  0  0  0  0
  138.3660   77.8300  222.5900 C   0  0  0  0  0  0  0  0  0  0  0  0
  139.5330   78.5810  222.6490 C   0  0  0  0  0  0  0  0  0  0  0  0
  139.5100   79.9560  222.8410 C   0  0  0  0  0  0  0  0  0  0  0  0
  140.7050   80.6670  222.8920 C   0  0  0  0  0  0  0  0  0  0  0  0
  140.6880   82.0060  223.0790 F   0  0  0  0  0  0  0  0  0  0  0  0
  141.9060   79.9880  222.7510 C   0  0  0  0  0  0  0  0  0  0  0  0
  141.9060   78.6180  222.5600 C   0  0  0  0  0  0  0  0  0  0  0  0
  140.7320   77.9010  222.5070 C   0  0  0  0  0  0  0  0  0  0  0  0
  140.7660   76.5700  222.3210 N   0  0  0  0  0  0  0  0  0  0  0  0
  137.6450   74.0970  222.6950 H   0  0  0  0  0  0  0  0  0  0  0  0
  138.3763   71.9693  221.0774 H   0  0  0  0  0  0  0  0  0  0  0  0
  139.5790   71.8396  222.4280 H   0  0  0  0  0  0  0  0  0  0  0  0
  136.9658   68.5558  222.2108 H   0  0  0  0  0  0  0  0  0  0  0  0
  138.4374   69.1832  221.4736 H   0  0  0  0  0  0  0  0  0  0  0  0
  138.1445   67.0636  223.4793 H   0  0  0  0  0  0  0  0  0  0  0  0
  139.6337   67.5697  222.6658 H   0  0  0  0  0  0  0  0  0  0  0  0
  140.1975   69.0939  224.4753 H   0  0  0  0  0  0  0  0  0  0  0  0
  140.3825   67.1883  227.0896 H   0  0  0  0  0  0  0  0  0  0  0  0
  141.1975   67.6778  225.5423 H   0  0  0  0  0  0  0  0  0  0  0  0
  139.2702   68.9508  228.4533 H   0  0  0  0  0  0  0  0  0  0  0  0
  139.5206   71.2828  229.2709 H   0  0  0  0  0  0  0  0  0  0  0  0
  140.9140   72.9297  228.0059 H   0  0  0  0  0  0  0  0  0  0  0  0
  142.0328   72.2039  225.9207 H   0  0  0  0  0  0  0  0  0  0  0  0
  141.7719   69.8981  225.1312 H   0  0  0  0  0  0  0  0  0  0  0  0
  137.2460   69.2798  225.1472 H   0  0  0  0  0  0  0  0  0  0  0  0
  138.4650   70.5201  225.3287 H   0  0  0  0  0  0  0  0  0  0  0  0
  137.5226   75.8686  222.3532 H   0  0  0  0  0  0  0  0  0  0  0  0
  137.3853   78.3171  222.6949 H   0  0  0  0  0  0  0  0  0  0  0  0
  138.5501   80.4815  222.9524 H   0  0  0  0  0  0  0  0  0  0  0  0
  142.8576   80.5383  222.7910 H   0  0  0  0  0  0  0  0  0  0  0  0
  142.8646   78.0902  222.4481 H   0  0  0  0  0  0  0  0  0  0  0  0
  1  2  2  0
  2  3  1  0
  3  4  1  0
  4  5  1  0
  5  6  2  0
  5  7  1  0
  7  8  1  0
  8  9  1  0
  9 10  1  0
 10 11  1  0
 11 12  1  0
 12 13  1  0
 13 14  2  0
 14 15  1  0
 15 16  2  0
 16 17  1  0
 17 18  2  0
 10 19  1  0
  2 20  1  0
 20 21  2  0
 21 22  1  0
 22 23  2  0
 23 24  1  0
 24 25  2  0
 25 26  1  0
 25 27  1  0
 27 28  2  0
 28 29  1  0
 29 30  2  0
 19  7  1  0
 30 20  1  0
 18 13  1  0
 29 23  1  0
  3 31  1  0
  4 32  1  0
  4 33  1  0
  8 34  1  0
  8 35  1  0
  9 36  1  0
  9 37  1  0
 10 38  1  6
 12 39  1  0
 12 40  1  0
 14 41  1  0
 15 42  1  0
 16 43  1  0
 17 44  1  0
 18 45  1  0
 19 46  1  0
 19 47  1  0
 21 48  1  0
 22 49  1  0
 24 50  1  0
 27 51  1  0
 28 52  1  0
M  END
>  <smiles>  (20) 
O=C(NCC(=O)N1CC[C@H](OCc2ccccc2)C1)c1ccc2cc(F)ccc2n1

>  <score_type>  (20) 
oracle

>  <origin>  (20) 
autodockgpu

>  <m_score__min__energy>  (20) 
-8.9900000000000002

>  <m_primary>  (20) 
energy

>  <rmsd>  (20) 
8.65197754615524

>  <m_score__min__rmsd>  (20) 
8.65197754615524

>  <meeko>  (20) 
{"free_energy": -8.99, "intermolecular_energy": -11.08, "internal_energy": -1.52, "cluster_size": 20, "cluster_id": 1, "rank_in_cluster": 1}

>  <energy>  (20) 
-7.84

>  <cluster_rmsd>  (20) 
1.5

>  <cluster>  (20) 
1

$$$$

     RDKit          3D

 52 55  0  0  0  0  0  0  0  0999 V2000
  137.8830   71.3430  222.2300 O   0  0  0  0  0  0  0  0  0  0  0  0
  138.9580   71.4910  222.8790 C   0  0  0  0  0  0  0  0  0  0  0  0
  139.9140   72.5070  222.5490 N   0  0  0  0  0  0  0  0  0  0  0  0
  139.5860   73.3620  221.4250 C   0  0  0  0  0  0  0  0  0  0  0  0
  140.0640   74.7480  221.6320 C   0  0  0  0  0  0  0  0  0  0  0  0
  141.2940   74.9770  221.5940 O   0  0  0  0  0  0  0  0  0  0  0  0
  139.0810   75.7490  221.8630 N   0  0  0  0  0  0  0  0  0  0  0  0
  137.6510   75.5880  222.0980 C   0  0  0  0  0  0  0  0  0  0  0  0
  137.2230   76.8850  222.7500 C   0  0  0  0  0  0  0  0  0  0  0  0
  138.4860   77.6810  222.9560 C   0  0  2  0  0  0  0  0  0  0  0  0
  138.1550   79.0380  222.7600 O   0  0  0  0  0  0  0  0  0  0  0  0
  138.8130   79.7320  223.7730 C   0  0  0  0  0  0  0  0  0  0  0  0
  140.2300   80.0030  223.4340 C   0  0  0  0  0  0  0  0  0  0  0  0
  140.5820   81.1220  222.7220 C   0  0  0  0  0  0  0  0  0  0  0  0
  141.9180   81.3640  222.4100 C   0  0  0  0  0  0  0  0  0  0  0  0
  142.9190   80.4800  222.8150 C   0  0  0  0  0  0  0  0  0  0  0  0
  142.5660   79.3720  223.5210 C   0  0  0  0  0  0  0  0  0  0  0  0
  141.2430   79.1490  223.8190 C   0  0  0  0  0  0  0  0  0  0  0  0
  139.4000   77.1650  221.8970 C   0  0  0  0  0  0  0  0  0  0  0  0
  139.2610   70.6160  224.0050 C   0  0  0  0  0  0  0  0  0  0  0  0
  138.9110   69.2780  223.9620 C   0  0  0  0  0  0  0  0  0  0  0  0
  139.1790   68.4070  225.0100 C   0  0  0  0  0  0  0  0  0  0  0  0
  139.8220   68.8860  226.1450 C   0  0  0  0  0  0  0  0  0  0  0  0
  140.1160   68.0620  227.2230 C   0  0  0  0  0  0  0  0  0  0  0  0
  140.7600   68.5880  228.3390 C   0  0  0  0  0  0  0  0  0  0  0  0
  141.0490   67.7900  229.3910 F   0  0  0  0  0  0  0  0  0  0  0  0
  141.1000   69.9320  228.3560 C   0  0  0  0  0  0  0  0  0  0  0  0
  140.7980   70.7360  227.2710 C   0  0  0  0  0  0  0  0  0  0  0  0
  140.1600   70.2300  226.1600 C   0  0  0  0  0  0  0  0  0  0  0  0
  139.8810   71.0370  225.1230 N   0  0  0  0  0  0  0  0  0  0  0  0
  140.7990   72.6120  223.0990 H   0  0  0  0  0  0  0  0  0  0  0  0
  140.0567   72.9545  220.5181 H   0  0  0  0  0  0  0  0  0  0  0  0
  138.4910   73.3890  221.3234 H   0  0  0  0  0  0  0  0  0  0  0  0
  137.1162   75.4355  221.1489 H   0  0  0  0  0  0  0  0  0  0  0  0
  137.4272   74.7122  222.7248 H   0  0  0  0  0  0  0  0  0  0  0  0
  136.5289   77.4317  222.0947 H   0  0  0  0  0  0  0  0  0  0  0  0
  136.6996   76.7053  223.7007 H   0  0  0  0  0  0  0  0  0  0  0  0
  138.9494   77.5925  223.9497 H   0  0  0  0  0  0  0  0  0  0  0  0
  138.2985   80.6901  223.9385 H   0  0  0  0  0  0  0  0  0  0  0  0
  138.7949   79.1074  224.6783 H   0  0  0  0  0  0  0  0  0  0  0  0
  139.8063   81.8307  222.3963 H   0  0  0  0  0  0  0  0  0  0  0  0
  142.1873   82.2635  221.8370 H   0  0  0  0  0  0  0  0  0  0  0  0
  143.9730   80.6753  222.5682 H   0  0  0  0  0  0  0  0  0  0  0  0
  143.3352   78.6585  223.8515 H   0  0  0  0  0  0  0  0  0  0  0  0
  140.9793   78.2474  224.3913 H   0  0  0  0  0  0  0  0  0  0  0  0
  139.1930   77.6417  220.9275 H   0  0  0  0  0  0  0  0  0  0  0  0
  140.4619   77.3687  222.0993 H   0  0  0  0  0  0  0  0  0  0  0  0
  138.4028   68.8907  223.0666 H   0  0  0  0  0  0  0  0  0  0  0  0
  138.8854   67.3491  224.9423 H   0  0  0  0  0  0  0  0  0  0  0  0
  139.8409   66.9973  227.1951 H   0  0  0  0  0  0  0  0  0  0  0  0
  141.6099   70.3592  229.2321 H   0  0  0  0  0  0  0  0  0  0  0  0
  141.0730   71.8008  227.2962 H   0  0  0  0  0  0  0  0  0  0  0  0
  1  2  2  0
  2  3  1  0
  3  4  1  0
  4  5  1  0
  5  6  2  0
  5  7  1  0
  7  8  1  0
  8  9  1  0
  9 10  1  0
 10 11  1  0
 11 12  1  0
 12 13  1  0
 13 14  2  0
 14 15  1  0
 15 16  2  0
 16 17  1  0
 17 18  2  0
 10 19  1  0
  2 20  1  0
 20 21  2  0
 21 22  1  0
 22 23  2  0
 23 24  1  0
 24 25  2  0
 25 26  1  0
 25 27  1  0
 27 28  2  0
 28 29  1  0
 29 30  2  0
 19  7  1  0
 30 20  1  0
 18 13  1  0
 29 23  1  0
  3 31  1  0
  4 32  1  0
  4 33  1  0
  8 34  1  0
  8 35  1  0
  9 36  1  0
  9 37  1  0
 10 38  1  1
 12 39  1  0
 12 40  1  0
 14 41  1  0
 15 42  1  0
 16 43  1  0
 17 44  1  0
 18 45  1  0
 19 46  1  0
 19 47  1  0
 21 48  1  0
 22 49  1  0
 24 50  1  0
 27 51  1  0
 28 52  1  0
M  END
>  <smiles>  (21) 
O=C(NCC(=O)N1CC[C@H](OCc2ccccc2)C1)c1ccc2cc(F)ccc2n1

>  <score_type>  (21) 
oracle

>  <origin>  (21) 
autodockgpu

>  <m_score__min__energy>  (21) 
-8.9900000000000002

>  <m_primary>  (21) 
energy

>  <rmsd>  (21) 
3.064529120634823

>  <m_score__min__rmsd>  (21) 
3.064529120634823

>  <meeko>  (21) 
{"free_energy": -8.21, "intermolecular_energy": -10.3, "internal_energy": -1.39, "cluster_size": 11, "cluster_id": 4, "rank_in_cluster": 6}

>  <energy>  (21) 
-8.86

>  <cluster_rmsd>  (21) 
0.0

>  <cluster>  (21) 
2

$$$$

     RDKit          3D

 52 55  0  0  0  0  0  0  0  0999 V2000
  135.8840   77.0910  221.9770 O   0  0  0  0  0  0  0  0  0  0  0  0
  137.0170   76.7940  222.4520 C   0  0  0  0  0  0  0  0  0  0  0  0
  137.4060   75.4370  222.7060 N   0  0  0  0  0  0  0  0  0  0  0  0
  136.4270   74.4150  222.3880 C   0  0  0  0  0  0  0  0  0  0  0  0
  136.9600   73.4260  221.4230 C   0  0  0  0  0  0  0  0  0  0  0  0
  136.2210   73.0250  220.4950 O   0  0  0  0  0  0  0  0  0  0  0  0
  138.3000   72.9870  221.6120 N   0  0  0  0  0  0  0  0  0  0  0  0
  139.5310   73.5530  221.0730 C   0  0  0  0  0  0  0  0  0  0  0  0
  140.6230   73.0120  221.9700 C   0  0  0  0  0  0  0  0  0  0  0  0
  139.9210   72.2440  223.0600 C   0  0  2  0  0  0  0  0  0  0  0  0
  140.7380   71.1390  223.3770 O   0  0  0  0  0  0  0  0  0  0  0  0
  140.0170   70.3990  224.3120 C   0  0  0  0  0  0  0  0  0  0  0  0
  140.3550   70.7780  225.7040 C   0  0  0  0  0  0  0  0  0  0  0  0
  141.1360   71.8750  225.9660 C   0  0  0  0  0  0  0  0  0  0  0  0
  141.4450   72.2200  227.2790 C   0  0  0  0  0  0  0  0  0  0  0  0
  140.9680   71.4610  228.3500 C   0  0  0  0  0  0  0  0  0  0  0  0
  140.1930   70.3740  228.0860 C   0  0  0  0  0  0  0  0  0  0  0  0
  139.8980   70.0490  226.7840 C   0  0  0  0  0  0  0  0  0  0  0  0
  138.6360   71.8330  222.4250 C   0  0  0  0  0  0  0  0  0  0  0  0
  137.9820   77.8430  222.7620 C   0  0  0  0  0  0  0  0  0  0  0  0
  137.5490   79.1280  223.0380 C   0  0  0  0  0  0  0  0  0  0  0  0
  138.4300   80.1580  223.3380 C   0  0  0  0  0  0  0  0  0  0  0  0
  139.7950   79.9000  223.3650 C   0  0  0  0  0  0  0  0  0  0  0  0
  140.7220   80.8910  223.6590 C   0  0  0  0  0  0  0  0  0  0  0  0
  142.0800   80.5850  223.6720 C   0  0  0  0  0  0  0  0  0  0  0  0
  142.9860   81.5460  223.9580 F   0  0  0  0  0  0  0  0  0  0  0  0
  142.4860   79.2890  223.3920 C   0  0  0  0  0  0  0  0  0  0  0  0
  141.5460   78.3170  223.1010 C   0  0  0  0  0  0  0  0  0  0  0  0
  140.2000   78.6050  223.0830 C   0  0  0  0  0  0  0  0  0  0  0  0
  139.3110   77.6380  222.7980 N   0  0  0  0  0  0  0  0  0  0  0  0
  138.3490   75.2120  223.1000 H   0  0  0  0  0  0  0  0  0  0  0  0
  136.1437   73.8927  223.3137 H   0  0  0  0  0  0  0  0  0  0  0  0
  135.5560   74.9059  221.9294 H   0  0  0  0  0  0  0  0  0  0  0  0
  139.6855   73.2281  220.0335 H   0  0  0  0  0  0  0  0  0  0  0  0
  139.5121   74.6527  221.0546 H   0  0  0  0  0  0  0  0  0  0  0  0
  141.2899   72.3467  221.4020 H   0  0  0  0  0  0  0  0  0  0  0  0
  141.2441   73.8209  222.3822 H   0  0  0  0  0  0  0  0  0  0  0  0
  139.7361   72.7981  223.9921 H   0  0  0  0  0  0  0  0  0  0  0  0
  138.9429   70.5712  224.1485 H   0  0  0  0  0  0  0  0  0  0  0  0
  140.2765   69.3386  224.1774 H   0  0  0  0  0  0  0  0  0  0  0  0
  141.5199   72.4848  225.1349 H   0  0  0  0  0  0  0  0  0  0  0  0
  142.0728   73.1016  227.4754 H   0  0  0  0  0  0  0  0  0  0  0  0
  141.2139   71.7364  229.3862 H   0  0  0  0  0  0  0  0  0  0  0  0
  139.8046   69.7586  228.9109 H   0  0  0  0  0  0  0  0  0  0  0  0
  139.2686   69.1673  226.5931 H   0  0  0  0  0  0  0  0  0  0  0  0
  138.7697   70.9352  221.8037 H   0  0  0  0  0  0  0  0  0  0  0  0
  137.8543   71.5681  223.1521 H   0  0  0  0  0  0  0  0  0  0  0  0
  136.4699   79.3405  223.0190 H   0  0  0  0  0  0  0  0  0  0  0  0
  138.0512   81.1683  223.5522 H   0  0  0  0  0  0  0  0  0  0  0  0
  140.3846   81.9142  223.8808 H   0  0  0  0  0  0  0  0  0  0  0  0
  143.5560   79.0339  223.4013 H   0  0  0  0  0  0  0  0  0  0  0  0
  141.8808   77.2929  222.8794 H   0  0  0  0  0  0  0  0  0  0  0  0
  1  2  2  0
  2  3  1  0
  3  4  1  0
  4  5  1  0
  5  6  2  0
  5  7  1  0
  7  8  1  0
  8  9  1  0
  9 10  1  0
 10 11  1  0
 11 12  1  0
 12 13  1  0
 13 14  2  0
 14 15  1  0
 15 16  2  0
 16 17  1  0
 17 18  2  0
 10 19  1  0
  2 20  1  0
 20 21  2  0
 21 22  1  0
 22 23  2  0
 23 24  1  0
 24 25  2  0
 25 26  1  0
 25 27  1  0
 27 28  2  0
 28 29  1  0
 29 30  2  0
 19  7  1  0
 30 20  1  0
 18 13  1  0
 29 23  1  0
  3 31  1  0
  4 32  1  0
  4 33  1  0
  8 34  1  0
  8 35  1  0
  9 36  1  0
  9 37  1  0
 10 38  1  1
 12 39  1  0
 12 40  1  0
 14 41  1  0
 15 42  1  0
 16 43  1  0
 17 44  1  0
 18 45  1  0
 19 46  1  0
 19 47  1  0
 21 48  1  0
 22 49  1  0
 24 50  1  0
 27 51  1  0
 28 52  1  0
M  END
>  <smiles>  (22) 
O=C(NCC(=O)N1CC[C@H](OCc2ccccc2)C1)c1ccc2cc(F)ccc2n1

>  <score_type>  (22) 
oracle

>  <origin>  (22) 
autodockgpu

>  <m_score__min__energy>  (22) 
-8.9900000000000002

>  <m_primary>  (22) 
energy

>  <rmsd>  (22) 
8.064042049588574

>  <m_score__min__rmsd>  (22) 
8.064042049588574

>  <meeko>  (22) 
{"free_energy": -7.98, "intermolecular_energy": -10.06, "internal_energy": -1.49, "cluster_size": 20, "cluster_id": 1, "rank_in_cluster": 17}

>  <energy>  (22) 
-7.84

>  <cluster_rmsd>  (22) 
1.29

>  <cluster>  (22) 
2

$$$$

     RDKit          3D

 52 55  0  0  0  0  0  0  0  0999 V2000
  138.0770   70.8570  221.9290 O   0  0  0  0  0  0  0  0  0  0  0  0
  138.8140   71.3030  222.8550 C   0  0  0  0  0  0  0  0  0  0  0  0
  139.3320   72.6400  222.8400 N   0  0  0  0  0  0  0  0  0  0  0  0
  138.9670   73.4610  221.7010 C   0  0  0  0  0  0  0  0  0  0  0  0
  139.6490   74.7750  221.7320 C   0  0  0  0  0  0  0  0  0  0  0  0
  140.8780   74.8150  221.9700 O   0  0  0  0  0  0  0  0  0  0  0  0
  138.8550   75.9290  221.4840 N   0  0  0  0  0  0  0  0  0  0  0  0
  137.4530   76.0040  221.0900 C   0  0  0  0  0  0  0  0  0  0  0  0
  137.0320   77.4130  221.4480 C   0  0  0  0  0  0  0  0  0  0  0  0
  138.2150   78.0340  222.1450 C   0  0  2  0  0  0  0  0  0  0  0  0
  138.2430   79.3950  221.7780 O   0  0  0  0  0  0  0  0  0  0  0  0
  138.6370   80.0820  222.9240 C   0  0  0  0  0  0  0  0  0  0  0  0
  140.1120   80.1830  223.0340 C   0  0  0  0  0  0  0  0  0  0  0  0
  140.8000   81.1800  222.3930 C   0  0  0  0  0  0  0  0  0  0  0  0
  142.1860   81.2630  222.5060 C   0  0  0  0  0  0  0  0  0  0  0  0
  142.8980   80.3370  223.2720 C   0  0  0  0  0  0  0  0  0  0  0  0
  142.2110   79.3490  223.9070 C   0  0  0  0  0  0  0  0  0  0  0  0
  140.8440   79.2840  223.7840 C   0  0  0  0  0  0  0  0  0  0  0  0
  139.3780   77.2770  221.5990 C   0  0  0  0  0  0  0  0  0  0  0  0
  139.1640   70.4540  223.9880 C   0  0  0  0  0  0  0  0  0  0  0  0
  138.8710   69.1020  223.9630 C   0  0  0  0  0  0  0  0  0  0  0  0
  139.1850   68.2560  225.0170 C   0  0  0  0  0  0  0  0  0  0  0  0
  139.8170   68.7740  226.1410 C   0  0  0  0  0  0  0  0  0  0  0  0
  140.1550   67.9760  227.2250 C   0  0  0  0  0  0  0  0  0  0  0  0
  140.7860   68.5400  228.3290 C   0  0  0  0  0  0  0  0  0  0  0  0
  141.1170   67.7670  229.3870 F   0  0  0  0  0  0  0  0  0  0  0  0
  141.0690   69.8980  228.3280 C   0  0  0  0  0  0  0  0  0  0  0  0
  140.7230   70.6760  227.2380 C   0  0  0  0  0  0  0  0  0  0  0  0
  140.0980   70.1320  226.1380 C   0  0  0  0  0  0  0  0  0  0  0  0
  139.7750   70.9140  225.0950 N   0  0  0  0  0  0  0  0  0  0  0  0
  139.9410   72.9900  223.6160 H   0  0  0  0  0  0  0  0  0  0  0  0
  139.2490   72.9347  220.7772 H   0  0  0  0  0  0  0  0  0  0  0  0
  137.8818   73.6369  221.7388 H   0  0  0  0  0  0  0  0  0  0  0  0
  137.3431   75.8283  220.0097 H   0  0  0  0  0  0  0  0  0  0  0  0
  136.8368   75.2437  221.5922 H   0  0  0  0  0  0  0  0  0  0  0  0
  136.7825   77.9802  220.5391 H   0  0  0  0  0  0  0  0  0  0  0  0
  136.1383   77.4164  222.0894 H   0  0  0  0  0  0  0  0  0  0  0  0
  138.2001   77.9880  223.2439 H   0  0  0  0  0  0  0  0  0  0  0  0
  138.2133   81.0966  222.8926 H   0  0  0  0  0  0  0  0  0  0  0  0
  138.2696   79.5230  223.7973 H   0  0  0  0  0  0  0  0  0  0  0  0
  140.2551   81.9183  221.7863 H   0  0  0  0  0  0  0  0  0  0  0  0
  142.7263   82.0676  221.9857 H   0  0  0  0  0  0  0  0  0  0  0  0
  143.9923   80.4052  223.3601 H   0  0  0  0  0  0  0  0  0  0  0  0
  142.7472   78.6061  224.5157 H   0  0  0  0  0  0  0  0  0  0  0  0
  140.3080   78.4785  224.3073 H   0  0  0  0  0  0  0  0  0  0  0  0
  139.6815   77.6698  220.6174 H   0  0  0  0  0  0  0  0  0  0  0  0
  140.2773   77.3442  222.2289 H   0  0  0  0  0  0  0  0  0  0  0  0
  138.3718   68.6833  223.0767 H   0  0  0  0  0  0  0  0  0  0  0  0
  138.9361   67.1859  224.9634 H   0  0  0  0  0  0  0  0  0  0  0  0
  139.9246   66.9005  227.2112 H   0  0  0  0  0  0  0  0  0  0  0  0
  141.5687   70.3562  229.1942 H   0  0  0  0  0  0  0  0  0  0  0  0
  140.9519   71.7519  227.2500 H   0  0  0  0  0  0  0  0  0  0  0  0
  1  2  2  0
  2  3  1  0
  3  4  1  0
  4  5  1  0
  5  6  2  0
  5  7  1  0
  7  8  1  0
  8  9  1  0
  9 10  1  0
 10 11  1  0
 11 12  1  0
 12 13  1  0
 13 14  2  0
 14 15  1  0
 15 16  2  0
 16 17  1  0
 17 18  2  0
 10 19  1  0
  2 20  1  0
 20 21  2  0
 21 22  1  0
 22 23  2  0
 23 24  1  0
 24 25  2  0
 25 26  1  0
 25 27  1  0
 27 28  2  0
 28 29  1  0
 29 30  2  0
 19  7  1  0
 30 20  1  0
 18 13  1  0
 29 23  1  0
  3 31  1  0
  4 32  1  0
  4 33  1  0
  8 34  1  0
  8 35  1  0
  9 36  1  0
  9 37  1  0
 10 38  1  1
 12 39  1  0
 12 40  1  0
 14 41  1  0
 15 42  1  0
 16 43  1  0
 17 44  1  0
 18 45  1  0
 19 46  1  0
 19 47  1  0
 21 48  1  0
 22 49  1  0
 24 50  1  0
 27 51  1  0
 28 52  1  0
M  END
>  <smiles>  (23) 
O=C(NCC(=O)N1CC[C@H](OCc2ccccc2)C1)c1ccc2cc(F)ccc2n1

>  <score_type>  (23) 
oracle

>  <origin>  (23) 
autodockgpu

>  <m_score__min__energy>  (23) 
-8.9900000000000002

>  <m_primary>  (23) 
energy

>  <rmsd>  (23) 
2.7756159698426615

>  <m_score__min__rmsd>  (23) 
2.7756159698426615

>  <meeko>  (23) 
{"free_energy": -8.2, "intermolecular_energy": -10.29, "internal_energy": -1.52, "cluster_size": 11, "cluster_id": 4, "rank_in_cluster": 7}

>  <energy>  (23) 
-8.85

>  <cluster_rmsd>  (23) 
0.0

>  <cluster>  (23) 
3

$$$$

     RDKit          3D

 52 55  0  0  0  0  0  0  0  0999 V2000
  139.6240   73.5950  222.4560 O   0  0  0  0  0  0  0  0  0  0  0  0
  140.0820   72.4210  222.3600 C   0  0  0  0  0  0  0  0  0  0  0  0
  140.6220   71.9120  221.1330 N   0  0  0  0  0  0  0  0  0  0  0  0
  140.6180   72.8180  220.0010 C   0  0  0  0  0  0  0  0  0  0  0  0
  141.9160   73.5160  219.8520 C   0  0  0  0  0  0  0  0  0  0  0  0
  142.9120   72.8680  219.4600 O   0  0  0  0  0  0  0  0  0  0  0  0
  141.9500   74.9030  220.1690 N   0  0  0  0  0  0  0  0  0  0  0  0
  142.9970   75.8780  219.8860 C   0  0  0  0  0  0  0  0  0  0  0  0
  142.3060   77.2200  219.9920 C   0  0  0  0  0  0  0  0  0  0  0  0
  140.8480   76.9180  220.2230 C   0  0  2  0  0  0  0  0  0  0  0  0
  140.3510   77.9150  221.0870 O   0  0  0  0  0  0  0  0  0  0  0  0
  141.0480   77.7540  222.2820 C   0  0  0  0  0  0  0  0  0  0  0  0
  141.4790   79.0520  222.8550 C   0  0  0  0  0  0  0  0  0  0  0  0
  142.8100   79.3640  222.9680 C   0  0  0  0  0  0  0  0  0  0  0  0
  143.2010   80.5870  223.5080 C   0  0  0  0  0  0  0  0  0  0  0  0
  142.2510   81.5150  223.9410 C   0  0  0  0  0  0  0  0  0  0  0  0
  140.9320   81.2010  223.8260 C   0  0  0  0  0  0  0  0  0  0  0  0
  140.5650   79.9900  223.2910 C   0  0  0  0  0  0  0  0  0  0  0  0
  140.8680   75.5720  220.8660 C   0  0  0  0  0  0  0  0  0  0  0  0
  140.0730   71.5310  223.5160 C   0  0  0  0  0  0  0  0  0  0  0  0
  139.5650   70.2490  223.4050 C   0  0  0  0  0  0  0  0  0  0  0  0
  139.5350   69.3680  224.4780 C   0  0  0  0  0  0  0  0  0  0  0  0
  140.0310   69.7790  225.7090 C   0  0  0  0  0  0  0  0  0  0  0  0
  140.0280   68.9410  226.8160 C   0  0  0  0  0  0  0  0  0  0  0  0
  140.5340   69.3970  228.0290 C   0  0  0  0  0  0  0  0  0  0  0  0
  140.5320   68.5860  229.1100 F   0  0  0  0  0  0  0  0  0  0  0  0
  141.0370   70.6870  228.1130 C   0  0  0  0  0  0  0  0  0  0  0  0
  141.0310   71.5050  226.9980 C   0  0  0  0  0  0  0  0  0  0  0  0
  140.5330   71.0680  225.7910 C   0  0  0  0  0  0  0  0  0  0  0  0
  140.5410   71.8870  224.7260 N   0  0  0  0  0  0  0  0  0  0  0  0
  140.9960   70.9350  221.0730 H   0  0  0  0  0  0  0  0  0  0  0  0
  140.4154   72.2432  219.0853 H   0  0  0  0  0  0  0  0  0  0  0  0
  139.8392   73.5759  220.1717 H   0  0  0  0  0  0  0  0  0  0  0  0
  143.8098   75.8002  220.6231 H   0  0  0  0  0  0  0  0  0  0  0  0
  143.4572   75.7220  218.8991 H   0  0  0  0  0  0  0  0  0  0  0  0
  142.7156   77.7955  220.8352 H   0  0  0  0  0  0  0  0  0  0  0  0
  142.4541   77.8228  219.0839 H   0  0  0  0  0  0  0  0  0  0  0  0
  140.2137   76.9126  219.3243 H   0  0  0  0  0  0  0  0  0  0  0  0
  140.3961   77.2450  223.0072 H   0  0  0  0  0  0  0  0  0  0  0  0
  141.9498   77.1604  222.0711 H   0  0  0  0  0  0  0  0  0  0  0  0
  143.5716   78.6455  222.6308 H   0  0  0  0  0  0  0  0  0  0  0  0
  144.2714   80.8250  223.5945 H   0  0  0  0  0  0  0  0  0  0  0  0
  142.5629   82.4803  224.3664 H   0  0  0  0  0  0  0  0  0  0  0  0
  140.1632   81.9134  224.1598 H   0  0  0  0  0  0  0  0  0  0  0  0
  139.4933   79.7571  223.2062 H   0  0  0  0  0  0  0  0  0  0  0  0
  141.0778   75.6497  221.9430 H   0  0  0  0  0  0  0  0  0  0  0  0
  139.9079   75.0398  220.7957 H   0  0  0  0  0  0  0  0  0  0  0  0
  139.1713   69.9161  222.4333 H   0  0  0  0  0  0  0  0  0  0  0  0
  139.1230   68.3556  224.3546 H   0  0  0  0  0  0  0  0  0  0  0  0
  139.6269   67.9200  226.7342 H   0  0  0  0  0  0  0  0  0  0  0  0
  141.4405   71.0592  229.0662 H   0  0  0  0  0  0  0  0  0  0  0  0
  141.4325   72.5261  227.0770 H   0  0  0  0  0  0  0  0  0  0  0  0
  1  2  2  0
  2  3  1  0
  3  4  1  0
  4  5  1  0
  5  6  2  0
  5  7  1  0
  7  8  1  0
  8  9  1  0
  9 10  1  0
 10 11  1  0
 11 12  1  0
 12 13  1  0
 13 14  2  0
 14 15  1  0
 15 16  2  0
 16 17  1  0
 17 18  2  0
 10 19  1  0
  2 20  1  0
 20 21  2  0
 21 22  1  0
 22 23  2  0
 23 24  1  0
 24 25  2  0
 25 26  1  0
 25 27  1  0
 27 28  2  0
 28 29  1  0
 29 30  2  0
 19  7  1  0
 30 20  1  0
 18 13  1  0
 29 23  1  0
  3 31  1  0
  4 32  1  0
  4 33  1  0
  8 34  1  0
  8 35  1  0
  9 36  1  0
  9 37  1  0
 10 38  1  6
 12 39  1  0
 12 40  1  0
 14 41  1  0
 15 42  1  0
 16 43  1  0
 17 44  1  0
 18 45  1  0
 19 46  1  0
 19 47  1  0
 21 48  1  0
 22 49  1  0
 24 50  1  0
 27 51  1  0
 28 52  1  0
M  END
>  <smiles>  (24) 
O=C(NCC(=O)N1CC[C@H](OCc2ccccc2)C1)c1ccc2cc(F)ccc2n1

>  <score_type>  (24) 
oracle

>  <origin>  (24) 
autodockgpu

>  <m_score__min__energy>  (24) 
-8.9900000000000002

>  <m_primary>  (24) 
energy

>  <rmsd>  (24) 
2.191792476754918

>  <m_score__min__rmsd>  (24) 
2.191792476754918

>  <meeko>  (24) 
{"free_energy": -8.51, "intermolecular_energy": -10.6, "internal_energy": -1.28, "cluster_size": 14, "cluster_id": 3, "rank_in_cluster": 5}

>  <energy>  (24) 
-8.73

>  <cluster_rmsd>  (24) 
0.74

>  <cluster>  (24) 
3

$$$$

     RDKit          3D

 52 55  0  0  0  0  0  0  0  0999 V2000
  140.2600   73.9570  222.3260 O   0  0  0  0  0  0  0  0  0  0  0  0
  139.7660   74.7980  221.5220 C   0  0  0  0  0  0  0  0  0  0  0  0
  138.8360   74.4190  220.4980 N   0  0  0  0  0  0  0  0  0  0  0  0
  138.4870   73.0130  220.4310 C   0  0  0  0  0  0  0  0  0  0  0  0
  137.3330   72.6920  221.3020 C   0  0  0  0  0  0  0  0  0  0  0  0
  136.1990   73.1220  220.9900 O   0  0  0  0  0  0  0  0  0  0  0  0
  137.5870   71.9020  222.4570 N   0  0  0  0  0  0  0  0  0  0  0  0
  136.7290   71.6740  223.6140 C   0  0  0  0  0  0  0  0  0  0  0  0
  137.2770   70.4150  224.2520 C   0  0  0  0  0  0  0  0  0  0  0  0
  138.3680   69.9270  223.3340 C   0  0  2  0  0  0  0  0  0  0  0  0
  139.3740   69.3680  224.1500 O   0  0  0  0  0  0  0  0  0  0  0  0
  140.3300   70.3700  224.3030 C   0  0  0  0  0  0  0  0  0  0  0  0
  140.4960   70.7710  225.7200 C   0  0  0  0  0  0  0  0  0  0  0  0
  139.9050   70.0520  226.7290 C   0  0  0  0  0  0  0  0  0  0  0  0
  140.0700   70.4400  228.0570 C   0  0  0  0  0  0  0  0  0  0  0  0
  140.8360   71.5600  228.3860 C   0  0  0  0  0  0  0  0  0  0  0  0
  141.4210   72.2690  227.3820 C   0  0  0  0  0  0  0  0  0  0  0  0
  141.2470   71.8720  226.0780 C   0  0  0  0  0  0  0  0  0  0  0  0
  138.8250   71.1680  222.6450 C   0  0  0  0  0  0  0  0  0  0  0  0
  140.1350   76.2060  221.6130 C   0  0  0  0  0  0  0  0  0  0  0  0
  139.8020   77.0810  220.5950 C   0  0  0  0  0  0  0  0  0  0  0  0
  140.1330   78.4290  220.6380 C   0  0  0  0  0  0  0  0  0  0  0  0
  140.8210   78.9260  221.7380 C   0  0  0  0  0  0  0  0  0  0  0  0
  141.1780   80.2640  221.8360 C   0  0  0  0  0  0  0  0  0  0  0  0
  141.8690   80.7150  222.9560 C   0  0  0  0  0  0  0  0  0  0  0  0
  142.2190   82.0160  223.0560 F   0  0  0  0  0  0  0  0  0  0  0  0
  142.1910   79.8160  223.9630 C   0  0  0  0  0  0  0  0  0  0  0  0
  141.8260   78.4870  223.8450 C   0  0  0  0  0  0  0  0  0  0  0  0
  141.1430   78.0260  222.7420 C   0  0  0  0  0  0  0  0  0  0  0  0
  140.8020   76.7290  222.6580 N   0  0  0  0  0  0  0  0  0  0  0  0
  138.4380   75.1310  219.8420 H   0  0  0  0  0  0  0  0  0  0  0  0
  138.2308   72.7586  219.3919 H   0  0  0  0  0  0  0  0  0  0  0  0
  139.3516   72.4286  220.7787 H   0  0  0  0  0  0  0  0  0  0  0  0
  136.7868   72.5209  224.3135 H   0  0  0  0  0  0  0  0  0  0  0  0
  135.6697   71.5739  223.3352 H   0  0  0  0  0  0  0  0  0  0  0  0
  137.6867   70.6382  225.2482 H   0  0  0  0  0  0  0  0  0  0  0  0
  136.4923   69.6558  224.3855 H   0  0  0  0  0  0  0  0  0  0  0  0
  138.0701   69.1612  222.6028 H   0  0  0  0  0  0  0  0  0  0  0  0
  141.2943   70.0010  223.9236 H   0  0  0  0  0  0  0  0  0  0  0  0
  139.9899   71.2513  223.7394 H   0  0  0  0  0  0  0  0  0  0  0  0
  139.2989   69.1662  226.4882 H   0  0  0  0  0  0  0  0  0  0  0  0
  139.5905   69.8563  228.8567 H   0  0  0  0  0  0  0  0  0  0  0  0
  140.9642   71.8634  229.4355 H   0  0  0  0  0  0  0  0  0  0  0  0
  142.0300   73.1553  227.6134 H   0  0  0  0  0  0  0  0  0  0  0  0
  141.7288   72.4592  225.2824 H   0  0  0  0  0  0  0  0  0  0  0  0
  139.5301   71.7333  223.2721 H   0  0  0  0  0  0  0  0  0  0  0  0
  139.3642   70.9731  221.7062 H   0  0  0  0  0  0  0  0  0  0  0  0
  139.2561   76.6959  219.7211 H   0  0  0  0  0  0  0  0  0  0  0  0
  139.8533   79.0965  219.8096 H   0  0  0  0  0  0  0  0  0  0  0  0
  140.9153   80.9655  221.0304 H   0  0  0  0  0  0  0  0  0  0  0  0
  142.7361   80.1600  224.8544 H   0  0  0  0  0  0  0  0  0  0  0  0
  142.0870   77.7836  224.6494 H   0  0  0  0  0  0  0  0  0  0  0  0
  1  2  2  0
  2  3  1  0
  3  4  1  0
  4  5  1  0
  5  6  2  0
  5  7  1  0
  7  8  1  0
  8  9  1  0
  9 10  1  0
 10 11  1  0
 11 12  1  0
 12 13  1  0
 13 14  2  0
 14 15  1  0
 15 16  2  0
 16 17  1  0
 17 18  2  0
 10 19  1  0
  2 20  1  0
 20 21  2  0
 21 22  1  0
 22 23  2  0
 23 24  1  0
 24 25  2  0
 25 26  1  0
 25 27  1  0
 27 28  2  0
 28 29  1  0
 29 30  2  0
 19  7  1  0
 30 20  1  0
 18 13  1  0
 29 23  1  0
  3 31  1  0
  4 32  1  0
  4 33  1  0
  8 34  1  0
  8 35  1  0
  9 36  1  0
  9 37  1  0
 10 38  1  6
 12 39  1  0
 12 40  1  0
 14 41  1  0
 15 42  1  0
 16 43  1  0
 17 44  1  0
 18 45  1  0
 19 46  1  0
 19 47  1  0
 21 48  1  0
 22 49  1  0
 24 50  1  0
 27 51  1  0
 28 52  1  0
M  END
>  <smiles>  (25) 
O=C(NCC(=O)N1CC[C@H](OCc2ccccc2)C1)c1ccc2cc(F)ccc2n1

>  <score_type>  (25) 
oracle

>  <origin>  (25) 
autodockgpu

>  <m_score__min__energy>  (25) 
-8.9900000000000002

>  <m_primary>  (25) 
energy

>  <rmsd>  (25) 
8.334250671169494

>  <m_score__min__rmsd>  (25) 
8.334250671169494

>  <meeko>  (25) 
{"free_energy": -7.84, "intermolecular_energy": -9.92, "internal_energy": -1.51, "cluster_size": 20, "cluster_id": 1, "rank_in_cluster": 20}

>  <energy>  (25) 
-8.66

>  <cluster_rmsd>  (25) 
0.32

>  <cluster>  (25) 
3

$$$$

     RDKit          3D

 52 55  0  0  0  0  0  0  0  0999 V2000
  139.5330   73.3420  222.7060 O   0  0  0  0  0  0  0  0  0  0  0  0
  140.1840   72.2600  222.6460 C   0  0  0  0  0  0  0  0  0  0  0  0
  140.9740   71.9070  221.5030 N   0  0  0  0  0  0  0  0  0  0  0  0
  140.9880   72.8610  220.4100 C   0  0  0  0  0  0  0  0  0  0  0  0
  142.3690   73.2230  220.0160 C   0  0  0  0  0  0  0  0  0  0  0  0
  143.1840   72.3100  219.7510 O   0  0  0  0  0  0  0  0  0  0  0  0
  142.6890   74.6080  219.9610 N   0  0  0  0  0  0  0  0  0  0  0  0
  143.9980   75.2370  219.8310 C   0  0  0  0  0  0  0  0  0  0  0  0
  143.7000   76.6380  219.3410 C   0  0  0  0  0  0  0  0  0  0  0  0
  142.2130   76.6870  219.1070 C   0  0  2  0  0  0  0  0  0  0  0  0
  141.7820   77.9830  219.4550 O   0  0  0  0  0  0  0  0  0  0  0  0
  141.0130   77.8250  220.6050 C   0  0  0  0  0  0  0  0  0  0  0  0
  141.5290   78.6330  221.7360 C   0  0  0  0  0  0  0  0  0  0  0  0
  142.1630   79.8290  221.5160 C   0  0  0  0  0  0  0  0  0  0  0  0
  142.6420   80.5770  222.5890 C   0  0  0  0  0  0  0  0  0  0  0  0
  142.4880   80.1270  223.9020 C   0  0  0  0  0  0  0  0  0  0  0  0
  141.8590   78.9400  224.1150 C   0  0  0  0  0  0  0  0  0  0  0  0
  141.3920   78.2160  223.0450 C   0  0  0  0  0  0  0  0  0  0  0  0
  141.6790   75.6470  220.0340 C   0  0  0  0  0  0  0  0  0  0  0  0
  140.1510   71.3200  223.7610 C   0  0  0  0  0  0  0  0  0  0  0  0
  139.6220   70.0540  223.5900 C   0  0  0  0  0  0  0  0  0  0  0  0
  139.5680   69.1260  224.6220 C   0  0  0  0  0  0  0  0  0  0  0  0
  140.0620   69.4730  225.8730 C   0  0  0  0  0  0  0  0  0  0  0  0
  140.0350   68.5860  226.9420 C   0  0  0  0  0  0  0  0  0  0  0  0
  140.5400   68.9790  228.1780 C   0  0  0  0  0  0  0  0  0  0  0  0
  140.5160   68.1200  229.2210 F   0  0  0  0  0  0  0  0  0  0  0  0
  141.0650   70.2540  228.3230 C   0  0  0  0  0  0  0  0  0  0  0  0
  141.0810   71.1210  227.2450 C   0  0  0  0  0  0  0  0  0  0  0  0
  140.5850   70.7480  226.0160 C   0  0  0  0  0  0  0  0  0  0  0  0
  140.6160   71.6140  224.9890 N   0  0  0  0  0  0  0  0  0  0  0  0
  141.5060   71.0060  221.4730 H   0  0  0  0  0  0  0  0  0  0  0  0
  140.4747   72.4181  219.5438 H   0  0  0  0  0  0  0  0  0  0  0  0
  140.4768   73.7751  220.7464 H   0  0  0  0  0  0  0  0  0  0  0  0
  144.5131   75.2665  220.8025 H   0  0  0  0  0  0  0  0  0  0  0  0
  144.6596   74.6868  219.1458 H   0  0  0  0  0  0  0  0  0  0  0  0
  143.9923   77.3788  220.0998 H   0  0  0  0  0  0  0  0  0  0  0  0
  144.2606   76.8725  218.4241 H   0  0  0  0  0  0  0  0  0  0  0  0
  141.8865   76.4953  218.0742 H   0  0  0  0  0  0  0  0  0  0  0  0
  139.9810   78.1376  220.3874 H   0  0  0  0  0  0  0  0  0  0  0  0
  141.0555   76.7656  220.8982 H   0  0  0  0  0  0  0  0  0  0  0  0
  142.2937   80.1990  220.4884 H   0  0  0  0  0  0  0  0  0  0  0  0
  143.1483   81.5350  222.3996 H   0  0  0  0  0  0  0  0  0  0  0  0
  142.8677   80.7204  224.7468 H   0  0  0  0  0  0  0  0  0  0  0  0
  141.7249   78.5616  225.1391 H   0  0  0  0  0  0  0  0  0  0  0  0
  140.8853   77.2594  223.2403 H   0  0  0  0  0  0  0  0  0  0  0  0
  141.5853   76.0382  221.0578 H   0  0  0  0  0  0  0  0  0  0  0  0
  140.6716   75.2970  219.7646 H   0  0  0  0  0  0  0  0  0  0  0  0
  139.2301   69.7718  222.6017 H   0  0  0  0  0  0  0  0  0  0  0  0
  139.1390   68.1277  224.4506 H   0  0  0  0  0  0  0  0  0  0  0  0
  139.6162   67.5772  226.8120 H   0  0  0  0  0  0  0  0  0  0  0  0
  141.4685   70.5760  229.2944 H   0  0  0  0  0  0  0  0  0  0  0  0
  141.4991   72.1304  227.3726 H   0  0  0  0  0  0  0  0  0  0  0  0
  1  2  2  0
  2  3  1  0
  3  4  1  0
  4  5  1  0
  5  6  2  0
  5  7  1  0
  7  8  1  0
  8  9  1  0
  9 10  1  0
 10 11  1  0
 11 12  1  0
 12 13  1  0
 13 14  2  0
 14 15  1  0
 15 16  2  0
 16 17  1  0
 17 18  2  0
 10 19  1  0
  2 20  1  0
 20 21  2  0
 21 22  1  0
 22 23  2  0
 23 24  1  0
 24 25  2  0
 25 26  1  0
 25 27  1  0
 27 28  2  0
 28 29  1  0
 29 30  2  0
 19  7  1  0
 30 20  1  0
 18 13  1  0
 29 23  1  0
  3 31  1  0
  4 32  1  0
  4 33  1  0
  8 34  1  0
  8 35  1  0
  9 36  1  0
  9 37  1  0
 10 38  1  6
 12 39  1  0
 12 40  1  0
 14 41  1  0
 15 42  1  0
 16 43  1  0
 17 44  1  0
 18 45  1  0
 19 46  1  0
 19 47  1  0
 21 48  1  0
 22 49  1  0
 24 50  1  0
 27 51  1  0
 28 52  1  0
M  END
>  <smiles>  (26) 
O=C(NCC(=O)N1CC[C@H](OCc2ccccc2)C1)c1ccc2cc(F)ccc2n1

>  <score_type>  (26) 
oracle

>  <origin>  (26) 
autodockgpu

>  <m_score__min__energy>  (26) 
-8.9900000000000002

>  <m_primary>  (26) 
energy

>  <rmsd>  (26) 
2.399968664664157

>  <m_score__min__rmsd>  (26) 
2.399968664664157

>  <meeko>  (26) 
{"free_energy": -8.3, "intermolecular_energy": -10.38, "internal_energy": -1.39, "cluster_size": 14, "cluster_id": 3, "rank_in_cluster": 8}

>  <energy>  (26) 
-8.63

>  <cluster_rmsd>  (26) 
0.67

>  <cluster>  (26) 
3

$$$$

     RDKit          3D

 52 55  0  0  0  0  0  0  0  0999 V2000
  139.0930   73.1120  221.9260 O   0  0  0  0  0  0  0  0  0  0  0  0
  140.0730   72.3700  222.2220 C   0  0  0  0  0  0  0  0  0  0  0  0
  141.2610   72.3210  221.4210 N   0  0  0  0  0  0  0  0  0  0  0  0
  141.2840   73.1710  220.2470 C   0  0  0  0  0  0  0  0  0  0  0  0
  141.9970   74.4430  220.5050 C   0  0  0  0  0  0  0  0  0  0  0  0
  143.2490   74.4540  220.4760 O   0  0  0  0  0  0  0  0  0  0  0  0
  141.2040   75.5930  220.7720 N   0  0  0  0  0  0  0  0  0  0  0  0
  140.4160   76.3950  219.8440 C   0  0  0  0  0  0  0  0  0  0  0  0
  139.4340   77.1410  220.7220 C   0  0  0  0  0  0  0  0  0  0  0  0
  139.6520   76.6200  222.1190 C   0  0  2  0  0  0  0  0  0  0  0  0
  139.4550   77.7040  222.9990 O   0  0  0  0  0  0  0  0  0  0  0  0
  139.7650   78.8450  222.2620 C   0  0  0  0  0  0  0  0  0  0  0  0
  140.9480   79.5540  222.8040 C   0  0  0  0  0  0  0  0  0  0  0  0
  142.2200   79.1500  222.4840 C   0  0  0  0  0  0  0  0  0  0  0  0
  143.3220   79.8270  223.0010 C   0  0  0  0  0  0  0  0  0  0  0  0
  143.1560   80.9240  223.8490 C   0  0  0  0  0  0  0  0  0  0  0  0
  141.8930   81.3210  224.1630 C   0  0  0  0  0  0  0  0  0  0  0  0
  140.8180   80.6420  223.6440 C   0  0  0  0  0  0  0  0  0  0  0  0
  141.0690   76.1570  222.1030 C   0  0  0  0  0  0  0  0  0  0  0  0
  140.0210   71.5250  223.4090 C   0  0  0  0  0  0  0  0  0  0  0  0
  139.3920   70.2940  223.3620 C   0  0  0  0  0  0  0  0  0  0  0  0
  139.3170   69.4560  224.4670 C   0  0  0  0  0  0  0  0  0  0  0  0
  139.8930   69.8590  225.6650 C   0  0  0  0  0  0  0  0  0  0  0  0
  139.8500   69.0620  226.8020 C   0  0  0  0  0  0  0  0  0  0  0  0
  140.4390   69.5090  227.9810 C   0  0  0  0  0  0  0  0  0  0  0  0
  140.4000   68.7380  229.0900 F   0  0  0  0  0  0  0  0  0  0  0  0
  141.0640   70.7470  228.0010 C   0  0  0  0  0  0  0  0  0  0  0  0
  141.0950   71.5240  226.8570 C   0  0  0  0  0  0  0  0  0  0  0  0
  140.5160   71.0960  225.6840 C   0  0  0  0  0  0  0  0  0  0  0  0
  140.5640   71.8750  224.5900 N   0  0  0  0  0  0  0  0  0  0  0  0
  142.0620   71.6990  221.6830 H   0  0  0  0  0  0  0  0  0  0  0  0
  141.7919   72.6371  219.4303 H   0  0  0  0  0  0  0  0  0  0  0  0
  140.2449   73.4095  219.9762 H   0  0  0  0  0  0  0  0  0  0  0  0
  141.0595   77.0991  219.2961 H   0  0  0  0  0  0  0  0  0  0  0  0
  139.9120   75.7791  219.0846 H   0  0  0  0  0  0  0  0  0  0  0  0
  139.6299   78.2227  220.6820 H   0  0  0  0  0  0  0  0  0  0  0  0
  138.3967   76.9864  220.3902 H   0  0  0  0  0  0  0  0  0  0  0  0
  138.9799   75.8088  222.4356 H   0  0  0  0  0  0  0  0  0  0  0  0
  139.9733   78.5504  221.2229 H   0  0  0  0  0  0  0  0  0  0  0  0
  138.9051   79.5287  222.3181 H   0  0  0  0  0  0  0  0  0  0  0  0
  142.3697   78.2884  221.8168 H   0  0  0  0  0  0  0  0  0  0  0  0
  144.3365   79.4931  222.7378 H   0  0  0  0  0  0  0  0  0  0  0  0
  144.0287   81.4565  224.2550 H   0  0  0  0  0  0  0  0  0  0  0  0
  141.7338   82.1816  224.8293 H   0  0  0  0  0  0  0  0  0  0  0  0
  139.8059   80.9809  223.9100 H   0  0  0  0  0  0  0  0  0  0  0  0
  141.7629   76.9977  222.2501 H   0  0  0  0  0  0  0  0  0  0  0  0
  141.3047   75.4432  222.9061 H   0  0  0  0  0  0  0  0  0  0  0  0
  138.9351   69.9673  222.4162 H   0  0  0  0  0  0  0  0  0  0  0  0
  138.8072   68.4840  224.3943 H   0  0  0  0  0  0  0  0  0  0  0  0
  139.3524   68.0815  226.7705 H   0  0  0  0  0  0  0  0  0  0  0  0
  141.5348   71.1108  228.9262 H   0  0  0  0  0  0  0  0  0  0  0  0
  141.5928   72.5045  226.8853 H   0  0  0  0  0  0  0  0  0  0  0  0
  1  2  2  0
  2  3  1  0
  3  4  1  0
  4  5  1  0
  5  6  2  0
  5  7  1  0
  7  8  1  0
  8  9  1  0
  9 10  1  0
 10 11  1  0
 11 12  1  0
 12 13  1  0
 13 14  2  0
 14 15  1  0
 15 16  2  0
 16 17  1  0
 17 18  2  0
 10 19  1  0
  2 20  1  0
 20 21  2  0
 21 22  1  0
 22 23  2  0
 23 24  1  0
 24 25  2  0
 25 26  1  0
 25 27  1  0
 27 28  2  0
 28 29  1  0
 29 30  2  0
 19  7  1  0
 30 20  1  0
 18 13  1  0
 29 23  1  0
  3 31  1  0
  4 32  1  0
  4 33  1  0
  8 34  1  0
  8 35  1  0
  9 36  1  0
  9 37  1  0
 10 38  1  1
 12 39  1  0
 12 40  1  0
 14 41  1  0
 15 42  1  0
 16 43  1  0
 17 44  1  0
 18 45  1  0
 19 46  1  0
 19 47  1  0
 21 48  1  0
 22 49  1  0
 24 50  1  0
 27 51  1  0
 28 52  1  0
M  END
>  <smiles>  (27) 
O=C(NCC(=O)N1CC[C@H](OCc2ccccc2)C1)c1ccc2cc(F)ccc2n1

>  <score_type>  (27) 
oracle

>  <origin>  (27) 
autodockgpu

>  <m_score__min__energy>  (27) 
-8.9900000000000002

>  <m_primary>  (27) 
energy

>  <rmsd>  (27) 
2.662132868114814

>  <m_score__min__rmsd>  (27) 
2.662132868114814

>  <meeko>  (27) 
{"free_energy": -7.9, "intermolecular_energy": -9.99, "internal_energy": -1.49, "cluster_size": 14, "cluster_id": 3, "rank_in_cluster": 13}

>  <energy>  (27) 
-8.51

>  <cluster_rmsd>  (27) 
0.48

>  <cluster>  (27) 
3

$$$$

     RDKit          3D

 52 55  0  0  0  0  0  0  0  0999 V2000
  133.4740   70.1750  226.7970 O   0  0  0  0  0  0  0  0  0  0  0  0
  133.5960   71.2360  226.1220 C   0  0  0  0  0  0  0  0  0  0  0  0
  134.2410   71.2560  224.8420 N   0  0  0  0  0  0  0  0  0  0  0  0
  134.7500   69.9880  224.3570 C   0  0  0  0  0  0  0  0  0  0  0  0
  135.9920   70.1600  223.5690 C   0  0  0  0  0  0  0  0  0  0  0  0
  136.0970   71.1510  222.8100 O   0  0  0  0  0  0  0  0  0  0  0  0
  137.0070   69.1750  223.7250 N   0  0  0  0  0  0  0  0  0  0  0  0
  137.4590   68.1710  222.7700 C   0  0  0  0  0  0  0  0  0  0  0  0
  138.8280   67.7600  223.2680 C   0  0  0  0  0  0  0  0  0  0  0  0
  139.1280   68.6580  224.4400 C   0  0  2  0  0  0  0  0  0  0  0  0
  139.8540   67.8900  225.3740 O   0  0  0  0  0  0  0  0  0  0  0  0
  139.4780   68.3720  226.6260 C   0  0  0  0  0  0  0  0  0  0  0  0
  140.0860   69.6920  226.9200 C   0  0  0  0  0  0  0  0  0  0  0  0
  139.8290   70.3380  228.1020 C   0  0  0  0  0  0  0  0  0  0  0  0
  140.4070   71.5780  228.3650 C   0  0  0  0  0  0  0  0  0  0  0  0
  141.2570   72.1830  227.4370 C   0  0  0  0  0  0  0  0  0  0  0  0
  141.5090   71.5380  226.2660 C   0  0  0  0  0  0  0  0  0  0  0  0
  140.9300   70.3160  226.0230 C   0  0  0  0  0  0  0  0  0  0  0  0
  137.7770   69.0340  224.9470 C   0  0  0  0  0  0  0  0  0  0  0  0
  133.0740   72.4970  226.6360 C   0  0  0  0  0  0  0  0  0  0  0  0
  131.9050   72.5180  227.3750 C   0  0  0  0  0  0  0  0  0  0  0  0
  131.3700   73.6940  227.8840 C   0  0  0  0  0  0  0  0  0  0  0  0
  132.0250   74.8970  227.6490 C   0  0  0  0  0  0  0  0  0  0  0  0
  131.5370   76.1030  228.1330 C   0  0  0  0  0  0  0  0  0  0  0  0
  132.2280   77.2830  227.8710 C   0  0  0  0  0  0  0  0  0  0  0  0
  131.7570   78.4600  228.3400 F   0  0  0  0  0  0  0  0  0  0  0  0
  133.3980   77.2340  227.1280 C   0  0  0  0  0  0  0  0  0  0  0  0
  133.8660   76.0210  226.6550 C   0  0  0  0  0  0  0  0  0  0  0  0
  133.1930   74.8460  226.9050 C   0  0  0  0  0  0  0  0  0  0  0  0
  133.6750   73.6840  226.4320 N   0  0  0  0  0  0  0  0  0  0  0  0
  134.3330   72.1460  224.2990 H   0  0  0  0  0  0  0  0  0  0  0  0
  134.9616   69.3364  225.2176 H   0  0  0  0  0  0  0  0  0  0  0  0
  133.9879   69.5414  223.7015 H   0  0  0  0  0  0  0  0  0  0  0  0
  136.7750   67.3096  222.7590 H   0  0  0  0  0  0  0  0  0  0  0  0
  137.4881   68.5575  221.7405 H   0  0  0  0  0  0  0  0  0  0  0  0
  138.8194   66.7068  223.5853 H   0  0  0  0  0  0  0  0  0  0  0  0
  139.5898   67.8560  222.4803 H   0  0  0  0  0  0  0  0  0  0  0  0
  139.7238   69.5545  224.2136 H   0  0  0  0  0  0  0  0  0  0  0  0
  138.3829   68.4716  226.6537 H   0  0  0  0  0  0  0  0  0  0  0  0
  139.8326   67.6587  227.3846 H   0  0  0  0  0  0  0  0  0  0  0  0
  139.1636   69.8751  228.8457 H   0  0  0  0  0  0  0  0  0  0  0  0
  140.1910   72.0870  229.3159 H   0  0  0  0  0  0  0  0  0  0  0  0
  141.7136   73.1612  227.6484 H   0  0  0  0  0  0  0  0  0  0  0  0
  142.1736   71.9930  225.5168 H   0  0  0  0  0  0  0  0  0  0  0  0
  141.1488   69.8117  225.0702 H   0  0  0  0  0  0  0  0  0  0  0  0
  137.3604   68.2445  225.5897 H   0  0  0  0  0  0  0  0  0  0  0  0
  137.7804   69.9415  225.5686 H   0  0  0  0  0  0  0  0  0  0  0  0
  131.3808   71.5700  227.5662 H   0  0  0  0  0  0  0  0  0  0  0  0
  130.4375   73.6736  228.4671 H   0  0  0  0  0  0  0  0  0  0  0  0
  130.6078   76.1263  228.7213 H   0  0  0  0  0  0  0  0  0  0  0  0
  133.9536   78.1591  226.9149 H   0  0  0  0  0  0  0  0  0  0  0  0
  134.7952   75.9947  226.0669 H   0  0  0  0  0  0  0  0  0  0  0  0
  1  2  2  0
  2  3  1  0
  3  4  1  0
  4  5  1  0
  5  6  2  0
  5  7  1  0
  7  8  1  0
  8  9  1  0
  9 10  1  0
 10 11  1  0
 11 12  1  0
 12 13  1  0
 13 14  2  0
 14 15  1  0
 15 16  2  0
 16 17  1  0
 17 18  2  0
 10 19  1  0
  2 20  1  0
 20 21  2  0
 21 22  1  0
 22 23  2  0
 23 24  1  0
 24 25  2  0
 25 26  1  0
 25 27  1  0
 27 28  2  0
 28 29  1  0
 29 30  2  0
 19  7  1  0
 30 20  1  0
 18 13  1  0
 29 23  1  0
  3 31  1  0
  4 32  1  0
  4 33  1  0
  8 34  1  0
  8 35  1  0
  9 36  1  0
  9 37  1  0
 10 38  1  6
 12 39  1  0
 12 40  1  0
 14 41  1  0
 15 42  1  0
 16 43  1  0
 17 44  1  0
 18 45  1  0
 19 46  1  0
 19 47  1  0
 21 48  1  0
 22 49  1  0
 24 50  1  0
 27 51  1  0
 28 52  1  0
M  END
>  <smiles>  (28) 
O=C(NCC(=O)N1CC[C@H](OCc2ccccc2)C1)c1ccc2cc(F)ccc2n1

>  <score_type>  (28) 
oracle

>  <origin>  (28) 
autodockgpu

>  <m_score__min__energy>  (28) 
-8.9900000000000002

>  <m_primary>  (28) 
energy

>  <rmsd>  (28) 
9.201176985506345

>  <m_score__min__rmsd>  (28) 
9.201176985506345

>  <meeko>  (28) 
{"free_energy": -8.42, "intermolecular_energy": -10.51, "internal_energy": -1.35, "cluster_size": 3, "cluster_id": 5, "rank_in_cluster": 3}

>  <energy>  (28) 
-8.47

>  <cluster_rmsd>  (28) 
0.89

>  <cluster>  (28) 
3

$$$$

     RDKit          3D

 52 55  0  0  0  0  0  0  0  0999 V2000
  140.6950   73.8110  221.9910 O   0  0  0  0  0  0  0  0  0  0  0  0
  139.6240   74.4760  222.0800 C   0  0  0  0  0  0  0  0  0  0  0  0
  138.3330   73.8580  221.9840 N   0  0  0  0  0  0  0  0  0  0  0  0
  138.3180   72.4230  221.7790 C   0  0  0  0  0  0  0  0  0  0  0  0
  137.1810   71.7810  222.4760 C   0  0  0  0  0  0  0  0  0  0  0  0
  136.0140   72.0920  222.1480 O   0  0  0  0  0  0  0  0  0  0  0  0
  137.4890   70.8340  223.4920 N   0  0  0  0  0  0  0  0  0  0  0  0
  136.6140   70.2780  224.5170 C   0  0  0  0  0  0  0  0  0  0  0  0
  137.3120   69.0130  224.9690 C   0  0  0  0  0  0  0  0  0  0  0  0
  138.5140   68.8610  224.0720 C   0  0  2  0  0  0  0  0  0  0  0  0
  139.5470   68.3080  224.8570 O   0  0  0  0  0  0  0  0  0  0  0  0
  139.2430   68.6540  226.1720 C   0  0  0  0  0  0  0  0  0  0  0  0
  140.0070   69.8410  226.6270 C   0  0  0  0  0  0  0  0  0  0  0  0
  140.8990   70.4660  225.7930 C   0  0  0  0  0  0  0  0  0  0  0  0
  141.6090   71.5800  226.2340 C   0  0  0  0  0  0  0  0  0  0  0  0
  141.4280   72.0800  227.5260 C   0  0  0  0  0  0  0  0  0  0  0  0
  140.5410   71.4560  228.3490 C   0  0  0  0  0  0  0  0  0  0  0  0
  139.8500   70.3590  227.8960 C   0  0  0  0  0  0  0  0  0  0  0  0
  138.8130   70.2600  223.6500 C   0  0  0  0  0  0  0  0  0  0  0  0
  139.6700   75.9190  222.2870 C   0  0  0  0  0  0  0  0  0  0  0  0
  138.5040   76.6280  222.5150 C   0  0  0  0  0  0  0  0  0  0  0  0
  138.4990   78.0020  222.7160 C   0  0  0  0  0  0  0  0  0  0  0  0
  139.7010   78.6970  222.6900 C   0  0  0  0  0  0  0  0  0  0  0  0
  139.7570   80.0710  222.8860 C   0  0  0  0  0  0  0  0  0  0  0  0
  140.9850   80.7240  222.8500 C   0  0  0  0  0  0  0  0  0  0  0  0
  141.0450   82.0610  223.0390 F   0  0  0  0  0  0  0  0  0  0  0  0
  142.1390   79.9900  222.6200 C   0  0  0  0  0  0  0  0  0  0  0  0
  142.0610   78.6220  222.4280 C   0  0  0  0  0  0  0  0  0  0  0  0
  140.8530   77.9610  222.4600 C   0  0  0  0  0  0  0  0  0  0  0  0
  140.8110   76.6320  222.2700 N   0  0  0  0  0  0  0  0  0  0  0  0
  137.4570   74.4270  222.0600 H   0  0  0  0  0  0  0  0  0  0  0  0
  138.2369   72.2179  220.7013 H   0  0  0  0  0  0  0  0  0  0  0  0
  139.2500   72.0086  222.1908 H   0  0  0  0  0  0  0  0  0  0  0  0
  136.5026   70.9810  225.3557 H   0  0  0  0  0  0  0  0  0  0  0  0
  135.5997   70.0827  224.1388 H   0  0  0  0  0  0  0  0  0  0  0  0
  137.6272   69.1042  226.0189 H   0  0  0  0  0  0  0  0  0  0  0  0
  136.6466   68.1395  224.9040 H   0  0  0  0  0  0  0  0  0  0  0  0
  138.3774   68.2092  223.1965 H   0  0  0  0  0  0  0  0  0  0  0  0
  138.1679   68.8763  226.2409 H   0  0  0  0  0  0  0  0  0  0  0  0
  139.5173   67.8066  226.8175 H   0  0  0  0  0  0  0  0  0  0  0  0
  141.0540   70.0860  224.7724 H   0  0  0  0  0  0  0  0  0  0  0  0
  142.3216   72.0727  225.5562 H   0  0  0  0  0  0  0  0  0  0  0  0
  141.9907   72.9599  227.8712 H   0  0  0  0  0  0  0  0  0  0  0  0
  140.3787   71.8284  229.3712 H   0  0  0  0  0  0  0  0  0  0  0  0
  139.1378   69.8703  228.5771 H   0  0  0  0  0  0  0  0  0  0  0  0
  139.3873   70.7933  224.4219 H   0  0  0  0  0  0  0  0  0  0  0  0
  139.4270   70.3201  222.7393 H   0  0  0  0  0  0  0  0  0  0  0  0
  137.5479   76.0845  222.5378 H   0  0  0  0  0  0  0  0  0  0  0  0
  137.5529   78.5343  222.8939 H   0  0  0  0  0  0  0  0  0  0  0  0
  138.8340   80.6406  223.0690 H   0  0  0  0  0  0  0  0  0  0  0  0
  143.1157   80.4951  222.5902 H   0  0  0  0  0  0  0  0  0  0  0  0
  142.9830   78.0503  222.2460 H   0  0  0  0  0  0  0  0  0  0  0  0
  1  2  2  0
  2  3  1  0
  3  4  1  0
  4  5  1  0
  5  6  2  0
  5  7  1  0
  7  8  1  0
  8  9  1  0
  9 10  1  0
 10 11  1  0
 11 12  1  0
 12 13  1  0
 13 14  2  0
 14 15  1  0
 15 16  2  0
 16 17  1  0
 17 18  2  0
 10 19  1  0
  2 20  1  0
 20 21  2  0
 21 22  1  0
 22 23  2  0
 23 24  1  0
 24 25  2  0
 25 26  1  0
 25 27  1  0
 27 28  2  0
 28 29  1  0
 29 30  2  0
 19  7  1  0
 30 20  1  0
 18 13  1  0
 29 23  1  0
  3 31  1  0
  4 32  1  0
  4 33  1  0
  8 34  1  0
  8 35  1  0
  9 36  1  0
  9 37  1  0
 10 38  1  6
 12 39  1  0
 12 40  1  0
 14 41  1  0
 15 42  1  0
 16 43  1  0
 17 44  1  0
 18 45  1  0
 19 46  1  0
 19 47  1  0
 21 48  1  0
 22 49  1  0
 24 50  1  0
 27 51  1  0
 28 52  1  0
M  END
>  <smiles>  (29) 
O=C(NCC(=O)N1CC[C@H](OCc2ccccc2)C1)c1ccc2cc(F)ccc2n1

>  <score_type>  (29) 
oracle

>  <origin>  (29) 
autodockgpu

>  <m_score__min__energy>  (29) 
-8.9900000000000002

>  <m_primary>  (29) 
energy

>  <rmsd>  (29) 
8.637950493874103

>  <m_score__min__rmsd>  (29) 
8.637950493874103

>  <meeko>  (29) 
{"free_energy": -8.03, "intermolecular_energy": -10.12, "internal_energy": -1.3, "cluster_size": 20, "cluster_id": 1, "rank_in_cluster": 16}

>  <energy>  (29) 
-8.4

>  <cluster_rmsd>  (29) 
1.45

>  <cluster>  (29) 
3

$$$$

     RDKit          3D

 52 55  0  0  0  0  0  0  0  0999 V2000
  141.2540   73.9620  220.5320 O   0  0  0  0  0  0  0  0  0  0  0  0
  140.4900   74.1000  221.5300 C   0  0  0  0  0  0  0  0  0  0  0  0
  140.0080   72.9780  222.2810 N   0  0  0  0  0  0  0  0  0  0  0  0
  140.4440   71.6680  221.8370 C   0  0  0  0  0  0  0  0  0  0  0  0
  139.3260   70.6970  221.8140 C   0  0  0  0  0  0  0  0  0  0  0  0
  138.8790   70.3120  220.7090 O   0  0  0  0  0  0  0  0  0  0  0  0
  138.8220   70.2530  223.0680 N   0  0  0  0  0  0  0  0  0  0  0  0
  137.5810   70.6270  223.7360 C   0  0  0  0  0  0  0  0  0  0  0  0
  137.3410   69.5190  224.7400 C   0  0  0  0  0  0  0  0  0  0  0  0
  138.4240   68.5000  224.4980 C   0  0  2  0  0  0  0  0  0  0  0  0
  138.7710   67.9610  225.7540 O   0  0  0  0  0  0  0  0  0  0  0  0
  140.0890   68.3510  225.9760 C   0  0  0  0  0  0  0  0  0  0  0  0
  140.1750   69.5820  226.7990 C   0  0  0  0  0  0  0  0  0  0  0  0
  139.4540   69.7050  227.9590 C   0  0  0  0  0  0  0  0  0  0  0  0
  139.5450   70.8670  228.7220 C   0  0  0  0  0  0  0  0  0  0  0  0
  140.3680   71.9230  228.3240 C   0  0  0  0  0  0  0  0  0  0  0  0
  141.0820   71.7960  227.1720 C   0  0  0  0  0  0  0  0  0  0  0  0
  140.9790   70.6420  226.4320 C   0  0  0  0  0  0  0  0  0  0  0  0
  139.5310   69.3020  223.9030 C   0  0  0  0  0  0  0  0  0  0  0  0
  140.0690   75.4300  221.9540 C   0  0  0  0  0  0  0  0  0  0  0  0
  138.7240   75.7550  221.9960 C   0  0  0  0  0  0  0  0  0  0  0  0
  138.2760   77.0080  222.3920 C   0  0  0  0  0  0  0  0  0  0  0  0
  139.2020   77.9750  222.7620 C   0  0  0  0  0  0  0  0  0  0  0  0
  138.8120   79.2450  223.1670 C   0  0  0  0  0  0  0  0  0  0  0  0
  139.7760   80.1820  223.5270 C   0  0  0  0  0  0  0  0  0  0  0  0
  139.4010   81.4190  223.9220 F   0  0  0  0  0  0  0  0  0  0  0  0
  141.1160   79.8310  223.4760 C   0  0  0  0  0  0  0  0  0  0  0  0
  141.4830   78.5600  223.0690 C   0  0  0  0  0  0  0  0  0  0  0  0
  140.5410   77.6230  222.7100 C   0  0  0  0  0  0  0  0  0  0  0  0
  140.9300   76.3970  222.3190 N   0  0  0  0  0  0  0  0  0  0  0  0
  139.3750   73.1130  223.1050 H   0  0  0  0  0  0  0  0  0  0  0  0
  140.8607   71.7558  220.8228 H   0  0  0  0  0  0  0  0  0  0  0  0
  141.2022   71.3011  222.5445 H   0  0  0  0  0  0  0  0  0  0  0  0
  137.6904   71.5959  224.2452 H   0  0  0  0  0  0  0  0  0  0  0  0
  136.7445   70.7404  223.0307 H   0  0  0  0  0  0  0  0  0  0  0  0
  137.4071   69.9112  225.7656 H   0  0  0  0  0  0  0  0  0  0  0  0
  136.3395   69.0790  224.6239 H   0  0  0  0  0  0  0  0  0  0  0  0
  138.1520   67.6612  223.8405 H   0  0  0  0  0  0  0  0  0  0  0  0
  140.6165   67.5384  226.4969 H   0  0  0  0  0  0  0  0  0  0  0  0
  140.5487   68.5633  224.9995 H   0  0  0  0  0  0  0  0  0  0  0  0
  138.8013   68.8830  228.2882 H   0  0  0  0  0  0  0  0  0  0  0  0
  138.9610   70.9540  229.6501 H   0  0  0  0  0  0  0  0  0  0  0  0
  140.4378   72.8388  228.9293 H   0  0  0  0  0  0  0  0  0  0  0  0
  141.7378   72.6123  226.8350 H   0  0  0  0  0  0  0  0  0  0  0  0
  141.5645   70.5597  225.5044 H   0  0  0  0  0  0  0  0  0  0  0  0
  140.1127   69.8152  224.6829 H   0  0  0  0  0  0  0  0  0  0  0  0
  140.2617   68.6943  223.3491 H   0  0  0  0  0  0  0  0  0  0  0  0
  137.9846   74.9941  221.7056 H   0  0  0  0  0  0  0  0  0  0  0  0
  137.1994   77.2326  222.4125 H   0  0  0  0  0  0  0  0  0  0  0  0
  137.7448   79.5093  223.2031 H   0  0  0  0  0  0  0  0  0  0  0  0
  141.8875   80.5623  223.7589 H   0  0  0  0  0  0  0  0  0  0  0  0
  142.5495   78.2933  223.0317 H   0  0  0  0  0  0  0  0  0  0  0  0
  1  2  2  0
  2  3  1  0
  3  4  1  0
  4  5  1  0
  5  6  2  0
  5  7  1  0
  7  8  1  0
  8  9  1  0
  9 10  1  0
 10 11  1  0
 11 12  1  0
 12 13  1  0
 13 14  2  0
 14 15  1  0
 15 16  2  0
 16 17  1  0
 17 18  2  0
 10 19  1  0
  2 20  1  0
 20 21  2  0
 21 22  1  0
 22 23  2  0
 23 24  1  0
 24 25  2  0
 25 26  1  0
 25 27  1  0
 27 28  2  0
 28 29  1  0
 29 30  2  0
 19  7  1  0
 30 20  1  0
 18 13  1  0
 29 23  1  0
  3 31  1  0
  4 32  1  0
  4 33  1  0
  8 34  1  0
  8 35  1  0
  9 36  1  0
  9 37  1  0
 10 38  1  6
 12 39  1  0
 12 40  1  0
 14 41  1  0
 15 42  1  0
 16 43  1  0
 17 44  1  0
 18 45  1  0
 19 46  1  0
 19 47  1  0
 21 48  1  0
 22 49  1  0
 24 50  1  0
 27 51  1  0
 28 52  1  0
M  END
>  <smiles>  (30) 
O=C(NCC(=O)N1CC[C@H](OCc2ccccc2)C1)c1ccc2cc(F)ccc2n1

>  <score_type>  (30) 
oracle

>  <origin>  (30) 
autodockgpu

>  <m_score__min__energy>  (30) 
-8.9900000000000002

>  <m_primary>  (30) 
energy

>  <rmsd>  (30) 
8.300023105403154

>  <m_score__min__rmsd>  (30) 
8.300023105403154

>  <meeko>  (30) 
{"free_energy": -8.34, "intermolecular_energy": -10.43, "internal_energy": -1.27, "cluster_size": 20, "cluster_id": 1, "rank_in_cluster": 10}

>  <energy>  (30) 
-8.3

>  <cluster_rmsd>  (30) 
0.77

>  <cluster>  (30) 
3

$$$$

     RDKit          3D

 52 55  0  0  0  0  0  0  0  0999 V2000
  141.6140   73.4520  220.6260 O   0  0  0  0  0  0  0  0  0  0  0  0
  140.9050   74.2210  221.3370 C   0  0  0  0  0  0  0  0  0  0  0  0
  139.8230   73.7340  222.1410 N   0  0  0  0  0  0  0  0  0  0  0  0
  139.5800   72.3050  222.0990 C   0  0  0  0  0  0  0  0  0  0  0  0
  138.1970   71.9720  222.5100 C   0  0  0  0  0  0  0  0  0  0  0  0
  137.2400   72.5570  221.9520 O   0  0  0  0  0  0  0  0  0  0  0  0
  138.0370   70.9910  223.5280 N   0  0  0  0  0  0  0  0  0  0  0  0
  136.8450   70.6660  224.3030 C   0  0  0  0  0  0  0  0  0  0  0  0
  137.1110   69.2790  224.8470 C   0  0  0  0  0  0  0  0  0  0  0  0
  138.4200   68.8410  224.2410 C   0  0  2  0  0  0  0  0  0  0  0  0
  139.0890   68.0720  225.2150 O   0  0  0  0  0  0  0  0  0  0  0  0
  140.2870   68.7390  225.4590 C   0  0  0  0  0  0  0  0  0  0  0  0
  140.1670   69.7130  226.5700 C   0  0  0  0  0  0  0  0  0  0  0  0
  140.8490   70.9030  226.5420 C   0  0  0  0  0  0  0  0  0  0  0  0
  140.7260   71.8080  227.5930 C   0  0  0  0  0  0  0  0  0  0  0  0
  139.9110   71.5240  228.6910 C   0  0  0  0  0  0  0  0  0  0  0  0
  139.2360   70.3430  228.7150 C   0  0  0  0  0  0  0  0  0  0  0  0
  139.3690   69.4620  227.6680 C   0  0  0  0  0  0  0  0  0  0  0  0
  139.1200   70.1260  223.9570 C   0  0  0  0  0  0  0  0  0  0  0  0
  141.1730   75.6550  221.3590 C   0  0  0  0  0  0  0  0  0  0  0  0
  141.8380   76.2560  220.3060 C   0  0  0  0  0  0  0  0  0  0  0  0
  142.1150   77.6170  220.2830 C   0  0  0  0  0  0  0  0  0  0  0  0
  141.7150   78.4090  221.3510 C   0  0  0  0  0  0  0  0  0  0  0  0
  141.9650   79.7750  221.3830 C   0  0  0  0  0  0  0  0  0  0  0  0
  141.5460   80.5280  222.4760 C   0  0  0  0  0  0  0  0  0  0  0  0
  141.7860   81.8580  222.5120 F   0  0  0  0  0  0  0  0  0  0  0  0
  140.8810   79.9010  223.5190 C   0  0  0  0  0  0  0  0  0  0  0  0
  140.6430   78.5390  223.4670 C   0  0  0  0  0  0  0  0  0  0  0  0
  141.0520   77.7800  222.3930 C   0  0  0  0  0  0  0  0  0  0  0  0
  140.8050   76.4600  222.3720 N   0  0  0  0  0  0  0  0  0  0  0  0
  139.2470   74.3880  222.7230 H   0  0  0  0  0  0  0  0  0  0  0  0
  139.7429   71.9458  221.0721 H   0  0  0  0  0  0  0  0  0  0  0  0
  140.2728   71.8187  222.8015 H   0  0  0  0  0  0  0  0  0  0  0  0
  136.7071   71.3854  225.1237 H   0  0  0  0  0  0  0  0  0  0  0  0
  135.9283   70.7079  223.6964 H   0  0  0  0  0  0  0  0  0  0  0  0
  137.1875   69.3065  225.9440 H   0  0  0  0  0  0  0  0  0  0  0  0
  136.2968   68.5836  224.5951 H   0  0  0  0  0  0  0  0  0  0  0  0
  138.3435   68.2284  223.3306 H   0  0  0  0  0  0  0  0  0  0  0  0
  141.0586   67.9990  225.7179 H   0  0  0  0  0  0  0  0  0  0  0  0
  140.5565   69.2950  224.5489 H   0  0  0  0  0  0  0  0  0  0  0  0
  141.4959   71.1433  225.6854 H   0  0  0  0  0  0  0  0  0  0  0  0
  141.2779   72.7589  227.5580 H   0  0  0  0  0  0  0  0  0  0  0  0
  139.8167   72.2409  229.5199 H   0  0  0  0  0  0  0  0  0  0  0  0
  138.5872   70.0943  229.5677 H   0  0  0  0  0  0  0  0  0  0  0  0
  138.8138   68.5132  227.7071 H   0  0  0  0  0  0  0  0  0  0  0  0
  139.6081   70.5199  224.8606 H   0  0  0  0  0  0  0  0  0  0  0  0
  139.9234   70.0300  223.2118 H   0  0  0  0  0  0  0  0  0  0  0  0
  142.1588   75.6346  219.4569 H   0  0  0  0  0  0  0  0  0  0  0  0
  142.6453   78.0623  219.4283 H   0  0  0  0  0  0  0  0  0  0  0  0
  142.4920   80.2597  220.5479 H   0  0  0  0  0  0  0  0  0  0  0  0
  140.5430   80.4861  224.3870 H   0  0  0  0  0  0  0  0  0  0  0  0
  140.1161   78.0522  224.3009 H   0  0  0  0  0  0  0  0  0  0  0  0
  1  2  2  0
  2  3  1  0
  3  4  1  0
  4  5  1  0
  5  6  2  0
  5  7  1  0
  7  8  1  0
  8  9  1  0
  9 10  1  0
 10 11  1  0
 11 12  1  0
 12 13  1  0
 13 14  2  0
 14 15  1  0
 15 16  2  0
 16 17  1  0
 17 18  2  0
 10 19  1  0
  2 20  1  0
 20 21  2  0
 21 22  1  0
 22 23  2  0
 23 24  1  0
 24 25  2  0
 25 26  1  0
 25 27  1  0
 27 28  2  0
 28 29  1  0
 29 30  2  0
 19  7  1  0
 30 20  1  0
 18 13  1  0
 29 23  1  0
  3 31  1  0
  4 32  1  0
  4 33  1  0
  8 34  1  0
  8 35  1  0
  9 36  1  0
  9 37  1  0
 10 38  1  6
 12 39  1  0
 12 40  1  0
 14 41  1  0
 15 42  1  0
 16 43  1  0
 17 44  1  0
 18 45  1  0
 19 46  1  0
 19 47  1  0
 21 48  1  0
 22 49  1  0
 24 50  1  0
 27 51  1  0
 28 52  1  0
M  END
>  <smiles>  (31) 
O=C(NCC(=O)N1CC[C@H](OCc2ccccc2)C1)c1ccc2cc(F)ccc2n1

>  <score_type>  (31) 
oracle

>  <origin>  (31) 
autodockgpu

>  <m_score__min__energy>  (31) 
-8.9900000000000002

>  <m_primary>  (31) 
energy

>  <rmsd>  (31) 
8.693465078253123

>  <m_score__min__rmsd>  (31) 
8.693465078253123

>  <meeko>  (31) 
{"free_energy": -8.29, "intermolecular_energy": -10.38, "internal_energy": -1.34, "cluster_size": 20, "cluster_id": 1, "rank_in_cluster": 12}

>  <energy>  (31) 
-8.23

>  <cluster_rmsd>  (31) 
1.9

>  <cluster>  (31) 
3

$$$$

     RDKit          3D

 52 55  0  0  0  0  0  0  0  0999 V2000
  141.4800   71.5150  221.5320 O   0  0  0  0  0  0  0  0  0  0  0  0
  140.6040   71.9520  222.3320 C   0  0  0  0  0  0  0  0  0  0  0  0
  139.8820   73.1650  222.0840 N   0  0  0  0  0  0  0  0  0  0  0  0
  140.2070   73.8710  220.8600 C   0  0  0  0  0  0  0  0  0  0  0  0
  141.5590   74.4720  220.9160 C   0  0  0  0  0  0  0  0  0  0  0  0
  141.7850   75.3820  221.7470 O   0  0  0  0  0  0  0  0  0  0  0  0
  142.5350   73.9700  220.0100 N   0  0  0  0  0  0  0  0  0  0  0  0
  142.5870   74.1040  218.5590 C   0  0  0  0  0  0  0  0  0  0  0  0
  144.0320   73.8260  218.2030 C   0  0  0  0  0  0  0  0  0  0  0  0
  144.7560   73.6590  219.5140 C   0  0  2  0  0  0  0  0  0  0  0  0
  145.7460   72.6740  219.3160 O   0  0  0  0  0  0  0  0  0  0  0  0
  145.2200   71.8020  218.3650 C   0  0  0  0  0  0  0  0  0  0  0  0
  145.1600   70.4070  218.8620 C   0  0  0  0  0  0  0  0  0  0  0  0
  143.9720   69.8530  219.2650 C   0  0  0  0  0  0  0  0  0  0  0  0
  143.9300   68.5400  219.7290 C   0  0  0  0  0  0  0  0  0  0  0  0
  145.0910   67.7660  219.7920 C   0  0  0  0  0  0  0  0  0  0  0  0
  146.2670   68.3190  219.3910 C   0  0  0  0  0  0  0  0  0  0  0  0
  146.2890   69.6160  218.9360 C   0  0  0  0  0  0  0  0  0  0  0  0
  143.6870   73.2040  220.4480 C   0  0  0  0  0  0  0  0  0  0  0  0
  140.2980   71.2200  223.5560 C   0  0  0  0  0  0  0  0  0  0  0  0
  139.5630   70.0490  223.5030 C   0  0  0  0  0  0  0  0  0  0  0  0
  139.2470   69.3200  224.6410 C   0  0  0  0  0  0  0  0  0  0  0  0
  139.6800   69.7720  225.8810 C   0  0  0  0  0  0  0  0  0  0  0  0
  139.3940   69.0840  227.0530 C   0  0  0  0  0  0  0  0  0  0  0  0
  139.8480   69.5770  228.2720 C   0  0  0  0  0  0  0  0  0  0  0  0
  139.5730   68.9110  229.4150 F   0  0  0  0  0  0  0  0  0  0  0  0
  140.5840   70.7530  228.2970 C   0  0  0  0  0  0  0  0  0  0  0  0
  140.8570   71.4230  227.1190 C   0  0  0  0  0  0  0  0  0  0  0  0
  140.4140   70.9480  225.9050 C   0  0  0  0  0  0  0  0  0  0  0  0
  140.6960   71.6220  224.7770 N   0  0  0  0  0  0  0  0  0  0  0  0
  139.1600   73.5100  222.7600 H   0  0  0  0  0  0  0  0  0  0  0  0
  140.1662   73.1633  220.0189 H   0  0  0  0  0  0  0  0  0  0  0  0
  139.4765   74.6828  220.7285 H   0  0  0  0  0  0  0  0  0  0  0  0
  141.9206   73.3734  218.0771 H   0  0  0  0  0  0  0  0  0  0  0  0
  142.2564   75.0965  218.2190 H   0  0  0  0  0  0  0  0  0  0  0  0
  144.1083   72.9065  217.6040 H   0  0  0  0  0  0  0  0  0  0  0  0
  144.4642   74.6412  217.6041 H   0  0  0  0  0  0  0  0  0  0  0  0
  145.2558   74.5592  219.9010 H   0  0  0  0  0  0  0  0  0  0  0  0
  144.2026   72.1307  218.1064 H   0  0  0  0  0  0  0  0  0  0  0  0
  145.8805   71.8207  217.4856 H   0  0  0  0  0  0  0  0  0  0  0  0
  143.0479   70.4481  219.2217 H   0  0  0  0  0  0  0  0  0  0  0  0
  142.9707   68.1076  220.0497 H   0  0  0  0  0  0  0  0  0  0  0  0
  145.0549   66.7296  220.1587 H   0  0  0  0  0  0  0  0  0  0  0  0
  147.1960   67.7313  219.4306 H   0  0  0  0  0  0  0  0  0  0  0  0
  147.2508   70.0434  218.6161 H   0  0  0  0  0  0  0  0  0  0  0  0
  143.5064   72.1235  220.3483 H   0  0  0  0  0  0  0  0  0  0  0  0
  143.9376   73.3591  221.5078 H   0  0  0  0  0  0  0  0  0  0  0  0
  139.2171   69.6831  222.5250 H   0  0  0  0  0  0  0  0  0  0  0  0
  138.6595   68.3934  224.5617 H   0  0  0  0  0  0  0  0  0  0  0  0
  138.8104   68.1523  227.0175 H   0  0  0  0  0  0  0  0  0  0  0  0
  140.9503   71.1522  229.2543 H   0  0  0  0  0  0  0  0  0  0  0  0
  141.4403   72.3550  227.1523 H   0  0  0  0  0  0  0  0  0  0  0  0
  1  2  2  0
  2  3  1  0
  3  4  1  0
  4  5  1  0
  5  6  2  0
  5  7  1  0
  7  8  1  0
  8  9  1  0
  9 10  1  0
 10 11  1  0
 11 12  1  0
 12 13  1  0
 13 14  2  0
 14 15  1  0
 15 16  2  0
 16 17  1  0
 17 18  2  0
 10 19  1  0
  2 20  1  0
 20 21  2  0
 21 22  1  0
 22 23  2  0
 23 24  1  0
 24 25  2  0
 25 26  1  0
 25 27  1  0
 27 28  2  0
 28 29  1  0
 29 30  2  0
 19  7  1  0
 30 20  1  0
 18 13  1  0
 29 23  1  0
  3 31  1  0
  4 32  1  0
  4 33  1  0
  8 34  1  0
  8 35  1  0
  9 36  1  0
  9 37  1  0
 10 38  1  1
 12 39  1  0
 12 40  1  0
 14 41  1  0
 15 42  1  0
 16 43  1  0
 17 44  1  0
 18 45  1  0
 19 46  1  0
 19 47  1  0
 21 48  1  0
 22 49  1  0
 24 50  1  0
 27 51  1  0
 28 52  1  0
M  END
>  <smiles>  (32) 
O=C(NCC(=O)N1CC[C@H](OCc2ccccc2)C1)c1ccc2cc(F)ccc2n1

>  <score_type>  (32) 
oracle

>  <origin>  (32) 
autodockgpu

>  <m_score__min__energy>  (32) 
-8.9900000000000002

>  <m_primary>  (32) 
energy

>  <rmsd>  (32) 
2.9658454549341364

>  <m_score__min__rmsd>  (32) 
2.9658454549341364

>  <meeko>  (32) 
{"free_energy": -7.84, "intermolecular_energy": -9.93, "internal_energy": -1.56, "cluster_size": 2, "cluster_id": 2, "rank_in_cluster": 2}

>  <energy>  (32) 
-8.21

>  <cluster_rmsd>  (32) 
1.33

>  <cluster>  (32) 
3

$$$$

     RDKit          3D

 52 55  0  0  0  0  0  0  0  0999 V2000
  136.1400   74.4600  221.3320 O   0  0  0  0  0  0  0  0  0  0  0  0
  137.2450   74.5190  221.9440 C   0  0  0  0  0  0  0  0  0  0  0  0
  137.9600   73.3420  222.3430 N   0  0  0  0  0  0  0  0  0  0  0  0
  137.3490   72.0710  222.0070 C   0  0  0  0  0  0  0  0  0  0  0  0
  136.8780   71.3530  223.2130 C   0  0  0  0  0  0  0  0  0  0  0  0
  136.0130   71.8910  223.9410 O   0  0  0  0  0  0  0  0  0  0  0  0
  137.4450   70.0740  223.4740 N   0  0  0  0  0  0  0  0  0  0  0  0
  137.8830   69.0590  222.5240 C   0  0  0  0  0  0  0  0  0  0  0  0
  138.8170   68.1710  223.3190 C   0  0  0  0  0  0  0  0  0  0  0  0
  138.9470   68.8170  224.6740 C   0  0  2  0  0  0  0  0  0  0  0  0
  139.0550   67.7760  225.6190 O   0  0  0  0  0  0  0  0  0  0  0  0
  140.2900   67.9570  226.2360 C   0  0  0  0  0  0  0  0  0  0  0  0
  140.4680   69.3430  226.7310 C   0  0  0  0  0  0  0  0  0  0  0  0
  139.8520   69.7640  227.8830 C   0  0  0  0  0  0  0  0  0  0  0  0
  140.0280   71.0690  228.3360 C   0  0  0  0  0  0  0  0  0  0  0  0
  140.8310   71.9700  227.6330 C   0  0  0  0  0  0  0  0  0  0  0  0
  141.4390   71.5480  226.4910 C   0  0  0  0  0  0  0  0  0  0  0  0
  141.2540   70.2570  226.0590 C   0  0  0  0  0  0  0  0  0  0  0  0
  137.6760   69.5830  224.8200 C   0  0  0  0  0  0  0  0  0  0  0  0
  137.8350   75.8130  222.2690 C   0  0  0  0  0  0  0  0  0  0  0  0
  137.0260   76.9110  222.4970 C   0  0  0  0  0  0  0  0  0  0  0  0
  137.5420   78.1620  222.8090 C   0  0  0  0  0  0  0  0  0  0  0  0
  138.9190   78.3250  222.8980 C   0  0  0  0  0  0  0  0  0  0  0  0
  139.4920   79.5510  223.2070 C   0  0  0  0  0  0  0  0  0  0  0  0
  140.8770   79.6670  223.2830 C   0  0  0  0  0  0  0  0  0  0  0  0
  141.4400   80.8590  223.5830 F   0  0  0  0  0  0  0  0  0  0  0  0
  141.6660   78.5510  223.0500 C   0  0  0  0  0  0  0  0  0  0  0  0
  141.0740   77.3380  222.7440 C   0  0  0  0  0  0  0  0  0  0  0  0
  139.7060   77.2080  222.6640 C   0  0  0  0  0  0  0  0  0  0  0  0
  139.1620   76.0170  222.3650 N   0  0  0  0  0  0  0  0  0  0  0  0
  138.8730   73.4130  222.8500 H   0  0  0  0  0  0  0  0  0  0  0  0
  136.4912   72.2526  221.3427 H   0  0  0  0  0  0  0  0  0  0  0  0
  138.1071   71.4470  221.5111 H   0  0  0  0  0  0  0  0  0  0  0  0
  137.0248   68.4825  222.1482 H   0  0  0  0  0  0  0  0  0  0  0  0
  138.3730   69.4966  221.6417 H   0  0  0  0  0  0  0  0  0  0  0  0
  138.3939   67.1603  223.4160 H   0  0  0  0  0  0  0  0  0  0  0  0
  139.7945   68.0681  222.8251 H   0  0  0  0  0  0  0  0  0  0  0  0
  139.8173   69.4765  224.8065 H   0  0  0  0  0  0  0  0  0  0  0  0
  140.3665   67.2639  227.0867 H   0  0  0  0  0  0  0  0  0  0  0  0
  141.0737   67.7605  225.4896 H   0  0  0  0  0  0  0  0  0  0  0  0
  139.2169   69.0679  228.4506 H   0  0  0  0  0  0  0  0  0  0  0  0
  139.5278   71.3947  229.2600 H   0  0  0  0  0  0  0  0  0  0  0  0
  140.9691   72.9995  227.9950 H   0  0  0  0  0  0  0  0  0  0  0  0
  142.0755   72.2372  225.9166 H   0  0  0  0  0  0  0  0  0  0  0  0
  141.7559   69.9368  225.1341 H   0  0  0  0  0  0  0  0  0  0  0  0
  136.8548   68.9301  225.1508 H   0  0  0  0  0  0  0  0  0  0  0  0
  137.7314   70.3825  225.5735 H   0  0  0  0  0  0  0  0  0  0  0  0
  135.9349   76.7892  222.4288 H   0  0  0  0  0  0  0  0  0  0  0  0
  136.8684   79.0139  222.9837 H   0  0  0  0  0  0  0  0  0  0  0  0
  138.8538   80.4278  223.3912 H   0  0  0  0  0  0  0  0  0  0  0  0
  142.7616   78.6296  223.1083 H   0  0  0  0  0  0  0  0  0  0  0  0
  141.7100   76.4594  222.5609 H   0  0  0  0  0  0  0  0  0  0  0  0
  1  2  2  0
  2  3  1  0
  3  4  1  0
  4  5  1  0
  5  6  2  0
  5  7  1  0
  7  8  1  0
  8  9  1  0
  9 10  1  0
 10 11  1  0
 11 12  1  0
 12 13  1  0
 13 14  2  0
 14 15  1  0
 15 16  2  0
 16 17  1  0
 17 18  2  0
 10 19  1  0
  2 20  1  0
 20 21  2  0
 21 22  1  0
 22 23  2  0
 23 24  1  0
 24 25  2  0
 25 26  1  0
 25 27  1  0
 27 28  2  0
 28 29  1  0
 29 30  2  0
 19  7  1  0
 30 20  1  0
 18 13  1  0
 29 23  1  0
  3 31  1  0
  4 32  1  0
  4 33  1  0
  8 34  1  0
  8 35  1  0
  9 36  1  0
  9 37  1  0
 10 38  1  6
 12 39  1  0
 12 40  1  0
 14 41  1  0
 15 42  1  0
 16 43  1  0
 17 44  1  0
 18 45  1  0
 19 46  1  0
 19 47  1  0
 21 48  1  0
 22 49  1  0
 24 50  1  0
 27 51  1  0
 28 52  1  0
M  END
>  <smiles>  (33) 
O=C(NCC(=O)N1CC[C@H](OCc2ccccc2)C1)c1ccc2cc(F)ccc2n1

>  <score_type>  (33) 
oracle

>  <origin>  (33) 
autodockgpu

>  <m_score__min__energy>  (33) 
-8.9900000000000002

>  <m_primary>  (33) 
energy

>  <rmsd>  (33) 
8.45134209742838

>  <m_score__min__rmsd>  (33) 
8.45134209742838

>  <meeko>  (33) 
{"free_energy": -8.43, "intermolecular_energy": -10.52, "internal_energy": -1.37, "cluster_size": 20, "cluster_id": 1, "rank_in_cluster": 7}

>  <energy>  (33) 
-8.17

>  <cluster_rmsd>  (33) 
0.92

>  <cluster>  (33) 
3

$$$$

     RDKit          3D

 52 55  0  0  0  0  0  0  0  0999 V2000
  140.0340   70.7380  221.6410 O   0  0  0  0  0  0  0  0  0  0  0  0
  139.9640   71.5270  222.6260 C   0  0  0  0  0  0  0  0  0  0  0  0
  139.6440   72.9160  222.4690 N   0  0  0  0  0  0  0  0  0  0  0  0
  139.4030   73.3740  221.1150 C   0  0  0  0  0  0  0  0  0  0  0  0
  140.6540   73.4270  220.3230 C   0  0  0  0  0  0  0  0  0  0  0  0
  141.0110   72.4120  219.6840 O   0  0  0  0  0  0  0  0  0  0  0  0
  141.3820   74.6490  220.3370 N   0  0  0  0  0  0  0  0  0  0  0  0
  142.7670   74.8900  219.9500 C   0  0  0  0  0  0  0  0  0  0  0  0
  142.8400   76.3820  219.7020 C   0  0  0  0  0  0  0  0  0  0  0  0
  141.4320   76.8950  219.8560 C   0  0  2  0  0  0  0  0  0  0  0  0
  141.5210   78.1770  220.4370 O   0  0  0  0  0  0  0  0  0  0  0  0
  141.4260   77.9710  221.8120 C   0  0  0  0  0  0  0  0  0  0  0  0
  141.7110   79.2060  222.5810 C   0  0  0  0  0  0  0  0  0  0  0  0
  142.9730   79.4670  223.0510 C   0  0  0  0  0  0  0  0  0  0  0  0
  143.2270   80.6320  223.7720 C   0  0  0  0  0  0  0  0  0  0  0  0
  142.2080   81.5510  224.0280 C   0  0  0  0  0  0  0  0  0  0  0  0
  140.9580   81.2880  223.5600 C   0  0  0  0  0  0  0  0  0  0  0  0
  140.7260   80.1340  222.8510 C   0  0  0  0  0  0  0  0  0  0  0  0
  140.7960   75.9040  220.7720 C   0  0  0  0  0  0  0  0  0  0  0  0
  140.2120   71.0380  223.9780 C   0  0  0  0  0  0  0  0  0  0  0  0
  140.7140   71.8890  224.9460 C   0  0  0  0  0  0  0  0  0  0  0  0
  140.9660   71.4680  226.2450 C   0  0  0  0  0  0  0  0  0  0  0  0
  140.7070   70.1490  226.5940 C   0  0  0  0  0  0  0  0  0  0  0  0
  140.9390   69.6720  227.8780 C   0  0  0  0  0  0  0  0  0  0  0  0
  140.6660   68.3420  228.1810 C   0  0  0  0  0  0  0  0  0  0  0  0
  140.8900   67.8730  229.4280 F   0  0  0  0  0  0  0  0  0  0  0  0
  140.1620   67.5100  227.1920 C   0  0  0  0  0  0  0  0  0  0  0  0
  139.9380   68.0050  225.9200 C   0  0  0  0  0  0  0  0  0  0  0  0
  140.2050   69.3180  225.6040 C   0  0  0  0  0  0  0  0  0  0  0  0
  139.9760   69.7690  224.3590 N   0  0  0  0  0  0  0  0  0  0  0  0
  139.5920   73.5530  223.2980 H   0  0  0  0  0  0  0  0  0  0  0  0
  138.7001   72.6841  220.6252 H   0  0  0  0  0  0  0  0  0  0  0  0
  138.9866   74.3908  221.1663 H   0  0  0  0  0  0  0  0  0  0  0  0
  143.4528   74.5967  220.7585 H   0  0  0  0  0  0  0  0  0  0  0  0
  143.0610   74.3052  219.0659 H   0  0  0  0  0  0  0  0  0  0  0  0
  143.5041   76.8601  220.4371 H   0  0  0  0  0  0  0  0  0  0  0  0
  143.2449   76.6064  218.7042 H   0  0  0  0  0  0  0  0  0  0  0  0
  140.8555   76.9916  218.9242 H   0  0  0  0  0  0  0  0  0  0  0  0
  140.4072   77.6317  222.0504 H   0  0  0  0  0  0  0  0  0  0  0  0
  142.1741   77.2155  222.0942 H   0  0  0  0  0  0  0  0  0  0  0  0
  143.7878   78.7537  222.8579 H   0  0  0  0  0  0  0  0  0  0  0  0
  144.2431   80.8299  224.1440 H   0  0  0  0  0  0  0  0  0  0  0  0
  142.4118   82.4700  224.5971 H   0  0  0  0  0  0  0  0  0  0  0  0
  140.1371   81.9956  223.7482 H   0  0  0  0  0  0  0  0  0  0  0  0
  139.7080   79.9410  222.4816 H   0  0  0  0  0  0  0  0  0  0  0  0
  141.0461   76.1162  221.8220 H   0  0  0  0  0  0  0  0  0  0  0  0
  139.6969   75.9116  220.7295 H   0  0  0  0  0  0  0  0  0  0  0  0
  140.9208   72.9355  224.6775 H   0  0  0  0  0  0  0  0  0  0  0  0
  141.3665   72.1717  226.9896 H   0  0  0  0  0  0  0  0  0  0  0  0
  141.3373   70.3438  228.6526 H   0  0  0  0  0  0  0  0  0  0  0  0
  139.9405   66.4568  227.4193 H   0  0  0  0  0  0  0  0  0  0  0  0
  139.5380   67.3353  225.1444 H   0  0  0  0  0  0  0  0  0  0  0  0
  1  2  2  0
  2  3  1  0
  3  4  1  0
  4  5  1  0
  5  6  2  0
  5  7  1  0
  7  8  1  0
  8  9  1  0
  9 10  1  0
 10 11  1  0
 11 12  1  0
 12 13  1  0
 13 14  2  0
 14 15  1  0
 15 16  2  0
 16 17  1  0
 17 18  2  0
 10 19  1  0
  2 20  1  0
 20 21  2  0
 21 22  1  0
 22 23  2  0
 23 24  1  0
 24 25  2  0
 25 26  1  0
 25 27  1  0
 27 28  2  0
 28 29  1  0
 29 30  2  0
 19  7  1  0
 30 20  1  0
 18 13  1  0
 29 23  1  0
  3 31  1  0
  4 32  1  0
  4 33  1  0
  8 34  1  0
  8 35  1  0
  9 36  1  0
  9 37  1  0
 10 38  1  6
 12 39  1  0
 12 40  1  0
 14 41  1  0
 15 42  1  0
 16 43  1  0
 17 44  1  0
 18 45  1  0
 19 46  1  0
 19 47  1  0
 21 48  1  0
 22 49  1  0
 24 50  1  0
 27 51  1  0
 28 52  1  0
M  END
>  <smiles>  (34) 
O=C(NCC(=O)N1CC[C@H](OCc2ccccc2)C1)c1ccc2cc(F)ccc2n1

>  <score_type>  (34) 
oracle

>  <origin>  (34) 
autodockgpu

>  <m_score__min__energy>  (34) 
-8.9900000000000002

>  <m_primary>  (34) 
energy

>  <rmsd>  (34) 
2.9223072443324187

>  <m_score__min__rmsd>  (34) 
2.9223072443324187

>  <meeko>  (34) 
{"free_energy": -8.4, "intermolecular_energy": -10.49, "internal_energy": -1.11, "cluster_size": 14, "cluster_id": 3, "rank_in_cluster": 7}

>  <energy>  (34) 
-8.04

>  <cluster_rmsd>  (34) 
1.09

>  <cluster>  (34) 
3

$$$$

     RDKit          3D

 52 55  0  0  0  0  0  0  0  0999 V2000
  140.8290   71.8660  221.8980 O   0  0  0  0  0  0  0  0  0  0  0  0
  139.8750   71.8460  222.7280 C   0  0  0  0  0  0  0  0  0  0  0  0
  138.7420   72.7160  222.6070 N   0  0  0  0  0  0  0  0  0  0  0  0
  138.7450   73.6270  221.4790 C   0  0  0  0  0  0  0  0  0  0  0  0
  139.5380   74.8450  221.7590 C   0  0  0  0  0  0  0  0  0  0  0  0
  140.7740   74.7380  221.9280 O   0  0  0  0  0  0  0  0  0  0  0  0
  138.8370   76.0810  221.8180 N   0  0  0  0  0  0  0  0  0  0  0  0
  137.4090   76.3290  221.6590 C   0  0  0  0  0  0  0  0  0  0  0  0
  137.1850   77.6860  222.2940 C   0  0  0  0  0  0  0  0  0  0  0  0
  138.5090   78.0860  222.8910 C   0  0  2  0  0  0  0  0  0  0  0  0
  138.6230   79.4840  222.7410 O   0  0  0  0  0  0  0  0  0  0  0  0
  139.6810   79.6790  221.8560 C   0  0  0  0  0  0  0  0  0  0  0  0
  140.9230   80.0900  222.5530 C   0  0  0  0  0  0  0  0  0  0  0  0
  140.9280   81.1610  223.4100 C   0  0  0  0  0  0  0  0  0  0  0  0
  142.1030   81.5350  224.0580 C   0  0  0  0  0  0  0  0  0  0  0  0
  143.2910   80.8310  223.8510 C   0  0  0  0  0  0  0  0  0  0  0  0
  143.2800   79.7690  223.0010 C   0  0  0  0  0  0  0  0  0  0  0  0
  142.1120   79.4140  222.3700 C   0  0  0  0  0  0  0  0  0  0  0  0
  139.5040   77.3470  222.0620 C   0  0  0  0  0  0  0  0  0  0  0  0
  139.9000   70.9190  223.8530 C   0  0  0  0  0  0  0  0  0  0  0  0
  139.3320   69.6630  223.7350 C   0  0  0  0  0  0  0  0  0  0  0  0
  139.3320   68.7470  224.7790 C   0  0  0  0  0  0  0  0  0  0  0  0
  139.9200   69.0950  225.9880 C   0  0  0  0  0  0  0  0  0  0  0  0
  139.9500   68.2210  227.0660 C   0  0  0  0  0  0  0  0  0  0  0  0
  140.5500   68.6150  228.2590 C   0  0  0  0  0  0  0  0  0  0  0  0
  140.5810   67.7670  229.3120 F   0  0  0  0  0  0  0  0  0  0  0  0
  141.1120   69.8790  228.3510 C   0  0  0  0  0  0  0  0  0  0  0  0
  141.0710   70.7350  227.2650 C   0  0  0  0  0  0  0  0  0  0  0  0
  140.4810   70.3600  226.0790 C   0  0  0  0  0  0  0  0  0  0  0  0
  140.4580   71.2140  225.0420 N   0  0  0  0  0  0  0  0  0  0  0  0
  137.9620   72.6840  223.3050 H   0  0  0  0  0  0  0  0  0  0  0  0
  139.1769   73.1133  220.6075 H   0  0  0  0  0  0  0  0  0  0  0  0
  137.7066   73.9323  221.2830 H   0  0  0  0  0  0  0  0  0  0  0  0
  137.1342   76.3483  220.5940 H   0  0  0  0  0  0  0  0  0  0  0  0
  136.7945   75.5439  222.1237 H   0  0  0  0  0  0  0  0  0  0  0  0
  136.8714   78.4170  221.5342 H   0  0  0  0  0  0  0  0  0  0  0  0
  136.3928   77.6494  223.0563 H   0  0  0  0  0  0  0  0  0  0  0  0
  138.6409   77.8542  223.9582 H   0  0  0  0  0  0  0  0  0  0  0  0
  139.8710   78.7387  221.3178 H   0  0  0  0  0  0  0  0  0  0  0  0
  139.3987   80.4856  221.1634 H   0  0  0  0  0  0  0  0  0  0  0  0
  140.0010   81.7264  223.5862 H   0  0  0  0  0  0  0  0  0  0  0  0
  142.0949   82.3965  224.7419 H   0  0  0  0  0  0  0  0  0  0  0  0
  144.2168   81.1291  224.3648 H   0  0  0  0  0  0  0  0  0  0  0  0
  144.2019   79.1970  222.8196 H   0  0  0  0  0  0  0  0  0  0  0  0
  142.1255   78.5513  221.6877 H   0  0  0  0  0  0  0  0  0  0  0  0
  139.7069   77.8767  221.1196 H   0  0  0  0  0  0  0  0  0  0  0  0
  140.4839   77.2377  222.5496 H   0  0  0  0  0  0  0  0  0  0  0  0
  138.8639   69.3799  222.7807 H   0  0  0  0  0  0  0  0  0  0  0  0
  138.8712   67.7566  224.6496 H   0  0  0  0  0  0  0  0  0  0  0  0
  139.5013   67.2206  226.9780 H   0  0  0  0  0  0  0  0  0  0  0  0
  141.5905   70.2013  229.2876 H   0  0  0  0  0  0  0  0  0  0  0  0
  141.5191   71.7359  227.3509 H   0  0  0  0  0  0  0  0  0  0  0  0
  1  2  2  0
  2  3  1  0
  3  4  1  0
  4  5  1  0
  5  6  2  0
  5  7  1  0
  7  8  1  0
  8  9  1  0
  9 10  1  0
 10 11  1  0
 11 12  1  0
 12 13  1  0
 13 14  2  0
 14 15  1  0
 15 16  2  0
 16 17  1  0
 17 18  2  0
 10 19  1  0
  2 20  1  0
 20 21  2  0
 21 22  1  0
 22 23  2  0
 23 24  1  0
 24 25  2  0
 25 26  1  0
 25 27  1  0
 27 28  2  0
 28 29  1  0
 29 30  2  0
 19  7  1  0
 30 20  1  0
 18 13  1  0
 29 23  1  0
  3 31  1  0
  4 32  1  0
  4 33  1  0
  8 34  1  0
  8 35  1  0
  9 36  1  0
  9 37  1  0
 10 38  1  1
 12 39  1  0
 12 40  1  0
 14 41  1  0
 15 42  1  0
 16 43  1  0
 17 44  1  0
 18 45  1  0
 19 46  1  0
 19 47  1  0
 21 48  1  0
 22 49  1  0
 24 50  1  0
 27 51  1  0
 28 52  1  0
M  END
>  <smiles>  (35) 
O=C(NCC(=O)N1CC[C@H](OCc2ccccc2)C1)c1ccc2cc(F)ccc2n1

>  <score_type>  (35) 
oracle

>  <origin>  (35) 
autodockgpu

>  <m_score__min__energy>  (35) 
-8.9900000000000002

>  <m_primary>  (35) 
energy

>  <rmsd>  (35) 
2.997589987211012

>  <m_score__min__rmsd>  (35) 
2.997589987211012

>  <meeko>  (35) 
{"free_energy": -8.79, "intermolecular_energy": -10.87, "internal_energy": -1.11, "cluster_size": 11, "cluster_id": 4, "rank_in_cluster": 2}

>  <energy>  (35) 
-7.9

>  <cluster_rmsd>  (35) 
1.02

>  <cluster>  (35) 
3

$$$$

     RDKit          3D

 52 55  0  0  0  0  0  0  0  0999 V2000
  141.2780   71.9460  221.7990 O   0  0  0  0  0  0  0  0  0  0  0  0
  140.3030   72.0420  222.5970 C   0  0  0  0  0  0  0  0  0  0  0  0
  139.2660   73.0170  222.4220 N   0  0  0  0  0  0  0  0  0  0  0  0
  139.3930   73.8940  221.2740 C   0  0  0  0  0  0  0  0  0  0  0  0
  139.9080   75.2290  221.6580 C   0  0  0  0  0  0  0  0  0  0  0  0
  141.1440   75.3950  221.7650 O   0  0  0  0  0  0  0  0  0  0  0  0
  138.9510   76.2570  221.8840 N   0  0  0  0  0  0  0  0  0  0  0  0
  137.5050   76.1410  222.0360 C   0  0  0  0  0  0  0  0  0  0  0  0
  137.0900   77.4240  222.7240 C   0  0  0  0  0  0  0  0  0  0  0  0
  138.3690   78.1600  223.0320 C   0  0  2  0  0  0  0  0  0  0  0  0
  138.0990   79.5360  222.8820 O   0  0  0  0  0  0  0  0  0  0  0  0
  138.8760   80.1750  223.8460 C   0  0  0  0  0  0  0  0  0  0  0  0
  140.3010   80.2610  223.4460 C   0  0  0  0  0  0  0  0  0  0  0  0
  141.2220   79.3650  223.9260 C   0  0  0  0  0  0  0  0  0  0  0  0
  142.5570   79.4570  223.5420 C   0  0  0  0  0  0  0  0  0  0  0  0
  142.9830   80.4560  222.6650 C   0  0  0  0  0  0  0  0  0  0  0  0
  142.0660   81.3430  222.1910 C   0  0  0  0  0  0  0  0  0  0  0  0
  140.7520   81.2370  222.5810 C   0  0  0  0  0  0  0  0  0  0  0  0
  139.3190   77.6560  221.9990 C   0  0  0  0  0  0  0  0  0  0  0  0
  140.2020   71.1460  223.7440 C   0  0  0  0  0  0  0  0  0  0  0  0
  139.5940   69.9100  223.6110 C   0  0  0  0  0  0  0  0  0  0  0  0
  139.4740   69.0250  224.6730 C   0  0  0  0  0  0  0  0  0  0  0  0
  139.9800   69.3820  225.9170 C   0  0  0  0  0  0  0  0  0  0  0  0
  139.8890   68.5380  227.0150 C   0  0  0  0  0  0  0  0  0  0  0  0
  140.4090   68.9400  228.2410 C   0  0  0  0  0  0  0  0  0  0  0  0
  140.3240   68.1210  229.3130 F   0  0  0  0  0  0  0  0  0  0  0  0
  141.0140   70.1840  228.3470 C   0  0  0  0  0  0  0  0  0  0  0  0
  141.0930   71.0100  227.2410 C   0  0  0  0  0  0  0  0  0  0  0  0
  140.5830   70.6260  226.0210 C   0  0  0  0  0  0  0  0  0  0  0  0
  140.6760   71.4520  224.9650 N   0  0  0  0  0  0  0  0  0  0  0  0
  138.4670   73.0810  223.0950 H   0  0  0  0  0  0  0  0  0  0  0  0
  140.0871   73.4383  220.5524 H   0  0  0  0  0  0  0  0  0  0  0  0
  138.3946   74.0261  220.8316 H   0  0  0  0  0  0  0  0  0  0  0  0
  137.0172   76.0513  221.0542 H   0  0  0  0  0  0  0  0  0  0  0  0
  137.2158   75.2476  222.6089 H   0  0  0  0  0  0  0  0  0  0  0  0
  136.4528   78.0258  222.0593 H   0  0  0  0  0  0  0  0  0  0  0  0
  136.5096   77.2234  223.6367 H   0  0  0  0  0  0  0  0  0  0  0  0
  138.7750   78.0094  224.0432 H   0  0  0  0  0  0  0  0  0  0  0  0
  138.4878   81.1931  223.9968 H   0  0  0  0  0  0  0  0  0  0  0  0
  138.8192   79.5851  224.7727 H   0  0  0  0  0  0  0  0  0  0  0  0
  140.9044   78.5704  224.6172 H   0  0  0  0  0  0  0  0  0  0  0  0
  143.2858   78.7328  223.9349 H   0  0  0  0  0  0  0  0  0  0  0  0
  144.0385   80.5249  222.3631 H   0  0  0  0  0  0  0  0  0  0  0  0
  142.3747   82.1407  221.4993 H   0  0  0  0  0  0  0  0  0  0  0  0
  140.0269   81.9635  222.1854 H   0  0  0  0  0  0  0  0  0  0  0  0
  139.1815   78.1824  221.0429 H   0  0  0  0  0  0  0  0  0  0  0  0
  140.3753   77.8095  222.2649 H   0  0  0  0  0  0  0  0  0  0  0  0
  139.1919   69.6190  222.6293 H   0  0  0  0  0  0  0  0  0  0  0  0
  138.9833   68.0507  224.5316 H   0  0  0  0  0  0  0  0  0  0  0  0
  139.4071   67.5541  226.9161 H   0  0  0  0  0  0  0  0  0  0  0  0
  141.4306   70.5130  229.3104 H   0  0  0  0  0  0  0  0  0  0  0  0
  141.5735   71.9948  227.3378 H   0  0  0  0  0  0  0  0  0  0  0  0
  1  2  2  0
  2  3  1  0
  3  4  1  0
  4  5  1  0
  5  6  2  0
  5  7  1  0
  7  8  1  0
  8  9  1  0
  9 10  1  0
 10 11  1  0
 11 12  1  0
 12 13  1  0
 13 14  2  0
 14 15  1  0
 15 16  2  0
 16 17  1  0
 17 18  2  0
 10 19  1  0
  2 20  1  0
 20 21  2  0
 21 22  1  0
 22 23  2  0
 23 24  1  0
 24 25  2  0
 25 26  1  0
 25 27  1  0
 27 28  2  0
 28 29  1  0
 29 30  2  0
 19  7  1  0
 30 20  1  0
 18 13  1  0
 29 23  1  0
  3 31  1  0
  4 32  1  0
  4 33  1  0
  8 34  1  0
  8 35  1  0
  9 36  1  0
  9 37  1  0
 10 38  1  1
 12 39  1  0
 12 40  1  0
 14 41  1  0
 15 42  1  0
 16 43  1  0
 17 44  1  0
 18 45  1  0
 19 46  1  0
 19 47  1  0
 21 48  1  0
 22 49  1  0
 24 50  1  0
 27 51  1  0
 28 52  1  0
M  END
>  <smiles>  (36) 
O=C(NCC(=O)N1CC[C@H](OCc2ccccc2)C1)c1ccc2cc(F)ccc2n1

>  <score_type>  (36) 
oracle

>  <origin>  (36) 
autodockgpu

>  <m_score__min__energy>  (36) 
-8.9900000000000002

>  <m_primary>  (36) 
energy

>  <rmsd>  (36) 
3.149352131899193

>  <m_score__min__rmsd>  (36) 
3.149352131899193

>  <meeko>  (36) 
{"free_energy": -8.74, "intermolecular_energy": -10.83, "internal_energy": -1.15, "cluster_size": 11, "cluster_id": 4, "rank_in_cluster": 3}

>  <energy>  (36) 
-7.59

>  <cluster_rmsd>  (36) 
1.28

>  <cluster>  (36) 
3

$$$$

     RDKit          3D

 52 55  0  0  0  0  0  0  0  0999 V2000
  139.8510   72.6180  220.6820 O   0  0  0  0  0  0  0  0  0  0  0  0
  139.3360   73.5210  221.4010 C   0  0  0  0  0  0  0  0  0  0  0  0
  138.1350   73.3030  222.1550 N   0  0  0  0  0  0  0  0  0  0  0  0
  137.5370   71.9860  222.0500 C   0  0  0  0  0  0  0  0  0  0  0  0
  137.2380   71.4130  223.3820 C   0  0  0  0  0  0  0  0  0  0  0  0
  136.6250   72.1130  224.2200 O   0  0  0  0  0  0  0  0  0  0  0  0
  137.6700   70.0800  223.6310 N   0  0  0  0  0  0  0  0  0  0  0  0
  137.8840   68.9970  222.6780 C   0  0  0  0  0  0  0  0  0  0  0  0
  138.7800   68.0190  223.4080 C   0  0  0  0  0  0  0  0  0  0  0  0
  139.1220   68.6740  224.7220 C   0  0  2  0  0  0  0  0  0  0  0  0
  139.1960   67.6480  225.6870 O   0  0  0  0  0  0  0  0  0  0  0  0
  140.3870   67.8690  226.3750 C   0  0  0  0  0  0  0  0  0  0  0  0
  140.5230   69.2770  226.8170 C   0  0  0  0  0  0  0  0  0  0  0  0
  139.8690   69.7310  227.9340 C   0  0  0  0  0  0  0  0  0  0  0  0
  140.0060   71.0570  228.3380 C   0  0  0  0  0  0  0  0  0  0  0  0
  140.8070   71.9460  227.6180 C   0  0  0  0  0  0  0  0  0  0  0  0
  141.4540   71.4910  226.5110 C   0  0  0  0  0  0  0  0  0  0  0  0
  141.3070   70.1800  226.1280 C   0  0  0  0  0  0  0  0  0  0  0  0
  137.9730   69.5930  224.9640 C   0  0  0  0  0  0  0  0  0  0  0  0
  139.9590   74.8360  221.4870 C   0  0  0  0  0  0  0  0  0  0  0  0
  141.1280   75.1000  220.7950 C   0  0  0  0  0  0  0  0  0  0  0  0
  141.7580   76.3370  220.8470 C   0  0  0  0  0  0  0  0  0  0  0  0
  141.2020   77.3510  221.6170 C   0  0  0  0  0  0  0  0  0  0  0  0
  141.7870   78.6070  221.7060 C   0  0  0  0  0  0  0  0  0  0  0  0
  141.1940   79.5910  222.4910 C   0  0  0  0  0  0  0  0  0  0  0  0
  141.7600   80.8150  222.5820 F   0  0  0  0  0  0  0  0  0  0  0  0
  140.0230   79.3000  223.1750 C   0  0  0  0  0  0  0  0  0  0  0  0
  139.4570   78.0420  223.0720 C   0  0  0  0  0  0  0  0  0  0  0  0
  140.0320   77.0580  222.3000 C   0  0  0  0  0  0  0  0  0  0  0  0
  139.4570   75.8460  222.2210 N   0  0  0  0  0  0  0  0  0  0  0  0
  137.7240   74.0650  222.7440 H   0  0  0  0  0  0  0  0  0  0  0  0
  136.6012   72.0640  221.4772 H   0  0  0  0  0  0  0  0  0  0  0  0
  138.2543   71.3228  221.5444 H   0  0  0  0  0  0  0  0  0  0  0  0
  136.9290   68.5223  222.4084 H   0  0  0  0  0  0  0  0  0  0  0  0
  138.3310   69.3508  221.7372 H   0  0  0  0  0  0  0  0  0  0  0  0
  138.2509   67.0700  223.5797 H   0  0  0  0  0  0  0  0  0  0  0  0
  139.6835   67.7864  222.8253 H   0  0  0  0  0  0  0  0  0  0  0  0
  140.0744   69.2239  224.7474 H   0  0  0  0  0  0  0  0  0  0  0  0
  140.4120   67.2157  227.2596 H   0  0  0  0  0  0  0  0  0  0  0  0
  141.2193   67.6470  225.6909 H   0  0  0  0  0  0  0  0  0  0  0  0
  139.2336   69.0449  228.5133 H   0  0  0  0  0  0  0  0  0  0  0  0
  139.4764   71.4085  229.2358 H   0  0  0  0  0  0  0  0  0  0  0  0
  140.9127   72.9927  227.9393 H   0  0  0  0  0  0  0  0  0  0  0  0
  142.0917   72.1696  225.9255 H   0  0  0  0  0  0  0  0  0  0  0  0
  141.8393   69.8336  225.2298 H   0  0  0  0  0  0  0  0  0  0  0  0
  137.1164   69.0529  225.3936 H   0  0  0  0  0  0  0  0  0  0  0  0
  138.1986   70.3954  225.6818 H   0  0  0  0  0  0  0  0  0  0  0  0
  141.5739   74.3025  220.1824 H   0  0  0  0  0  0  0  0  0  0  0  0
  142.6870   76.5118  220.2846 H   0  0  0  0  0  0  0  0  0  0  0  0
  142.7159   78.8234  221.1579 H   0  0  0  0  0  0  0  0  0  0  0  0
  139.5446   80.0692  223.7991 H   0  0  0  0  0  0  0  0  0  0  0  0
  138.5278   77.8233  223.6186 H   0  0  0  0  0  0  0  0  0  0  0  0
  1  2  2  0
  2  3  1  0
  3  4  1  0
  4  5  1  0
  5  6  2  0
  5  7  1  0
  7  8  1  0
  8  9  1  0
  9 10  1  0
 10 11  1  0
 11 12  1  0
 12 13  1  0
 13 14  2  0
 14 15  1  0
 15 16  2  0
 16 17  1  0
 17 18  2  0
 10 19  1  0
  2 20  1  0
 20 21  2  0
 21 22  1  0
 22 23  2  0
 23 24  1  0
 24 25  2  0
 25 26  1  0
 25 27  1  0
 27 28  2  0
 28 29  1  0
 29 30  2  0
 19  7  1  0
 30 20  1  0
 18 13  1  0
 29 23  1  0
  3 31  1  0
  4 32  1  0
  4 33  1  0
  8 34  1  0
  8 35  1  0
  9 36  1  0
  9 37  1  0
 10 38  1  6
 12 39  1  0
 12 40  1  0
 14 41  1  0
 15 42  1  0
 16 43  1  0
 17 44  1  0
 18 45  1  0
 19 46  1  0
 19 47  1  0
 21 48  1  0
 22 49  1  0
 24 50  1  0
 27 51  1  0
 28 52  1  0
M  END
>  <smiles>  (37) 
O=C(NCC(=O)N1CC[C@H](OCc2ccccc2)C1)c1ccc2cc(F)ccc2n1

>  <score_type>  (37) 
oracle

>  <origin>  (37) 
autodockgpu

>  <m_score__min__energy>  (37) 
-8.9900000000000002

>  <m_primary>  (37) 
energy

>  <rmsd>  (37) 
8.35444640466835

>  <m_score__min__rmsd>  (37) 
8.35444640466835

>  <meeko>  (37) 
{"free_energy": -8.54, "intermolecular_energy": -10.63, "internal_energy": -1.63, "cluster_size": 20, "cluster_id": 1, "rank_in_cluster": 5}

>  <energy>  (37) 
-8.81

>  <cluster_rmsd>  (37) 
0.0

>  <cluster>  (37) 
4

$$$$

     RDKit          3D

 52 55  0  0  0  0  0  0  0  0999 V2000
  141.0740   72.7860  222.1580 O   0  0  0  0  0  0  0  0  0  0  0  0
  139.9970   72.4770  222.7430 C   0  0  0  0  0  0  0  0  0  0  0  0
  138.7400   73.0720  222.3920 N   0  0  0  0  0  0  0  0  0  0  0  0
  138.7670   74.0530  221.3240 C   0  0  0  0  0  0  0  0  0  0  0  0
  139.3620   75.3330  221.7700 C   0  0  0  0  0  0  0  0  0  0  0  0
  140.4990   75.3240  222.2960 O   0  0  0  0  0  0  0  0  0  0  0  0
  138.5940   76.5140  221.5710 N   0  0  0  0  0  0  0  0  0  0  0  0
  137.1470   76.6550  221.4630 C   0  0  0  0  0  0  0  0  0  0  0  0
  136.8840   78.1170  221.7520 C   0  0  0  0  0  0  0  0  0  0  0  0
  138.2170   78.7110  222.1280 C   0  0  2  0  0  0  0  0  0  0  0  0
  138.2390   80.0280  221.6250 O   0  0  0  0  0  0  0  0  0  0  0  0
  138.8350   80.7980  222.6210 C   0  0  0  0  0  0  0  0  0  0  0  0
  140.2680   80.4640  222.8010 C   0  0  0  0  0  0  0  0  0  0  0  0
  140.6800   79.6600  223.8340 C   0  0  0  0  0  0  0  0  0  0  0  0
  142.0300   79.3530  223.9900 C   0  0  0  0  0  0  0  0  0  0  0  0
  142.9850   79.8550  223.1040 C   0  0  0  0  0  0  0  0  0  0  0  0
  142.5720   80.6520  222.0810 C   0  0  0  0  0  0  0  0  0  0  0  0
  141.2370   80.9430  221.9420 C   0  0  0  0  0  0  0  0  0  0  0  0
  139.2000   77.8260  221.4390 C   0  0  0  0  0  0  0  0  0  0  0  0
  140.0000   71.4870  223.8140 C   0  0  0  0  0  0  0  0  0  0  0  0
  139.4620   70.2300  223.6030 C   0  0  0  0  0  0  0  0  0  0  0  0
  139.4430   69.2550  224.5920 C   0  0  0  0  0  0  0  0  0  0  0  0
  139.9820   69.5430  225.8400 C   0  0  0  0  0  0  0  0  0  0  0  0
  139.9910   68.6080  226.8670 C   0  0  0  0  0  0  0  0  0  0  0  0
  140.5400   68.9430  228.1010 C   0  0  0  0  0  0  0  0  0  0  0  0
  140.5510   68.0360  229.1030 F   0  0  0  0  0  0  0  0  0  0  0  0
  141.0730   70.2100  228.2860 C   0  0  0  0  0  0  0  0  0  0  0  0
  141.0540   71.1260  227.2500 C   0  0  0  0  0  0  0  0  0  0  0  0
  140.5130   70.8100  226.0230 C   0  0  0  0  0  0  0  0  0  0  0  0
  140.5100   71.7220  225.0370 N   0  0  0  0  0  0  0  0  0  0  0  0
  137.8590   72.8020  222.8890 H   0  0  0  0  0  0  0  0  0  0  0  0
  139.3627   73.6548  220.4894 H   0  0  0  0  0  0  0  0  0  0  0  0
  137.7305   74.2476  221.0114 H   0  0  0  0  0  0  0  0  0  0  0  0
  136.8055   76.3915  220.4511 H   0  0  0  0  0  0  0  0  0  0  0  0
  136.6100   75.9895  222.1549 H   0  0  0  0  0  0  0  0  0  0  0  0
  136.4808   78.6169  220.8589 H   0  0  0  0  0  0  0  0  0  0  0  0
  136.1449   78.2425  222.5569 H   0  0  0  0  0  0  0  0  0  0  0  0
  138.4287   78.7650  223.2061 H   0  0  0  0  0  0  0  0  0  0  0  0
  138.7499   81.8599  222.3471 H   0  0  0  0  0  0  0  0  0  0  0  0
  138.3164   80.5875  223.5680 H   0  0  0  0  0  0  0  0  0  0  0  0
  139.9412   79.2562  224.5419 H   0  0  0  0  0  0  0  0  0  0  0  0
  142.3474   78.7069  224.8218 H   0  0  0  0  0  0  0  0  0  0  0  0
  144.0502   79.6112  223.2302 H   0  0  0  0  0  0  0  0  0  0  0  0
  143.3039   81.0611  221.3690 H   0  0  0  0  0  0  0  0  0  0  0  0
  140.9252   81.5879  221.1072 H   0  0  0  0  0  0  0  0  0  0  0  0
  139.3130   78.1063  220.3813 H   0  0  0  0  0  0  0  0  0  0  0  0
  140.2129   77.8841  221.8639 H   0  0  0  0  0  0  0  0  0  0  0  0
  139.0343   69.9945  222.6173 H   0  0  0  0  0  0  0  0  0  0  0  0
  139.0062   68.2659  224.3896 H   0  0  0  0  0  0  0  0  0  0  0  0
  139.5658   67.6065  226.7055 H   0  0  0  0  0  0  0  0  0  0  0  0
  141.5108   70.4863  229.2566 H   0  0  0  0  0  0  0  0  0  0  0  0
  141.4797   72.1277  227.4090 H   0  0  0  0  0  0  0  0  0  0  0  0
  1  2  2  0
  2  3  1  0
  3  4  1  0
  4  5  1  0
  5  6  2  0
  5  7  1  0
  7  8  1  0
  8  9  1  0
  9 10  1  0
 10 11  1  0
 11 12  1  0
 12 13  1  0
 13 14  2  0
 14 15  1  0
 15 16  2  0
 16 17  1  0
 17 18  2  0
 10 19  1  0
  2 20  1  0
 20 21  2  0
 21 22  1  0
 22 23  2  0
 23 24  1  0
 24 25  2  0
 25 26  1  0
 25 27  1  0
 27 28  2  0
 28 29  1  0
 29 30  2  0
 19  7  1  0
 30 20  1  0
 18 13  1  0
 29 23  1  0
  3 31  1  0
  4 32  1  0
  4 33  1  0
  8 34  1  0
  8 35  1  0
  9 36  1  0
  9 37  1  0
 10 38  1  1
 12 39  1  0
 12 40  1  0
 14 41  1  0
 15 42  1  0
 16 43  1  0
 17 44  1  0
 18 45  1  0
 19 46  1  0
 19 47  1  0
 21 48  1  0
 22 49  1  0
 24 50  1  0
 27 51  1  0
 28 52  1  0
M  END
>  <smiles>  (38) 
O=C(NCC(=O)N1CC[C@H](OCc2ccccc2)C1)c1ccc2cc(F)ccc2n1

>  <score_type>  (38) 
oracle

>  <origin>  (38) 
autodockgpu

>  <m_score__min__energy>  (38) 
-8.9900000000000002

>  <m_primary>  (38) 
energy

>  <rmsd>  (38) 
2.9720110631613625

>  <m_score__min__rmsd>  (38) 
2.9720110631613625

>  <meeko>  (38) 
{"free_energy": -8.38, "intermolecular_energy": -10.47, "internal_energy": -1.1, "cluster_size": 11, "cluster_id": 4, "rank_in_cluster": 5}

>  <energy>  (38) 
-8.79

>  <cluster_rmsd>  (38) 
0.7

>  <cluster>  (38) 
4

$$$$

     RDKit          3D

 52 55  0  0  0  0  0  0  0  0999 V2000
  133.2470   70.4780  226.3910 O   0  0  0  0  0  0  0  0  0  0  0  0
  133.5930   71.6070  225.9400 C   0  0  0  0  0  0  0  0  0  0  0  0
  134.4930   71.7430  224.8320 N   0  0  0  0  0  0  0  0  0  0  0  0
  134.9910   70.5110  224.2500 C   0  0  0  0  0  0  0  0  0  0  0  0
  136.4210   70.6160  223.8840 C   0  0  0  0  0  0  0  0  0  0  0  0
  136.8710   71.7210  223.5040 O   0  0  0  0  0  0  0  0  0  0  0  0
  137.2100   69.4370  223.9880 N   0  0  0  0  0  0  0  0  0  0  0  0
  137.6450   68.5330  222.9300 C   0  0  0  0  0  0  0  0  0  0  0  0
  138.8160   67.7820  223.5280 C   0  0  0  0  0  0  0  0  0  0  0  0
  139.0540   68.3980  224.8820 C   0  0  2  0  0  0  0  0  0  0  0  0
  139.4630   67.3580  225.7420 O   0  0  0  0  0  0  0  0  0  0  0  0
  140.7010   67.7550  226.2440 C   0  0  0  0  0  0  0  0  0  0  0  0
  140.6820   69.1540  226.7320 C   0  0  0  0  0  0  0  0  0  0  0  0
  140.0130   69.4910  227.8810 C   0  0  0  0  0  0  0  0  0  0  0  0
  140.0050   70.8110  228.3270 C   0  0  0  0  0  0  0  0  0  0  0  0
  140.6740   71.8100  227.6190 C   0  0  0  0  0  0  0  0  0  0  0  0
  141.3370   71.4720  226.4800 C   0  0  0  0  0  0  0  0  0  0  0  0
  141.3350   70.1650  226.0550 C   0  0  0  0  0  0  0  0  0  0  0  0
  137.7190   68.9470  225.2560 C   0  0  0  0  0  0  0  0  0  0  0  0
  133.0760   72.8300  226.5450 C   0  0  0  0  0  0  0  0  0  0  0  0
  131.9270   72.7950  227.3150 C   0  0  0  0  0  0  0  0  0  0  0  0
  131.3980   73.9320  227.9100 C   0  0  0  0  0  0  0  0  0  0  0  0
  132.0390   75.1520  227.7340 C   0  0  0  0  0  0  0  0  0  0  0  0
  131.5560   76.3220  228.3050 C   0  0  0  0  0  0  0  0  0  0  0  0
  132.2310   77.5210  228.0990 C   0  0  0  0  0  0  0  0  0  0  0  0
  131.7660   78.6630  228.6530 F   0  0  0  0  0  0  0  0  0  0  0  0
  133.3810   77.5290  227.3240 C   0  0  0  0  0  0  0  0  0  0  0  0
  133.8450   76.3520  226.7630 C   0  0  0  0  0  0  0  0  0  0  0  0
  133.1870   75.1580  226.9580 C   0  0  0  0  0  0  0  0  0  0  0  0
  133.6630   74.0320  226.4000 N   0  0  0  0  0  0  0  0  0  0  0  0
  134.7680   72.6870  224.4740 H   0  0  0  0  0  0  0  0  0  0  0  0
  134.8689   69.6973  224.9801 H   0  0  0  0  0  0  0  0  0  0  0  0
  134.4170   70.3087  223.3337 H   0  0  0  0  0  0  0  0  0  0  0  0
  136.8372   67.8385  222.6559 H   0  0  0  0  0  0  0  0  0  0  0  0
  137.9190   69.0690  222.0093 H   0  0  0  0  0  0  0  0  0  0  0  0
  138.5732   66.7141  223.6309 H   0  0  0  0  0  0  0  0  0  0  0  0
  139.7091   67.8525  222.8898 H   0  0  0  0  0  0  0  0  0  0  0  0
  139.8237   69.1829  224.9204 H   0  0  0  0  0  0  0  0  0  0  0  0
  140.9747   67.0921  227.0781 H   0  0  0  0  0  0  0  0  0  0  0  0
  141.4342   67.6913  225.4265 H   0  0  0  0  0  0  0  0  0  0  0  0
  139.4808   68.7163  228.4525 H   0  0  0  0  0  0  0  0  0  0  0  0
  139.4641   71.0689  229.2495 H   0  0  0  0  0  0  0  0  0  0  0  0
  140.6655   72.8508  227.9749 H   0  0  0  0  0  0  0  0  0  0  0  0
  141.8717   72.2405  225.9025 H   0  0  0  0  0  0  0  0  0  0  0  0
  141.8788   69.9126  225.1327 H   0  0  0  0  0  0  0  0  0  0  0  0
  137.0682   68.1617  225.6680 H   0  0  0  0  0  0  0  0  0  0  0  0
  137.7678   69.7213  226.0358 H   0  0  0  0  0  0  0  0  0  0  0  0
  131.4148   71.8325  227.4607 H   0  0  0  0  0  0  0  0  0  0  0  0
  130.4811   73.8678  228.5144 H   0  0  0  0  0  0  0  0  0  0  0  0
  130.6429   76.3009  228.9180 H   0  0  0  0  0  0  0  0  0  0  0  0
  133.9242   78.4705  227.1552 H   0  0  0  0  0  0  0  0  0  0  0  0
  134.7576   76.3706  226.1491 H   0  0  0  0  0  0  0  0  0  0  0  0
  1  2  2  0
  2  3  1  0
  3  4  1  0
  4  5  1  0
  5  6  2  0
  5  7  1  0
  7  8  1  0
  8  9  1  0
  9 10  1  0
 10 11  1  0
 11 12  1  0
 12 13  1  0
 13 14  2  0
 14 15  1  0
 15 16  2  0
 16 17  1  0
 17 18  2  0
 10 19  1  0
  2 20  1  0
 20 21  2  0
 21 22  1  0
 22 23  2  0
 23 24  1  0
 24 25  2  0
 25 26  1  0
 25 27  1  0
 27 28  2  0
 28 29  1  0
 29 30  2  0
 19  7  1  0
 30 20  1  0
 18 13  1  0
 29 23  1  0
  3 31  1  0
  4 32  1  0
  4 33  1  0
  8 34  1  0
  8 35  1  0
  9 36  1  0
  9 37  1  0
 10 38  1  6
 12 39  1  0
 12 40  1  0
 14 41  1  0
 15 42  1  0
 16 43  1  0
 17 44  1  0
 18 45  1  0
 19 46  1  0
 19 47  1  0
 21 48  1  0
 22 49  1  0
 24 50  1  0
 27 51  1  0
 28 52  1  0
M  END
>  <smiles>  (39) 
O=C(NCC(=O)N1CC[C@H](OCc2ccccc2)C1)c1ccc2cc(F)ccc2n1

>  <score_type>  (39) 
oracle

>  <origin>  (39) 
autodockgpu

>  <m_score__min__energy>  (39) 
-8.9900000000000002

>  <m_primary>  (39) 
energy

>  <rmsd>  (39) 
9.246960903581705

>  <m_score__min__rmsd>  (39) 
9.246960903581705

>  <meeko>  (39) 
{"free_energy": -8.68, "intermolecular_energy": -10.76, "internal_energy": -1.68, "cluster_size": 3, "cluster_id": 5, "rank_in_cluster": 2}

>  <energy>  (39) 
-8.74

>  <cluster_rmsd>  (39) 
0.61

>  <cluster>  (39) 
4

$$$$

     RDKit          3D

 52 55  0  0  0  0  0  0  0  0999 V2000
  140.4950   71.8120  221.8850 O   0  0  0  0  0  0  0  0  0  0  0  0
  139.5840   71.7740  222.7610 C   0  0  0  0  0  0  0  0  0  0  0  0
  138.4260   72.6160  222.6930 N   0  0  0  0  0  0  0  0  0  0  0  0
  138.3500   73.5200  221.5620 C   0  0  0  0  0  0  0  0  0  0  0  0
  139.0750   74.7840  221.8210 C   0  0  0  0  0  0  0  0  0  0  0  0
  140.3180   74.7520  221.9710 O   0  0  0  0  0  0  0  0  0  0  0  0
  138.3040   75.9780  221.8820 N   0  0  0  0  0  0  0  0  0  0  0  0
  136.8660   76.1270  222.0760 C   0  0  0  0  0  0  0  0  0  0  0  0
  136.6900   77.5570  222.5400 C   0  0  0  0  0  0  0  0  0  0  0  0
  138.0810   78.1150  222.6960 C   0  0  2  0  0  0  0  0  0  0  0  0
  138.0270   79.4720  222.3170 O   0  0  0  0  0  0  0  0  0  0  0  0
  138.6020   80.1780  223.3710 C   0  0  0  0  0  0  0  0  0  0  0  0
  140.0810   80.2030  223.2840 C   0  0  0  0  0  0  0  0  0  0  0  0
  140.8380   79.2210  223.8710 C   0  0  0  0  0  0  0  0  0  0  0  0
  142.2280   79.2570  223.7800 C   0  0  0  0  0  0  0  0  0  0  0  0
  142.8740   80.2870  223.0930 C   0  0  0  0  0  0  0  0  0  0  0  0
  142.1190   81.2590  222.5130 C   0  0  0  0  0  0  0  0  0  0  0  0
  140.7500   81.2070  222.6120 C   0  0  0  0  0  0  0  0  0  0  0  0
  138.8940   77.2980  221.7500 C   0  0  0  0  0  0  0  0  0  0  0  0
  139.6880   70.8540  223.8880 C   0  0  0  0  0  0  0  0  0  0  0  0
  139.1900   69.5670  223.7860 C   0  0  0  0  0  0  0  0  0  0  0  0
  139.2660   68.6580  224.8320 C   0  0  0  0  0  0  0  0  0  0  0  0
  139.8610   69.0440  226.0270 C   0  0  0  0  0  0  0  0  0  0  0  0
  139.9650   68.1770  227.1060 C   0  0  0  0  0  0  0  0  0  0  0  0
  140.5680   68.6090  228.2840 C   0  0  0  0  0  0  0  0  0  0  0  0
  140.6710   67.7690  229.3380 F   0  0  0  0  0  0  0  0  0  0  0  0
  141.0580   69.9040  228.3600 C   0  0  0  0  0  0  0  0  0  0  0  0
  140.9440   70.7510  227.2720 C   0  0  0  0  0  0  0  0  0  0  0  0
  140.3500   70.3380  226.1010 C   0  0  0  0  0  0  0  0  0  0  0  0
  140.2550   71.1850  225.0630 N   0  0  0  0  0  0  0  0  0  0  0  0
  137.6830   72.5690  223.4300 H   0  0  0  0  0  0  0  0  0  0  0  0
  138.7928   73.0289  220.6829 H   0  0  0  0  0  0  0  0  0  0  0  0
  137.2913   73.7619  221.3873 H   0  0  0  0  0  0  0  0  0  0  0  0
  136.3270   75.9556  221.1326 H   0  0  0  0  0  0  0  0  0  0  0  0
  136.4650   75.4013  222.7989 H   0  0  0  0  0  0  0  0  0  0  0  0
  136.1274   78.1353  221.7923 H   0  0  0  0  0  0  0  0  0  0  0  0
  136.1260   77.6090  223.4830 H   0  0  0  0  0  0  0  0  0  0  0  0
  138.5009   78.0704  223.7117 H   0  0  0  0  0  0  0  0  0  0  0  0
  138.2280   81.2123  223.3510 H   0  0  0  0  0  0  0  0  0  0  0  0
  138.3263   79.6720  224.3080 H   0  0  0  0  0  0  0  0  0  0  0  0
  140.3457   78.4019  224.4157 H   0  0  0  0  0  0  0  0  0  0  0  0
  142.8240   78.4640  224.2553 H   0  0  0  0  0  0  0  0  0  0  0  0
  143.9714   80.3120  223.0222 H   0  0  0  0  0  0  0  0  0  0  0  0
  142.6027   82.0826  221.9674 H   0  0  0  0  0  0  0  0  0  0  0  0
  140.1590   82.0020  222.1338 H   0  0  0  0  0  0  0  0  0  0  0  0
  138.8007   77.6732  220.7202 H   0  0  0  0  0  0  0  0  0  0  0  0
  139.9717   77.3189  221.9692 H   0  0  0  0  0  0  0  0  0  0  0  0
  138.7176   69.2536  222.8434 H   0  0  0  0  0  0  0  0  0  0  0  0
  138.8595   67.6425  224.7163 H   0  0  0  0  0  0  0  0  0  0  0  0
  139.5723   67.1522  227.0305 H   0  0  0  0  0  0  0  0  0  0  0  0
  141.5371   70.2577  229.2849 H   0  0  0  0  0  0  0  0  0  0  0  0
  141.3363   71.7761  227.3443 H   0  0  0  0  0  0  0  0  0  0  0  0
  1  2  2  0
  2  3  1  0
  3  4  1  0
  4  5  1  0
  5  6  2  0
  5  7  1  0
  7  8  1  0
  8  9  1  0
  9 10  1  0
 10 11  1  0
 11 12  1  0
 12 13  1  0
 13 14  2  0
 14 15  1  0
 15 16  2  0
 16 17  1  0
 17 18  2  0
 10 19  1  0
  2 20  1  0
 20 21  2  0
 21 22  1  0
 22 23  2  0
 23 24  1  0
 24 25  2  0
 25 26  1  0
 25 27  1  0
 27 28  2  0
 28 29  1  0
 29 30  2  0
 19  7  1  0
 30 20  1  0
 18 13  1  0
 29 23  1  0
  3 31  1  0
  4 32  1  0
  4 33  1  0
  8 34  1  0
  8 35  1  0
  9 36  1  0
  9 37  1  0
 10 38  1  1
 12 39  1  0
 12 40  1  0
 14 41  1  0
 15 42  1  0
 16 43  1  0
 17 44  1  0
 18 45  1  0
 19 46  1  0
 19 47  1  0
 21 48  1  0
 22 49  1  0
 24 50  1  0
 27 51  1  0
 28 52  1  0
M  END
>  <smiles>  (40) 
O=C(NCC(=O)N1CC[C@H](OCc2ccccc2)C1)c1ccc2cc(F)ccc2n1

>  <score_type>  (40) 
oracle

>  <origin>  (40) 
autodockgpu

>  <m_score__min__energy>  (40) 
-8.9900000000000002

>  <m_primary>  (40) 
energy

>  <rmsd>  (40) 
3.0903570092811337

>  <m_score__min__rmsd>  (40) 
3.0903570092811337

>  <meeko>  (40) 
{"free_energy": -8.81, "intermolecular_energy": -10.9, "internal_energy": -1.14, "cluster_size": 11, "cluster_id": 4, "rank_in_cluster": 1}

>  <energy>  (40) 
-8.65

>  <cluster_rmsd>  (40) 
0.58

>  <cluster>  (40) 
4

$$$$

     RDKit          3D

 52 55  0  0  0  0  0  0  0  0999 V2000
  141.2490   72.5230  222.0980 O   0  0  0  0  0  0  0  0  0  0  0  0
  140.1690   72.3300  222.7260 C   0  0  0  0  0  0  0  0  0  0  0  0
  138.9600   73.0280  222.3970 N   0  0  0  0  0  0  0  0  0  0  0  0
  139.0390   73.9720  221.2980 C   0  0  0  0  0  0  0  0  0  0  0  0
  139.5860   75.2770  221.7350 C   0  0  0  0  0  0  0  0  0  0  0  0
  140.8170   75.3810  221.9400 O   0  0  0  0  0  0  0  0  0  0  0  0
  138.6660   76.3490  221.8960 N   0  0  0  0  0  0  0  0  0  0  0  0
  137.2760   76.3010  222.3370 C   0  0  0  0  0  0  0  0  0  0  0  0
  136.9690   77.7150  222.7810 C   0  0  0  0  0  0  0  0  0  0  0  0
  138.2660   78.4750  222.6710 C   0  0  2  0  0  0  0  0  0  0  0  0
  137.9430   79.7870  222.2670 O   0  0  0  0  0  0  0  0  0  0  0  0
  138.6630   80.6260  223.1140 C   0  0  0  0  0  0  0  0  0  0  0  0
  140.1270   80.4440  222.9670 C   0  0  0  0  0  0  0  0  0  0  0  0
  140.8140   81.0590  221.9530 C   0  0  0  0  0  0  0  0  0  0  0  0
  142.1900   80.8800  221.8270 C   0  0  0  0  0  0  0  0  0  0  0  0
  142.8920   80.0750  222.7270 C   0  0  0  0  0  0  0  0  0  0  0  0
  142.2060   79.4670  223.7320 C   0  0  0  0  0  0  0  0  0  0  0  0
  140.8490   79.6560  223.8400 C   0  0  0  0  0  0  0  0  0  0  0  0
  139.0190   77.7300  221.6220 C   0  0  0  0  0  0  0  0  0  0  0  0
  140.1200   71.3740  223.8270 C   0  0  0  0  0  0  0  0  0  0  0  0
  139.5470   70.1290  223.6430 C   0  0  0  0  0  0  0  0  0  0  0  0
  139.4770   69.1870  224.6610 C   0  0  0  0  0  0  0  0  0  0  0  0
  139.9990   69.4970  225.9100 C   0  0  0  0  0  0  0  0  0  0  0  0
  139.9570   68.5950  226.9650 C   0  0  0  0  0  0  0  0  0  0  0  0
  140.4910   68.9510  228.2000 C   0  0  0  0  0  0  0  0  0  0  0  0
  140.4540   68.0760  229.2300 F   0  0  0  0  0  0  0  0  0  0  0  0
  141.0600   70.2060  228.3580 C   0  0  0  0  0  0  0  0  0  0  0  0
  141.0900   71.0890  227.2940 C   0  0  0  0  0  0  0  0  0  0  0  0
  140.5650   70.7520  226.0660 C   0  0  0  0  0  0  0  0  0  0  0  0
  140.6110   71.6330  225.0530 N   0  0  0  0  0  0  0  0  0  0  0  0
  138.0760   72.8550  222.9300 H   0  0  0  0  0  0  0  0  0  0  0  0
  139.6917   73.5556  220.5166 H   0  0  0  0  0  0  0  0  0  0  0  0
  138.0214   74.1378  220.9146 H   0  0  0  0  0  0  0  0  0  0  0  0
  136.6159   76.0015  221.5096 H   0  0  0  0  0  0  0  0  0  0  0  0
  137.1178   75.5670  223.1409 H   0  0  0  0  0  0  0  0  0  0  0  0
  136.2063   78.1638  222.1277 H   0  0  0  0  0  0  0  0  0  0  0  0
  136.5736   77.7385  223.8072 H   0  0  0  0  0  0  0  0  0  0  0  0
  138.8558   78.5493  223.5966 H   0  0  0  0  0  0  0  0  0  0  0  0
  138.4099   81.6702  222.8780 H   0  0  0  0  0  0  0  0  0  0  0  0
  138.3927   80.3741  224.1501 H   0  0  0  0  0  0  0  0  0  0  0  0
  140.2767   81.6967  221.2356 H   0  0  0  0  0  0  0  0  0  0  0  0
  142.7301   81.3787  221.0087 H   0  0  0  0  0  0  0  0  0  0  0  0
  143.9783   79.9354  222.6251 H   0  0  0  0  0  0  0  0  0  0  0  0
  142.7345   78.8275  224.4543 H   0  0  0  0  0  0  0  0  0  0  0  0
  140.3135   79.1559  224.6605 H   0  0  0  0  0  0  0  0  0  0  0  0
  138.6962   78.0294  220.6139 H   0  0  0  0  0  0  0  0  0  0  0  0
  140.1027   77.9167  221.6469 H   0  0  0  0  0  0  0  0  0  0  0  0
  139.1323   69.8760  222.6561 H   0  0  0  0  0  0  0  0  0  0  0  0
  139.0132   68.2061  224.4800 H   0  0  0  0  0  0  0  0  0  0  0  0
  139.5033   67.6027  226.8251 H   0  0  0  0  0  0  0  0  0  0  0  0
  141.4870   70.4987  229.3286 H   0  0  0  0  0  0  0  0  0  0  0  0
  141.5429   72.0820  227.4314 H   0  0  0  0  0  0  0  0  0  0  0  0
  1  2  2  0
  2  3  1  0
  3  4  1  0
  4  5  1  0
  5  6  2  0
  5  7  1  0
  7  8  1  0
  8  9  1  0
  9 10  1  0
 10 11  1  0
 11 12  1  0
 12 13  1  0
 13 14  2  0
 14 15  1  0
 15 16  2  0
 16 17  1  0
 17 18  2  0
 10 19  1  0
  2 20  1  0
 20 21  2  0
 21 22  1  0
 22 23  2  0
 23 24  1  0
 24 25  2  0
 25 26  1  0
 25 27  1  0
 27 28  2  0
 28 29  1  0
 29 30  2  0
 19  7  1  0
 30 20  1  0
 18 13  1  0
 29 23  1  0
  3 31  1  0
  4 32  1  0
  4 33  1  0
  8 34  1  0
  8 35  1  0
  9 36  1  0
  9 37  1  0
 10 38  1  1
 12 39  1  0
 12 40  1  0
 14 41  1  0
 15 42  1  0
 16 43  1  0
 17 44  1  0
 18 45  1  0
 19 46  1  0
 19 47  1  0
 21 48  1  0
 22 49  1  0
 24 50  1  0
 27 51  1  0
 28 52  1  0
M  END
>  <smiles>  (41) 
O=C(NCC(=O)N1CC[C@H](OCc2ccccc2)C1)c1ccc2cc(F)ccc2n1

>  <score_type>  (41) 
oracle

>  <origin>  (41) 
autodockgpu

>  <m_score__min__energy>  (41) 
-8.9900000000000002

>  <m_primary>  (41) 
energy

>  <rmsd>  (41) 
3.1499749041188205

>  <m_score__min__rmsd>  (41) 
3.1499749041188205

>  <meeko>  (41) 
{"free_energy": -8.65, "intermolecular_energy": -10.74, "internal_energy": -1.18, "cluster_size": 11, "cluster_id": 4, "rank_in_cluster": 4}

>  <energy>  (41) 
-8.38

>  <cluster_rmsd>  (41) 
0.69

>  <cluster>  (41) 
4

$$$$

     RDKit          3D

 52 55  0  0  0  0  0  0  0  0999 V2000
  141.4750   73.8040  220.9140 O   0  0  0  0  0  0  0  0  0  0  0  0
  140.4760   74.1030  221.6280 C   0  0  0  0  0  0  0  0  0  0  0  0
  139.6010   73.1060  222.1730 N   0  0  0  0  0  0  0  0  0  0  0  0
  139.9230   71.7270  221.8610 C   0  0  0  0  0  0  0  0  0  0  0  0
  138.7430   70.8430  222.0040 C   0  0  0  0  0  0  0  0  0  0  0  0
  138.0070   70.6470  221.0100 O   0  0  0  0  0  0  0  0  0  0  0  0
  138.5140   70.2610  223.2820 N   0  0  0  0  0  0  0  0  0  0  0  0
  137.4190   70.5040  224.2130 C   0  0  0  0  0  0  0  0  0  0  0  0
  137.4230   69.2990  225.1290 C   0  0  0  0  0  0  0  0  0  0  0  0
  138.4730   68.3670  224.5810 C   0  0  2  0  0  0  0  0  0  0  0  0
  139.0830   67.7370  225.6860 O   0  0  0  0  0  0  0  0  0  0  0  0
  140.3450   68.3150  225.7960 C   0  0  0  0  0  0  0  0  0  0  0  0
  140.3360   69.5120  226.6700 C   0  0  0  0  0  0  0  0  0  0  0  0
  141.0710   70.6250  226.3490 C   0  0  0  0  0  0  0  0  0  0  0  0
  141.0520   71.7430  227.1800 C   0  0  0  0  0  0  0  0  0  0  0  0
  140.2880   71.7530  228.3490 C   0  0  0  0  0  0  0  0  0  0  0  0
  139.5600   70.6480  228.6630 C   0  0  0  0  0  0  0  0  0  0  0  0
  139.5910   69.5540  227.8320 C   0  0  0  0  0  0  0  0  0  0  0  0
  139.4100   69.2790  223.8640 C   0  0  0  0  0  0  0  0  0  0  0  0
  140.1770   75.5000  221.9250 C   0  0  0  0  0  0  0  0  0  0  0  0
  138.9050   76.0010  221.7120 C   0  0  0  0  0  0  0  0  0  0  0  0
  138.5750   77.3230  221.9780 C   0  0  0  0  0  0  0  0  0  0  0  0
  139.5480   78.1800  222.4780 C   0  0  0  0  0  0  0  0  0  0  0  0
  139.2750   79.5110  222.7630 C   0  0  0  0  0  0  0  0  0  0  0  0
  140.2830   80.3310  223.2610 C   0  0  0  0  0  0  0  0  0  0  0  0
  140.0220   81.6280  223.5400 F   0  0  0  0  0  0  0  0  0  0  0  0
  141.5490   79.8040  223.4650 C   0  0  0  0  0  0  0  0  0  0  0  0
  141.7990   78.4750  223.1740 C   0  0  0  0  0  0  0  0  0  0  0  0
  140.8130   77.6510  222.6800 C   0  0  0  0  0  0  0  0  0  0  0  0
  141.0880   76.3640  222.4080 N   0  0  0  0  0  0  0  0  0  0  0  0
  138.7780   73.3750  222.7610 H   0  0  0  0  0  0  0  0  0  0  0  0
  140.2864   71.6716  220.8242 H   0  0  0  0  0  0  0  0  0  0  0  0
  140.6941   71.3866  222.5677 H   0  0  0  0  0  0  0  0  0  0  0  0
  137.5931   71.4273  224.7850 H   0  0  0  0  0  0  0  0  0  0  0  0
  136.4553   70.6344  223.6990 H   0  0  0  0  0  0  0  0  0  0  0  0
  137.6770   69.6000  226.1561 H   0  0  0  0  0  0  0  0  0  0  0  0
  136.4350   68.8169  225.1665 H   0  0  0  0  0  0  0  0  0  0  0  0
  138.1059   67.5770  223.9093 H   0  0  0  0  0  0  0  0  0  0  0  0
  141.0393   67.5732  226.2176 H   0  0  0  0  0  0  0  0  0  0  0  0
  140.6611   68.6318  224.7912 H   0  0  0  0  0  0  0  0  0  0  0  0
  141.6779   70.6347  225.4316 H   0  0  0  0  0  0  0  0  0  0  0  0
  141.6463   72.6290  226.9120 H   0  0  0  0  0  0  0  0  0  0  0  0
  140.2753   72.6374  229.0030 H   0  0  0  0  0  0  0  0  0  0  0  0
  138.9493   70.6301  229.5777 H   0  0  0  0  0  0  0  0  0  0  0  0
  138.9948   68.6708  228.1050 H   0  0  0  0  0  0  0  0  0  0  0  0
  140.1166   69.7511  224.5624 H   0  0  0  0  0  0  0  0  0  0  0  0
  140.0374   68.7650  223.1209 H   0  0  0  0  0  0  0  0  0  0  0  0
  138.1285   75.3287  221.3184 H   0  0  0  0  0  0  0  0  0  0  0  0
  137.5538   77.6884  221.7948 H   0  0  0  0  0  0  0  0  0  0  0  0
  138.2659   79.9158  222.5958 H   0  0  0  0  0  0  0  0  0  0  0  0
  142.3541   80.4423  223.8580 H   0  0  0  0  0  0  0  0  0  0  0  0
  142.8072   78.0679  223.3409 H   0  0  0  0  0  0  0  0  0  0  0  0
  1  2  2  0
  2  3  1  0
  3  4  1  0
  4  5  1  0
  5  6  2  0
  5  7  1  0
  7  8  1  0
  8  9  1  0
  9 10  1  0
 10 11  1  0
 11 12  1  0
 12 13  1  0
 13 14  2  0
 14 15  1  0
 15 16  2  0
 16 17  1  0
 17 18  2  0
 10 19  1  0
  2 20  1  0
 20 21  2  0
 21 22  1  0
 22 23  2  0
 23 24  1  0
 24 25  2  0
 25 26  1  0
 25 27  1  0
 27 28  2  0
 28 29  1  0
 29 30  2  0
 19  7  1  0
 30 20  1  0
 18 13  1  0
 29 23  1  0
  3 31  1  0
  4 32  1  0
  4 33  1  0
  8 34  1  0
  8 35  1  0
  9 36  1  0
  9 37  1  0
 10 38  1  6
 12 39  1  0
 12 40  1  0
 14 41  1  0
 15 42  1  0
 16 43  1  0
 17 44  1  0
 18 45  1  0
 19 46  1  0
 19 47  1  0
 21 48  1  0
 22 49  1  0
 24 50  1  0
 27 51  1  0
 28 52  1  0
M  END
>  <smiles>  (42) 
O=C(NCC(=O)N1CC[C@H](OCc2ccccc2)C1)c1ccc2cc(F)ccc2n1

>  <score_type>  (42) 
oracle

>  <origin>  (42) 
autodockgpu

>  <m_score__min__energy>  (42) 
-8.9900000000000002

>  <m_primary>  (42) 
energy

>  <rmsd>  (42) 
8.455481145712964

>  <m_score__min__rmsd>  (42) 
8.455481145712964

>  <meeko>  (42) 
{"free_energy": -8.34, "intermolecular_energy": -10.42, "internal_energy": -1.24, "cluster_size": 20, "cluster_id": 1, "rank_in_cluster": 11}

>  <energy>  (42) 
-8.21

>  <cluster_rmsd>  (42) 
0.97

>  <cluster>  (42) 
4

$$$$

     RDKit          3D

 52 55  0  0  0  0  0  0  0  0999 V2000
  141.1320   74.0680  221.5100 O   0  0  0  0  0  0  0  0  0  0  0  0
  140.0840   74.6110  221.9640 C   0  0  0  0  0  0  0  0  0  0  0  0
  138.9330   73.8460  222.3440 N   0  0  0  0  0  0  0  0  0  0  0  0
  139.0310   72.4080  222.1810 C   0  0  0  0  0  0  0  0  0  0  0  0
  137.8700   71.7080  222.7780 C   0  0  0  0  0  0  0  0  0  0  0  0
  136.7990   72.3370  222.9380 O   0  0  0  0  0  0  0  0  0  0  0  0
  138.0460   70.3430  223.1370 N   0  0  0  0  0  0  0  0  0  0  0  0
  138.1140   69.1730  222.2700 C   0  0  0  0  0  0  0  0  0  0  0  0
  138.7830   68.1100  223.1170 C   0  0  0  0  0  0  0  0  0  0  0  0
  139.1670   68.7900  224.4050 C   0  0  2  0  0  0  0  0  0  0  0  0
  139.0090   67.8400  225.4360 O   0  0  0  0  0  0  0  0  0  0  0  0
  140.1720   67.9200  226.1990 C   0  0  0  0  0  0  0  0  0  0  0  0
  140.4060   69.2890  226.7160 C   0  0  0  0  0  0  0  0  0  0  0  0
  141.2500   70.1530  226.0650 C   0  0  0  0  0  0  0  0  0  0  0  0
  141.4600   71.4380  226.5630 C   0  0  0  0  0  0  0  0  0  0  0  0
  140.8190   71.8680  227.7260 C   0  0  0  0  0  0  0  0  0  0  0  0
  139.9830   71.0080  228.3680 C   0  0  0  0  0  0  0  0  0  0  0  0
  139.7880   69.7450  227.8630 C   0  0  0  0  0  0  0  0  0  0  0  0
  138.1890   69.9100  224.5150 C   0  0  0  0  0  0  0  0  0  0  0  0
  140.0150   76.0600  222.1160 C   0  0  0  0  0  0  0  0  0  0  0  0
  138.7890   76.6890  222.2430 C   0  0  0  0  0  0  0  0  0  0  0  0
  138.6740   78.0650  222.3900 C   0  0  0  0  0  0  0  0  0  0  0  0
  139.8230   78.8450  222.4110 C   0  0  0  0  0  0  0  0  0  0  0  0
  139.7690   80.2250  222.5560 C   0  0  0  0  0  0  0  0  0  0  0  0
  140.9470   80.9650  222.5700 C   0  0  0  0  0  0  0  0  0  0  0  0
  140.9000   82.3090  222.7100 F   0  0  0  0  0  0  0  0  0  0  0  0
  142.1620   80.3090  222.4410 C   0  0  0  0  0  0  0  0  0  0  0  0
  142.1940   78.9340  222.2980 C   0  0  0  0  0  0  0  0  0  0  0  0
  141.0360   78.1880  222.2810 C   0  0  0  0  0  0  0  0  0  0  0  0
  141.1010   76.8530  222.1410 N   0  0  0  0  0  0  0  0  0  0  0  0
  138.0740   74.3150  222.7160 H   0  0  0  0  0  0  0  0  0  0  0  0
  139.0751   72.1732  221.1073 H   0  0  0  0  0  0  0  0  0  0  0  0
  139.9400   72.0658  222.6973 H   0  0  0  0  0  0  0  0  0  0  0  0
  137.1054   68.8527  221.9697 H   0  0  0  0  0  0  0  0  0  0  0  0
  138.6653   69.3740  221.3396 H   0  0  0  0  0  0  0  0  0  0  0  0
  138.0853   67.2827  223.3143 H   0  0  0  0  0  0  0  0  0  0  0  0
  139.6598   67.6816  222.6093 H   0  0  0  0  0  0  0  0  0  0  0  0
  140.1991   69.1670  224.4560 H   0  0  0  0  0  0  0  0  0  0  0  0
  140.0858   67.2291  227.0506 H   0  0  0  0  0  0  0  0  0  0  0  0
  141.0206   67.6523  225.5524 H   0  0  0  0  0  0  0  0  0  0  0  0
  141.7628   69.8305  225.1468 H   0  0  0  0  0  0  0  0  0  0  0  0
  142.1394   72.1217  226.0328 H   0  0  0  0  0  0  0  0  0  0  0  0
  140.9866   72.8828  228.1159 H   0  0  0  0  0  0  0  0  0  0  0  0
  139.4658   71.3220  229.2866 H   0  0  0  0  0  0  0  0  0  0  0  0
  139.1078   69.0657  228.3977 H   0  0  0  0  0  0  0  0  0  0  0  0
  137.2291   69.5602  224.9228 H   0  0  0  0  0  0  0  0  0  0  0  0
  138.5167   70.7115  225.1934 H   0  0  0  0  0  0  0  0  0  0  0  0
  137.8743   76.0782  222.2270 H   0  0  0  0  0  0  0  0  0  0  0  0
  137.6832   78.5324  222.4888 H   0  0  0  0  0  0  0  0  0  0  0  0
  138.7980   80.7314  222.6594 H   0  0  0  0  0  0  0  0  0  0  0  0
  143.1005   80.8826  222.4524 H   0  0  0  0  0  0  0  0  0  0  0  0
  143.1640   78.4254  222.1957 H   0  0  0  0  0  0  0  0  0  0  0  0
  1  2  2  0
  2  3  1  0
  3  4  1  0
  4  5  1  0
  5  6  2  0
  5  7  1  0
  7  8  1  0
  8  9  1  0
  9 10  1  0
 10 11  1  0
 11 12  1  0
 12 13  1  0
 13 14  2  0
 14 15  1  0
 15 16  2  0
 16 17  1  0
 17 18  2  0
 10 19  1  0
  2 20  1  0
 20 21  2  0
 21 22  1  0
 22 23  2  0
 23 24  1  0
 24 25  2  0
 25 26  1  0
 25 27  1  0
 27 28  2  0
 28 29  1  0
 29 30  2  0
 19  7  1  0
 30 20  1  0
 18 13  1  0
 29 23  1  0
  3 31  1  0
  4 32  1  0
  4 33  1  0
  8 34  1  0
  8 35  1  0
  9 36  1  0
  9 37  1  0
 10 38  1  6
 12 39  1  0
 12 40  1  0
 14 41  1  0
 15 42  1  0
 16 43  1  0
 17 44  1  0
 18 45  1  0
 19 46  1  0
 19 47  1  0
 21 48  1  0
 22 49  1  0
 24 50  1  0
 27 51  1  0
 28 52  1  0
M  END
>  <smiles>  (43) 
O=C(NCC(=O)N1CC[C@H](OCc2ccccc2)C1)c1ccc2cc(F)ccc2n1

>  <score_type>  (43) 
oracle

>  <origin>  (43) 
autodockgpu

>  <m_score__min__energy>  (43) 
-8.9900000000000002

>  <m_primary>  (43) 
energy

>  <rmsd>  (43) 
8.755654901388242

>  <m_score__min__rmsd>  (43) 
8.755654901388242

>  <meeko>  (43) 
{"free_energy": -8.89, "intermolecular_energy": -10.98, "internal_energy": -1.52, "cluster_size": 20, "cluster_id": 1, "rank_in_cluster": 2}

>  <energy>  (43) 
-8.2

>  <cluster_rmsd>  (43) 
0.83

>  <cluster>  (43) 
4

$$$$

     RDKit          3D

 52 55  0  0  0  0  0  0  0  0999 V2000
  140.2470   73.6290  221.5530 O   0  0  0  0  0  0  0  0  0  0  0  0
  139.2540   74.2530  222.0250 C   0  0  0  0  0  0  0  0  0  0  0  0
  138.0140   73.5980  222.3260 N   0  0  0  0  0  0  0  0  0  0  0  0
  137.9550   72.1730  222.0590 C   0  0  0  0  0  0  0  0  0  0  0  0
  137.2620   71.4410  223.1420 C   0  0  0  0  0  0  0  0  0  0  0  0
  136.3390   72.0110  223.7670 O   0  0  0  0  0  0  0  0  0  0  0  0
  137.6920   70.1110  223.4110 N   0  0  0  0  0  0  0  0  0  0  0  0
  137.9730   69.0350  222.4680 C   0  0  0  0  0  0  0  0  0  0  0  0
  138.8350   68.0630  223.2450 C   0  0  0  0  0  0  0  0  0  0  0  0
  139.0930   68.7150  224.5790 C   0  0  2  0  0  0  0  0  0  0  0  0
  139.1220   67.6850  225.5430 O   0  0  0  0  0  0  0  0  0  0  0  0
  140.3100   67.8660  226.2460 C   0  0  0  0  0  0  0  0  0  0  0  0
  140.4600   69.2570  226.7390 C   0  0  0  0  0  0  0  0  0  0  0  0
  139.8110   69.6770  227.8720 C   0  0  0  0  0  0  0  0  0  0  0  0
  139.9620   70.9860  228.3230 C   0  0  0  0  0  0  0  0  0  0  0  0
  140.7730   71.8910  227.6350 C   0  0  0  0  0  0  0  0  0  0  0  0
  141.4150   71.4700  226.5120 C   0  0  0  0  0  0  0  0  0  0  0  0
  141.2540   70.1750  226.0820 C   0  0  0  0  0  0  0  0  0  0  0  0
  137.9220   69.6210  224.7570 C   0  0  0  0  0  0  0  0  0  0  0  0
  139.3420   75.6850  222.2840 C   0  0  0  0  0  0  0  0  0  0  0  0
  138.1910   76.4430  222.4110 C   0  0  0  0  0  0  0  0  0  0  0  0
  138.2260   77.8090  222.6560 C   0  0  0  0  0  0  0  0  0  0  0  0
  139.4540   78.4460  222.7800 C   0  0  0  0  0  0  0  0  0  0  0  0
  139.5500   79.8090  223.0260 C   0  0  0  0  0  0  0  0  0  0  0  0
  140.8030   80.4040  223.1410 C   0  0  0  0  0  0  0  0  0  0  0  0
  140.9020   81.7310  223.3800 F   0  0  0  0  0  0  0  0  0  0  0  0
  141.9400   79.6220  223.0090 C   0  0  0  0  0  0  0  0  0  0  0  0
  141.8220   78.2660  222.7650 C   0  0  0  0  0  0  0  0  0  0  0  0
  140.5900   77.6630  222.6480 C   0  0  0  0  0  0  0  0  0  0  0  0
  140.5090   76.3430  222.4100 N   0  0  0  0  0  0  0  0  0  0  0  0
  137.2030   74.1330  222.7160 H   0  0  0  0  0  0  0  0  0  0  0  0
  137.4140   72.0093  221.1153 H   0  0  0  0  0  0  0  0  0  0  0  0
  138.9855   71.7936  221.9939 H   0  0  0  0  0  0  0  0  0  0  0  0
  137.0406   68.5517  222.1410 H   0  0  0  0  0  0  0  0  0  0  0  0
  138.4706   69.3979  221.5566 H   0  0  0  0  0  0  0  0  0  0  0  0
  138.3067   67.1079  223.3817 H   0  0  0  0  0  0  0  0  0  0  0  0
  139.7734   67.8425  222.7150 H   0  0  0  0  0  0  0  0  0  0  0  0
  140.0364   69.2745  224.6623 H   0  0  0  0  0  0  0  0  0  0  0  0
  140.3205   67.1814  227.1070 H   0  0  0  0  0  0  0  0  0  0  0  0
  141.1446   67.6577  225.5604 H   0  0  0  0  0  0  0  0  0  0  0  0
  139.1687   68.9772  228.4266 H   0  0  0  0  0  0  0  0  0  0  0  0
  139.4358   71.3111  229.2326 H   0  0  0  0  0  0  0  0  0  0  0  0
  140.8904   72.9241  227.9941 H   0  0  0  0  0  0  0  0  0  0  0  0
  142.0596   72.1627  225.9511 H   0  0  0  0  0  0  0  0  0  0  0  0
  141.7825   69.8550  225.1719 H   0  0  0  0  0  0  0  0  0  0  0  0
  137.0476   69.0701  225.1336 H   0  0  0  0  0  0  0  0  0  0  0  0
  138.0969   70.4224  225.4899 H   0  0  0  0  0  0  0  0  0  0  0  0
  137.2145   75.9458  222.3144 H   0  0  0  0  0  0  0  0  0  0  0  0
  137.2911   78.3808  222.7509 H   0  0  0  0  0  0  0  0  0  0  0  0
  138.6389   80.4166  223.1297 H   0  0  0  0  0  0  0  0  0  0  0  0
  142.9361   80.0801  223.0984 H   0  0  0  0  0  0  0  0  0  0  0  0
  142.7318   77.6563  222.6622 H   0  0  0  0  0  0  0  0  0  0  0  0
  1  2  2  0
  2  3  1  0
  3  4  1  0
  4  5  1  0
  5  6  2  0
  5  7  1  0
  7  8  1  0
  8  9  1  0
  9 10  1  0
 10 11  1  0
 11 12  1  0
 12 13  1  0
 13 14  2  0
 14 15  1  0
 15 16  2  0
 16 17  1  0
 17 18  2  0
 10 19  1  0
  2 20  1  0
 20 21  2  0
 21 22  1  0
 22 23  2  0
 23 24  1  0
 24 25  2  0
 25 26  1  0
 25 27  1  0
 27 28  2  0
 28 29  1  0
 29 30  2  0
 19  7  1  0
 30 20  1  0
 18 13  1  0
 29 23  1  0
  3 31  1  0
  4 32  1  0
  4 33  1  0
  8 34  1  0
  8 35  1  0
  9 36  1  0
  9 37  1  0
 10 38  1  6
 12 39  1  0
 12 40  1  0
 14 41  1  0
 15 42  1  0
 16 43  1  0
 17 44  1  0
 18 45  1  0
 19 46  1  0
 19 47  1  0
 21 48  1  0
 22 49  1  0
 24 50  1  0
 27 51  1  0
 28 52  1  0
M  END
>  <smiles>  (44) 
O=C(NCC(=O)N1CC[C@H](OCc2ccccc2)C1)c1ccc2cc(F)ccc2n1

>  <score_type>  (44) 
oracle

>  <origin>  (44) 
autodockgpu

>  <m_score__min__energy>  (44) 
-8.9900000000000002

>  <m_primary>  (44) 
energy

>  <rmsd>  (44) 
8.53570328988283

>  <m_score__min__rmsd>  (44) 
8.53570328988283

>  <meeko>  (44) 
{"free_energy": -8.81, "intermolecular_energy": -10.9, "internal_energy": -1.43, "cluster_size": 20, "cluster_id": 1, "rank_in_cluster": 3}

>  <energy>  (44) 
-8.16

>  <cluster_rmsd>  (44) 
1.07

>  <cluster>  (44) 
4

$$$$

     RDKit          3D

 52 55  0  0  0  0  0  0  0  0999 V2000
  140.0330   73.6510  222.3980 O   0  0  0  0  0  0  0  0  0  0  0  0
  140.4310   72.4510  222.3860 C   0  0  0  0  0  0  0  0  0  0  0  0
  141.0970   71.8800  221.2510 N   0  0  0  0  0  0  0  0  0  0  0  0
  141.2930   72.7540  220.1110 C   0  0  0  0  0  0  0  0  0  0  0  0
  142.6440   73.3600  220.1100 C   0  0  0  0  0  0  0  0  0  0  0  0
  143.6420   72.6200  220.2690 O   0  0  0  0  0  0  0  0  0  0  0  0
  142.7280   74.7680  219.9260 N   0  0  0  0  0  0  0  0  0  0  0  0
  143.6410   75.5250  219.0780 C   0  0  0  0  0  0  0  0  0  0  0  0
  142.9700   76.8710  218.9020 C   0  0  0  0  0  0  0  0  0  0  0  0
  141.6310   76.7570  219.5820 C   0  0  2  0  0  0  0  0  0  0  0  0
  141.3530   78.0140  220.1590 O   0  0  0  0  0  0  0  0  0  0  0  0
  141.1100   77.7590  221.5070 C   0  0  0  0  0  0  0  0  0  0  0  0
  141.3960   78.9390  222.3580 C   0  0  0  0  0  0  0  0  0  0  0  0
  140.3930   79.5680  223.0500 C   0  0  0  0  0  0  0  0  0  0  0  0
  140.6770   80.6750  223.8460 C   0  0  0  0  0  0  0  0  0  0  0  0
  141.9810   81.1630  223.9560 C   0  0  0  0  0  0  0  0  0  0  0  0
  142.9730   80.5350  223.2680 C   0  0  0  0  0  0  0  0  0  0  0  0
  142.6740   79.4440  222.4870 C   0  0  0  0  0  0  0  0  0  0  0  0
  141.8490   75.6990  220.6100 C   0  0  0  0  0  0  0  0  0  0  0  0
  140.2200   71.5950  223.5480 C   0  0  0  0  0  0  0  0  0  0  0  0
  139.4730   70.4360  223.4330 C   0  0  0  0  0  0  0  0  0  0  0  0
  139.2450   69.5910  224.5110 C   0  0  0  0  0  0  0  0  0  0  0  0
  139.7820   69.9120  225.7520 C   0  0  0  0  0  0  0  0  0  0  0  0
  139.5880   69.1050  226.8650 C   0  0  0  0  0  0  0  0  0  0  0  0
  140.1440   69.4680  228.0870 C   0  0  0  0  0  0  0  0  0  0  0  0
  139.9580   68.6860  229.1740 F   0  0  0  0  0  0  0  0  0  0  0  0
  140.8890   70.6350  228.1750 C   0  0  0  0  0  0  0  0  0  0  0  0
  141.0700   71.4240  227.0540 C   0  0  0  0  0  0  0  0  0  0  0  0
  140.5250   71.0790  225.8370 C   0  0  0  0  0  0  0  0  0  0  0  0
  140.7200   71.8670  224.7670 N   0  0  0  0  0  0  0  0  0  0  0  0
  141.4190   70.8840  221.2610 H   0  0  0  0  0  0  0  0  0  0  0  0
  141.1639   72.1699  219.1879 H   0  0  0  0  0  0  0  0  0  0  0  0
  140.5535   73.5661  220.1710 H   0  0  0  0  0  0  0  0  0  0  0  0
  144.6199   75.6398  219.5665 H   0  0  0  0  0  0  0  0  0  0  0  0
  143.8306   75.0242  218.1172 H   0  0  0  0  0  0  0  0  0  0  0  0
  143.5717   77.6628  219.3721 H   0  0  0  0  0  0  0  0  0  0  0  0
  142.8621   77.1324  217.8390 H   0  0  0  0  0  0  0  0  0  0  0  0
  140.7848   76.4973  218.9289 H   0  0  0  0  0  0  0  0  0  0  0  0
  140.0530   77.4804  221.6304 H   0  0  0  0  0  0  0  0  0  0  0  0
  141.7771   76.9435  221.8232 H   0  0  0  0  0  0  0  0  0  0  0  0
  139.3602   79.1968  222.9761 H   0  0  0  0  0  0  0  0  0  0  0  0
  139.8635   81.1715  224.3953 H   0  0  0  0  0  0  0  0  0  0  0  0
  142.2017   82.0373  224.5860 H   0  0  0  0  0  0  0  0  0  0  0  0
  144.0089   80.8986  223.3365 H   0  0  0  0  0  0  0  0  0  0  0  0
  143.4908   78.9508  221.9397 H   0  0  0  0  0  0  0  0  0  0  0  0
  142.3303   76.1120  221.5088 H   0  0  0  0  0  0  0  0  0  0  0  0
  140.9164   75.2377  220.9672 H   0  0  0  0  0  0  0  0  0  0  0  0
  139.0450   70.1750  222.4539 H   0  0  0  0  0  0  0  0  0  0  0  0
  138.6458   68.6773  224.3841 H   0  0  0  0  0  0  0  0  0  0  0  0
  138.9964   68.1815  226.7806 H   0  0  0  0  0  0  0  0  0  0  0  0
  141.3352   70.9323  229.1355 H   0  0  0  0  0  0  0  0  0  0  0  0
  141.6622   72.3474  227.1359 H   0  0  0  0  0  0  0  0  0  0  0  0
  1  2  2  0
  2  3  1  0
  3  4  1  0
  4  5  1  0
  5  6  2  0
  5  7  1  0
  7  8  1  0
  8  9  1  0
  9 10  1  0
 10 11  1  0
 11 12  1  0
 12 13  1  0
 13 14  2  0
 14 15  1  0
 15 16  2  0
 16 17  1  0
 17 18  2  0
 10 19  1  0
  2 20  1  0
 20 21  2  0
 21 22  1  0
 22 23  2  0
 23 24  1  0
 24 25  2  0
 25 26  1  0
 25 27  1  0
 27 28  2  0
 28 29  1  0
 29 30  2  0
 19  7  1  0
 30 20  1  0
 18 13  1  0
 29 23  1  0
  3 31  1  0
  4 32  1  0
  4 33  1  0
  8 34  1  0
  8 35  1  0
  9 36  1  0
  9 37  1  0
 10 38  1  6
 12 39  1  0
 12 40  1  0
 14 41  1  0
 15 42  1  0
 16 43  1  0
 17 44  1  0
 18 45  1  0
 19 46  1  0
 19 47  1  0
 21 48  1  0
 22 49  1  0
 24 50  1  0
 27 51  1  0
 28 52  1  0
M  END
>  <smiles>  (45) 
O=C(NCC(=O)N1CC[C@H](OCc2ccccc2)C1)c1ccc2cc(F)ccc2n1

>  <score_type>  (45) 
oracle

>  <origin>  (45) 
autodockgpu

>  <m_score__min__energy>  (45) 
-8.9900000000000002

>  <m_primary>  (45) 
energy

>  <rmsd>  (45) 
2.4773441076750435

>  <m_score__min__rmsd>  (45) 
2.4773441076750435

>  <meeko>  (45) 
{"free_energy": -8.66, "intermolecular_energy": -10.75, "internal_energy": -1.31, "cluster_size": 14, "cluster_id": 3, "rank_in_cluster": 3}

>  <energy>  (45) 
-8.1

>  <cluster_rmsd>  (45) 
1.55

>  <cluster>  (45) 
4

$$$$

     RDKit          3D

 52 55  0  0  0  0  0  0  0  0999 V2000
  137.5590   69.8470  222.1100 O   0  0  0  0  0  0  0  0  0  0  0  0
  137.8160   70.5010  223.1610 C   0  0  0  0  0  0  0  0  0  0  0  0
  137.4010   71.8620  223.3340 N   0  0  0  0  0  0  0  0  0  0  0  0
  136.6650   72.4570  222.2350 C   0  0  0  0  0  0  0  0  0  0  0  0
  137.5690   72.9380  221.1660 C   0  0  0  0  0  0  0  0  0  0  0  0
  137.1940   72.8630  219.9740 O   0  0  0  0  0  0  0  0  0  0  0  0
  138.8290   73.4650  221.5650 N   0  0  0  0  0  0  0  0  0  0  0  0
  140.1380   72.8220  221.5360 C   0  0  0  0  0  0  0  0  0  0  0  0
  141.1260   73.9680  221.5940 C   0  0  0  0  0  0  0  0  0  0  0  0
  140.3020   75.2280  221.5360 C   0  0  2  0  0  0  0  0  0  0  0  0
  140.9460   76.1800  222.3530 O   0  0  0  0  0  0  0  0  0  0  0  0
  141.1420   77.2950  221.5420 C   0  0  0  0  0  0  0  0  0  0  0  0
  141.2460   78.5460  222.3310 C   0  0  0  0  0  0  0  0  0  0  0  0
  142.3940   79.2960  222.3150 C   0  0  0  0  0  0  0  0  0  0  0  0
  142.4770   80.4700  223.0610 C   0  0  0  0  0  0  0  0  0  0  0  0
  141.3980   80.9050  223.8330 C   0  0  0  0  0  0  0  0  0  0  0  0
  140.2610   80.1580  223.8460 C   0  0  0  0  0  0  0  0  0  0  0  0
  140.1970   79.0030  223.1040 C   0  0  0  0  0  0  0  0  0  0  0  0
  138.9830   74.8080  222.0910 C   0  0  0  0  0  0  0  0  0  0  0  0
  138.5590   69.8760  224.2500 C   0  0  0  0  0  0  0  0  0  0  0  0
  138.7310   68.5040  224.2790 C   0  0  0  0  0  0  0  0  0  0  0  0
  139.4300   67.8660  225.2960 C   0  0  0  0  0  0  0  0  0  0  0  0
  139.9780   68.6230  226.3230 C   0  0  0  0  0  0  0  0  0  0  0  0
  140.6870   68.0400  227.3650 C   0  0  0  0  0  0  0  0  0  0  0  0
  141.2170   68.8390  228.3730 C   0  0  0  0  0  0  0  0  0  0  0  0
  141.9070   68.2760  229.3900 F   0  0  0  0  0  0  0  0  0  0  0  0
  141.0300   70.2120  228.3200 C   0  0  0  0  0  0  0  0  0  0  0  0
  140.3200   70.7730  227.2730 C   0  0  0  0  0  0  0  0  0  0  0  0
  139.7890   69.9950  226.2690 C   0  0  0  0  0  0  0  0  0  0  0  0
  139.1060   70.5700  225.2650 N   0  0  0  0  0  0  0  0  0  0  0  0
  137.6250   72.3860  224.2120 H   0  0  0  0  0  0  0  0  0  0  0  0
  135.9837   71.7035  221.8131 H   0  0  0  0  0  0  0  0  0  0  0  0
  136.1060   73.3204  222.6249 H   0  0  0  0  0  0  0  0  0  0  0  0
  140.2634   72.1566  222.4029 H   0  0  0  0  0  0  0  0  0  0  0  0
  140.2763   72.1960  220.6421 H   0  0  0  0  0  0  0  0  0  0  0  0
  141.7013   73.9300  222.5308 H   0  0  0  0  0  0  0  0  0  0  0  0
  141.8487   73.9200  220.7661 H   0  0  0  0  0  0  0  0  0  0  0  0
  140.1818   75.6744  220.5379 H   0  0  0  0  0  0  0  0  0  0  0  0
  142.0712   77.1583  220.9693 H   0  0  0  0  0  0  0  0  0  0  0  0
  140.2722   77.3862  220.8748 H   0  0  0  0  0  0  0  0  0  0  0  0
  143.2531   78.9694  221.7106 H   0  0  0  0  0  0  0  0  0  0  0  0
  143.4042   81.0615  223.0415 H   0  0  0  0  0  0  0  0  0  0  0  0
  141.4659   81.8334  224.4191 H   0  0  0  0  0  0  0  0  0  0  0  0
  139.3971   80.4770  224.4475 H   0  0  0  0  0  0  0  0  0  0  0  0
  139.2673   78.4155  223.1269 H   0  0  0  0  0  0  0  0  0  0  0  0
  138.9986   74.8039  223.1909 H   0  0  0  0  0  0  0  0  0  0  0  0
  138.1587   75.4821  221.8152 H   0  0  0  0  0  0  0  0  0  0  0  0
  138.2996   67.8973  223.4692 H   0  0  0  0  0  0  0  0  0  0  0  0
  139.5481   66.7724  225.2878 H   0  0  0  0  0  0  0  0  0  0  0  0
  140.8291   66.9496  227.3933 H   0  0  0  0  0  0  0  0  0  0  0  0
  141.4458   70.8549  229.1098 H   0  0  0  0  0  0  0  0  0  0  0  0
  140.1770   71.8632  227.2423 H   0  0  0  0  0  0  0  0  0  0  0  0
  1  2  2  0
  2  3  1  0
  3  4  1  0
  4  5  1  0
  5  6  2  0
  5  7  1  0
  7  8  1  0
  8  9  1  0
  9 10  1  0
 10 11  1  0
 11 12  1  0
 12 13  1  0
 13 14  2  0
 14 15  1  0
 15 16  2  0
 16 17  1  0
 17 18  2  0
 10 19  1  0
  2 20  1  0
 20 21  2  0
 21 22  1  0
 22 23  2  0
 23 24  1  0
 24 25  2  0
 25 26  1  0
 25 27  1  0
 27 28  2  0
 28 29  1  0
 29 30  2  0
 19  7  1  0
 30 20  1  0
 18 13  1  0
 29 23  1  0
  3 31  1  0
  4 32  1  0
  4 33  1  0
  8 34  1  0
  8 35  1  0
  9 36  1  0
  9 37  1  0
 10 38  1  6
 12 39  1  0
 12 40  1  0
 14 41  1  0
 15 42  1  0
 16 43  1  0
 17 44  1  0
 18 45  1  0
 19 46  1  0
 19 47  1  0
 21 48  1  0
 22 49  1  0
 24 50  1  0
 27 51  1  0
 28 52  1  0
M  END
>  <smiles>  (46) 
O=C(NCC(=O)N1CC[C@H](OCc2ccccc2)C1)c1ccc2cc(F)ccc2n1

>  <score_type>  (46) 
oracle

>  <origin>  (46) 
autodockgpu

>  <m_score__min__energy>  (46) 
-8.9900000000000002

>  <m_primary>  (46) 
energy

>  <rmsd>  (46) 
2.809298050726965

>  <m_score__min__rmsd>  (46) 
2.809298050726965

>  <meeko>  (46) 
{"free_energy": -7.93, "intermolecular_energy": -10.01, "internal_energy": -1.52, "cluster_size": 11, "cluster_id": 4, "rank_in_cluster": 11}

>  <energy>  (46) 
-8.0

>  <cluster_rmsd>  (46) 
1.22

>  <cluster>  (46) 
4

$$$$

     RDKit          3D

 52 55  0  0  0  0  0  0  0  0999 V2000
  139.9560   73.7030  222.5460 O   0  0  0  0  0  0  0  0  0  0  0  0
  140.4120   72.5270  222.4620 C   0  0  0  0  0  0  0  0  0  0  0  0
  141.0800   72.0510  221.2860 N   0  0  0  0  0  0  0  0  0  0  0  0
  141.2070   72.9920  220.1900 C   0  0  0  0  0  0  0  0  0  0  0  0
  142.6180   73.3770  219.9580 C   0  0  0  0  0  0  0  0  0  0  0  0
  143.5240   72.5580  220.2340 O   0  0  0  0  0  0  0  0  0  0  0  0
  142.8610   74.6740  219.4260 N   0  0  0  0  0  0  0  0  0  0  0  0
  143.5070   75.0400  218.1710 C   0  0  0  0  0  0  0  0  0  0  0  0
  143.0550   76.4610  217.9100 C   0  0  0  0  0  0  0  0  0  0  0  0
  142.0650   76.7860  218.9980 C   0  0  2  0  0  0  0  0  0  0  0  0
  142.2360   78.1490  219.3180 O   0  0  0  0  0  0  0  0  0  0  0  0
  141.1540   78.4810  220.1300 C   0  0  0  0  0  0  0  0  0  0  0  0
  141.5870   79.0420  221.4320 C   0  0  0  0  0  0  0  0  0  0  0  0
  142.1730   80.2800  221.5060 C   0  0  0  0  0  0  0  0  0  0  0  0
  142.5730   80.7950  222.7360 C   0  0  0  0  0  0  0  0  0  0  0  0
  142.3870   80.0670  223.9130 C   0  0  0  0  0  0  0  0  0  0  0  0
  141.8050   78.8390  223.8350 C   0  0  0  0  0  0  0  0  0  0  0  0
  141.4160   78.3470  222.6130 C   0  0  0  0  0  0  0  0  0  0  0  0
  142.4690   75.8880  220.1180 C   0  0  0  0  0  0  0  0  0  0  0  0
  140.2700   71.6030  223.5810 C   0  0  0  0  0  0  0  0  0  0  0  0
  139.6480   70.3800  223.4000 C   0  0  0  0  0  0  0  0  0  0  0  0
  139.4890   69.4680  224.4350 C   0  0  0  0  0  0  0  0  0  0  0  0
  139.9690   69.7850  225.6990 C   0  0  0  0  0  0  0  0  0  0  0  0
  139.8390   68.9130  226.7710 C   0  0  0  0  0  0  0  0  0  0  0  0
  140.3350   69.2740  228.0200 C   0  0  0  0  0  0  0  0  0  0  0  0
  140.2110   68.4280  229.0680 F   0  0  0  0  0  0  0  0  0  0  0  0
  140.9550   70.5050  228.1750 C   0  0  0  0  0  0  0  0  0  0  0  0
  141.0740   71.3590  227.0930 C   0  0  0  0  0  0  0  0  0  0  0  0
  140.5870   71.0160  225.8510 C   0  0  0  0  0  0  0  0  0  0  0  0
  140.7190   71.8680  224.8210 N   0  0  0  0  0  0  0  0  0  0  0  0
  141.4510   71.0730  221.2360 H   0  0  0  0  0  0  0  0  0  0  0  0
  140.8089   72.5290  219.2750 H   0  0  0  0  0  0  0  0  0  0  0  0
  140.6428   73.8996  220.4508 H   0  0  0  0  0  0  0  0  0  0  0  0
  144.6016   74.9924  218.2692 H   0  0  0  0  0  0  0  0  0  0  0  0
  143.2392   74.3592  217.3495 H   0  0  0  0  0  0  0  0  0  0  0  0
  143.9119   77.1493  217.9544 H   0  0  0  0  0  0  0  0  0  0  0  0
  142.6059   76.5648  216.9112 H   0  0  0  0  0  0  0  0  0  0  0  0
  141.0062   76.6362  218.7400 H   0  0  0  0  0  0  0  0  0  0  0  0
  140.5358   79.2275  219.6099 H   0  0  0  0  0  0  0  0  0  0  0  0
  140.5846   77.5612  220.3294 H   0  0  0  0  0  0  0  0  0  0  0  0
  142.3275   80.8684  220.5895 H   0  0  0  0  0  0  0  0  0  0  0  0
  143.0420   81.7890  222.7813 H   0  0  0  0  0  0  0  0  0  0  0  0
  142.7042   80.4774  224.8830 H   0  0  0  0  0  0  0  0  0  0  0  0
  141.6469   78.2435  224.7463 H   0  0  0  0  0  0  0  0  0  0  0  0
  140.9464   77.3531  222.5733 H   0  0  0  0  0  0  0  0  0  0  0  0
  143.3119   76.3127  220.6830 H   0  0  0  0  0  0  0  0  0  0  0  0
  141.6730   75.7302  220.8607 H   0  0  0  0  0  0  0  0  0  0  0  0
  139.2662   70.1213  222.4013 H   0  0  0  0  0  0  0  0  0  0  0  0
  138.9884   68.5051  224.2557 H   0  0  0  0  0  0  0  0  0  0  0  0
  139.3454   67.9396  226.6337 H   0  0  0  0  0  0  0  0  0  0  0  0
  141.3516   70.8020  229.1571 H   0  0  0  0  0  0  0  0  0  0  0  0
  141.5680   72.3326  227.2274 H   0  0  0  0  0  0  0  0  0  0  0  0
  1  2  2  0
  2  3  1  0
  3  4  1  0
  4  5  1  0
  5  6  2  0
  5  7  1  0
  7  8  1  0
  8  9  1  0
  9 10  1  0
 10 11  1  0
 11 12  1  0
 12 13  1  0
 13 14  2  0
 14 15  1  0
 15 16  2  0
 16 17  1  0
 17 18  2  0
 10 19  1  0
  2 20  1  0
 20 21  2  0
 21 22  1  0
 22 23  2  0
 23 24  1  0
 24 25  2  0
 25 26  1  0
 25 27  1  0
 27 28  2  0
 28 29  1  0
 29 30  2  0
 19  7  1  0
 30 20  1  0
 18 13  1  0
 29 23  1  0
  3 31  1  0
  4 32  1  0
  4 33  1  0
  8 34  1  0
  8 35  1  0
  9 36  1  0
  9 37  1  0
 10 38  1  6
 12 39  1  0
 12 40  1  0
 14 41  1  0
 15 42  1  0
 16 43  1  0
 17 44  1  0
 18 45  1  0
 19 46  1  0
 19 47  1  0
 21 48  1  0
 22 49  1  0
 24 50  1  0
 27 51  1  0
 28 52  1  0
M  END
>  <smiles>  (47) 
O=C(NCC(=O)N1CC[C@H](OCc2ccccc2)C1)c1ccc2cc(F)ccc2n1

>  <score_type>  (47) 
oracle

>  <origin>  (47) 
autodockgpu

>  <m_score__min__energy>  (47) 
-8.9900000000000002

>  <m_primary>  (47) 
energy

>  <rmsd>  (47) 
2.5543036521399323

>  <m_score__min__rmsd>  (47) 
2.5543036521399323

>  <meeko>  (47) 
{"free_energy": -8.47, "intermolecular_energy": -10.56, "internal_energy": -1.29, "cluster_size": 14, "cluster_id": 3, "rank_in_cluster": 6}

>  <energy>  (47) 
-7.93

>  <cluster_rmsd>  (47) 
1.58

>  <cluster>  (47) 
4

$$$$

     RDKit          3D

 52 55  0  0  0  0  0  0  0  0999 V2000
  139.7830   73.5550  222.3620 O   0  0  0  0  0  0  0  0  0  0  0  0
  140.4220   72.4660  222.4210 C   0  0  0  0  0  0  0  0  0  0  0  0
  141.3290   72.0580  221.3890 N   0  0  0  0  0  0  0  0  0  0  0  0
  141.4790   72.9630  220.2660 C   0  0  0  0  0  0  0  0  0  0  0  0
  142.7110   73.7770  220.3780 C   0  0  0  0  0  0  0  0  0  0  0  0
  143.8010   73.2010  220.5970 O   0  0  0  0  0  0  0  0  0  0  0  0
  142.5790   75.1850  220.2260 N   0  0  0  0  0  0  0  0  0  0  0  0
  143.4280   76.1060  219.4790 C   0  0  0  0  0  0  0  0  0  0  0  0
  142.5640   77.3310  219.2640 C   0  0  0  0  0  0  0  0  0  0  0  0
  141.2060   76.9810  219.8150 C   0  0  2  0  0  0  0  0  0  0  0  0
  140.6770   78.1570  220.3860 O   0  0  0  0  0  0  0  0  0  0  0  0
  141.6760   79.1180  220.2550 C   0  0  0  0  0  0  0  0  0  0  0  0
  141.8430   79.9210  221.4900 C   0  0  0  0  0  0  0  0  0  0  0  0
  141.3890   81.2140  221.5560 C   0  0  0  0  0  0  0  0  0  0  0  0
  141.5520   81.9560  222.7240 C   0  0  0  0  0  0  0  0  0  0  0  0
  142.1770   81.4020  223.8430 C   0  0  0  0  0  0  0  0  0  0  0  0
  142.6260   80.1200  223.7720 C   0  0  0  0  0  0  0  0  0  0  0  0
  142.4560   79.4030  222.6130 C   0  0  0  0  0  0  0  0  0  0  0  0
  141.5030   75.9400  220.8410 C   0  0  0  0  0  0  0  0  0  0  0  0
  140.2510   71.5750  223.5630 C   0  0  0  0  0  0  0  0  0  0  0  0
  139.5830   70.3730  223.4150 C   0  0  0  0  0  0  0  0  0  0  0  0
  139.3950   69.4930  224.4740 C   0  0  0  0  0  0  0  0  0  0  0  0
  139.8940   69.8230  225.7280 C   0  0  0  0  0  0  0  0  0  0  0  0
  139.7370   68.9830  226.8220 C   0  0  0  0  0  0  0  0  0  0  0  0
  140.2520   69.3570  228.0590 C   0  0  0  0  0  0  0  0  0  0  0  0
  140.1020   68.5430  229.1280 F   0  0  0  0  0  0  0  0  0  0  0  0
  140.9180   70.5680  228.1800 C   0  0  0  0  0  0  0  0  0  0  0  0
  141.0630   71.3890  227.0770 C   0  0  0  0  0  0  0  0  0  0  0  0
  140.5580   71.0340  225.8470 C   0  0  0  0  0  0  0  0  0  0  0  0
  140.7160   71.8550  224.7950 N   0  0  0  0  0  0  0  0  0  0  0  0
  141.8490   71.1510  221.4560 H   0  0  0  0  0  0  0  0  0  0  0  0
  141.5239   72.3745  219.3377 H   0  0  0  0  0  0  0  0  0  0  0  0
  140.6168   73.6460  220.2591 H   0  0  0  0  0  0  0  0  0  0  0  0
  144.3275   76.3618  220.0581 H   0  0  0  0  0  0  0  0  0  0  0  0
  143.7818   75.6730  218.5317 H   0  0  0  0  0  0  0  0  0  0  0  0
  142.9838   78.1943  219.8011 H   0  0  0  0  0  0  0  0  0  0  0  0
  142.5096   77.6049  218.2000 H   0  0  0  0  0  0  0  0  0  0  0  0
  140.4747   76.6098  219.0819 H   0  0  0  0  0  0  0  0  0  0  0  0
  142.6267   78.6128  220.0292 H   0  0  0  0  0  0  0  0  0  0  0  0
  141.3844   79.8012  219.4437 H   0  0  0  0  0  0  0  0  0  0  0  0
  140.8946   81.6665  220.6837 H   0  0  0  0  0  0  0  0  0  0  0  0
  141.1835   82.9916  222.7651 H   0  0  0  0  0  0  0  0  0  0  0  0
  142.3037   81.9906  224.7636 H   0  0  0  0  0  0  0  0  0  0  0  0
  143.1229   79.6597  224.6387 H   0  0  0  0  0  0  0  0  0  0  0  0
  142.8256   78.3675  222.5781 H   0  0  0  0  0  0  0  0  0  0  0  0
  141.8291   76.3969  221.7870 H   0  0  0  0  0  0  0  0  0  0  0  0
  140.6306   75.3232  221.1028 H   0  0  0  0  0  0  0  0  0  0  0  0
  139.1868   70.1043  222.4247 H   0  0  0  0  0  0  0  0  0  0  0  0
  138.8571   68.5457  224.3211 H   0  0  0  0  0  0  0  0  0  0  0  0
  139.2074   68.0253  226.7112 H   0  0  0  0  0  0  0  0  0  0  0  0
  141.3303   70.8747  229.1526 H   0  0  0  0  0  0  0  0  0  0  0  0
  141.5935   72.3466  227.1849 H   0  0  0  0  0  0  0  0  0  0  0  0
  1  2  2  0
  2  3  1  0
  3  4  1  0
  4  5  1  0
  5  6  2  0
  5  7  1  0
  7  8  1  0
  8  9  1  0
  9 10  1  0
 10 11  1  0
 11 12  1  0
 12 13  1  0
 13 14  2  0
 14 15  1  0
 15 16  2  0
 16 17  1  0
 17 18  2  0
 10 19  1  0
  2 20  1  0
 20 21  2  0
 21 22  1  0
 22 23  2  0
 23 24  1  0
 24 25  2  0
 25 26  1  0
 25 27  1  0
 27 28  2  0
 28 29  1  0
 29 30  2  0
 19  7  1  0
 30 20  1  0
 18 13  1  0
 29 23  1  0
  3 31  1  0
  4 32  1  0
  4 33  1  0
  8 34  1  0
  8 35  1  0
  9 36  1  0
  9 37  1  0
 10 38  1  6
 12 39  1  0
 12 40  1  0
 14 41  1  0
 15 42  1  0
 16 43  1  0
 17 44  1  0
 18 45  1  0
 19 46  1  0
 19 47  1  0
 21 48  1  0
 22 49  1  0
 24 50  1  0
 27 51  1  0
 28 52  1  0
M  END
>  <smiles>  (48) 
O=C(NCC(=O)N1CC[C@H](OCc2ccccc2)C1)c1ccc2cc(F)ccc2n1

>  <score_type>  (48) 
oracle

>  <origin>  (48) 
autodockgpu

>  <m_score__min__energy>  (48) 
-8.9900000000000002

>  <m_primary>  (48) 
energy

>  <rmsd>  (48) 
2.4111610746169463

>  <m_score__min__rmsd>  (48) 
2.4111610746169463

>  <meeko>  (48) 
{"free_energy": -8.73, "intermolecular_energy": -10.81, "internal_energy": -1.29, "cluster_size": 14, "cluster_id": 3, "rank_in_cluster": 2}

>  <energy>  (48) 
-8.73

>  <cluster_rmsd>  (48) 
0.0

>  <cluster>  (48) 
5

$$$$

     RDKit          3D

 52 55  0  0  0  0  0  0  0  0999 V2000
  133.3300   70.5000  226.5750 O   0  0  0  0  0  0  0  0  0  0  0  0
  133.6300   71.6150  226.0600 C   0  0  0  0  0  0  0  0  0  0  0  0
  134.5020   71.7210  224.9270 N   0  0  0  0  0  0  0  0  0  0  0  0
  135.0260   70.4770  224.3970 C   0  0  0  0  0  0  0  0  0  0  0  0
  136.4500   70.6010  224.0130 C   0  0  0  0  0  0  0  0  0  0  0  0
  136.8880   71.7190  223.6590 O   0  0  0  0  0  0  0  0  0  0  0  0
  137.2470   69.4240  224.0710 N   0  0  0  0  0  0  0  0  0  0  0  0
  137.6550   68.5430  222.9830 C   0  0  0  0  0  0  0  0  0  0  0  0
  138.8460   67.7860  223.5320 C   0  0  0  0  0  0  0  0  0  0  0  0
  139.1200   68.3760  224.8910 C   0  0  2  0  0  0  0  0  0  0  0  0
  139.5590   67.3220  225.7180 O   0  0  0  0  0  0  0  0  0  0  0  0
  140.7810   67.7410  226.2400 C   0  0  0  0  0  0  0  0  0  0  0  0
  140.7320   69.1440  226.7150 C   0  0  0  0  0  0  0  0  0  0  0  0
  141.3860   70.1410  226.0370 C   0  0  0  0  0  0  0  0  0  0  0  0
  141.3310   71.4560  226.4950 C   0  0  0  0  0  0  0  0  0  0  0  0
  140.6120   71.7830  227.6460 C   0  0  0  0  0  0  0  0  0  0  0  0
  139.9650   70.7910  228.3160 C   0  0  0  0  0  0  0  0  0  0  0  0
  140.0310   69.5000  227.8500 C   0  0  0  0  0  0  0  0  0  0  0  0
  137.7940   68.9110  225.3140 C   0  0  0  0  0  0  0  0  0  0  0  0
  133.0880   72.8500  226.6150 C   0  0  0  0  0  0  0  0  0  0  0  0
  131.9080   72.8310  227.3360 C   0  0  0  0  0  0  0  0  0  0  0  0
  131.3540   73.9810  227.8820 C   0  0  0  0  0  0  0  0  0  0  0  0
  132.0000   75.1980  227.7040 C   0  0  0  0  0  0  0  0  0  0  0  0
  131.4940   76.3800  228.2280 C   0  0  0  0  0  0  0  0  0  0  0  0
  132.1760   77.5750  228.0220 C   0  0  0  0  0  0  0  0  0  0  0  0
  131.6870   78.7290  228.5290 F   0  0  0  0  0  0  0  0  0  0  0  0
  133.3570   77.5660  227.2950 C   0  0  0  0  0  0  0  0  0  0  0  0
  133.8440   76.3780  226.7820 C   0  0  0  0  0  0  0  0  0  0  0  0
  133.1800   75.1870  226.9770 C   0  0  0  0  0  0  0  0  0  0  0  0
  133.6800   74.0490  226.4660 N   0  0  0  0  0  0  0  0  0  0  0  0
  134.7390   72.6540  224.5150 H   0  0  0  0  0  0  0  0  0  0  0  0
  134.9308   69.6946  225.1644 H   0  0  0  0  0  0  0  0  0  0  0  0
  134.4497   70.2188  223.4963 H   0  0  0  0  0  0  0  0  0  0  0  0
  136.8425   67.8502  222.7187 H   0  0  0  0  0  0  0  0  0  0  0  0
  137.9000   69.0983  222.0656 H   0  0  0  0  0  0  0  0  0  0  0  0
  138.6110   66.7150  223.6202 H   0  0  0  0  0  0  0  0  0  0  0  0
  139.7202   67.8737  222.8701 H   0  0  0  0  0  0  0  0  0  0  0  0
  139.8870   69.1639  224.9230 H   0  0  0  0  0  0  0  0  0  0  0  0
  141.0480   67.0894  227.0851 H   0  0  0  0  0  0  0  0  0  0  0  0
  141.5310   67.6808  225.4376 H   0  0  0  0  0  0  0  0  0  0  0  0
  141.9565   69.9015  225.1276 H   0  0  0  0  0  0  0  0  0  0  0  0
  141.8607   72.2461  225.9427 H   0  0  0  0  0  0  0  0  0  0  0  0
  140.5693   72.8221  228.0043 H   0  0  0  0  0  0  0  0  0  0  0  0
  139.3919   71.0214  229.2262 H   0  0  0  0  0  0  0  0  0  0  0  0
  139.5007   68.7136  228.4071 H   0  0  0  0  0  0  0  0  0  0  0  0
  137.1585   68.1145  225.7284 H   0  0  0  0  0  0  0  0  0  0  0  0
  137.8618   69.6697  226.1076 H   0  0  0  0  0  0  0  0  0  0  0  0
  131.3904   71.8714  227.4819 H   0  0  0  0  0  0  0  0  0  0  0  0
  130.4133   73.9291  228.4497 H   0  0  0  0  0  0  0  0  0  0  0  0
  130.5570   76.3716  228.8041 H   0  0  0  0  0  0  0  0  0  0  0  0
  133.9063   78.5040  227.1265 H   0  0  0  0  0  0  0  0  0  0  0  0
  134.7812   76.3841  226.2061 H   0  0  0  0  0  0  0  0  0  0  0  0
  1  2  2  0
  2  3  1  0
  3  4  1  0
  4  5  1  0
  5  6  2  0
  5  7  1  0
  7  8  1  0
  8  9  1  0
  9 10  1  0
 10 11  1  0
 11 12  1  0
 12 13  1  0
 13 14  2  0
 14 15  1  0
 15 16  2  0
 16 17  1  0
 17 18  2  0
 10 19  1  0
  2 20  1  0
 20 21  2  0
 21 22  1  0
 22 23  2  0
 23 24  1  0
 24 25  2  0
 25 26  1  0
 25 27  1  0
 27 28  2  0
 28 29  1  0
 29 30  2  0
 19  7  1  0
 30 20  1  0
 18 13  1  0
 29 23  1  0
  3 31  1  0
  4 32  1  0
  4 33  1  0
  8 34  1  0
  8 35  1  0
  9 36  1  0
  9 37  1  0
 10 38  1  6
 12 39  1  0
 12 40  1  0
 14 41  1  0
 15 42  1  0
 16 43  1  0
 17 44  1  0
 18 45  1  0
 19 46  1  0
 19 47  1  0
 21 48  1  0
 22 49  1  0
 24 50  1  0
 27 51  1  0
 28 52  1  0
M  END
>  <smiles>  (49) 
O=C(NCC(=O)N1CC[C@H](OCc2ccccc2)C1)c1ccc2cc(F)ccc2n1

>  <score_type>  (49) 
oracle

>  <origin>  (49) 
autodockgpu

>  <m_score__min__energy>  (49) 
-8.9900000000000002

>  <m_primary>  (49) 
energy

>  <rmsd>  (49) 
9.288308204667908

>  <m_score__min__rmsd>  (49) 
9.288308204667908

>  <meeko>  (49) 
{"free_energy": -8.73, "intermolecular_energy": -10.81, "internal_energy": -1.66, "cluster_size": 3, "cluster_id": 5, "rank_in_cluster": 1}

>  <energy>  (49) 
-8.68

>  <cluster_rmsd>  (49) 
0.09

>  <cluster>  (49) 
5

$$$$

     RDKit          3D

 52 55  0  0  0  0  0  0  0  0999 V2000
  136.2970   77.0420  222.2440 O   0  0  0  0  0  0  0  0  0  0  0  0
  137.3580   76.3950  222.4730 C   0  0  0  0  0  0  0  0  0  0  0  0
  137.3720   74.9650  222.5760 N   0  0  0  0  0  0  0  0  0  0  0  0
  136.0990   74.2930  222.4030 C   0  0  0  0  0  0  0  0  0  0  0  0
  136.2750   72.8820  221.9900 C   0  0  0  0  0  0  0  0  0  0  0  0
  135.2620   72.1960  221.7270 O   0  0  0  0  0  0  0  0  0  0  0  0
  137.6060   72.3860  221.9160 N   0  0  0  0  0  0  0  0  0  0  0  0
  138.5830   72.5500  220.8460 C   0  0  0  0  0  0  0  0  0  0  0  0
  139.9170   72.2580  221.4990 C   0  0  0  0  0  0  0  0  0  0  0  0
  139.6230   72.0510  222.9630 C   0  0  2  0  0  0  0  0  0  0  0  0
  140.5090   71.0560  223.4250 O   0  0  0  0  0  0  0  0  0  0  0  0
  139.8170   70.3740  224.4230 C   0  0  0  0  0  0  0  0  0  0  0  0
  140.2460   70.7870  225.7800 C   0  0  0  0  0  0  0  0  0  0  0  0
  141.0520   71.8820  225.9620 C   0  0  0  0  0  0  0  0  0  0  0  0
  141.4470   72.2590  227.2430 C   0  0  0  0  0  0  0  0  0  0  0  0
  141.0320   71.5340  228.3620 C   0  0  0  0  0  0  0  0  0  0  0  0
  140.2330   70.4480  228.1780 C   0  0  0  0  0  0  0  0  0  0  0  0
  139.8530   70.0910  226.9060 C   0  0  0  0  0  0  0  0  0  0  0  0
  138.2050   71.5920  222.9730 C   0  0  0  0  0  0  0  0  0  0  0  0
  138.6250   77.0980  222.6420 C   0  0  0  0  0  0  0  0  0  0  0  0
  139.8190   76.4610  222.3590 C   0  0  0  0  0  0  0  0  0  0  0  0
  141.0490   77.0890  222.5060 C   0  0  0  0  0  0  0  0  0  0  0  0
  141.0910   78.4040  222.9510 C   0  0  0  0  0  0  0  0  0  0  0  0
  142.2910   79.0840  223.1170 C   0  0  0  0  0  0  0  0  0  0  0  0
  142.2830   80.4000  223.5670 C   0  0  0  0  0  0  0  0  0  0  0  0
  143.4480   81.0660  223.7290 F   0  0  0  0  0  0  0  0  0  0  0  0
  141.0720   81.0160  223.8440 C   0  0  0  0  0  0  0  0  0  0  0  0
  139.8880   80.3210  223.6720 C   0  0  0  0  0  0  0  0  0  0  0  0
  139.8790   79.0180  223.2280 C   0  0  0  0  0  0  0  0  0  0  0  0
  138.7130   78.3710  223.0720 N   0  0  0  0  0  0  0  0  0  0  0  0
  138.2620   74.4480  222.7670 H   0  0  0  0  0  0  0  0  0  0  0  0
  135.5498   74.3195  223.3557 H   0  0  0  0  0  0  0  0  0  0  0  0
  135.5413   74.8145  221.6112 H   0  0  0  0  0  0  0  0  0  0  0  0
  138.3869   71.8401  220.0289 H   0  0  0  0  0  0  0  0  0  0  0  0
  138.5481   73.5547  220.3996 H   0  0  0  0  0  0  0  0  0  0  0  0
  140.3645   71.3510  221.0665 H   0  0  0  0  0  0  0  0  0  0  0  0
  140.6320   73.0792  221.3425 H   0  0  0  0  0  0  0  0  0  0  0  0
  139.7521   72.9347  223.6052 H   0  0  0  0  0  0  0  0  0  0  0  0
  138.7419   70.5792  224.3130 H   0  0  0  0  0  0  0  0  0  0  0  0
  140.0317   69.3009  224.3116 H   0  0  0  0  0  0  0  0  0  0  0  0
  141.3879   72.4651  225.0918 H   0  0  0  0  0  0  0  0  0  0  0  0
  142.0939   73.1388  227.3751 H   0  0  0  0  0  0  0  0  0  0  0  0
  141.3449   71.8350  229.3727 H   0  0  0  0  0  0  0  0  0  0  0  0
  139.8930   69.8589  229.0425 H   0  0  0  0  0  0  0  0  0  0  0  0
  139.2061   69.2104  226.7794 H   0  0  0  0  0  0  0  0  0  0  0  0
  138.1343   70.5171  222.7504 H   0  0  0  0  0  0  0  0  0  0  0  0
  137.7116   71.7191  223.9479 H   0  0  0  0  0  0  0  0  0  0  0  0
  139.7939   75.4199  222.0048 H   0  0  0  0  0  0  0  0  0  0  0  0
  141.9796   76.5509  222.2726 H   0  0  0  0  0  0  0  0  0  0  0  0
  143.2445   78.5832  222.8933 H   0  0  0  0  0  0  0  0  0  0  0  0
  141.0526   82.0565  224.2002 H   0  0  0  0  0  0  0  0  0  0  0  0
  138.9335   80.8203  223.8948 H   0  0  0  0  0  0  0  0  0  0  0  0
  1  2  2  0
  2  3  1  0
  3  4  1  0
  4  5  1  0
  5  6  2  0
  5  7  1  0
  7  8  1  0
  8  9  1  0
  9 10  1  0
 10 11  1  0
 11 12  1  0
 12 13  1  0
 13 14  2  0
 14 15  1  0
 15 16  2  0
 16 17  1  0
 17 18  2  0
 10 19  1  0
  2 20  1  0
 20 21  2  0
 21 22  1  0
 22 23  2  0
 23 24  1  0
 24 25  2  0
 25 26  1  0
 25 27  1  0
 27 28  2  0
 28 29  1  0
 29 30  2  0
 19  7  1  0
 30 20  1  0
 18 13  1  0
 29 23  1  0
  3 31  1  0
  4 32  1  0
  4 33  1  0
  8 34  1  0
  8 35  1  0
  9 36  1  0
  9 37  1  0
 10 38  1  1
 12 39  1  0
 12 40  1  0
 14 41  1  0
 15 42  1  0
 16 43  1  0
 17 44  1  0
 18 45  1  0
 19 46  1  0
 19 47  1  0
 21 48  1  0
 22 49  1  0
 24 50  1  0
 27 51  1  0
 28 52  1  0
M  END
>  <smiles>  (50) 
O=C(NCC(=O)N1CC[C@H](OCc2ccccc2)C1)c1ccc2cc(F)ccc2n1

>  <score_type>  (50) 
oracle

>  <origin>  (50) 
autodockgpu

>  <m_score__min__energy>  (50) 
-8.9900000000000002

>  <m_primary>  (50) 
energy

>  <rmsd>  (50) 
7.753429079872945

>  <m_score__min__rmsd>  (50) 
7.753429079872945

>  <meeko>  (50) 
{"free_energy": -8.13, "intermolecular_energy": -10.22, "internal_energy": -1.41, "cluster_size": 20, "cluster_id": 1, "rank_in_cluster": 15}

>  <energy>  (50) 
-8.42

>  <cluster_rmsd>  (50) 
0.6

>  <cluster>  (50) 
5

$$$$
