
     RDKit          3D

 55 59  0  0  0  0  0  0  0  0999 V2000
  143.8840   72.3800  220.8660 O   0  0  0  0  0  0  0  0  0  0  0  0
  142.9930   73.2840  220.7600 C   0  0  0  0  0  0  0  0  0  0  0  0
  143.3460   74.5010  220.0000 C   0  0  0  0  0  0  0  0  0  0  0  0
  142.1870   75.4140  220.0020 C   0  0  0  0  0  0  0  0  0  0  0  0
  142.3310   76.6940  219.3000 C   0  0  0  0  0  0  0  0  0  0  0  0
  142.8260   76.7030  217.9890 C   0  0  0  0  0  0  0  0  0  0  0  0
  142.9740   77.8710  217.2910 C   0  0  0  0  0  0  0  0  0  0  0  0
  142.6270   79.0470  217.9000 C   0  0  0  0  0  0  0  0  0  0  0  0
  142.1260   79.0890  219.2080 C   0  0  0  0  0  0  0  0  0  0  0  0
  141.7990   80.3880  219.7310 C   0  0  0  0  0  0  0  0  0  0  0  0
  141.4490   81.2800  218.8930 O   0  0  0  0  0  0  0  0  0  0  0  0
  141.8260   80.7750  221.0850 N   0  0  0  0  0  0  0  0  0  0  0  0
  141.4540   82.1460  221.4370 C   0  0  0  0  0  0  0  0  0  0  0  0
  140.2380   82.0360  222.3290 C   0  0  0  0  0  0  0  0  0  0  0  0
  140.3040   80.9940  223.2110 O   0  0  0  0  0  0  0  0  0  0  0  0
  141.5660   80.4860  223.4580 C   0  0  0  0  0  0  0  0  0  0  0  0
  142.1980   79.9170  222.1910 C   0  0  0  0  0  0  0  0  0  0  0  0
  141.9890   77.9000  219.8850 C   0  0  0  0  0  0  0  0  0  0  0  0
  141.0590   75.1920  220.5670 N   0  0  0  0  0  0  0  0  0  0  0  0
  140.7390   74.0150  221.2900 C   0  0  0  0  0  0  0  0  0  0  0  0
  139.5100   73.8330  221.8750 C   0  0  0  0  0  0  0  0  0  0  0  0
  139.2720   72.6590  222.5660 C   0  0  0  0  0  0  0  0  0  0  0  0
  140.2040   71.6560  222.7030 C   0  0  0  0  0  0  0  0  0  0  0  0
  139.9970   70.4570  223.4180 N   0  0  0  0  0  0  0  0  0  0  0  0
  140.1800   70.2700  224.8050 C   0  0  0  0  0  0  0  0  0  0  0  0
  139.9150   69.1020  225.4810 C   0  0  0  0  0  0  0  0  0  0  0  0
  140.1240   68.9550  226.8380 C   0  0  0  0  0  0  0  0  0  0  0  0
  140.6160   70.0230  227.5530 C   0  0  0  0  0  0  0  0  0  0  0  0
  140.8970   71.2140  226.9250 C   0  0  0  0  0  0  0  0  0  0  0  0
  140.6790   71.3330  225.5620 C   0  0  0  0  0  0  0  0  0  0  0  0
  141.4390   71.8880  222.0900 C   0  0  0  0  0  0  0  0  0  0  0  0
  141.7100   73.0450  221.3940 C   0  0  0  0  0  0  0  0  0  0  0  0
  144.2074   74.9955  220.4727 H   0  0  0  0  0  0  0  0  0  0  0  0
  143.6099   74.2334  218.9662 H   0  0  0  0  0  0  0  0  0  0  0  0
  143.1014   75.7514  217.5109 H   0  0  0  0  0  0  0  0  0  0  0  0
  143.3636   77.8649  216.2623 H   0  0  0  0  0  0  0  0  0  0  0  0
  142.7453   79.9892  217.3447 H   0  0  0  0  0  0  0  0  0  0  0  0
  142.2778   82.6390  221.9740 H   0  0  0  0  0  0  0  0  0  0  0  0
  141.2411   82.7468  220.5405 H   0  0  0  0  0  0  0  0  0  0  0  0
  140.1391   82.9707  222.9004 H   0  0  0  0  0  0  0  0  0  0  0  0
  139.3717   81.8541  221.6759 H   0  0  0  0  0  0  0  0  0  0  0  0
  142.2062   81.2922  223.8457 H   0  0  0  0  0  0  0  0  0  0  0  0
  141.4727   79.6723  224.1923 H   0  0  0  0  0  0  0  0  0  0  0  0
  143.2928   79.8960  222.2962 H   0  0  0  0  0  0  0  0  0  0  0  0
  141.8460   78.8898  222.0148 H   0  0  0  0  0  0  0  0  0  0  0  0
  141.5992   77.9080  220.9136 H   0  0  0  0  0  0  0  0  0  0  0  0
  138.7307   74.6053  221.7956 H   0  0  0  0  0  0  0  0  0  0  0  0
  138.2849   72.5195  223.0310 H   0  0  0  0  0  0  0  0  0  0  0  0
  139.6750   69.6250  222.8530 H   0  0  0  0  0  0  0  0  0  0  0  0
  139.5186   68.2461  224.9150 H   0  0  0  0  0  0  0  0  0  0  0  0
  139.9012   68.0012  227.3386 H   0  0  0  0  0  0  0  0  0  0  0  0
  140.7859   69.9234  228.6352 H   0  0  0  0  0  0  0  0  0  0  0  0
  141.2915   72.0647  227.5000 H   0  0  0  0  0  0  0  0  0  0  0  0
  140.9042   72.2875  225.0638 H   0  0  0  0  0  0  0  0  0  0  0  0
  142.2219   71.1191  222.1664 H   0  0  0  0  0  0  0  0  0  0  0  0
  1  2  2  0
  2  3  1  0
  3  4  1  0
  4  5  1  0
  5  6  2  0
  6  7  1  0
  7  8  2  0
  8  9  1  0
  9 10  1  0
 10 11  2  0
 10 12  1  0
 12 13  1  0
 13 14  1  0
 14 15  1  0
 15 16  1  0
 16 17  1  0
  9 18  2  0
  4 19  2  0
 19 20  1  0
 20 21  2  0
 21 22  1  0
 22 23  2  0
 23 24  1  0
 24 25  1  0
 25 26  2  0
 26 27  1  0
 27 28  2  0
 28 29  1  0
 29 30  2  0
 23 31  1  0
 31 32  2  0
 32  2  1  0
 18  5  1  0
 32 20  1  0
 17 12  1  0
 30 25  1  0
  3 33  1  0
  3 34  1  0
  6 35  1  0
  7 36  1  0
  8 37  1  0
 13 38  1  0
 13 39  1  0
 14 40  1  0
 14 41  1  0
 16 42  1  0
 16 43  1  0
 17 44  1  0
 17 45  1  0
 18 46  1  0
 21 47  1  0
 22 48  1  0
 24 49  1  0
 26 50  1  0
 27 51  1  0
 28 52  1  0
 29 53  1  0
 30 54  1  0
 31 55  1  0
M  END
>  <smiles>  (1) 
O=C1CC(c2cccc(C(=O)N3CCOCC3)c2)=Nc2ccc(Nc3ccccc3)cc21

>  <score_type>  (1) 
oracle

>  <origin>  (1) 
autodockgpu

>  <m_score__min__energy>  (1) 
-9.6899999999999995

>  <m_primary>  (1) 
energy

>  <rmsd>  (1) 
9.522356474060775

>  <m_score__min__rmsd>  (1) 
9.522356474060775

>  <meeko>  (1) 
{"free_energy": -8.41, "intermolecular_energy": -9.6, "internal_energy": -0.98, "cluster_size": 15, "cluster_id": 3, "rank_in_cluster": 9}

>  <energy>  (1) 
-9.69

>  <cluster_rmsd>  (1) 
0.0

>  <cluster>  (1) 
1

$$$$

     RDKit          3D

 55 59  0  0  0  0  0  0  0  0999 V2000
  143.0500   74.0060  220.5480 O   0  0  0  0  0  0  0  0  0  0  0  0
  141.9230   73.7800  221.1000 C   0  0  0  0  0  0  0  0  0  0  0  0
  141.5830   72.3750  221.3990 C   0  0  0  0  0  0  0  0  0  0  0  0
  140.2480   72.3330  222.0260 C   0  0  0  0  0  0  0  0  0  0  0  0
  139.7140   71.0190  222.4000 C   0  0  0  0  0  0  0  0  0  0  0  0
  139.0800   70.2360  221.4260 C   0  0  0  0  0  0  0  0  0  0  0  0
  138.5710   69.0010  221.7240 C   0  0  0  0  0  0  0  0  0  0  0  0
  138.6900   68.5360  223.0070 C   0  0  0  0  0  0  0  0  0  0  0  0
  139.3150   69.2810  224.0150 C   0  0  0  0  0  0  0  0  0  0  0  0
  139.3750   68.6780  225.3190 C   0  0  0  0  0  0  0  0  0  0  0  0
  139.1700   67.4240  225.3890 O   0  0  0  0  0  0  0  0  0  0  0  0
  139.6400   69.3400  226.5340 N   0  0  0  0  0  0  0  0  0  0  0  0
  139.6670   68.5610  227.7730 C   0  0  0  0  0  0  0  0  0  0  0  0
  141.0690   68.6970  228.3240 C   0  0  0  0  0  0  0  0  0  0  0  0
  141.5890   69.9520  228.1800 O   0  0  0  0  0  0  0  0  0  0  0  0
  140.6760   70.9690  227.9680 C   0  0  0  0  0  0  0  0  0  0  0  0
  139.8960   70.7580  226.6740 C   0  0  0  0  0  0  0  0  0  0  0  0
  139.8170   70.5180  223.6850 C   0  0  0  0  0  0  0  0  0  0  0  0
  139.5040   73.3460  222.2730 N   0  0  0  0  0  0  0  0  0  0  0  0
  139.8510   74.6900  221.9800 C   0  0  0  0  0  0  0  0  0  0  0  0
  139.0110   75.7370  222.2690 C   0  0  0  0  0  0  0  0  0  0  0  0
  139.4180   77.0200  221.9520 C   0  0  0  0  0  0  0  0  0  0  0  0
  140.6260   77.3090  221.3580 C   0  0  0  0  0  0  0  0  0  0  0  0
  141.0590   78.6050  221.0060 N   0  0  0  0  0  0  0  0  0  0  0  0
  141.4340   79.6320  221.8990 C   0  0  0  0  0  0  0  0  0  0  0  0
  141.1060   80.9590  221.7510 C   0  0  0  0  0  0  0  0  0  0  0  0
  141.4790   81.9320  222.6580 C   0  0  0  0  0  0  0  0  0  0  0  0
  142.2150   81.5620  223.7610 C   0  0  0  0  0  0  0  0  0  0  0  0
  142.5700   80.2470  223.9560 C   0  0  0  0  0  0  0  0  0  0  0  0
  142.1810   79.2930  223.0300 C   0  0  0  0  0  0  0  0  0  0  0  0
  141.4460   76.2100  221.0850 C   0  0  0  0  0  0  0  0  0  0  0  0
  141.0720   74.9200  221.3870 C   0  0  0  0  0  0  0  0  0  0  0  0
  141.5725   71.7906  220.4671 H   0  0  0  0  0  0  0  0  0  0  0  0
  142.3309   71.9463  222.0822 H   0  0  0  0  0  0  0  0  0  0  0  0
  138.9895   70.6222  220.4000 H   0  0  0  0  0  0  0  0  0  0  0  0
  138.0771   68.3950  220.9501 H   0  0  0  0  0  0  0  0  0  0  0  0
  138.2813   67.5450  223.2537 H   0  0  0  0  0  0  0  0  0  0  0  0
  138.9346   68.9595  228.4905 H   0  0  0  0  0  0  0  0  0  0  0  0
  139.4074   67.5077  227.5910 H   0  0  0  0  0  0  0  0  0  0  0  0
  141.0481   68.4490  229.3955 H   0  0  0  0  0  0  0  0  0  0  0  0
  141.7110   68.0117  227.7511 H   0  0  0  0  0  0  0  0  0  0  0  0
  139.9697   70.9969  228.8108 H   0  0  0  0  0  0  0  0  0  0  0  0
  141.2275   71.9174  227.8883 H   0  0  0  0  0  0  0  0  0  0  0  0
  138.9438   71.3070  226.7180 H   0  0  0  0  0  0  0  0  0  0  0  0
  140.4729   71.1296  225.8143 H   0  0  0  0  0  0  0  0  0  0  0  0
  140.3113   71.1222  224.4600 H   0  0  0  0  0  0  0  0  0  0  0  0
  138.0344   75.5589  222.7429 H   0  0  0  0  0  0  0  0  0  0  0  0
  138.7405   77.8542  222.1869 H   0  0  0  0  0  0  0  0  0  0  0  0
  141.1020   78.8200  219.9720 H   0  0  0  0  0  0  0  0  0  0  0  0
  140.5198   81.2597  220.8701 H   0  0  0  0  0  0  0  0  0  0  0  0
  141.1933   82.9827  222.5018 H   0  0  0  0  0  0  0  0  0  0  0  0
  142.5218   82.3240  224.4926 H   0  0  0  0  0  0  0  0  0  0  0  0
  143.1575   79.9559  224.8393 H   0  0  0  0  0  0  0  0  0  0  0  0
  142.4672   78.2429  223.1890 H   0  0  0  0  0  0  0  0  0  0  0  0
  142.4243   76.3821  220.6124 H   0  0  0  0  0  0  0  0  0  0  0  0
  1  2  2  0
  2  3  1  0
  3  4  1  0
  4  5  1  0
  5  6  2  0
  6  7  1  0
  7  8  2  0
  8  9  1  0
  9 10  1  0
 10 11  2  0
 10 12  1  0
 12 13  1  0
 13 14  1  0
 14 15  1  0
 15 16  1  0
 16 17  1  0
  9 18  2  0
  4 19  2  0
 19 20  1  0
 20 21  2  0
 21 22  1  0
 22 23  2  0
 23 24  1  0
 24 25  1  0
 25 26  2  0
 26 27  1  0
 27 28  2  0
 28 29  1  0
 29 30  2  0
 23 31  1  0
 31 32  2  0
 32  2  1  0
 18  5  1  0
 32 20  1  0
 17 12  1  0
 30 25  1  0
  3 33  1  0
  3 34  1  0
  6 35  1  0
  7 36  1  0
  8 37  1  0
 13 38  1  0
 13 39  1  0
 14 40  1  0
 14 41  1  0
 16 42  1  0
 16 43  1  0
 17 44  1  0
 17 45  1  0
 18 46  1  0
 21 47  1  0
 22 48  1  0
 24 49  1  0
 26 50  1  0
 27 51  1  0
 28 52  1  0
 29 53  1  0
 30 54  1  0
 31 55  1  0
M  END
>  <smiles>  (2) 
O=C1CC(c2cccc(C(=O)N3CCOCC3)c2)=Nc2ccc(Nc3ccccc3)cc21

>  <score_type>  (2) 
oracle

>  <origin>  (2) 
autodockgpu

>  <m_score__min__energy>  (2) 
-9.6899999999999995

>  <m_primary>  (2) 
energy

>  <rmsd>  (2) 
6.721528884769248

>  <m_score__min__rmsd>  (2) 
6.721528884769248

>  <meeko>  (2) 
{"free_energy": -9.5, "intermolecular_energy": -10.69, "internal_energy": -0.91, "cluster_size": 32, "cluster_id": 1, "rank_in_cluster": 8}

>  <energy>  (2) 
-9.63

>  <cluster_rmsd>  (2) 
0.3

>  <cluster>  (2) 
1

$$$$

     RDKit          3D

 55 59  0  0  0  0  0  0  0  0999 V2000
  143.1920   73.7570  220.2060 O   0  0  0  0  0  0  0  0  0  0  0  0
  142.1170   73.5850  220.8690 C   0  0  0  0  0  0  0  0  0  0  0  0
  141.7320   72.1960  221.1900 C   0  0  0  0  0  0  0  0  0  0  0  0
  140.4670   72.2190  221.9490 C   0  0  0  0  0  0  0  0  0  0  0  0
  139.9030   70.9300  222.3660 C   0  0  0  0  0  0  0  0  0  0  0  0
  139.3220   70.0950  221.4030 C   0  0  0  0  0  0  0  0  0  0  0  0
  138.7870   68.8810  221.7410 C   0  0  0  0  0  0  0  0  0  0  0  0
  138.8270   68.4900  223.0530 C   0  0  0  0  0  0  0  0  0  0  0  0
  139.3970   69.2900  224.0520 C   0  0  0  0  0  0  0  0  0  0  0  0
  139.3750   68.7630  225.3900 C   0  0  0  0  0  0  0  0  0  0  0  0
  139.0840   67.5320  225.5250 O   0  0  0  0  0  0  0  0  0  0  0  0
  139.6450   69.4780  226.5740 N   0  0  0  0  0  0  0  0  0  0  0  0
  139.5810   68.7730  227.8550 C   0  0  0  0  0  0  0  0  0  0  0  0
  140.9700   68.8510  228.4470 C   0  0  0  0  0  0  0  0  0  0  0  0
  141.5770   70.0590  228.2500 O   0  0  0  0  0  0  0  0  0  0  0  0
  140.7410   71.1180  227.9480 C   0  0  0  0  0  0  0  0  0  0  0  0
  139.9900   70.8830  226.6410 C   0  0  0  0  0  0  0  0  0  0  0  0
  139.9260   70.5040  223.6820 C   0  0  0  0  0  0  0  0  0  0  0  0
  139.8090   73.2670  222.2800 N   0  0  0  0  0  0  0  0  0  0  0  0
  140.1980   74.5940  221.9630 C   0  0  0  0  0  0  0  0  0  0  0  0
  139.4510   75.6810  222.3440 C   0  0  0  0  0  0  0  0  0  0  0  0
  139.8940   76.9440  221.9980 C   0  0  0  0  0  0  0  0  0  0  0  0
  141.0490   77.1760  221.2860 C   0  0  0  0  0  0  0  0  0  0  0  0
  141.5140   78.4510  220.9010 N   0  0  0  0  0  0  0  0  0  0  0  0
  141.7300   79.5530  221.7550 C   0  0  0  0  0  0  0  0  0  0  0  0
  141.2870   80.8330  221.5120 C   0  0  0  0  0  0  0  0  0  0  0  0
  141.5050   81.8820  222.3830 C   0  0  0  0  0  0  0  0  0  0  0  0
  142.1990   81.6440  223.5470 C   0  0  0  0  0  0  0  0  0  0  0  0
  142.6650   80.3830  223.8370 C   0  0  0  0  0  0  0  0  0  0  0  0
  142.4300   79.3480  222.9460 C   0  0  0  0  0  0  0  0  0  0  0  0
  141.7750   76.0370  220.9210 C   0  0  0  0  0  0  0  0  0  0  0  0
  141.3630   74.7650  221.2500 C   0  0  0  0  0  0  0  0  0  0  0  0
  141.5950   71.6254  220.2596 H   0  0  0  0  0  0  0  0  0  0  0  0
  142.5203   71.7177  221.7899 H   0  0  0  0  0  0  0  0  0  0  0  0
  139.2951   70.4216  220.3530 H   0  0  0  0  0  0  0  0  0  0  0  0
  138.3348   68.2335  220.9753 H   0  0  0  0  0  0  0  0  0  0  0  0
  138.3977   67.5163  223.3314 H   0  0  0  0  0  0  0  0  0  0  0  0
  138.8539   69.2590  228.5222 H   0  0  0  0  0  0  0  0  0  0  0  0
  139.2584   67.7296  227.7235 H   0  0  0  0  0  0  0  0  0  0  0  0
  140.8983   68.6693  229.5295 H   0  0  0  0  0  0  0  0  0  0  0  0
  141.5830   68.0928  227.9377 H   0  0  0  0  0  0  0  0  0  0  0  0
  140.0116   71.2409  228.7621 H   0  0  0  0  0  0  0  0  0  0  0  0
  141.3571   72.0222  227.8341 H   0  0  0  0  0  0  0  0  0  0  0  0
  139.0756   71.4941  226.6200 H   0  0  0  0  0  0  0  0  0  0  0  0
  140.6165   71.1658  225.7822 H   0  0  0  0  0  0  0  0  0  0  0  0
  140.3773   71.1505  224.4490 H   0  0  0  0  0  0  0  0  0  0  0  0
  138.5188   75.5496  222.9131 H   0  0  0  0  0  0  0  0  0  0  0  0
  139.2911   77.8101  222.3084 H   0  0  0  0  0  0  0  0  0  0  0  0
  141.7170   78.5850  219.8720 H   0  0  0  0  0  0  0  0  0  0  0  0
  140.7341   81.0294  220.5816 H   0  0  0  0  0  0  0  0  0  0  0  0
  141.1306   82.8898  222.1505 H   0  0  0  0  0  0  0  0  0  0  0  0
  142.3826   82.4689  224.2512 H   0  0  0  0  0  0  0  0  0  0  0  0
  143.2197   80.1975  224.7686 H   0  0  0  0  0  0  0  0  0  0  0  0
  142.8037   78.3408  223.1825 H   0  0  0  0  0  0  0  0  0  0  0  0
  142.7076   76.1621  220.3513 H   0  0  0  0  0  0  0  0  0  0  0  0
  1  2  2  0
  2  3  1  0
  3  4  1  0
  4  5  1  0
  5  6  2  0
  6  7  1  0
  7  8  2  0
  8  9  1  0
  9 10  1  0
 10 11  2  0
 10 12  1  0
 12 13  1  0
 13 14  1  0
 14 15  1  0
 15 16  1  0
 16 17  1  0
  9 18  2  0
  4 19  2  0
 19 20  1  0
 20 21  2  0
 21 22  1  0
 22 23  2  0
 23 24  1  0
 24 25  1  0
 25 26  2  0
 26 27  1  0
 27 28  2  0
 28 29  1  0
 29 30  2  0
 23 31  1  0
 31 32  2  0
 32  2  1  0
 18  5  1  0
 32 20  1  0
 17 12  1  0
 30 25  1  0
  3 33  1  0
  3 34  1  0
  6 35  1  0
  7 36  1  0
  8 37  1  0
 13 38  1  0
 13 39  1  0
 14 40  1  0
 14 41  1  0
 16 42  1  0
 16 43  1  0
 17 44  1  0
 17 45  1  0
 18 46  1  0
 21 47  1  0
 22 48  1  0
 24 49  1  0
 26 50  1  0
 27 51  1  0
 28 52  1  0
 29 53  1  0
 30 54  1  0
 31 55  1  0
M  END
>  <smiles>  (3) 
O=C1CC(c2cccc(C(=O)N3CCOCC3)c2)=Nc2ccc(Nc3ccccc3)cc21

>  <score_type>  (3) 
oracle

>  <origin>  (3) 
autodockgpu

>  <m_score__min__energy>  (3) 
-9.6899999999999995

>  <m_primary>  (3) 
energy

>  <rmsd>  (3) 
6.7500733293078055

>  <m_score__min__rmsd>  (3) 
6.7500733293078055

>  <meeko>  (3) 
{"free_energy": -9.69, "intermolecular_energy": -10.89, "internal_energy": -0.89, "cluster_size": 32, "cluster_id": 1, "rank_in_cluster": 1}

>  <energy>  (3) 
-9.63

>  <cluster_rmsd>  (3) 
0.1

>  <cluster>  (3) 
1

$$$$

     RDKit          3D

 55 59  0  0  0  0  0  0  0  0999 V2000
  143.0490   73.4400  220.5080 O   0  0  0  0  0  0  0  0  0  0  0  0
  141.9180   73.4360  221.0970 C   0  0  0  0  0  0  0  0  0  0  0  0
  141.3560   72.1250  221.4800 C   0  0  0  0  0  0  0  0  0  0  0  0
  140.0530   72.3420  222.1370 C   0  0  0  0  0  0  0  0  0  0  0  0
  139.3190   71.1580  222.5950 C   0  0  0  0  0  0  0  0  0  0  0  0
  138.1550   70.7700  221.9170 C   0  0  0  0  0  0  0  0  0  0  0  0
  137.4380   69.6700  222.3030 C   0  0  0  0  0  0  0  0  0  0  0  0
  137.8800   68.9430  223.3760 C   0  0  0  0  0  0  0  0  0  0  0  0
  139.0370   69.2900  224.0850 C   0  0  0  0  0  0  0  0  0  0  0  0
  139.3930   68.4430  225.1920 C   0  0  0  0  0  0  0  0  0  0  0  0
  139.4960   67.1960  224.9600 O   0  0  0  0  0  0  0  0  0  0  0  0
  139.6400   68.8580  226.5160 N   0  0  0  0  0  0  0  0  0  0  0  0
  139.9970   67.8520  227.5170 C   0  0  0  0  0  0  0  0  0  0  0  0
  141.3840   68.2140  228.0000 C   0  0  0  0  0  0  0  0  0  0  0  0
  141.5750   69.5590  228.1420 O   0  0  0  0  0  0  0  0  0  0  0  0
  140.4310   70.3290  228.2450 C   0  0  0  0  0  0  0  0  0  0  0  0
  139.5720   70.2250  226.9880 C   0  0  0  0  0  0  0  0  0  0  0  0
  139.7370   70.4000  223.6750 C   0  0  0  0  0  0  0  0  0  0  0  0
  139.4980   73.4770  222.3440 N   0  0  0  0  0  0  0  0  0  0  0  0
  140.0560   74.7270  221.9700 C   0  0  0  0  0  0  0  0  0  0  0  0
  139.4130   75.9140  222.2180 C   0  0  0  0  0  0  0  0  0  0  0  0
  140.0190   77.0920  221.8230 C   0  0  0  0  0  0  0  0  0  0  0  0
  141.2390   77.1420  221.1870 C   0  0  0  0  0  0  0  0  0  0  0  0
  141.8720   78.3270  220.7550 N   0  0  0  0  0  0  0  0  0  0  0  0
  141.8440   79.5760  221.4110 C   0  0  0  0  0  0  0  0  0  0  0  0
  141.4460   80.7580  220.8310 C   0  0  0  0  0  0  0  0  0  0  0  0
  141.4190   81.9580  221.5150 C   0  0  0  0  0  0  0  0  0  0  0  0
  141.8080   81.9790  222.8350 C   0  0  0  0  0  0  0  0  0  0  0  0
  142.2150   80.8240  223.4610 C   0  0  0  0  0  0  0  0  0  0  0  0
  142.2320   79.6340  222.7520 C   0  0  0  0  0  0  0  0  0  0  0  0
  141.8540   75.9080  220.9570 C   0  0  0  0  0  0  0  0  0  0  0  0
  141.2790   74.7160  221.3380 C   0  0  0  0  0  0  0  0  0  0  0  0
  141.2189   71.5046  220.5821 H   0  0  0  0  0  0  0  0  0  0  0  0
  142.0418   71.6104  222.1691 H   0  0  0  0  0  0  0  0  0  0  0  0
  137.8106   71.3623  221.0564 H   0  0  0  0  0  0  0  0  0  0  0  0
  136.5260   69.3761  221.7627 H   0  0  0  0  0  0  0  0  0  0  0  0
  137.3079   68.0579  223.6913 H   0  0  0  0  0  0  0  0  0  0  0  0
  139.2832   67.8759  228.3536 H   0  0  0  0  0  0  0  0  0  0  0  0
  139.9713   66.8371  227.0935 H   0  0  0  0  0  0  0  0  0  0  0  0
  141.5501   67.7333  228.9754 H   0  0  0  0  0  0  0  0  0  0  0  0
  142.0952   67.8637  227.2374 H   0  0  0  0  0  0  0  0  0  0  0  0
  139.8440   69.9834  229.1087 H   0  0  0  0  0  0  0  0  0  0  0  0
  140.7321   71.3794  228.3714 H   0  0  0  0  0  0  0  0  0  0  0  0
  138.5303   70.4877  227.2241 H   0  0  0  0  0  0  0  0  0  0  0  0
  139.9380   70.9166  226.2148 H   0  0  0  0  0  0  0  0  0  0  0  0
  140.6487   70.6919  224.2168 H   0  0  0  0  0  0  0  0  0  0  0  0
  138.4349   75.9276  222.7211 H   0  0  0  0  0  0  0  0  0  0  0  0
  139.4990   78.0395  222.0276 H   0  0  0  0  0  0  0  0  0  0  0  0
  142.4150   78.2640  219.8500 H   0  0  0  0  0  0  0  0  0  0  0  0
  141.1355   80.7473  219.7758 H   0  0  0  0  0  0  0  0  0  0  0  0
  141.0923   82.8808  221.0133 H   0  0  0  0  0  0  0  0  0  0  0  0
  141.7933   82.9266  223.3935 H   0  0  0  0  0  0  0  0  0  0  0  0
  142.5246   80.8450  224.5163 H   0  0  0  0  0  0  0  0  0  0  0  0
  142.5587   78.7129  223.2568 H   0  0  0  0  0  0  0  0  0  0  0  0
  142.8320   75.8883  220.4538 H   0  0  0  0  0  0  0  0  0  0  0  0
  1  2  2  0
  2  3  1  0
  3  4  1  0
  4  5  1  0
  5  6  2  0
  6  7  1  0
  7  8  2  0
  8  9  1  0
  9 10  1  0
 10 11  2  0
 10 12  1  0
 12 13  1  0
 13 14  1  0
 14 15  1  0
 15 16  1  0
 16 17  1  0
  9 18  2  0
  4 19  2  0
 19 20  1  0
 20 21  2  0
 21 22  1  0
 22 23  2  0
 23 24  1  0
 24 25  1  0
 25 26  2  0
 26 27  1  0
 27 28  2  0
 28 29  1  0
 29 30  2  0
 23 31  1  0
 31 32  2  0
 32  2  1  0
 18  5  1  0
 32 20  1  0
 17 12  1  0
 30 25  1  0
  3 33  1  0
  3 34  1  0
  6 35  1  0
  7 36  1  0
  8 37  1  0
 13 38  1  0
 13 39  1  0
 14 40  1  0
 14 41  1  0
 16 42  1  0
 16 43  1  0
 17 44  1  0
 17 45  1  0
 18 46  1  0
 21 47  1  0
 22 48  1  0
 24 49  1  0
 26 50  1  0
 27 51  1  0
 28 52  1  0
 29 53  1  0
 30 54  1  0
 31 55  1  0
M  END
>  <smiles>  (4) 
O=C1CC(c2cccc(C(=O)N3CCOCC3)c2)=Nc2ccc(Nc3ccccc3)cc21

>  <score_type>  (4) 
oracle

>  <origin>  (4) 
autodockgpu

>  <m_score__min__energy>  (4) 
-9.6899999999999995

>  <m_primary>  (4) 
energy

>  <rmsd>  (4) 
6.6420780506848365

>  <m_score__min__rmsd>  (4) 
6.6420780506848365

>  <meeko>  (4) 
{"free_energy": -8.91, "intermolecular_energy": -10.1, "internal_energy": -1.0, "cluster_size": 32, "cluster_id": 1, "rank_in_cluster": 21}

>  <energy>  (4) 
-9.61

>  <cluster_rmsd>  (4) 
0.28

>  <cluster>  (4) 
1

$$$$

     RDKit          3D

 55 59  0  0  0  0  0  0  0  0999 V2000
  141.5110   70.5870  220.3600 O   0  0  0  0  0  0  0  0  0  0  0  0
  141.9180   71.7850  220.5060 C   0  0  0  0  0  0  0  0  0  0  0  0
  140.9180   72.8000  220.8960 C   0  0  0  0  0  0  0  0  0  0  0  0
  141.5890   74.1090  221.0050 C   0  0  0  0  0  0  0  0  0  0  0  0
  140.7650   75.2640  221.3810 C   0  0  0  0  0  0  0  0  0  0  0  0
  139.5500   75.0500  222.0450 C   0  0  0  0  0  0  0  0  0  0  0  0
  138.7490   76.0940  222.4210 C   0  0  0  0  0  0  0  0  0  0  0  0
  139.1580   77.3690  222.1340 C   0  0  0  0  0  0  0  0  0  0  0  0
  140.3640   77.6340  221.4730 C   0  0  0  0  0  0  0  0  0  0  0  0
  140.6770   79.0170  221.2320 C   0  0  0  0  0  0  0  0  0  0  0  0
  140.0330   79.6060  220.3060 O   0  0  0  0  0  0  0  0  0  0  0  0
  141.6310   79.7910  221.9230 N   0  0  0  0  0  0  0  0  0  0  0  0
  141.8130   81.1920  221.5440 C   0  0  0  0  0  0  0  0  0  0  0  0
  141.4540   82.0080  222.7650 C   0  0  0  0  0  0  0  0  0  0  0  0
  141.8890   81.4530  223.9350 O   0  0  0  0  0  0  0  0  0  0  0  0
  142.9050   80.5210  223.8270 C   0  0  0  0  0  0  0  0  0  0  0  0
  142.4690   79.3130  223.0030 C   0  0  0  0  0  0  0  0  0  0  0  0
  141.1480   76.5650  221.1070 C   0  0  0  0  0  0  0  0  0  0  0  0
  142.8320   74.3340  220.7990 N   0  0  0  0  0  0  0  0  0  0  0  0
  143.7780   73.3440  220.4260 C   0  0  0  0  0  0  0  0  0  0  0  0
  145.1010   73.6460  220.2170 C   0  0  0  0  0  0  0  0  0  0  0  0
  145.9640   72.6270  219.8550 C   0  0  0  0  0  0  0  0  0  0  0  0
  145.5680   71.3200  219.6890 C   0  0  0  0  0  0  0  0  0  0  0  0
  146.4200   70.2650  219.3000 N   0  0  0  0  0  0  0  0  0  0  0  0
  146.0180   68.9940  218.8360 C   0  0  0  0  0  0  0  0  0  0  0  0
  145.6670   68.7080  217.5370 C   0  0  0  0  0  0  0  0  0  0  0  0
  145.2940   67.4450  217.1200 C   0  0  0  0  0  0  0  0  0  0  0  0
  145.2690   66.4230  218.0410 C   0  0  0  0  0  0  0  0  0  0  0  0
  145.6110   66.6560  219.3530 C   0  0  0  0  0  0  0  0  0  0  0  0
  145.9820   67.9320  219.7440 C   0  0  0  0  0  0  0  0  0  0  0  0
  144.2110   71.0640  219.9130 C   0  0  0  0  0  0  0  0  0  0  0  0
  143.3260   72.0540  220.2750 C   0  0  0  0  0  0  0  0  0  0  0  0
  140.1270   72.8521  220.1334 H   0  0  0  0  0  0  0  0  0  0  0  0
  140.4667   72.5291  221.8619 H   0  0  0  0  0  0  0  0  0  0  0  0
  139.2331   74.0207  222.2689 H   0  0  0  0  0  0  0  0  0  0  0  0
  137.7975   75.9129  222.9423 H   0  0  0  0  0  0  0  0  0  0  0  0
  138.5184   78.2127  222.4324 H   0  0  0  0  0  0  0  0  0  0  0  0
  142.8584   81.3765  221.2556 H   0  0  0  0  0  0  0  0  0  0  0  0
  141.1832   81.4599  220.6829 H   0  0  0  0  0  0  0  0  0  0  0  0
  141.9059   83.0057  222.6630 H   0  0  0  0  0  0  0  0  0  0  0  0
  140.3560   82.0524  222.8149 H   0  0  0  0  0  0  0  0  0  0  0  0
  143.7719   80.9918  223.3404 H   0  0  0  0  0  0  0  0  0  0  0  0
  143.1647   80.1741  224.8381 H   0  0  0  0  0  0  0  0  0  0  0  0
  143.3523   78.8018  222.5927 H   0  0  0  0  0  0  0  0  0  0  0  0
  141.9153   78.5998  223.6313 H   0  0  0  0  0  0  0  0  0  0  0  0
  142.0992   76.7481  220.5857 H   0  0  0  0  0  0  0  0  0  0  0  0
  145.4671   74.6766  220.3349 H   0  0  0  0  0  0  0  0  0  0  0  0
  147.0231   72.8751  219.6912 H   0  0  0  0  0  0  0  0  0  0  0  0
  147.4580   70.4520  219.3690 H   0  0  0  0  0  0  0  0  0  0  0  0
  145.6841   69.5217  216.7970 H   0  0  0  0  0  0  0  0  0  0  0  0
  145.0218   67.2596  216.0704 H   0  0  0  0  0  0  0  0  0  0  0  0
  144.9732   65.4115  217.7257 H   0  0  0  0  0  0  0  0  0  0  0  0
  145.5900   65.8357  220.0856 H   0  0  0  0  0  0  0  0  0  0  0  0
  146.2547   68.1138  220.7940 H   0  0  0  0  0  0  0  0  0  0  0  0
  143.8383   70.0357  219.7957 H   0  0  0  0  0  0  0  0  0  0  0  0
  1  2  2  0
  2  3  1  0
  3  4  1  0
  4  5  1  0
  5  6  2  0
  6  7  1  0
  7  8  2  0
  8  9  1  0
  9 10  1  0
 10 11  2  0
 10 12  1  0
 12 13  1  0
 13 14  1  0
 14 15  1  0
 15 16  1  0
 16 17  1  0
  9 18  2  0
  4 19  2  0
 19 20  1  0
 20 21  2  0
 21 22  1  0
 22 23  2  0
 23 24  1  0
 24 25  1  0
 25 26  2  0
 26 27  1  0
 27 28  2  0
 28 29  1  0
 29 30  2  0
 23 31  1  0
 31 32  2  0
 32  2  1  0
 18  5  1  0
 32 20  1  0
 17 12  1  0
 30 25  1  0
  3 33  1  0
  3 34  1  0
  6 35  1  0
  7 36  1  0
  8 37  1  0
 13 38  1  0
 13 39  1  0
 14 40  1  0
 14 41  1  0
 16 42  1  0
 16 43  1  0
 17 44  1  0
 17 45  1  0
 18 46  1  0
 21 47  1  0
 22 48  1  0
 24 49  1  0
 26 50  1  0
 27 51  1  0
 28 52  1  0
 29 53  1  0
 30 54  1  0
 31 55  1  0
M  END
>  <smiles>  (5) 
O=C1CC(c2cccc(C(=O)N3CCOCC3)c2)=Nc2ccc(Nc3ccccc3)cc21

>  <score_type>  (5) 
oracle

>  <origin>  (5) 
autodockgpu

>  <m_score__min__energy>  (5) 
-9.6899999999999995

>  <m_primary>  (5) 
energy

>  <rmsd>  (5) 
10.19640882575659

>  <m_score__min__rmsd>  (5) 
10.19640882575659

>  <meeko>  (5) 
{"free_energy": -7.89, "intermolecular_energy": -9.08, "internal_energy": -1.08, "cluster_size": 1, "cluster_id": 5, "rank_in_cluster": 1}

>  <energy>  (5) 
-9.6

>  <cluster_rmsd>  (5) 
0.11

>  <cluster>  (5) 
1

$$$$

     RDKit          3D

 55 59  0  0  0  0  0  0  0  0999 V2000
  143.8480   72.2860  220.8180 O   0  0  0  0  0  0  0  0  0  0  0  0
  142.9660   73.2030  220.7390 C   0  0  0  0  0  0  0  0  0  0  0  0
  143.3100   74.4110  219.9610 C   0  0  0  0  0  0  0  0  0  0  0  0
  142.1660   75.3410  219.9990 C   0  0  0  0  0  0  0  0  0  0  0  0
  142.3040   76.6160  219.2870 C   0  0  0  0  0  0  0  0  0  0  0  0
  142.8090   76.6170  217.9790 C   0  0  0  0  0  0  0  0  0  0  0  0
  142.9520   77.7800  217.2710 C   0  0  0  0  0  0  0  0  0  0  0  0
  142.5900   78.9580  217.8670 C   0  0  0  0  0  0  0  0  0  0  0  0
  142.0810   79.0090  219.1710 C   0  0  0  0  0  0  0  0  0  0  0  0
  141.7390   80.3100  219.6800 C   0  0  0  0  0  0  0  0  0  0  0  0
  141.3060   81.1650  218.8440 O   0  0  0  0  0  0  0  0  0  0  0  0
  141.8370   80.7350  221.0200 N   0  0  0  0  0  0  0  0  0  0  0  0
  141.4380   82.1010  221.3590 C   0  0  0  0  0  0  0  0  0  0  0  0
  140.2840   81.9740  222.3290 C   0  0  0  0  0  0  0  0  0  0  0  0
  140.4440   80.9610  223.2310 O   0  0  0  0  0  0  0  0  0  0  0  0
  141.7360   80.5040  223.4110 C   0  0  0  0  0  0  0  0  0  0  0  0
  142.3090   79.9220  222.1220 C   0  0  0  0  0  0  0  0  0  0  0  0
  141.9490   77.8250  219.8590 C   0  0  0  0  0  0  0  0  0  0  0  0
  141.0550   75.1390  220.6040 N   0  0  0  0  0  0  0  0  0  0  0  0
  140.7430   73.9690  221.3440 C   0  0  0  0  0  0  0  0  0  0  0  0
  139.5330   73.8080  221.9720 C   0  0  0  0  0  0  0  0  0  0  0  0
  139.3010   72.6410  222.6760 C   0  0  0  0  0  0  0  0  0  0  0  0
  140.2230   71.6240  222.7850 C   0  0  0  0  0  0  0  0  0  0  0  0
  140.0230   70.4320  223.5130 N   0  0  0  0  0  0  0  0  0  0  0  0
  140.2250   70.2560  224.8980 C   0  0  0  0  0  0  0  0  0  0  0  0
  140.7060   71.2230  225.7500 C   0  0  0  0  0  0  0  0  0  0  0  0
  140.8750   71.0140  227.1050 C   0  0  0  0  0  0  0  0  0  0  0  0
  140.5510   69.7840  227.6320 C   0  0  0  0  0  0  0  0  0  0  0  0
  140.0670   68.7830  226.8220 C   0  0  0  0  0  0  0  0  0  0  0  0
  139.9070   69.0200  225.4670 C   0  0  0  0  0  0  0  0  0  0  0  0
  141.4400   71.8360  222.1280 C   0  0  0  0  0  0  0  0  0  0  0  0
  141.7030   72.9860  221.4180 C   0  0  0  0  0  0  0  0  0  0  0  0
  144.1947   74.8947  220.4007 H   0  0  0  0  0  0  0  0  0  0  0  0
  143.5333   74.1347  218.9199 H   0  0  0  0  0  0  0  0  0  0  0  0
  143.0963   75.6634  217.5119 H   0  0  0  0  0  0  0  0  0  0  0  0
  143.3492   77.7681  216.2453 H   0  0  0  0  0  0  0  0  0  0  0  0
  142.7026   79.8957  217.3031 H   0  0  0  0  0  0  0  0  0  0  0  0
  142.2751   82.6372  221.8300 H   0  0  0  0  0  0  0  0  0  0  0  0
  141.1480   82.6686  220.4624 H   0  0  0  0  0  0  0  0  0  0  0  0
  140.1864   82.9205  222.8809 H   0  0  0  0  0  0  0  0  0  0  0  0
  139.3856   81.7439  221.7374 H   0  0  0  0  0  0  0  0  0  0  0  0
  142.3693   81.3423  223.7370 H   0  0  0  0  0  0  0  0  0  0  0  0
  141.7175   79.7082  224.1702 H   0  0  0  0  0  0  0  0  0  0  0  0
  143.4082   79.9430  222.1583 H   0  0  0  0  0  0  0  0  0  0  0  0
  141.9857   78.8783  221.9951 H   0  0  0  0  0  0  0  0  0  0  0  0
  141.5530   77.8397  220.8851 H   0  0  0  0  0  0  0  0  0  0  0  0
  138.7633   74.5919  221.9162 H   0  0  0  0  0  0  0  0  0  0  0  0
  138.3286   72.5184  223.1754 H   0  0  0  0  0  0  0  0  0  0  0  0
  139.6920   69.5960  222.9580 H   0  0  0  0  0  0  0  0  0  0  0  0
  140.9678   72.2069  225.3336 H   0  0  0  0  0  0  0  0  0  0  0  0
  141.2615   71.8158  227.7513 H   0  0  0  0  0  0  0  0  0  0  0  0
  140.6801   69.6003  228.7089 H   0  0  0  0  0  0  0  0  0  0  0  0
  139.8091   67.8019  227.2473 H   0  0  0  0  0  0  0  0  0  0  0  0
  139.5204   68.2161  224.8233 H   0  0  0  0  0  0  0  0  0  0  0  0
  142.2141   71.0563  222.1806 H   0  0  0  0  0  0  0  0  0  0  0  0
  1  2  2  0
  2  3  1  0
  3  4  1  0
  4  5  1  0
  5  6  2  0
  6  7  1  0
  7  8  2  0
  8  9  1  0
  9 10  1  0
 10 11  2  0
 10 12  1  0
 12 13  1  0
 13 14  1  0
 14 15  1  0
 15 16  1  0
 16 17  1  0
  9 18  2  0
  4 19  2  0
 19 20  1  0
 20 21  2  0
 21 22  1  0
 22 23  2  0
 23 24  1  0
 24 25  1  0
 25 26  2  0
 26 27  1  0
 27 28  2  0
 28 29  1  0
 29 30  2  0
 23 31  1  0
 31 32  2  0
 32  2  1  0
 18  5  1  0
 32 20  1  0
 17 12  1  0
 30 25  1  0
  3 33  1  0
  3 34  1  0
  6 35  1  0
  7 36  1  0
  8 37  1  0
 13 38  1  0
 13 39  1  0
 14 40  1  0
 14 41  1  0
 16 42  1  0
 16 43  1  0
 17 44  1  0
 17 45  1  0
 18 46  1  0
 21 47  1  0
 22 48  1  0
 24 49  1  0
 26 50  1  0
 27 51  1  0
 28 52  1  0
 29 53  1  0
 30 54  1  0
 31 55  1  0
M  END
>  <smiles>  (6) 
O=C1CC(c2cccc(C(=O)N3CCOCC3)c2)=Nc2ccc(Nc3ccccc3)cc21

>  <score_type>  (6) 
oracle

>  <origin>  (6) 
autodockgpu

>  <m_score__min__energy>  (6) 
-9.6899999999999995

>  <m_primary>  (6) 
energy

>  <rmsd>  (6) 
9.320208920742964

>  <m_score__min__rmsd>  (6) 
9.320208920742964

>  <meeko>  (6) 
{"free_energy": -8.39, "intermolecular_energy": -9.58, "internal_energy": -0.98, "cluster_size": 15, "cluster_id": 3, "rank_in_cluster": 11}

>  <energy>  (6) 
-9.54

>  <cluster_rmsd>  (6) 
0.31

>  <cluster>  (6) 
1

$$$$

     RDKit          3D

 55 59  0  0  0  0  0  0  0  0999 V2000
  143.8530   72.3240  220.7780 O   0  0  0  0  0  0  0  0  0  0  0  0
  142.9750   73.2440  220.7070 C   0  0  0  0  0  0  0  0  0  0  0  0
  143.3190   74.4530  219.9310 C   0  0  0  0  0  0  0  0  0  0  0  0
  142.1790   75.3880  219.9780 C   0  0  0  0  0  0  0  0  0  0  0  0
  142.3170   76.6640  219.2680 C   0  0  0  0  0  0  0  0  0  0  0  0
  142.8250   76.6680  217.9620 C   0  0  0  0  0  0  0  0  0  0  0  0
  142.9680   77.8320  217.2570 C   0  0  0  0  0  0  0  0  0  0  0  0
  142.6050   79.0090  217.8540 C   0  0  0  0  0  0  0  0  0  0  0  0
  142.0920   79.0570  219.1570 C   0  0  0  0  0  0  0  0  0  0  0  0
  141.7480   80.3570  219.6680 C   0  0  0  0  0  0  0  0  0  0  0  0
  141.3080   81.2110  218.8340 O   0  0  0  0  0  0  0  0  0  0  0  0
  141.8500   80.7820  221.0070 N   0  0  0  0  0  0  0  0  0  0  0  0
  141.4480   82.1470  221.3480 C   0  0  0  0  0  0  0  0  0  0  0  0
  140.2990   82.0150  222.3230 C   0  0  0  0  0  0  0  0  0  0  0  0
  140.4660   81.0020  223.2250 O   0  0  0  0  0  0  0  0  0  0  0  0
  141.7610   80.5500  223.3990 C   0  0  0  0  0  0  0  0  0  0  0  0
  142.3290   79.9700  222.1070 C   0  0  0  0  0  0  0  0  0  0  0  0
  141.9600   77.8710  219.8420 C   0  0  0  0  0  0  0  0  0  0  0  0
  141.0700   75.1880  220.5890 N   0  0  0  0  0  0  0  0  0  0  0  0
  140.7580   74.0170  221.3270 C   0  0  0  0  0  0  0  0  0  0  0  0
  139.5510   73.8590  221.9620 C   0  0  0  0  0  0  0  0  0  0  0  0
  139.3200   72.6910  222.6640 C   0  0  0  0  0  0  0  0  0  0  0  0
  140.2380   71.6700  222.7650 C   0  0  0  0  0  0  0  0  0  0  0  0
  140.0380   70.4770  223.4910 N   0  0  0  0  0  0  0  0  0  0  0  0
  140.2280   70.3010  224.8780 C   0  0  0  0  0  0  0  0  0  0  0  0
  139.9810   69.1340  225.5620 C   0  0  0  0  0  0  0  0  0  0  0  0
  140.1960   68.9980  226.9200 C   0  0  0  0  0  0  0  0  0  0  0  0
  140.6770   70.0770  227.6260 C   0  0  0  0  0  0  0  0  0  0  0  0
  140.9400   71.2680  226.9890 C   0  0  0  0  0  0  0  0  0  0  0  0
  140.7160   71.3750  225.6260 C   0  0  0  0  0  0  0  0  0  0  0  0
  141.4510   71.8790  222.1020 C   0  0  0  0  0  0  0  0  0  0  0  0
  141.7140   73.0300  221.3930 C   0  0  0  0  0  0  0  0  0  0  0  0
  144.2081   74.9318  220.3672 H   0  0  0  0  0  0  0  0  0  0  0  0
  143.5349   74.1788  218.8878 H   0  0  0  0  0  0  0  0  0  0  0  0
  143.1148   75.7157  217.4939 H   0  0  0  0  0  0  0  0  0  0  0  0
  143.3664   77.8220  216.2317 H   0  0  0  0  0  0  0  0  0  0  0  0
  142.7198   79.9479  217.2925 H   0  0  0  0  0  0  0  0  0  0  0  0
  142.2853   82.6860  221.8154 H   0  0  0  0  0  0  0  0  0  0  0  0
  141.1524   82.7142  220.4531 H   0  0  0  0  0  0  0  0  0  0  0  0
  140.2001   82.9610  222.8755 H   0  0  0  0  0  0  0  0  0  0  0  0
  139.3994   81.7809  221.7348 H   0  0  0  0  0  0  0  0  0  0  0  0
  142.3928   81.3908  223.7215 H   0  0  0  0  0  0  0  0  0  0  0  0
  141.7499   79.7547  224.1588 H   0  0  0  0  0  0  0  0  0  0  0  0
  143.4283   79.9936  222.1381 H   0  0  0  0  0  0  0  0  0  0  0  0
  142.0071   78.9257  221.9814 H   0  0  0  0  0  0  0  0  0  0  0  0
  141.5623   77.8829  220.8675 H   0  0  0  0  0  0  0  0  0  0  0  0
  138.7837   74.6457  221.9131 H   0  0  0  0  0  0  0  0  0  0  0  0
  138.3503   72.5707  223.1693 H   0  0  0  0  0  0  0  0  0  0  0  0
  139.7160   69.6390  222.9330 H   0  0  0  0  0  0  0  0  0  0  0  0
  139.5946   68.2693  225.0025 H   0  0  0  0  0  0  0  0  0  0  0  0
  139.9866   68.0448  227.4276 H   0  0  0  0  0  0  0  0  0  0  0  0
  140.8526   69.9866  228.7081 H   0  0  0  0  0  0  0  0  0  0  0  0
  141.3248   72.1278  227.5571 H   0  0  0  0  0  0  0  0  0  0  0  0
  140.9276   72.3288  225.1206 H   0  0  0  0  0  0  0  0  0  0  0  0
  142.2226   71.0964  222.1483 H   0  0  0  0  0  0  0  0  0  0  0  0
  1  2  2  0
  2  3  1  0
  3  4  1  0
  4  5  1  0
  5  6  2  0
  6  7  1  0
  7  8  2  0
  8  9  1  0
  9 10  1  0
 10 11  2  0
 10 12  1  0
 12 13  1  0
 13 14  1  0
 14 15  1  0
 15 16  1  0
 16 17  1  0
  9 18  2  0
  4 19  2  0
 19 20  1  0
 20 21  2  0
 21 22  1  0
 22 23  2  0
 23 24  1  0
 24 25  1  0
 25 26  2  0
 26 27  1  0
 27 28  2  0
 28 29  1  0
 29 30  2  0
 23 31  1  0
 31 32  2  0
 32  2  1  0
 18  5  1  0
 32 20  1  0
 17 12  1  0
 30 25  1  0
  3 33  1  0
  3 34  1  0
  6 35  1  0
  7 36  1  0
  8 37  1  0
 13 38  1  0
 13 39  1  0
 14 40  1  0
 14 41  1  0
 16 42  1  0
 16 43  1  0
 17 44  1  0
 17 45  1  0
 18 46  1  0
 21 47  1  0
 22 48  1  0
 24 49  1  0
 26 50  1  0
 27 51  1  0
 28 52  1  0
 29 53  1  0
 30 54  1  0
 31 55  1  0
M  END
>  <smiles>  (7) 
O=C1CC(c2cccc(C(=O)N3CCOCC3)c2)=Nc2ccc(Nc3ccccc3)cc21

>  <score_type>  (7) 
oracle

>  <origin>  (7) 
autodockgpu

>  <m_score__min__energy>  (7) 
-9.6899999999999995

>  <m_primary>  (7) 
energy

>  <rmsd>  (7) 
9.539851089144893

>  <m_score__min__rmsd>  (7) 
9.539851089144893

>  <meeko>  (7) 
{"free_energy": -8.41, "intermolecular_energy": -9.6, "internal_energy": -0.99, "cluster_size": 15, "cluster_id": 3, "rank_in_cluster": 6}

>  <energy>  (7) 
-9.52

>  <cluster_rmsd>  (7) 
0.11

>  <cluster>  (7) 
1

$$$$

     RDKit          3D

 55 59  0  0  0  0  0  0  0  0999 V2000
  143.7930   72.3010  220.5750 O   0  0  0  0  0  0  0  0  0  0  0  0
  142.9370   73.2440  220.5590 C   0  0  0  0  0  0  0  0  0  0  0  0
  143.2770   74.4580  219.7910 C   0  0  0  0  0  0  0  0  0  0  0  0
  142.1640   75.4200  219.9060 C   0  0  0  0  0  0  0  0  0  0  0  0
  142.3040   76.7060  219.2140 C   0  0  0  0  0  0  0  0  0  0  0  0
  142.8170   76.7280  217.9100 C   0  0  0  0  0  0  0  0  0  0  0  0
  142.9620   77.9020  217.2210 C   0  0  0  0  0  0  0  0  0  0  0  0
  142.5950   79.0700  217.8320 C   0  0  0  0  0  0  0  0  0  0  0  0
  142.0770   79.1000  219.1340 C   0  0  0  0  0  0  0  0  0  0  0  0
  141.7290   80.3920  219.6600 C   0  0  0  0  0  0  0  0  0  0  0  0
  141.2760   81.2510  218.8390 O   0  0  0  0  0  0  0  0  0  0  0  0
  141.8420   80.8050  221.0030 N   0  0  0  0  0  0  0  0  0  0  0  0
  141.4340   82.1640  221.3610 C   0  0  0  0  0  0  0  0  0  0  0  0
  140.2960   82.0150  222.3450 C   0  0  0  0  0  0  0  0  0  0  0  0
  140.4780   80.9950  223.2350 O   0  0  0  0  0  0  0  0  0  0  0  0
  141.7780   80.5490  223.3930 C   0  0  0  0  0  0  0  0  0  0  0  0
  142.3370   79.9860  222.0900 C   0  0  0  0  0  0  0  0  0  0  0  0
  141.9430   77.9050  219.8020 C   0  0  0  0  0  0  0  0  0  0  0  0
  141.0790   75.2360  220.5610 N   0  0  0  0  0  0  0  0  0  0  0  0
  140.7700   74.0600  221.2920 C   0  0  0  0  0  0  0  0  0  0  0  0
  139.5880   73.9200  221.9770 C   0  0  0  0  0  0  0  0  0  0  0  0
  139.3580   72.7440  222.6680 C   0  0  0  0  0  0  0  0  0  0  0  0
  140.2540   71.7000  222.7090 C   0  0  0  0  0  0  0  0  0  0  0  0
  140.0550   70.4980  223.4210 N   0  0  0  0  0  0  0  0  0  0  0  0
  140.1500   70.3300  224.8190 C   0  0  0  0  0  0  0  0  0  0  0  0
  139.7460   69.2080  225.5040 C   0  0  0  0  0  0  0  0  0  0  0  0
  139.8720   69.0770  226.8740 C   0  0  0  0  0  0  0  0  0  0  0  0
  140.4250   70.1140  227.5900 C   0  0  0  0  0  0  0  0  0  0  0  0
  140.8440   71.2590  226.9530 C   0  0  0  0  0  0  0  0  0  0  0  0
  140.7060   71.3620  225.5790 C   0  0  0  0  0  0  0  0  0  0  0  0
  141.4410   71.8910  221.9960 C   0  0  0  0  0  0  0  0  0  0  0  0
  141.7030   73.0480  221.2970 C   0  0  0  0  0  0  0  0  0  0  0  0
  144.1965   74.9062  220.1956 H   0  0  0  0  0  0  0  0  0  0  0  0
  143.4396   74.1988  218.7344 H   0  0  0  0  0  0  0  0  0  0  0  0
  143.1092   75.7823  217.4302 H   0  0  0  0  0  0  0  0  0  0  0  0
  143.3651   77.9063  216.1975 H   0  0  0  0  0  0  0  0  0  0  0  0
  142.7103   80.0164  217.2834 H   0  0  0  0  0  0  0  0  0  0  0  0
  142.2721   82.7042  221.8256 H   0  0  0  0  0  0  0  0  0  0  0  0
  141.1259   82.7376  220.4744 H   0  0  0  0  0  0  0  0  0  0  0  0
  140.1963   82.9550  222.9076 H   0  0  0  0  0  0  0  0  0  0  0  0
  139.3924   81.7806  221.7631 H   0  0  0  0  0  0  0  0  0  0  0  0
  142.4077   81.3902  223.7184 H   0  0  0  0  0  0  0  0  0  0  0  0
  141.7790   79.7461  224.1449 H   0  0  0  0  0  0  0  0  0  0  0  0
  143.4364   80.0169  222.1106 H   0  0  0  0  0  0  0  0  0  0  0  0
  142.0208   78.9408  221.9572 H   0  0  0  0  0  0  0  0  0  0  0  0
  141.5402   77.9028  220.8256 H   0  0  0  0  0  0  0  0  0  0  0  0
  138.8397   74.7263  221.9762 H   0  0  0  0  0  0  0  0  0  0  0  0
  138.4088   72.6375  223.2136 H   0  0  0  0  0  0  0  0  0  0  0  0
  139.8140   69.6460  222.8440 H   0  0  0  0  0  0  0  0  0  0  0  0
  139.3025   68.3772  224.9357 H   0  0  0  0  0  0  0  0  0  0  0  0
  139.5366   68.1611  227.3825 H   0  0  0  0  0  0  0  0  0  0  0  0
  140.5329   70.0265  228.6812 H   0  0  0  0  0  0  0  0  0  0  0  0
  141.2847   72.0854  227.5299 H   0  0  0  0  0  0  0  0  0  0  0  0
  141.0425   72.2791  225.0734 H   0  0  0  0  0  0  0  0  0  0  0  0
  142.1929   71.0881  221.9932 H   0  0  0  0  0  0  0  0  0  0  0  0
  1  2  2  0
  2  3  1  0
  3  4  1  0
  4  5  1  0
  5  6  2  0
  6  7  1  0
  7  8  2  0
  8  9  1  0
  9 10  1  0
 10 11  2  0
 10 12  1  0
 12 13  1  0
 13 14  1  0
 14 15  1  0
 15 16  1  0
 16 17  1  0
  9 18  2  0
  4 19  2  0
 19 20  1  0
 20 21  2  0
 21 22  1  0
 22 23  2  0
 23 24  1  0
 24 25  1  0
 25 26  2  0
 26 27  1  0
 27 28  2  0
 28 29  1  0
 29 30  2  0
 23 31  1  0
 31 32  2  0
 32  2  1  0
 18  5  1  0
 32 20  1  0
 17 12  1  0
 30 25  1  0
  3 33  1  0
  3 34  1  0
  6 35  1  0
  7 36  1  0
  8 37  1  0
 13 38  1  0
 13 39  1  0
 14 40  1  0
 14 41  1  0
 16 42  1  0
 16 43  1  0
 17 44  1  0
 17 45  1  0
 18 46  1  0
 21 47  1  0
 22 48  1  0
 24 49  1  0
 26 50  1  0
 27 51  1  0
 28 52  1  0
 29 53  1  0
 30 54  1  0
 31 55  1  0
M  END
>  <smiles>  (8) 
O=C1CC(c2cccc(C(=O)N3CCOCC3)c2)=Nc2ccc(Nc3ccccc3)cc21

>  <score_type>  (8) 
oracle

>  <origin>  (8) 
autodockgpu

>  <m_score__min__energy>  (8) 
-9.6899999999999995

>  <m_primary>  (8) 
energy

>  <rmsd>  (8) 
9.498306854539017

>  <m_score__min__rmsd>  (8) 
9.498306854539017

>  <meeko>  (8) 
{"free_energy": -8.4, "intermolecular_energy": -9.6, "internal_energy": -0.99, "cluster_size": 15, "cluster_id": 3, "rank_in_cluster": 10}

>  <energy>  (8) 
-9.5

>  <cluster_rmsd>  (8) 
0.32

>  <cluster>  (8) 
1

$$$$

     RDKit          3D

 55 59  0  0  0  0  0  0  0  0999 V2000
  142.7650   74.1210  219.6500 O   0  0  0  0  0  0  0  0  0  0  0  0
  141.8260   73.8710  220.4750 C   0  0  0  0  0  0  0  0  0  0  0  0
  141.5330   72.4520  220.7610 C   0  0  0  0  0  0  0  0  0  0  0  0
  140.4200   72.3830  221.7270 C   0  0  0  0  0  0  0  0  0  0  0  0
  139.9660   71.0520  222.1450 C   0  0  0  0  0  0  0  0  0  0  0  0
  139.6400   70.1030  221.1680 C   0  0  0  0  0  0  0  0  0  0  0  0
  139.2160   68.8460  221.5070 C   0  0  0  0  0  0  0  0  0  0  0  0
  139.1130   68.5260  222.8350 C   0  0  0  0  0  0  0  0  0  0  0  0
  139.4280   69.4410  223.8490 C   0  0  0  0  0  0  0  0  0  0  0  0
  139.2780   68.9790  225.2030 C   0  0  0  0  0  0  0  0  0  0  0  0
  138.8390   67.7960  225.3680 O   0  0  0  0  0  0  0  0  0  0  0  0
  139.5680   69.7100  226.3720 N   0  0  0  0  0  0  0  0  0  0  0  0
  139.3580   69.0750  227.6730 C   0  0  0  0  0  0  0  0  0  0  0  0
  140.7150   69.0200  228.3380 C   0  0  0  0  0  0  0  0  0  0  0  0
  141.4670   70.1410  228.1290 O   0  0  0  0  0  0  0  0  0  0  0  0
  140.7760   71.2740  227.7410 C   0  0  0  0  0  0  0  0  0  0  0  0
  140.0700   71.0680  226.4040 C   0  0  0  0  0  0  0  0  0  0  0  0
  139.8510   70.6960  223.4770 C   0  0  0  0  0  0  0  0  0  0  0  0
  139.8070   73.3850  222.2370 N   0  0  0  0  0  0  0  0  0  0  0  0
  140.1060   74.7420  221.9500 C   0  0  0  0  0  0  0  0  0  0  0  0
  139.4130   75.7770  222.5280 C   0  0  0  0  0  0  0  0  0  0  0  0
  139.7600   77.0740  222.1980 C   0  0  0  0  0  0  0  0  0  0  0  0
  140.7680   77.3890  221.3150 C   0  0  0  0  0  0  0  0  0  0  0  0
  141.1310   78.7010  220.9450 N   0  0  0  0  0  0  0  0  0  0  0  0
  141.4910   79.7470  221.8210 C   0  0  0  0  0  0  0  0  0  0  0  0
  142.2330   79.5880  222.9690 C   0  0  0  0  0  0  0  0  0  0  0  0
  142.5780   80.6420  223.7920 C   0  0  0  0  0  0  0  0  0  0  0  0
  142.1620   81.9100  223.4560 C   0  0  0  0  0  0  0  0  0  0  0  0
  141.4170   82.1230  222.3190 C   0  0  0  0  0  0  0  0  0  0  0  0
  141.0860   81.0470  221.5110 C   0  0  0  0  0  0  0  0  0  0  0  0
  141.4440   76.3010  220.7530 C   0  0  0  0  0  0  0  0  0  0  0  0
  141.1240   74.9980  221.0600 C   0  0  0  0  0  0  0  0  0  0  0  0
  141.2480   71.9384  219.8310 H   0  0  0  0  0  0  0  0  0  0  0  0
  142.4243   71.9631  221.1813 H   0  0  0  0  0  0  0  0  0  0  0  0
  139.7265   70.3733  220.1052 H   0  0  0  0  0  0  0  0  0  0  0  0
  138.9636   68.1093  220.7301 H   0  0  0  0  0  0  0  0  0  0  0  0
  138.7720   67.5183  223.1147 H   0  0  0  0  0  0  0  0  0  0  0  0
  138.6596   69.6701  228.2797 H   0  0  0  0  0  0  0  0  0  0  0  0
  138.9235   68.0704  227.5639 H   0  0  0  0  0  0  0  0  0  0  0  0
  140.5679   68.8957  229.4210 H   0  0  0  0  0  0  0  0  0  0  0  0
  141.2608   68.1750  227.8930 H   0  0  0  0  0  0  0  0  0  0  0  0
  140.0254   71.5151  228.5081 H   0  0  0  0  0  0  0  0  0  0  0  0
  141.4977   72.0963  227.6271 H   0  0  0  0  0  0  0  0  0  0  0  0
  139.2350   71.7778  226.3087 H   0  0  0  0  0  0  0  0  0  0  0  0
  140.7679   71.2389  225.5711 H   0  0  0  0  0  0  0  0  0  0  0  0
  140.1031   71.4319  224.2548 H   0  0  0  0  0  0  0  0  0  0  0  0
  138.5980   75.5781  223.2394 H   0  0  0  0  0  0  0  0  0  0  0  0
  139.2010   77.8978  222.6658 H   0  0  0  0  0  0  0  0  0  0  0  0
  141.1280   78.9130  219.9090 H   0  0  0  0  0  0  0  0  0  0  0  0
  142.5662   78.5762  223.2434 H   0  0  0  0  0  0  0  0  0  0  0  0
  143.1748   80.4710  224.7001 H   0  0  0  0  0  0  0  0  0  0  0  0
  142.4272   82.7602  224.1016 H   0  0  0  0  0  0  0  0  0  0  0  0
  141.0871   83.1383  222.0538 H   0  0  0  0  0  0  0  0  0  0  0  0
  140.4896   81.2211  220.6032 H   0  0  0  0  0  0  0  0  0  0  0  0
  142.2599   76.4935  220.0408 H   0  0  0  0  0  0  0  0  0  0  0  0
  1  2  2  0
  2  3  1  0
  3  4  1  0
  4  5  1  0
  5  6  2  0
  6  7  1  0
  7  8  2  0
  8  9  1  0
  9 10  1  0
 10 11  2  0
 10 12  1  0
 12 13  1  0
 13 14  1  0
 14 15  1  0
 15 16  1  0
 16 17  1  0
  9 18  2  0
  4 19  2  0
 19 20  1  0
 20 21  2  0
 21 22  1  0
 22 23  2  0
 23 24  1  0
 24 25  1  0
 25 26  2  0
 26 27  1  0
 27 28  2  0
 28 29  1  0
 29 30  2  0
 23 31  1  0
 31 32  2  0
 32  2  1  0
 18  5  1  0
 32 20  1  0
 17 12  1  0
 30 25  1  0
  3 33  1  0
  3 34  1  0
  6 35  1  0
  7 36  1  0
  8 37  1  0
 13 38  1  0
 13 39  1  0
 14 40  1  0
 14 41  1  0
 16 42  1  0
 16 43  1  0
 17 44  1  0
 17 45  1  0
 18 46  1  0
 21 47  1  0
 22 48  1  0
 24 49  1  0
 26 50  1  0
 27 51  1  0
 28 52  1  0
 29 53  1  0
 30 54  1  0
 31 55  1  0
M  END
>  <smiles>  (9) 
O=C1CC(c2cccc(C(=O)N3CCOCC3)c2)=Nc2ccc(Nc3ccccc3)cc21

>  <score_type>  (9) 
oracle

>  <origin>  (9) 
autodockgpu

>  <m_score__min__energy>  (9) 
-9.6899999999999995

>  <m_primary>  (9) 
energy

>  <rmsd>  (9) 
6.742949483562893

>  <m_score__min__rmsd>  (9) 
6.742949483562893

>  <meeko>  (9) 
{"free_energy": -9.15, "intermolecular_energy": -10.34, "internal_energy": -0.87, "cluster_size": 32, "cluster_id": 1, "rank_in_cluster": 19}

>  <energy>  (9) 
-9.5

>  <cluster_rmsd>  (9) 
0.31

>  <cluster>  (9) 
1

$$$$

     RDKit          3D

 55 59  0  0  0  0  0  0  0  0999 V2000
  143.0000   73.7320  220.6580 O   0  0  0  0  0  0  0  0  0  0  0  0
  141.8480   73.6160  221.1880 C   0  0  0  0  0  0  0  0  0  0  0  0
  141.3900   72.2540  221.5270 C   0  0  0  0  0  0  0  0  0  0  0  0
  140.0420   72.3410  222.1210 C   0  0  0  0  0  0  0  0  0  0  0  0
  139.3970   71.0870  222.5270 C   0  0  0  0  0  0  0  0  0  0  0  0
  138.4150   70.5240  221.7010 C   0  0  0  0  0  0  0  0  0  0  0  0
  137.7880   69.3540  222.0330 C   0  0  0  0  0  0  0  0  0  0  0  0
  138.1390   68.7320  223.2020 C   0  0  0  0  0  0  0  0  0  0  0  0
  139.1150   69.2550  224.0600 C   0  0  0  0  0  0  0  0  0  0  0  0
  139.3910   68.5040  225.2560 C   0  0  0  0  0  0  0  0  0  0  0  0
  139.4460   67.2380  225.1460 O   0  0  0  0  0  0  0  0  0  0  0  0
  139.6070   69.0330  226.5430 N   0  0  0  0  0  0  0  0  0  0  0  0
  139.8810   68.1140  227.6490 C   0  0  0  0  0  0  0  0  0  0  0  0
  141.2630   68.4630  228.1530 C   0  0  0  0  0  0  0  0  0  0  0  0
  141.5090   69.8070  228.1750 O   0  0  0  0  0  0  0  0  0  0  0  0
  140.3980   70.6300  228.1580 C   0  0  0  0  0  0  0  0  0  0  0  0
  139.5830   70.4410  226.8820 C   0  0  0  0  0  0  0  0  0  0  0  0
  139.7270   70.4320  223.7000 C   0  0  0  0  0  0  0  0  0  0  0  0
  139.3750   73.4170  222.3140 N   0  0  0  0  0  0  0  0  0  0  0  0
  139.8350   74.7180  221.9830 C   0  0  0  0  0  0  0  0  0  0  0  0
  139.0750   75.8380  222.2140 C   0  0  0  0  0  0  0  0  0  0  0  0
  139.5890   77.0730  221.8630 C   0  0  0  0  0  0  0  0  0  0  0  0
  140.8290   77.2440  221.2900 C   0  0  0  0  0  0  0  0  0  0  0  0
  141.3720   78.4880  220.9050 N   0  0  0  0  0  0  0  0  0  0  0  0
  141.6280   79.5860  221.7530 C   0  0  0  0  0  0  0  0  0  0  0  0
  141.2430   80.8810  221.4970 C   0  0  0  0  0  0  0  0  0  0  0  0
  141.5010   81.9270  222.3630 C   0  0  0  0  0  0  0  0  0  0  0  0
  142.1740   81.6670  223.5350 C   0  0  0  0  0  0  0  0  0  0  0  0
  142.5810   80.3880  223.8380 C   0  0  0  0  0  0  0  0  0  0  0  0
  142.3090   79.3590  222.9520 C   0  0  0  0  0  0  0  0  0  0  0  0
  141.5650   76.0740  221.0760 C   0  0  0  0  0  0  0  0  0  0  0  0
  141.0830   74.8290  221.4140 C   0  0  0  0  0  0  0  0  0  0  0  0
  141.3538   71.6384  220.6161 H   0  0  0  0  0  0  0  0  0  0  0  0
  142.0856   71.7927  222.2434 H   0  0  0  0  0  0  0  0  0  0  0  0
  138.1422   71.0338  220.7652 H   0  0  0  0  0  0  0  0  0  0  0  0
  137.0189   68.9223  221.3756 H   0  0  0  0  0  0  0  0  0  0  0  0
  137.6383   67.7916  223.4757 H   0  0  0  0  0  0  0  0  0  0  0  0
  139.1380   68.2476  228.4491 H   0  0  0  0  0  0  0  0  0  0  0  0
  139.8259   67.0651  227.3224 H   0  0  0  0  0  0  0  0  0  0  0  0
  141.3703   68.0720  229.1756 H   0  0  0  0  0  0  0  0  0  0  0  0
  141.9860   68.0118  227.4575 H   0  0  0  0  0  0  0  0  0  0  0  0
  139.7643   70.3934  229.0255 H   0  0  0  0  0  0  0  0  0  0  0  0
  140.7409   71.6744  228.1976 H   0  0  0  0  0  0  0  0  0  0  0  0
  138.5460   70.7676  227.0491 H   0  0  0  0  0  0  0  0  0  0  0  0
  140.0087   71.0396  226.0632 H   0  0  0  0  0  0  0  0  0  0  0  0
  140.4957   70.8623  224.3588 H   0  0  0  0  0  0  0  0  0  0  0  0
  138.0771   75.7546  222.6692 H   0  0  0  0  0  0  0  0  0  0  0  0
  138.9746   77.9657  222.0516 H   0  0  0  0  0  0  0  0  0  0  0  0
  141.6030   78.6000  219.8800 H   0  0  0  0  0  0  0  0  0  0  0  0
  140.7056   81.0941  220.5611 H   0  0  0  0  0  0  0  0  0  0  0  0
  141.1743   82.9488  222.1198 H   0  0  0  0  0  0  0  0  0  0  0  0
  142.3882   82.4881  224.2350 H   0  0  0  0  0  0  0  0  0  0  0  0
  143.1180   80.1845  224.7762 H   0  0  0  0  0  0  0  0  0  0  0  0
  142.6370   78.3382  223.1980 H   0  0  0  0  0  0  0  0  0  0  0  0
  142.5639   76.1510  220.6218 H   0  0  0  0  0  0  0  0  0  0  0  0
  1  2  2  0
  2  3  1  0
  3  4  1  0
  4  5  1  0
  5  6  2  0
  6  7  1  0
  7  8  2  0
  8  9  1  0
  9 10  1  0
 10 11  2  0
 10 12  1  0
 12 13  1  0
 13 14  1  0
 14 15  1  0
 15 16  1  0
 16 17  1  0
  9 18  2  0
  4 19  2  0
 19 20  1  0
 20 21  2  0
 21 22  1  0
 22 23  2  0
 23 24  1  0
 24 25  1  0
 25 26  2  0
 26 27  1  0
 27 28  2  0
 28 29  1  0
 29 30  2  0
 23 31  1  0
 31 32  2  0
 32  2  1  0
 18  5  1  0
 32 20  1  0
 17 12  1  0
 30 25  1  0
  3 33  1  0
  3 34  1  0
  6 35  1  0
  7 36  1  0
  8 37  1  0
 13 38  1  0
 13 39  1  0
 14 40  1  0
 14 41  1  0
 16 42  1  0
 16 43  1  0
 17 44  1  0
 17 45  1  0
 18 46  1  0
 21 47  1  0
 22 48  1  0
 24 49  1  0
 26 50  1  0
 27 51  1  0
 28 52  1  0
 29 53  1  0
 30 54  1  0
 31 55  1  0
M  END
>  <smiles>  (10) 
O=C1CC(c2cccc(C(=O)N3CCOCC3)c2)=Nc2ccc(Nc3ccccc3)cc21

>  <score_type>  (10) 
oracle

>  <origin>  (10) 
autodockgpu

>  <m_score__min__energy>  (10) 
-9.6899999999999995

>  <m_primary>  (10) 
energy

>  <rmsd>  (10) 
6.7114096178891325

>  <m_score__min__rmsd>  (10) 
6.7114096178891325

>  <meeko>  (10) 
{"free_energy": -9.09, "intermolecular_energy": -10.28, "internal_energy": -0.99, "cluster_size": 32, "cluster_id": 1, "rank_in_cluster": 20}

>  <energy>  (10) 
-9.48

>  <cluster_rmsd>  (10) 
0.36

>  <cluster>  (10) 
1

$$$$

     RDKit          3D

 55 59  0  0  0  0  0  0  0  0999 V2000
  143.0050   74.0610  220.3150 O   0  0  0  0  0  0  0  0  0  0  0  0
  141.9180   73.8220  220.9350 C   0  0  0  0  0  0  0  0  0  0  0  0
  141.6040   72.4100  221.2360 C   0  0  0  0  0  0  0  0  0  0  0  0
  140.3130   72.3530  221.9470 C   0  0  0  0  0  0  0  0  0  0  0  0
  139.8110   71.0310  222.3370 C   0  0  0  0  0  0  0  0  0  0  0  0
  139.2850   70.1820  221.3540 C   0  0  0  0  0  0  0  0  0  0  0  0
  138.8090   68.9380  221.6670 C   0  0  0  0  0  0  0  0  0  0  0  0
  138.8550   68.5280  222.9730 C   0  0  0  0  0  0  0  0  0  0  0  0
  139.3720   69.3390  223.9910 C   0  0  0  0  0  0  0  0  0  0  0  0
  139.3630   68.7900  225.3200 C   0  0  0  0  0  0  0  0  0  0  0  0
  139.0850   67.5540  225.4360 O   0  0  0  0  0  0  0  0  0  0  0  0
  139.6330   69.4880  226.5140 N   0  0  0  0  0  0  0  0  0  0  0  0
  139.5830   68.7630  227.7840 C   0  0  0  0  0  0  0  0  0  0  0  0
  140.9740   68.8440  228.3700 C   0  0  0  0  0  0  0  0  0  0  0  0
  141.5680   70.0610  228.1890 O   0  0  0  0  0  0  0  0  0  0  0  0
  140.7210   71.1170  227.9090 C   0  0  0  0  0  0  0  0  0  0  0  0
  139.9650   70.8950  226.6020 C   0  0  0  0  0  0  0  0  0  0  0  0
  139.8420   70.5850  223.6460 C   0  0  0  0  0  0  0  0  0  0  0  0
  139.5820   73.3580  222.2560 N   0  0  0  0  0  0  0  0  0  0  0  0
  139.9030   74.7080  221.9590 C   0  0  0  0  0  0  0  0  0  0  0  0
  139.0780   75.7460  222.3150 C   0  0  0  0  0  0  0  0  0  0  0  0
  139.4570   77.0360  221.9910 C   0  0  0  0  0  0  0  0  0  0  0  0
  140.6230   77.3400  221.3240 C   0  0  0  0  0  0  0  0  0  0  0  0
  141.0260   78.6430  220.9630 N   0  0  0  0  0  0  0  0  0  0  0  0
  141.4140   79.6720  221.8460 C   0  0  0  0  0  0  0  0  0  0  0  0
  141.0860   80.9990  221.6970 C   0  0  0  0  0  0  0  0  0  0  0  0
  141.4740   81.9750  222.5950 C   0  0  0  0  0  0  0  0  0  0  0  0
  142.2240   81.6080  223.6900 C   0  0  0  0  0  0  0  0  0  0  0  0
  142.5780   80.2940  223.8850 C   0  0  0  0  0  0  0  0  0  0  0  0
  142.1750   79.3360  222.9690 C   0  0  0  0  0  0  0  0  0  0  0  0
  141.4280   76.2490  220.9840 C   0  0  0  0  0  0  0  0  0  0  0  0
  141.0810   74.9520  221.2920 C   0  0  0  0  0  0  0  0  0  0  0  0
  141.5358   71.8382  220.2988 H   0  0  0  0  0  0  0  0  0  0  0  0
  142.3964   71.9757  221.8632 H   0  0  0  0  0  0  0  0  0  0  0  0
  139.2541   70.5229  220.3086 H   0  0  0  0  0  0  0  0  0  0  0  0
  138.3981   68.2811  220.8863 H   0  0  0  0  0  0  0  0  0  0  0  0
  138.4734   67.5290  223.2308 H   0  0  0  0  0  0  0  0  0  0  0  0
  138.8553   69.2320  228.4626 H   0  0  0  0  0  0  0  0  0  0  0  0
  139.2695   67.7188  227.6377 H   0  0  0  0  0  0  0  0  0  0  0  0
  140.9099   68.6442  229.4498 H   0  0  0  0  0  0  0  0  0  0  0  0
  141.5915   68.0996  227.8460 H   0  0  0  0  0  0  0  0  0  0  0  0
  139.9950   71.2203  228.7289 H   0  0  0  0  0  0  0  0  0  0  0  0
  141.3277   72.0288  227.8066 H   0  0  0  0  0  0  0  0  0  0  0  0
  139.0446   71.4974  226.5955 H   0  0  0  0  0  0  0  0  0  0  0  0
  140.5844   71.1972  225.7447 H   0  0  0  0  0  0  0  0  0  0  0  0
  140.2515   71.2410  224.4283 H   0  0  0  0  0  0  0  0  0  0  0  0
  138.1344   75.5555  222.8473 H   0  0  0  0  0  0  0  0  0  0  0  0
  138.7921   77.8628  222.2813 H   0  0  0  0  0  0  0  0  0  0  0  0
  141.0320   78.8600  219.9290 H   0  0  0  0  0  0  0  0  0  0  0  0
  140.4877   81.2971  220.8234 H   0  0  0  0  0  0  0  0  0  0  0  0
  141.1890   83.0258  222.4380 H   0  0  0  0  0  0  0  0  0  0  0  0
  142.5423   82.3722  224.4143 H   0  0  0  0  0  0  0  0  0  0  0  0
  143.1766   80.0055  224.7616 H   0  0  0  0  0  0  0  0  0  0  0  0
  142.4608   78.2859  223.1294 H   0  0  0  0  0  0  0  0  0  0  0  0
  142.3727   76.4328  220.4512 H   0  0  0  0  0  0  0  0  0  0  0  0
  1  2  2  0
  2  3  1  0
  3  4  1  0
  4  5  1  0
  5  6  2  0
  6  7  1  0
  7  8  2  0
  8  9  1  0
  9 10  1  0
 10 11  2  0
 10 12  1  0
 12 13  1  0
 13 14  1  0
 14 15  1  0
 15 16  1  0
 16 17  1  0
  9 18  2  0
  4 19  2  0
 19 20  1  0
 20 21  2  0
 21 22  1  0
 22 23  2  0
 23 24  1  0
 24 25  1  0
 25 26  2  0
 26 27  1  0
 27 28  2  0
 28 29  1  0
 29 30  2  0
 23 31  1  0
 31 32  2  0
 32  2  1  0
 18  5  1  0
 32 20  1  0
 17 12  1  0
 30 25  1  0
  3 33  1  0
  3 34  1  0
  6 35  1  0
  7 36  1  0
  8 37  1  0
 13 38  1  0
 13 39  1  0
 14 40  1  0
 14 41  1  0
 16 42  1  0
 16 43  1  0
 17 44  1  0
 17 45  1  0
 18 46  1  0
 21 47  1  0
 22 48  1  0
 24 49  1  0
 26 50  1  0
 27 51  1  0
 28 52  1  0
 29 53  1  0
 30 54  1  0
 31 55  1  0
M  END
>  <smiles>  (11) 
O=C1CC(c2cccc(C(=O)N3CCOCC3)c2)=Nc2ccc(Nc3ccccc3)cc21

>  <score_type>  (11) 
oracle

>  <origin>  (11) 
autodockgpu

>  <m_score__min__energy>  (11) 
-9.6899999999999995

>  <m_primary>  (11) 
energy

>  <rmsd>  (11) 
6.708180169978363

>  <m_score__min__rmsd>  (11) 
6.708180169978363

>  <meeko>  (11) 
{"free_energy": -9.61, "intermolecular_energy": -10.81, "internal_energy": -0.89, "cluster_size": 32, "cluster_id": 1, "rank_in_cluster": 4}

>  <energy>  (11) 
-9.46

>  <cluster_rmsd>  (11) 
0.37

>  <cluster>  (11) 
1

$$$$

     RDKit          3D

 55 59  0  0  0  0  0  0  0  0999 V2000
  143.1450   73.6320  220.2810 O   0  0  0  0  0  0  0  0  0  0  0  0
  142.0440   73.5070  220.9110 C   0  0  0  0  0  0  0  0  0  0  0  0
  141.5780   72.1360  221.1990 C   0  0  0  0  0  0  0  0  0  0  0  0
  140.2950   72.2140  221.9230 C   0  0  0  0  0  0  0  0  0  0  0  0
  139.6530   70.9510  222.3040 C   0  0  0  0  0  0  0  0  0  0  0  0
  138.8120   70.3080  221.3860 C   0  0  0  0  0  0  0  0  0  0  0  0
  138.1940   69.1250  221.6910 C   0  0  0  0  0  0  0  0  0  0  0  0
  138.4110   68.5730  222.9250 C   0  0  0  0  0  0  0  0  0  0  0  0
  139.2430   69.1770  223.8770 C   0  0  0  0  0  0  0  0  0  0  0  0
  139.3870   68.4940  225.1340 C   0  0  0  0  0  0  0  0  0  0  0  0
  139.3270   67.2230  225.1150 O   0  0  0  0  0  0  0  0  0  0  0  0
  139.5880   69.0940  226.3930 N   0  0  0  0  0  0  0  0  0  0  0  0
  139.7190   68.2370  227.5720 C   0  0  0  0  0  0  0  0  0  0  0  0
  141.1020   68.4940  228.1270 C   0  0  0  0  0  0  0  0  0  0  0  0
  141.4730   69.8080  228.0720 O   0  0  0  0  0  0  0  0  0  0  0  0
  140.4480   70.7250  227.9370 C   0  0  0  0  0  0  0  0  0  0  0  0
  139.6810   70.5190  226.6330 C   0  0  0  0  0  0  0  0  0  0  0  0
  139.8500   70.3650  223.5420 C   0  0  0  0  0  0  0  0  0  0  0  0
  139.6840   73.2900  222.2520 N   0  0  0  0  0  0  0  0  0  0  0  0
  140.1500   74.6000  221.9670 C   0  0  0  0  0  0  0  0  0  0  0  0
  139.4500   75.7190  222.3440 C   0  0  0  0  0  0  0  0  0  0  0  0
  139.9680   76.9620  222.0300 C   0  0  0  0  0  0  0  0  0  0  0  0
  141.1530   77.1420  221.3550 C   0  0  0  0  0  0  0  0  0  0  0  0
  141.6960   78.3970  221.0030 N   0  0  0  0  0  0  0  0  0  0  0  0
  141.8420   79.5110  221.8560 C   0  0  0  0  0  0  0  0  0  0  0  0
  141.0570   80.6400  221.8140 C   0  0  0  0  0  0  0  0  0  0  0  0
  141.2240   81.7040  222.6790 C   0  0  0  0  0  0  0  0  0  0  0  0
  142.2200   81.6380  223.6270 C   0  0  0  0  0  0  0  0  0  0  0  0
  143.0330   80.5320  223.7100 C   0  0  0  0  0  0  0  0  0  0  0  0
  142.8430   79.4790  222.8310 C   0  0  0  0  0  0  0  0  0  0  0  0
  141.8290   75.9730  220.9920 C   0  0  0  0  0  0  0  0  0  0  0  0
  141.3420   74.7190  221.2900 C   0  0  0  0  0  0  0  0  0  0  0  0
  141.4380   71.5871  220.2561 H   0  0  0  0  0  0  0  0  0  0  0  0
  142.3229   71.6085  221.8129 H   0  0  0  0  0  0  0  0  0  0  0  0
  138.6447   70.7636  220.3989 H   0  0  0  0  0  0  0  0  0  0  0  0
  137.5377   68.6290  220.9608 H   0  0  0  0  0  0  0  0  0  0  0  0
  137.9157   67.6238  223.1775 H   0  0  0  0  0  0  0  0  0  0  0  0
  138.9540   68.4959  228.3188 H   0  0  0  0  0  0  0  0  0  0  0  0
  139.5803   67.1765  227.3148 H   0  0  0  0  0  0  0  0  0  0  0  0
  141.1218   68.1697  229.1779 H   0  0  0  0  0  0  0  0  0  0  0  0
  141.8119   67.9297  227.5044 H   0  0  0  0  0  0  0  0  0  0  0  0
  139.7531   70.6114  228.7821 H   0  0  0  0  0  0  0  0  0  0  0  0
  140.8868   71.7336  227.9236 H   0  0  0  0  0  0  0  0  0  0  0  0
  138.6728   70.9501  226.7201 H   0  0  0  0  0  0  0  0  0  0  0  0
  140.2003   71.0153  225.7999 H   0  0  0  0  0  0  0  0  0  0  0  0
  140.5058   70.8596  224.2736 H   0  0  0  0  0  0  0  0  0  0  0  0
  138.4964   75.6287  222.8849 H   0  0  0  0  0  0  0  0  0  0  0  0
  139.4024   77.8544  222.3363 H   0  0  0  0  0  0  0  0  0  0  0  0
  142.0180   78.5030  220.0030 H   0  0  0  0  0  0  0  0  0  0  0  0
  140.2605   80.6981  221.0575 H   0  0  0  0  0  0  0  0  0  0  0  0
  140.5729   82.5880  222.6115 H   0  0  0  0  0  0  0  0  0  0  0  0
  142.3667   82.4766  224.3236 H   0  0  0  0  0  0  0  0  0  0  0  0
  143.8280   80.4841  224.4687 H   0  0  0  0  0  0  0  0  0  0  0  0
  143.4955   78.5962  222.9017 H   0  0  0  0  0  0  0  0  0  0  0  0
  142.7824   76.0574  220.4499 H   0  0  0  0  0  0  0  0  0  0  0  0
  1  2  2  0
  2  3  1  0
  3  4  1  0
  4  5  1  0
  5  6  2  0
  6  7  1  0
  7  8  2  0
  8  9  1  0
  9 10  1  0
 10 11  2  0
 10 12  1  0
 12 13  1  0
 13 14  1  0
 14 15  1  0
 15 16  1  0
 16 17  1  0
  9 18  2  0
  4 19  2  0
 19 20  1  0
 20 21  2  0
 21 22  1  0
 22 23  2  0
 23 24  1  0
 24 25  1  0
 25 26  2  0
 26 27  1  0
 27 28  2  0
 28 29  1  0
 29 30  2  0
 23 31  1  0
 31 32  2  0
 32  2  1  0
 18  5  1  0
 32 20  1  0
 17 12  1  0
 30 25  1  0
  3 33  1  0
  3 34  1  0
  6 35  1  0
  7 36  1  0
  8 37  1  0
 13 38  1  0
 13 39  1  0
 14 40  1  0
 14 41  1  0
 16 42  1  0
 16 43  1  0
 17 44  1  0
 17 45  1  0
 18 46  1  0
 21 47  1  0
 22 48  1  0
 24 49  1  0
 26 50  1  0
 27 51  1  0
 28 52  1  0
 29 53  1  0
 30 54  1  0
 31 55  1  0
M  END
>  <smiles>  (12) 
O=C1CC(c2cccc(C(=O)N3CCOCC3)c2)=Nc2ccc(Nc3ccccc3)cc21

>  <score_type>  (12) 
oracle

>  <origin>  (12) 
autodockgpu

>  <m_score__min__energy>  (12) 
-9.6899999999999995

>  <m_primary>  (12) 
energy

>  <rmsd>  (12) 
6.788431083492484

>  <m_score__min__rmsd>  (12) 
6.788431083492484

>  <meeko>  (12) 
{"free_energy": -9.37, "intermolecular_energy": -10.56, "internal_energy": -0.95, "cluster_size": 32, "cluster_id": 1, "rank_in_cluster": 15}

>  <energy>  (12) 
-9.45

>  <cluster_rmsd>  (12) 
0.26

>  <cluster>  (12) 
1

$$$$

     RDKit          3D

 55 59  0  0  0  0  0  0  0  0999 V2000
  136.6150   75.2550  221.7950 O   0  0  0  0  0  0  0  0  0  0  0  0
  137.6540   74.5270  221.9180 C   0  0  0  0  0  0  0  0  0  0  0  0
  137.4500   73.1010  222.2440 C   0  0  0  0  0  0  0  0  0  0  0  0
  138.7670   72.4450  222.3460 C   0  0  0  0  0  0  0  0  0  0  0  0
  138.7890   71.0140  222.6690 C   0  0  0  0  0  0  0  0  0  0  0  0
  138.6480   70.0770  221.6370 C   0  0  0  0  0  0  0  0  0  0  0  0
  138.6670   68.7320  221.8870 C   0  0  0  0  0  0  0  0  0  0  0  0
  138.8270   68.3080  223.1790 C   0  0  0  0  0  0  0  0  0  0  0  0
  138.9720   69.2050  224.2450 C   0  0  0  0  0  0  0  0  0  0  0  0
  139.1340   68.6310  225.5540 C   0  0  0  0  0  0  0  0  0  0  0  0
  138.8740   67.3920  225.6800 O   0  0  0  0  0  0  0  0  0  0  0  0
  139.5520   69.3070  226.7170 N   0  0  0  0  0  0  0  0  0  0  0  0
  139.6650   68.5570  227.9680 C   0  0  0  0  0  0  0  0  0  0  0  0
  141.1200   68.6320  228.3740 C   0  0  0  0  0  0  0  0  0  0  0  0
  141.6850   69.8540  228.1430 O   0  0  0  0  0  0  0  0  0  0  0  0
  140.8070   70.9120  227.9930 C   0  0  0  0  0  0  0  0  0  0  0  0
  139.8910   70.7130  226.7890 C   0  0  0  0  0  0  0  0  0  0  0  0
  138.9490   70.5510  223.9630 C   0  0  0  0  0  0  0  0  0  0  0  0
  139.9030   73.0130  222.1790 N   0  0  0  0  0  0  0  0  0  0  0  0
  140.0770   74.3850  221.8640 C   0  0  0  0  0  0  0  0  0  0  0  0
  141.3220   74.9400  221.6970 C   0  0  0  0  0  0  0  0  0  0  0  0
  141.4130   76.2860  221.3930 C   0  0  0  0  0  0  0  0  0  0  0  0
  140.3180   77.1070  221.2480 C   0  0  0  0  0  0  0  0  0  0  0  0
  140.3810   78.4870  220.9580 N   0  0  0  0  0  0  0  0  0  0  0  0
  140.9660   79.4840  221.7670 C   0  0  0  0  0  0  0  0  0  0  0  0
  140.9450   80.8310  221.4900 C   0  0  0  0  0  0  0  0  0  0  0  0
  141.5180   81.7780  222.3170 C   0  0  0  0  0  0  0  0  0  0  0  0
  142.1400   81.3600  223.4710 C   0  0  0  0  0  0  0  0  0  0  0  0
  142.1890   80.0240  223.7950 C   0  0  0  0  0  0  0  0  0  0  0  0
  141.6060   79.0970  222.9470 C   0  0  0  0  0  0  0  0  0  0  0  0
  139.0730   76.4960  221.4280 C   0  0  0  0  0  0  0  0  0  0  0  0
  138.9470   75.1590  221.7310 C   0  0  0  0  0  0  0  0  0  0  0  0
  136.9177   73.0131  223.2026 H   0  0  0  0  0  0  0  0  0  0  0  0
  136.8517   72.6190  221.4568 H   0  0  0  0  0  0  0  0  0  0  0  0
  138.5192   70.4304  220.6033 H   0  0  0  0  0  0  0  0  0  0  0  0
  138.5561   68.0067  221.0674 H   0  0  0  0  0  0  0  0  0  0  0  0
  138.8421   67.2279  223.3866 H   0  0  0  0  0  0  0  0  0  0  0  0
  139.0289   69.0096  228.7429 H   0  0  0  0  0  0  0  0  0  0  0  0
  139.3369   67.5147  227.8419 H   0  0  0  0  0  0  0  0  0  0  0  0
  141.1939   68.4112  229.4491 H   0  0  0  0  0  0  0  0  0  0  0  0
  141.6665   67.9003  227.7609 H   0  0  0  0  0  0  0  0  0  0  0  0
  140.1911   70.9966  228.9004 H   0  0  0  0  0  0  0  0  0  0  0  0
  141.3948   71.8277  227.8315 H   0  0  0  0  0  0  0  0  0  0  0  0
  138.9768   71.3123  226.9115 H   0  0  0  0  0  0  0  0  0  0  0  0
  140.3956   71.0339  225.8657 H   0  0  0  0  0  0  0  0  0  0  0  0
  139.0602   71.2749  224.7838 H   0  0  0  0  0  0  0  0  0  0  0  0
  142.2287   74.3262  221.8029 H   0  0  0  0  0  0  0  0  0  0  0  0
  142.4134   76.7236  221.2601 H   0  0  0  0  0  0  0  0  0  0  0  0
  139.9430   78.7930  220.0470 H   0  0  0  0  0  0  0  0  0  0  0  0
  140.4495   81.1698  220.5682 H   0  0  0  0  0  0  0  0  0  0  0  0
  141.4777   82.8462  222.0577 H   0  0  0  0  0  0  0  0  0  0  0  0
  142.6021   82.1006  224.1403 H   0  0  0  0  0  0  0  0  0  0  0  0
  142.6867   79.6949  224.7191 H   0  0  0  0  0  0  0  0  0  0  0  0
  141.6479   78.0295  223.2091 H   0  0  0  0  0  0  0  0  0  0  0  0
  138.1628   77.1048  221.3238 H   0  0  0  0  0  0  0  0  0  0  0  0
  1  2  2  0
  2  3  1  0
  3  4  1  0
  4  5  1  0
  5  6  2  0
  6  7  1  0
  7  8  2  0
  8  9  1  0
  9 10  1  0
 10 11  2  0
 10 12  1  0
 12 13  1  0
 13 14  1  0
 14 15  1  0
 15 16  1  0
 16 17  1  0
  9 18  2  0
  4 19  2  0
 19 20  1  0
 20 21  2  0
 21 22  1  0
 22 23  2  0
 23 24  1  0
 24 25  1  0
 25 26  2  0
 26 27  1  0
 27 28  2  0
 28 29  1  0
 29 30  2  0
 23 31  1  0
 31 32  2  0
 32  2  1  0
 18  5  1  0
 32 20  1  0
 17 12  1  0
 30 25  1  0
  3 33  1  0
  3 34  1  0
  6 35  1  0
  7 36  1  0
  8 37  1  0
 13 38  1  0
 13 39  1  0
 14 40  1  0
 14 41  1  0
 16 42  1  0
 16 43  1  0
 17 44  1  0
 17 45  1  0
 18 46  1  0
 21 47  1  0
 22 48  1  0
 24 49  1  0
 26 50  1  0
 27 51  1  0
 28 52  1  0
 29 53  1  0
 30 54  1  0
 31 55  1  0
M  END
>  <smiles>  (13) 
O=C1CC(c2cccc(C(=O)N3CCOCC3)c2)=Nc2ccc(Nc3ccccc3)cc21

>  <score_type>  (13) 
oracle

>  <origin>  (13) 
autodockgpu

>  <m_score__min__energy>  (13) 
-9.6899999999999995

>  <m_primary>  (13) 
energy

>  <rmsd>  (13) 
6.7441402812616245

>  <m_score__min__rmsd>  (13) 
6.7441402812616245

>  <meeko>  (13) 
{"free_energy": -8.56, "intermolecular_energy": -9.75, "internal_energy": -0.85, "cluster_size": 32, "cluster_id": 1, "rank_in_cluster": 30}

>  <energy>  (13) 
-9.44

>  <cluster_rmsd>  (13) 
0.36

>  <cluster>  (13) 
1

$$$$

     RDKit          3D

 55 59  0  0  0  0  0  0  0  0999 V2000
  143.1450   73.8070  220.2000 O   0  0  0  0  0  0  0  0  0  0  0  0
  142.0740   73.6070  220.8610 C   0  0  0  0  0  0  0  0  0  0  0  0
  141.7080   72.2070  221.1570 C   0  0  0  0  0  0  0  0  0  0  0  0
  140.4450   72.1980  221.9190 C   0  0  0  0  0  0  0  0  0  0  0  0
  139.9000   70.8940  222.3130 C   0  0  0  0  0  0  0  0  0  0  0  0
  139.3350   70.0650  221.3350 C   0  0  0  0  0  0  0  0  0  0  0  0
  138.8180   68.8380  221.6510 C   0  0  0  0  0  0  0  0  0  0  0  0
  138.8600   68.4270  222.9570 C   0  0  0  0  0  0  0  0  0  0  0  0
  139.4150   69.2190  223.9700 C   0  0  0  0  0  0  0  0  0  0  0  0
  139.3980   68.6700  225.3000 C   0  0  0  0  0  0  0  0  0  0  0  0
  139.1620   67.4250  225.4110 O   0  0  0  0  0  0  0  0  0  0  0  0
  139.6160   69.3780  226.4990 N   0  0  0  0  0  0  0  0  0  0  0  0
  139.5650   68.6510  227.7680 C   0  0  0  0  0  0  0  0  0  0  0  0
  140.9400   68.7830  228.3830 C   0  0  0  0  0  0  0  0  0  0  0  0
  141.4930   70.0210  228.2140 O   0  0  0  0  0  0  0  0  0  0  0  0
  140.6140   71.0450  227.9150 C   0  0  0  0  0  0  0  0  0  0  0  0
  139.8940   70.7960  226.5920 C   0  0  0  0  0  0  0  0  0  0  0  0
  139.9260   70.4470  223.6220 C   0  0  0  0  0  0  0  0  0  0  0  0
  139.7730   73.2310  222.2690 N   0  0  0  0  0  0  0  0  0  0  0  0
  140.1430   74.5690  221.9760 C   0  0  0  0  0  0  0  0  0  0  0  0
  139.3810   75.6380  222.3780 C   0  0  0  0  0  0  0  0  0  0  0  0
  139.8050   76.9130  222.0540 C   0  0  0  0  0  0  0  0  0  0  0  0
  140.9550   77.1740  221.3440 C   0  0  0  0  0  0  0  0  0  0  0  0
  141.4020   78.4620  220.9820 N   0  0  0  0  0  0  0  0  0  0  0  0
  141.6870   79.5260  221.8650 C   0  0  0  0  0  0  0  0  0  0  0  0
  142.4710   79.4220  222.9900 C   0  0  0  0  0  0  0  0  0  0  0  0
  142.7390   80.4940  223.8210 C   0  0  0  0  0  0  0  0  0  0  0  0
  142.1980   81.7210  223.5150 C   0  0  0  0  0  0  0  0  0  0  0  0
  141.4060   81.8780  222.4010 C   0  0  0  0  0  0  0  0  0  0  0  0
  141.1550   80.7870  221.5850 C   0  0  0  0  0  0  0  0  0  0  0  0
  141.6960   76.0530  220.9580 C   0  0  0  0  0  0  0  0  0  0  0  0
  141.3030   74.7690  221.2650 C   0  0  0  0  0  0  0  0  0  0  0  0
  141.5764   71.6522  220.2163 H   0  0  0  0  0  0  0  0  0  0  0  0
  142.5041   71.7287  221.7464 H   0  0  0  0  0  0  0  0  0  0  0  0
  139.3064   70.4080  220.2902 H   0  0  0  0  0  0  0  0  0  0  0  0
  138.3784   68.1960  220.8735 H   0  0  0  0  0  0  0  0  0  0  0  0
  138.4443   67.4428  223.2187 H   0  0  0  0  0  0  0  0  0  0  0  0
  138.8064   69.0929  228.4308 H   0  0  0  0  0  0  0  0  0  0  0  0
  139.2926   67.5962  227.6160 H   0  0  0  0  0  0  0  0  0  0  0  0
  140.8607   68.5807  229.4613 H   0  0  0  0  0  0  0  0  0  0  0  0
  141.5951   68.0620  227.8721 H   0  0  0  0  0  0  0  0  0  0  0  0
  139.8675   71.1215  228.7193 H   0  0  0  0  0  0  0  0  0  0  0  0
  141.1893   71.9782  227.8245 H   0  0  0  0  0  0  0  0  0  0  0  0
  138.9526   71.3643  226.5657 H   0  0  0  0  0  0  0  0  0  0  0  0
  140.5193   71.1210  225.7474 H   0  0  0  0  0  0  0  0  0  0  0  0
  140.3649   71.0878  224.4010 H   0  0  0  0  0  0  0  0  0  0  0  0
  138.4520   75.4829  222.9463 H   0  0  0  0  0  0  0  0  0  0  0  0
  139.1905   77.7647  222.3810 H   0  0  0  0  0  0  0  0  0  0  0  0
  141.5300   78.6400  219.9490 H   0  0  0  0  0  0  0  0  0  0  0  0
  142.9042   78.4423  223.2399 H   0  0  0  0  0  0  0  0  0  0  0  0
  143.3734   80.3679  224.7107 H   0  0  0  0  0  0  0  0  0  0  0  0
  142.4002   82.5840  224.1664 H   0  0  0  0  0  0  0  0  0  0  0  0
  140.9758   82.8614  222.1603 H   0  0  0  0  0  0  0  0  0  0  0  0
  140.5215   80.9168  220.6951 H   0  0  0  0  0  0  0  0  0  0  0  0
  142.6256   76.2016  220.3891 H   0  0  0  0  0  0  0  0  0  0  0  0
  1  2  2  0
  2  3  1  0
  3  4  1  0
  4  5  1  0
  5  6  2  0
  6  7  1  0
  7  8  2  0
  8  9  1  0
  9 10  1  0
 10 11  2  0
 10 12  1  0
 12 13  1  0
 13 14  1  0
 14 15  1  0
 15 16  1  0
 16 17  1  0
  9 18  2  0
  4 19  2  0
 19 20  1  0
 20 21  2  0
 21 22  1  0
 22 23  2  0
 23 24  1  0
 24 25  1  0
 25 26  2  0
 26 27  1  0
 27 28  2  0
 28 29  1  0
 29 30  2  0
 23 31  1  0
 31 32  2  0
 32  2  1  0
 18  5  1  0
 32 20  1  0
 17 12  1  0
 30 25  1  0
  3 33  1  0
  3 34  1  0
  6 35  1  0
  7 36  1  0
  8 37  1  0
 13 38  1  0
 13 39  1  0
 14 40  1  0
 14 41  1  0
 16 42  1  0
 16 43  1  0
 17 44  1  0
 17 45  1  0
 18 46  1  0
 21 47  1  0
 22 48  1  0
 24 49  1  0
 26 50  1  0
 27 51  1  0
 28 52  1  0
 29 53  1  0
 30 54  1  0
 31 55  1  0
M  END
>  <smiles>  (14) 
O=C1CC(c2cccc(C(=O)N3CCOCC3)c2)=Nc2ccc(Nc3ccccc3)cc21

>  <score_type>  (14) 
oracle

>  <origin>  (14) 
autodockgpu

>  <m_score__min__energy>  (14) 
-9.6899999999999995

>  <m_primary>  (14) 
energy

>  <rmsd>  (14) 
6.797996524436577

>  <m_score__min__rmsd>  (14) 
6.797996524436577

>  <meeko>  (14) 
{"free_energy": -9.52, "intermolecular_energy": -10.72, "internal_energy": -0.89, "cluster_size": 32, "cluster_id": 1, "rank_in_cluster": 7}

>  <energy>  (14) 
-9.39

>  <cluster_rmsd>  (14) 
0.37

>  <cluster>  (14) 
1

$$$$

     RDKit          3D

 55 59  0  0  0  0  0  0  0  0999 V2000
  142.6820   73.4770  219.6460 O   0  0  0  0  0  0  0  0  0  0  0  0
  141.7330   73.4440  220.4950 C   0  0  0  0  0  0  0  0  0  0  0  0
  141.1720   72.1210  220.8360 C   0  0  0  0  0  0  0  0  0  0  0  0
  140.0910   72.3040  221.8230 C   0  0  0  0  0  0  0  0  0  0  0  0
  139.3930   71.1040  222.2960 C   0  0  0  0  0  0  0  0  0  0  0  0
  138.3850   70.5410  221.5010 C   0  0  0  0  0  0  0  0  0  0  0  0
  137.7080   69.4190  221.8960 C   0  0  0  0  0  0  0  0  0  0  0  0
  138.0340   68.8460  223.0960 C   0  0  0  0  0  0  0  0  0  0  0  0
  139.0330   69.3700  223.9260 C   0  0  0  0  0  0  0  0  0  0  0  0
  139.2780   68.6740  225.1600 C   0  0  0  0  0  0  0  0  0  0  0  0
  139.2600   67.4020  225.1220 O   0  0  0  0  0  0  0  0  0  0  0  0
  139.5370   69.2610  226.4140 N   0  0  0  0  0  0  0  0  0  0  0  0
  139.7700   68.3920  227.5670 C   0  0  0  0  0  0  0  0  0  0  0  0
  141.1750   68.6880  228.0410 C   0  0  0  0  0  0  0  0  0  0  0  0
  141.4980   70.0150  227.9860 O   0  0  0  0  0  0  0  0  0  0  0  0
  140.4350   70.8980  227.9290 C   0  0  0  0  0  0  0  0  0  0  0  0
  139.5970   70.6850  226.6720 C   0  0  0  0  0  0  0  0  0  0  0  0
  139.6960   70.4990  223.5030 C   0  0  0  0  0  0  0  0  0  0  0  0
  139.7000   73.4230  222.3080 N   0  0  0  0  0  0  0  0  0  0  0  0
  140.2540   74.6850  221.9680 C   0  0  0  0  0  0  0  0  0  0  0  0
  139.7940   75.8540  222.5220 C   0  0  0  0  0  0  0  0  0  0  0  0
  140.3830   77.0450  222.1400 C   0  0  0  0  0  0  0  0  0  0  0  0
  141.4110   77.1260  221.2290 C   0  0  0  0  0  0  0  0  0  0  0  0
  142.0180   78.3280  220.8070 N   0  0  0  0  0  0  0  0  0  0  0  0
  141.8310   79.6040  221.3800 C   0  0  0  0  0  0  0  0  0  0  0  0
  142.0800   79.9170  222.6960 C   0  0  0  0  0  0  0  0  0  0  0  0
  141.8990   81.1850  223.2140 C   0  0  0  0  0  0  0  0  0  0  0  0
  141.4470   82.1830  222.3810 C   0  0  0  0  0  0  0  0  0  0  0  0
  141.1820   81.9220  221.0570 C   0  0  0  0  0  0  0  0  0  0  0  0
  141.3740   80.6420  220.5640 C   0  0  0  0  0  0  0  0  0  0  0  0
  141.8450   75.9090  220.6950 C   0  0  0  0  0  0  0  0  0  0  0  0
  141.2810   74.7050  221.0530 C   0  0  0  0  0  0  0  0  0  0  0  0
  140.7688   71.6455  219.9297 H   0  0  0  0  0  0  0  0  0  0  0  0
  141.9589   71.4784  221.2578 H   0  0  0  0  0  0  0  0  0  0  0  0
  138.1327   71.0111  220.5390 H   0  0  0  0  0  0  0  0  0  0  0  0
  136.9190   68.9869  221.2630 H   0  0  0  0  0  0  0  0  0  0  0  0
  137.4933   67.9441  223.4189 H   0  0  0  0  0  0  0  0  0  0  0  0
  139.0443   68.6127  228.3637 H   0  0  0  0  0  0  0  0  0  0  0  0
  139.6520   67.3314  227.3000 H   0  0  0  0  0  0  0  0  0  0  0  0
  141.2702   68.3488  229.0831 H   0  0  0  0  0  0  0  0  0  0  0  0
  141.8637   68.1579  227.3668 H   0  0  0  0  0  0  0  0  0  0  0  0
  139.7978   70.7476  228.8129 H   0  0  0  0  0  0  0  0  0  0  0  0
  140.8377   71.9214  227.9056 H   0  0  0  0  0  0  0  0  0  0  0  0
  138.5822   71.0798  226.8278 H   0  0  0  0  0  0  0  0  0  0  0  0
  140.0472   71.2110  225.8172 H   0  0  0  0  0  0  0  0  0  0  0  0
  140.4840   70.9300  224.1381 H   0  0  0  0  0  0  0  0  0  0  0  0
  138.9737   75.8432  223.2548 H   0  0  0  0  0  0  0  0  0  0  0  0
  140.0099   77.9777  222.5883 H   0  0  0  0  0  0  0  0  0  0  0  0
  142.6710   78.2570  219.9790 H   0  0  0  0  0  0  0  0  0  0  0  0
  142.4394   79.1221  223.3661 H   0  0  0  0  0  0  0  0  0  0  0  0
  142.1123   81.3931  224.2729 H   0  0  0  0  0  0  0  0  0  0  0  0
  141.2965   83.1979  222.7776 H   0  0  0  0  0  0  0  0  0  0  0  0
  140.8207   82.7229  220.3952 H   0  0  0  0  0  0  0  0  0  0  0  0
  141.1615   80.4377  219.5042 H   0  0  0  0  0  0  0  0  0  0  0  0
  142.6661   75.9135  219.9630 H   0  0  0  0  0  0  0  0  0  0  0  0
  1  2  2  0
  2  3  1  0
  3  4  1  0
  4  5  1  0
  5  6  2  0
  6  7  1  0
  7  8  2  0
  8  9  1  0
  9 10  1  0
 10 11  2  0
 10 12  1  0
 12 13  1  0
 13 14  1  0
 14 15  1  0
 15 16  1  0
 16 17  1  0
  9 18  2  0
  4 19  2  0
 19 20  1  0
 20 21  2  0
 21 22  1  0
 22 23  2  0
 23 24  1  0
 24 25  1  0
 25 26  2  0
 26 27  1  0
 27 28  2  0
 28 29  1  0
 29 30  2  0
 23 31  1  0
 31 32  2  0
 32  2  1  0
 18  5  1  0
 32 20  1  0
 17 12  1  0
 30 25  1  0
  3 33  1  0
  3 34  1  0
  6 35  1  0
  7 36  1  0
  8 37  1  0
 13 38  1  0
 13 39  1  0
 14 40  1  0
 14 41  1  0
 16 42  1  0
 16 43  1  0
 17 44  1  0
 17 45  1  0
 18 46  1  0
 21 47  1  0
 22 48  1  0
 24 49  1  0
 26 50  1  0
 27 51  1  0
 28 52  1  0
 29 53  1  0
 30 54  1  0
 31 55  1  0
M  END
>  <smiles>  (15) 
O=C1CC(c2cccc(C(=O)N3CCOCC3)c2)=Nc2ccc(Nc3ccccc3)cc21

>  <score_type>  (15) 
oracle

>  <origin>  (15) 
autodockgpu

>  <m_score__min__energy>  (15) 
-9.6899999999999995

>  <m_primary>  (15) 
energy

>  <rmsd>  (15) 
6.639913748247772

>  <m_score__min__rmsd>  (15) 
6.639913748247772

>  <meeko>  (15) 
{"free_energy": -8.85, "intermolecular_energy": -10.04, "internal_energy": -0.96, "cluster_size": 32, "cluster_id": 1, "rank_in_cluster": 25}

>  <energy>  (15) 
-9.37

>  <cluster_rmsd>  (15) 
0.35

>  <cluster>  (15) 
1

$$$$

     RDKit          3D

 55 59  0  0  0  0  0  0  0  0999 V2000
  143.8100   72.3060  220.5930 O   0  0  0  0  0  0  0  0  0  0  0  0
  142.9460   73.2420  220.5700 C   0  0  0  0  0  0  0  0  0  0  0  0
  143.2820   74.4590  219.8030 C   0  0  0  0  0  0  0  0  0  0  0  0
  142.1600   75.4110  219.9090 C   0  0  0  0  0  0  0  0  0  0  0  0
  142.2940   76.6980  219.2170 C   0  0  0  0  0  0  0  0  0  0  0  0
  142.8140   76.7230  217.9160 C   0  0  0  0  0  0  0  0  0  0  0  0
  142.9540   77.8970  217.2270 C   0  0  0  0  0  0  0  0  0  0  0  0
  142.5750   79.0630  217.8350 C   0  0  0  0  0  0  0  0  0  0  0  0
  142.0490   79.0900  219.1340 C   0  0  0  0  0  0  0  0  0  0  0  0
  141.6890   80.3800  219.6580 C   0  0  0  0  0  0  0  0  0  0  0  0
  141.2540   81.2420  218.8290 O   0  0  0  0  0  0  0  0  0  0  0  0
  141.7710   80.7870  221.0040 N   0  0  0  0  0  0  0  0  0  0  0  0
  141.3540   82.1450  221.3580 C   0  0  0  0  0  0  0  0  0  0  0  0
  140.1930   81.9910  222.3160 C   0  0  0  0  0  0  0  0  0  0  0  0
  140.3560   80.9680  223.2050 O   0  0  0  0  0  0  0  0  0  0  0  0
  141.6510   80.5220  223.3910 C   0  0  0  0  0  0  0  0  0  0  0  0
  142.2410   79.9640  222.0990 C   0  0  0  0  0  0  0  0  0  0  0  0
  141.9210   77.8940  219.8020 C   0  0  0  0  0  0  0  0  0  0  0  0
  141.0720   75.2190  220.5560 N   0  0  0  0  0  0  0  0  0  0  0  0
  140.7670   74.0410  221.2860 C   0  0  0  0  0  0  0  0  0  0  0  0
  139.5820   73.8910  221.9620 C   0  0  0  0  0  0  0  0  0  0  0  0
  139.3560   72.7140  222.6520 C   0  0  0  0  0  0  0  0  0  0  0  0
  140.2600   71.6770  222.7010 C   0  0  0  0  0  0  0  0  0  0  0  0
  140.0660   70.4740  223.4130 N   0  0  0  0  0  0  0  0  0  0  0  0
  140.1860   70.3010  224.8080 C   0  0  0  0  0  0  0  0  0  0  0  0
  139.8860   69.1410  225.4830 C   0  0  0  0  0  0  0  0  0  0  0  0
  140.0320   69.0080  226.8500 C   0  0  0  0  0  0  0  0  0  0  0  0
  140.4970   70.0810  227.5750 C   0  0  0  0  0  0  0  0  0  0  0  0
  140.8110   71.2640  226.9480 C   0  0  0  0  0  0  0  0  0  0  0  0
  140.6550   71.3700  225.5760 C   0  0  0  0  0  0  0  0  0  0  0  0
  141.4510   71.8780  221.9970 C   0  0  0  0  0  0  0  0  0  0  0  0
  141.7080   73.0360  221.2990 C   0  0  0  0  0  0  0  0  0  0  0  0
  144.1945   74.9153  220.2142 H   0  0  0  0  0  0  0  0  0  0  0  0
  143.4553   74.2006  218.7479 H   0  0  0  0  0  0  0  0  0  0  0  0
  143.1160   75.7791  217.4386 H   0  0  0  0  0  0  0  0  0  0  0  0
  143.3626   77.9034  216.2057 H   0  0  0  0  0  0  0  0  0  0  0  0
  142.6868   80.0099  217.2864 H   0  0  0  0  0  0  0  0  0  0  0  0
  142.1809   82.6839  221.8437 H   0  0  0  0  0  0  0  0  0  0  0  0
  141.0660   82.7221  220.4670 H   0  0  0  0  0  0  0  0  0  0  0  0
  140.0796   82.9285  222.8801 H   0  0  0  0  0  0  0  0  0  0  0  0
  139.3029   81.7586  221.7129 H   0  0  0  0  0  0  0  0  0  0  0  0
  142.2726   81.3621  223.7343 H   0  0  0  0  0  0  0  0  0  0  0  0
  141.6344   79.7160  224.1394 H   0  0  0  0  0  0  0  0  0  0  0  0
  143.3396   79.9954  222.1455 H   0  0  0  0  0  0  0  0  0  0  0  0
  141.9289   78.9191  221.9548 H   0  0  0  0  0  0  0  0  0  0  0  0
  141.5131   77.8892  220.8236 H   0  0  0  0  0  0  0  0  0  0  0  0
  138.8271   74.6910  221.9551 H   0  0  0  0  0  0  0  0  0  0  0  0
  138.4034   72.6004  223.1902 H   0  0  0  0  0  0  0  0  0  0  0  0
  139.8090   69.6260  222.8370 H   0  0  0  0  0  0  0  0  0  0  0  0
  139.5130   68.2804  224.9084 H   0  0  0  0  0  0  0  0  0  0  0  0
  139.7810   68.0610  227.3502 H   0  0  0  0  0  0  0  0  0  0  0  0
  140.6185   69.9919  228.6646 H   0  0  0  0  0  0  0  0  0  0  0  0
  141.1830   72.1191  227.5315 H   0  0  0  0  0  0  0  0  0  0  0  0
  140.9063   72.3185  225.0789 H   0  0  0  0  0  0  0  0  0  0  0  0
  142.2101   71.0819  222.0011 H   0  0  0  0  0  0  0  0  0  0  0  0
  1  2  2  0
  2  3  1  0
  3  4  1  0
  4  5  1  0
  5  6  2  0
  6  7  1  0
  7  8  2  0
  8  9  1  0
  9 10  1  0
 10 11  2  0
 10 12  1  0
 12 13  1  0
 13 14  1  0
 14 15  1  0
 15 16  1  0
 16 17  1  0
  9 18  2  0
  4 19  2  0
 19 20  1  0
 20 21  2  0
 21 22  1  0
 22 23  2  0
 23 24  1  0
 24 25  1  0
 25 26  2  0
 26 27  1  0
 27 28  2  0
 28 29  1  0
 29 30  2  0
 23 31  1  0
 31 32  2  0
 32  2  1  0
 18  5  1  0
 32 20  1  0
 17 12  1  0
 30 25  1  0
  3 33  1  0
  3 34  1  0
  6 35  1  0
  7 36  1  0
  8 37  1  0
 13 38  1  0
 13 39  1  0
 14 40  1  0
 14 41  1  0
 16 42  1  0
 16 43  1  0
 17 44  1  0
 17 45  1  0
 18 46  1  0
 21 47  1  0
 22 48  1  0
 24 49  1  0
 26 50  1  0
 27 51  1  0
 28 52  1  0
 29 53  1  0
 30 54  1  0
 31 55  1  0
M  END
>  <smiles>  (16) 
O=C1CC(c2cccc(C(=O)N3CCOCC3)c2)=Nc2ccc(Nc3ccccc3)cc21

>  <score_type>  (16) 
oracle

>  <origin>  (16) 
autodockgpu

>  <m_score__min__energy>  (16) 
-9.6899999999999995

>  <m_primary>  (16) 
energy

>  <rmsd>  (16) 
9.510757765597102

>  <m_score__min__rmsd>  (16) 
9.510757765597102

>  <meeko>  (16) 
{"free_energy": -8.41, "intermolecular_energy": -9.6, "internal_energy": -0.98, "cluster_size": 15, "cluster_id": 3, "rank_in_cluster": 7}

>  <energy>  (16) 
-9.25

>  <cluster_rmsd>  (16) 
0.56

>  <cluster>  (16) 
1

$$$$

     RDKit          3D

 55 59  0  0  0  0  0  0  0  0999 V2000
  143.8340   72.3290  220.7980 O   0  0  0  0  0  0  0  0  0  0  0  0
  142.9530   73.2460  220.7200 C   0  0  0  0  0  0  0  0  0  0  0  0
  143.3000   74.4580  219.9500 C   0  0  0  0  0  0  0  0  0  0  0  0
  142.1550   75.3880  219.9880 C   0  0  0  0  0  0  0  0  0  0  0  0
  142.2950   76.6660  219.2820 C   0  0  0  0  0  0  0  0  0  0  0  0
  142.8080   76.6750  217.9780 C   0  0  0  0  0  0  0  0  0  0  0  0
  142.9540   77.8410  217.2760 C   0  0  0  0  0  0  0  0  0  0  0  0
  142.5860   79.0160  217.8760 C   0  0  0  0  0  0  0  0  0  0  0  0
  142.0690   79.0590  219.1770 C   0  0  0  0  0  0  0  0  0  0  0  0
  141.7210   80.3570  219.6900 C   0  0  0  0  0  0  0  0  0  0  0  0
  141.2750   81.2100  218.8570 O   0  0  0  0  0  0  0  0  0  0  0  0
  141.8270   80.7820  221.0290 N   0  0  0  0  0  0  0  0  0  0  0  0
  141.4200   82.1450  221.3720 C   0  0  0  0  0  0  0  0  0  0  0  0
  140.2750   82.0080  222.3510 C   0  0  0  0  0  0  0  0  0  0  0  0
  140.4490   80.9950  223.2510 O   0  0  0  0  0  0  0  0  0  0  0  0
  141.7460   80.5470  223.4210 C   0  0  0  0  0  0  0  0  0  0  0  0
  142.3130   79.9710  222.1260 C   0  0  0  0  0  0  0  0  0  0  0  0
  141.9340   77.8720  219.8570 C   0  0  0  0  0  0  0  0  0  0  0  0
  141.0410   75.1820  220.5860 N   0  0  0  0  0  0  0  0  0  0  0  0
  140.7270   74.0080  221.3190 C   0  0  0  0  0  0  0  0  0  0  0  0
  139.5140   73.8440  221.9410 C   0  0  0  0  0  0  0  0  0  0  0  0
  139.2800   72.6730  222.6380 C   0  0  0  0  0  0  0  0  0  0  0  0
  140.2020   71.6560  222.7470 C   0  0  0  0  0  0  0  0  0  0  0  0
  139.9990   70.4600  223.4670 N   0  0  0  0  0  0  0  0  0  0  0  0
  140.1970   70.2770  224.8520 C   0  0  0  0  0  0  0  0  0  0  0  0
  139.9470   69.1070  225.5320 C   0  0  0  0  0  0  0  0  0  0  0  0
  140.1700   68.9640  226.8880 C   0  0  0  0  0  0  0  0  0  0  0  0
  140.6620   70.0370  227.5960 C   0  0  0  0  0  0  0  0  0  0  0  0
  140.9280   71.2290  226.9630 C   0  0  0  0  0  0  0  0  0  0  0  0
  140.6960   71.3440  225.6030 C   0  0  0  0  0  0  0  0  0  0  0  0
  141.4210   71.8710  222.0960 C   0  0  0  0  0  0  0  0  0  0  0  0
  141.6860   73.0250  221.3930 C   0  0  0  0  0  0  0  0  0  0  0  0
  144.1827   74.9396  220.3960 H   0  0  0  0  0  0  0  0  0  0  0  0
  143.5279   74.1873  218.9085 H   0  0  0  0  0  0  0  0  0  0  0  0
  143.0998   75.7241  217.5082 H   0  0  0  0  0  0  0  0  0  0  0  0
  143.3578   77.8345  216.2528 H   0  0  0  0  0  0  0  0  0  0  0  0
  142.7003   79.9569  217.3177 H   0  0  0  0  0  0  0  0  0  0  0  0
  142.2565   82.6875  221.8366 H   0  0  0  0  0  0  0  0  0  0  0  0
  141.1185   82.7109  220.4782 H   0  0  0  0  0  0  0  0  0  0  0  0
  140.1748   82.9531  222.9048 H   0  0  0  0  0  0  0  0  0  0  0  0
  139.3740   81.7714  221.7660 H   0  0  0  0  0  0  0  0  0  0  0  0
  142.3758   81.3893  223.7435 H   0  0  0  0  0  0  0  0  0  0  0  0
  141.7394   79.7503  224.1794 H   0  0  0  0  0  0  0  0  0  0  0  0
  143.4123   79.9996  222.1538 H   0  0  0  0  0  0  0  0  0  0  0  0
  141.9957   78.9253  222.0000 H   0  0  0  0  0  0  0  0  0  0  0  0
  141.5304   77.8809  220.8802 H   0  0  0  0  0  0  0  0  0  0  0  0
  138.7443   74.6279  221.8860 H   0  0  0  0  0  0  0  0  0  0  0  0
  138.3052   72.5471  223.1319 H   0  0  0  0  0  0  0  0  0  0  0  0
  139.6700   69.6270  222.9080 H   0  0  0  0  0  0  0  0  0  0  0  0
  139.5520   68.2473  224.9709 H   0  0  0  0  0  0  0  0  0  0  0  0
  139.9582   68.0098  227.3927 H   0  0  0  0  0  0  0  0  0  0  0  0
  140.8439   69.9405  228.6765 H   0  0  0  0  0  0  0  0  0  0  0  0
  141.3217   72.0837  227.5327 H   0  0  0  0  0  0  0  0  0  0  0  0
  140.9099   72.2993  225.1013 H   0  0  0  0  0  0  0  0  0  0  0  0
  142.1950   71.0911  222.1473 H   0  0  0  0  0  0  0  0  0  0  0  0
  1  2  2  0
  2  3  1  0
  3  4  1  0
  4  5  1  0
  5  6  2  0
  6  7  1  0
  7  8  2  0
  8  9  1  0
  9 10  1  0
 10 11  2  0
 10 12  1  0
 12 13  1  0
 13 14  1  0
 14 15  1  0
 15 16  1  0
 16 17  1  0
  9 18  2  0
  4 19  2  0
 19 20  1  0
 20 21  2  0
 21 22  1  0
 22 23  2  0
 23 24  1  0
 24 25  1  0
 25 26  2  0
 26 27  1  0
 27 28  2  0
 28 29  1  0
 29 30  2  0
 23 31  1  0
 31 32  2  0
 32  2  1  0
 18  5  1  0
 32 20  1  0
 17 12  1  0
 30 25  1  0
  3 33  1  0
  3 34  1  0
  6 35  1  0
  7 36  1  0
  8 37  1  0
 13 38  1  0
 13 39  1  0
 14 40  1  0
 14 41  1  0
 16 42  1  0
 16 43  1  0
 17 44  1  0
 17 45  1  0
 18 46  1  0
 21 47  1  0
 22 48  1  0
 24 49  1  0
 26 50  1  0
 27 51  1  0
 28 52  1  0
 29 53  1  0
 30 54  1  0
 31 55  1  0
M  END
>  <smiles>  (17) 
O=C1CC(c2cccc(C(=O)N3CCOCC3)c2)=Nc2ccc(Nc3ccccc3)cc21

>  <score_type>  (17) 
oracle

>  <origin>  (17) 
autodockgpu

>  <m_score__min__energy>  (17) 
-9.6899999999999995

>  <m_primary>  (17) 
energy

>  <rmsd>  (17) 
9.542206128221176

>  <m_score__min__rmsd>  (17) 
9.542206128221176

>  <meeko>  (17) 
{"free_energy": -8.41, "intermolecular_energy": -9.6, "internal_energy": -0.99, "cluster_size": 15, "cluster_id": 3, "rank_in_cluster": 8}

>  <energy>  (17) 
-9.24

>  <cluster_rmsd>  (17) 
0.45

>  <cluster>  (17) 
1

$$$$

     RDKit          3D

 55 59  0  0  0  0  0  0  0  0999 V2000
  136.6620   75.2680  221.8650 O   0  0  0  0  0  0  0  0  0  0  0  0
  137.7290   74.5780  221.9500 C   0  0  0  0  0  0  0  0  0  0  0  0
  137.5860   73.1400  222.2570 C   0  0  0  0  0  0  0  0  0  0  0  0
  138.9290   72.5320  222.3150 C   0  0  0  0  0  0  0  0  0  0  0  0
  139.0120   71.0980  222.6150 C   0  0  0  0  0  0  0  0  0  0  0  0
  139.0190   70.1780  221.5580 C   0  0  0  0  0  0  0  0  0  0  0  0
  139.1000   68.8310  221.7860 C   0  0  0  0  0  0  0  0  0  0  0  0
  139.1740   68.3890  223.0800 C   0  0  0  0  0  0  0  0  0  0  0  0
  139.1700   69.2690  224.1700 C   0  0  0  0  0  0  0  0  0  0  0  0
  139.2530   68.6760  225.4780 C   0  0  0  0  0  0  0  0  0  0  0  0
  138.9820   67.4360  225.5720 O   0  0  0  0  0  0  0  0  0  0  0  0
  139.6060   69.3340  226.6720 N   0  0  0  0  0  0  0  0  0  0  0  0
  139.6440   68.5670  227.9180 C   0  0  0  0  0  0  0  0  0  0  0  0
  141.0730   68.6300  228.4080 C   0  0  0  0  0  0  0  0  0  0  0  0
  141.6540   69.8530  228.2270 O   0  0  0  0  0  0  0  0  0  0  0  0
  140.7910   70.9170  228.0410 C   0  0  0  0  0  0  0  0  0  0  0  0
  139.9450   70.7380  226.7840 C   0  0  0  0  0  0  0  0  0  0  0  0
  139.0880   70.6170  223.9100 C   0  0  0  0  0  0  0  0  0  0  0  0
  140.0380   73.1440  222.1290 N   0  0  0  0  0  0  0  0  0  0  0  0
  140.1540   74.5270  221.8330 C   0  0  0  0  0  0  0  0  0  0  0  0
  141.3730   75.1300  221.6430 C   0  0  0  0  0  0  0  0  0  0  0  0
  141.4070   76.4820  221.3590 C   0  0  0  0  0  0  0  0  0  0  0  0
  140.2790   77.2650  221.2550 C   0  0  0  0  0  0  0  0  0  0  0  0
  140.2840   78.6500  220.9860 N   0  0  0  0  0  0  0  0  0  0  0  0
  140.9130   79.6480  221.7590 C   0  0  0  0  0  0  0  0  0  0  0  0
  141.0740   80.9580  221.3690 C   0  0  0  0  0  0  0  0  0  0  0  0
  141.6840   81.9090  222.1640 C   0  0  0  0  0  0  0  0  0  0  0  0
  142.1550   81.5360  223.4010 C   0  0  0  0  0  0  0  0  0  0  0  0
  142.0200   80.2390  223.8390 C   0  0  0  0  0  0  0  0  0  0  0  0
  141.4040   79.3060  223.0210 C   0  0  0  0  0  0  0  0  0  0  0  0
  139.0630   76.6050  221.4560 C   0  0  0  0  0  0  0  0  0  0  0  0
  138.9930   75.2600  221.7410 C   0  0  0  0  0  0  0  0  0  0  0  0
  137.0820   73.0171  223.2270 H   0  0  0  0  0  0  0  0  0  0  0  0
  136.9858   72.6485  221.4771 H   0  0  0  0  0  0  0  0  0  0  0  0
  138.9581   70.5462  220.5233 H   0  0  0  0  0  0  0  0  0  0  0  0
  139.1056   68.1187  220.9478 H   0  0  0  0  0  0  0  0  0  0  0  0
  139.2387   67.3074  223.2698 H   0  0  0  0  0  0  0  0  0  0  0  0
  138.9660   69.0125  228.6609 H   0  0  0  0  0  0  0  0  0  0  0  0
  139.3198   67.5279  227.7594 H   0  0  0  0  0  0  0  0  0  0  0  0
  141.0842   68.3940  229.4823 H   0  0  0  0  0  0  0  0  0  0  0  0
  141.6516   67.9044  227.8175 H   0  0  0  0  0  0  0  0  0  0  0  0
  140.1243   70.9930  228.9126 H   0  0  0  0  0  0  0  0  0  0  0  0
  141.3909   71.8318  227.9257 H   0  0  0  0  0  0  0  0  0  0  0  0
  139.0271   71.3391  226.8625 H   0  0  0  0  0  0  0  0  0  0  0  0
  140.5031   71.0696  225.8960 H   0  0  0  0  0  0  0  0  0  0  0  0
  139.0827   71.3278  224.7495 H   0  0  0  0  0  0  0  0  0  0  0  0
  142.3039   74.5484  221.7154 H   0  0  0  0  0  0  0  0  0  0  0  0
  142.3871   76.9580  221.2080 H   0  0  0  0  0  0  0  0  0  0  0  0
  139.7610   78.9600  220.1220 H   0  0  0  0  0  0  0  0  0  0  0  0
  140.7002   81.2614  220.3799 H   0  0  0  0  0  0  0  0  0  0  0  0
  141.7911   82.9462  221.8137 H   0  0  0  0  0  0  0  0  0  0  0  0
  142.6439   82.2812  224.0457 H   0  0  0  0  0  0  0  0  0  0  0  0
  142.3977   79.9454  224.8296 H   0  0  0  0  0  0  0  0  0  0  0  0
  141.2989   78.2696  223.3743 H   0  0  0  0  0  0  0  0  0  0  0  0
  138.1287   77.1811  221.3838 H   0  0  0  0  0  0  0  0  0  0  0  0
  1  2  2  0
  2  3  1  0
  3  4  1  0
  4  5  1  0
  5  6  2  0
  6  7  1  0
  7  8  2  0
  8  9  1  0
  9 10  1  0
 10 11  2  0
 10 12  1  0
 12 13  1  0
 13 14  1  0
 14 15  1  0
 15 16  1  0
 16 17  1  0
  9 18  2  0
  4 19  2  0
 19 20  1  0
 20 21  2  0
 21 22  1  0
 22 23  2  0
 23 24  1  0
 24 25  1  0
 25 26  2  0
 26 27  1  0
 27 28  2  0
 28 29  1  0
 29 30  2  0
 23 31  1  0
 31 32  2  0
 32  2  1  0
 18  5  1  0
 32 20  1  0
 17 12  1  0
 30 25  1  0
  3 33  1  0
  3 34  1  0
  6 35  1  0
  7 36  1  0
  8 37  1  0
 13 38  1  0
 13 39  1  0
 14 40  1  0
 14 41  1  0
 16 42  1  0
 16 43  1  0
 17 44  1  0
 17 45  1  0
 18 46  1  0
 21 47  1  0
 22 48  1  0
 24 49  1  0
 26 50  1  0
 27 51  1  0
 28 52  1  0
 29 53  1  0
 30 54  1  0
 31 55  1  0
M  END
>  <smiles>  (18) 
O=C1CC(c2cccc(C(=O)N3CCOCC3)c2)=Nc2ccc(Nc3ccccc3)cc21

>  <score_type>  (18) 
oracle

>  <origin>  (18) 
autodockgpu

>  <m_score__min__energy>  (18) 
-9.6899999999999995

>  <m_primary>  (18) 
energy

>  <rmsd>  (18) 
6.733247771075539

>  <m_score__min__rmsd>  (18) 
6.733247771075539

>  <meeko>  (18) 
{"free_energy": -8.59, "intermolecular_energy": -9.79, "internal_energy": -0.88, "cluster_size": 32, "cluster_id": 1, "rank_in_cluster": 29}

>  <energy>  (18) 
-9.15

>  <cluster_rmsd>  (18) 
0.35

>  <cluster>  (18) 
1

$$$$

     RDKit          3D

 55 59  0  0  0  0  0  0  0  0999 V2000
  143.1840   73.4290  220.1080 O   0  0  0  0  0  0  0  0  0  0  0  0
  142.1280   73.3370  220.8150 C   0  0  0  0  0  0  0  0  0  0  0  0
  141.6640   71.9820  221.1730 C   0  0  0  0  0  0  0  0  0  0  0  0
  140.4350   72.0980  221.9800 C   0  0  0  0  0  0  0  0  0  0  0  0
  139.8040   70.8560  222.4390 C   0  0  0  0  0  0  0  0  0  0  0  0
  139.0960   70.0690  221.5200 C   0  0  0  0  0  0  0  0  0  0  0  0
  138.4940   68.9000  221.8980 C   0  0  0  0  0  0  0  0  0  0  0  0
  138.5930   68.5040  223.2050 C   0  0  0  0  0  0  0  0  0  0  0  0
  139.2900   69.2560  224.1600 C   0  0  0  0  0  0  0  0  0  0  0  0
  139.3200   68.7290  225.4980 C   0  0  0  0  0  0  0  0  0  0  0  0
  139.0470   67.4950  225.6430 O   0  0  0  0  0  0  0  0  0  0  0  0
  139.6220   69.4470  226.6720 N   0  0  0  0  0  0  0  0  0  0  0  0
  139.6090   68.7430  227.9550 C   0  0  0  0  0  0  0  0  0  0  0  0
  141.0170   68.8360  228.5000 C   0  0  0  0  0  0  0  0  0  0  0  0
  141.6030   70.0500  228.2820 O   0  0  0  0  0  0  0  0  0  0  0  0
  140.7470   71.1000  228.0080 C   0  0  0  0  0  0  0  0  0  0  0  0
  139.9540   70.8560  226.7270 C   0  0  0  0  0  0  0  0  0  0  0  0
  139.8840   70.4270  223.7510 C   0  0  0  0  0  0  0  0  0  0  0  0
  139.8620   73.1930  222.3200 N   0  0  0  0  0  0  0  0  0  0  0  0
  140.3260   74.4860  221.9680 C   0  0  0  0  0  0  0  0  0  0  0  0
  139.6680   75.6260  222.3610 C   0  0  0  0  0  0  0  0  0  0  0  0
  140.1790   76.8520  221.9780 C   0  0  0  0  0  0  0  0  0  0  0  0
  141.3180   76.9960  221.2180 C   0  0  0  0  0  0  0  0  0  0  0  0
  141.8510   78.2320  220.7960 N   0  0  0  0  0  0  0  0  0  0  0  0
  141.8190   79.4450  221.5160 C   0  0  0  0  0  0  0  0  0  0  0  0
  141.2830   80.6220  221.0480 C   0  0  0  0  0  0  0  0  0  0  0  0
  141.2570   81.7850  221.7920 C   0  0  0  0  0  0  0  0  0  0  0  0
  141.7920   81.7730  223.0600 C   0  0  0  0  0  0  0  0  0  0  0  0
  142.3410   80.6210  223.5760 C   0  0  0  0  0  0  0  0  0  0  0  0
  142.3530   79.4690  222.8070 C   0  0  0  0  0  0  0  0  0  0  0  0
  141.9510   75.8070  220.8430 C   0  0  0  0  0  0  0  0  0  0  0  0
  141.4690   74.5700  221.2070 C   0  0  0  0  0  0  0  0  0  0  0  0
  141.4525   71.4098  220.2576 H   0  0  0  0  0  0  0  0  0  0  0  0
  142.4421   71.4609  221.7501 H   0  0  0  0  0  0  0  0  0  0  0  0
  139.0229   70.3983  220.4730 H   0  0  0  0  0  0  0  0  0  0  0  0
  137.9419   68.2909  221.1671 H   0  0  0  0  0  0  0  0  0  0  0  0
  138.1100   67.5656  223.5151 H   0  0  0  0  0  0  0  0  0  0  0  0
  138.8999   69.2222  228.6460 H   0  0  0  0  0  0  0  0  0  0  0  0
  139.2932   67.6961  227.8353 H   0  0  0  0  0  0  0  0  0  0  0  0
  140.9840   68.6542  229.5844 H   0  0  0  0  0  0  0  0  0  0  0  0
  141.6207   68.0839  227.9710 H   0  0  0  0  0  0  0  0  0  0  0  0
  140.0445   71.2165  228.8464 H   0  0  0  0  0  0  0  0  0  0  0  0
  141.3498   72.0101  227.8725 H   0  0  0  0  0  0  0  0  0  0  0  0
  139.0329   71.4572  226.7372 H   0  0  0  0  0  0  0  0  0  0  0  0
  140.5477   71.1450  225.8472 H   0  0  0  0  0  0  0  0  0  0  0  0
  140.4347   71.0355  224.4835 H   0  0  0  0  0  0  0  0  0  0  0  0
  138.7529   75.5645  222.9682 H   0  0  0  0  0  0  0  0  0  0  0  0
  139.6475   77.7606  222.2973 H   0  0  0  0  0  0  0  0  0  0  0  0
  142.3160   78.2420  219.8460 H   0  0  0  0  0  0  0  0  0  0  0  0
  140.8555   80.6376  220.0346 H   0  0  0  0  0  0  0  0  0  0  0  0
  140.8167   82.7044  221.3787 H   0  0  0  0  0  0  0  0  0  0  0  0
  141.7808   82.6911  223.6658 H   0  0  0  0  0  0  0  0  0  0  0  0
  142.7665   80.6153  224.5903 H   0  0  0  0  0  0  0  0  0  0  0  0
  142.7936   78.5508  223.2227 H   0  0  0  0  0  0  0  0  0  0  0  0
  142.8665   75.8620  220.2357 H   0  0  0  0  0  0  0  0  0  0  0  0
  1  2  2  0
  2  3  1  0
  3  4  1  0
  4  5  1  0
  5  6  2  0
  6  7  1  0
  7  8  2  0
  8  9  1  0
  9 10  1  0
 10 11  2  0
 10 12  1  0
 12 13  1  0
 13 14  1  0
 14 15  1  0
 15 16  1  0
 16 17  1  0
  9 18  2  0
  4 19  2  0
 19 20  1  0
 20 21  2  0
 21 22  1  0
 22 23  2  0
 23 24  1  0
 24 25  1  0
 25 26  2  0
 26 27  1  0
 27 28  2  0
 28 29  1  0
 29 30  2  0
 23 31  1  0
 31 32  2  0
 32  2  1  0
 18  5  1  0
 32 20  1  0
 17 12  1  0
 30 25  1  0
  3 33  1  0
  3 34  1  0
  6 35  1  0
  7 36  1  0
  8 37  1  0
 13 38  1  0
 13 39  1  0
 14 40  1  0
 14 41  1  0
 16 42  1  0
 16 43  1  0
 17 44  1  0
 17 45  1  0
 18 46  1  0
 21 47  1  0
 22 48  1  0
 24 49  1  0
 26 50  1  0
 27 51  1  0
 28 52  1  0
 29 53  1  0
 30 54  1  0
 31 55  1  0
M  END
>  <smiles>  (19) 
O=C1CC(c2cccc(C(=O)N3CCOCC3)c2)=Nc2ccc(Nc3ccccc3)cc21

>  <score_type>  (19) 
oracle

>  <origin>  (19) 
autodockgpu

>  <m_score__min__energy>  (19) 
-9.6899999999999995

>  <m_primary>  (19) 
energy

>  <rmsd>  (19) 
6.710275577280464

>  <m_score__min__rmsd>  (19) 
6.710275577280464

>  <meeko>  (19) 
{"free_energy": -9.54, "intermolecular_energy": -10.73, "internal_energy": -0.91, "cluster_size": 32, "cluster_id": 1, "rank_in_cluster": 6}

>  <energy>  (19) 
-9.15

>  <cluster_rmsd>  (19) 
0.38

>  <cluster>  (19) 
1

$$$$

     RDKit          3D

 55 59  0  0  0  0  0  0  0  0999 V2000
  143.1990   73.7010  220.3370 O   0  0  0  0  0  0  0  0  0  0  0  0
  142.1000   73.5420  220.9620 C   0  0  0  0  0  0  0  0  0  0  0  0
  141.6940   72.1580  221.2820 C   0  0  0  0  0  0  0  0  0  0  0  0
  140.4030   72.1950  221.9950 C   0  0  0  0  0  0  0  0  0  0  0  0
  139.8160   70.9140  222.4030 C   0  0  0  0  0  0  0  0  0  0  0  0
  139.1430   70.1370  221.4520 C   0  0  0  0  0  0  0  0  0  0  0  0
  138.5830   68.9320  221.7830 C   0  0  0  0  0  0  0  0  0  0  0  0
  138.6910   68.4920  223.0750 C   0  0  0  0  0  0  0  0  0  0  0  0
  139.3550   69.2330  224.0610 C   0  0  0  0  0  0  0  0  0  0  0  0
  139.3980   68.6580  225.3790 C   0  0  0  0  0  0  0  0  0  0  0  0
  139.1780   67.4090  225.4750 O   0  0  0  0  0  0  0  0  0  0  0  0
  139.6610   69.3440  226.5810 N   0  0  0  0  0  0  0  0  0  0  0  0
  139.6690   68.5930  227.8370 C   0  0  0  0  0  0  0  0  0  0  0  0
  141.0680   68.7260  228.3970 C   0  0  0  0  0  0  0  0  0  0  0  0
  141.6030   69.9720  228.2290 O   0  0  0  0  0  0  0  0  0  0  0  0
  140.7030   70.9930  227.9870 C   0  0  0  0  0  0  0  0  0  0  0  0
  139.9310   70.7630  226.6920 C   0  0  0  0  0  0  0  0  0  0  0  0
  139.9070   70.4400  223.7000 C   0  0  0  0  0  0  0  0  0  0  0  0
  139.7400   73.2510  222.2910 N   0  0  0  0  0  0  0  0  0  0  0  0
  140.1490   74.5720  221.9760 C   0  0  0  0  0  0  0  0  0  0  0  0
  139.3950   75.6670  222.3200 C   0  0  0  0  0  0  0  0  0  0  0  0
  139.8580   76.9240  221.9770 C   0  0  0  0  0  0  0  0  0  0  0  0
  141.0390   77.1420  221.3050 C   0  0  0  0  0  0  0  0  0  0  0  0
  141.5260   78.4110  220.9260 N   0  0  0  0  0  0  0  0  0  0  0  0
  141.7380   79.5130  221.7800 C   0  0  0  0  0  0  0  0  0  0  0  0
  141.3220   80.7990  221.5210 C   0  0  0  0  0  0  0  0  0  0  0  0
  141.5360   81.8480  222.3930 C   0  0  0  0  0  0  0  0  0  0  0  0
  142.1970   81.6040  223.5750 C   0  0  0  0  0  0  0  0  0  0  0  0
  142.6340   80.3370  223.8820 C   0  0  0  0  0  0  0  0  0  0  0  0
  142.4050   79.3030  222.9900 C   0  0  0  0  0  0  0  0  0  0  0  0
  141.7710   75.9960  220.9780 C   0  0  0  0  0  0  0  0  0  0  0  0
  141.3390   74.7290  221.3040 C   0  0  0  0  0  0  0  0  0  0  0  0
  141.5867   71.5797  220.3524 H   0  0  0  0  0  0  0  0  0  0  0  0
  142.4572   71.6810  221.9145 H   0  0  0  0  0  0  0  0  0  0  0  0
  139.0625   70.5022  220.4175 H   0  0  0  0  0  0  0  0  0  0  0  0
  138.0575   68.3303  221.0269 H   0  0  0  0  0  0  0  0  0  0  0  0
  138.2419   67.5255  223.3475 H   0  0  0  0  0  0  0  0  0  0  0  0
  138.9351   69.0156  228.5390 H   0  0  0  0  0  0  0  0  0  0  0  0
  139.3992   67.5388  227.6764 H   0  0  0  0  0  0  0  0  0  0  0  0
  141.0354   68.5027  229.4736 H   0  0  0  0  0  0  0  0  0  0  0  0
  141.7072   68.0208  227.8455 H   0  0  0  0  0  0  0  0  0  0  0  0
  139.9903   71.0468  228.8232 H   0  0  0  0  0  0  0  0  0  0  0  0
  141.2658   71.9332  227.8907 H   0  0  0  0  0  0  0  0  0  0  0  0
  138.9844   71.3228  226.7166 H   0  0  0  0  0  0  0  0  0  0  0  0
  140.5180   71.1102  225.8290 H   0  0  0  0  0  0  0  0  0  0  0  0
  140.4315   71.0408  224.4576 H   0  0  0  0  0  0  0  0  0  0  0  0
  138.4427   75.5467  222.8572 H   0  0  0  0  0  0  0  0  0  0  0  0
  139.2495   77.7968  222.2564 H   0  0  0  0  0  0  0  0  0  0  0  0
  141.7490   78.5390  219.9010 H   0  0  0  0  0  0  0  0  0  0  0  0
  140.7952   81.0003  220.5766 H   0  0  0  0  0  0  0  0  0  0  0  0
  141.1843   82.8608  222.1472 H   0  0  0  0  0  0  0  0  0  0  0  0
  142.3772   82.4291  224.2798 H   0  0  0  0  0  0  0  0  0  0  0  0
  143.1612   80.1464  224.8284 H   0  0  0  0  0  0  0  0  0  0  0  0
  142.7568   78.2912  223.2400 H   0  0  0  0  0  0  0  0  0  0  0  0
  142.7247   76.1102  220.4419 H   0  0  0  0  0  0  0  0  0  0  0  0
  1  2  2  0
  2  3  1  0
  3  4  1  0
  4  5  1  0
  5  6  2  0
  6  7  1  0
  7  8  2  0
  8  9  1  0
  9 10  1  0
 10 11  2  0
 10 12  1  0
 12 13  1  0
 13 14  1  0
 14 15  1  0
 15 16  1  0
 16 17  1  0
  9 18  2  0
  4 19  2  0
 19 20  1  0
 20 21  2  0
 21 22  1  0
 22 23  2  0
 23 24  1  0
 24 25  1  0
 25 26  2  0
 26 27  1  0
 27 28  2  0
 28 29  1  0
 29 30  2  0
 23 31  1  0
 31 32  2  0
 32  2  1  0
 18  5  1  0
 32 20  1  0
 17 12  1  0
 30 25  1  0
  3 33  1  0
  3 34  1  0
  6 35  1  0
  7 36  1  0
  8 37  1  0
 13 38  1  0
 13 39  1  0
 14 40  1  0
 14 41  1  0
 16 42  1  0
 16 43  1  0
 17 44  1  0
 17 45  1  0
 18 46  1  0
 21 47  1  0
 22 48  1  0
 24 49  1  0
 26 50  1  0
 27 51  1  0
 28 52  1  0
 29 53  1  0
 30 54  1  0
 31 55  1  0
M  END
>  <smiles>  (20) 
O=C1CC(c2cccc(C(=O)N3CCOCC3)c2)=Nc2ccc(Nc3ccccc3)cc21

>  <score_type>  (20) 
oracle

>  <origin>  (20) 
autodockgpu

>  <m_score__min__energy>  (20) 
-9.6899999999999995

>  <m_primary>  (20) 
energy

>  <rmsd>  (20) 
6.755635896423049

>  <m_score__min__rmsd>  (20) 
6.755635896423049

>  <meeko>  (20) 
{"free_energy": -9.6, "intermolecular_energy": -10.79, "internal_energy": -0.91, "cluster_size": 32, "cluster_id": 1, "rank_in_cluster": 5}

>  <energy>  (20) 
-9.09

>  <cluster_rmsd>  (20) 
0.48

>  <cluster>  (20) 
1

$$$$

     RDKit          3D

 55 59  0  0  0  0  0  0  0  0999 V2000
  143.8030   72.2960  220.6140 O   0  0  0  0  0  0  0  0  0  0  0  0
  142.9400   73.2340  220.5870 C   0  0  0  0  0  0  0  0  0  0  0  0
  143.2820   74.4490  219.8210 C   0  0  0  0  0  0  0  0  0  0  0  0
  142.1620   75.4040  219.9220 C   0  0  0  0  0  0  0  0  0  0  0  0
  142.3020   76.6900  219.2300 C   0  0  0  0  0  0  0  0  0  0  0  0
  142.8180   76.7130  217.9280 C   0  0  0  0  0  0  0  0  0  0  0  0
  142.9640   77.8860  217.2380 C   0  0  0  0  0  0  0  0  0  0  0  0
  142.5920   79.0540  217.8480 C   0  0  0  0  0  0  0  0  0  0  0  0
  142.0700   79.0830  219.1480 C   0  0  0  0  0  0  0  0  0  0  0  0
  141.7190   80.3750  219.6730 C   0  0  0  0  0  0  0  0  0  0  0  0
  141.2720   81.2350  218.8490 O   0  0  0  0  0  0  0  0  0  0  0  0
  141.8200   80.7870  221.0170 N   0  0  0  0  0  0  0  0  0  0  0  0
  141.4100   82.1450  221.3730 C   0  0  0  0  0  0  0  0  0  0  0  0
  140.2630   81.9960  222.3480 C   0  0  0  0  0  0  0  0  0  0  0  0
  140.4380   80.9750  223.2380 O   0  0  0  0  0  0  0  0  0  0  0  0
  141.7360   80.5290  223.4060 C   0  0  0  0  0  0  0  0  0  0  0  0
  142.3070   79.9670  222.1070 C   0  0  0  0  0  0  0  0  0  0  0  0
  141.9360   77.8880  219.8160 C   0  0  0  0  0  0  0  0  0  0  0  0
  141.0700   75.2140  220.5650 N   0  0  0  0  0  0  0  0  0  0  0  0
  140.7600   74.0360  221.2930 C   0  0  0  0  0  0  0  0  0  0  0  0
  139.5710   73.8890  221.9640 C   0  0  0  0  0  0  0  0  0  0  0  0
  139.3410   72.7130  222.6540 C   0  0  0  0  0  0  0  0  0  0  0  0
  140.2420   71.6750  222.7070 C   0  0  0  0  0  0  0  0  0  0  0  0
  140.0430   70.4720  223.4190 N   0  0  0  0  0  0  0  0  0  0  0  0
  140.1680   70.2970  224.8130 C   0  0  0  0  0  0  0  0  0  0  0  0
  139.8400   69.1460  225.4920 C   0  0  0  0  0  0  0  0  0  0  0  0
  139.9930   69.0100  226.8580 C   0  0  0  0  0  0  0  0  0  0  0  0
  140.4950   70.0700  227.5780 C   0  0  0  0  0  0  0  0  0  0  0  0
  140.8390   71.2430  226.9470 C   0  0  0  0  0  0  0  0  0  0  0  0
  140.6750   71.3520  225.5760 C   0  0  0  0  0  0  0  0  0  0  0  0
  141.4370   71.8720  222.0080 C   0  0  0  0  0  0  0  0  0  0  0  0
  141.6990   73.0310  221.3110 C   0  0  0  0  0  0  0  0  0  0  0  0
  144.1940   74.9032  220.2356 H   0  0  0  0  0  0  0  0  0  0  0  0
  143.4588   74.1895  218.7668 H   0  0  0  0  0  0  0  0  0  0  0  0
  143.1124   75.7673  217.4494 H   0  0  0  0  0  0  0  0  0  0  0  0
  143.3712   77.8903  216.2161 H   0  0  0  0  0  0  0  0  0  0  0  0
  142.7067   80.0006  217.2995 H   0  0  0  0  0  0  0  0  0  0  0  0
  142.2445   82.6842  221.8451 H   0  0  0  0  0  0  0  0  0  0  0  0
  141.1095   82.7196  220.4844 H   0  0  0  0  0  0  0  0  0  0  0  0
  140.1592   82.9354  222.9108 H   0  0  0  0  0  0  0  0  0  0  0  0
  139.3636   81.7633  221.7589 H   0  0  0  0  0  0  0  0  0  0  0  0
  142.3628   81.3699  223.7376 H   0  0  0  0  0  0  0  0  0  0  0  0
  141.7302   79.7250  224.1567 H   0  0  0  0  0  0  0  0  0  0  0  0
  143.4061   79.9989  222.1369 H   0  0  0  0  0  0  0  0  0  0  0  0
  141.9936   78.9215  221.9705 H   0  0  0  0  0  0  0  0  0  0  0  0
  141.5291   77.8852  220.8380 H   0  0  0  0  0  0  0  0  0  0  0  0
  138.8172   74.6901  221.9529 H   0  0  0  0  0  0  0  0  0  0  0  0
  138.3864   72.6016  223.1892 H   0  0  0  0  0  0  0  0  0  0  0  0
  139.7760   69.6270  222.8430 H   0  0  0  0  0  0  0  0  0  0  0  0
  139.4379   68.2960  224.9213 H   0  0  0  0  0  0  0  0  0  0  0  0
  139.7185   68.0712  227.3614 H   0  0  0  0  0  0  0  0  0  0  0  0
  140.6222   69.9786  228.6668 H   0  0  0  0  0  0  0  0  0  0  0  0
  141.2409   72.0873  227.5264 H   0  0  0  0  0  0  0  0  0  0  0  0
  140.9506   72.2921  225.0757 H   0  0  0  0  0  0  0  0  0  0  0  0
  142.1940   71.0739  222.0149 H   0  0  0  0  0  0  0  0  0  0  0  0
  1  2  2  0
  2  3  1  0
  3  4  1  0
  4  5  1  0
  5  6  2  0
  6  7  1  0
  7  8  2  0
  8  9  1  0
  9 10  1  0
 10 11  2  0
 10 12  1  0
 12 13  1  0
 13 14  1  0
 14 15  1  0
 15 16  1  0
 16 17  1  0
  9 18  2  0
  4 19  2  0
 19 20  1  0
 20 21  2  0
 21 22  1  0
 22 23  2  0
 23 24  1  0
 24 25  1  0
 25 26  2  0
 26 27  1  0
 27 28  2  0
 28 29  1  0
 29 30  2  0
 23 31  1  0
 31 32  2  0
 32  2  1  0
 18  5  1  0
 32 20  1  0
 17 12  1  0
 30 25  1  0
  3 33  1  0
  3 34  1  0
  6 35  1  0
  7 36  1  0
  8 37  1  0
 13 38  1  0
 13 39  1  0
 14 40  1  0
 14 41  1  0
 16 42  1  0
 16 43  1  0
 17 44  1  0
 17 45  1  0
 18 46  1  0
 21 47  1  0
 22 48  1  0
 24 49  1  0
 26 50  1  0
 27 51  1  0
 28 52  1  0
 29 53  1  0
 30 54  1  0
 31 55  1  0
M  END
>  <smiles>  (21) 
O=C1CC(c2cccc(C(=O)N3CCOCC3)c2)=Nc2ccc(Nc3ccccc3)cc21

>  <score_type>  (21) 
oracle

>  <origin>  (21) 
autodockgpu

>  <m_score__min__energy>  (21) 
-9.6899999999999995

>  <m_primary>  (21) 
energy

>  <rmsd>  (21) 
9.517355825386044

>  <m_score__min__rmsd>  (21) 
9.517355825386044

>  <meeko>  (21) 
{"free_energy": -8.41, "intermolecular_energy": -9.6, "internal_energy": -0.99, "cluster_size": 15, "cluster_id": 3, "rank_in_cluster": 4}

>  <energy>  (21) 
-8.91

>  <cluster_rmsd>  (21) 
0.69

>  <cluster>  (21) 
1

$$$$

     RDKit          3D

 55 59  0  0  0  0  0  0  0  0999 V2000
  142.9500   73.9470  219.7140 O   0  0  0  0  0  0  0  0  0  0  0  0
  141.9890   73.7420  220.5250 C   0  0  0  0  0  0  0  0  0  0  0  0
  141.6340   72.3380  220.8170 C   0  0  0  0  0  0  0  0  0  0  0  0
  140.5050   72.3210  221.7660 C   0  0  0  0  0  0  0  0  0  0  0  0
  139.9910   71.0130  222.1860 C   0  0  0  0  0  0  0  0  0  0  0  0
  139.5610   70.1020  221.2120 C   0  0  0  0  0  0  0  0  0  0  0  0
  139.0780   68.8680  221.5530 C   0  0  0  0  0  0  0  0  0  0  0  0
  139.0190   68.5310  222.8790 C   0  0  0  0  0  0  0  0  0  0  0  0
  139.4370   69.4070  223.8900 C   0  0  0  0  0  0  0  0  0  0  0  0
  139.3240   68.9320  225.2420 C   0  0  0  0  0  0  0  0  0  0  0  0
  138.9630   67.7220  225.4050 O   0  0  0  0  0  0  0  0  0  0  0  0
  139.5720   69.6750  226.4130 N   0  0  0  0  0  0  0  0  0  0  0  0
  139.4090   69.0230  227.7130 C   0  0  0  0  0  0  0  0  0  0  0  0
  140.7700   69.0540  228.3720 C   0  0  0  0  0  0  0  0  0  0  0  0
  141.4470   70.2220  228.1640 O   0  0  0  0  0  0  0  0  0  0  0  0
  140.6830   71.3090  227.7830 C   0  0  0  0  0  0  0  0  0  0  0  0
  139.9850   71.0630  226.4490 C   0  0  0  0  0  0  0  0  0  0  0  0
  139.9170   70.6410  223.5170 C   0  0  0  0  0  0  0  0  0  0  0  0
  139.9250   73.3510  222.2590 N   0  0  0  0  0  0  0  0  0  0  0  0
  140.2830   74.6930  221.9680 C   0  0  0  0  0  0  0  0  0  0  0  0
  139.6240   75.7590  222.5280 C   0  0  0  0  0  0  0  0  0  0  0  0
  140.0280   77.0380  222.1950 C   0  0  0  0  0  0  0  0  0  0  0  0
  141.0610   77.3060  221.3250 C   0  0  0  0  0  0  0  0  0  0  0  0
  141.4830   78.5990  220.9510 N   0  0  0  0  0  0  0  0  0  0  0  0
  141.7060   79.6880  221.8210 C   0  0  0  0  0  0  0  0  0  0  0  0
  141.2150   80.9590  221.6290 C   0  0  0  0  0  0  0  0  0  0  0  0
  141.4440   81.9950  222.5140 C   0  0  0  0  0  0  0  0  0  0  0  0
  142.1990   81.7510  223.6390 C   0  0  0  0  0  0  0  0  0  0  0  0
  142.7140   80.4980  223.8770 C   0  0  0  0  0  0  0  0  0  0  0  0
  142.4680   79.4780  222.9730 C   0  0  0  0  0  0  0  0  0  0  0  0
  141.7010   76.1880  220.7820 C   0  0  0  0  0  0  0  0  0  0  0  0
  141.3240   74.9000  221.0920 C   0  0  0  0  0  0  0  0  0  0  0  0
  141.3425   71.8291  219.8864 H   0  0  0  0  0  0  0  0  0  0  0  0
  142.4983   71.8171  221.2548 H   0  0  0  0  0  0  0  0  0  0  0  0
  139.6129   70.3850  220.1503 H   0  0  0  0  0  0  0  0  0  0  0  0
  138.7442   68.1617  220.7785 H   0  0  0  0  0  0  0  0  0  0  0  0
  138.6310   67.5407  223.1597 H   0  0  0  0  0  0  0  0  0  0  0  0
  138.6762   69.5695  228.3248 H   0  0  0  0  0  0  0  0  0  0  0  0
  139.0398   67.9928  227.6021 H   0  0  0  0  0  0  0  0  0  0  0  0
  140.6361   68.9167  229.4552 H   0  0  0  0  0  0  0  0  0  0  0  0
  141.3674   68.2477  227.9214 H   0  0  0  0  0  0  0  0  0  0  0  0
  139.9223   71.4990  228.5545 H   0  0  0  0  0  0  0  0  0  0  0  0
  141.3502   72.1760  227.6682 H   0  0  0  0  0  0  0  0  0  0  0  0
  139.1052   71.7173  226.3611 H   0  0  0  0  0  0  0  0  0  0  0  0
  140.6661   71.2824  225.6135 H   0  0  0  0  0  0  0  0  0  0  0  0
  140.2489   71.3467  224.2927 H   0  0  0  0  0  0  0  0  0  0  0  0
  138.7908   75.5984  223.2280 H   0  0  0  0  0  0  0  0  0  0  0  0
  139.4960   77.8870  222.6491 H   0  0  0  0  0  0  0  0  0  0  0  0
  141.6420   78.7600  219.9190 H   0  0  0  0  0  0  0  0  0  0  0  0
  140.6130   81.1593  220.7304 H   0  0  0  0  0  0  0  0  0  0  0  0
  141.0306   82.9964  222.3232 H   0  0  0  0  0  0  0  0  0  0  0  0
  142.3920   82.5648  224.3535 H   0  0  0  0  0  0  0  0  0  0  0  0
  143.3161   80.3077  224.7777 H   0  0  0  0  0  0  0  0  0  0  0  0
  142.8828   78.4778  223.1668 H   0  0  0  0  0  0  0  0  0  0  0  0
  142.5355   76.3425  220.0822 H   0  0  0  0  0  0  0  0  0  0  0  0
  1  2  2  0
  2  3  1  0
  3  4  1  0
  4  5  1  0
  5  6  2  0
  6  7  1  0
  7  8  2  0
  8  9  1  0
  9 10  1  0
 10 11  2  0
 10 12  1  0
 12 13  1  0
 13 14  1  0
 14 15  1  0
 15 16  1  0
 16 17  1  0
  9 18  2  0
  4 19  2  0
 19 20  1  0
 20 21  2  0
 21 22  1  0
 22 23  2  0
 23 24  1  0
 24 25  1  0
 25 26  2  0
 26 27  1  0
 27 28  2  0
 28 29  1  0
 29 30  2  0
 23 31  1  0
 31 32  2  0
 32  2  1  0
 18  5  1  0
 32 20  1  0
 17 12  1  0
 30 25  1  0
  3 33  1  0
  3 34  1  0
  6 35  1  0
  7 36  1  0
  8 37  1  0
 13 38  1  0
 13 39  1  0
 14 40  1  0
 14 41  1  0
 16 42  1  0
 16 43  1  0
 17 44  1  0
 17 45  1  0
 18 46  1  0
 21 47  1  0
 22 48  1  0
 24 49  1  0
 26 50  1  0
 27 51  1  0
 28 52  1  0
 29 53  1  0
 30 54  1  0
 31 55  1  0
M  END
>  <smiles>  (22) 
O=C1CC(c2cccc(C(=O)N3CCOCC3)c2)=Nc2ccc(Nc3ccccc3)cc21

>  <score_type>  (22) 
oracle

>  <origin>  (22) 
autodockgpu

>  <m_score__min__energy>  (22) 
-9.6899999999999995

>  <m_primary>  (22) 
energy

>  <rmsd>  (22) 
6.754750547839123

>  <m_score__min__rmsd>  (22) 
6.754750547839123

>  <meeko>  (22) 
{"free_energy": -9.45, "intermolecular_energy": -10.65, "internal_energy": -0.88, "cluster_size": 32, "cluster_id": 1, "rank_in_cluster": 12}

>  <energy>  (22) 
-8.88

>  <cluster_rmsd>  (22) 
1.1

>  <cluster>  (22) 
1

$$$$

     RDKit          3D

 55 59  0  0  0  0  0  0  0  0999 V2000
  142.7430   73.5640  220.2880 O   0  0  0  0  0  0  0  0  0  0  0  0
  141.6540   73.6470  220.9450 C   0  0  0  0  0  0  0  0  0  0  0  0
  140.9900   72.3820  221.3220 C   0  0  0  0  0  0  0  0  0  0  0  0
  139.7550   72.6980  222.0650 C   0  0  0  0  0  0  0  0  0  0  0  0
  138.9370   71.5720  222.5300 C   0  0  0  0  0  0  0  0  0  0  0  0
  137.6130   71.4590  222.0850 C   0  0  0  0  0  0  0  0  0  0  0  0
  136.8120   70.4250  222.4860 C   0  0  0  0  0  0  0  0  0  0  0  0
  137.3290   69.4900  223.3430 C   0  0  0  0  0  0  0  0  0  0  0  0
  138.6460   69.5590  223.8150 C   0  0  0  0  0  0  0  0  0  0  0  0
  139.0660   68.5140  224.7090 C   0  0  0  0  0  0  0  0  0  0  0  0
  139.1990   67.3480  224.2180 O   0  0  0  0  0  0  0  0  0  0  0  0
  139.3470   68.6520  226.0830 N   0  0  0  0  0  0  0  0  0  0  0  0
  139.7700   67.4730  226.8400 C   0  0  0  0  0  0  0  0  0  0  0  0
  141.1610   67.7780  227.3500 C   0  0  0  0  0  0  0  0  0  0  0  0
  141.3150   69.0700  227.7660 O   0  0  0  0  0  0  0  0  0  0  0  0
  140.1530   69.7580  228.0600 C   0  0  0  0  0  0  0  0  0  0  0  0
  139.2530   69.8870  226.8340 C   0  0  0  0  0  0  0  0  0  0  0  0
  139.4280   70.6100  223.3950 C   0  0  0  0  0  0  0  0  0  0  0  0
  139.3260   73.8720  222.3410 N   0  0  0  0  0  0  0  0  0  0  0  0
  139.9800   75.0760  221.9720 C   0  0  0  0  0  0  0  0  0  0  0  0
  139.4710   76.3090  222.2970 C   0  0  0  0  0  0  0  0  0  0  0  0
  140.1650   77.4380  221.9010 C   0  0  0  0  0  0  0  0  0  0  0  0
  141.3450   77.3950  221.1930 C   0  0  0  0  0  0  0  0  0  0  0  0
  142.0640   78.5290  220.7590 N   0  0  0  0  0  0  0  0  0  0  0  0
  141.8560   79.8600  221.1790 C   0  0  0  0  0  0  0  0  0  0  0  0
  141.9900   80.3040  222.4740 C   0  0  0  0  0  0  0  0  0  0  0  0
  141.7920   81.6210  222.8400 C   0  0  0  0  0  0  0  0  0  0  0  0
  141.4440   82.5340  221.8710 C   0  0  0  0  0  0  0  0  0  0  0  0
  141.2970   82.1410  220.5610 C   0  0  0  0  0  0  0  0  0  0  0  0
  141.5020   80.8140  220.2220 C   0  0  0  0  0  0  0  0  0  0  0  0
  141.8220   76.1160  220.8870 C   0  0  0  0  0  0  0  0  0  0  0  0
  141.1570   74.9720  221.2660 C   0  0  0  0  0  0  0  0  0  0  0  0
  140.7406   71.8107  220.4157 H   0  0  0  0  0  0  0  0  0  0  0  0
  141.6617   71.7797  221.9513 H   0  0  0  0  0  0  0  0  0  0  0  0
  137.2092   72.2179  221.3987 H   0  0  0  0  0  0  0  0  0  0  0  0
  135.7749   70.3462  222.1278 H   0  0  0  0  0  0  0  0  0  0  0  0
  136.6891   68.6577  223.6713 H   0  0  0  0  0  0  0  0  0  0  0  0
  139.0854   67.2944  227.6822 H   0  0  0  0  0  0  0  0  0  0  0  0
  139.7613   66.5690  226.2134 H   0  0  0  0  0  0  0  0  0  0  0  0
  141.3757   67.1108  228.1978 H   0  0  0  0  0  0  0  0  0  0  0  0
  141.8558   67.6217  226.5117 H   0  0  0  0  0  0  0  0  0  0  0  0
  139.6078   69.2181  228.8482 H   0  0  0  0  0  0  0  0  0  0  0  0
  140.4265   70.7694  228.3949 H   0  0  0  0  0  0  0  0  0  0  0  0
  138.2127   70.0546  227.1496 H   0  0  0  0  0  0  0  0  0  0  0  0
  139.5690   70.7386  226.2136 H   0  0  0  0  0  0  0  0  0  0  0  0
  140.4648   70.6872  223.7542 H   0  0  0  0  0  0  0  0  0  0  0  0
  138.5306   76.3972  222.8607 H   0  0  0  0  0  0  0  0  0  0  0  0
  139.7522   78.4226  222.1658 H   0  0  0  0  0  0  0  0  0  0  0  0
  142.8270   78.3550  220.0500 H   0  0  0  0  0  0  0  0  0  0  0  0
  142.2671   79.5780  223.2526 H   0  0  0  0  0  0  0  0  0  0  0  0
  141.9104   81.9346  223.8877 H   0  0  0  0  0  0  0  0  0  0  0  0
  141.2821   83.5866  222.1462 H   0  0  0  0  0  0  0  0  0  0  0  0
  141.0191   82.8742  219.7896 H   0  0  0  0  0  0  0  0  0  0  0  0
  141.3832   80.5036  219.1734 H   0  0  0  0  0  0  0  0  0  0  0  0
  142.7619   76.0212  220.3235 H   0  0  0  0  0  0  0  0  0  0  0  0
  1  2  2  0
  2  3  1  0
  3  4  1  0
  4  5  1  0
  5  6  2  0
  6  7  1  0
  7  8  2  0
  8  9  1  0
  9 10  1  0
 10 11  2  0
 10 12  1  0
 12 13  1  0
 13 14  1  0
 14 15  1  0
 15 16  1  0
 16 17  1  0
  9 18  2  0
  4 19  2  0
 19 20  1  0
 20 21  2  0
 21 22  1  0
 22 23  2  0
 23 24  1  0
 24 25  1  0
 25 26  2  0
 26 27  1  0
 27 28  2  0
 28 29  1  0
 29 30  2  0
 23 31  1  0
 31 32  2  0
 32  2  1  0
 18  5  1  0
 32 20  1  0
 17 12  1  0
 30 25  1  0
  3 33  1  0
  3 34  1  0
  6 35  1  0
  7 36  1  0
  8 37  1  0
 13 38  1  0
 13 39  1  0
 14 40  1  0
 14 41  1  0
 16 42  1  0
 16 43  1  0
 17 44  1  0
 17 45  1  0
 18 46  1  0
 21 47  1  0
 22 48  1  0
 24 49  1  0
 26 50  1  0
 27 51  1  0
 28 52  1  0
 29 53  1  0
 30 54  1  0
 31 55  1  0
M  END
>  <smiles>  (23) 
O=C1CC(c2cccc(C(=O)N3CCOCC3)c2)=Nc2ccc(Nc3ccccc3)cc21

>  <score_type>  (23) 
oracle

>  <origin>  (23) 
autodockgpu

>  <m_score__min__energy>  (23) 
-9.6899999999999995

>  <m_primary>  (23) 
energy

>  <rmsd>  (23) 
6.524471905995116

>  <m_score__min__rmsd>  (23) 
6.524471905995116

>  <meeko>  (23) 
{"free_energy": -8.81, "intermolecular_energy": -10.0, "internal_energy": -0.99, "cluster_size": 32, "cluster_id": 1, "rank_in_cluster": 26}

>  <energy>  (23) 
-8.86

>  <cluster_rmsd>  (23) 
1.11

>  <cluster>  (23) 
1

$$$$

     RDKit          3D

 55 59  0  0  0  0  0  0  0  0999 V2000
  137.0780   75.2470  222.0340 O   0  0  0  0  0  0  0  0  0  0  0  0
  138.0550   74.4320  221.9640 C   0  0  0  0  0  0  0  0  0  0  0  0
  137.7830   73.0150  222.2770 C   0  0  0  0  0  0  0  0  0  0  0  0
  139.0370   72.2500  222.1420 C   0  0  0  0  0  0  0  0  0  0  0  0
  138.9870   70.8100  222.4170 C   0  0  0  0  0  0  0  0  0  0  0  0
  138.7420   69.9210  221.3620 C   0  0  0  0  0  0  0  0  0  0  0  0
  138.6900   68.5690  221.5650 C   0  0  0  0  0  0  0  0  0  0  0  0
  138.8830   68.0900  222.8340 C   0  0  0  0  0  0  0  0  0  0  0  0
  139.1310   68.9380  223.9210 C   0  0  0  0  0  0  0  0  0  0  0  0
  139.3160   68.3080  225.2010 C   0  0  0  0  0  0  0  0  0  0  0  0
  139.2870   67.0360  225.2320 O   0  0  0  0  0  0  0  0  0  0  0  0
  139.5270   68.9620  226.4310 N   0  0  0  0  0  0  0  0  0  0  0  0
  139.7020   68.1550  227.6390 C   0  0  0  0  0  0  0  0  0  0  0  0
  141.0890   68.4670  228.1560 C   0  0  0  0  0  0  0  0  0  0  0  0
  141.4260   69.7860  228.0430 O   0  0  0  0  0  0  0  0  0  0  0  0
  140.3750   70.6720  227.8930 C   0  0  0  0  0  0  0  0  0  0  0  0
  139.5900   70.3970  226.6140 C   0  0  0  0  0  0  0  0  0  0  0  0
  139.1770   70.2920  223.6860 C   0  0  0  0  0  0  0  0  0  0  0  0
  140.1760   72.7310  221.8080 N   0  0  0  0  0  0  0  0  0  0  0  0
  140.4170   74.0970  221.5090 C   0  0  0  0  0  0  0  0  0  0  0  0
  141.6620   74.5550  221.1550 C   0  0  0  0  0  0  0  0  0  0  0  0
  141.8190   75.9010  220.8790 C   0  0  0  0  0  0  0  0  0  0  0  0
  140.7910   76.8140  220.9400 C   0  0  0  0  0  0  0  0  0  0  0  0
  140.9260   78.1950  220.6830 N   0  0  0  0  0  0  0  0  0  0  0  0
  141.3590   79.1760  221.6000 C   0  0  0  0  0  0  0  0  0  0  0  0
  141.4220   80.5240  221.3350 C   0  0  0  0  0  0  0  0  0  0  0  0
  141.8370   81.4550  222.2680 C   0  0  0  0  0  0  0  0  0  0  0  0
  142.2070   81.0200  223.5200 C   0  0  0  0  0  0  0  0  0  0  0  0
  142.1620   79.6820  223.8360 C   0  0  0  0  0  0  0  0  0  0  0  0
  141.7410   78.7700  222.8810 C   0  0  0  0  0  0  0  0  0  0  0  0
  139.5430   76.2990  221.3040 C   0  0  0  0  0  0  0  0  0  0  0  0
  139.3510   74.9640  221.5850 C   0  0  0  0  0  0  0  0  0  0  0  0
  137.4066   72.9294  223.3070 H   0  0  0  0  0  0  0  0  0  0  0  0
  137.0260   72.6176  221.5848 H   0  0  0  0  0  0  0  0  0  0  0  0
  138.5881   70.3189  220.3481 H   0  0  0  0  0  0  0  0  0  0  0  0
  138.4975   67.8818  220.7279 H   0  0  0  0  0  0  0  0  0  0  0  0
  138.8419   67.0041  223.0048 H   0  0  0  0  0  0  0  0  0  0  0  0
  138.9452   68.4240  228.3906 H   0  0  0  0  0  0  0  0  0  0  0  0
  139.5851   67.0823  227.4256 H   0  0  0  0  0  0  0  0  0  0  0  0
  141.1370   68.1846  229.2181 H   0  0  0  0  0  0  0  0  0  0  0  0
  141.8007   67.8962  227.5415 H   0  0  0  0  0  0  0  0  0  0  0  0
  139.6991   70.5740  228.7553 H   0  0  0  0  0  0  0  0  0  0  0  0
  140.7876   71.6899  227.8326 H   0  0  0  0  0  0  0  0  0  0  0  0
  138.5734   70.8074  226.7038 H   0  0  0  0  0  0  0  0  0  0  0  0
  140.0820   70.8722  225.7525 H   0  0  0  0  0  0  0  0  0  0  0  0
  139.3689   70.9778  224.5244 H   0  0  0  0  0  0  0  0  0  0  0  0
  142.5169   73.8656  221.0922 H   0  0  0  0  0  0  0  0  0  0  0  0
  142.8190   76.2611  220.5956 H   0  0  0  0  0  0  0  0  0  0  0  0
  140.6740   78.5160  219.7080 H   0  0  0  0  0  0  0  0  0  0  0  0
  141.1288   80.8770  220.3353 H   0  0  0  0  0  0  0  0  0  0  0  0
  141.8710   82.5248  222.0144 H   0  0  0  0  0  0  0  0  0  0  0  0
  142.5413   81.7479  224.2739 H   0  0  0  0  0  0  0  0  0  0  0  0
  142.4577   79.3387  224.8383 H   0  0  0  0  0  0  0  0  0  0  0  0
  141.7068   77.7009  223.1378 H   0  0  0  0  0  0  0  0  0  0  0  0
  138.6845   76.9837  221.3682 H   0  0  0  0  0  0  0  0  0  0  0  0
  1  2  2  0
  2  3  1  0
  3  4  1  0
  4  5  1  0
  5  6  2  0
  6  7  1  0
  7  8  2  0
  8  9  1  0
  9 10  1  0
 10 11  2  0
 10 12  1  0
 12 13  1  0
 13 14  1  0
 14 15  1  0
 15 16  1  0
 16 17  1  0
  9 18  2  0
  4 19  2  0
 19 20  1  0
 20 21  2  0
 21 22  1  0
 22 23  2  0
 23 24  1  0
 24 25  1  0
 25 26  2  0
 26 27  1  0
 27 28  2  0
 28 29  1  0
 29 30  2  0
 23 31  1  0
 31 32  2  0
 32  2  1  0
 18  5  1  0
 32 20  1  0
 17 12  1  0
 30 25  1  0
  3 33  1  0
  3 34  1  0
  6 35  1  0
  7 36  1  0
  8 37  1  0
 13 38  1  0
 13 39  1  0
 14 40  1  0
 14 41  1  0
 16 42  1  0
 16 43  1  0
 17 44  1  0
 17 45  1  0
 18 46  1  0
 21 47  1  0
 22 48  1  0
 24 49  1  0
 26 50  1  0
 27 51  1  0
 28 52  1  0
 29 53  1  0
 30 54  1  0
 31 55  1  0
M  END
>  <smiles>  (24) 
O=C1CC(c2cccc(C(=O)N3CCOCC3)c2)=Nc2ccc(Nc3ccccc3)cc21

>  <score_type>  (24) 
oracle

>  <origin>  (24) 
autodockgpu

>  <m_score__min__energy>  (24) 
-9.6899999999999995

>  <m_primary>  (24) 
energy

>  <rmsd>  (24) 
6.69847355394728

>  <m_score__min__rmsd>  (24) 
6.69847355394728

>  <meeko>  (24) 
{"free_energy": -8.53, "intermolecular_energy": -9.73, "internal_energy": -0.89, "cluster_size": 32, "cluster_id": 1, "rank_in_cluster": 31}

>  <energy>  (24) 
-8.85

>  <cluster_rmsd>  (24) 
1.09

>  <cluster>  (24) 
1

$$$$

     RDKit          3D

 55 59  0  0  0  0  0  0  0  0999 V2000
  143.1420   73.6680  219.7590 O   0  0  0  0  0  0  0  0  0  0  0  0
  142.1400   73.5570  220.5390 C   0  0  0  0  0  0  0  0  0  0  0  0
  141.6850   72.1920  220.8720 C   0  0  0  0  0  0  0  0  0  0  0  0
  140.5220   72.2850  221.7740 C   0  0  0  0  0  0  0  0  0  0  0  0
  139.9100   71.0310  222.2240 C   0  0  0  0  0  0  0  0  0  0  0  0
  139.3040   70.1890  221.2820 C   0  0  0  0  0  0  0  0  0  0  0  0
  138.7230   69.0060  221.6510 C   0  0  0  0  0  0  0  0  0  0  0  0
  138.7430   68.6520  222.9740 C   0  0  0  0  0  0  0  0  0  0  0  0
  139.3370   69.4590  223.9530 C   0  0  0  0  0  0  0  0  0  0  0  0
  139.2900   68.9720  225.3060 C   0  0  0  0  0  0  0  0  0  0  0  0
  138.9630   67.7530  225.4730 O   0  0  0  0  0  0  0  0  0  0  0  0
  139.5710   69.7130  226.4710 N   0  0  0  0  0  0  0  0  0  0  0  0
  139.4770   69.0480  227.7710 C   0  0  0  0  0  0  0  0  0  0  0  0
  140.8630   69.1040  228.3730 C   0  0  0  0  0  0  0  0  0  0  0  0
  141.5050   70.2880  228.1460 O   0  0  0  0  0  0  0  0  0  0  0  0
  140.7030   71.3610  227.8060 C   0  0  0  0  0  0  0  0  0  0  0  0
  139.9550   71.1090  226.5000 C   0  0  0  0  0  0  0  0  0  0  0  0
  139.9120   70.6420  223.5520 C   0  0  0  0  0  0  0  0  0  0  0  0
  139.9920   73.3690  222.2030 N   0  0  0  0  0  0  0  0  0  0  0  0
  140.4450   74.6730  221.8730 C   0  0  0  0  0  0  0  0  0  0  0  0
  139.8350   75.8000  222.3640 C   0  0  0  0  0  0  0  0  0  0  0  0
  140.3330   77.0370  221.9980 C   0  0  0  0  0  0  0  0  0  0  0  0
  141.4130   77.2030  221.1610 C   0  0  0  0  0  0  0  0  0  0  0  0
  141.9310   78.4510  220.7540 N   0  0  0  0  0  0  0  0  0  0  0  0
  141.8760   79.6560  221.4850 C   0  0  0  0  0  0  0  0  0  0  0  0
  141.2730   80.8130  221.0480 C   0  0  0  0  0  0  0  0  0  0  0  0
  141.2280   81.9680  221.8040 C   0  0  0  0  0  0  0  0  0  0  0  0
  141.8120   81.9690  223.0500 C   0  0  0  0  0  0  0  0  0  0  0  0
  142.4290   80.8380  223.5330 C   0  0  0  0  0  0  0  0  0  0  0  0
  142.4590   79.6930  222.7550 C   0  0  0  0  0  0  0  0  0  0  0  0
  142.0000   76.0250  220.6870 C   0  0  0  0  0  0  0  0  0  0  0  0
  141.5300   74.7780  221.0330 C   0  0  0  0  0  0  0  0  0  0  0  0
  141.3973   71.6634  219.9512 H   0  0  0  0  0  0  0  0  0  0  0  0
  142.4969   71.6376  221.3653 H   0  0  0  0  0  0  0  0  0  0  0  0
  139.2950   70.4853  220.2227 H   0  0  0  0  0  0  0  0  0  0  0  0
  138.2505   68.3539  220.9017 H   0  0  0  0  0  0  0  0  0  0  0  0
  138.2773   67.7029  223.2778 H   0  0  0  0  0  0  0  0  0  0  0  0
  138.7587   69.5735  228.4174 H   0  0  0  0  0  0  0  0  0  0  0  0
  139.1262   68.0107  227.6669 H   0  0  0  0  0  0  0  0  0  0  0  0
  140.7775   68.9563  229.4597 H   0  0  0  0  0  0  0  0  0  0  0  0
  141.4584   68.3140  227.8919 H   0  0  0  0  0  0  0  0  0  0  0  0
  139.9715   71.5293  228.6101 H   0  0  0  0  0  0  0  0  0  0  0  0
  141.3461   72.2431  227.6705 H   0  0  0  0  0  0  0  0  0  0  0  0
  139.0584   71.7446  226.4539 H   0  0  0  0  0  0  0  0  0  0  0  0
  140.5954   71.3489  225.6384 H   0  0  0  0  0  0  0  0  0  0  0  0
  140.3836   71.2930  224.3029 H   0  0  0  0  0  0  0  0  0  0  0  0
  138.9672   75.7209  223.0353 H   0  0  0  0  0  0  0  0  0  0  0  0
  139.8400   77.9358  222.3968 H   0  0  0  0  0  0  0  0  0  0  0  0
  142.4010   78.4760  219.8070 H   0  0  0  0  0  0  0  0  0  0  0  0
  140.8059   80.8183  220.0521 H   0  0  0  0  0  0  0  0  0  0  0  0
  140.7339   82.8713  221.4168 H   0  0  0  0  0  0  0  0  0  0  0  0
  141.7854   82.8809  223.6646 H   0  0  0  0  0  0  0  0  0  0  0  0
  142.8948   80.8434  224.5295 H   0  0  0  0  0  0  0  0  0  0  0  0
  142.9532   78.7912  223.1455 H   0  0  0  0  0  0  0  0  0  0  0  0
  142.8674   76.0975  220.0144 H   0  0  0  0  0  0  0  0  0  0  0  0
  1  2  2  0
  2  3  1  0
  3  4  1  0
  4  5  1  0
  5  6  2  0
  6  7  1  0
  7  8  2  0
  8  9  1  0
  9 10  1  0
 10 11  2  0
 10 12  1  0
 12 13  1  0
 13 14  1  0
 14 15  1  0
 15 16  1  0
 16 17  1  0
  9 18  2  0
  4 19  2  0
 19 20  1  0
 20 21  2  0
 21 22  1  0
 22 23  2  0
 23 24  1  0
 24 25  1  0
 25 26  2  0
 26 27  1  0
 27 28  2  0
 28 29  1  0
 29 30  2  0
 23 31  1  0
 31 32  2  0
 32  2  1  0
 18  5  1  0
 32 20  1  0
 17 12  1  0
 30 25  1  0
  3 33  1  0
  3 34  1  0
  6 35  1  0
  7 36  1  0
  8 37  1  0
 13 38  1  0
 13 39  1  0
 14 40  1  0
 14 41  1  0
 16 42  1  0
 16 43  1  0
 17 44  1  0
 17 45  1  0
 18 46  1  0
 21 47  1  0
 22 48  1  0
 24 49  1  0
 26 50  1  0
 27 51  1  0
 28 52  1  0
 29 53  1  0
 30 54  1  0
 31 55  1  0
M  END
>  <smiles>  (25) 
O=C1CC(c2cccc(C(=O)N3CCOCC3)c2)=Nc2ccc(Nc3ccccc3)cc21

>  <score_type>  (25) 
oracle

>  <origin>  (25) 
autodockgpu

>  <m_score__min__energy>  (25) 
-9.6899999999999995

>  <m_primary>  (25) 
energy

>  <rmsd>  (25) 
6.690335247097723

>  <m_score__min__rmsd>  (25) 
6.690335247097723

>  <meeko>  (25) 
{"free_energy": -9.39, "intermolecular_energy": -10.59, "internal_energy": -0.89, "cluster_size": 32, "cluster_id": 1, "rank_in_cluster": 14}

>  <energy>  (25) 
-8.85

>  <cluster_rmsd>  (25) 
0.61

>  <cluster>  (25) 
1

$$$$

     RDKit          3D

 55 59  0  0  0  0  0  0  0  0999 V2000
  143.8600   72.3280  220.8060 O   0  0  0  0  0  0  0  0  0  0  0  0
  142.9760   73.2420  220.7260 C   0  0  0  0  0  0  0  0  0  0  0  0
  143.3180   74.4530  219.9520 C   0  0  0  0  0  0  0  0  0  0  0  0
  142.1700   75.3790  219.9890 C   0  0  0  0  0  0  0  0  0  0  0  0
  142.3060   76.6560  219.2790 C   0  0  0  0  0  0  0  0  0  0  0  0
  142.8090   76.6610  217.9710 C   0  0  0  0  0  0  0  0  0  0  0  0
  142.9490   77.8250  217.2660 C   0  0  0  0  0  0  0  0  0  0  0  0
  142.5870   79.0020  217.8650 C   0  0  0  0  0  0  0  0  0  0  0  0
  142.0790   79.0480  219.1700 C   0  0  0  0  0  0  0  0  0  0  0  0
  141.7360   80.3480  219.6820 C   0  0  0  0  0  0  0  0  0  0  0  0
  141.2930   81.2020  218.8500 O   0  0  0  0  0  0  0  0  0  0  0  0
  141.8420   80.7720  221.0220 N   0  0  0  0  0  0  0  0  0  0  0  0
  141.4400   82.1370  221.3640 C   0  0  0  0  0  0  0  0  0  0  0  0
  140.2950   82.0040  222.3430 C   0  0  0  0  0  0  0  0  0  0  0  0
  140.4650   80.9910  223.2430 O   0  0  0  0  0  0  0  0  0  0  0  0
  141.7600   80.5390  223.4130 C   0  0  0  0  0  0  0  0  0  0  0  0
  142.3250   79.9600  222.1190 C   0  0  0  0  0  0  0  0  0  0  0  0
  141.9490   77.8630  219.8540 C   0  0  0  0  0  0  0  0  0  0  0  0
  141.0580   75.1720  220.5900 N   0  0  0  0  0  0  0  0  0  0  0  0
  140.7490   74.0000  221.3270 C   0  0  0  0  0  0  0  0  0  0  0  0
  139.5370   73.8330  221.9520 C   0  0  0  0  0  0  0  0  0  0  0  0
  139.3080   72.6640  222.6530 C   0  0  0  0  0  0  0  0  0  0  0  0
  140.2330   71.6500  222.7630 C   0  0  0  0  0  0  0  0  0  0  0  0
  140.0350   70.4560  223.4870 N   0  0  0  0  0  0  0  0  0  0  0  0
  140.2270   70.2790  224.8740 C   0  0  0  0  0  0  0  0  0  0  0  0
  139.9800   69.1120  225.5580 C   0  0  0  0  0  0  0  0  0  0  0  0
  140.1970   68.9750  226.9150 C   0  0  0  0  0  0  0  0  0  0  0  0
  140.6810   70.0540  227.6210 C   0  0  0  0  0  0  0  0  0  0  0  0
  140.9440   71.2440  226.9840 C   0  0  0  0  0  0  0  0  0  0  0  0
  140.7170   71.3530  225.6220 C   0  0  0  0  0  0  0  0  0  0  0  0
  141.4500   71.8670  222.1090 C   0  0  0  0  0  0  0  0  0  0  0  0
  141.7110   73.0190  221.4020 C   0  0  0  0  0  0  0  0  0  0  0  0
  144.1996   74.9388  220.3955 H   0  0  0  0  0  0  0  0  0  0  0  0
  143.5455   74.1801  218.9110 H   0  0  0  0  0  0  0  0  0  0  0  0
  143.0973   75.7090  217.5013 H   0  0  0  0  0  0  0  0  0  0  0  0
  143.3441   77.8157  216.2395 H   0  0  0  0  0  0  0  0  0  0  0  0
  142.6986   79.9414  217.3037 H   0  0  0  0  0  0  0  0  0  0  0  0
  142.2784   82.6770  221.8282 H   0  0  0  0  0  0  0  0  0  0  0  0
  141.1407   82.7038  220.4700 H   0  0  0  0  0  0  0  0  0  0  0  0
  140.1982   82.9496  222.8967 H   0  0  0  0  0  0  0  0  0  0  0  0
  139.3934   81.7702  221.7579 H   0  0  0  0  0  0  0  0  0  0  0  0
  142.3926   81.3795  223.7346 H   0  0  0  0  0  0  0  0  0  0  0  0
  141.7507   79.7429  224.1720 H   0  0  0  0  0  0  0  0  0  0  0  0
  143.4244   79.9846  222.1469 H   0  0  0  0  0  0  0  0  0  0  0  0
  142.0042   78.9153  221.9936 H   0  0  0  0  0  0  0  0  0  0  0  0
  141.5528   77.8743  220.8801 H   0  0  0  0  0  0  0  0  0  0  0  0
  138.7644   74.6139  221.8957 H   0  0  0  0  0  0  0  0  0  0  0  0
  138.3347   72.5369  223.1496 H   0  0  0  0  0  0  0  0  0  0  0  0
  139.7140   69.6180  222.9290 H   0  0  0  0  0  0  0  0  0  0  0  0
  139.5918   68.2480  224.9987 H   0  0  0  0  0  0  0  0  0  0  0  0
  139.9872   68.0219  227.4225 H   0  0  0  0  0  0  0  0  0  0  0  0
  140.8585   69.9632  228.7028 H   0  0  0  0  0  0  0  0  0  0  0  0
  141.3317   72.1027  227.5517 H   0  0  0  0  0  0  0  0  0  0  0  0
  140.9273   72.3074  225.1172 H   0  0  0  0  0  0  0  0  0  0  0  0
  142.2263   71.0894  222.1614 H   0  0  0  0  0  0  0  0  0  0  0  0
  1  2  2  0
  2  3  1  0
  3  4  1  0
  4  5  1  0
  5  6  2  0
  6  7  1  0
  7  8  2  0
  8  9  1  0
  9 10  1  0
 10 11  2  0
 10 12  1  0
 12 13  1  0
 13 14  1  0
 14 15  1  0
 15 16  1  0
 16 17  1  0
  9 18  2  0
  4 19  2  0
 19 20  1  0
 20 21  2  0
 21 22  1  0
 22 23  2  0
 23 24  1  0
 24 25  1  0
 25 26  2  0
 26 27  1  0
 27 28  2  0
 28 29  1  0
 29 30  2  0
 23 31  1  0
 31 32  2  0
 32  2  1  0
 18  5  1  0
 32 20  1  0
 17 12  1  0
 30 25  1  0
  3 33  1  0
  3 34  1  0
  6 35  1  0
  7 36  1  0
  8 37  1  0
 13 38  1  0
 13 39  1  0
 14 40  1  0
 14 41  1  0
 16 42  1  0
 16 43  1  0
 17 44  1  0
 17 45  1  0
 18 46  1  0
 21 47  1  0
 22 48  1  0
 24 49  1  0
 26 50  1  0
 27 51  1  0
 28 52  1  0
 29 53  1  0
 30 54  1  0
 31 55  1  0
M  END
>  <smiles>  (26) 
O=C1CC(c2cccc(C(=O)N3CCOCC3)c2)=Nc2ccc(Nc3ccccc3)cc21

>  <score_type>  (26) 
oracle

>  <origin>  (26) 
autodockgpu

>  <m_score__min__energy>  (26) 
-9.6899999999999995

>  <m_primary>  (26) 
energy

>  <rmsd>  (26) 
9.550973953626007

>  <m_score__min__rmsd>  (26) 
9.550973953626007

>  <meeko>  (26) 
{"free_energy": -8.42, "intermolecular_energy": -9.61, "internal_energy": -0.99, "cluster_size": 15, "cluster_id": 3, "rank_in_cluster": 2}

>  <energy>  (26) 
-8.81

>  <cluster_rmsd>  (26) 
1.14

>  <cluster>  (26) 
1

$$$$

     RDKit          3D

 55 59  0  0  0  0  0  0  0  0999 V2000
  143.8130   72.2790  220.5190 O   0  0  0  0  0  0  0  0  0  0  0  0
  142.9540   73.2200  220.5140 C   0  0  0  0  0  0  0  0  0  0  0  0
  143.2850   74.4380  219.7470 C   0  0  0  0  0  0  0  0  0  0  0  0
  142.1700   75.3960  219.8730 C   0  0  0  0  0  0  0  0  0  0  0  0
  142.3010   76.6840  219.1840 C   0  0  0  0  0  0  0  0  0  0  0  0
  142.8050   76.7120  217.8770 C   0  0  0  0  0  0  0  0  0  0  0  0
  142.9420   77.8880  217.1910 C   0  0  0  0  0  0  0  0  0  0  0  0
  142.5740   79.0540  217.8090 C   0  0  0  0  0  0  0  0  0  0  0  0
  142.0650   79.0770  219.1130 C   0  0  0  0  0  0  0  0  0  0  0  0
  141.7170   80.3670  219.6460 C   0  0  0  0  0  0  0  0  0  0  0  0
  141.2600   81.2290  218.8300 O   0  0  0  0  0  0  0  0  0  0  0  0
  141.8320   80.7740  220.9900 N   0  0  0  0  0  0  0  0  0  0  0  0
  141.4220   82.1310  221.3550 C   0  0  0  0  0  0  0  0  0  0  0  0
  140.2860   81.9760  222.3420 C   0  0  0  0  0  0  0  0  0  0  0  0
  140.4720   80.9530  223.2270 O   0  0  0  0  0  0  0  0  0  0  0  0
  141.7730   80.5080  223.3790 C   0  0  0  0  0  0  0  0  0  0  0  0
  142.3300   79.9520  222.0730 C   0  0  0  0  0  0  0  0  0  0  0  0
  141.9400   77.8800  219.7790 C   0  0  0  0  0  0  0  0  0  0  0  0
  141.0910   75.2070  220.5370 N   0  0  0  0  0  0  0  0  0  0  0  0
  140.7910   74.0270  221.2660 C   0  0  0  0  0  0  0  0  0  0  0  0
  139.6150   73.8810  221.9590 C   0  0  0  0  0  0  0  0  0  0  0  0
  139.3930   72.7030  222.6480 C   0  0  0  0  0  0  0  0  0  0  0  0
  140.2920   71.6610  222.6790 C   0  0  0  0  0  0  0  0  0  0  0  0
  140.1020   70.4560  223.3880 N   0  0  0  0  0  0  0  0  0  0  0  0
  140.2360   70.2780  224.7820 C   0  0  0  0  0  0  0  0  0  0  0  0
  140.7050   71.2330  225.6530 C   0  0  0  0  0  0  0  0  0  0  0  0
  140.8060   71.0230  227.0150 C   0  0  0  0  0  0  0  0  0  0  0  0
  140.4240   69.8050  227.5280 C   0  0  0  0  0  0  0  0  0  0  0  0
  139.9490   68.8150  226.6990 C   0  0  0  0  0  0  0  0  0  0  0  0
  139.8580   69.0530  225.3380 C   0  0  0  0  0  0  0  0  0  0  0  0
  141.4730   71.8570  221.9570 C   0  0  0  0  0  0  0  0  0  0  0  0
  141.7260   73.0180  221.2600 C   0  0  0  0  0  0  0  0  0  0  0  0
  144.2060   74.8878  220.1465 H   0  0  0  0  0  0  0  0  0  0  0  0
  143.4410   74.1826  218.6885 H   0  0  0  0  0  0  0  0  0  0  0  0
  143.0967   75.7687  217.3921 H   0  0  0  0  0  0  0  0  0  0  0  0
  143.3391   77.8970  216.1652 H   0  0  0  0  0  0  0  0  0  0  0  0
  142.6820   80.0028  217.2630 H   0  0  0  0  0  0  0  0  0  0  0  0
  142.2602   82.6709  221.8197 H   0  0  0  0  0  0  0  0  0  0  0  0
  141.1103   82.7075  220.4715 H   0  0  0  0  0  0  0  0  0  0  0  0
  140.1862   82.9135  222.9087 H   0  0  0  0  0  0  0  0  0  0  0  0
  139.3812   81.7426  221.7615 H   0  0  0  0  0  0  0  0  0  0  0  0
  142.4022   81.3486  223.7067 H   0  0  0  0  0  0  0  0  0  0  0  0
  141.7765   79.7012  224.1267 H   0  0  0  0  0  0  0  0  0  0  0  0
  143.4294   79.9847  222.0918 H   0  0  0  0  0  0  0  0  0  0  0  0
  142.0148   78.9070  221.9365 H   0  0  0  0  0  0  0  0  0  0  0  0
  141.5450   77.8734  220.8056 H   0  0  0  0  0  0  0  0  0  0  0  0
  138.8644   74.6851  221.9660 H   0  0  0  0  0  0  0  0  0  0  0  0
  138.4482   72.5926  223.2005 H   0  0  0  0  0  0  0  0  0  0  0  0
  139.8350   69.6110  222.8130 H   0  0  0  0  0  0  0  0  0  0  0  0
  141.0136   72.2078  225.2474 H   0  0  0  0  0  0  0  0  0  0  0  0
  141.1850   71.8154  227.6771 H   0  0  0  0  0  0  0  0  0  0  0  0
  140.4989   69.6211  228.6099 H   0  0  0  0  0  0  0  0  0  0  0  0
  139.6442   67.8429  227.1138 H   0  0  0  0  0  0  0  0  0  0  0  0
  139.4789   68.2585  224.6784 H   0  0  0  0  0  0  0  0  0  0  0  0
  142.2268   71.0560  221.9451 H   0  0  0  0  0  0  0  0  0  0  0  0
  1  2  2  0
  2  3  1  0
  3  4  1  0
  4  5  1  0
  5  6  2  0
  6  7  1  0
  7  8  2  0
  8  9  1  0
  9 10  1  0
 10 11  2  0
 10 12  1  0
 12 13  1  0
 13 14  1  0
 14 15  1  0
 15 16  1  0
 16 17  1  0
  9 18  2  0
  4 19  2  0
 19 20  1  0
 20 21  2  0
 21 22  1  0
 22 23  2  0
 23 24  1  0
 24 25  1  0
 25 26  2  0
 26 27  1  0
 27 28  2  0
 28 29  1  0
 29 30  2  0
 23 31  1  0
 31 32  2  0
 32  2  1  0
 18  5  1  0
 32 20  1  0
 17 12  1  0
 30 25  1  0
  3 33  1  0
  3 34  1  0
  6 35  1  0
  7 36  1  0
  8 37  1  0
 13 38  1  0
 13 39  1  0
 14 40  1  0
 14 41  1  0
 16 42  1  0
 16 43  1  0
 17 44  1  0
 17 45  1  0
 18 46  1  0
 21 47  1  0
 22 48  1  0
 24 49  1  0
 26 50  1  0
 27 51  1  0
 28 52  1  0
 29 53  1  0
 30 54  1  0
 31 55  1  0
M  END
>  <smiles>  (27) 
O=C1CC(c2cccc(C(=O)N3CCOCC3)c2)=Nc2ccc(Nc3ccccc3)cc21

>  <score_type>  (27) 
oracle

>  <origin>  (27) 
autodockgpu

>  <m_score__min__energy>  (27) 
-9.6899999999999995

>  <m_primary>  (27) 
energy

>  <rmsd>  (27) 
9.25688892917592

>  <m_score__min__rmsd>  (27) 
9.25688892917592

>  <meeko>  (27) 
{"free_energy": -8.38, "intermolecular_energy": -9.57, "internal_energy": -0.98, "cluster_size": 15, "cluster_id": 3, "rank_in_cluster": 12}

>  <energy>  (27) 
-8.81

>  <cluster_rmsd>  (27) 
0.7

>  <cluster>  (27) 
1

$$$$

     RDKit          3D

 55 59  0  0  0  0  0  0  0  0999 V2000
  142.7520   73.4950  220.1850 O   0  0  0  0  0  0  0  0  0  0  0  0
  141.6790   73.5720  220.8680 C   0  0  0  0  0  0  0  0  0  0  0  0
  141.0210   72.3040  221.2440 C   0  0  0  0  0  0  0  0  0  0  0  0
  139.8040   72.6140  222.0190 C   0  0  0  0  0  0  0  0  0  0  0  0
  138.9940   71.4850  222.4890 C   0  0  0  0  0  0  0  0  0  0  0  0
  137.6790   71.3460  222.0250 C   0  0  0  0  0  0  0  0  0  0  0  0
  136.8850   70.3080  222.4310 C   0  0  0  0  0  0  0  0  0  0  0  0
  137.4010   69.3930  223.3090 C   0  0  0  0  0  0  0  0  0  0  0  0
  138.7100   69.4880  223.8010 C   0  0  0  0  0  0  0  0  0  0  0  0
  139.1300   68.4620  224.7170 C   0  0  0  0  0  0  0  0  0  0  0  0
  139.2340   67.2800  224.2580 O   0  0  0  0  0  0  0  0  0  0  0  0
  139.4390   68.6360  226.0810 N   0  0  0  0  0  0  0  0  0  0  0  0
  139.8570   67.4720  226.8640 C   0  0  0  0  0  0  0  0  0  0  0  0
  141.2620   67.7680  227.3380 C   0  0  0  0  0  0  0  0  0  0  0  0
  141.4460   69.0680  227.7130 O   0  0  0  0  0  0  0  0  0  0  0  0
  140.3010   69.7850  228.0090 C   0  0  0  0  0  0  0  0  0  0  0  0
  139.3810   69.8930  226.7970 C   0  0  0  0  0  0  0  0  0  0  0  0
  139.4840   70.5420  223.3760 C   0  0  0  0  0  0  0  0  0  0  0  0
  139.3850   73.7860  222.3200 N   0  0  0  0  0  0  0  0  0  0  0  0
  140.0340   74.9920  221.9510 C   0  0  0  0  0  0  0  0  0  0  0  0
  139.5360   76.2220  222.3030 C   0  0  0  0  0  0  0  0  0  0  0  0
  140.2240   77.3540  221.9050 C   0  0  0  0  0  0  0  0  0  0  0  0
  141.3870   77.3170  221.1700 C   0  0  0  0  0  0  0  0  0  0  0  0
  142.0980   78.4550  220.7330 N   0  0  0  0  0  0  0  0  0  0  0  0
  141.8480   79.7910  221.1090 C   0  0  0  0  0  0  0  0  0  0  0  0
  141.3910   80.7730  220.2610 C   0  0  0  0  0  0  0  0  0  0  0  0
  141.1420   82.0680  220.6740 C   0  0  0  0  0  0  0  0  0  0  0  0
  141.3620   82.3970  221.9920 C   0  0  0  0  0  0  0  0  0  0  0  0
  141.8200   81.4520  222.8810 C   0  0  0  0  0  0  0  0  0  0  0  0
  142.0590   80.1610  222.4400 C   0  0  0  0  0  0  0  0  0  0  0  0
  141.8530   76.0420  220.8360 C   0  0  0  0  0  0  0  0  0  0  0  0
  141.1930   74.8940  221.2160 C   0  0  0  0  0  0  0  0  0  0  0  0
  140.7495   71.7446  220.3366 H   0  0  0  0  0  0  0  0  0  0  0  0
  141.7053   71.6920  221.8499 H   0  0  0  0  0  0  0  0  0  0  0  0
  137.2763   72.0873  221.3191 H   0  0  0  0  0  0  0  0  0  0  0  0
  135.8541   70.2109  222.0598 H   0  0  0  0  0  0  0  0  0  0  0  0
  136.7678   68.5562  223.6390 H   0  0  0  0  0  0  0  0  0  0  0  0
  139.1861   67.3295  227.7240 H   0  0  0  0  0  0  0  0  0  0  0  0
  139.8209   66.5504  226.2645 H   0  0  0  0  0  0  0  0  0  0  0  0
  141.4822   67.1219  228.2006 H   0  0  0  0  0  0  0  0  0  0  0  0
  141.9372   67.5760  226.4911 H   0  0  0  0  0  0  0  0  0  0  0  0
  139.7621   69.2781  228.8230 H   0  0  0  0  0  0  0  0  0  0  0  0
  140.5975   70.8008  228.3093 H   0  0  0  0  0  0  0  0  0  0  0  0
  138.3499   70.0881  227.1267 H   0  0  0  0  0  0  0  0  0  0  0  0
  139.7005   70.7200  226.1459 H   0  0  0  0  0  0  0  0  0  0  0  0
  140.5144   70.6379  223.7488 H   0  0  0  0  0  0  0  0  0  0  0  0
  138.6091   76.3055  222.8894 H   0  0  0  0  0  0  0  0  0  0  0  0
  139.8200   78.3363  222.1912 H   0  0  0  0  0  0  0  0  0  0  0  0
  142.8920   78.2790  220.0580 H   0  0  0  0  0  0  0  0  0  0  0  0
  141.2158   80.5157  219.2060 H   0  0  0  0  0  0  0  0  0  0  0  0
  140.7747   82.8220  219.9623 H   0  0  0  0  0  0  0  0  0  0  0  0
  141.1702   83.4236  222.3375 H   0  0  0  0  0  0  0  0  0  0  0  0
  141.9949   81.7197  223.9335 H   0  0  0  0  0  0  0  0  0  0  0  0
  142.4238   79.4086  223.1548 H   0  0  0  0  0  0  0  0  0  0  0  0
  142.7791   75.9523  220.2492 H   0  0  0  0  0  0  0  0  0  0  0  0
  1  2  2  0
  2  3  1  0
  3  4  1  0
  4  5  1  0
  5  6  2  0
  6  7  1  0
  7  8  2  0
  8  9  1  0
  9 10  1  0
 10 11  2  0
 10 12  1  0
 12 13  1  0
 13 14  1  0
 14 15  1  0
 15 16  1  0
 16 17  1  0
  9 18  2  0
  4 19  2  0
 19 20  1  0
 20 21  2  0
 21 22  1  0
 22 23  2  0
 23 24  1  0
 24 25  1  0
 25 26  2  0
 26 27  1  0
 27 28  2  0
 28 29  1  0
 29 30  2  0
 23 31  1  0
 31 32  2  0
 32  2  1  0
 18  5  1  0
 32 20  1  0
 17 12  1  0
 30 25  1  0
  3 33  1  0
  3 34  1  0
  6 35  1  0
  7 36  1  0
  8 37  1  0
 13 38  1  0
 13 39  1  0
 14 40  1  0
 14 41  1  0
 16 42  1  0
 16 43  1  0
 17 44  1  0
 17 45  1  0
 18 46  1  0
 21 47  1  0
 22 48  1  0
 24 49  1  0
 26 50  1  0
 27 51  1  0
 28 52  1  0
 29 53  1  0
 30 54  1  0
 31 55  1  0
M  END
>  <smiles>  (28) 
O=C1CC(c2cccc(C(=O)N3CCOCC3)c2)=Nc2ccc(Nc3ccccc3)cc21

>  <score_type>  (28) 
oracle

>  <origin>  (28) 
autodockgpu

>  <m_score__min__energy>  (28) 
-9.6899999999999995

>  <m_primary>  (28) 
energy

>  <rmsd>  (28) 
6.483745471150778

>  <m_score__min__rmsd>  (28) 
6.483745471150778

>  <meeko>  (28) 
{"free_energy": -8.85, "intermolecular_energy": -10.05, "internal_energy": -1.0, "cluster_size": 32, "cluster_id": 1, "rank_in_cluster": 24}

>  <energy>  (28) 
-8.76

>  <cluster_rmsd>  (28) 
0.99

>  <cluster>  (28) 
1

$$$$

     RDKit          3D

 55 59  0  0  0  0  0  0  0  0999 V2000
  141.9770   81.2240  223.7250 O   0  0  0  0  0  0  0  0  0  0  0  0
  141.3190   80.3480  223.0740 C   0  0  0  0  0  0  0  0  0  0  0  0
  142.0690   79.4980  222.1280 C   0  0  0  0  0  0  0  0  0  0  0  0
  141.1280   78.5640  221.4810 C   0  0  0  0  0  0  0  0  0  0  0  0
  141.6740   77.6260  220.4930 C   0  0  0  0  0  0  0  0  0  0  0  0
  142.0220   78.0990  219.2210 C   0  0  0  0  0  0  0  0  0  0  0  0
  142.5390   77.2650  218.2670 C   0  0  0  0  0  0  0  0  0  0  0  0
  142.7140   75.9430  218.5780 C   0  0  0  0  0  0  0  0  0  0  0  0
  142.3820   75.4230  219.8360 C   0  0  0  0  0  0  0  0  0  0  0  0
  142.6150   74.0180  220.0350 C   0  0  0  0  0  0  0  0  0  0  0  0
  141.6200   73.2380  219.8910 O   0  0  0  0  0  0  0  0  0  0  0  0
  143.8420   73.4140  220.3750 N   0  0  0  0  0  0  0  0  0  0  0  0
  143.8940   71.9600  220.5330 C   0  0  0  0  0  0  0  0  0  0  0  0
  144.8610   71.4580  219.4840 C   0  0  0  0  0  0  0  0  0  0  0  0
  145.9510   72.2660  219.3210 O   0  0  0  0  0  0  0  0  0  0  0  0
  146.2290   73.1310  220.3620 C   0  0  0  0  0  0  0  0  0  0  0  0
  145.0880   74.1190  220.5890 C   0  0  0  0  0  0  0  0  0  0  0  0
  141.8640   76.2850  220.7740 C   0  0  0  0  0  0  0  0  0  0  0  0
  139.8680   78.4970  221.7010 N   0  0  0  0  0  0  0  0  0  0  0  0
  139.1660   79.3220  222.6170 C   0  0  0  0  0  0  0  0  0  0  0  0
  137.8120   79.2040  222.8110 C   0  0  0  0  0  0  0  0  0  0  0  0
  137.1970   80.0450  223.7200 C   0  0  0  0  0  0  0  0  0  0  0  0
  137.8690   81.0020  224.4450 C   0  0  0  0  0  0  0  0  0  0  0  0
  137.2650   81.8870  225.3640 N   0  0  0  0  0  0  0  0  0  0  0  0
  136.2320   81.5710  226.2700 C   0  0  0  0  0  0  0  0  0  0  0  0
  135.0750   80.9030  225.9400 C   0  0  0  0  0  0  0  0  0  0  0  0
  134.0930   80.5990  226.8630 C   0  0  0  0  0  0  0  0  0  0  0  0
  134.2730   80.9800  228.1730 C   0  0  0  0  0  0  0  0  0  0  0  0
  135.4120   81.6500  228.5550 C   0  0  0  0  0  0  0  0  0  0  0  0
  136.3810   81.9420  227.6090 C   0  0  0  0  0  0  0  0  0  0  0  0
  139.2460   81.0830  224.2120 C   0  0  0  0  0  0  0  0  0  0  0  0
  139.8900   80.2610  223.3150 C   0  0  0  0  0  0  0  0  0  0  0  0
  142.5484   80.1282  221.3645 H   0  0  0  0  0  0  0  0  0  0  0  0
  142.8454   78.9343  222.6660 H   0  0  0  0  0  0  0  0  0  0  0  0
  141.8766   79.1633  218.9840 H   0  0  0  0  0  0  0  0  0  0  0  0
  142.8082   77.6484  217.2717 H   0  0  0  0  0  0  0  0  0  0  0  0
  143.1287   75.2673  217.8155 H   0  0  0  0  0  0  0  0  0  0  0  0
  144.2527   71.6980  221.5393 H   0  0  0  0  0  0  0  0  0  0  0  0
  142.8990   71.5069  220.4118 H   0  0  0  0  0  0  0  0  0  0  0  0
  145.2094   70.4578  219.7808 H   0  0  0  0  0  0  0  0  0  0  0  0
  144.3216   71.4423  218.5254 H   0  0  0  0  0  0  0  0  0  0  0  0
  146.3835   72.5463  221.2808 H   0  0  0  0  0  0  0  0  0  0  0  0
  147.1332   73.7018  220.1040 H   0  0  0  0  0  0  0  0  0  0  0  0
  145.1271   74.5055  221.6181 H   0  0  0  0  0  0  0  0  0  0  0  0
  145.1723   74.9687  219.8955 H   0  0  0  0  0  0  0  0  0  0  0  0
  141.5951   75.9000  221.7687 H   0  0  0  0  0  0  0  0  0  0  0  0
  137.2284   78.4557  222.2547 H   0  0  0  0  0  0  0  0  0  0  0  0
  136.1123   79.9435  223.8717 H   0  0  0  0  0  0  0  0  0  0  0  0
  137.6270   82.8800  225.3640 H   0  0  0  0  0  0  0  0  0  0  0  0
  134.9253   80.5973  224.8940 H   0  0  0  0  0  0  0  0  0  0  0  0
  133.1834   80.0619  226.5562 H   0  0  0  0  0  0  0  0  0  0  0  0
  133.5002   80.7470  228.9203 H   0  0  0  0  0  0  0  0  0  0  0  0
  135.5523   81.9516  229.6035 H   0  0  0  0  0  0  0  0  0  0  0  0
  137.2896   82.4788  227.9193 H   0  0  0  0  0  0  0  0  0  0  0  0
  139.8348   81.8297  224.7649 H   0  0  0  0  0  0  0  0  0  0  0  0
  1  2  2  0
  2  3  1  0
  3  4  1  0
  4  5  1  0
  5  6  2  0
  6  7  1  0
  7  8  2  0
  8  9  1  0
  9 10  1  0
 10 11  2  0
 10 12  1  0
 12 13  1  0
 13 14  1  0
 14 15  1  0
 15 16  1  0
 16 17  1  0
  9 18  2  0
  4 19  2  0
 19 20  1  0
 20 21  2  0
 21 22  1  0
 22 23  2  0
 23 24  1  0
 24 25  1  0
 25 26  2  0
 26 27  1  0
 27 28  2  0
 28 29  1  0
 29 30  2  0
 23 31  1  0
 31 32  2  0
 32  2  1  0
 18  5  1  0
 32 20  1  0
 17 12  1  0
 30 25  1  0
  3 33  1  0
  3 34  1  0
  6 35  1  0
  7 36  1  0
  8 37  1  0
 13 38  1  0
 13 39  1  0
 14 40  1  0
 14 41  1  0
 16 42  1  0
 16 43  1  0
 17 44  1  0
 17 45  1  0
 18 46  1  0
 21 47  1  0
 22 48  1  0
 24 49  1  0
 26 50  1  0
 27 51  1  0
 28 52  1  0
 29 53  1  0
 30 54  1  0
 31 55  1  0
M  END
>  <smiles>  (29) 
O=C1CC(c2cccc(C(=O)N3CCOCC3)c2)=Nc2ccc(Nc3ccccc3)cc21

>  <score_type>  (29) 
oracle

>  <origin>  (29) 
autodockgpu

>  <m_score__min__energy>  (29) 
-9.6899999999999995

>  <m_primary>  (29) 
energy

>  <rmsd>  (29) 
8.327969106977466

>  <m_score__min__rmsd>  (29) 
8.327969106977466

>  <meeko>  (29) 
{"free_energy": -8.39, "intermolecular_energy": -9.58, "internal_energy": -0.95, "cluster_size": 1, "cluster_id": 4, "rank_in_cluster": 1}

>  <energy>  (29) 
-8.59

>  <cluster_rmsd>  (29) 
1.62

>  <cluster>  (29) 
1

$$$$

     RDKit          3D

 55 59  0  0  0  0  0  0  0  0999 V2000
  143.8490   72.3140  220.8080 O   0  0  0  0  0  0  0  0  0  0  0  0
  142.9680   73.2310  220.7270 C   0  0  0  0  0  0  0  0  0  0  0  0
  143.3140   74.4380  219.9500 C   0  0  0  0  0  0  0  0  0  0  0  0
  142.1700   75.3690  219.9860 C   0  0  0  0  0  0  0  0  0  0  0  0
  142.3090   76.6440  219.2730 C   0  0  0  0  0  0  0  0  0  0  0  0
  142.8280   76.6460  217.9720 C   0  0  0  0  0  0  0  0  0  0  0  0
  142.9730   77.8080  217.2640 C   0  0  0  0  0  0  0  0  0  0  0  0
  142.5990   78.9860  217.8540 C   0  0  0  0  0  0  0  0  0  0  0  0
  142.0750   79.0350  219.1520 C   0  0  0  0  0  0  0  0  0  0  0  0
  141.7210   80.3350  219.6560 C   0  0  0  0  0  0  0  0  0  0  0  0
  141.2400   81.1690  218.8240 O   0  0  0  0  0  0  0  0  0  0  0  0
  141.8550   80.7810  220.9860 N   0  0  0  0  0  0  0  0  0  0  0  0
  141.4360   82.1430  221.3200 C   0  0  0  0  0  0  0  0  0  0  0  0
  140.3200   82.0030  222.3310 C   0  0  0  0  0  0  0  0  0  0  0  0
  140.5330   81.0060  223.2400 O   0  0  0  0  0  0  0  0  0  0  0  0
  141.8410   80.5800  223.3820 C   0  0  0  0  0  0  0  0  0  0  0  0
  142.3820   79.9940  222.0810 C   0  0  0  0  0  0  0  0  0  0  0  0
  141.9410   77.8510  219.8400 C   0  0  0  0  0  0  0  0  0  0  0  0
  141.0580   75.1670  220.5890 N   0  0  0  0  0  0  0  0  0  0  0  0
  140.7440   73.9980  221.3290 C   0  0  0  0  0  0  0  0  0  0  0  0
  139.5330   73.8370  221.9560 C   0  0  0  0  0  0  0  0  0  0  0  0
  139.3010   72.6700  222.6600 C   0  0  0  0  0  0  0  0  0  0  0  0
  140.2220   71.6540  222.7710 C   0  0  0  0  0  0  0  0  0  0  0  0
  140.0200   70.4620  223.4990 N   0  0  0  0  0  0  0  0  0  0  0  0
  140.2250   70.2850  224.8830 C   0  0  0  0  0  0  0  0  0  0  0  0
  140.6890   71.2570  225.7390 C   0  0  0  0  0  0  0  0  0  0  0  0
  140.8610   71.0470  227.0930 C   0  0  0  0  0  0  0  0  0  0  0  0
  140.5570   69.8100  227.6160 C   0  0  0  0  0  0  0  0  0  0  0  0
  140.0900   68.8030  226.8030 C   0  0  0  0  0  0  0  0  0  0  0  0
  139.9270   69.0420  225.4490 C   0  0  0  0  0  0  0  0  0  0  0  0
  141.4390   71.8650  222.1150 C   0  0  0  0  0  0  0  0  0  0  0  0
  141.7030   73.0140  221.4050 C   0  0  0  0  0  0  0  0  0  0  0  0
  144.1982   74.9212  220.3912 H   0  0  0  0  0  0  0  0  0  0  0  0
  143.5391   74.1616  218.9094 H   0  0  0  0  0  0  0  0  0  0  0  0
  143.1253   75.6932  217.5096 H   0  0  0  0  0  0  0  0  0  0  0  0
  143.3813   77.7962  216.2427 H   0  0  0  0  0  0  0  0  0  0  0  0
  142.7138   79.9237  217.2905 H   0  0  0  0  0  0  0  0  0  0  0  0
  142.2760   82.7051  221.7541 H   0  0  0  0  0  0  0  0  0  0  0  0
  141.1022   82.6910  220.4266 H   0  0  0  0  0  0  0  0  0  0  0  0
  140.2202   82.9544  222.8740 H   0  0  0  0  0  0  0  0  0  0  0  0
  139.4076   81.7445  221.7736 H   0  0  0  0  0  0  0  0  0  0  0  0
  142.4660   81.4362  223.6756 H   0  0  0  0  0  0  0  0  0  0  0  0
  141.8668   79.7945  224.1517 H   0  0  0  0  0  0  0  0  0  0  0  0
  143.4811   80.0395  222.0790 H   0  0  0  0  0  0  0  0  0  0  0  0
  142.0773   78.9420  221.9785 H   0  0  0  0  0  0  0  0  0  0  0  0
  141.5330   77.8644  220.8615 H   0  0  0  0  0  0  0  0  0  0  0  0
  138.7631   74.6206  221.8993 H   0  0  0  0  0  0  0  0  0  0  0  0
  138.3279   72.5472  223.1581 H   0  0  0  0  0  0  0  0  0  0  0  0
  139.6860   69.6260  222.9450 H   0  0  0  0  0  0  0  0  0  0  0  0
  140.9342   72.2466  225.3260 H   0  0  0  0  0  0  0  0  0  0  0  0
  141.2340   71.8531  227.7419 H   0  0  0  0  0  0  0  0  0  0  0  0
  140.6886   69.6254  228.6924 H   0  0  0  0  0  0  0  0  0  0  0  0
  139.8482   67.8164  227.2252 H   0  0  0  0  0  0  0  0  0  0  0  0
  139.5538   68.2339  224.8027 H   0  0  0  0  0  0  0  0  0  0  0  0
  142.2127   71.0849  222.1684 H   0  0  0  0  0  0  0  0  0  0  0  0
  1  2  2  0
  2  3  1  0
  3  4  1  0
  4  5  1  0
  5  6  2  0
  6  7  1  0
  7  8  2  0
  8  9  1  0
  9 10  1  0
 10 11  2  0
 10 12  1  0
 12 13  1  0
 13 14  1  0
 14 15  1  0
 15 16  1  0
 16 17  1  0
  9 18  2  0
  4 19  2  0
 19 20  1  0
 20 21  2  0
 21 22  1  0
 22 23  2  0
 23 24  1  0
 24 25  1  0
 25 26  2  0
 26 27  1  0
 27 28  2  0
 28 29  1  0
 29 30  2  0
 23 31  1  0
 31 32  2  0
 32  2  1  0
 18  5  1  0
 32 20  1  0
 17 12  1  0
 30 25  1  0
  3 33  1  0
  3 34  1  0
  6 35  1  0
  7 36  1  0
  8 37  1  0
 13 38  1  0
 13 39  1  0
 14 40  1  0
 14 41  1  0
 16 42  1  0
 16 43  1  0
 17 44  1  0
 17 45  1  0
 18 46  1  0
 21 47  1  0
 22 48  1  0
 24 49  1  0
 26 50  1  0
 27 51  1  0
 28 52  1  0
 29 53  1  0
 30 54  1  0
 31 55  1  0
M  END
>  <smiles>  (30) 
O=C1CC(c2cccc(C(=O)N3CCOCC3)c2)=Nc2ccc(Nc3ccccc3)cc21

>  <score_type>  (30) 
oracle

>  <origin>  (30) 
autodockgpu

>  <m_score__min__energy>  (30) 
-9.6899999999999995

>  <m_primary>  (30) 
energy

>  <rmsd>  (30) 
9.292914257739453

>  <m_score__min__rmsd>  (30) 
9.292914257739453

>  <meeko>  (30) 
{"free_energy": -8.37, "intermolecular_energy": -9.56, "internal_energy": -0.98, "cluster_size": 15, "cluster_id": 3, "rank_in_cluster": 15}

>  <energy>  (30) 
-8.56

>  <cluster_rmsd>  (30) 
1.63

>  <cluster>  (30) 
1

$$$$

     RDKit          3D

 55 59  0  0  0  0  0  0  0  0999 V2000
  142.9710   73.4070  220.1330 O   0  0  0  0  0  0  0  0  0  0  0  0
  141.9030   73.3880  220.8270 C   0  0  0  0  0  0  0  0  0  0  0  0
  141.3400   72.0680  221.1730 C   0  0  0  0  0  0  0  0  0  0  0  0
  140.1140   72.2680  221.9680 C   0  0  0  0  0  0  0  0  0  0  0  0
  139.3910   71.0720  222.4130 C   0  0  0  0  0  0  0  0  0  0  0  0
  138.3470   70.5700  221.6240 C   0  0  0  0  0  0  0  0  0  0  0  0
  137.6460   69.4540  221.9940 C   0  0  0  0  0  0  0  0  0  0  0  0
  137.9830   68.8270  223.1630 C   0  0  0  0  0  0  0  0  0  0  0  0
  139.0180   69.2890  223.9860 C   0  0  0  0  0  0  0  0  0  0  0  0
  139.2720   68.5390  225.1870 C   0  0  0  0  0  0  0  0  0  0  0  0
  139.2690   67.2710  225.0900 O   0  0  0  0  0  0  0  0  0  0  0  0
  139.5240   69.0720  226.4670 N   0  0  0  0  0  0  0  0  0  0  0  0
  139.7670   68.1530  227.5790 C   0  0  0  0  0  0  0  0  0  0  0  0
  141.1690   68.4440  228.0660 C   0  0  0  0  0  0  0  0  0  0  0  0
  141.4760   69.7750  228.0720 O   0  0  0  0  0  0  0  0  0  0  0  0
  140.4030   70.6470  228.0560 C   0  0  0  0  0  0  0  0  0  0  0  0
  139.5670   70.4830  226.7900 C   0  0  0  0  0  0  0  0  0  0  0  0
  139.7050   70.4130  223.5890 C   0  0  0  0  0  0  0  0  0  0  0  0
  139.6160   73.3980  222.3060 N   0  0  0  0  0  0  0  0  0  0  0  0
  140.1740   74.6580  221.9650 C   0  0  0  0  0  0  0  0  0  0  0  0
  139.5940   75.8390  222.3570 C   0  0  0  0  0  0  0  0  0  0  0  0
  140.1950   77.0280  221.9850 C   0  0  0  0  0  0  0  0  0  0  0  0
  141.3500   77.0940  221.2380 C   0  0  0  0  0  0  0  0  0  0  0  0
  141.9740   78.2910  220.8280 N   0  0  0  0  0  0  0  0  0  0  0  0
  141.9170   79.5330  221.4950 C   0  0  0  0  0  0  0  0  0  0  0  0
  141.4170   80.6930  220.9510 C   0  0  0  0  0  0  0  0  0  0  0  0
  141.3650   81.8870  221.6450 C   0  0  0  0  0  0  0  0  0  0  0  0
  141.8350   81.9240  222.9370 C   0  0  0  0  0  0  0  0  0  0  0  0
  142.3460   80.7910  223.5270 C   0  0  0  0  0  0  0  0  0  0  0  0
  142.3860   79.6080  222.8090 C   0  0  0  0  0  0  0  0  0  0  0  0
  141.9010   75.8640  220.8650 C   0  0  0  0  0  0  0  0  0  0  0  0
  141.3290   74.6630  221.2180 C   0  0  0  0  0  0  0  0  0  0  0  0
  141.0979   71.5165  220.2525 H   0  0  0  0  0  0  0  0  0  0  0  0
  142.0728   71.4900  221.7551 H   0  0  0  0  0  0  0  0  0  0  0  0
  138.0853   71.0839  220.6873 H   0  0  0  0  0  0  0  0  0  0  0  0
  136.8294   69.0694  221.3653 H   0  0  0  0  0  0  0  0  0  0  0  0
  137.4224   67.9305  223.4663 H   0  0  0  0  0  0  0  0  0  0  0  0
  139.0390   68.3281  228.3849 H   0  0  0  0  0  0  0  0  0  0  0  0
  139.6609   67.1045  227.2639 H   0  0  0  0  0  0  0  0  0  0  0  0
  141.2690   68.0585  229.0914 H   0  0  0  0  0  0  0  0  0  0  0  0
  141.8635   67.9538  227.3679 H   0  0  0  0  0  0  0  0  0  0  0  0
  139.7679   70.4481  228.9318 H   0  0  0  0  0  0  0  0  0  0  0  0
  140.7937   71.6750  228.0805 H   0  0  0  0  0  0  0  0  0  0  0  0
  138.5477   70.8583  226.9636 H   0  0  0  0  0  0  0  0  0  0  0  0
  140.0103   71.0535  225.9605 H   0  0  0  0  0  0  0  0  0  0  0  0
  140.5210   70.7960  224.2195 H   0  0  0  0  0  0  0  0  0  0  0  0
  138.6704   75.8397  222.9545 H   0  0  0  0  0  0  0  0  0  0  0  0
  139.7255   77.9707  222.3027 H   0  0  0  0  0  0  0  0  0  0  0  0
  142.5340   78.2430  219.9330 H   0  0  0  0  0  0  0  0  0  0  0  0
  141.0417   80.6694  219.9173 H   0  0  0  0  0  0  0  0  0  0  0  0
  140.9550   82.7917  221.1724 H   0  0  0  0  0  0  0  0  0  0  0  0
  141.8021   82.8667  223.5030 H   0  0  0  0  0  0  0  0  0  0  0  0
  142.7198   80.8248  224.5610 H   0  0  0  0  0  0  0  0  0  0  0  0
  142.7970   78.7052  223.2845 H   0  0  0  0  0  0  0  0  0  0  0  0
  142.8248   75.8561  220.2680 H   0  0  0  0  0  0  0  0  0  0  0  0
  1  2  2  0
  2  3  1  0
  3  4  1  0
  4  5  1  0
  5  6  2  0
  6  7  1  0
  7  8  2  0
  8  9  1  0
  9 10  1  0
 10 11  2  0
 10 12  1  0
 12 13  1  0
 13 14  1  0
 14 15  1  0
 15 16  1  0
 16 17  1  0
  9 18  2  0
  4 19  2  0
 19 20  1  0
 20 21  2  0
 21 22  1  0
 22 23  2  0
 23 24  1  0
 24 25  1  0
 25 26  2  0
 26 27  1  0
 27 28  2  0
 28 29  1  0
 29 30  2  0
 23 31  1  0
 31 32  2  0
 32  2  1  0
 18  5  1  0
 32 20  1  0
 17 12  1  0
 30 25  1  0
  3 33  1  0
  3 34  1  0
  6 35  1  0
  7 36  1  0
  8 37  1  0
 13 38  1  0
 13 39  1  0
 14 40  1  0
 14 41  1  0
 16 42  1  0
 16 43  1  0
 17 44  1  0
 17 45  1  0
 18 46  1  0
 21 47  1  0
 22 48  1  0
 24 49  1  0
 26 50  1  0
 27 51  1  0
 28 52  1  0
 29 53  1  0
 30 54  1  0
 31 55  1  0
M  END
>  <smiles>  (31) 
O=C1CC(c2cccc(C(=O)N3CCOCC3)c2)=Nc2ccc(Nc3ccccc3)cc21

>  <score_type>  (31) 
oracle

>  <origin>  (31) 
autodockgpu

>  <m_score__min__energy>  (31) 
-9.6899999999999995

>  <m_primary>  (31) 
energy

>  <rmsd>  (31) 
6.674216297978054

>  <m_score__min__rmsd>  (31) 
6.674216297978054

>  <meeko>  (31) 
{"free_energy": -9.25, "intermolecular_energy": -10.44, "internal_energy": -0.99, "cluster_size": 32, "cluster_id": 1, "rank_in_cluster": 16}

>  <energy>  (31) 
-8.53

>  <cluster_rmsd>  (31) 
1.52

>  <cluster>  (31) 
1

$$$$

     RDKit          3D

 55 59  0  0  0  0  0  0  0  0999 V2000
  143.5790   71.9180  220.9050 O   0  0  0  0  0  0  0  0  0  0  0  0
  142.7280   72.8650  220.8410 C   0  0  0  0  0  0  0  0  0  0  0  0
  143.1210   74.0830  220.1030 C   0  0  0  0  0  0  0  0  0  0  0  0
  142.0060   75.0480  220.1530 C   0  0  0  0  0  0  0  0  0  0  0  0
  142.1940   76.3370  219.4790 C   0  0  0  0  0  0  0  0  0  0  0  0
  142.7440   76.3610  218.1910 C   0  0  0  0  0  0  0  0  0  0  0  0
  142.9340   77.5380  217.5190 C   0  0  0  0  0  0  0  0  0  0  0  0
  142.5750   78.7080  218.1320 C   0  0  0  0  0  0  0  0  0  0  0  0
  142.0210   78.7360  219.4190 C   0  0  0  0  0  0  0  0  0  0  0  0
  141.6870   80.0300  219.9490 C   0  0  0  0  0  0  0  0  0  0  0  0
  141.1860   80.8770  219.1430 O   0  0  0  0  0  0  0  0  0  0  0  0
  141.8600   80.4580  221.2810 N   0  0  0  0  0  0  0  0  0  0  0  0
  141.4560   81.8160  221.6450 C   0  0  0  0  0  0  0  0  0  0  0  0
  140.3680   81.6670  222.6850 C   0  0  0  0  0  0  0  0  0  0  0  0
  140.6030   80.6570  223.5750 O   0  0  0  0  0  0  0  0  0  0  0  0
  141.9120   80.2250  223.6740 C   0  0  0  0  0  0  0  0  0  0  0  0
  142.4140   79.6540  222.3500 C   0  0  0  0  0  0  0  0  0  0  0  0
  141.8420   77.5380  220.0700 C   0  0  0  0  0  0  0  0  0  0  0  0
  140.8810   74.8640  220.7380 N   0  0  0  0  0  0  0  0  0  0  0  0
  140.5230   73.6840  221.4400 C   0  0  0  0  0  0  0  0  0  0  0  0
  139.2990   73.5440  222.0480 C   0  0  0  0  0  0  0  0  0  0  0  0
  139.0220   72.3650  222.7150 C   0  0  0  0  0  0  0  0  0  0  0  0
  139.9100   71.3170  222.8070 C   0  0  0  0  0  0  0  0  0  0  0  0
  139.6620   70.1120  223.4970 N   0  0  0  0  0  0  0  0  0  0  0  0
  139.9100   69.8670  224.8640 C   0  0  0  0  0  0  0  0  0  0  0  0
  139.6950   68.6650  225.4980 C   0  0  0  0  0  0  0  0  0  0  0  0
  139.9660   68.4630  226.8380 C   0  0  0  0  0  0  0  0  0  0  0  0
  140.4720   69.5070  227.5770 C   0  0  0  0  0  0  0  0  0  0  0  0
  140.7050   70.7300  226.9910 C   0  0  0  0  0  0  0  0  0  0  0  0
  140.4250   70.9050  225.6460 C   0  0  0  0  0  0  0  0  0  0  0  0
  141.1410   71.5080  222.1710 C   0  0  0  0  0  0  0  0  0  0  0  0
  141.4490   72.6690  221.4980 C   0  0  0  0  0  0  0  0  0  0  0  0
  144.0143   74.5254  220.5681 H   0  0  0  0  0  0  0  0  0  0  0  0
  143.3502   73.8296  219.0574 H   0  0  0  0  0  0  0  0  0  0  0  0
  143.0292   75.4140  217.7095 H   0  0  0  0  0  0  0  0  0  0  0  0
  143.3662   77.5436  216.5075 H   0  0  0  0  0  0  0  0  0  0  0  0
  142.7262   79.6572  217.5971 H   0  0  0  0  0  0  0  0  0  0  0  0
  142.3101   82.3690  222.0630 H   0  0  0  0  0  0  0  0  0  0  0  0
  141.0993   82.3770  220.7686 H   0  0  0  0  0  0  0  0  0  0  0  0
  140.2871   82.6116  223.2429 H   0  0  0  0  0  0  0  0  0  0  0  0
  139.4392   81.4192  222.1503 H   0  0  0  0  0  0  0  0  0  0  0  0
  142.5483   81.0752  223.9609 H   0  0  0  0  0  0  0  0  0  0  0  0
  141.9566   79.4293  224.4322 H   0  0  0  0  0  0  0  0  0  0  0  0
  143.5128   79.6950  222.3178 H   0  0  0  0  0  0  0  0  0  0  0  0
  142.1020   78.6047  222.2420 H   0  0  0  0  0  0  0  0  0  0  0  0
  141.4100   77.5341  221.0816 H   0  0  0  0  0  0  0  0  0  0  0  0
  138.5549   74.3530  222.0051 H   0  0  0  0  0  0  0  0  0  0  0  0
  138.0395   72.2587  223.1980 H   0  0  0  0  0  0  0  0  0  0  0  0
  139.2540   69.3210  222.9270 H   0  0  0  0  0  0  0  0  0  0  0  0
  139.2892   67.8272  224.9120 H   0  0  0  0  0  0  0  0  0  0  0  0
  139.7804   67.4847  227.3053 H   0  0  0  0  0  0  0  0  0  0  0  0
  140.6922   69.3630  228.6451 H   0  0  0  0  0  0  0  0  0  0  0  0
  141.1103   71.5618  227.5859 H   0  0  0  0  0  0  0  0  0  0  0  0
  140.6124   71.8845  225.1818 H   0  0  0  0  0  0  0  0  0  0  0  0
  141.8892   70.7026  222.2099 H   0  0  0  0  0  0  0  0  0  0  0  0
  1  2  2  0
  2  3  1  0
  3  4  1  0
  4  5  1  0
  5  6  2  0
  6  7  1  0
  7  8  2  0
  8  9  1  0
  9 10  1  0
 10 11  2  0
 10 12  1  0
 12 13  1  0
 13 14  1  0
 14 15  1  0
 15 16  1  0
 16 17  1  0
  9 18  2  0
  4 19  2  0
 19 20  1  0
 20 21  2  0
 21 22  1  0
 22 23  2  0
 23 24  1  0
 24 25  1  0
 25 26  2  0
 26 27  1  0
 27 28  2  0
 28 29  1  0
 29 30  2  0
 23 31  1  0
 31 32  2  0
 32  2  1  0
 18  5  1  0
 32 20  1  0
 17 12  1  0
 30 25  1  0
  3 33  1  0
  3 34  1  0
  6 35  1  0
  7 36  1  0
  8 37  1  0
 13 38  1  0
 13 39  1  0
 14 40  1  0
 14 41  1  0
 16 42  1  0
 16 43  1  0
 17 44  1  0
 17 45  1  0
 18 46  1  0
 21 47  1  0
 22 48  1  0
 24 49  1  0
 26 50  1  0
 27 51  1  0
 28 52  1  0
 29 53  1  0
 30 54  1  0
 31 55  1  0
M  END
>  <smiles>  (32) 
O=C1CC(c2cccc(C(=O)N3CCOCC3)c2)=Nc2ccc(Nc3ccccc3)cc21

>  <score_type>  (32) 
oracle

>  <origin>  (32) 
autodockgpu

>  <m_score__min__energy>  (32) 
-9.6899999999999995

>  <m_primary>  (32) 
energy

>  <rmsd>  (32) 
9.852866622159018

>  <m_score__min__rmsd>  (32) 
9.852866622159018

>  <meeko>  (32) 
{"free_energy": -8.38, "intermolecular_energy": -9.57, "internal_energy": -1.01, "cluster_size": 15, "cluster_id": 3, "rank_in_cluster": 13}

>  <energy>  (32) 
-8.44

>  <cluster_rmsd>  (32) 
1.02

>  <cluster>  (32) 
1

$$$$

     RDKit          3D

 55 59  0  0  0  0  0  0  0  0999 V2000
  143.8780   72.3560  220.8430 O   0  0  0  0  0  0  0  0  0  0  0  0
  142.9910   73.2660  220.7490 C   0  0  0  0  0  0  0  0  0  0  0  0
  143.3440   74.4820  219.9880 C   0  0  0  0  0  0  0  0  0  0  0  0
  142.1910   75.4030  220.0060 C   0  0  0  0  0  0  0  0  0  0  0  0
  142.3360   76.6830  219.3040 C   0  0  0  0  0  0  0  0  0  0  0  0
  142.8440   76.6950  217.9990 C   0  0  0  0  0  0  0  0  0  0  0  0
  142.9930   77.8630  217.3010 C   0  0  0  0  0  0  0  0  0  0  0  0
  142.6330   79.0370  217.9070 C   0  0  0  0  0  0  0  0  0  0  0  0
  142.1200   79.0780  219.2090 C   0  0  0  0  0  0  0  0  0  0  0  0
  141.7800   80.3750  219.7290 C   0  0  0  0  0  0  0  0  0  0  0  0
  141.3940   81.2530  218.8920 O   0  0  0  0  0  0  0  0  0  0  0  0
  141.8340   80.7750  221.0790 N   0  0  0  0  0  0  0  0  0  0  0  0
  141.4440   82.1420  221.4270 C   0  0  0  0  0  0  0  0  0  0  0  0
  140.2520   82.0170  222.3490 C   0  0  0  0  0  0  0  0  0  0  0  0
  140.3600   80.9860  223.2390 O   0  0  0  0  0  0  0  0  0  0  0  0
  141.6370   80.5030  223.4600 C   0  0  0  0  0  0  0  0  0  0  0  0
  142.2490   79.9340  222.1830 C   0  0  0  0  0  0  0  0  0  0  0  0
  141.9820   77.8880  219.8860 C   0  0  0  0  0  0  0  0  0  0  0  0
  141.0680   75.1870  220.5820 N   0  0  0  0  0  0  0  0  0  0  0  0
  140.7490   74.0110  221.3080 C   0  0  0  0  0  0  0  0  0  0  0  0
  139.5250   73.8360  221.9060 C   0  0  0  0  0  0  0  0  0  0  0  0
  139.2870   72.6620  222.5970 C   0  0  0  0  0  0  0  0  0  0  0  0
  140.2150   71.6520  222.7210 C   0  0  0  0  0  0  0  0  0  0  0  0
  140.0070   70.4540  223.4360 N   0  0  0  0  0  0  0  0  0  0  0  0
  140.1820   70.2690  224.8240 C   0  0  0  0  0  0  0  0  0  0  0  0
  139.9270   69.0970  225.4980 C   0  0  0  0  0  0  0  0  0  0  0  0
  140.1270   68.9530  226.8570 C   0  0  0  0  0  0  0  0  0  0  0  0
  140.6020   70.0260  227.5750 C   0  0  0  0  0  0  0  0  0  0  0  0
  140.8730   71.2210  226.9490 C   0  0  0  0  0  0  0  0  0  0  0  0
  140.6630   71.3370  225.5850 C   0  0  0  0  0  0  0  0  0  0  0  0
  141.4440   71.8780  222.0940 C   0  0  0  0  0  0  0  0  0  0  0  0
  141.7140   73.0340  221.3980 C   0  0  0  0  0  0  0  0  0  0  0  0
  144.2142   74.9693  220.4519 H   0  0  0  0  0  0  0  0  0  0  0  0
  143.5944   74.2153  218.9506 H   0  0  0  0  0  0  0  0  0  0  0  0
  143.1296   75.7447  217.5243 H   0  0  0  0  0  0  0  0  0  0  0  0
  143.3929   77.8586  216.2763 H   0  0  0  0  0  0  0  0  0  0  0  0
  142.7508   79.9795  217.3522 H   0  0  0  0  0  0  0  0  0  0  0  0
  142.2706   82.6559  221.9395 H   0  0  0  0  0  0  0  0  0  0  0  0
  141.1982   82.7300  220.5304 H   0  0  0  0  0  0  0  0  0  0  0  0
  140.1479   82.9554  222.9134 H   0  0  0  0  0  0  0  0  0  0  0  0
  139.3742   81.8112  221.7188 H   0  0  0  0  0  0  0  0  0  0  0  0
  142.2714   81.3241  223.8253 H   0  0  0  0  0  0  0  0  0  0  0  0
  141.5761   79.6945  224.2033 H   0  0  0  0  0  0  0  0  0  0  0  0
  143.3462   79.9345  222.2616 H   0  0  0  0  0  0  0  0  0  0  0  0
  141.9126   78.8988  222.0244 H   0  0  0  0  0  0  0  0  0  0  0  0
  141.5822   77.8944  220.9107 H   0  0  0  0  0  0  0  0  0  0  0  0
  138.7500   74.6136  221.8367 H   0  0  0  0  0  0  0  0  0  0  0  0
  138.3044   72.5278  223.0728 H   0  0  0  0  0  0  0  0  0  0  0  0
  139.6930   69.6190  222.8700 H   0  0  0  0  0  0  0  0  0  0  0  0
  139.5467   68.2359  224.9289 H   0  0  0  0  0  0  0  0  0  0  0  0
  139.9103   67.9972  227.3564 H   0  0  0  0  0  0  0  0  0  0  0  0
  140.7665   69.9279  228.6582 H   0  0  0  0  0  0  0  0  0  0  0  0
  141.2530   72.0765  227.5267 H   0  0  0  0  0  0  0  0  0  0  0  0
  140.8804   72.2942  225.0885 H   0  0  0  0  0  0  0  0  0  0  0  0
  142.2230   71.1041  222.1594 H   0  0  0  0  0  0  0  0  0  0  0  0
  1  2  2  0
  2  3  1  0
  3  4  1  0
  4  5  1  0
  5  6  2  0
  6  7  1  0
  7  8  2  0
  8  9  1  0
  9 10  1  0
 10 11  2  0
 10 12  1  0
 12 13  1  0
 13 14  1  0
 14 15  1  0
 15 16  1  0
 16 17  1  0
  9 18  2  0
  4 19  2  0
 19 20  1  0
 20 21  2  0
 21 22  1  0
 22 23  2  0
 23 24  1  0
 24 25  1  0
 25 26  2  0
 26 27  1  0
 27 28  2  0
 28 29  1  0
 29 30  2  0
 23 31  1  0
 31 32  2  0
 32  2  1  0
 18  5  1  0
 32 20  1  0
 17 12  1  0
 30 25  1  0
  3 33  1  0
  3 34  1  0
  6 35  1  0
  7 36  1  0
  8 37  1  0
 13 38  1  0
 13 39  1  0
 14 40  1  0
 14 41  1  0
 16 42  1  0
 16 43  1  0
 17 44  1  0
 17 45  1  0
 18 46  1  0
 21 47  1  0
 22 48  1  0
 24 49  1  0
 26 50  1  0
 27 51  1  0
 28 52  1  0
 29 53  1  0
 30 54  1  0
 31 55  1  0
M  END
>  <smiles>  (33) 
O=C1CC(c2cccc(C(=O)N3CCOCC3)c2)=Nc2ccc(Nc3ccccc3)cc21

>  <score_type>  (33) 
oracle

>  <origin>  (33) 
autodockgpu

>  <m_score__min__energy>  (33) 
-9.6899999999999995

>  <m_primary>  (33) 
energy

>  <rmsd>  (33) 
9.53374781359814

>  <m_score__min__rmsd>  (33) 
9.53374781359814

>  <meeko>  (33) 
{"free_energy": -8.41, "intermolecular_energy": -9.6, "internal_energy": -0.98, "cluster_size": 15, "cluster_id": 3, "rank_in_cluster": 5}

>  <energy>  (33) 
-8.43

>  <cluster_rmsd>  (33) 
0.0

>  <cluster>  (33) 
2

$$$$

     RDKit          3D

 55 59  0  0  0  0  0  0  0  0999 V2000
  142.9840   74.0390  219.6370 O   0  0  0  0  0  0  0  0  0  0  0  0
  142.0370   73.8200  220.4610 C   0  0  0  0  0  0  0  0  0  0  0  0
  141.6980   72.4120  220.7480 C   0  0  0  0  0  0  0  0  0  0  0  0
  140.5820   72.3800  221.7130 C   0  0  0  0  0  0  0  0  0  0  0  0
  140.0840   71.0650  222.1310 C   0  0  0  0  0  0  0  0  0  0  0  0
  139.7170   70.1300  221.1540 C   0  0  0  0  0  0  0  0  0  0  0  0
  139.2510   68.8880  221.4940 C   0  0  0  0  0  0  0  0  0  0  0  0
  139.1480   68.5680  222.8210 C   0  0  0  0  0  0  0  0  0  0  0  0
  139.5040   69.4680  223.8350 C   0  0  0  0  0  0  0  0  0  0  0  0
  139.3480   69.0080  225.1890 C   0  0  0  0  0  0  0  0  0  0  0  0
  138.9100   67.8250  225.3540 O   0  0  0  0  0  0  0  0  0  0  0  0
  139.6330   69.7410  226.3580 N   0  0  0  0  0  0  0  0  0  0  0  0
  139.4180   69.1080  227.6590 C   0  0  0  0  0  0  0  0  0  0  0  0
  140.7730   69.0550  228.3300 C   0  0  0  0  0  0  0  0  0  0  0  0
  141.5250   70.1770  228.1230 O   0  0  0  0  0  0  0  0  0  0  0  0
  140.8340   71.3090  227.7300 C   0  0  0  0  0  0  0  0  0  0  0  0
  140.1340   71.1000  226.3900 C   0  0  0  0  0  0  0  0  0  0  0  0
  139.9670   70.7080  223.4630 C   0  0  0  0  0  0  0  0  0  0  0  0
  140.0010   73.4020  222.2210 N   0  0  0  0  0  0  0  0  0  0  0  0
  140.3430   74.7480  221.9330 C   0  0  0  0  0  0  0  0  0  0  0  0
  139.6830   75.8050  222.5100 C   0  0  0  0  0  0  0  0  0  0  0  0
  140.0730   77.0900  222.1790 C   0  0  0  0  0  0  0  0  0  0  0  0
  141.0920   77.3710  221.2970 C   0  0  0  0  0  0  0  0  0  0  0  0
  141.4970   78.6710  220.9260 N   0  0  0  0  0  0  0  0  0  0  0  0
  141.7430   79.7500  221.8010 C   0  0  0  0  0  0  0  0  0  0  0  0
  142.4680   79.6660  222.9670 C   0  0  0  0  0  0  0  0  0  0  0  0
  142.6990   80.7530  223.7880 C   0  0  0  0  0  0  0  0  0  0  0  0
  142.1810   81.9760  223.4300 C   0  0  0  0  0  0  0  0  0  0  0  0
  141.4480   82.1140  222.2750 C   0  0  0  0  0  0  0  0  0  0  0  0
  141.2330   81.0080  221.4690 C   0  0  0  0  0  0  0  0  0  0  0  0
  141.7330   76.2620  220.7370 C   0  0  0  0  0  0  0  0  0  0  0  0
  141.3710   74.9690  221.0450 C   0  0  0  0  0  0  0  0  0  0  0  0
  141.3976   71.9069  219.8181 H   0  0  0  0  0  0  0  0  0  0  0  0
  142.5725   71.8950  221.1699 H   0  0  0  0  0  0  0  0  0  0  0  0
  139.8051   70.3994  220.0912 H   0  0  0  0  0  0  0  0  0  0  0  0
  138.9656   68.1631  220.7175 H   0  0  0  0  0  0  0  0  0  0  0  0
  138.7737   67.5722  223.1007 H   0  0  0  0  0  0  0  0  0  0  0  0
  138.7167   69.7036  228.2619 H   0  0  0  0  0  0  0  0  0  0  0  0
  138.9846   68.1029  227.5497 H   0  0  0  0  0  0  0  0  0  0  0  0
  140.6215   68.9315  229.4125 H   0  0  0  0  0  0  0  0  0  0  0  0
  141.3216   68.2101  227.8881 H   0  0  0  0  0  0  0  0  0  0  0  0
  140.0798   71.5504  228.4934 H   0  0  0  0  0  0  0  0  0  0  0  0
  141.5552   72.1320  227.6180 H   0  0  0  0  0  0  0  0  0  0  0  0
  139.2989   71.8089  226.2897 H   0  0  0  0  0  0  0  0  0  0  0  0
  140.8355   71.2700  225.5600 H   0  0  0  0  0  0  0  0  0  0  0  0
  140.2506   71.4321  224.2410 H   0  0  0  0  0  0  0  0  0  0  0  0
  138.8612   75.6332  223.2207 H   0  0  0  0  0  0  0  0  0  0  0  0
  139.5407   77.9322  222.6452 H   0  0  0  0  0  0  0  0  0  0  0  0
  141.6250   78.8430  219.8910 H   0  0  0  0  0  0  0  0  0  0  0  0
  142.8824   78.6897  223.2588 H   0  0  0  0  0  0  0  0  0  0  0  0
  143.2866   80.6424  224.7113 H   0  0  0  0  0  0  0  0  0  0  0  0
  142.3547   82.8512  224.0734 H   0  0  0  0  0  0  0  0  0  0  0  0
  141.0358   83.0942  221.9934 H   0  0  0  0  0  0  0  0  0  0  0  0
  140.6467   81.1228  220.5454 H   0  0  0  0  0  0  0  0  0  0  0  0
  142.5553   76.4277  220.0254 H   0  0  0  0  0  0  0  0  0  0  0  0
  1  2  2  0
  2  3  1  0
  3  4  1  0
  4  5  1  0
  5  6  2  0
  6  7  1  0
  7  8  2  0
  8  9  1  0
  9 10  1  0
 10 11  2  0
 10 12  1  0
 12 13  1  0
 13 14  1  0
 14 15  1  0
 15 16  1  0
 16 17  1  0
  9 18  2  0
  4 19  2  0
 19 20  1  0
 20 21  2  0
 21 22  1  0
 22 23  2  0
 23 24  1  0
 24 25  1  0
 25 26  2  0
 26 27  1  0
 27 28  2  0
 28 29  1  0
 29 30  2  0
 23 31  1  0
 31 32  2  0
 32  2  1  0
 18  5  1  0
 32 20  1  0
 17 12  1  0
 30 25  1  0
  3 33  1  0
  3 34  1  0
  6 35  1  0
  7 36  1  0
  8 37  1  0
 13 38  1  0
 13 39  1  0
 14 40  1  0
 14 41  1  0
 16 42  1  0
 16 43  1  0
 17 44  1  0
 17 45  1  0
 18 46  1  0
 21 47  1  0
 22 48  1  0
 24 49  1  0
 26 50  1  0
 27 51  1  0
 28 52  1  0
 29 53  1  0
 30 54  1  0
 31 55  1  0
M  END
>  <smiles>  (34) 
O=C1CC(c2cccc(C(=O)N3CCOCC3)c2)=Nc2ccc(Nc3ccccc3)cc21

>  <score_type>  (34) 
oracle

>  <origin>  (34) 
autodockgpu

>  <m_score__min__energy>  (34) 
-9.6899999999999995

>  <m_primary>  (34) 
energy

>  <rmsd>  (34) 
6.776106912417224

>  <m_score__min__rmsd>  (34) 
6.776106912417224

>  <meeko>  (34) 
{"free_energy": -9.15, "intermolecular_energy": -10.35, "internal_energy": -0.87, "cluster_size": 32, "cluster_id": 1, "rank_in_cluster": 18}

>  <energy>  (34) 
-8.42

>  <cluster_rmsd>  (34) 
0.0

>  <cluster>  (34) 
3

$$$$

     RDKit          3D

 55 59  0  0  0  0  0  0  0  0999 V2000
  143.1960   73.3970  220.1480 O   0  0  0  0  0  0  0  0  0  0  0  0
  142.1270   73.3220  220.8380 C   0  0  0  0  0  0  0  0  0  0  0  0
  141.6410   71.9730  221.1920 C   0  0  0  0  0  0  0  0  0  0  0  0
  140.4010   72.1070  221.9800 C   0  0  0  0  0  0  0  0  0  0  0  0
  139.7470   70.8740  222.4310 C   0  0  0  0  0  0  0  0  0  0  0  0
  138.9380   70.1620  221.5360 C   0  0  0  0  0  0  0  0  0  0  0  0
  138.3100   69.0040  221.9080 C   0  0  0  0  0  0  0  0  0  0  0  0
  138.4860   68.5450  223.1860 C   0  0  0  0  0  0  0  0  0  0  0  0
  139.2850   69.2210  224.1170 C   0  0  0  0  0  0  0  0  0  0  0  0
  139.3870   68.6330  225.4260 C   0  0  0  0  0  0  0  0  0  0  0  0
  139.1930   67.3790  225.5160 O   0  0  0  0  0  0  0  0  0  0  0  0
  139.6820   69.3110  226.6250 N   0  0  0  0  0  0  0  0  0  0  0  0
  139.7510   68.5460  227.8710 C   0  0  0  0  0  0  0  0  0  0  0  0
  141.1660   68.6980  228.3810 C   0  0  0  0  0  0  0  0  0  0  0  0
  141.6720   69.9550  228.2080 O   0  0  0  0  0  0  0  0  0  0  0  0
  140.7460   70.9630  228.0110 C   0  0  0  0  0  0  0  0  0  0  0  0
  139.9310   70.7330  226.7420 C   0  0  0  0  0  0  0  0  0  0  0  0
  139.9030   70.3820  223.7150 C   0  0  0  0  0  0  0  0  0  0  0  0
  139.8370   73.2090  222.3080 N   0  0  0  0  0  0  0  0  0  0  0  0
  140.3220   74.4960  221.9600 C   0  0  0  0  0  0  0  0  0  0  0  0
  139.6730   75.6450  222.3400 C   0  0  0  0  0  0  0  0  0  0  0  0
  140.2060   76.8640  221.9620 C   0  0  0  0  0  0  0  0  0  0  0  0
  141.3580   76.9920  221.2190 C   0  0  0  0  0  0  0  0  0  0  0  0
  141.9130   78.2200  220.8030 N   0  0  0  0  0  0  0  0  0  0  0  0
  141.8530   79.4430  221.5030 C   0  0  0  0  0  0  0  0  0  0  0  0
  141.2740   80.5940  221.0220 C   0  0  0  0  0  0  0  0  0  0  0  0
  141.2220   81.7690  221.7470 C   0  0  0  0  0  0  0  0  0  0  0  0
  141.7760   81.7960  223.0070 C   0  0  0  0  0  0  0  0  0  0  0  0
  142.3680   80.6710  223.5340 C   0  0  0  0  0  0  0  0  0  0  0  0
  142.4050   79.5070  222.7850 C   0  0  0  0  0  0  0  0  0  0  0  0
  141.9820   75.7930  220.8570 C   0  0  0  0  0  0  0  0  0  0  0  0
  141.4790   74.5630  221.2170 C   0  0  0  0  0  0  0  0  0  0  0  0
  141.4365   71.4011  220.2749 H   0  0  0  0  0  0  0  0  0  0  0  0
  142.4037   71.4434  221.7818 H   0  0  0  0  0  0  0  0  0  0  0  0
  138.8046   70.5417  220.5122 H   0  0  0  0  0  0  0  0  0  0  0  0
  137.6776   68.4540  221.1956 H   0  0  0  0  0  0  0  0  0  0  0  0
  137.9837   67.6153  223.4915 H   0  0  0  0  0  0  0  0  0  0  0  0
  139.0361   68.9467  228.6047 H   0  0  0  0  0  0  0  0  0  0  0  0
  139.4952   67.4888  227.7071 H   0  0  0  0  0  0  0  0  0  0  0  0
  141.1768   68.4624  229.4554 H   0  0  0  0  0  0  0  0  0  0  0  0
  141.7971   68.0105  227.7988 H   0  0  0  0  0  0  0  0  0  0  0  0
  140.0637   70.9951  228.8732 H   0  0  0  0  0  0  0  0  0  0  0  0
  141.2883   71.9142  227.9054 H   0  0  0  0  0  0  0  0  0  0  0  0
  138.9763   71.2755  226.8074 H   0  0  0  0  0  0  0  0  0  0  0  0
  140.4799   71.0998  225.8621 H   0  0  0  0  0  0  0  0  0  0  0  0
  140.5345   70.9310  224.4290 H   0  0  0  0  0  0  0  0  0  0  0  0
  138.7478   75.5968  222.9331 H   0  0  0  0  0  0  0  0  0  0  0  0
  139.6815   77.7801  222.2715 H   0  0  0  0  0  0  0  0  0  0  0  0
  142.4190   78.2130  219.8750 H   0  0  0  0  0  0  0  0  0  0  0  0
  140.8324   80.5784  220.0147 H   0  0  0  0  0  0  0  0  0  0  0  0
  140.7465   82.6667  221.3250 H   0  0  0  0  0  0  0  0  0  0  0  0
  141.7452   82.7239  223.5970 H   0  0  0  0  0  0  0  0  0  0  0  0
  142.8081   80.6963  224.5418 H   0  0  0  0  0  0  0  0  0  0  0  0
  142.8806   78.6107  223.2097 H   0  0  0  0  0  0  0  0  0  0  0  0
  142.9073   75.8347  220.2637 H   0  0  0  0  0  0  0  0  0  0  0  0
  1  2  2  0
  2  3  1  0
  3  4  1  0
  4  5  1  0
  5  6  2  0
  6  7  1  0
  7  8  2  0
  8  9  1  0
  9 10  1  0
 10 11  2  0
 10 12  1  0
 12 13  1  0
 13 14  1  0
 14 15  1  0
 15 16  1  0
 16 17  1  0
  9 18  2  0
  4 19  2  0
 19 20  1  0
 20 21  2  0
 21 22  1  0
 22 23  2  0
 23 24  1  0
 24 25  1  0
 25 26  2  0
 26 27  1  0
 27 28  2  0
 28 29  1  0
 29 30  2  0
 23 31  1  0
 31 32  2  0
 32  2  1  0
 18  5  1  0
 32 20  1  0
 17 12  1  0
 30 25  1  0
  3 33  1  0
  3 34  1  0
  6 35  1  0
  7 36  1  0
  8 37  1  0
 13 38  1  0
 13 39  1  0
 14 40  1  0
 14 41  1  0
 16 42  1  0
 16 43  1  0
 17 44  1  0
 17 45  1  0
 18 46  1  0
 21 47  1  0
 22 48  1  0
 24 49  1  0
 26 50  1  0
 27 51  1  0
 28 52  1  0
 29 53  1  0
 30 54  1  0
 31 55  1  0
M  END
>  <smiles>  (35) 
O=C1CC(c2cccc(C(=O)N3CCOCC3)c2)=Nc2ccc(Nc3ccccc3)cc21

>  <score_type>  (35) 
oracle

>  <origin>  (35) 
autodockgpu

>  <m_score__min__energy>  (35) 
-9.6899999999999995

>  <m_primary>  (35) 
energy

>  <rmsd>  (35) 
6.7051257085141005

>  <m_score__min__rmsd>  (35) 
6.7051257085141005

>  <meeko>  (35) 
{"free_energy": -9.48, "intermolecular_energy": -10.68, "internal_energy": -0.93, "cluster_size": 32, "cluster_id": 1, "rank_in_cluster": 10}

>  <energy>  (35) 
-8.42

>  <cluster_rmsd>  (35) 
0.06

>  <cluster>  (35) 
3

$$$$

     RDKit          3D

 55 59  0  0  0  0  0  0  0  0999 V2000
  142.7090   73.4910  220.1820 O   0  0  0  0  0  0  0  0  0  0  0  0
  141.6410   73.5710  220.8720 C   0  0  0  0  0  0  0  0  0  0  0  0
  140.9820   72.3050  221.2540 C   0  0  0  0  0  0  0  0  0  0  0  0
  139.7720   72.6180  222.0370 C   0  0  0  0  0  0  0  0  0  0  0  0
  138.9620   71.4920  222.5140 C   0  0  0  0  0  0  0  0  0  0  0  0
  137.6420   71.3590  222.0630 C   0  0  0  0  0  0  0  0  0  0  0  0
  136.8480   70.3240  222.4740 C   0  0  0  0  0  0  0  0  0  0  0  0
  137.3690   69.4050  223.3460 C   0  0  0  0  0  0  0  0  0  0  0  0
  138.6830   69.4940  223.8250 C   0  0  0  0  0  0  0  0  0  0  0  0
  139.1080   68.4660  224.7360 C   0  0  0  0  0  0  0  0  0  0  0  0
  139.2150   67.2860  224.2710 O   0  0  0  0  0  0  0  0  0  0  0  0
  139.4180   68.6340  226.1000 N   0  0  0  0  0  0  0  0  0  0  0  0
  139.8410   67.4680  226.8780 C   0  0  0  0  0  0  0  0  0  0  0  0
  141.2460   67.7660  227.3510 C   0  0  0  0  0  0  0  0  0  0  0  0
  141.4260   69.0660  227.7320 O   0  0  0  0  0  0  0  0  0  0  0  0
  140.2790   69.7770  228.0330 C   0  0  0  0  0  0  0  0  0  0  0  0
  139.3560   69.8870  226.8220 C   0  0  0  0  0  0  0  0  0  0  0  0
  139.4570   70.5460  223.3950 C   0  0  0  0  0  0  0  0  0  0  0  0
  139.3580   73.7920  222.3410 N   0  0  0  0  0  0  0  0  0  0  0  0
  140.0080   74.9960  221.9660 C   0  0  0  0  0  0  0  0  0  0  0  0
  139.5160   76.2280  222.3210 C   0  0  0  0  0  0  0  0  0  0  0  0
  140.2040   77.3580  221.9180 C   0  0  0  0  0  0  0  0  0  0  0  0
  141.3610   77.3170  221.1740 C   0  0  0  0  0  0  0  0  0  0  0  0
  142.0730   78.4530  220.7320 N   0  0  0  0  0  0  0  0  0  0  0  0
  141.8390   79.7880  221.1220 C   0  0  0  0  0  0  0  0  0  0  0  0
  141.4240   80.7910  220.2770 C   0  0  0  0  0  0  0  0  0  0  0  0
  141.1910   82.0850  220.7030 C   0  0  0  0  0  0  0  0  0  0  0  0
  141.3820   82.3900  222.0310 C   0  0  0  0  0  0  0  0  0  0  0  0
  141.7970   81.4240  222.9170 C   0  0  0  0  0  0  0  0  0  0  0  0
  142.0230   80.1350  222.4630 C   0  0  0  0  0  0  0  0  0  0  0  0
  141.8220   76.0400  220.8380 C   0  0  0  0  0  0  0  0  0  0  0  0
  141.1620   74.8950  221.2240 C   0  0  0  0  0  0  0  0  0  0  0  0
  140.7026   71.7456  220.3490 H   0  0  0  0  0  0  0  0  0  0  0  0
  141.6691   71.6921  221.8558 H   0  0  0  0  0  0  0  0  0  0  0  0
  137.2353   72.1036  221.3628 H   0  0  0  0  0  0  0  0  0  0  0  0
  135.8134   70.2315  222.1121 H   0  0  0  0  0  0  0  0  0  0  0  0
  136.7357   68.5704  223.6810 H   0  0  0  0  0  0  0  0  0  0  0  0
  139.1719   67.3202  227.7385 H   0  0  0  0  0  0  0  0  0  0  0  0
  139.8068   66.5488  226.2748 H   0  0  0  0  0  0  0  0  0  0  0  0
  141.4698   67.1166  228.2102 H   0  0  0  0  0  0  0  0  0  0  0  0
  141.9207   67.5799  226.5024 H   0  0  0  0  0  0  0  0  0  0  0  0
  139.7433   69.2643  228.8455 H   0  0  0  0  0  0  0  0  0  0  0  0
  140.5720   70.7926  228.3375 H   0  0  0  0  0  0  0  0  0  0  0  0
  138.3246   70.0763  227.1542 H   0  0  0  0  0  0  0  0  0  0  0  0
  139.6711   70.7184  226.1743 H   0  0  0  0  0  0  0  0  0  0  0  0
  140.4911   70.6377  223.7587 H   0  0  0  0  0  0  0  0  0  0  0  0
  138.5935   76.3143  222.9138 H   0  0  0  0  0  0  0  0  0  0  0  0
  139.8053   78.3415  222.2074 H   0  0  0  0  0  0  0  0  0  0  0  0
  142.8530   78.2760  220.0410 H   0  0  0  0  0  0  0  0  0  0  0  0
  141.2706   80.5524  219.2142 H   0  0  0  0  0  0  0  0  0  0  0  0
  140.8589   82.8570  219.9933 H   0  0  0  0  0  0  0  0  0  0  0  0
  141.2012   83.4151  222.3868 H   0  0  0  0  0  0  0  0  0  0  0  0
  141.9483   81.6728  223.9778 H   0  0  0  0  0  0  0  0  0  0  0  0
  142.3554   79.3657  223.1755 H   0  0  0  0  0  0  0  0  0  0  0  0
  142.7437   75.9472  220.2449 H   0  0  0  0  0  0  0  0  0  0  0  0
  1  2  2  0
  2  3  1  0
  3  4  1  0
  4  5  1  0
  5  6  2  0
  6  7  1  0
  7  8  2  0
  8  9  1  0
  9 10  1  0
 10 11  2  0
 10 12  1  0
 12 13  1  0
 13 14  1  0
 14 15  1  0
 15 16  1  0
 16 17  1  0
  9 18  2  0
  4 19  2  0
 19 20  1  0
 20 21  2  0
 21 22  1  0
 22 23  2  0
 23 24  1  0
 24 25  1  0
 25 26  2  0
 26 27  1  0
 27 28  2  0
 28 29  1  0
 29 30  2  0
 23 31  1  0
 31 32  2  0
 32  2  1  0
 18  5  1  0
 32 20  1  0
 17 12  1  0
 30 25  1  0
  3 33  1  0
  3 34  1  0
  6 35  1  0
  7 36  1  0
  8 37  1  0
 13 38  1  0
 13 39  1  0
 14 40  1  0
 14 41  1  0
 16 42  1  0
 16 43  1  0
 17 44  1  0
 17 45  1  0
 18 46  1  0
 21 47  1  0
 22 48  1  0
 24 49  1  0
 26 50  1  0
 27 51  1  0
 28 52  1  0
 29 53  1  0
 30 54  1  0
 31 55  1  0
M  END
>  <smiles>  (36) 
O=C1CC(c2cccc(C(=O)N3CCOCC3)c2)=Nc2ccc(Nc3ccccc3)cc21

>  <score_type>  (36) 
oracle

>  <origin>  (36) 
autodockgpu

>  <m_score__min__energy>  (36) 
-9.6899999999999995

>  <m_primary>  (36) 
energy

>  <rmsd>  (36) 
6.488174991956071

>  <m_score__min__rmsd>  (36) 
6.488174991956071

>  <meeko>  (36) 
{"free_energy": -8.88, "intermolecular_energy": -10.07, "internal_energy": -1.0, "cluster_size": 32, "cluster_id": 1, "rank_in_cluster": 22}

>  <energy>  (36) 
-8.41

>  <cluster_rmsd>  (36) 
0.1

>  <cluster>  (36) 
3

$$$$

     RDKit          3D

 55 59  0  0  0  0  0  0  0  0999 V2000
  142.7390   73.8360  220.9020 O   0  0  0  0  0  0  0  0  0  0  0  0
  141.5290   73.7600  221.2930 C   0  0  0  0  0  0  0  0  0  0  0  0
  140.9960   72.4160  221.5970 C   0  0  0  0  0  0  0  0  0  0  0  0
  139.5900   72.5490  222.0230 C   0  0  0  0  0  0  0  0  0  0  0  0
  138.8670   71.3200  222.3700 C   0  0  0  0  0  0  0  0  0  0  0  0
  137.6620   71.0290  221.7170 C   0  0  0  0  0  0  0  0  0  0  0  0
  136.9530   69.8940  222.0010 C   0  0  0  0  0  0  0  0  0  0  0  0
  137.4450   69.0340  222.9470 C   0  0  0  0  0  0  0  0  0  0  0  0
  138.6450   69.2800  223.6260 C   0  0  0  0  0  0  0  0  0  0  0  0
  139.0510   68.2980  224.5940 C   0  0  0  0  0  0  0  0  0  0  0  0
  139.1950   67.1020  224.1840 O   0  0  0  0  0  0  0  0  0  0  0  0
  139.3080   68.5280  225.9610 N   0  0  0  0  0  0  0  0  0  0  0  0
  139.7190   67.4030  226.8020 C   0  0  0  0  0  0  0  0  0  0  0  0
  141.1000   67.7450  227.3140 C   0  0  0  0  0  0  0  0  0  0  0  0
  141.2450   69.0620  227.6460 O   0  0  0  0  0  0  0  0  0  0  0  0
  140.0770   69.7650  227.8740 C   0  0  0  0  0  0  0  0  0  0  0  0
  139.1990   69.8090  226.6260 C   0  0  0  0  0  0  0  0  0  0  0  0
  139.3350   70.4300  223.3190 C   0  0  0  0  0  0  0  0  0  0  0  0
  138.9360   73.6460  222.1190 N   0  0  0  0  0  0  0  0  0  0  0  0
  139.4670   74.9280  221.8240 C   0  0  0  0  0  0  0  0  0  0  0  0
  138.7170   76.0710  221.9450 C   0  0  0  0  0  0  0  0  0  0  0  0
  139.3040   77.2850  221.6390 C   0  0  0  0  0  0  0  0  0  0  0  0
  140.6070   77.4130  221.2150 C   0  0  0  0  0  0  0  0  0  0  0  0
  141.2260   78.6350  220.8770 N   0  0  0  0  0  0  0  0  0  0  0  0
  141.5580   79.6780  221.7680 C   0  0  0  0  0  0  0  0  0  0  0  0
  141.2200   80.9990  221.5910 C   0  0  0  0  0  0  0  0  0  0  0  0
  141.5510   81.9880  222.4970 C   0  0  0  0  0  0  0  0  0  0  0  0
  142.2530   81.6420  223.6290 C   0  0  0  0  0  0  0  0  0  0  0  0
  142.6160   80.3340  223.8540 C   0  0  0  0  0  0  0  0  0  0  0  0
  142.2700   79.3630  222.9290 C   0  0  0  0  0  0  0  0  0  0  0  0
  141.3300   76.2210  221.1090 C   0  0  0  0  0  0  0  0  0  0  0  0
  140.7770   74.9960  221.4060 C   0  0  0  0  0  0  0  0  0  0  0  0
  141.0522   71.7838  220.6986 H   0  0  0  0  0  0  0  0  0  0  0  0
  141.5879   71.9512  222.3993 H   0  0  0  0  0  0  0  0  0  0  0  0
  137.2778   71.7282  220.9597 H   0  0  0  0  0  0  0  0  0  0  0  0
  136.0083   69.6767  221.4810 H   0  0  0  0  0  0  0  0  0  0  0  0
  136.8790   68.1203  223.1810 H   0  0  0  0  0  0  0  0  0  0  0  0
  139.0201   67.2792  227.6424 H   0  0  0  0  0  0  0  0  0  0  0  0
  139.7221   66.4591  226.2372 H   0  0  0  0  0  0  0  0  0  0  0  0
  141.3012   67.1360  228.2077 H   0  0  0  0  0  0  0  0  0  0  0  0
  141.8092   67.5356  226.4996 H   0  0  0  0  0  0  0  0  0  0  0  0
  139.5189   69.2773  228.6868 H   0  0  0  0  0  0  0  0  0  0  0  0
  140.3425   70.7972  228.1463 H   0  0  0  0  0  0  0  0  0  0  0  0
  138.1529   69.9944  226.9112 H   0  0  0  0  0  0  0  0  0  0  0  0
  139.5252   70.6180  225.9559 H   0  0  0  0  0  0  0  0  0  0  0  0
  140.2795   70.6461  223.8398 H   0  0  0  0  0  0  0  0  0  0  0  0
  137.6700   76.0223  222.2787 H   0  0  0  0  0  0  0  0  0  0  0  0
  138.6972   78.1970  221.7399 H   0  0  0  0  0  0  0  0  0  0  0  0
  141.4580   78.7760  219.8560 H   0  0  0  0  0  0  0  0  0  0  0  0
  140.6606   81.2812  220.6869 H   0  0  0  0  0  0  0  0  0  0  0  0
  141.2587   83.0331  222.3169 H   0  0  0  0  0  0  0  0  0  0  0  0
  142.5261   82.4174  224.3598 H   0  0  0  0  0  0  0  0  0  0  0  0
  143.1762   80.0619  224.7607 H   0  0  0  0  0  0  0  0  0  0  0  0
  142.5626   78.3186  223.1124 H   0  0  0  0  0  0  0  0  0  0  0  0
  142.3777   76.2637  220.7765 H   0  0  0  0  0  0  0  0  0  0  0  0
  1  2  2  0
  2  3  1  0
  3  4  1  0
  4  5  1  0
  5  6  2  0
  6  7  1  0
  7  8  2  0
  8  9  1  0
  9 10  1  0
 10 11  2  0
 10 12  1  0
 12 13  1  0
 13 14  1  0
 14 15  1  0
 15 16  1  0
 16 17  1  0
  9 18  2  0
  4 19  2  0
 19 20  1  0
 20 21  2  0
 21 22  1  0
 22 23  2  0
 23 24  1  0
 24 25  1  0
 25 26  2  0
 26 27  1  0
 27 28  2  0
 28 29  1  0
 29 30  2  0
 23 31  1  0
 31 32  2  0
 32  2  1  0
 18  5  1  0
 32 20  1  0
 17 12  1  0
 30 25  1  0
  3 33  1  0
  3 34  1  0
  6 35  1  0
  7 36  1  0
  8 37  1  0
 13 38  1  0
 13 39  1  0
 14 40  1  0
 14 41  1  0
 16 42  1  0
 16 43  1  0
 17 44  1  0
 17 45  1  0
 18 46  1  0
 21 47  1  0
 22 48  1  0
 24 49  1  0
 26 50  1  0
 27 51  1  0
 28 52  1  0
 29 53  1  0
 30 54  1  0
 31 55  1  0
M  END
>  <smiles>  (37) 
O=C1CC(c2cccc(C(=O)N3CCOCC3)c2)=Nc2ccc(Nc3ccccc3)cc21

>  <score_type>  (37) 
oracle

>  <origin>  (37) 
autodockgpu

>  <m_score__min__energy>  (37) 
-9.6899999999999995

>  <m_primary>  (37) 
energy

>  <rmsd>  (37) 
6.667486308348695

>  <m_score__min__rmsd>  (37) 
6.667486308348695

>  <meeko>  (37) 
{"free_energy": -8.44, "intermolecular_energy": -9.63, "internal_energy": -1.02, "cluster_size": 32, "cluster_id": 1, "rank_in_cluster": 32}

>  <energy>  (37) 
-8.41

>  <cluster_rmsd>  (37) 
0.09

>  <cluster>  (37) 
3

$$$$

     RDKit          3D

 55 59  0  0  0  0  0  0  0  0999 V2000
  143.1830   73.4680  220.1110 O   0  0  0  0  0  0  0  0  0  0  0  0
  142.1250   73.3900  220.8170 C   0  0  0  0  0  0  0  0  0  0  0  0
  141.6490   72.0400  221.1810 C   0  0  0  0  0  0  0  0  0  0  0  0
  140.4210   72.1720  221.9870 C   0  0  0  0  0  0  0  0  0  0  0  0
  139.7790   70.9380  222.4520 C   0  0  0  0  0  0  0  0  0  0  0  0
  139.0550   70.1580  221.5400 C   0  0  0  0  0  0  0  0  0  0  0  0
  138.4420   68.9960  221.9230 C   0  0  0  0  0  0  0  0  0  0  0  0
  138.5470   68.6010  223.2300 C   0  0  0  0  0  0  0  0  0  0  0  0
  139.2590   69.3450  224.1790 C   0  0  0  0  0  0  0  0  0  0  0  0
  139.2920   68.8200  225.5180 C   0  0  0  0  0  0  0  0  0  0  0  0
  139.0100   67.5880  225.6650 O   0  0  0  0  0  0  0  0  0  0  0  0
  139.6080   69.5370  226.6890 N   0  0  0  0  0  0  0  0  0  0  0  0
  139.5970   68.8340  227.9720 C   0  0  0  0  0  0  0  0  0  0  0  0
  141.0080   68.9170  228.5090 C   0  0  0  0  0  0  0  0  0  0  0  0
  141.6030   70.1260  228.2860 O   0  0  0  0  0  0  0  0  0  0  0  0
  140.7540   71.1830  228.0160 C   0  0  0  0  0  0  0  0  0  0  0  0
  139.9510   70.9430  226.7400 C   0  0  0  0  0  0  0  0  0  0  0  0
  139.8640   70.5090  223.7650 C   0  0  0  0  0  0  0  0  0  0  0  0
  139.8570   73.2730  222.3200 N   0  0  0  0  0  0  0  0  0  0  0  0
  140.3320   74.5610  221.9610 C   0  0  0  0  0  0  0  0  0  0  0  0
  139.6840   75.7080  222.3480 C   0  0  0  0  0  0  0  0  0  0  0  0
  140.2060   76.9280  221.9580 C   0  0  0  0  0  0  0  0  0  0  0  0
  141.3460   77.0580  221.1980 C   0  0  0  0  0  0  0  0  0  0  0  0
  141.8900   78.2870  220.7700 N   0  0  0  0  0  0  0  0  0  0  0  0
  141.8400   79.5110  221.4700 C   0  0  0  0  0  0  0  0  0  0  0  0
  142.1880   79.6750  222.7900 C   0  0  0  0  0  0  0  0  0  0  0  0
  142.1400   80.8970  223.4340 C   0  0  0  0  0  0  0  0  0  0  0  0
  141.7240   82.0020  222.7290 C   0  0  0  0  0  0  0  0  0  0  0  0
  141.3640   81.8920  221.4060 C   0  0  0  0  0  0  0  0  0  0  0  0
  141.4230   80.6550  220.7850 C   0  0  0  0  0  0  0  0  0  0  0  0
  141.9700   75.8620  220.8310 C   0  0  0  0  0  0  0  0  0  0  0  0
  141.4770   74.6300  221.2010 C   0  0  0  0  0  0  0  0  0  0  0  0
  141.4325   71.4654  220.2683 H   0  0  0  0  0  0  0  0  0  0  0  0
  142.4222   71.5139  221.7601 H   0  0  0  0  0  0  0  0  0  0  0  0
  138.9778   70.4871  220.4932 H   0  0  0  0  0  0  0  0  0  0  0  0
  137.8774   68.3926  221.1970 H   0  0  0  0  0  0  0  0  0  0  0  0
  138.0558   67.6685  223.5448 H   0  0  0  0  0  0  0  0  0  0  0  0
  138.8952   69.3187  228.6667 H   0  0  0  0  0  0  0  0  0  0  0  0
  139.2730   67.7894  227.8546 H   0  0  0  0  0  0  0  0  0  0  0  0
  140.9793   68.7373  229.5938 H   0  0  0  0  0  0  0  0  0  0  0  0
  141.6028   68.1594  227.9776 H   0  0  0  0  0  0  0  0  0  0  0  0
  140.0578   71.3066  228.8586 H   0  0  0  0  0  0  0  0  0  0  0  0
  141.3631   72.0881  227.8757 H   0  0  0  0  0  0  0  0  0  0  0  0
  139.0345   71.5512  226.7550 H   0  0  0  0  0  0  0  0  0  0  0  0
  140.5415   71.2261  225.8562 H   0  0  0  0  0  0  0  0  0  0  0  0
  140.4272   71.1115  224.4929 H   0  0  0  0  0  0  0  0  0  0  0  0
  138.7685   75.6577  222.9558 H   0  0  0  0  0  0  0  0  0  0  0  0
  139.6822   77.8429  222.2719 H   0  0  0  0  0  0  0  0  0  0  0  0
  142.3790   78.2810  219.8330 H   0  0  0  0  0  0  0  0  0  0  0  0
  142.5196   78.7940  223.3591 H   0  0  0  0  0  0  0  0  0  0  0  0
  142.4294   80.9841  224.4917 H   0  0  0  0  0  0  0  0  0  0  0  0
  141.6788   82.9817  223.2271 H   0  0  0  0  0  0  0  0  0  0  0  0
  141.0321   82.7786  220.8459 H   0  0  0  0  0  0  0  0  0  0  0  0
  141.1345   80.5715  219.7268 H   0  0  0  0  0  0  0  0  0  0  0  0
  142.8872   75.9063  220.2253 H   0  0  0  0  0  0  0  0  0  0  0  0
  1  2  2  0
  2  3  1  0
  3  4  1  0
  4  5  1  0
  5  6  2  0
  6  7  1  0
  7  8  2  0
  8  9  1  0
  9 10  1  0
 10 11  2  0
 10 12  1  0
 12 13  1  0
 13 14  1  0
 14 15  1  0
 15 16  1  0
 16 17  1  0
  9 18  2  0
  4 19  2  0
 19 20  1  0
 20 21  2  0
 21 22  1  0
 22 23  2  0
 23 24  1  0
 24 25  1  0
 25 26  2  0
 26 27  1  0
 27 28  2  0
 28 29  1  0
 29 30  2  0
 23 31  1  0
 31 32  2  0
 32  2  1  0
 18  5  1  0
 32 20  1  0
 17 12  1  0
 30 25  1  0
  3 33  1  0
  3 34  1  0
  6 35  1  0
  7 36  1  0
  8 37  1  0
 13 38  1  0
 13 39  1  0
 14 40  1  0
 14 41  1  0
 16 42  1  0
 16 43  1  0
 17 44  1  0
 17 45  1  0
 18 46  1  0
 21 47  1  0
 22 48  1  0
 24 49  1  0
 26 50  1  0
 27 51  1  0
 28 52  1  0
 29 53  1  0
 30 54  1  0
 31 55  1  0
M  END
>  <smiles>  (38) 
O=C1CC(c2cccc(C(=O)N3CCOCC3)c2)=Nc2ccc(Nc3ccccc3)cc21

>  <score_type>  (38) 
oracle

>  <origin>  (38) 
autodockgpu

>  <m_score__min__energy>  (38) 
-9.6899999999999995

>  <m_primary>  (38) 
energy

>  <rmsd>  (38) 
6.723206574694035

>  <m_score__min__rmsd>  (38) 
6.723206574694035

>  <meeko>  (38) 
{"free_energy": -9.46, "intermolecular_energy": -10.65, "internal_energy": -0.9, "cluster_size": 32, "cluster_id": 1, "rank_in_cluster": 11}

>  <energy>  (38) 
-8.41

>  <cluster_rmsd>  (38) 
0.07

>  <cluster>  (38) 
3

$$$$

     RDKit          3D

 55 59  0  0  0  0  0  0  0  0999 V2000
  143.1370   73.8320  220.0220 O   0  0  0  0  0  0  0  0  0  0  0  0
  142.0980   73.6490  220.7360 C   0  0  0  0  0  0  0  0  0  0  0  0
  141.7230   72.2540  221.0450 C   0  0  0  0  0  0  0  0  0  0  0  0
  140.5000   72.2630  221.8710 C   0  0  0  0  0  0  0  0  0  0  0  0
  139.9530   70.9670  222.2870 C   0  0  0  0  0  0  0  0  0  0  0  0
  139.4240   70.1050  221.3170 C   0  0  0  0  0  0  0  0  0  0  0  0
  138.9060   68.8840  221.6550 C   0  0  0  0  0  0  0  0  0  0  0  0
  138.9110   68.5120  222.9720 C   0  0  0  0  0  0  0  0  0  0  0  0
  139.4290   69.3380  223.9780 C   0  0  0  0  0  0  0  0  0  0  0  0
  139.3750   68.8290  225.3220 C   0  0  0  0  0  0  0  0  0  0  0  0
  139.0680   67.6020  225.4670 O   0  0  0  0  0  0  0  0  0  0  0  0
  139.6300   69.5560  226.5020 N   0  0  0  0  0  0  0  0  0  0  0  0
  139.5320   68.8690  227.7900 C   0  0  0  0  0  0  0  0  0  0  0  0
  140.9110   68.9390  228.4090 C   0  0  0  0  0  0  0  0  0  0  0  0
  141.5340   70.1380  228.2090 O   0  0  0  0  0  0  0  0  0  0  0  0
  140.7160   71.2020  227.8770 C   0  0  0  0  0  0  0  0  0  0  0  0
  139.9890   70.9580  226.5580 C   0  0  0  0  0  0  0  0  0  0  0  0
  139.9420   70.5590  223.6090 C   0  0  0  0  0  0  0  0  0  0  0  0
  139.8660   73.3060  222.2590 N   0  0  0  0  0  0  0  0  0  0  0  0
  140.2440   74.6380  221.9530 C   0  0  0  0  0  0  0  0  0  0  0  0
  139.5230   75.7190  222.3990 C   0  0  0  0  0  0  0  0  0  0  0  0
  139.9530   76.9880  222.0580 C   0  0  0  0  0  0  0  0  0  0  0  0
  141.0700   77.2320  221.2920 C   0  0  0  0  0  0  0  0  0  0  0  0
  141.5210   78.5140  220.9120 N   0  0  0  0  0  0  0  0  0  0  0  0
  141.7400   79.6100  221.7730 C   0  0  0  0  0  0  0  0  0  0  0  0
  141.2710   80.8850  221.5560 C   0  0  0  0  0  0  0  0  0  0  0  0
  141.4950   81.9280  222.4330 C   0  0  0  0  0  0  0  0  0  0  0  0
  142.2200   81.6880  223.5780 C   0  0  0  0  0  0  0  0  0  0  0  0
  142.7120   80.4310  223.8420 C   0  0  0  0  0  0  0  0  0  0  0  0
  142.4720   79.4030  222.9450 C   0  0  0  0  0  0  0  0  0  0  0  0
  141.7700   76.1000  220.8630 C   0  0  0  0  0  0  0  0  0  0  0  0
  141.3700   74.8220  221.1840 C   0  0  0  0  0  0  0  0  0  0  0  0
  141.5339   71.7061  220.1101 H   0  0  0  0  0  0  0  0  0  0  0  0
  142.5397   71.7593  221.5912 H   0  0  0  0  0  0  0  0  0  0  0  0
  139.4251   70.4162  220.2619 H   0  0  0  0  0  0  0  0  0  0  0  0
  138.4944   68.2158  220.8843 H   0  0  0  0  0  0  0  0  0  0  0  0
  138.4947   67.5324  223.2497 H   0  0  0  0  0  0  0  0  0  0  0  0
  138.7975   69.3721  228.4361 H   0  0  0  0  0  0  0  0  0  0  0  0
  139.1997   67.8278  227.6658 H   0  0  0  0  0  0  0  0  0  0  0  0
  140.8162   68.7714  229.4920 H   0  0  0  0  0  0  0  0  0  0  0  0
  141.5257   68.1678  227.9218 H   0  0  0  0  0  0  0  0  0  0  0  0
  139.9717   71.3431  228.6746 H   0  0  0  0  0  0  0  0  0  0  0  0
  141.3440   72.0981  227.7644 H   0  0  0  0  0  0  0  0  0  0  0  0
  139.0820   71.5785  226.5105 H   0  0  0  0  0  0  0  0  0  0  0  0
  140.6358   71.2228  225.7086 H   0  0  0  0  0  0  0  0  0  0  0  0
  140.3526   71.2259  224.3814 H   0  0  0  0  0  0  0  0  0  0  0  0
  138.6224   75.5779  223.0146 H   0  0  0  0  0  0  0  0  0  0  0  0
  139.3709   77.8490  222.4184 H   0  0  0  0  0  0  0  0  0  0  0  0
  141.7080   78.6590  219.8820 H   0  0  0  0  0  0  0  0  0  0  0  0
  140.6912   81.0827  220.6424 H   0  0  0  0  0  0  0  0  0  0  0  0
  141.1010   82.9327  222.2202 H   0  0  0  0  0  0  0  0  0  0  0  0
  142.4074   82.5076  224.2873 H   0  0  0  0  0  0  0  0  0  0  0  0
  143.2914   80.2435  224.7580 H   0  0  0  0  0  0  0  0  0  0  0  0
  142.8673   78.3994  223.1607 H   0  0  0  0  0  0  0  0  0  0  0  0
  142.6717   76.2351  220.2476 H   0  0  0  0  0  0  0  0  0  0  0  0
  1  2  2  0
  2  3  1  0
  3  4  1  0
  4  5  1  0
  5  6  2  0
  6  7  1  0
  7  8  2  0
  8  9  1  0
  9 10  1  0
 10 11  2  0
 10 12  1  0
 12 13  1  0
 13 14  1  0
 14 15  1  0
 15 16  1  0
 16 17  1  0
  9 18  2  0
  4 19  2  0
 19 20  1  0
 20 21  2  0
 21 22  1  0
 22 23  2  0
 23 24  1  0
 24 25  1  0
 25 26  2  0
 26 27  1  0
 27 28  2  0
 28 29  1  0
 29 30  2  0
 23 31  1  0
 31 32  2  0
 32  2  1  0
 18  5  1  0
 32 20  1  0
 17 12  1  0
 30 25  1  0
  3 33  1  0
  3 34  1  0
  6 35  1  0
  7 36  1  0
  8 37  1  0
 13 38  1  0
 13 39  1  0
 14 40  1  0
 14 41  1  0
 16 42  1  0
 16 43  1  0
 17 44  1  0
 17 45  1  0
 18 46  1  0
 21 47  1  0
 22 48  1  0
 24 49  1  0
 26 50  1  0
 27 51  1  0
 28 52  1  0
 29 53  1  0
 30 54  1  0
 31 55  1  0
M  END
>  <smiles>  (39) 
O=C1CC(c2cccc(C(=O)N3CCOCC3)c2)=Nc2ccc(Nc3ccccc3)cc21

>  <score_type>  (39) 
oracle

>  <origin>  (39) 
autodockgpu

>  <m_score__min__energy>  (39) 
-9.6899999999999995

>  <m_primary>  (39) 
energy

>  <rmsd>  (39) 
6.751969821404831

>  <m_score__min__rmsd>  (39) 
6.751969821404831

>  <meeko>  (39) 
{"free_energy": -9.63, "intermolecular_energy": -10.82, "internal_energy": -0.89, "cluster_size": 32, "cluster_id": 1, "rank_in_cluster": 3}

>  <energy>  (39) 
-8.41

>  <cluster_rmsd>  (39) 
0.07

>  <cluster>  (39) 
3

$$$$

     RDKit          3D

 55 59  0  0  0  0  0  0  0  0999 V2000
  139.4190   75.4620  221.9760 O   0  0  0  0  0  0  0  0  0  0  0  0
  140.0090   74.3470  221.7970 C   0  0  0  0  0  0  0  0  0  0  0  0
  139.3650   73.1390  222.3530 C   0  0  0  0  0  0  0  0  0  0  0  0
  140.2060   71.9680  222.0420 C   0  0  0  0  0  0  0  0  0  0  0  0
  139.7450   70.6570  222.5130 C   0  0  0  0  0  0  0  0  0  0  0  0
  139.2510   69.7320  221.5850 C   0  0  0  0  0  0  0  0  0  0  0  0
  138.8130   68.4950  221.9740 C   0  0  0  0  0  0  0  0  0  0  0  0
  138.8650   68.1710  223.3040 C   0  0  0  0  0  0  0  0  0  0  0  0
  139.3500   69.0610  224.2700 C   0  0  0  0  0  0  0  0  0  0  0  0
  139.3510   68.5980  225.6320 C   0  0  0  0  0  0  0  0  0  0  0  0
  139.0820   67.3700  225.8270 O   0  0  0  0  0  0  0  0  0  0  0  0
  139.6200   69.3720  226.7770 N   0  0  0  0  0  0  0  0  0  0  0  0
  139.5810   68.7280  228.0910 C   0  0  0  0  0  0  0  0  0  0  0  0
  140.9750   68.8570  228.6640 C   0  0  0  0  0  0  0  0  0  0  0  0
  141.5590   70.0640  228.4040 O   0  0  0  0  0  0  0  0  0  0  0  0
  140.7020   71.0940  228.0610 C   0  0  0  0  0  0  0  0  0  0  0  0
  139.9420   70.7840  226.7740 C   0  0  0  0  0  0  0  0  0  0  0  0
  139.7820   70.2970  223.8490 C   0  0  0  0  0  0  0  0  0  0  0  0
  141.3120   71.9890  221.3960 N   0  0  0  0  0  0  0  0  0  0  0  0
  141.9130   73.1600  220.8670 C   0  0  0  0  0  0  0  0  0  0  0  0
  143.1020   73.1200  220.1820 C   0  0  0  0  0  0  0  0  0  0  0  0
  143.6270   74.3040  219.6970 C   0  0  0  0  0  0  0  0  0  0  0  0
  143.0220   75.5290  219.8650 C   0  0  0  0  0  0  0  0  0  0  0  0
  143.5440   76.7540  219.4000 N   0  0  0  0  0  0  0  0  0  0  0  0
  143.0530   77.5130  218.3160 C   0  0  0  0  0  0  0  0  0  0  0  0
  143.0020   77.0780  217.0120 C   0  0  0  0  0  0  0  0  0  0  0  0
  142.4980   77.8480  215.9820 C   0  0  0  0  0  0  0  0  0  0  0  0
  142.0250   79.1080  216.2670 C   0  0  0  0  0  0  0  0  0  0  0  0
  142.0530   79.5910  217.5540 C   0  0  0  0  0  0  0  0  0  0  0  0
  142.5640   78.7970  218.5680 C   0  0  0  0  0  0  0  0  0  0  0  0
  141.8140   75.5170  220.5690 C   0  0  0  0  0  0  0  0  0  0  0  0
  141.2620   74.3560  221.0650 C   0  0  0  0  0  0  0  0  0  0  0  0
  139.2635   73.2425  223.4434 H   0  0  0  0  0  0  0  0  0  0  0  0
  138.3659   73.0103  221.9111 H   0  0  0  0  0  0  0  0  0  0  0  0
  139.2142   70.0055  220.5202 H   0  0  0  0  0  0  0  0  0  0  0  0
  138.4278   67.7770  221.2351 H   0  0  0  0  0  0  0  0  0  0  0  0
  138.5141   67.1787  223.6237 H   0  0  0  0  0  0  0  0  0  0  0  0
  138.8525   69.2333  228.7421 H   0  0  0  0  0  0  0  0  0  0  0  0
  139.2750   67.6743  228.0128 H   0  0  0  0  0  0  0  0  0  0  0  0
  140.9172   68.7254  229.7546 H   0  0  0  0  0  0  0  0  0  0  0  0
  141.5958   68.0860  228.1843 H   0  0  0  0  0  0  0  0  0  0  0  0
  139.9786   71.2436  228.8761 H   0  0  0  0  0  0  0  0  0  0  0  0
  141.3013   72.0019  227.8979 H   0  0  0  0  0  0  0  0  0  0  0  0
  139.0172   71.3783  226.7336 H   0  0  0  0  0  0  0  0  0  0  0  0
  140.5556   71.0355  225.8963 H   0  0  0  0  0  0  0  0  0  0  0  0
  140.1650   71.0145  224.5896 H   0  0  0  0  0  0  0  0  0  0  0  0
  143.6262   72.1662  220.0222 H   0  0  0  0  0  0  0  0  0  0  0  0
  144.5791   74.2647  219.1475 H   0  0  0  0  0  0  0  0  0  0  0  0
  144.3850   77.1310  219.9170 H   0  0  0  0  0  0  0  0  0  0  0  0
  143.3797   76.0715  216.7790 H   0  0  0  0  0  0  0  0  0  0  0  0
  142.4752   77.4608  214.9526 H   0  0  0  0  0  0  0  0  0  0  0  0
  141.6209   79.7345  215.4582 H   0  0  0  0  0  0  0  0  0  0  0  0
  141.6730   80.5990  217.7767 H   0  0  0  0  0  0  0  0  0  0  0  0
  142.5851   79.1872  219.5963 H   0  0  0  0  0  0  0  0  0  0  0  0
  141.2857   76.4679  220.7326 H   0  0  0  0  0  0  0  0  0  0  0  0
  1  2  2  0
  2  3  1  0
  3  4  1  0
  4  5  1  0
  5  6  2  0
  6  7  1  0
  7  8  2  0
  8  9  1  0
  9 10  1  0
 10 11  2  0
 10 12  1  0
 12 13  1  0
 13 14  1  0
 14 15  1  0
 15 16  1  0
 16 17  1  0
  9 18  2  0
  4 19  2  0
 19 20  1  0
 20 21  2  0
 21 22  1  0
 22 23  2  0
 23 24  1  0
 24 25  1  0
 25 26  2  0
 26 27  1  0
 27 28  2  0
 28 29  1  0
 29 30  2  0
 23 31  1  0
 31 32  2  0
 32  2  1  0
 18  5  1  0
 32 20  1  0
 17 12  1  0
 30 25  1  0
  3 33  1  0
  3 34  1  0
  6 35  1  0
  7 36  1  0
  8 37  1  0
 13 38  1  0
 13 39  1  0
 14 40  1  0
 14 41  1  0
 16 42  1  0
 16 43  1  0
 17 44  1  0
 17 45  1  0
 18 46  1  0
 21 47  1  0
 22 48  1  0
 24 49  1  0
 26 50  1  0
 27 51  1  0
 28 52  1  0
 29 53  1  0
 30 54  1  0
 31 55  1  0
M  END
>  <smiles>  (40) 
O=C1CC(c2cccc(C(=O)N3CCOCC3)c2)=Nc2ccc(Nc3ccccc3)cc21

>  <score_type>  (40) 
oracle

>  <origin>  (40) 
autodockgpu

>  <m_score__min__energy>  (40) 
-9.6899999999999995

>  <m_primary>  (40) 
energy

>  <rmsd>  (40) 
6.171430098264205

>  <m_score__min__rmsd>  (40) 
6.171430098264205

>  <meeko>  (40) 
{"free_energy": -8.43, "intermolecular_energy": -9.62, "internal_energy": -0.89, "cluster_size": 1, "cluster_id": 2, "rank_in_cluster": 1}

>  <energy>  (40) 
-8.41

>  <cluster_rmsd>  (40) 
0.1

>  <cluster>  (40) 
3

$$$$

     RDKit          3D

 55 59  0  0  0  0  0  0  0  0999 V2000
  143.1020   73.5540  219.5830 O   0  0  0  0  0  0  0  0  0  0  0  0
  142.1310   73.4400  220.4000 C   0  0  0  0  0  0  0  0  0  0  0  0
  141.6820   72.0740  220.7370 C   0  0  0  0  0  0  0  0  0  0  0  0
  140.5550   72.1650  221.6850 C   0  0  0  0  0  0  0  0  0  0  0  0
  139.9540   70.9090  222.1470 C   0  0  0  0  0  0  0  0  0  0  0  0
  139.3980   70.0310  221.2070 C   0  0  0  0  0  0  0  0  0  0  0  0
  138.8300   68.8450  221.5880 C   0  0  0  0  0  0  0  0  0  0  0  0
  138.8120   68.5260  222.9190 C   0  0  0  0  0  0  0  0  0  0  0  0
  139.3550   69.3700  223.8960 C   0  0  0  0  0  0  0  0  0  0  0  0
  139.2720   68.9170  225.2580 C   0  0  0  0  0  0  0  0  0  0  0  0
  138.9200   67.7090  225.4480 O   0  0  0  0  0  0  0  0  0  0  0  0
  139.5430   69.6810  226.4110 N   0  0  0  0  0  0  0  0  0  0  0  0
  139.4100   69.0490  227.7240 C   0  0  0  0  0  0  0  0  0  0  0  0
  140.7850   69.0960  228.3540 C   0  0  0  0  0  0  0  0  0  0  0  0
  141.4530   70.2630  228.1120 O   0  0  0  0  0  0  0  0  0  0  0  0
  140.6760   71.3410  227.7300 C   0  0  0  0  0  0  0  0  0  0  0  0
  139.9510   71.0700  226.4150 C   0  0  0  0  0  0  0  0  0  0  0  0
  139.9190   70.5550  223.4840 C   0  0  0  0  0  0  0  0  0  0  0  0
  140.0470   73.2480  222.1430 N   0  0  0  0  0  0  0  0  0  0  0  0
  140.4950   74.5520  221.8080 C   0  0  0  0  0  0  0  0  0  0  0  0
  139.9100   75.6780  222.3330 C   0  0  0  0  0  0  0  0  0  0  0  0
  140.4000   76.9150  221.9580 C   0  0  0  0  0  0  0  0  0  0  0  0
  141.4480   77.0840  221.0820 C   0  0  0  0  0  0  0  0  0  0  0  0
  141.9560   78.3330  220.6660 N   0  0  0  0  0  0  0  0  0  0  0  0
  141.9080   79.5380  221.3980 C   0  0  0  0  0  0  0  0  0  0  0  0
  142.2740   79.6710  222.7170 C   0  0  0  0  0  0  0  0  0  0  0  0
  142.2270   80.8750  223.3930 C   0  0  0  0  0  0  0  0  0  0  0  0
  141.7930   81.9950  222.7220 C   0  0  0  0  0  0  0  0  0  0  0  0
  141.4150   81.9160  221.4020 C   0  0  0  0  0  0  0  0  0  0  0  0
  141.4730   80.6960  220.7490 C   0  0  0  0  0  0  0  0  0  0  0  0
  142.0100   75.9070  220.5760 C   0  0  0  0  0  0  0  0  0  0  0  0
  141.5470   74.6590  220.9280 C   0  0  0  0  0  0  0  0  0  0  0  0
  141.3557   71.5560  219.8231 H   0  0  0  0  0  0  0  0  0  0  0  0
  142.5093   71.5100  221.1925 H   0  0  0  0  0  0  0  0  0  0  0  0
  139.4183   70.3003  220.1407 H   0  0  0  0  0  0  0  0  0  0  0  0
  138.3975   68.1633  220.8408 H   0  0  0  0  0  0  0  0  0  0  0  0
  138.3559   67.5751  223.2317 H   0  0  0  0  0  0  0  0  0  0  0  0
  138.6877   69.6021  228.3424 H   0  0  0  0  0  0  0  0  0  0  0  0
  139.0431   68.0157  227.6371 H   0  0  0  0  0  0  0  0  0  0  0  0
  140.6744   68.9767  229.4419 H   0  0  0  0  0  0  0  0  0  0  0  0
  141.3760   68.2843  227.9047 H   0  0  0  0  0  0  0  0  0  0  0  0
  139.9310   71.5404  228.5144 H   0  0  0  0  0  0  0  0  0  0  0  0
  141.3364   72.2090  227.5873 H   0  0  0  0  0  0  0  0  0  0  0  0
  139.0670   71.7196  226.3346 H   0  0  0  0  0  0  0  0  0  0  0  0
  140.6136   71.2776  225.5618 H   0  0  0  0  0  0  0  0  0  0  0  0
  140.3511   71.2351  224.2329 H   0  0  0  0  0  0  0  0  0  0  0  0
  139.0689   75.5973  223.0373 H   0  0  0  0  0  0  0  0  0  0  0  0
  139.9268   77.8127  222.3826 H   0  0  0  0  0  0  0  0  0  0  0  0
  142.4120   78.3590  219.7140 H   0  0  0  0  0  0  0  0  0  0  0  0
  142.6199   78.7781  223.2584 H   0  0  0  0  0  0  0  0  0  0  0  0
  142.5310   80.9370  224.4483 H   0  0  0  0  0  0  0  0  0  0  0  0
  141.7480   82.9614  223.2455 H   0  0  0  0  0  0  0  0  0  0  0  0
  141.0695   82.8143  220.8693 H   0  0  0  0  0  0  0  0  0  0  0  0
  141.1691   80.6375  219.6934 H   0  0  0  0  0  0  0  0  0  0  0  0
  142.8518   75.9812  219.8718 H   0  0  0  0  0  0  0  0  0  0  0  0
  1  2  2  0
  2  3  1  0
  3  4  1  0
  4  5  1  0
  5  6  2  0
  6  7  1  0
  7  8  2  0
  8  9  1  0
  9 10  1  0
 10 11  2  0
 10 12  1  0
 12 13  1  0
 13 14  1  0
 14 15  1  0
 15 16  1  0
 16 17  1  0
  9 18  2  0
  4 19  2  0
 19 20  1  0
 20 21  2  0
 21 22  1  0
 22 23  2  0
 23 24  1  0
 24 25  1  0
 25 26  2  0
 26 27  1  0
 27 28  2  0
 28 29  1  0
 29 30  2  0
 23 31  1  0
 31 32  2  0
 32  2  1  0
 18  5  1  0
 32 20  1  0
 17 12  1  0
 30 25  1  0
  3 33  1  0
  3 34  1  0
  6 35  1  0
  7 36  1  0
  8 37  1  0
 13 38  1  0
 13 39  1  0
 14 40  1  0
 14 41  1  0
 16 42  1  0
 16 43  1  0
 17 44  1  0
 17 45  1  0
 18 46  1  0
 21 47  1  0
 22 48  1  0
 24 49  1  0
 26 50  1  0
 27 51  1  0
 28 52  1  0
 29 53  1  0
 30 54  1  0
 31 55  1  0
M  END
>  <smiles>  (41) 
O=C1CC(c2cccc(C(=O)N3CCOCC3)c2)=Nc2ccc(Nc3ccccc3)cc21

>  <score_type>  (41) 
oracle

>  <origin>  (41) 
autodockgpu

>  <m_score__min__energy>  (41) 
-9.6899999999999995

>  <m_primary>  (41) 
energy

>  <rmsd>  (41) 
6.726002370107574

>  <m_score__min__rmsd>  (41) 
6.726002370107574

>  <meeko>  (41) 
{"free_energy": -9.24, "intermolecular_energy": -10.43, "internal_energy": -0.88, "cluster_size": 32, "cluster_id": 1, "rank_in_cluster": 17}

>  <energy>  (41) 
-8.41

>  <cluster_rmsd>  (41) 
0.06

>  <cluster>  (41) 
3

$$$$

     RDKit          3D

 55 59  0  0  0  0  0  0  0  0999 V2000
  143.8270   72.2690  220.7120 O   0  0  0  0  0  0  0  0  0  0  0  0
  142.9550   73.1970  220.6610 C   0  0  0  0  0  0  0  0  0  0  0  0
  143.3000   74.4120  219.8940 C   0  0  0  0  0  0  0  0  0  0  0  0
  142.1680   75.3550  219.9650 C   0  0  0  0  0  0  0  0  0  0  0  0
  142.3090   76.6370  219.2670 C   0  0  0  0  0  0  0  0  0  0  0  0
  142.8140   76.6530  217.9610 C   0  0  0  0  0  0  0  0  0  0  0  0
  142.9600   77.8240  217.2660 C   0  0  0  0  0  0  0  0  0  0  0  0
  142.6000   78.9960  217.8760 C   0  0  0  0  0  0  0  0  0  0  0  0
  142.0890   79.0320  219.1800 C   0  0  0  0  0  0  0  0  0  0  0  0
  141.7490   80.3270  219.7040 C   0  0  0  0  0  0  0  0  0  0  0  0
  141.3460   81.2020  218.8730 O   0  0  0  0  0  0  0  0  0  0  0  0
  141.8180   80.7270  221.0530 N   0  0  0  0  0  0  0  0  0  0  0  0
  141.4250   82.0920  221.4070 C   0  0  0  0  0  0  0  0  0  0  0  0
  140.2460   81.9600  222.3450 C   0  0  0  0  0  0  0  0  0  0  0  0
  140.3710   80.9290  223.2320 O   0  0  0  0  0  0  0  0  0  0  0  0
  141.6540   80.4540  223.4360 C   0  0  0  0  0  0  0  0  0  0  0  0
  142.2520   79.8890  222.1510 C   0  0  0  0  0  0  0  0  0  0  0  0
  141.9550   77.8400  219.8530 C   0  0  0  0  0  0  0  0  0  0  0  0
  141.0650   75.1570  220.5860 N   0  0  0  0  0  0  0  0  0  0  0  0
  140.7520   73.9810  221.3150 C   0  0  0  0  0  0  0  0  0  0  0  0
  139.5510   73.8250  221.9620 C   0  0  0  0  0  0  0  0  0  0  0  0
  139.3180   72.6510  222.6540 C   0  0  0  0  0  0  0  0  0  0  0  0
  140.2300   71.6220  222.7330 C   0  0  0  0  0  0  0  0  0  0  0  0
  140.0280   70.4230  223.4480 N   0  0  0  0  0  0  0  0  0  0  0  0
  140.2200   70.2340  224.8330 C   0  0  0  0  0  0  0  0  0  0  0  0
  139.9710   69.0610  225.5070 C   0  0  0  0  0  0  0  0  0  0  0  0
  140.1870   68.9130  226.8630 C   0  0  0  0  0  0  0  0  0  0  0  0
  140.6720   69.9840  227.5780 C   0  0  0  0  0  0  0  0  0  0  0  0
  140.9360   71.1800  226.9520 C   0  0  0  0  0  0  0  0  0  0  0  0
  140.7110   71.3000  225.5910 C   0  0  0  0  0  0  0  0  0  0  0  0
  141.4370   71.8290  222.0580 C   0  0  0  0  0  0  0  0  0  0  0  0
  141.7010   72.9850  221.3590 C   0  0  0  0  0  0  0  0  0  0  0  0
  144.1980   74.8789  220.3249 H   0  0  0  0  0  0  0  0  0  0  0  0
  143.5018   74.1479  218.8454 H   0  0  0  0  0  0  0  0  0  0  0  0
  143.0996   75.7044  217.4829 H   0  0  0  0  0  0  0  0  0  0  0  0
  143.3577   77.8231  216.2404 H   0  0  0  0  0  0  0  0  0  0  0  0
  142.7159   79.9404  217.3239 H   0  0  0  0  0  0  0  0  0  0  0  0
  142.2555   82.6103  221.9086 H   0  0  0  0  0  0  0  0  0  0  0  0
  141.1640   82.6790  220.5141 H   0  0  0  0  0  0  0  0  0  0  0  0
  140.1449   82.8972  222.9119 H   0  0  0  0  0  0  0  0  0  0  0  0
  139.3609   81.7505  221.7264 H   0  0  0  0  0  0  0  0  0  0  0  0
  142.2881   81.2790  223.7927 H   0  0  0  0  0  0  0  0  0  0  0  0
  141.6083   79.6452  224.1802 H   0  0  0  0  0  0  0  0  0  0  0  0
  143.3501   79.8958  222.2151 H   0  0  0  0  0  0  0  0  0  0  0  0
  141.9192   78.8520  221.9968 H   0  0  0  0  0  0  0  0  0  0  0  0
  141.5580   77.8428  220.8789 H   0  0  0  0  0  0  0  0  0  0  0  0
  138.7895   74.6182  221.9304 H   0  0  0  0  0  0  0  0  0  0  0  0
  138.3531   72.5325  223.1688 H   0  0  0  0  0  0  0  0  0  0  0  0
  139.7050   69.5900  222.8830 H   0  0  0  0  0  0  0  0  0  0  0  0
  139.5823   68.2021  224.9403 H   0  0  0  0  0  0  0  0  0  0  0  0
  139.9751   67.9561  227.3625 H   0  0  0  0  0  0  0  0  0  0  0  0
  140.8500   69.8829  228.6588 H   0  0  0  0  0  0  0  0  0  0  0  0
  141.3226   72.0339  227.5277 H   0  0  0  0  0  0  0  0  0  0  0  0
  140.9241   72.2581  225.0944 H   0  0  0  0  0  0  0  0  0  0  0  0
  142.2028   71.0399  222.0866 H   0  0  0  0  0  0  0  0  0  0  0  0
  1  2  2  0
  2  3  1  0
  3  4  1  0
  4  5  1  0
  5  6  2  0
  6  7  1  0
  7  8  2  0
  8  9  1  0
  9 10  1  0
 10 11  2  0
 10 12  1  0
 12 13  1  0
 13 14  1  0
 14 15  1  0
 15 16  1  0
 16 17  1  0
  9 18  2  0
  4 19  2  0
 19 20  1  0
 20 21  2  0
 21 22  1  0
 22 23  2  0
 23 24  1  0
 24 25  1  0
 25 26  2  0
 26 27  1  0
 27 28  2  0
 28 29  1  0
 29 30  2  0
 23 31  1  0
 31 32  2  0
 32  2  1  0
 18  5  1  0
 32 20  1  0
 17 12  1  0
 30 25  1  0
  3 33  1  0
  3 34  1  0
  6 35  1  0
  7 36  1  0
  8 37  1  0
 13 38  1  0
 13 39  1  0
 14 40  1  0
 14 41  1  0
 16 42  1  0
 16 43  1  0
 17 44  1  0
 17 45  1  0
 18 46  1  0
 21 47  1  0
 22 48  1  0
 24 49  1  0
 26 50  1  0
 27 51  1  0
 28 52  1  0
 29 53  1  0
 30 54  1  0
 31 55  1  0
M  END
>  <smiles>  (42) 
O=C1CC(c2cccc(C(=O)N3CCOCC3)c2)=Nc2ccc(Nc3ccccc3)cc21

>  <score_type>  (42) 
oracle

>  <origin>  (42) 
autodockgpu

>  <m_score__min__energy>  (42) 
-9.6899999999999995

>  <m_primary>  (42) 
energy

>  <rmsd>  (42) 
9.567752107660354

>  <m_score__min__rmsd>  (42) 
9.567752107660354

>  <meeko>  (42) 
{"free_energy": -8.42, "intermolecular_energy": -9.61, "internal_energy": -0.98, "cluster_size": 15, "cluster_id": 3, "rank_in_cluster": 1}

>  <energy>  (42) 
-8.41

>  <cluster_rmsd>  (42) 
0.09

>  <cluster>  (42) 
3

$$$$

     RDKit          3D

 55 59  0  0  0  0  0  0  0  0999 V2000
  142.4970   74.9840  220.6730 O   0  0  0  0  0  0  0  0  0  0  0  0
  141.4500   74.4990  221.2140 C   0  0  0  0  0  0  0  0  0  0  0  0
  141.3710   73.0300  221.3470 C   0  0  0  0  0  0  0  0  0  0  0  0
  140.0900   72.6800  221.9880 C   0  0  0  0  0  0  0  0  0  0  0  0
  139.8090   71.2570  222.2110 C   0  0  0  0  0  0  0  0  0  0  0  0
  139.6020   70.4200  221.1060 C   0  0  0  0  0  0  0  0  0  0  0  0
  139.3420   69.0860  221.2610 C   0  0  0  0  0  0  0  0  0  0  0  0
  139.2850   68.5730  222.5300 C   0  0  0  0  0  0  0  0  0  0  0  0
  139.4850   69.3690  223.6650 C   0  0  0  0  0  0  0  0  0  0  0  0
  139.3990   68.7070  224.9390 C   0  0  0  0  0  0  0  0  0  0  0  0
  139.1020   67.4700  224.9330 O   0  0  0  0  0  0  0  0  0  0  0  0
  139.6110   69.2950  226.2020 N   0  0  0  0  0  0  0  0  0  0  0  0
  139.4850   68.4630  227.3990 C   0  0  0  0  0  0  0  0  0  0  0  0
  140.8440   68.4730  228.0630 C   0  0  0  0  0  0  0  0  0  0  0  0
  141.4590   69.6920  228.0210 O   0  0  0  0  0  0  0  0  0  0  0  0
  140.6390   70.7810  227.7890 C   0  0  0  0  0  0  0  0  0  0  0  0
  139.9520   70.6840  226.4300 C   0  0  0  0  0  0  0  0  0  0  0  0
  139.7440   70.7060  223.4780 C   0  0  0  0  0  0  0  0  0  0  0  0
  139.1910   73.5090  222.3700 N   0  0  0  0  0  0  0  0  0  0  0  0
  139.2860   74.9180  222.2350 C   0  0  0  0  0  0  0  0  0  0  0  0
  138.2890   75.7590  222.6630 C   0  0  0  0  0  0  0  0  0  0  0  0
  138.4530   77.1210  222.4960 C   0  0  0  0  0  0  0  0  0  0  0  0
  139.5670   77.6870  221.9200 C   0  0  0  0  0  0  0  0  0  0  0  0
  139.7530   79.0710  221.7190 N   0  0  0  0  0  0  0  0  0  0  0  0
  140.6960   79.8910  222.3750 C   0  0  0  0  0  0  0  0  0  0  0  0
  140.9210   81.2160  222.0840 C   0  0  0  0  0  0  0  0  0  0  0  0
  141.8440   81.9890  222.7620 C   0  0  0  0  0  0  0  0  0  0  0  0
  142.5770   81.4110  223.7730 C   0  0  0  0  0  0  0  0  0  0  0  0
  142.3920   80.0880  224.1020 C   0  0  0  0  0  0  0  0  0  0  0  0
  141.4590   79.3370  223.4070 C   0  0  0  0  0  0  0  0  0  0  0  0
  140.5550   76.7900  221.5010 C   0  0  0  0  0  0  0  0  0  0  0  0
  140.4240   75.4280  221.6520 C   0  0  0  0  0  0  0  0  0  0  0  0
  141.4257   72.5650  220.3516 H   0  0  0  0  0  0  0  0  0  0  0  0
  142.2082   72.6642  221.9597 H   0  0  0  0  0  0  0  0  0  0  0  0
  139.6496   70.8449  220.0925 H   0  0  0  0  0  0  0  0  0  0  0  0
  139.1821   68.4392  220.3857 H   0  0  0  0  0  0  0  0  0  0  0  0
  139.0754   67.5012  222.6618 H   0  0  0  0  0  0  0  0  0  0  0  0
  138.7262   68.8816  228.0765 H   0  0  0  0  0  0  0  0  0  0  0  0
  139.1696   67.4401  227.1456 H   0  0  0  0  0  0  0  0  0  0  0  0
  140.7197   68.1812  229.1163 H   0  0  0  0  0  0  0  0  0  0  0  0
  141.4815   67.7682  227.5090 H   0  0  0  0  0  0  0  0  0  0  0  0
  139.8711   70.8243  228.5755 H   0  0  0  0  0  0  0  0  0  0  0  0
  141.2601   71.6889  227.7979 H   0  0  0  0  0  0  0  0  0  0  0  0
  139.0394   71.2981  226.4278 H   0  0  0  0  0  0  0  0  0  0  0  0
  140.6196   71.0501  225.6361 H   0  0  0  0  0  0  0  0  0  0  0  0
  139.9029   71.3513  224.3545 H   0  0  0  0  0  0  0  0  0  0  0  0
  137.3777   75.3568  223.1296 H   0  0  0  0  0  0  0  0  0  0  0  0
  137.6500   77.7883  222.8421 H   0  0  0  0  0  0  0  0  0  0  0  0
  139.1190   79.5310  221.0090 H   0  0  0  0  0  0  0  0  0  0  0  0
  140.3397   81.6817  221.2746 H   0  0  0  0  0  0  0  0  0  0  0  0
  141.9901   83.0469  222.4984 H   0  0  0  0  0  0  0  0  0  0  0  0
  143.3168   82.0116  224.3225 H   0  0  0  0  0  0  0  0  0  0  0  0
  142.9806   79.6304  224.9108 H   0  0  0  0  0  0  0  0  0  0  0  0
  141.3149   78.2795  223.6733 H   0  0  0  0  0  0  0  0  0  0  0  0
  141.4687   77.1868  221.0345 H   0  0  0  0  0  0  0  0  0  0  0  0
  1  2  2  0
  2  3  1  0
  3  4  1  0
  4  5  1  0
  5  6  2  0
  6  7  1  0
  7  8  2  0
  8  9  1  0
  9 10  1  0
 10 11  2  0
 10 12  1  0
 12 13  1  0
 13 14  1  0
 14 15  1  0
 15 16  1  0
 16 17  1  0
  9 18  2  0
  4 19  2  0
 19 20  1  0
 20 21  2  0
 21 22  1  0
 22 23  2  0
 23 24  1  0
 24 25  1  0
 25 26  2  0
 26 27  1  0
 27 28  2  0
 28 29  1  0
 29 30  2  0
 23 31  1  0
 31 32  2  0
 32  2  1  0
 18  5  1  0
 32 20  1  0
 17 12  1  0
 30 25  1  0
  3 33  1  0
  3 34  1  0
  6 35  1  0
  7 36  1  0
  8 37  1  0
 13 38  1  0
 13 39  1  0
 14 40  1  0
 14 41  1  0
 16 42  1  0
 16 43  1  0
 17 44  1  0
 17 45  1  0
 18 46  1  0
 21 47  1  0
 22 48  1  0
 24 49  1  0
 26 50  1  0
 27 51  1  0
 28 52  1  0
 29 53  1  0
 30 54  1  0
 31 55  1  0
M  END
>  <smiles>  (43) 
O=C1CC(c2cccc(C(=O)N3CCOCC3)c2)=Nc2ccc(Nc3ccccc3)cc21

>  <score_type>  (43) 
oracle

>  <origin>  (43) 
autodockgpu

>  <m_score__min__energy>  (43) 
-9.6899999999999995

>  <m_primary>  (43) 
energy

>  <rmsd>  (43) 
6.586389704639783

>  <m_score__min__rmsd>  (43) 
6.586389704639783

>  <meeko>  (43) 
{"free_energy": -8.76, "intermolecular_energy": -9.96, "internal_energy": -0.89, "cluster_size": 32, "cluster_id": 1, "rank_in_cluster": 28}

>  <energy>  (43) 
-8.4

>  <cluster_rmsd>  (43) 
0.13

>  <cluster>  (43) 
3

$$$$

     RDKit          3D

 55 59  0  0  0  0  0  0  0  0999 V2000
  143.1750   73.4850  220.0600 O   0  0  0  0  0  0  0  0  0  0  0  0
  142.1260   73.4030  220.7800 C   0  0  0  0  0  0  0  0  0  0  0  0
  141.6550   72.0520  221.1440 C   0  0  0  0  0  0  0  0  0  0  0  0
  140.4380   72.1800  221.9670 C   0  0  0  0  0  0  0  0  0  0  0  0
  139.8010   70.9430  222.4340 C   0  0  0  0  0  0  0  0  0  0  0  0
  139.0990   70.1480  221.5190 C   0  0  0  0  0  0  0  0  0  0  0  0
  138.4920   68.9830  221.9040 C   0  0  0  0  0  0  0  0  0  0  0  0
  138.5830   68.6010  223.2160 C   0  0  0  0  0  0  0  0  0  0  0  0
  139.2740   69.3610  224.1680 C   0  0  0  0  0  0  0  0  0  0  0  0
  139.2930   68.8490  225.5120 C   0  0  0  0  0  0  0  0  0  0  0  0
  139.0020   67.6200  225.6690 O   0  0  0  0  0  0  0  0  0  0  0  0
  139.6040   69.5750  226.6790 N   0  0  0  0  0  0  0  0  0  0  0  0
  139.5790   68.8850  227.9690 C   0  0  0  0  0  0  0  0  0  0  0  0
  140.9870   68.9630  228.5150 C   0  0  0  0  0  0  0  0  0  0  0  0
  141.5920   70.1660  228.2850 O   0  0  0  0  0  0  0  0  0  0  0  0
  140.7510   71.2260  227.9990 C   0  0  0  0  0  0  0  0  0  0  0  0
  139.9570   70.9790  226.7190 C   0  0  0  0  0  0  0  0  0  0  0  0
  139.8730   70.5270  223.7520 C   0  0  0  0  0  0  0  0  0  0  0  0
  139.8780   73.2790  222.3130 N   0  0  0  0  0  0  0  0  0  0  0  0
  140.3490   74.5690  221.9540 C   0  0  0  0  0  0  0  0  0  0  0  0
  139.7060   75.7140  222.3550 C   0  0  0  0  0  0  0  0  0  0  0  0
  140.2230   76.9350  221.9640 C   0  0  0  0  0  0  0  0  0  0  0  0
  141.3530   77.0690  221.1900 C   0  0  0  0  0  0  0  0  0  0  0  0
  141.8920   78.3010  220.7600 N   0  0  0  0  0  0  0  0  0  0  0  0
  141.8550   79.5200  221.4690 C   0  0  0  0  0  0  0  0  0  0  0  0
  142.2100   79.6720  222.7890 C   0  0  0  0  0  0  0  0  0  0  0  0
  142.1750   80.8890  223.4420 C   0  0  0  0  0  0  0  0  0  0  0  0
  141.7660   82.0030  222.7460 C   0  0  0  0  0  0  0  0  0  0  0  0
  141.4000   81.9050  221.4230 C   0  0  0  0  0  0  0  0  0  0  0  0
  141.4450   80.6730  220.7930 C   0  0  0  0  0  0  0  0  0  0  0  0
  141.9710   75.8750  220.8080 C   0  0  0  0  0  0  0  0  0  0  0  0
  141.4840   74.6420  221.1790 C   0  0  0  0  0  0  0  0  0  0  0  0
  141.4263   71.4817  220.2316 H   0  0  0  0  0  0  0  0  0  0  0  0
  142.4359   71.5234  221.7103 H   0  0  0  0  0  0  0  0  0  0  0  0
  139.0341   70.4668  220.4682 H   0  0  0  0  0  0  0  0  0  0  0  0
  137.9434   68.3675  221.1759 H   0  0  0  0  0  0  0  0  0  0  0  0
  138.0972   67.6662  223.5326 H   0  0  0  0  0  0  0  0  0  0  0  0
  138.8761   69.3818  228.6539 H   0  0  0  0  0  0  0  0  0  0  0  0
  139.2481   67.8417  227.8598 H   0  0  0  0  0  0  0  0  0  0  0  0
  140.9497   68.7934  229.6012 H   0  0  0  0  0  0  0  0  0  0  0  0
  141.5801   68.1964  227.9948 H   0  0  0  0  0  0  0  0  0  0  0  0
  140.0489   71.3611  228.8349 H   0  0  0  0  0  0  0  0  0  0  0  0
  141.3663   72.1265  227.8557 H   0  0  0  0  0  0  0  0  0  0  0  0
  139.0449   71.5939  226.7202 H   0  0  0  0  0  0  0  0  0  0  0  0
  140.5570   71.2489  225.8374 H   0  0  0  0  0  0  0  0  0  0  0  0
  140.4205   71.1415  224.4818 H   0  0  0  0  0  0  0  0  0  0  0  0
  138.7985   75.6608  222.9744 H   0  0  0  0  0  0  0  0  0  0  0  0
  139.7033   77.8484  222.2890 H   0  0  0  0  0  0  0  0  0  0  0  0
  142.3640   78.3000  219.8150 H   0  0  0  0  0  0  0  0  0  0  0  0
  142.5367   78.7842  223.3504 H   0  0  0  0  0  0  0  0  0  0  0  0
  142.4688   80.9659  224.4992 H   0  0  0  0  0  0  0  0  0  0  0  0
  141.7313   82.9796  223.2509 H   0  0  0  0  0  0  0  0  0  0  0  0
  141.0742   82.7986  220.8704 H   0  0  0  0  0  0  0  0  0  0  0  0
  141.1512   80.5996  219.7355 H   0  0  0  0  0  0  0  0  0  0  0  0
  142.8789   75.9222  220.1888 H   0  0  0  0  0  0  0  0  0  0  0  0
  1  2  2  0
  2  3  1  0
  3  4  1  0
  4  5  1  0
  5  6  2  0
  6  7  1  0
  7  8  2  0
  8  9  1  0
  9 10  1  0
 10 11  2  0
 10 12  1  0
 12 13  1  0
 13 14  1  0
 14 15  1  0
 15 16  1  0
 16 17  1  0
  9 18  2  0
  4 19  2  0
 19 20  1  0
 20 21  2  0
 21 22  1  0
 22 23  2  0
 23 24  1  0
 24 25  1  0
 25 26  2  0
 26 27  1  0
 27 28  2  0
 28 29  1  0
 29 30  2  0
 23 31  1  0
 31 32  2  0
 32  2  1  0
 18  5  1  0
 32 20  1  0
 17 12  1  0
 30 25  1  0
  3 33  1  0
  3 34  1  0
  6 35  1  0
  7 36  1  0
  8 37  1  0
 13 38  1  0
 13 39  1  0
 14 40  1  0
 14 41  1  0
 16 42  1  0
 16 43  1  0
 17 44  1  0
 17 45  1  0
 18 46  1  0
 21 47  1  0
 22 48  1  0
 24 49  1  0
 26 50  1  0
 27 51  1  0
 28 52  1  0
 29 53  1  0
 30 54  1  0
 31 55  1  0
M  END
>  <smiles>  (44) 
O=C1CC(c2cccc(C(=O)N3CCOCC3)c2)=Nc2ccc(Nc3ccccc3)cc21

>  <score_type>  (44) 
oracle

>  <origin>  (44) 
autodockgpu

>  <m_score__min__energy>  (44) 
-9.6899999999999995

>  <m_primary>  (44) 
energy

>  <rmsd>  (44) 
6.726887601887653

>  <m_score__min__rmsd>  (44) 
6.726887601887653

>  <meeko>  (44) 
{"free_energy": -9.44, "intermolecular_energy": -10.64, "internal_energy": -0.89, "cluster_size": 32, "cluster_id": 1, "rank_in_cluster": 13}

>  <energy>  (44) 
-8.39

>  <cluster_rmsd>  (44) 
0.09

>  <cluster>  (44) 
3

$$$$

     RDKit          3D

 55 59  0  0  0  0  0  0  0  0999 V2000
  142.7240   73.5000  220.2000 O   0  0  0  0  0  0  0  0  0  0  0  0
  141.6490   73.5810  220.8790 C   0  0  0  0  0  0  0  0  0  0  0  0
  140.9860   72.3150  221.2540 C   0  0  0  0  0  0  0  0  0  0  0  0
  139.7680   72.6290  222.0250 C   0  0  0  0  0  0  0  0  0  0  0  0
  138.9520   71.5030  222.4930 C   0  0  0  0  0  0  0  0  0  0  0  0
  137.6350   71.3750  222.0340 C   0  0  0  0  0  0  0  0  0  0  0  0
  136.8360   70.3390  222.4380 C   0  0  0  0  0  0  0  0  0  0  0  0
  137.3500   69.4170  223.3100 C   0  0  0  0  0  0  0  0  0  0  0  0
  138.6610   69.5020  223.7970 C   0  0  0  0  0  0  0  0  0  0  0  0
  139.0790   68.4690  224.7080 C   0  0  0  0  0  0  0  0  0  0  0  0
  139.1790   67.2900  224.2410 O   0  0  0  0  0  0  0  0  0  0  0  0
  139.3890   68.6340  226.0720 N   0  0  0  0  0  0  0  0  0  0  0  0
  139.8040   67.4650  226.8480 C   0  0  0  0  0  0  0  0  0  0  0  0
  141.2110   67.7540  227.3230 C   0  0  0  0  0  0  0  0  0  0  0  0
  141.3990   69.0520  227.7060 O   0  0  0  0  0  0  0  0  0  0  0  0
  140.2560   69.7700  228.0060 C   0  0  0  0  0  0  0  0  0  0  0  0
  139.3350   69.8880  226.7950 C   0  0  0  0  0  0  0  0  0  0  0  0
  139.4400   70.5540  223.3740 C   0  0  0  0  0  0  0  0  0  0  0  0
  139.3510   73.8030  222.3230 N   0  0  0  0  0  0  0  0  0  0  0  0
  140.0050   75.0070  221.9550 C   0  0  0  0  0  0  0  0  0  0  0  0
  139.5090   76.2390  222.3050 C   0  0  0  0  0  0  0  0  0  0  0  0
  140.2020   77.3680  221.9080 C   0  0  0  0  0  0  0  0  0  0  0  0
  141.3670   77.3270  221.1770 C   0  0  0  0  0  0  0  0  0  0  0  0
  142.0830   78.4620  220.7420 N   0  0  0  0  0  0  0  0  0  0  0  0
  141.8380   79.7990  221.1190 C   0  0  0  0  0  0  0  0  0  0  0  0
  141.4210   80.7920  220.2630 C   0  0  0  0  0  0  0  0  0  0  0  0
  141.1760   82.0880  220.6760 C   0  0  0  0  0  0  0  0  0  0  0  0
  141.3570   82.4050  222.0030 C   0  0  0  0  0  0  0  0  0  0  0  0
  141.7730   81.4490  222.9000 C   0  0  0  0  0  0  0  0  0  0  0  0
  142.0110   80.1580  222.4580 C   0  0  0  0  0  0  0  0  0  0  0  0
  141.8310   76.0500  220.8460 C   0  0  0  0  0  0  0  0  0  0  0  0
  141.1660   74.9050  221.2250 C   0  0  0  0  0  0  0  0  0  0  0  0
  140.7155   71.7558  220.3462 H   0  0  0  0  0  0  0  0  0  0  0  0
  141.6667   71.7014  221.8623 H   0  0  0  0  0  0  0  0  0  0  0  0
  137.2339   72.1227  221.3340 H   0  0  0  0  0  0  0  0  0  0  0  0
  135.8033   70.2494  222.0699 H   0  0  0  0  0  0  0  0  0  0  0  0
  136.7131   68.5826  223.6388 H   0  0  0  0  0  0  0  0  0  0  0  0
  139.1332   67.3198  227.7076 H   0  0  0  0  0  0  0  0  0  0  0  0
  139.7648   66.5469  226.2433 H   0  0  0  0  0  0  0  0  0  0  0  0
  141.4299   67.1020  228.1815 H   0  0  0  0  0  0  0  0  0  0  0  0
  141.8852   67.5651  226.4746 H   0  0  0  0  0  0  0  0  0  0  0  0
  139.7161   69.2597  228.8172 H   0  0  0  0  0  0  0  0  0  0  0  0
  140.5555   70.7834  228.3115 H   0  0  0  0  0  0  0  0  0  0  0  0
  138.3047   70.0844  227.1265 H   0  0  0  0  0  0  0  0  0  0  0  0
  139.6561   70.7178  226.1483 H   0  0  0  0  0  0  0  0  0  0  0  0
  140.4722   70.6427  223.7437 H   0  0  0  0  0  0  0  0  0  0  0  0
  138.5806   76.3258  222.8885 H   0  0  0  0  0  0  0  0  0  0  0  0
  139.8002   78.3518  222.1919 H   0  0  0  0  0  0  0  0  0  0  0  0
  142.8770   78.2840  220.0670 H   0  0  0  0  0  0  0  0  0  0  0  0
  141.2760   80.5431  219.2014 H   0  0  0  0  0  0  0  0  0  0  0  0
  140.8427   82.8516  219.9578 H   0  0  0  0  0  0  0  0  0  0  0  0
  141.1673   83.4317  222.3492 H   0  0  0  0  0  0  0  0  0  0  0  0
  141.9155   81.7075  223.9597 H   0  0  0  0  0  0  0  0  0  0  0  0
  142.3443   79.3969  223.1788 H   0  0  0  0  0  0  0  0  0  0  0  0
  142.7590   75.9568  220.2628 H   0  0  0  0  0  0  0  0  0  0  0  0
  1  2  2  0
  2  3  1  0
  3  4  1  0
  4  5  1  0
  5  6  2  0
  6  7  1  0
  7  8  2  0
  8  9  1  0
  9 10  1  0
 10 11  2  0
 10 12  1  0
 12 13  1  0
 13 14  1  0
 14 15  1  0
 15 16  1  0
 16 17  1  0
  9 18  2  0
  4 19  2  0
 19 20  1  0
 20 21  2  0
 21 22  1  0
 22 23  2  0
 23 24  1  0
 24 25  1  0
 25 26  2  0
 26 27  1  0
 27 28  2  0
 28 29  1  0
 29 30  2  0
 23 31  1  0
 31 32  2  0
 32  2  1  0
 18  5  1  0
 32 20  1  0
 17 12  1  0
 30 25  1  0
  3 33  1  0
  3 34  1  0
  6 35  1  0
  7 36  1  0
  8 37  1  0
 13 38  1  0
 13 39  1  0
 14 40  1  0
 14 41  1  0
 16 42  1  0
 16 43  1  0
 17 44  1  0
 17 45  1  0
 18 46  1  0
 21 47  1  0
 22 48  1  0
 24 49  1  0
 26 50  1  0
 27 51  1  0
 28 52  1  0
 29 53  1  0
 30 54  1  0
 31 55  1  0
M  END
>  <smiles>  (45) 
O=C1CC(c2cccc(C(=O)N3CCOCC3)c2)=Nc2ccc(Nc3ccccc3)cc21

>  <score_type>  (45) 
oracle

>  <origin>  (45) 
autodockgpu

>  <m_score__min__energy>  (45) 
-9.6899999999999995

>  <m_primary>  (45) 
energy

>  <rmsd>  (45) 
6.481206791144401

>  <m_score__min__rmsd>  (45) 
6.481206791144401

>  <meeko>  (45) 
{"free_energy": -8.86, "intermolecular_energy": -10.05, "internal_energy": -1.0, "cluster_size": 32, "cluster_id": 1, "rank_in_cluster": 23}

>  <energy>  (45) 
-8.38

>  <cluster_rmsd>  (45) 
0.14

>  <cluster>  (45) 
3

$$$$

     RDKit          3D

 55 59  0  0  0  0  0  0  0  0999 V2000
  143.4540   73.8780  219.6970 O   0  0  0  0  0  0  0  0  0  0  0  0
  142.4390   73.7510  220.4570 C   0  0  0  0  0  0  0  0  0  0  0  0
  142.0310   72.3800  220.8220 C   0  0  0  0  0  0  0  0  0  0  0  0
  140.8430   72.4550  221.6940 C   0  0  0  0  0  0  0  0  0  0  0  0
  140.2700   71.1910  222.1710 C   0  0  0  0  0  0  0  0  0  0  0  0
  139.9770   70.1810  221.2450 C   0  0  0  0  0  0  0  0  0  0  0  0
  139.4460   68.9830  221.6400 C   0  0  0  0  0  0  0  0  0  0  0  0
  139.2020   68.7830  222.9720 C   0  0  0  0  0  0  0  0  0  0  0  0
  139.4780   69.7610  223.9360 C   0  0  0  0  0  0  0  0  0  0  0  0
  139.1750   69.4250  225.3010 C   0  0  0  0  0  0  0  0  0  0  0  0
  138.4000   68.4360  225.4980 O   0  0  0  0  0  0  0  0  0  0  0  0
  139.6540   70.0860  226.4500 N   0  0  0  0  0  0  0  0  0  0  0  0
  139.2430   69.6000  227.7680 C   0  0  0  0  0  0  0  0  0  0  0  0
  140.5100   69.1700  228.4720 C   0  0  0  0  0  0  0  0  0  0  0  0
  141.5680   70.0040  228.2430 O   0  0  0  0  0  0  0  0  0  0  0  0
  141.2550   71.2740  227.7940 C   0  0  0  0  0  0  0  0  0  0  0  0
  140.5400   71.2310  226.4470 C   0  0  0  0  0  0  0  0  0  0  0  0
  140.0110   70.9550  223.5090 C   0  0  0  0  0  0  0  0  0  0  0  0
  140.2590   73.5290  222.0750 N   0  0  0  0  0  0  0  0  0  0  0  0
  140.6690   74.8390  221.7140 C   0  0  0  0  0  0  0  0  0  0  0  0
  140.0020   75.9560  222.1540 C   0  0  0  0  0  0  0  0  0  0  0  0
  140.4600   77.1990  221.7580 C   0  0  0  0  0  0  0  0  0  0  0  0
  141.5530   77.3820  220.9420 C   0  0  0  0  0  0  0  0  0  0  0  0
  142.0300   78.6370  220.5060 N   0  0  0  0  0  0  0  0  0  0  0  0
  141.8520   79.8720  221.1650 C   0  0  0  0  0  0  0  0  0  0  0  0
  142.0820   80.0880  222.5030 C   0  0  0  0  0  0  0  0  0  0  0  0
  141.9100   81.3190  223.1070 C   0  0  0  0  0  0  0  0  0  0  0  0
  141.4870   82.3800  222.3390 C   0  0  0  0  0  0  0  0  0  0  0  0
  141.2420   82.2170  220.9950 C   0  0  0  0  0  0  0  0  0  0  0  0
  141.4230   80.9720  220.4170 C   0  0  0  0  0  0  0  0  0  0  0  0
  142.1970   76.2150  220.5210 C   0  0  0  0  0  0  0  0  0  0  0  0
  141.7690   74.9610  220.8960 C   0  0  0  0  0  0  0  0  0  0  0  0
  141.7868   71.8121  219.9121 H   0  0  0  0  0  0  0  0  0  0  0  0
  142.8519   71.8734  221.3507 H   0  0  0  0  0  0  0  0  0  0  0  0
  140.1781   70.3547  220.1776 H   0  0  0  0  0  0  0  0  0  0  0  0
  139.2202   68.1980  220.9032 H   0  0  0  0  0  0  0  0  0  0  0  0
  138.7750   67.8224  223.2961 H   0  0  0  0  0  0  0  0  0  0  0  0
  138.7464   70.4028  228.3328 H   0  0  0  0  0  0  0  0  0  0  0  0
  138.5286   68.7678  227.6839 H   0  0  0  0  0  0  0  0  0  0  0  0
  140.3154   69.1427  229.5543 H   0  0  0  0  0  0  0  0  0  0  0  0
  140.7834   68.1818  228.0736 H   0  0  0  0  0  0  0  0  0  0  0  0
  140.6001   71.7622  228.5308 H   0  0  0  0  0  0  0  0  0  0  0  0
  142.1921   71.8364  227.6692 H   0  0  0  0  0  0  0  0  0  0  0  0
  139.9582   72.1534  226.3031 H   0  0  0  0  0  0  0  0  0  0  0  0
  141.2699   71.1486  225.6282 H   0  0  0  0  0  0  0  0  0  0  0  0
  140.2360   71.7388  224.2473 H   0  0  0  0  0  0  0  0  0  0  0  0
  139.1221   75.8637  222.8076 H   0  0  0  0  0  0  0  0  0  0  0  0
  139.9218   78.0897  222.1144 H   0  0  0  0  0  0  0  0  0  0  0  0
  142.5700   78.6420  219.5980 H   0  0  0  0  0  0  0  0  0  0  0  0
  142.4183   79.2424  223.1210 H   0  0  0  0  0  0  0  0  0  0  0  0
  142.1074   81.4485  224.1814 H   0  0  0  0  0  0  0  0  0  0  0  0
  141.3436   83.3666  222.8037 H   0  0  0  0  0  0  0  0  0  0  0  0
  140.9053   83.0683  220.3851 H   0  0  0  0  0  0  0  0  0  0  0  0
  141.2243   80.8454  219.3425 H   0  0  0  0  0  0  0  0  0  0  0  0
  143.0771   76.3014  219.8668 H   0  0  0  0  0  0  0  0  0  0  0  0
  1  2  2  0
  2  3  1  0
  3  4  1  0
  4  5  1  0
  5  6  2  0
  6  7  1  0
  7  8  2  0
  8  9  1  0
  9 10  1  0
 10 11  2  0
 10 12  1  0
 12 13  1  0
 13 14  1  0
 14 15  1  0
 15 16  1  0
 16 17  1  0
  9 18  2  0
  4 19  2  0
 19 20  1  0
 20 21  2  0
 21 22  1  0
 22 23  2  0
 23 24  1  0
 24 25  1  0
 25 26  2  0
 26 27  1  0
 27 28  2  0
 28 29  1  0
 29 30  2  0
 23 31  1  0
 31 32  2  0
 32  2  1  0
 18  5  1  0
 32 20  1  0
 17 12  1  0
 30 25  1  0
  3 33  1  0
  3 34  1  0
  6 35  1  0
  7 36  1  0
  8 37  1  0
 13 38  1  0
 13 39  1  0
 14 40  1  0
 14 41  1  0
 16 42  1  0
 16 43  1  0
 17 44  1  0
 17 45  1  0
 18 46  1  0
 21 47  1  0
 22 48  1  0
 24 49  1  0
 26 50  1  0
 27 51  1  0
 28 52  1  0
 29 53  1  0
 30 54  1  0
 31 55  1  0
M  END
>  <smiles>  (46) 
O=C1CC(c2cccc(C(=O)N3CCOCC3)c2)=Nc2ccc(Nc3ccccc3)cc21

>  <score_type>  (46) 
oracle

>  <origin>  (46) 
autodockgpu

>  <m_score__min__energy>  (46) 
-9.6899999999999995

>  <m_primary>  (46) 
energy

>  <rmsd>  (46) 
6.632057709598846

>  <m_score__min__rmsd>  (46) 
6.632057709598846

>  <meeko>  (46) 
{"free_energy": -8.81, "intermolecular_energy": -10.0, "internal_energy": -0.88, "cluster_size": 32, "cluster_id": 1, "rank_in_cluster": 27}

>  <energy>  (46) 
-8.38

>  <cluster_rmsd>  (46) 
0.43

>  <cluster>  (46) 
3

$$$$

     RDKit          3D

 55 59  0  0  0  0  0  0  0  0999 V2000
  143.0360   73.9930  220.5280 O   0  0  0  0  0  0  0  0  0  0  0  0
  141.9170   73.7660  221.0930 C   0  0  0  0  0  0  0  0  0  0  0  0
  141.5810   72.3600  221.3960 C   0  0  0  0  0  0  0  0  0  0  0  0
  140.2540   72.3170  222.0370 C   0  0  0  0  0  0  0  0  0  0  0  0
  139.7260   71.0020  222.4180 C   0  0  0  0  0  0  0  0  0  0  0  0
  139.0950   70.2120  221.4480 C   0  0  0  0  0  0  0  0  0  0  0  0
  138.5910   68.9760  221.7520 C   0  0  0  0  0  0  0  0  0  0  0  0
  138.7140   68.5170  223.0370 C   0  0  0  0  0  0  0  0  0  0  0  0
  139.3370   69.2690  224.0410 C   0  0  0  0  0  0  0  0  0  0  0  0
  139.4010   68.6720  225.3480 C   0  0  0  0  0  0  0  0  0  0  0  0
  139.2040   67.4170  225.4230 O   0  0  0  0  0  0  0  0  0  0  0  0
  139.6620   69.3410  226.5600 N   0  0  0  0  0  0  0  0  0  0  0  0
  139.6950   68.5670  227.8010 C   0  0  0  0  0  0  0  0  0  0  0  0
  141.0950   68.7140  228.3520 C   0  0  0  0  0  0  0  0  0  0  0  0
  141.6070   69.9720  228.2030 O   0  0  0  0  0  0  0  0  0  0  0  0
  140.6880   70.9820  227.9870 C   0  0  0  0  0  0  0  0  0  0  0  0
  139.9090   70.7610  226.6930 C   0  0  0  0  0  0  0  0  0  0  0  0
  139.8330   70.5070  223.7050 C   0  0  0  0  0  0  0  0  0  0  0  0
  139.5110   73.3290  222.2930 N   0  0  0  0  0  0  0  0  0  0  0  0
  139.8530   74.6730  221.9950 C   0  0  0  0  0  0  0  0  0  0  0  0
  139.0150   75.7190  222.2930 C   0  0  0  0  0  0  0  0  0  0  0  0
  139.4160   77.0030  221.9720 C   0  0  0  0  0  0  0  0  0  0  0  0
  140.6170   77.2930  221.3650 C   0  0  0  0  0  0  0  0  0  0  0  0
  141.0440   78.5900  221.0070 N   0  0  0  0  0  0  0  0  0  0  0  0
  141.4290   79.6160  221.8960 C   0  0  0  0  0  0  0  0  0  0  0  0
  141.1550   80.9520  221.7170 C   0  0  0  0  0  0  0  0  0  0  0  0
  141.5370   81.9250  222.6200 C   0  0  0  0  0  0  0  0  0  0  0  0
  142.2240   81.5470  223.7510 C   0  0  0  0  0  0  0  0  0  0  0  0
  142.5240   80.2240  223.9770 C   0  0  0  0  0  0  0  0  0  0  0  0
  142.1280   79.2690  223.0540 C   0  0  0  0  0  0  0  0  0  0  0  0
  141.4350   76.1950  221.0820 C   0  0  0  0  0  0  0  0  0  0  0  0
  141.0670   74.9040  221.3890 C   0  0  0  0  0  0  0  0  0  0  0  0
  141.5608   71.7755  220.4643 H   0  0  0  0  0  0  0  0  0  0  0  0
  142.3366   71.9319  222.0711 H   0  0  0  0  0  0  0  0  0  0  0  0
  139.0026   70.5931  220.4203 H   0  0  0  0  0  0  0  0  0  0  0  0
  138.0981   68.3649  220.9815 H   0  0  0  0  0  0  0  0  0  0  0  0
  138.3102   67.5252  223.2885 H   0  0  0  0  0  0  0  0  0  0  0  0
  138.9598   68.9628  228.5171 H   0  0  0  0  0  0  0  0  0  0  0  0
  139.4433   67.5113  227.6220 H   0  0  0  0  0  0  0  0  0  0  0  0
  141.0751   68.4703  229.4245 H   0  0  0  0  0  0  0  0  0  0  0  0
  141.7418   68.0304  227.7825 H   0  0  0  0  0  0  0  0  0  0  0  0
  139.9814   71.0088  228.8296 H   0  0  0  0  0  0  0  0  0  0  0  0
  141.2336   71.9335  227.9036 H   0  0  0  0  0  0  0  0  0  0  0  0
  138.9535   71.3044  226.7344 H   0  0  0  0  0  0  0  0  0  0  0  0
  140.4833   71.1326  225.8315 H   0  0  0  0  0  0  0  0  0  0  0  0
  140.3255   71.1168  224.4767 H   0  0  0  0  0  0  0  0  0  0  0  0
  138.0439   75.5393  222.7775 H   0  0  0  0  0  0  0  0  0  0  0  0
  138.7399   77.8361  222.2144 H   0  0  0  0  0  0  0  0  0  0  0  0
  141.0730   78.8040  219.9730 H   0  0  0  0  0  0  0  0  0  0  0  0
  140.6070   81.2594  220.8141 H   0  0  0  0  0  0  0  0  0  0  0  0
  141.2964   82.9829  222.4384 H   0  0  0  0  0  0  0  0  0  0  0  0
  142.5357   82.3093  224.4802 H   0  0  0  0  0  0  0  0  0  0  0  0
  143.0734   79.9264  224.8823 H   0  0  0  0  0  0  0  0  0  0  0  0
  142.3702   78.2119  223.2381 H   0  0  0  0  0  0  0  0  0  0  0  0
  142.4069   76.3685  220.5969 H   0  0  0  0  0  0  0  0  0  0  0  0
  1  2  2  0
  2  3  1  0
  3  4  1  0
  4  5  1  0
  5  6  2  0
  6  7  1  0
  7  8  2  0
  8  9  1  0
  9 10  1  0
 10 11  2  0
 10 12  1  0
 12 13  1  0
 13 14  1  0
 14 15  1  0
 15 16  1  0
 16 17  1  0
  9 18  2  0
  4 19  2  0
 19 20  1  0
 20 21  2  0
 21 22  1  0
 22 23  2  0
 23 24  1  0
 24 25  1  0
 25 26  2  0
 26 27  1  0
 27 28  2  0
 28 29  1  0
 29 30  2  0
 23 31  1  0
 31 32  2  0
 32  2  1  0
 18  5  1  0
 32 20  1  0
 17 12  1  0
 30 25  1  0
  3 33  1  0
  3 34  1  0
  6 35  1  0
  7 36  1  0
  8 37  1  0
 13 38  1  0
 13 39  1  0
 14 40  1  0
 14 41  1  0
 16 42  1  0
 16 43  1  0
 17 44  1  0
 17 45  1  0
 18 46  1  0
 21 47  1  0
 22 48  1  0
 24 49  1  0
 26 50  1  0
 27 51  1  0
 28 52  1  0
 29 53  1  0
 30 54  1  0
 31 55  1  0
M  END
>  <smiles>  (47) 
O=C1CC(c2cccc(C(=O)N3CCOCC3)c2)=Nc2ccc(Nc3ccccc3)cc21

>  <score_type>  (47) 
oracle

>  <origin>  (47) 
autodockgpu

>  <m_score__min__energy>  (47) 
-9.6899999999999995

>  <m_primary>  (47) 
energy

>  <rmsd>  (47) 
6.720359835676793

>  <m_score__min__rmsd>  (47) 
6.720359835676793

>  <meeko>  (47) 
{"free_energy": -9.5, "intermolecular_energy": -10.69, "internal_energy": -0.91, "cluster_size": 32, "cluster_id": 1, "rank_in_cluster": 9}

>  <energy>  (47) 
-8.37

>  <cluster_rmsd>  (47) 
0.45

>  <cluster>  (47) 
3

$$$$

     RDKit          3D

 55 59  0  0  0  0  0  0  0  0999 V2000
  143.8010   72.3020  220.5830 O   0  0  0  0  0  0  0  0  0  0  0  0
  142.9430   73.2440  220.5670 C   0  0  0  0  0  0  0  0  0  0  0  0
  143.2810   74.4580  219.7970 C   0  0  0  0  0  0  0  0  0  0  0  0
  142.1670   75.4180  219.9110 C   0  0  0  0  0  0  0  0  0  0  0  0
  142.3040   76.7030  219.2180 C   0  0  0  0  0  0  0  0  0  0  0  0
  142.8180   76.7250  217.9140 C   0  0  0  0  0  0  0  0  0  0  0  0
  142.9610   77.8980  217.2240 C   0  0  0  0  0  0  0  0  0  0  0  0
  142.5910   79.0670  217.8340 C   0  0  0  0  0  0  0  0  0  0  0  0
  142.0720   79.0970  219.1350 C   0  0  0  0  0  0  0  0  0  0  0  0
  141.7210   80.3890  219.6600 C   0  0  0  0  0  0  0  0  0  0  0  0
  141.2750   81.2490  218.8350 O   0  0  0  0  0  0  0  0  0  0  0  0
  141.8220   80.8000  221.0040 N   0  0  0  0  0  0  0  0  0  0  0  0
  141.4110   82.1590  221.3590 C   0  0  0  0  0  0  0  0  0  0  0  0
  140.2640   82.0100  222.3340 C   0  0  0  0  0  0  0  0  0  0  0  0
  140.4380   80.9890  223.2240 O   0  0  0  0  0  0  0  0  0  0  0  0
  141.7360   80.5420  223.3930 C   0  0  0  0  0  0  0  0  0  0  0  0
  142.3060   79.9800  222.0940 C   0  0  0  0  0  0  0  0  0  0  0  0
  141.9400   77.9020  219.8040 C   0  0  0  0  0  0  0  0  0  0  0  0
  141.0820   75.2330  220.5670 N   0  0  0  0  0  0  0  0  0  0  0  0
  140.7750   74.0570  221.2990 C   0  0  0  0  0  0  0  0  0  0  0  0
  139.5940   73.9150  221.9840 C   0  0  0  0  0  0  0  0  0  0  0  0
  139.3660   72.7400  222.6760 C   0  0  0  0  0  0  0  0  0  0  0  0
  140.2630   71.6970  222.7180 C   0  0  0  0  0  0  0  0  0  0  0  0
  140.0660   70.4950  223.4320 N   0  0  0  0  0  0  0  0  0  0  0  0
  140.1990   70.3210  224.8250 C   0  0  0  0  0  0  0  0  0  0  0  0
  139.9060   69.1600  225.5020 C   0  0  0  0  0  0  0  0  0  0  0  0
  140.0660   69.0250  226.8680 C   0  0  0  0  0  0  0  0  0  0  0  0
  140.5380   70.0980  227.5890 C   0  0  0  0  0  0  0  0  0  0  0  0
  140.8450   71.2820  226.9600 C   0  0  0  0  0  0  0  0  0  0  0  0
  140.6760   71.3890  225.5900 C   0  0  0  0  0  0  0  0  0  0  0  0
  141.4500   71.8890  222.0050 C   0  0  0  0  0  0  0  0  0  0  0  0
  141.7090   73.0460  221.3050 C   0  0  0  0  0  0  0  0  0  0  0  0
  144.1999   74.9081  220.2008 H   0  0  0  0  0  0  0  0  0  0  0  0
  143.4438   74.1977  218.7407 H   0  0  0  0  0  0  0  0  0  0  0  0
  143.1126   75.7794  217.4354 H   0  0  0  0  0  0  0  0  0  0  0  0
  143.3647   77.9019  216.2008 H   0  0  0  0  0  0  0  0  0  0  0  0
  142.7050   80.0131  217.2846 H   0  0  0  0  0  0  0  0  0  0  0  0
  142.2452   82.6990  221.8307 H   0  0  0  0  0  0  0  0  0  0  0  0
  141.1103   82.7327  220.4699 H   0  0  0  0  0  0  0  0  0  0  0  0
  140.1606   82.9494  222.8969 H   0  0  0  0  0  0  0  0  0  0  0  0
  139.3649   81.7773  221.7446 H   0  0  0  0  0  0  0  0  0  0  0  0
  142.3634   81.3824  223.7249 H   0  0  0  0  0  0  0  0  0  0  0  0
  141.7299   79.7384  224.1441 H   0  0  0  0  0  0  0  0  0  0  0  0
  143.4052   80.0098  222.1245 H   0  0  0  0  0  0  0  0  0  0  0  0
  141.9897   78.9354  221.9572 H   0  0  0  0  0  0  0  0  0  0  0  0
  141.5362   77.9000  220.8272 H   0  0  0  0  0  0  0  0  0  0  0  0
  138.8441   74.7198  221.9824 H   0  0  0  0  0  0  0  0  0  0  0  0
  138.4171   72.6330  223.2221 H   0  0  0  0  0  0  0  0  0  0  0  0
  139.7950   69.6500  222.8580 H   0  0  0  0  0  0  0  0  0  0  0  0
  139.5272   68.3001  224.9302 H   0  0  0  0  0  0  0  0  0  0  0  0
  139.8206   68.0774  227.3698 H   0  0  0  0  0  0  0  0  0  0  0  0
  140.6708   70.0080  228.6772 H   0  0  0  0  0  0  0  0  0  0  0  0
  141.2217   72.1369  227.5407 H   0  0  0  0  0  0  0  0  0  0  0  0
  140.9232   72.3378  225.0914 H   0  0  0  0  0  0  0  0  0  0  0  0
  142.2035   71.0876  222.0031 H   0  0  0  0  0  0  0  0  0  0  0  0
  1  2  2  0
  2  3  1  0
  3  4  1  0
  4  5  1  0
  5  6  2  0
  6  7  1  0
  7  8  2  0
  8  9  1  0
  9 10  1  0
 10 11  2  0
 10 12  1  0
 12 13  1  0
 13 14  1  0
 14 15  1  0
 15 16  1  0
 16 17  1  0
  9 18  2  0
  4 19  2  0
 19 20  1  0
 20 21  2  0
 21 22  1  0
 22 23  2  0
 23 24  1  0
 24 25  1  0
 25 26  2  0
 26 27  1  0
 27 28  2  0
 28 29  1  0
 29 30  2  0
 23 31  1  0
 31 32  2  0
 32  2  1  0
 18  5  1  0
 32 20  1  0
 17 12  1  0
 30 25  1  0
  3 33  1  0
  3 34  1  0
  6 35  1  0
  7 36  1  0
  8 37  1  0
 13 38  1  0
 13 39  1  0
 14 40  1  0
 14 41  1  0
 16 42  1  0
 16 43  1  0
 17 44  1  0
 17 45  1  0
 18 46  1  0
 21 47  1  0
 22 48  1  0
 24 49  1  0
 26 50  1  0
 27 51  1  0
 28 52  1  0
 29 53  1  0
 30 54  1  0
 31 55  1  0
M  END
>  <smiles>  (48) 
O=C1CC(c2cccc(C(=O)N3CCOCC3)c2)=Nc2ccc(Nc3ccccc3)cc21

>  <score_type>  (48) 
oracle

>  <origin>  (48) 
autodockgpu

>  <m_score__min__energy>  (48) 
-9.6899999999999995

>  <m_primary>  (48) 
energy

>  <rmsd>  (48) 
9.505887246396796

>  <m_score__min__rmsd>  (48) 
9.505887246396796

>  <meeko>  (48) 
{"free_energy": -8.41, "intermolecular_energy": -9.6, "internal_energy": -0.98, "cluster_size": 15, "cluster_id": 3, "rank_in_cluster": 3}

>  <energy>  (48) 
-8.37

>  <cluster_rmsd>  (48) 
0.1

>  <cluster>  (48) 
3

$$$$

     RDKit          3D

 55 59  0  0  0  0  0  0  0  0999 V2000
  142.9550   74.0690  220.2770 O   0  0  0  0  0  0  0  0  0  0  0  0
  141.8790   73.8330  220.9180 C   0  0  0  0  0  0  0  0  0  0  0  0
  141.5690   72.4230  221.2290 C   0  0  0  0  0  0  0  0  0  0  0  0
  140.2910   72.3690  221.9640 C   0  0  0  0  0  0  0  0  0  0  0  0
  139.7950   71.0490  222.3670 C   0  0  0  0  0  0  0  0  0  0  0  0
  139.2550   70.1960  221.3950 C   0  0  0  0  0  0  0  0  0  0  0  0
  138.7830   68.9530  221.7200 C   0  0  0  0  0  0  0  0  0  0  0  0
  138.8470   68.5490  223.0270 C   0  0  0  0  0  0  0  0  0  0  0  0
  139.3780   69.3650  224.0340 C   0  0  0  0  0  0  0  0  0  0  0  0
  139.3870   68.8220  225.3660 C   0  0  0  0  0  0  0  0  0  0  0  0
  139.1340   67.5810  225.4890 O   0  0  0  0  0  0  0  0  0  0  0  0
  139.6500   69.5310  226.5550 N   0  0  0  0  0  0  0  0  0  0  0  0
  139.6210   68.8100  227.8280 C   0  0  0  0  0  0  0  0  0  0  0  0
  141.0140   68.9210  228.4060 C   0  0  0  0  0  0  0  0  0  0  0  0
  141.5830   70.1490  228.2170 O   0  0  0  0  0  0  0  0  0  0  0  0
  140.7130   71.1870  227.9360 C   0  0  0  0  0  0  0  0  0  0  0  0
  139.9550   70.9440  226.6350 C   0  0  0  0  0  0  0  0  0  0  0  0
  139.8440   70.6090  223.6780 C   0  0  0  0  0  0  0  0  0  0  0  0
  139.5670   73.3760  222.2840 N   0  0  0  0  0  0  0  0  0  0  0  0
  139.8850   74.7250  221.9780 C   0  0  0  0  0  0  0  0  0  0  0  0
  139.0690   75.7660  222.3480 C   0  0  0  0  0  0  0  0  0  0  0  0
  139.4440   77.0530  222.0130 C   0  0  0  0  0  0  0  0  0  0  0  0
  140.5970   77.3540  221.3230 C   0  0  0  0  0  0  0  0  0  0  0  0
  140.9950   78.6550  220.9510 N   0  0  0  0  0  0  0  0  0  0  0  0
  141.3880   79.6900  221.8250 C   0  0  0  0  0  0  0  0  0  0  0  0
  141.0610   81.0170  221.6670 C   0  0  0  0  0  0  0  0  0  0  0  0
  141.4530   81.9990  222.5570 C   0  0  0  0  0  0  0  0  0  0  0  0
  142.2060   81.6400  223.6510 C   0  0  0  0  0  0  0  0  0  0  0  0
  142.5600   80.3260  223.8550 C   0  0  0  0  0  0  0  0  0  0  0  0
  142.1530   79.3620  222.9480 C   0  0  0  0  0  0  0  0  0  0  0  0
  141.3940   76.2610  220.9700 C   0  0  0  0  0  0  0  0  0  0  0  0
  141.0510   74.9660  221.2880 C   0  0  0  0  0  0  0  0  0  0  0  0
  141.4830   71.8485  220.2949 H   0  0  0  0  0  0  0  0  0  0  0  0
  142.3723   71.9900  221.8432 H   0  0  0  0  0  0  0  0  0  0  0  0
  139.2095   70.5325  220.3487 H   0  0  0  0  0  0  0  0  0  0  0  0
  138.3613   68.2927  220.9479 H   0  0  0  0  0  0  0  0  0  0  0  0
  138.4691   67.5512  223.2946 H   0  0  0  0  0  0  0  0  0  0  0  0
  138.8879   69.2672  228.5088 H   0  0  0  0  0  0  0  0  0  0  0  0
  139.3272   67.7593  227.6876 H   0  0  0  0  0  0  0  0  0  0  0  0
  140.9599   68.7243  229.4869 H   0  0  0  0  0  0  0  0  0  0  0  0
  141.6431   68.1870  227.8812 H   0  0  0  0  0  0  0  0  0  0  0  0
  139.9894   71.2798  228.7593 H   0  0  0  0  0  0  0  0  0  0  0  0
  141.3010   72.1101  227.8257 H   0  0  0  0  0  0  0  0  0  0  0  0
  139.0231   71.5284  226.6307 H   0  0  0  0  0  0  0  0  0  0  0  0
  140.5641   71.2539  225.7730 H   0  0  0  0  0  0  0  0  0  0  0  0
  140.2645   71.2681  224.4518 H   0  0  0  0  0  0  0  0  0  0  0  0
  138.1360   75.5790  222.8998 H   0  0  0  0  0  0  0  0  0  0  0  0
  138.7861   77.8817  222.3137 H   0  0  0  0  0  0  0  0  0  0  0  0
  140.9940   78.8660  219.9150 H   0  0  0  0  0  0  0  0  0  0  0  0
  140.4606   81.3096  220.7930 H   0  0  0  0  0  0  0  0  0  0  0  0
  141.1680   83.0488  222.3936 H   0  0  0  0  0  0  0  0  0  0  0  0
  142.5276   82.4094  224.3683 H   0  0  0  0  0  0  0  0  0  0  0  0
  143.1615   80.0436  224.7316 H   0  0  0  0  0  0  0  0  0  0  0  0
  142.4386   78.3130  223.1153 H   0  0  0  0  0  0  0  0  0  0  0  0
  142.3284   76.4420  220.4186 H   0  0  0  0  0  0  0  0  0  0  0  0
  1  2  2  0
  2  3  1  0
  3  4  1  0
  4  5  1  0
  5  6  2  0
  6  7  1  0
  7  8  2  0
  8  9  1  0
  9 10  1  0
 10 11  2  0
 10 12  1  0
 12 13  1  0
 13 14  1  0
 14 15  1  0
 15 16  1  0
 16 17  1  0
  9 18  2  0
  4 19  2  0
 19 20  1  0
 20 21  2  0
 21 22  1  0
 22 23  2  0
 23 24  1  0
 24 25  1  0
 25 26  2  0
 26 27  1  0
 27 28  2  0
 28 29  1  0
 29 30  2  0
 23 31  1  0
 31 32  2  0
 32  2  1  0
 18  5  1  0
 32 20  1  0
 17 12  1  0
 30 25  1  0
  3 33  1  0
  3 34  1  0
  6 35  1  0
  7 36  1  0
  8 37  1  0
 13 38  1  0
 13 39  1  0
 14 40  1  0
 14 41  1  0
 16 42  1  0
 16 43  1  0
 17 44  1  0
 17 45  1  0
 18 46  1  0
 21 47  1  0
 22 48  1  0
 24 49  1  0
 26 50  1  0
 27 51  1  0
 28 52  1  0
 29 53  1  0
 30 54  1  0
 31 55  1  0
M  END
>  <smiles>  (49) 
O=C1CC(c2cccc(C(=O)N3CCOCC3)c2)=Nc2ccc(Nc3ccccc3)cc21

>  <score_type>  (49) 
oracle

>  <origin>  (49) 
autodockgpu

>  <m_score__min__energy>  (49) 
-9.6899999999999995

>  <m_primary>  (49) 
energy

>  <rmsd>  (49) 
6.7006196068414425

>  <m_score__min__rmsd>  (49) 
6.7006196068414425

>  <meeko>  (49) 
{"free_energy": -9.63, "intermolecular_energy": -10.83, "internal_energy": -0.9, "cluster_size": 32, "cluster_id": 1, "rank_in_cluster": 2}

>  <energy>  (49) 
-8.39

>  <cluster_rmsd>  (49) 
0.0

>  <cluster>  (49) 
4

$$$$

     RDKit          3D

 55 59  0  0  0  0  0  0  0  0999 V2000
  143.5910   71.9020  220.9150 O   0  0  0  0  0  0  0  0  0  0  0  0
  142.7420   72.8500  220.8480 C   0  0  0  0  0  0  0  0  0  0  0  0
  143.1400   74.0680  220.1140 C   0  0  0  0  0  0  0  0  0  0  0  0
  142.0270   75.0350  220.1600 C   0  0  0  0  0  0  0  0  0  0  0  0
  142.2200   76.3250  219.4890 C   0  0  0  0  0  0  0  0  0  0  0  0
  142.7610   76.3490  218.1960 C   0  0  0  0  0  0  0  0  0  0  0  0
  142.9560   77.5270  217.5270 C   0  0  0  0  0  0  0  0  0  0  0  0
  142.6110   78.6980  218.1470 C   0  0  0  0  0  0  0  0  0  0  0  0
  142.0670   78.7260  219.4380 C   0  0  0  0  0  0  0  0  0  0  0  0
  141.7470   80.0210  219.9750 C   0  0  0  0  0  0  0  0  0  0  0  0
  141.2640   80.8800  219.1710 O   0  0  0  0  0  0  0  0  0  0  0  0
  141.9160   80.4360  221.3110 N   0  0  0  0  0  0  0  0  0  0  0  0
  141.5290   81.7980  221.6820 C   0  0  0  0  0  0  0  0  0  0  0  0
  140.4320   81.6570  222.7130 C   0  0  0  0  0  0  0  0  0  0  0  0
  140.6460   80.6380  223.5970 O   0  0  0  0  0  0  0  0  0  0  0  0
  141.9490   80.1860  223.7020 C   0  0  0  0  0  0  0  0  0  0  0  0
  142.4520   79.6170  222.3780 C   0  0  0  0  0  0  0  0  0  0  0  0
  141.8820   77.5270  220.0860 C   0  0  0  0  0  0  0  0  0  0  0  0
  140.8980   74.8520  220.7370 N   0  0  0  0  0  0  0  0  0  0  0  0
  140.5340   73.6720  221.4360 C   0  0  0  0  0  0  0  0  0  0  0  0
  139.3070   73.5330  222.0360 C   0  0  0  0  0  0  0  0  0  0  0  0
  139.0240   72.3530  222.7000 C   0  0  0  0  0  0  0  0  0  0  0  0
  139.9100   71.3040  222.7950 C   0  0  0  0  0  0  0  0  0  0  0  0
  139.6560   70.0980  223.4830 N   0  0  0  0  0  0  0  0  0  0  0  0
  139.8980   69.8500  224.8510 C   0  0  0  0  0  0  0  0  0  0  0  0
  139.6820   68.6460  225.4800 C   0  0  0  0  0  0  0  0  0  0  0  0
  139.9460   68.4410  226.8200 C   0  0  0  0  0  0  0  0  0  0  0  0
  140.4470   69.4840  227.5650 C   0  0  0  0  0  0  0  0  0  0  0  0
  140.6800   70.7090  226.9830 C   0  0  0  0  0  0  0  0  0  0  0  0
  140.4060   70.8870  225.6370 C   0  0  0  0  0  0  0  0  0  0  0  0
  141.1450   71.4940  222.1670 C   0  0  0  0  0  0  0  0  0  0  0  0
  141.4590   72.6550  221.4970 C   0  0  0  0  0  0  0  0  0  0  0  0
  144.0319   74.5081  220.5839 H   0  0  0  0  0  0  0  0  0  0  0  0
  143.3732   73.8155  219.0691 H   0  0  0  0  0  0  0  0  0  0  0  0
  143.0345   75.4014  217.7089 H   0  0  0  0  0  0  0  0  0  0  0  0
  143.3810   77.5329  216.5124 H   0  0  0  0  0  0  0  0  0  0  0  0
  142.7659   79.6478  217.6142 H   0  0  0  0  0  0  0  0  0  0  0  0
  142.3880   82.3356  222.1099 H   0  0  0  0  0  0  0  0  0  0  0  0
  141.1868   82.3705  220.8073 H   0  0  0  0  0  0  0  0  0  0  0  0
  140.3605   82.5987  223.2771 H   0  0  0  0  0  0  0  0  0  0  0  0
  139.5037   81.4261  222.1699 H   0  0  0  0  0  0  0  0  0  0  0  0
  142.5955   81.0249  223.9992 H   0  0  0  0  0  0  0  0  0  0  0  0
  141.9767   79.3845  224.4549 H   0  0  0  0  0  0  0  0  0  0  0  0
  143.5514   79.6431  222.3533 H   0  0  0  0  0  0  0  0  0  0  0  0
  142.1267   78.5728  222.2607 H   0  0  0  0  0  0  0  0  0  0  0  0
  141.4564   77.5233  221.1003 H   0  0  0  0  0  0  0  0  0  0  0  0
  138.5644   74.3432  221.9897 H   0  0  0  0  0  0  0  0  0  0  0  0
  138.0386   72.2474  223.1774 H   0  0  0  0  0  0  0  0  0  0  0  0
  139.2490   69.3090  222.9090 H   0  0  0  0  0  0  0  0  0  0  0  0
  139.2811   67.8091  224.8894 H   0  0  0  0  0  0  0  0  0  0  0  0
  139.7591   67.4612  227.2837 H   0  0  0  0  0  0  0  0  0  0  0  0
  140.6628   69.3374  228.6336 H   0  0  0  0  0  0  0  0  0  0  0  0
  141.0806   71.5402  227.5819 H   0  0  0  0  0  0  0  0  0  0  0  0
  140.5929   71.8682  225.1761 H   0  0  0  0  0  0  0  0  0  0  0  0
  141.8918   70.6875  222.2099 H   0  0  0  0  0  0  0  0  0  0  0  0
  1  2  2  0
  2  3  1  0
  3  4  1  0
  4  5  1  0
  5  6  2  0
  6  7  1  0
  7  8  2  0
  8  9  1  0
  9 10  1  0
 10 11  2  0
 10 12  1  0
 12 13  1  0
 13 14  1  0
 14 15  1  0
 15 16  1  0
 16 17  1  0
  9 18  2  0
  4 19  2  0
 19 20  1  0
 20 21  2  0
 21 22  1  0
 22 23  2  0
 23 24  1  0
 24 25  1  0
 25 26  2  0
 26 27  1  0
 27 28  2  0
 28 29  1  0
 29 30  2  0
 23 31  1  0
 31 32  2  0
 32  2  1  0
 18  5  1  0
 32 20  1  0
 17 12  1  0
 30 25  1  0
  3 33  1  0
  3 34  1  0
  6 35  1  0
  7 36  1  0
  8 37  1  0
 13 38  1  0
 13 39  1  0
 14 40  1  0
 14 41  1  0
 16 42  1  0
 16 43  1  0
 17 44  1  0
 17 45  1  0
 18 46  1  0
 21 47  1  0
 22 48  1  0
 24 49  1  0
 26 50  1  0
 27 51  1  0
 28 52  1  0
 29 53  1  0
 30 54  1  0
 31 55  1  0
M  END
>  <smiles>  (50) 
O=C1CC(c2cccc(C(=O)N3CCOCC3)c2)=Nc2ccc(Nc3ccccc3)cc21

>  <score_type>  (50) 
oracle

>  <origin>  (50) 
autodockgpu

>  <m_score__min__energy>  (50) 
-9.6899999999999995

>  <m_primary>  (50) 
energy

>  <rmsd>  (50) 
9.86160747887854

>  <m_score__min__rmsd>  (50) 
9.86160747887854

>  <meeko>  (50) 
{"free_energy": -8.37, "intermolecular_energy": -9.56, "internal_energy": -1.01, "cluster_size": 15, "cluster_id": 3, "rank_in_cluster": 14}

>  <energy>  (50) 
-7.89

>  <cluster_rmsd>  (50) 
0.0

>  <cluster>  (50) 
5

$$$$
