
     RDKit          3D

 48 51  0  0  0  0  0  0  0  0999 V2000
  138.7820   71.0660  221.1070 O   0  0  0  0  0  0  0  0  0  0  0  0
  138.5670   71.5860  222.2460 C   0  0  0  0  0  0  0  0  0  0  0  0
  137.6980   72.7260  222.2390 N   0  0  0  0  0  0  0  0  0  0  0  0
  137.1730   73.1530  220.9820 C   0  0  0  0  0  0  0  0  0  0  0  0
  137.4640   74.5800  220.6790 C   0  0  0  0  0  0  0  0  0  0  0  0
  136.5780   75.4150  220.3620 O   0  0  0  0  0  0  0  0  0  0  0  0
  138.8250   74.9940  220.7590 N   0  0  0  0  0  0  0  0  0  0  0  0
  139.7400   75.3360  219.6750 C   0  0  0  0  0  0  0  0  0  0  0  0
  141.1300   74.9080  220.1170 C   0  0  1  0  0  0  0  0  0  0  0  0
  142.0550   75.9280  220.0100 F   0  0  0  0  0  0  0  0  0  0  0  0
  140.8920   74.4690  221.5460 C   0  0  0  0  0  0  0  0  0  0  0  0
  139.6290   75.1760  221.9730 C   0  0  1  0  0  0  0  0  0  0  0  0
  139.8000   76.5770  222.3150 C   0  0  0  0  0  0  0  0  0  0  0  0
  141.0910   77.0010  222.6570 C   0  0  0  0  0  0  0  0  0  0  0  0
  141.3660   78.3060  222.9950 C   0  0  0  0  0  0  0  0  0  0  0  0
  140.3800   79.2670  223.0150 C   0  0  0  0  0  0  0  0  0  0  0  0
  140.6730   80.9370  223.4370 Cl  0  0  0  0  0  0  0  0  0  0  0  0
  139.1000   78.8740  222.6820 C   0  0  0  0  0  0  0  0  0  0  0  0
  138.8320   77.5480  222.3400 C   0  0  0  0  0  0  0  0  0  0  0  0
  139.1550   71.0720  223.4710 C   0  0  0  0  0  0  0  0  0  0  0  0
  140.0900   71.8630  224.1040 C   0  0  0  0  0  0  0  0  0  0  0  0
  140.7100   71.4810  225.2650 C   0  0  0  0  0  0  0  0  0  0  0  0
  140.3620   70.2500  225.7910 C   0  0  0  0  0  0  0  0  0  0  0  0
  140.9870   69.8690  226.9580 C   0  0  0  0  0  0  0  0  0  0  0  0
  140.6670   68.6490  227.5140 C   0  0  0  0  0  0  0  0  0  0  0  0
  141.4590   68.1560  229.0010 Cl  0  0  0  0  0  0  0  0  0  0  0  0
  139.7270   67.8510  226.8780 C   0  0  0  0  0  0  0  0  0  0  0  0
  139.1100   68.2650  225.6970 C   0  0  0  0  0  0  0  0  0  0  0  0
  139.4290   69.4900  225.1340 C   0  0  0  0  0  0  0  0  0  0  0  0
  138.8220   69.8730  223.9910 N   0  0  0  0  0  0  0  0  0  0  0  0
  137.4910   73.1910  223.1610 H   0  0  0  0  0  0  0  0  0  0  0  0
  137.6139   72.5305  220.1895 H   0  0  0  0  0  0  0  0  0  0  0  0
  136.0793   73.0461  221.0315 H   0  0  0  0  0  0  0  0  0  0  0  0
  139.4543   74.8023  218.7566 H   0  0  0  0  0  0  0  0  0  0  0  0
  139.7102   76.4146  219.4609 H   0  0  0  0  0  0  0  0  0  0  0  0
  141.5665   74.1152  219.4918 H   0  0  0  0  0  0  0  0  0  0  0  0
  140.7594   73.3782  221.5973 H   0  0  0  0  0  0  0  0  0  0  0  0
  141.7421   74.7166  222.1987 H   0  0  0  0  0  0  0  0  0  0  0  0
  139.1963   74.7801  222.9036 H   0  0  0  0  0  0  0  0  0  0  0  0
  141.9105   76.2673  222.6552 H   0  0  0  0  0  0  0  0  0  0  0  0
  142.3969   78.5881  223.2552 H   0  0  0  0  0  0  0  0  0  0  0  0
  138.2843   79.6119  222.6862 H   0  0  0  0  0  0  0  0  0  0  0  0
  137.8002   77.2697  222.0793 H   0  0  0  0  0  0  0  0  0  0  0  0
  140.3478   72.8363  223.6610 H   0  0  0  0  0  0  0  0  0  0  0  0
  141.4527   72.1259  225.7575 H   0  0  0  0  0  0  0  0  0  0  0  0
  141.7276   70.5261  227.4372 H   0  0  0  0  0  0  0  0  0  0  0  0
  139.4637   66.8752  227.3122 H   0  0  0  0  0  0  0  0  0  0  0  0
  138.3669   67.6158  225.2108 H   0  0  0  0  0  0  0  0  0  0  0  0
  1  2  2  0
  2  3  1  0
  3  4  1  0
  4  5  1  0
  5  6  2  0
  5  7  1  0
  7  8  1  0
  8  9  1  0
  9 10  1  0
  9 11  1  0
 11 12  1  0
 12 13  1  0
 13 14  2  0
 14 15  1  0
 15 16  2  0
 16 17  1  0
 16 18  1  0
 18 19  2  0
  2 20  1  0
 20 21  2  0
 21 22  1  0
 22 23  2  0
 23 24  1  0
 24 25  2  0
 25 26  1  0
 25 27  1  0
 27 28  2  0
 28 29  1  0
 29 30  2  0
 12  7  1  0
 19 13  1  0
 30 20  1  0
 29 23  1  0
  3 31  1  0
  4 32  1  0
  4 33  1  0
  8 34  1  0
  8 35  1  0
  9 36  1  6
 11 37  1  0
 11 38  1  0
 12 39  1  1
 14 40  1  0
 15 41  1  0
 18 42  1  0
 19 43  1  0
 21 44  1  0
 22 45  1  0
 24 46  1  0
 27 47  1  0
 28 48  1  0
M  END
>  <smiles>  (1) 
O=C(NCC(=O)N1C[C@@H](F)C[C@H]1c1ccc(Cl)cc1)c1ccc2cc(Cl)ccc2n1

>  <score_type>  (1) 
oracle

>  <origin>  (1) 
autodockgpu

>  <m_score__min__energy>  (1) 
-8.75

>  <m_primary>  (1) 
energy

>  <rmsd>  (1) 
3.026889854012304

>  <m_score__min__rmsd>  (1) 
3.026889854012304

>  <meeko>  (1) 
{"free_energy": -7.89, "intermolecular_energy": -9.38, "internal_energy": -1.63, "cluster_size": 23, "cluster_id": 1, "rank_in_cluster": 20}

>  <energy>  (1) 
-8.75

>  <cluster_rmsd>  (1) 
0.0

>  <cluster>  (1) 
1

$$$$

     RDKit          3D

 48 51  0  0  0  0  0  0  0  0999 V2000
  140.4760   72.4240  221.2360 O   0  0  0  0  0  0  0  0  0  0  0  0
  139.6980   72.4280  222.2400 C   0  0  0  0  0  0  0  0  0  0  0  0
  138.6060   73.3520  222.1590 N   0  0  0  0  0  0  0  0  0  0  0  0
  138.5040   74.1590  220.9850 C   0  0  0  0  0  0  0  0  0  0  0  0
  139.3680   75.3680  221.0280 C   0  0  0  0  0  0  0  0  0  0  0  0
  140.5610   75.3820  220.6270 O   0  0  0  0  0  0  0  0  0  0  0  0
  138.7890   76.5590  221.5550 N   0  0  0  0  0  0  0  0  0  0  0  0
  137.9600   76.7220  222.7440 C   0  0  0  0  0  0  0  0  0  0  0  0
  136.9780   77.8450  222.4480 C   0  0  1  0  0  0  0  0  0  0  0  0
  136.9880   78.8240  223.4230 F   0  0  0  0  0  0  0  0  0  0  0  0
  137.4560   78.3440  221.1020 C   0  0  0  0  0  0  0  0  0  0  0  0
  138.9000   77.9180  221.0100 C   0  0  1  0  0  0  0  0  0  0  0  0
  139.8280   78.7390  221.7670 C   0  0  0  0  0  0  0  0  0  0  0  0
  140.9560   78.1050  222.3050 C   0  0  0  0  0  0  0  0  0  0  0  0
  141.9000   78.7870  223.0360 C   0  0  0  0  0  0  0  0  0  0  0  0
  141.7830   80.1370  223.2780 C   0  0  0  0  0  0  0  0  0  0  0  0
  142.9510   81.0530  224.2010 Cl  0  0  0  0  0  0  0  0  0  0  0  0
  140.6810   80.7860  222.7600 C   0  0  0  0  0  0  0  0  0  0  0  0
  139.7290   80.0840  222.0190 C   0  0  0  0  0  0  0  0  0  0  0  0
  139.8920   71.5620  223.3920 C   0  0  0  0  0  0  0  0  0  0  0  0
  139.5350   70.2370  223.2530 C   0  0  0  0  0  0  0  0  0  0  0  0
  139.6740   69.3300  224.2700 C   0  0  0  0  0  0  0  0  0  0  0  0
  140.1910   69.7950  225.4650 C   0  0  0  0  0  0  0  0  0  0  0  0
  140.3290   68.8800  226.4860 C   0  0  0  0  0  0  0  0  0  0  0  0
  140.8410   69.3050  227.6930 C   0  0  0  0  0  0  0  0  0  0  0  0
  141.0190   68.1450  228.9990 Cl  0  0  0  0  0  0  0  0  0  0  0  0
  141.2000   70.6370  227.8350 C   0  0  0  0  0  0  0  0  0  0  0  0
  141.0490   71.5410  226.7820 C   0  0  0  0  0  0  0  0  0  0  0  0
  140.5340   71.1190  225.5660 C   0  0  0  0  0  0  0  0  0  0  0  0
  140.3960   72.0070  224.5610 N   0  0  0  0  0  0  0  0  0  0  0  0
  137.9340   73.3910  222.9690 H   0  0  0  0  0  0  0  0  0  0  0  0
  138.7967   73.5509  220.1164 H   0  0  0  0  0  0  0  0  0  0  0  0
  137.4620   74.5044  220.9156 H   0  0  0  0  0  0  0  0  0  0  0  0
  137.4158   75.7899  222.9563 H   0  0  0  0  0  0  0  0  0  0  0  0
  138.5761   76.9597  223.6237 H   0  0  0  0  0  0  0  0  0  0  0  0
  135.9273   77.5197  222.4364 H   0  0  0  0  0  0  0  0  0  0  0  0
  136.8677   77.8894  220.2913 H   0  0  0  0  0  0  0  0  0  0  0  0
  137.3427   79.4338  221.0046 H   0  0  0  0  0  0  0  0  0  0  0  0
  139.3187   78.0005  219.9962 H   0  0  0  0  0  0  0  0  0  0  0  0
  141.0907   77.0263  222.1370 H   0  0  0  0  0  0  0  0  0  0  0  0
  142.7676   78.2419  223.4361 H   0  0  0  0  0  0  0  0  0  0  0  0
  140.5518   81.8647  222.9323 H   0  0  0  0  0  0  0  0  0  0  0  0
  138.8628   80.6323  221.6202 H   0  0  0  0  0  0  0  0  0  0  0  0
  139.1240   69.8965  222.2912 H   0  0  0  0  0  0  0  0  0  0  0  0
  139.3864   68.2761  224.1414 H   0  0  0  0  0  0  0  0  0  0  0  0
  140.0359   67.8298  226.3404 H   0  0  0  0  0  0  0  0  0  0  0  0
  141.6107   70.9871  228.7935 H   0  0  0  0  0  0  0  0  0  0  0  0
  141.3400   72.5931  226.9177 H   0  0  0  0  0  0  0  0  0  0  0  0
  1  2  2  0
  2  3  1  0
  3  4  1  0
  4  5  1  0
  5  6  2  0
  5  7  1  0
  7  8  1  0
  8  9  1  0
  9 10  1  0
  9 11  1  0
 11 12  1  0
 12 13  1  0
 13 14  2  0
 14 15  1  0
 15 16  2  0
 16 17  1  0
 16 18  1  0
 18 19  2  0
  2 20  1  0
 20 21  2  0
 21 22  1  0
 22 23  2  0
 23 24  1  0
 24 25  2  0
 25 26  1  0
 25 27  1  0
 27 28  2  0
 28 29  1  0
 29 30  2  0
 12  7  1  0
 19 13  1  0
 30 20  1  0
 29 23  1  0
  3 31  1  0
  4 32  1  0
  4 33  1  0
  8 34  1  0
  8 35  1  0
  9 36  1  6
 11 37  1  0
 11 38  1  0
 12 39  1  6
 14 40  1  0
 15 41  1  0
 18 42  1  0
 19 43  1  0
 21 44  1  0
 22 45  1  0
 24 46  1  0
 27 47  1  0
 28 48  1  0
M  END
>  <smiles>  (2) 
O=C(NCC(=O)N1C[C@@H](F)C[C@H]1c1ccc(Cl)cc1)c1ccc2cc(Cl)ccc2n1

>  <score_type>  (2) 
oracle

>  <origin>  (2) 
autodockgpu

>  <m_score__min__energy>  (2) 
-8.75

>  <m_primary>  (2) 
energy

>  <rmsd>  (2) 
2.787249448772672

>  <m_score__min__rmsd>  (2) 
2.787249448772672

>  <meeko>  (2) 
{"free_energy": -8.33, "intermolecular_energy": -9.82, "internal_energy": -1.26, "cluster_size": 23, "cluster_id": 1, "rank_in_cluster": 8}

>  <energy>  (2) 
-8.66

>  <cluster_rmsd>  (2) 
0.56

>  <cluster>  (2) 
1

$$$$

     RDKit          3D

 48 51  0  0  0  0  0  0  0  0999 V2000
  133.5580   69.6230  226.5490 O   0  0  0  0  0  0  0  0  0  0  0  0
  134.0330   70.7110  226.0970 C   0  0  0  0  0  0  0  0  0  0  0  0
  135.1480   70.5640  225.2080 N   0  0  0  0  0  0  0  0  0  0  0  0
  135.6020   69.2410  224.9240 C   0  0  0  0  0  0  0  0  0  0  0  0
  136.2120   69.1070  223.5750 C   0  0  0  0  0  0  0  0  0  0  0  0
  135.8050   68.2890  222.7090 O   0  0  0  0  0  0  0  0  0  0  0  0
  137.3130   69.9600  223.2740 N   0  0  0  0  0  0  0  0  0  0  0  0
  137.2970   71.3650  222.8810 C   0  0  0  0  0  0  0  0  0  0  0  0
  138.4660   71.5720  221.9310 C   0  0  1  0  0  0  0  0  0  0  0  0
  139.2780   72.6210  222.3150 F   0  0  0  0  0  0  0  0  0  0  0  0
  139.1640   70.2310  221.9830 C   0  0  0  0  0  0  0  0  0  0  0  0
  138.7390   69.6120  223.2920 C   0  0  1  0  0  0  0  0  0  0  0  0
  139.4170   70.1350  224.4640 C   0  0  0  0  0  0  0  0  0  0  0  0
  139.0680   69.5880  225.7050 C   0  0  0  0  0  0  0  0  0  0  0  0
  139.6500   70.0070  226.8790 C   0  0  0  0  0  0  0  0  0  0  0  0
  140.6110   70.9930  226.8930 C   0  0  0  0  0  0  0  0  0  0  0  0
  141.3820   71.5640  228.3540 Cl  0  0  0  0  0  0  0  0  0  0  0  0
  140.9730   71.5480  225.6830 C   0  0  0  0  0  0  0  0  0  0  0  0
  140.3760   71.1150  224.4980 C   0  0  0  0  0  0  0  0  0  0  0  0
  133.4950   72.0140  226.4510 C   0  0  0  0  0  0  0  0  0  0  0  0
  132.3120   72.0370  227.1600 C   0  0  0  0  0  0  0  0  0  0  0  0
  131.7120   73.2050  227.5480 C   0  0  0  0  0  0  0  0  0  0  0  0
  132.3410   74.3860  227.1960 C   0  0  0  0  0  0  0  0  0  0  0  0
  131.7340   75.5590  227.5860 C   0  0  0  0  0  0  0  0  0  0  0  0
  132.3300   76.7570  227.2550 C   0  0  0  0  0  0  0  0  0  0  0  0
  131.5640   78.2560  227.7490 Cl  0  0  0  0  0  0  0  0  0  0  0  0
  133.5200   76.7360  226.5410 C   0  0  0  0  0  0  0  0  0  0  0  0
  134.1110   75.5310  226.1590 C   0  0  0  0  0  0  0  0  0  0  0  0
  133.5150   74.3240  226.4900 C   0  0  0  0  0  0  0  0  0  0  0  0
  134.1020   73.1690  226.1120 N   0  0  0  0  0  0  0  0  0  0  0  0
  135.5750   71.4400  224.8080 H   0  0  0  0  0  0  0  0  0  0  0  0
  136.3535   68.9604  225.6767 H   0  0  0  0  0  0  0  0  0  0  0  0
  134.7224   68.5811  224.9515 H   0  0  0  0  0  0  0  0  0  0  0  0
  136.3507   71.6051  222.3741 H   0  0  0  0  0  0  0  0  0  0  0  0
  137.3836   72.0205  223.7601 H   0  0  0  0  0  0  0  0  0  0  0  0
  138.1614   71.8576  220.9134 H   0  0  0  0  0  0  0  0  0  0  0  0
  138.8500   69.6001  221.1384 H   0  0  0  0  0  0  0  0  0  0  0  0
  140.2569   70.3343  221.9137 H   0  0  0  0  0  0  0  0  0  0  0  0
  138.9758   68.5405  223.3688 H   0  0  0  0  0  0  0  0  0  0  0  0
  138.3037   68.7977  225.7423 H   0  0  0  0  0  0  0  0  0  0  0  0
  139.3407   69.5440  227.8277 H   0  0  0  0  0  0  0  0  0  0  0  0
  141.7380   72.3378  225.6519 H   0  0  0  0  0  0  0  0  0  0  0  0
  140.6879   71.5795  223.5509 H   0  0  0  0  0  0  0  0  0  0  0  0
  131.8332   71.0823  227.4233 H   0  0  0  0  0  0  0  0  0  0  0  0
  130.7697   73.2044  228.1156 H   0  0  0  0  0  0  0  0  0  0  0  0
  130.7906   75.5402  228.1514 H   0  0  0  0  0  0  0  0  0  0  0  0
  134.0056   77.6855  226.2716 H   0  0  0  0  0  0  0  0  0  0  0  0
  135.0540   75.5389  225.5927 H   0  0  0  0  0  0  0  0  0  0  0  0
  1  2  2  0
  2  3  1  0
  3  4  1  0
  4  5  1  0
  5  6  2  0
  5  7  1  0
  7  8  1  0
  8  9  1  0
  9 10  1  0
  9 11  1  0
 11 12  1  0
 12 13  1  0
 13 14  2  0
 14 15  1  0
 15 16  2  0
 16 17  1  0
 16 18  1  0
 18 19  2  0
  2 20  1  0
 20 21  2  0
 21 22  1  0
 22 23  2  0
 23 24  1  0
 24 25  2  0
 25 26  1  0
 25 27  1  0
 27 28  2  0
 28 29  1  0
 29 30  2  0
 12  7  1  0
 19 13  1  0
 30 20  1  0
 29 23  1  0
  3 31  1  0
  4 32  1  0
  4 33  1  0
  8 34  1  0
  8 35  1  0
  9 36  1  6
 11 37  1  0
 11 38  1  0
 12 39  1  6
 14 40  1  0
 15 41  1  0
 18 42  1  0
 19 43  1  0
 21 44  1  0
 22 45  1  0
 24 46  1  0
 27 47  1  0
 28 48  1  0
M  END
>  <smiles>  (3) 
O=C(NCC(=O)N1C[C@@H](F)C[C@H]1c1ccc(Cl)cc1)c1ccc2cc(Cl)ccc2n1

>  <score_type>  (3) 
oracle

>  <origin>  (3) 
autodockgpu

>  <m_score__min__energy>  (3) 
-8.75

>  <m_primary>  (3) 
energy

>  <rmsd>  (3) 
8.03167645335972

>  <m_score__min__rmsd>  (3) 
8.03167645335972

>  <meeko>  (3) 
{"free_energy": -8.21, "intermolecular_energy": -9.7, "internal_energy": -1.51, "cluster_size": 1, "cluster_id": 3, "rank_in_cluster": 1}

>  <energy>  (3) 
-8.58

>  <cluster_rmsd>  (3) 
0.54

>  <cluster>  (3) 
1

$$$$

     RDKit          3D

 48 51  0  0  0  0  0  0  0  0999 V2000
  140.9560   72.0580  221.2730 O   0  0  0  0  0  0  0  0  0  0  0  0
  139.7970   72.5730  221.2020 C   0  0  0  0  0  0  0  0  0  0  0  0
  138.7830   71.7140  220.6660 N   0  0  0  0  0  0  0  0  0  0  0  0
  139.1670   70.3960  220.2750 C   0  0  0  0  0  0  0  0  0  0  0  0
  139.2620   69.4500  221.4190 C   0  0  0  0  0  0  0  0  0  0  0  0
  139.9230   68.3790  221.3790 O   0  0  0  0  0  0  0  0  0  0  0  0
  138.5590   69.7980  222.6080 N   0  0  0  0  0  0  0  0  0  0  0  0
  137.2620   69.3180  223.0750 C   0  0  0  0  0  0  0  0  0  0  0  0
  136.6070   70.4700  223.8210 C   0  0  1  0  0  0  0  0  0  0  0  0
  136.1850   70.1060  225.0860 F   0  0  0  0  0  0  0  0  0  0  0  0
  137.7070   71.5090  223.8390 C   0  0  0  0  0  0  0  0  0  0  0  0
  138.9880   70.7350  223.6540 C   0  0  1  0  0  0  0  0  0  0  0  0
  139.4650   70.0510  224.8420 C   0  0  0  0  0  0  0  0  0  0  0  0
  140.0290   70.8390  225.8540 C   0  0  0  0  0  0  0  0  0  0  0  0
  140.5100   70.2960  227.0220 C   0  0  0  0  0  0  0  0  0  0  0  0
  140.4600   68.9400  227.2580 C   0  0  0  0  0  0  0  0  0  0  0  0
  141.0570   68.1970  228.7240 Cl  0  0  0  0  0  0  0  0  0  0  0  0
  139.9100   68.1410  226.2780 C   0  0  0  0  0  0  0  0  0  0  0  0
  139.4240   68.7030  225.0960 C   0  0  0  0  0  0  0  0  0  0  0  0
  139.5100   73.9320  221.6290 C   0  0  0  0  0  0  0  0  0  0  0  0
  138.1850   74.3040  221.7070 C   0  0  0  0  0  0  0  0  0  0  0  0
  137.7960   75.5580  222.0970 C   0  0  0  0  0  0  0  0  0  0  0  0
  138.7960   76.4590  222.4150 C   0  0  0  0  0  0  0  0  0  0  0  0
  138.4020   77.7190  222.8070 C   0  0  0  0  0  0  0  0  0  0  0  0
  139.3690   78.6460  223.1320 C   0  0  0  0  0  0  0  0  0  0  0  0
  138.8750   80.2550  223.6320 Cl  0  0  0  0  0  0  0  0  0  0  0  0
  140.7030   78.2740  223.0540 C   0  0  0  0  0  0  0  0  0  0  0  0
  141.0720   76.9900  222.6540 C   0  0  0  0  0  0  0  0  0  0  0  0
  140.1030   76.0540  222.3250 C   0  0  0  0  0  0  0  0  0  0  0  0
  140.4790   74.8170  221.9410 N   0  0  0  0  0  0  0  0  0  0  0  0
  137.8050   72.0980  220.5880 H   0  0  0  0  0  0  0  0  0  0  0  0
  138.4213   70.0110  219.5639 H   0  0  0  0  0  0  0  0  0  0  0  0
  140.1684   70.4670  219.8253 H   0  0  0  0  0  0  0  0  0  0  0  0
  136.6390   69.0186  222.2193 H   0  0  0  0  0  0  0  0  0  0  0  0
  137.3789   68.4413  223.7290 H   0  0  0  0  0  0  0  0  0  0  0  0
  135.6826   70.8325  223.3476 H   0  0  0  0  0  0  0  0  0  0  0  0
  137.5702   72.2293  223.0190 H   0  0  0  0  0  0  0  0  0  0  0  0
  137.7090   72.0882  224.7742 H   0  0  0  0  0  0  0  0  0  0  0  0
  139.8531   71.3693  223.4105 H   0  0  0  0  0  0  0  0  0  0  0  0
  140.0890   71.9278  225.7093 H   0  0  0  0  0  0  0  0  0  0  0  0
  140.9443   70.9591  227.7847 H   0  0  0  0  0  0  0  0  0  0  0  0
  139.8537   67.0528  226.4286 H   0  0  0  0  0  0  0  0  0  0  0  0
  138.9897   68.0369  224.3359 H   0  0  0  0  0  0  0  0  0  0  0  0
  137.4115   73.5665  221.4464 H   0  0  0  0  0  0  0  0  0  0  0  0
  136.7335   75.8367  222.1549 H   0  0  0  0  0  0  0  0  0  0  0  0
  137.3349   77.9809  222.8598 H   0  0  0  0  0  0  0  0  0  0  0  0
  141.4836   79.0047  223.3122 H   0  0  0  0  0  0  0  0  0  0  0  0
  142.1365   76.7184  222.5992 H   0  0  0  0  0  0  0  0  0  0  0  0
  1  2  2  0
  2  3  1  0
  3  4  1  0
  4  5  1  0
  5  6  2  0
  5  7  1  0
  7  8  1  0
  8  9  1  0
  9 10  1  0
  9 11  1  0
 11 12  1  0
 12 13  1  0
 13 14  2  0
 14 15  1  0
 15 16  2  0
 16 17  1  0
 16 18  1  0
 18 19  2  0
  2 20  1  0
 20 21  2  0
 21 22  1  0
 22 23  2  0
 23 24  1  0
 24 25  2  0
 25 26  1  0
 25 27  1  0
 27 28  2  0
 28 29  1  0
 29 30  2  0
 12  7  1  0
 19 13  1  0
 30 20  1  0
 29 23  1  0
  3 31  1  0
  4 32  1  0
  4 33  1  0
  8 34  1  0
  8 35  1  0
  9 36  1  6
 11 37  1  0
 11 38  1  0
 12 39  1  6
 14 40  1  0
 15 41  1  0
 18 42  1  0
 19 43  1  0
 21 44  1  0
 22 45  1  0
 24 46  1  0
 27 47  1  0
 28 48  1  0
M  END
>  <smiles>  (4) 
O=C(NCC(=O)N1C[C@@H](F)C[C@H]1c1ccc(Cl)cc1)c1ccc2cc(Cl)ccc2n1

>  <score_type>  (4) 
oracle

>  <origin>  (4) 
autodockgpu

>  <m_score__min__energy>  (4) 
-8.75

>  <m_primary>  (4) 
energy

>  <rmsd>  (4) 
7.138521805317779

>  <m_score__min__rmsd>  (4) 
7.138521805317779

>  <meeko>  (4) 
{"free_energy": -7.39, "intermolecular_energy": -8.88, "internal_energy": -1.67, "cluster_size": 2, "cluster_id": 7, "rank_in_cluster": 2}

>  <energy>  (4) 
-8.55

>  <cluster_rmsd>  (4) 
0.53

>  <cluster>  (4) 
1

$$$$

     RDKit          3D

 48 51  0  0  0  0  0  0  0  0999 V2000
  139.4010   70.9940  220.9830 O   0  0  0  0  0  0  0  0  0  0  0  0
  139.2960   71.6470  222.0670 C   0  0  0  0  0  0  0  0  0  0  0  0
  138.7240   72.9540  221.9360 N   0  0  0  0  0  0  0  0  0  0  0  0
  138.3370   73.3820  220.6300 C   0  0  0  0  0  0  0  0  0  0  0  0
  138.2040   74.8590  220.5120 C   0  0  0  0  0  0  0  0  0  0  0  0
  137.1980   75.4260  220.0130 O   0  0  0  0  0  0  0  0  0  0  0  0
  139.2880   75.6480  220.9970 N   0  0  0  0  0  0  0  0  0  0  0  0
  139.6120   76.0040  222.3740 C   0  0  0  0  0  0  0  0  0  0  0  0
  140.2330   77.3910  222.3380 C   0  0  1  0  0  0  0  0  0  0  0  0
  141.4500   77.4420  222.9900 F   0  0  0  0  0  0  0  0  0  0  0  0
  140.3450   77.6550  220.8520 C   0  0  0  0  0  0  0  0  0  0  0  0
  140.3430   76.2920  220.2050 C   0  0  1  0  0  0  0  0  0  0  0  0
  141.6040   75.5770  220.2850 C   0  0  0  0  0  0  0  0  0  0  0  0
  141.5610   74.2480  220.7300 C   0  0  0  0  0  0  0  0  0  0  0  0
  142.6950   73.4780  220.8420 C   0  0  0  0  0  0  0  0  0  0  0  0
  143.9380   73.9770  220.5200 C   0  0  0  0  0  0  0  0  0  0  0  0
  145.4100   73.0430  220.6440 Cl  0  0  0  0  0  0  0  0  0  0  0  0
  144.0070   75.2820  220.0800 C   0  0  0  0  0  0  0  0  0  0  0  0
  142.8500   76.0550  219.9700 C   0  0  0  0  0  0  0  0  0  0  0  0
  139.7230   71.1170  223.3520 C   0  0  0  0  0  0  0  0  0  0  0  0
  140.5450   71.9120  224.1220 C   0  0  0  0  0  0  0  0  0  0  0  0
  141.0090   71.5170  225.3490 C   0  0  0  0  0  0  0  0  0  0  0  0
  140.6200   70.2680  225.7990 C   0  0  0  0  0  0  0  0  0  0  0  0
  141.0880   69.8730  227.0320 C   0  0  0  0  0  0  0  0  0  0  0  0
  140.7230   68.6350  227.5160 C   0  0  0  0  0  0  0  0  0  0  0  0
  141.3160   68.1250  229.0870 Cl  0  0  0  0  0  0  0  0  0  0  0  0
  139.8970   67.8330  226.7420 C   0  0  0  0  0  0  0  0  0  0  0  0
  139.4380   68.2610  225.4960 C   0  0  0  0  0  0  0  0  0  0  0  0
  139.8030   69.5050  225.0050 C   0  0  0  0  0  0  0  0  0  0  0  0
  139.3480   69.9000  223.7980 N   0  0  0  0  0  0  0  0  0  0  0  0
  138.6170   73.5330  222.8090 H   0  0  0  0  0  0  0  0  0  0  0  0
  139.0965   73.0410  219.9111 H   0  0  0  0  0  0  0  0  0  0  0  0
  137.3477   72.9475  220.4237 H   0  0  0  0  0  0  0  0  0  0  0  0
  138.6985   76.0145  222.9868 H   0  0  0  0  0  0  0  0  0  0  0  0
  140.3057   75.2738  222.8163 H   0  0  0  0  0  0  0  0  0  0  0  0
  139.6398   78.1522  222.8660 H   0  0  0  0  0  0  0  0  0  0  0  0
  139.4889   78.2497  220.5006 H   0  0  0  0  0  0  0  0  0  0  0  0
  141.2520   78.2258  220.6038 H   0  0  0  0  0  0  0  0  0  0  0  0
  140.1823   76.3215  219.1172 H   0  0  0  0  0  0  0  0  0  0  0  0
  140.5894   73.8073  220.9980 H   0  0  0  0  0  0  0  0  0  0  0  0
  142.6075   72.4404  221.1966 H   0  0  0  0  0  0  0  0  0  0  0  0
  144.9815   75.7173  219.8136 H   0  0  0  0  0  0  0  0  0  0  0  0
  142.9417   77.0922  219.6154 H   0  0  0  0  0  0  0  0  0  0  0  0
  140.8391   72.8996  223.7371 H   0  0  0  0  0  0  0  0  0  0  0  0
  141.6630   72.1653  225.9507 H   0  0  0  0  0  0  0  0  0  0  0  0
  141.7416   70.5336  227.6205 H   0  0  0  0  0  0  0  0  0  0  0  0
  139.5989   66.8428  227.1171 H   0  0  0  0  0  0  0  0  0  0  0  0
  138.7832   67.6081  224.9002 H   0  0  0  0  0  0  0  0  0  0  0  0
  1  2  2  0
  2  3  1  0
  3  4  1  0
  4  5  1  0
  5  6  2  0
  5  7  1  0
  7  8  1  0
  8  9  1  0
  9 10  1  0
  9 11  1  0
 11 12  1  0
 12 13  1  0
 13 14  2  0
 14 15  1  0
 15 16  2  0
 16 17  1  0
 16 18  1  0
 18 19  2  0
  2 20  1  0
 20 21  2  0
 21 22  1  0
 22 23  2  0
 23 24  1  0
 24 25  2  0
 25 26  1  0
 25 27  1  0
 27 28  2  0
 28 29  1  0
 29 30  2  0
 12  7  1  0
 19 13  1  0
 30 20  1  0
 29 23  1  0
  3 31  1  0
  4 32  1  0
  4 33  1  0
  8 34  1  0
  8 35  1  0
  9 36  1  1
 11 37  1  0
 11 38  1  0
 12 39  1  6
 14 40  1  0
 15 41  1  0
 18 42  1  0
 19 43  1  0
 21 44  1  0
 22 45  1  0
 24 46  1  0
 27 47  1  0
 28 48  1  0
M  END
>  <smiles>  (5) 
O=C(NCC(=O)N1C[C@@H](F)C[C@H]1c1ccc(Cl)cc1)c1ccc2cc(Cl)ccc2n1

>  <score_type>  (5) 
oracle

>  <origin>  (5) 
autodockgpu

>  <m_score__min__energy>  (5) 
-8.75

>  <m_primary>  (5) 
energy

>  <rmsd>  (5) 
3.1468221680496367

>  <m_score__min__rmsd>  (5) 
3.1468221680496367

>  <meeko>  (5) 
{"free_energy": -8.15, "intermolecular_energy": -9.64, "internal_energy": -1.62, "cluster_size": 18, "cluster_id": 2, "rank_in_cluster": 8}

>  <energy>  (5) 
-8.43

>  <cluster_rmsd>  (5) 
0.62

>  <cluster>  (5) 
1

$$$$

     RDKit          3D

 48 51  0  0  0  0  0  0  0  0999 V2000
  139.3640   71.7840  220.5840 O   0  0  0  0  0  0  0  0  0  0  0  0
  139.0610   72.1870  221.7500 C   0  0  0  0  0  0  0  0  0  0  0  0
  138.4090   73.4620  221.8020 N   0  0  0  0  0  0  0  0  0  0  0  0
  138.1710   74.1370  220.5660 C   0  0  0  0  0  0  0  0  0  0  0  0
  138.1760   75.6180  220.6970 C   0  0  0  0  0  0  0  0  0  0  0  0
  137.2010   76.3450  220.3750 O   0  0  0  0  0  0  0  0  0  0  0  0
  139.3600   76.2190  221.2160 N   0  0  0  0  0  0  0  0  0  0  0  0
  139.7390   76.4360  222.6080 C   0  0  0  0  0  0  0  0  0  0  0  0
  140.5430   77.7260  222.6520 C   0  0  1  0  0  0  0  0  0  0  0  0
  141.7590   77.5670  223.2870 F   0  0  0  0  0  0  0  0  0  0  0  0
  140.6800   78.0700  221.1850 C   0  0  0  0  0  0  0  0  0  0  0  0
  140.4880   76.7650  220.4510 C   0  0  1  0  0  0  0  0  0  0  0  0
  141.6400   75.8820  220.4660 C   0  0  0  0  0  0  0  0  0  0  0  0
  142.8590   76.4090  220.0180 C   0  0  0  0  0  0  0  0  0  0  0  0
  144.0130   75.6620  219.9910 C   0  0  0  0  0  0  0  0  0  0  0  0
  144.0300   74.3490  220.4060 C   0  0  0  0  0  0  0  0  0  0  0  0
  145.4670   73.3540  220.3930 Cl  0  0  0  0  0  0  0  0  0  0  0  0
  142.8420   73.8060  220.8510 C   0  0  0  0  0  0  0  0  0  0  0  0
  141.6770   74.5730  220.8740 C   0  0  0  0  0  0  0  0  0  0  0  0
  139.3500   71.4190  222.9500 C   0  0  0  0  0  0  0  0  0  0  0  0
  138.9670   70.0940  222.9600 C   0  0  0  0  0  0  0  0  0  0  0  0
  139.1870   69.2740  224.0340 C   0  0  0  0  0  0  0  0  0  0  0  0
  139.8180   69.8290  225.1330 C   0  0  0  0  0  0  0  0  0  0  0  0
  140.0380   69.0020  226.2120 C   0  0  0  0  0  0  0  0  0  0  0  0
  140.6640   69.5180  227.3270 C   0  0  0  0  0  0  0  0  0  0  0  0
  140.9480   68.4700  228.7060 Cl  0  0  0  0  0  0  0  0  0  0  0  0
  141.0500   70.8500  227.3190 C   0  0  0  0  0  0  0  0  0  0  0  0
  140.8140   71.6630  226.2110 C   0  0  0  0  0  0  0  0  0  0  0  0
  140.1840   71.1500  225.0880 C   0  0  0  0  0  0  0  0  0  0  0  0
  139.9650   71.9520  224.0250 N   0  0  0  0  0  0  0  0  0  0  0  0
  138.1390   73.8370  222.7480 H   0  0  0  0  0  0  0  0  0  0  0  0
  138.9560   73.8465  219.8522 H   0  0  0  0  0  0  0  0  0  0  0  0
  137.1690   73.8428  220.2205 H   0  0  0  0  0  0  0  0  0  0  0  0
  138.8397   76.5294  223.2346 H   0  0  0  0  0  0  0  0  0  0  0  0
  140.3299   75.5910  222.9911 H   0  0  0  0  0  0  0  0  0  0  0  0
  140.0630   78.5247  223.2365 H   0  0  0  0  0  0  0  0  0  0  0  0
  139.9106   78.7971  220.8861 H   0  0  0  0  0  0  0  0  0  0  0  0
  141.6546   78.5278  220.9601 H   0  0  0  0  0  0  0  0  0  0  0  0
  140.3260   76.8879  219.3700 H   0  0  0  0  0  0  0  0  0  0  0  0
  142.8936   77.4542  219.6769 H   0  0  0  0  0  0  0  0  0  0  0  0
  144.9438   76.1236  219.6297 H   0  0  0  0  0  0  0  0  0  0  0  0
  142.8134   72.7600  221.1903 H   0  0  0  0  0  0  0  0  0  0  0  0
  140.7478   74.1079  221.2349 H   0  0  0  0  0  0  0  0  0  0  0  0
  138.4662   69.6808  222.0721 H   0  0  0  0  0  0  0  0  0  0  0  0
  138.8754   68.2191  224.0236 H   0  0  0  0  0  0  0  0  0  0  0  0
  139.7202   67.9493  226.1849 H   0  0  0  0  0  0  0  0  0  0  0  0
  141.5512   71.2726  228.2023 H   0  0  0  0  0  0  0  0  0  0  0  0
  141.1293   72.7167  226.2282 H   0  0  0  0  0  0  0  0  0  0  0  0
  1  2  2  0
  2  3  1  0
  3  4  1  0
  4  5  1  0
  5  6  2  0
  5  7  1  0
  7  8  1  0
  8  9  1  0
  9 10  1  0
  9 11  1  0
 11 12  1  0
 12 13  1  0
 13 14  2  0
 14 15  1  0
 15 16  2  0
 16 17  1  0
 16 18  1  0
 18 19  2  0
  2 20  1  0
 20 21  2  0
 21 22  1  0
 22 23  2  0
 23 24  1  0
 24 25  2  0
 25 26  1  0
 25 27  1  0
 27 28  2  0
 28 29  1  0
 29 30  2  0
 12  7  1  0
 19 13  1  0
 30 20  1  0
 29 23  1  0
  3 31  1  0
  4 32  1  0
  4 33  1  0
  8 34  1  0
  8 35  1  0
  9 36  1  1
 11 37  1  0
 11 38  1  0
 12 39  1  6
 14 40  1  0
 15 41  1  0
 18 42  1  0
 19 43  1  0
 21 44  1  0
 22 45  1  0
 24 46  1  0
 27 47  1  0
 28 48  1  0
M  END
>  <smiles>  (6) 
O=C(NCC(=O)N1C[C@@H](F)C[C@H]1c1ccc(Cl)cc1)c1ccc2cc(Cl)ccc2n1

>  <score_type>  (6) 
oracle

>  <origin>  (6) 
autodockgpu

>  <m_score__min__energy>  (6) 
-8.75

>  <m_primary>  (6) 
energy

>  <rmsd>  (6) 
2.468855720629806

>  <m_score__min__rmsd>  (6) 
2.468855720629806

>  <meeko>  (6) 
{"free_energy": -7.98, "intermolecular_energy": -9.47, "internal_energy": -1.72, "cluster_size": 18, "cluster_id": 2, "rank_in_cluster": 13}

>  <energy>  (6) 
-8.41

>  <cluster_rmsd>  (6) 
0.51

>  <cluster>  (6) 
1

$$$$

     RDKit          3D

 48 51  0  0  0  0  0  0  0  0999 V2000
  139.8180   72.0180  221.0750 O   0  0  0  0  0  0  0  0  0  0  0  0
  139.2190   72.1600  222.1860 C   0  0  0  0  0  0  0  0  0  0  0  0
  138.2280   73.1940  222.2150 N   0  0  0  0  0  0  0  0  0  0  0  0
  138.0170   73.9450  221.0190 C   0  0  0  0  0  0  0  0  0  0  0  0
  138.2810   75.3990  221.1860 C   0  0  0  0  0  0  0  0  0  0  0  0
  137.4690   76.1930  221.7290 O   0  0  0  0  0  0  0  0  0  0  0  0
  139.5250   75.8920  220.6960 N   0  0  0  0  0  0  0  0  0  0  0  0
  139.8430   76.4070  219.3680 C   0  0  0  0  0  0  0  0  0  0  0  0
  141.2860   76.0270  219.0800 C   0  0  1  0  0  0  0  0  0  0  0  0
  142.0510   77.1120  218.6970 F   0  0  0  0  0  0  0  0  0  0  0  0
  141.7290   75.4240  220.3960 C   0  0  0  0  0  0  0  0  0  0  0  0
  140.7910   75.9970  221.4300 C   0  0  1  0  0  0  0  0  0  0  0  0
  141.0840   77.3620  221.8300 C   0  0  0  0  0  0  0  0  0  0  0  0
  140.5930   77.7850  223.0720 C   0  0  0  0  0  0  0  0  0  0  0  0
  140.8130   79.0560  223.5510 C   0  0  0  0  0  0  0  0  0  0  0  0
  141.5310   79.9820  222.8270 C   0  0  0  0  0  0  0  0  0  0  0  0
  141.8400   81.6090  223.3860 Cl  0  0  0  0  0  0  0  0  0  0  0  0
  142.0250   79.5900  221.6010 C   0  0  0  0  0  0  0  0  0  0  0  0
  141.7960   78.2980  221.1250 C   0  0  0  0  0  0  0  0  0  0  0  0
  139.5110   71.3380  223.3490 C   0  0  0  0  0  0  0  0  0  0  0  0
  139.2370   69.9900  223.2550 C   0  0  0  0  0  0  0  0  0  0  0  0
  139.4710   69.1190  224.2870 C   0  0  0  0  0  0  0  0  0  0  0  0
  139.9990   69.6470  225.4510 C   0  0  0  0  0  0  0  0  0  0  0  0
  140.2330   68.7700  226.4860 C   0  0  0  0  0  0  0  0  0  0  0  0
  140.7590   69.2580  227.6630 C   0  0  0  0  0  0  0  0  0  0  0  0
  141.0600   68.1460  228.9880 Cl  0  0  0  0  0  0  0  0  0  0  0  0
  141.0350   70.6140  227.7600 C   0  0  0  0  0  0  0  0  0  0  0  0
  140.7880   71.4780  226.6940 C   0  0  0  0  0  0  0  0  0  0  0  0
  140.2580   70.9930  225.5080 C   0  0  0  0  0  0  0  0  0  0  0  0
  140.0260   71.8450  224.4880 N   0  0  0  0  0  0  0  0  0  0  0  0
  137.7050   73.3480  223.1160 H   0  0  0  0  0  0  0  0  0  0  0  0
  138.6873   73.5553  220.2387 H   0  0  0  0  0  0  0  0  0  0  0  0
  136.9571   73.8344  220.7463 H   0  0  0  0  0  0  0  0  0  0  0  0
  139.1764   75.9562  218.6180 H   0  0  0  0  0  0  0  0  0  0  0  0
  139.7077   77.4979  219.3264 H   0  0  0  0  0  0  0  0  0  0  0  0
  141.3980   75.3357  218.2317 H   0  0  0  0  0  0  0  0  0  0  0  0
  141.6458   74.3276  220.3653 H   0  0  0  0  0  0  0  0  0  0  0  0
  142.7803   75.6563  220.6212 H   0  0  0  0  0  0  0  0  0  0  0  0
  140.8331   75.4770  222.3984 H   0  0  0  0  0  0  0  0  0  0  0  0
  140.0130   77.0784  223.6839 H   0  0  0  0  0  0  0  0  0  0  0  0
  140.4067   79.3387  224.5333 H   0  0  0  0  0  0  0  0  0  0  0  0
  142.6040   80.3009  220.9933 H   0  0  0  0  0  0  0  0  0  0  0  0
  142.2041   78.0188  220.1424 H   0  0  0  0  0  0  0  0  0  0  0  0
  138.8151   69.5993  222.3173 H   0  0  0  0  0  0  0  0  0  0  0  0
  139.2483   68.0458  224.1934 H   0  0  0  0  0  0  0  0  0  0  0  0
  140.0045   67.6997  226.3758 H   0  0  0  0  0  0  0  0  0  0  0  0
  141.4560   71.0145  228.6940 H   0  0  0  0  0  0  0  0  0  0  0  0
  141.0147   72.5497  226.7943 H   0  0  0  0  0  0  0  0  0  0  0  0
  1  2  2  0
  2  3  1  0
  3  4  1  0
  4  5  1  0
  5  6  2  0
  5  7  1  0
  7  8  1  0
  8  9  1  0
  9 10  1  0
  9 11  1  0
 11 12  1  0
 12 13  1  0
 13 14  2  0
 14 15  1  0
 15 16  2  0
 16 17  1  0
 16 18  1  0
 18 19  2  0
  2 20  1  0
 20 21  2  0
 21 22  1  0
 22 23  2  0
 23 24  1  0
 24 25  2  0
 25 26  1  0
 25 27  1  0
 27 28  2  0
 28 29  1  0
 29 30  2  0
 12  7  1  0
 19 13  1  0
 30 20  1  0
 29 23  1  0
  3 31  1  0
  4 32  1  0
  4 33  1  0
  8 34  1  0
  8 35  1  0
  9 36  1  6
 11 37  1  0
 11 38  1  0
 12 39  1  1
 14 40  1  0
 15 41  1  0
 18 42  1  0
 19 43  1  0
 21 44  1  0
 22 45  1  0
 24 46  1  0
 27 47  1  0
 28 48  1  0
M  END
>  <smiles>  (7) 
O=C(NCC(=O)N1C[C@@H](F)C[C@H]1c1ccc(Cl)cc1)c1ccc2cc(Cl)ccc2n1

>  <score_type>  (7) 
oracle

>  <origin>  (7) 
autodockgpu

>  <m_score__min__energy>  (7) 
-8.75

>  <m_primary>  (7) 
energy

>  <rmsd>  (7) 
1.6253614075948408

>  <m_score__min__rmsd>  (7) 
1.6253614075948408

>  <meeko>  (7) 
{"free_energy": -8.31, "intermolecular_energy": -9.8, "internal_energy": -1.28, "cluster_size": 23, "cluster_id": 1, "rank_in_cluster": 9}

>  <energy>  (7) 
-8.33

>  <cluster_rmsd>  (7) 
0.77

>  <cluster>  (7) 
1

$$$$

     RDKit          3D

 48 51  0  0  0  0  0  0  0  0999 V2000
  138.9790   71.3090  220.9940 O   0  0  0  0  0  0  0  0  0  0  0  0
  139.1490   71.8410  222.1350 C   0  0  0  0  0  0  0  0  0  0  0  0
  139.0220   73.2680  222.1640 N   0  0  0  0  0  0  0  0  0  0  0  0
  138.7240   73.9340  220.9370 C   0  0  0  0  0  0  0  0  0  0  0  0
  139.4710   75.2080  220.7640 C   0  0  0  0  0  0  0  0  0  0  0  0
  140.5440   75.2990  220.1130 O   0  0  0  0  0  0  0  0  0  0  0  0
  138.9220   76.3700  221.3790 N   0  0  0  0  0  0  0  0  0  0  0  0
  138.0950   76.4640  222.5770 C   0  0  0  0  0  0  0  0  0  0  0  0
  137.1420   77.6290  222.3680 C   0  0  1  0  0  0  0  0  0  0  0  0
  137.1740   78.5310  223.4130 F   0  0  0  0  0  0  0  0  0  0  0  0
  137.6340   78.2160  221.0630 C   0  0  0  0  0  0  0  0  0  0  0  0
  139.0680   77.7630  220.9390 C   0  0  1  0  0  0  0  0  0  0  0  0
  140.0140   78.5010  221.7550 C   0  0  0  0  0  0  0  0  0  0  0  0
  139.9960   79.8990  221.6540 C   0  0  0  0  0  0  0  0  0  0  0  0
  140.8470   80.6960  222.3830 C   0  0  0  0  0  0  0  0  0  0  0  0
  141.7660   80.1570  223.2560 C   0  0  0  0  0  0  0  0  0  0  0  0
  142.8700   81.1220  224.2060 Cl  0  0  0  0  0  0  0  0  0  0  0  0
  141.8040   78.7830  223.3740 C   0  0  0  0  0  0  0  0  0  0  0  0
  140.9360   77.9830  222.6290 C   0  0  0  0  0  0  0  0  0  0  0  0
  139.4500   71.0690  223.3290 C   0  0  0  0  0  0  0  0  0  0  0  0
  139.1580   69.7220  223.3000 C   0  0  0  0  0  0  0  0  0  0  0  0
  139.3990   68.8950  224.3650 C   0  0  0  0  0  0  0  0  0  0  0  0
  139.9540   69.4670  225.4960 C   0  0  0  0  0  0  0  0  0  0  0  0
  140.1950   68.6340  226.5650 C   0  0  0  0  0  0  0  0  0  0  0  0
  140.7480   69.1670  227.7100 C   0  0  0  0  0  0  0  0  0  0  0  0
  141.0580   68.1120  229.0780 Cl  0  0  0  0  0  0  0  0  0  0  0  0
  141.0430   70.5220  227.7410 C   0  0  0  0  0  0  0  0  0  0  0  0
  140.7880   71.3410  226.6410 C   0  0  0  0  0  0  0  0  0  0  0  0
  140.2310   70.8100  225.4880 C   0  0  0  0  0  0  0  0  0  0  0  0
  139.9920   71.6190  224.4340 N   0  0  0  0  0  0  0  0  0  0  0  0
  139.1540   73.7540  223.0890 H   0  0  0  0  0  0  0  0  0  0  0  0
  138.9803   73.2629  220.1040 H   0  0  0  0  0  0  0  0  0  0  0  0
  137.6528   74.1835  220.9530 H   0  0  0  0  0  0  0  0  0  0  0  0
  137.5276   75.5323  222.7185 H   0  0  0  0  0  0  0  0  0  0  0  0
  138.7158   76.6200  223.4716 H   0  0  0  0  0  0  0  0  0  0  0  0
  136.0837   77.3312  222.3334 H   0  0  0  0  0  0  0  0  0  0  0  0
  137.0361   77.8379  220.2206 H   0  0  0  0  0  0  0  0  0  0  0  0
  137.5472   79.3125  221.0477 H   0  0  0  0  0  0  0  0  0  0  0  0
  139.4911   77.9119  219.9346 H   0  0  0  0  0  0  0  0  0  0  0  0
  139.2778   80.3739  220.9694 H   0  0  0  0  0  0  0  0  0  0  0  0
  140.7926   81.7884  222.2664 H   0  0  0  0  0  0  0  0  0  0  0  0
  142.5241   78.3141  224.0607 H   0  0  0  0  0  0  0  0  0  0  0  0
  140.9937   76.8909  222.7477 H   0  0  0  0  0  0  0  0  0  0  0  0
  138.7151   69.2956  222.3879 H   0  0  0  0  0  0  0  0  0  0  0  0
  139.1614   67.8218  224.3229 H   0  0  0  0  0  0  0  0  0  0  0  0
  139.9510   67.5630  226.5068 H   0  0  0  0  0  0  0  0  0  0  0  0
  141.4856   70.9582  228.6486 H   0  0  0  0  0  0  0  0  0  0  0  0
  141.0300   72.4130  226.6887 H   0  0  0  0  0  0  0  0  0  0  0  0
  1  2  2  0
  2  3  1  0
  3  4  1  0
  4  5  1  0
  5  6  2  0
  5  7  1  0
  7  8  1  0
  8  9  1  0
  9 10  1  0
  9 11  1  0
 11 12  1  0
 12 13  1  0
 13 14  2  0
 14 15  1  0
 15 16  2  0
 16 17  1  0
 16 18  1  0
 18 19  2  0
  2 20  1  0
 20 21  2  0
 21 22  1  0
 22 23  2  0
 23 24  1  0
 24 25  2  0
 25 26  1  0
 25 27  1  0
 27 28  2  0
 28 29  1  0
 29 30  2  0
 12  7  1  0
 19 13  1  0
 30 20  1  0
 29 23  1  0
  3 31  1  0
  4 32  1  0
  4 33  1  0
  8 34  1  0
  8 35  1  0
  9 36  1  6
 11 37  1  0
 11 38  1  0
 12 39  1  6
 14 40  1  0
 15 41  1  0
 18 42  1  0
 19 43  1  0
 21 44  1  0
 22 45  1  0
 24 46  1  0
 27 47  1  0
 28 48  1  0
M  END
>  <smiles>  (8) 
O=C(NCC(=O)N1C[C@@H](F)C[C@H]1c1ccc(Cl)cc1)c1ccc2cc(Cl)ccc2n1

>  <score_type>  (8) 
oracle

>  <origin>  (8) 
autodockgpu

>  <m_score__min__energy>  (8) 
-8.75

>  <m_primary>  (8) 
energy

>  <rmsd>  (8) 
2.605045001265542

>  <m_score__min__rmsd>  (8) 
2.605045001265542

>  <meeko>  (8) 
{"free_energy": -8.24, "intermolecular_energy": -9.74, "internal_energy": -1.35, "cluster_size": 23, "cluster_id": 1, "rank_in_cluster": 10}

>  <energy>  (8) 
-8.33

>  <cluster_rmsd>  (8) 
1.72

>  <cluster>  (8) 
1

$$$$

     RDKit          3D

 48 51  0  0  0  0  0  0  0  0999 V2000
  139.0090   71.0850  221.0950 O   0  0  0  0  0  0  0  0  0  0  0  0
  138.8200   71.6390  222.2230 C   0  0  0  0  0  0  0  0  0  0  0  0
  138.0280   72.8330  222.1870 N   0  0  0  0  0  0  0  0  0  0  0  0
  137.5420   73.2710  220.9180 C   0  0  0  0  0  0  0  0  0  0  0  0
  138.6120   73.7970  220.0300 C   0  0  0  0  0  0  0  0  0  0  0  0
  138.7570   73.4390  218.8320 O   0  0  0  0  0  0  0  0  0  0  0  0
  139.5070   74.7540  220.5910 N   0  0  0  0  0  0  0  0  0  0  0  0
  139.6430   75.1720  221.9820 C   0  0  0  0  0  0  0  0  0  0  0  0
  140.0360   76.6400  221.9670 C   0  0  1  0  0  0  0  0  0  0  0  0
  141.1640   76.8910  222.7240 F   0  0  0  0  0  0  0  0  0  0  0  0
  140.2420   76.9030  220.4910 C   0  0  0  0  0  0  0  0  0  0  0  0
  140.5160   75.5510  219.8810 C   0  0  1  0  0  0  0  0  0  0  0  0
  141.8610   75.0470  220.0920 C   0  0  0  0  0  0  0  0  0  0  0  0
  141.9890   73.7350  220.5670 C   0  0  0  0  0  0  0  0  0  0  0  0
  143.2150   73.1580  220.7990 C   0  0  0  0  0  0  0  0  0  0  0  0
  144.3870   73.8440  220.5750 C   0  0  0  0  0  0  0  0  0  0  0  0
  145.9710   73.1600  220.8540 Cl  0  0  0  0  0  0  0  0  0  0  0  0
  144.2890   75.1380  220.1070 C   0  0  0  0  0  0  0  0  0  0  0  0
  143.0400   75.7150  219.8740 C   0  0  0  0  0  0  0  0  0  0  0  0
  139.3630   71.1090  223.4620 C   0  0  0  0  0  0  0  0  0  0  0  0
  140.2970   71.8790  224.1230 C   0  0  0  0  0  0  0  0  0  0  0  0
  140.8770   71.4820  225.2990 C   0  0  0  0  0  0  0  0  0  0  0  0
  140.4880   70.2580  225.8120 C   0  0  0  0  0  0  0  0  0  0  0  0
  141.0720   69.8610  226.9950 C   0  0  0  0  0  0  0  0  0  0  0  0
  140.7110   68.6470  227.5390 C   0  0  0  0  0  0  0  0  0  0  0  0
  141.4510   68.1340  229.0450 Cl  0  0  0  0  0  0  0  0  0  0  0  0
  139.7710   67.8710  226.8750 C   0  0  0  0  0  0  0  0  0  0  0  0
  139.1960   68.3000  225.6790 C   0  0  0  0  0  0  0  0  0  0  0  0
  139.5560   69.5200  225.1280 C   0  0  0  0  0  0  0  0  0  0  0  0
  138.9890   69.9170  223.9700 N   0  0  0  0  0  0  0  0  0  0  0  0
  137.8450   73.3280  223.0990 H   0  0  0  0  0  0  0  0  0  0  0  0
  137.0585   72.4199  220.4162 H   0  0  0  0  0  0  0  0  0  0  0  0
  136.8381   74.0954  221.1048 H   0  0  0  0  0  0  0  0  0  0  0  0
  138.6874   75.0419  222.5110 H   0  0  0  0  0  0  0  0  0  0  0  0
  140.4008   74.5675  222.5018 H   0  0  0  0  0  0  0  0  0  0  0  0
  139.2832   77.3021  222.4198 H   0  0  0  0  0  0  0  0  0  0  0  0
  139.3388   77.3492  220.0493 H   0  0  0  0  0  0  0  0  0  0  0  0
  141.0661   77.6090  220.3111 H   0  0  0  0  0  0  0  0  0  0  0  0
  140.4545   75.5440  218.7827 H   0  0  0  0  0  0  0  0  0  0  0  0
  141.0792   73.1478  220.7605 H   0  0  0  0  0  0  0  0  0  0  0  0
  143.2604   72.1243  221.1722 H   0  0  0  0  0  0  0  0  0  0  0  0
  145.2029   75.7197  219.9159 H   0  0  0  0  0  0  0  0  0  0  0  0
  142.9986   76.7486  219.4999 H   0  0  0  0  0  0  0  0  0  0  0  0
  140.5870   72.8477  223.6900 H   0  0  0  0  0  0  0  0  0  0  0  0
  141.6199   72.1096  225.8129 H   0  0  0  0  0  0  0  0  0  0  0  0
  141.8129   70.5012  227.4963 H   0  0  0  0  0  0  0  0  0  0  0  0
  139.4743   66.9006  227.2996 H   0  0  0  0  0  0  0  0  0  0  0  0
  138.4535   67.6674  225.1706 H   0  0  0  0  0  0  0  0  0  0  0  0
  1  2  2  0
  2  3  1  0
  3  4  1  0
  4  5  1  0
  5  6  2  0
  5  7  1  0
  7  8  1  0
  8  9  1  0
  9 10  1  0
  9 11  1  0
 11 12  1  0
 12 13  1  0
 13 14  2  0
 14 15  1  0
 15 16  2  0
 16 17  1  0
 16 18  1  0
 18 19  2  0
  2 20  1  0
 20 21  2  0
 21 22  1  0
 22 23  2  0
 23 24  1  0
 24 25  2  0
 25 26  1  0
 25 27  1  0
 27 28  2  0
 28 29  1  0
 29 30  2  0
 12  7  1  0
 19 13  1  0
 30 20  1  0
 29 23  1  0
  3 31  1  0
  4 32  1  0
  4 33  1  0
  8 34  1  0
  8 35  1  0
  9 36  1  1
 11 37  1  0
 11 38  1  0
 12 39  1  6
 14 40  1  0
 15 41  1  0
 18 42  1  0
 19 43  1  0
 21 44  1  0
 22 45  1  0
 24 46  1  0
 27 47  1  0
 28 48  1  0
M  END
>  <smiles>  (9) 
O=C(NCC(=O)N1C[C@@H](F)C[C@H]1c1ccc(Cl)cc1)c1ccc2cc(Cl)ccc2n1

>  <score_type>  (9) 
oracle

>  <origin>  (9) 
autodockgpu

>  <m_score__min__energy>  (9) 
-8.75

>  <m_primary>  (9) 
energy

>  <rmsd>  (9) 
3.0116161935593473

>  <m_score__min__rmsd>  (9) 
3.0116161935593473

>  <meeko>  (9) 
{"free_energy": -8.15, "intermolecular_energy": -9.64, "internal_energy": -1.56, "cluster_size": 18, "cluster_id": 2, "rank_in_cluster": 7}

>  <energy>  (9) 
-8.31

>  <cluster_rmsd>  (9) 
0.82

>  <cluster>  (9) 
1

$$$$

     RDKit          3D

 48 51  0  0  0  0  0  0  0  0999 V2000
  139.9170   71.8480  220.8540 O   0  0  0  0  0  0  0  0  0  0  0  0
  139.8190   72.2980  222.0380 C   0  0  0  0  0  0  0  0  0  0  0  0
  139.5710   73.7070  222.1330 N   0  0  0  0  0  0  0  0  0  0  0  0
  139.4620   74.4460  220.9170 C   0  0  0  0  0  0  0  0  0  0  0  0
  140.7470   75.0550  220.4830 C   0  0  0  0  0  0  0  0  0  0  0  0
  141.8100   74.3970  220.3340 O   0  0  0  0  0  0  0  0  0  0  0  0
  140.7480   76.4580  220.2320 N   0  0  0  0  0  0  0  0  0  0  0  0
  140.0460   77.1980  219.1890 C   0  0  0  0  0  0  0  0  0  0  0  0
  140.9290   78.3780  218.8130 C   0  0  1  0  0  0  0  0  0  0  0  0
  140.2520   79.5810  218.8650 F   0  0  0  0  0  0  0  0  0  0  0  0
  142.0460   78.2800  219.8300 C   0  0  0  0  0  0  0  0  0  0  0  0
  141.4670   77.4950  220.9810 C   0  0  1  0  0  0  0  0  0  0  0  0
  140.5880   78.2510  221.8550 C   0  0  0  0  0  0  0  0  0  0  0  0
  141.0670   79.4730  222.3460 C   0  0  0  0  0  0  0  0  0  0  0  0
  140.3180   80.2710  223.1780 C   0  0  0  0  0  0  0  0  0  0  0  0
  139.0500   79.9060  223.5740 C   0  0  0  0  0  0  0  0  0  0  0  0
  138.0550   80.8810  224.6300 Cl  0  0  0  0  0  0  0  0  0  0  0  0
  138.5550   78.7070  223.1050 C   0  0  0  0  0  0  0  0  0  0  0  0
  139.3240   77.9050  222.2600 C   0  0  0  0  0  0  0  0  0  0  0  0
  139.9470   71.4560  223.2150 C   0  0  0  0  0  0  0  0  0  0  0  0
  139.5190   70.1500  223.1070 C   0  0  0  0  0  0  0  0  0  0  0  0
  139.5910   69.2650  224.1500 C   0  0  0  0  0  0  0  0  0  0  0  0
  140.1160   69.7330  225.3410 C   0  0  0  0  0  0  0  0  0  0  0  0
  140.1870   68.8420  226.3880 C   0  0  0  0  0  0  0  0  0  0  0  0
  140.7050   69.2710  227.5910 C   0  0  0  0  0  0  0  0  0  0  0  0
  140.7990   68.1400  228.9310 Cl  0  0  0  0  0  0  0  0  0  0  0  0
  141.1360   70.5850  227.7020 C   0  0  0  0  0  0  0  0  0  0  0  0
  141.0520   71.4650  226.6240 C   0  0  0  0  0  0  0  0  0  0  0  0
  140.5320   71.0380  225.4120 C   0  0  0  0  0  0  0  0  0  0  0  0
  140.4580   71.9050  224.3800 N   0  0  0  0  0  0  0  0  0  0  0  0
  139.4820   74.1250  223.0960 H   0  0  0  0  0  0  0  0  0  0  0  0
  139.1124   73.7668  220.1255 H   0  0  0  0  0  0  0  0  0  0  0  0
  138.7553   75.2694  221.0978 H   0  0  0  0  0  0  0  0  0  0  0  0
  139.8828   76.5535  218.3127 H   0  0  0  0  0  0  0  0  0  0  0  0
  139.0623   77.5398  219.5433 H   0  0  0  0  0  0  0  0  0  0  0  0
  141.2902   78.3451  217.7745 H   0  0  0  0  0  0  0  0  0  0  0  0
  142.9122   77.7543  219.4018 H   0  0  0  0  0  0  0  0  0  0  0  0
  142.4011   79.2718  220.1468 H   0  0  0  0  0  0  0  0  0  0  0  0
  142.2241   77.1393  221.6953 H   0  0  0  0  0  0  0  0  0  0  0  0
  142.0751   79.8045  222.0563 H   0  0  0  0  0  0  0  0  0  0  0  0
  140.7404   81.2217  223.5353 H   0  0  0  0  0  0  0  0  0  0  0  0
  137.5466   78.3803  223.3991 H   0  0  0  0  0  0  0  0  0  0  0  0
  138.8983   76.9553  221.9038 H   0  0  0  0  0  0  0  0  0  0  0  0
  139.1044   69.8060  222.1480 H   0  0  0  0  0  0  0  0  0  0  0  0
  139.2458   68.2259  224.0448 H   0  0  0  0  0  0  0  0  0  0  0  0
  139.8366   67.8064  226.2667 H   0  0  0  0  0  0  0  0  0  0  0  0
  141.5513   70.9387  228.6572 H   0  0  0  0  0  0  0  0  0  0  0  0
  141.3998   72.5026  226.7356 H   0  0  0  0  0  0  0  0  0  0  0  0
  1  2  2  0
  2  3  1  0
  3  4  1  0
  4  5  1  0
  5  6  2  0
  5  7  1  0
  7  8  1  0
  8  9  1  0
  9 10  1  0
  9 11  1  0
 11 12  1  0
 12 13  1  0
 13 14  2  0
 14 15  1  0
 15 16  2  0
 16 17  1  0
 16 18  1  0
 18 19  2  0
  2 20  1  0
 20 21  2  0
 21 22  1  0
 22 23  2  0
 23 24  1  0
 24 25  2  0
 25 26  1  0
 25 27  1  0
 27 28  2  0
 28 29  1  0
 29 30  2  0
 12  7  1  0
 19 13  1  0
 30 20  1  0
 29 23  1  0
  3 31  1  0
  4 32  1  0
  4 33  1  0
  8 34  1  0
  8 35  1  0
  9 36  1  6
 11 37  1  0
 11 38  1  0
 12 39  1  1
 14 40  1  0
 15 41  1  0
 18 42  1  0
 19 43  1  0
 21 44  1  0
 22 45  1  0
 24 46  1  0
 27 47  1  0
 28 48  1  0
M  END
>  <smiles>  (10) 
O=C(NCC(=O)N1C[C@@H](F)C[C@H]1c1ccc(Cl)cc1)c1ccc2cc(Cl)ccc2n1

>  <score_type>  (10) 
oracle

>  <origin>  (10) 
autodockgpu

>  <m_score__min__energy>  (10) 
-8.75

>  <m_primary>  (10) 
energy

>  <rmsd>  (10) 
1.6547102754117478

>  <m_score__min__rmsd>  (10) 
1.6547102754117478

>  <meeko>  (10) 
{"free_energy": -8.04, "intermolecular_energy": -9.53, "internal_energy": -1.36, "cluster_size": 23, "cluster_id": 1, "rank_in_cluster": 17}

>  <energy>  (10) 
-8.24

>  <cluster_rmsd>  (10) 
1.72

>  <cluster>  (10) 
1

$$$$

     RDKit          3D

 48 51  0  0  0  0  0  0  0  0999 V2000
  140.8070   73.3140  221.9840 O   0  0  0  0  0  0  0  0  0  0  0  0
  139.8420   72.8580  222.6740 C   0  0  0  0  0  0  0  0  0  0  0  0
  138.5480   73.3540  222.3110 N   0  0  0  0  0  0  0  0  0  0  0  0
  138.4720   74.2890  221.2340 C   0  0  0  0  0  0  0  0  0  0  0  0
  138.6210   75.7020  221.6740 C   0  0  0  0  0  0  0  0  0  0  0  0
  138.0020   76.1910  222.6540 O   0  0  0  0  0  0  0  0  0  0  0  0
  139.5160   76.5220  220.9280 N   0  0  0  0  0  0  0  0  0  0  0  0
  139.2200   77.4240  219.8200 C   0  0  0  0  0  0  0  0  0  0  0  0
  140.4240   77.3980  218.8930 C   0  0  1  0  0  0  0  0  0  0  0  0
  140.9010   78.6640  218.6130 F   0  0  0  0  0  0  0  0  0  0  0  0
  141.4090   76.5510  219.6690 C   0  0  0  0  0  0  0  0  0  0  0  0
  140.9680   76.6470  221.1090 C   0  0  1  0  0  0  0  0  0  0  0  0
  141.3330   77.8820  221.7780 C   0  0  0  0  0  0  0  0  0  0  0  0
  141.1470   77.9400  223.1660 C   0  0  0  0  0  0  0  0  0  0  0  0
  141.4620   79.0590  223.9000 C   0  0  0  0  0  0  0  0  0  0  0  0
  141.9790   80.1870  223.3040 C   0  0  0  0  0  0  0  0  0  0  0  0
  142.3960   81.6370  224.1880 Cl  0  0  0  0  0  0  0  0  0  0  0  0
  142.1720   80.1570  221.9390 C   0  0  0  0  0  0  0  0  0  0  0  0
  141.8500   79.0150  221.2030 C   0  0  0  0  0  0  0  0  0  0  0  0
  140.0280   71.9040  223.7550 C   0  0  0  0  0  0  0  0  0  0  0  0
  139.7320   70.5840  223.4890 C   0  0  0  0  0  0  0  0  0  0  0  0
  139.8690   69.5970  224.4300 C   0  0  0  0  0  0  0  0  0  0  0  0
  140.3210   69.9760  225.6810 C   0  0  0  0  0  0  0  0  0  0  0  0
  140.4570   68.9820  226.6250 C   0  0  0  0  0  0  0  0  0  0  0  0
  140.9050   69.3200  227.8840 C   0  0  0  0  0  0  0  0  0  0  0  0
  141.0810   68.0590  229.0930 Cl  0  0  0  0  0  0  0  0  0  0  0  0
  141.2020   70.6480  228.1530 C   0  0  0  0  0  0  0  0  0  0  0  0
  141.0550   71.6330  227.1760 C   0  0  0  0  0  0  0  0  0  0  0  0
  140.6050   71.2980  225.9090 C   0  0  0  0  0  0  0  0  0  0  0  0
  140.4680   72.2650  224.9770 N   0  0  0  0  0  0  0  0  0  0  0  0
  137.7170   73.0030  222.8550 H   0  0  0  0  0  0  0  0  0  0  0  0
  139.2726   74.0603  220.5151 H   0  0  0  0  0  0  0  0  0  0  0  0
  137.4729   74.1899  220.7846 H   0  0  0  0  0  0  0  0  0  0  0  0
  138.3226   77.0819  219.2836 H   0  0  0  0  0  0  0  0  0  0  0  0
  139.0268   78.4437  220.1845 H   0  0  0  0  0  0  0  0  0  0  0  0
  140.2027   76.9925  217.8947 H   0  0  0  0  0  0  0  0  0  0  0  0
  141.3749   75.5070  219.3243 H   0  0  0  0  0  0  0  0  0  0  0  0
  142.4442   76.8972  219.5330 H   0  0  0  0  0  0  0  0  0  0  0  0
  141.4409   75.9006  221.7642 H   0  0  0  0  0  0  0  0  0  0  0  0
  140.7356   77.0617  223.6849 H   0  0  0  0  0  0  0  0  0  0  0  0
  141.2973   79.0528  224.9876 H   0  0  0  0  0  0  0  0  0  0  0  0
  142.5826   81.0392  221.4261 H   0  0  0  0  0  0  0  0  0  0  0  0
  142.0181   79.0243  220.1160 H   0  0  0  0  0  0  0  0  0  0  0  0
  139.3729   70.3132  222.4852 H   0  0  0  0  0  0  0  0  0  0  0  0
  139.6297   68.5482  224.2001 H   0  0  0  0  0  0  0  0  0  0  0  0
  140.2127   67.9381  226.3787 H   0  0  0  0  0  0  0  0  0  0  0  0
  141.5598   70.9295  229.1544 H   0  0  0  0  0  0  0  0  0  0  0  0
  141.2973   72.6796  227.4124 H   0  0  0  0  0  0  0  0  0  0  0  0
  1  2  2  0
  2  3  1  0
  3  4  1  0
  4  5  1  0
  5  6  2  0
  5  7  1  0
  7  8  1  0
  8  9  1  0
  9 10  1  0
  9 11  1  0
 11 12  1  0
 12 13  1  0
 13 14  2  0
 14 15  1  0
 15 16  2  0
 16 17  1  0
 16 18  1  0
 18 19  2  0
  2 20  1  0
 20 21  2  0
 21 22  1  0
 22 23  2  0
 23 24  1  0
 24 25  2  0
 25 26  1  0
 25 27  1  0
 27 28  2  0
 28 29  1  0
 29 30  2  0
 12  7  1  0
 19 13  1  0
 30 20  1  0
 29 23  1  0
  3 31  1  0
  4 32  1  0
  4 33  1  0
  8 34  1  0
  8 35  1  0
  9 36  1  6
 11 37  1  0
 11 38  1  0
 12 39  1  1
 14 40  1  0
 15 41  1  0
 18 42  1  0
 19 43  1  0
 21 44  1  0
 22 45  1  0
 24 46  1  0
 27 47  1  0
 28 48  1  0
M  END
>  <smiles>  (11) 
O=C(NCC(=O)N1C[C@@H](F)C[C@H]1c1ccc(Cl)cc1)c1ccc2cc(Cl)ccc2n1

>  <score_type>  (11) 
oracle

>  <origin>  (11) 
autodockgpu

>  <m_score__min__energy>  (11) 
-8.75

>  <m_primary>  (11) 
energy

>  <rmsd>  (11) 
1.7412583111677473

>  <m_score__min__rmsd>  (11) 
1.7412583111677473

>  <meeko>  (11) 
{"free_energy": -8.58, "intermolecular_energy": -10.07, "internal_energy": -1.32, "cluster_size": 23, "cluster_id": 1, "rank_in_cluster": 3}

>  <energy>  (11) 
-8.24

>  <cluster_rmsd>  (11) 
0.77

>  <cluster>  (11) 
1

$$$$

     RDKit          3D

 48 51  0  0  0  0  0  0  0  0999 V2000
  138.2680   71.6570  220.9990 O   0  0  0  0  0  0  0  0  0  0  0  0
  138.7000   72.1640  222.0820 C   0  0  0  0  0  0  0  0  0  0  0  0
  138.7810   73.5950  222.0920 N   0  0  0  0  0  0  0  0  0  0  0  0
  138.3780   74.2920  220.9120 C   0  0  0  0  0  0  0  0  0  0  0  0
  138.3710   75.7690  221.0780 C   0  0  0  0  0  0  0  0  0  0  0  0
  137.4070   76.4060  221.5770 O   0  0  0  0  0  0  0  0  0  0  0  0
  139.5280   76.4770  220.6400 N   0  0  0  0  0  0  0  0  0  0  0  0
  139.6750   77.3620  219.4890 C   0  0  0  0  0  0  0  0  0  0  0  0
  141.0970   77.1920  218.9790 C   0  0  1  0  0  0  0  0  0  0  0  0
  141.7590   78.3980  218.8530 F   0  0  0  0  0  0  0  0  0  0  0  0
  141.7090   76.2870  220.0270 C   0  0  0  0  0  0  0  0  0  0  0  0
  140.8590   76.4750  221.2590 C   0  0  1  0  0  0  0  0  0  0  0  0
  141.1210   77.6950  222.0010 C   0  0  0  0  0  0  0  0  0  0  0  0
  142.1700   78.5080  221.5500 C   0  0  0  0  0  0  0  0  0  0  0  0
  142.5030   79.6860  222.1770 C   0  0  0  0  0  0  0  0  0  0  0  0
  141.8180   80.1290  223.2860 C   0  0  0  0  0  0  0  0  0  0  0  0
  142.1990   81.6170  224.1210 Cl  0  0  0  0  0  0  0  0  0  0  0  0
  140.7810   79.3470  223.7500 C   0  0  0  0  0  0  0  0  0  0  0  0
  140.4510   78.1530  223.1070 C   0  0  0  0  0  0  0  0  0  0  0  0
  139.0850   71.3610  223.2300 C   0  0  0  0  0  0  0  0  0  0  0  0
  138.7350   70.0280  223.2150 C   0  0  0  0  0  0  0  0  0  0  0  0
  139.0450   69.1750  224.2410 C   0  0  0  0  0  0  0  0  0  0  0  0
  139.7330   69.7060  225.3170 C   0  0  0  0  0  0  0  0  0  0  0  0
  140.0430   68.8470  226.3480 C   0  0  0  0  0  0  0  0  0  0  0  0
  140.7280   69.3380  227.4380 C   0  0  0  0  0  0  0  0  0  0  0  0
  141.1270   68.2500  228.7560 Cl  0  0  0  0  0  0  0  0  0  0  0  0
  141.0810   70.6800  227.4560 C   0  0  0  0  0  0  0  0  0  0  0  0
  140.7540   71.5260  226.3960 C   0  0  0  0  0  0  0  0  0  0  0  0
  140.0640   71.0370  225.2980 C   0  0  0  0  0  0  0  0  0  0  0  0
  139.7560   71.8710  224.2830 N   0  0  0  0  0  0  0  0  0  0  0  0
  139.1330   74.0600  222.9680 H   0  0  0  0  0  0  0  0  0  0  0  0
  139.0734   74.0348  220.0994 H   0  0  0  0  0  0  0  0  0  0  0  0
  137.3465   73.9835  220.6863 H   0  0  0  0  0  0  0  0  0  0  0  0
  138.9561   77.0842  218.7042 H   0  0  0  0  0  0  0  0  0  0  0  0
  139.4800   78.4077  219.7693 H   0  0  0  0  0  0  0  0  0  0  0  0
  141.1533   76.7725  217.9637 H   0  0  0  0  0  0  0  0  0  0  0  0
  141.6804   75.2386  219.6952 H   0  0  0  0  0  0  0  0  0  0  0  0
  142.7647   76.5321  220.2152 H   0  0  0  0  0  0  0  0  0  0  0  0
  141.0321   75.7123  222.0325 H   0  0  0  0  0  0  0  0  0  0  0  0
  142.7452   78.1939  220.6665 H   0  0  0  0  0  0  0  0  0  0  0  0
  143.3355   80.2878  221.7835 H   0  0  0  0  0  0  0  0  0  0  0  0
  140.2095   79.6668  224.6338 H   0  0  0  0  0  0  0  0  0  0  0  0
  139.6183   77.5538  223.5039 H   0  0  0  0  0  0  0  0  0  0  0  0
  138.1862   69.6344  222.3467 H   0  0  0  0  0  0  0  0  0  0  0  0
  138.7590   68.1133  224.2105 H   0  0  0  0  0  0  0  0  0  0  0  0
  139.7490   67.7880  226.3021 H   0  0  0  0  0  0  0  0  0  0  0  0
  141.6280   71.0836  228.3208 H   0  0  0  0  0  0  0  0  0  0  0  0
  141.0452   72.5862  226.4318 H   0  0  0  0  0  0  0  0  0  0  0  0
  1  2  2  0
  2  3  1  0
  3  4  1  0
  4  5  1  0
  5  6  2  0
  5  7  1  0
  7  8  1  0
  8  9  1  0
  9 10  1  0
  9 11  1  0
 11 12  1  0
 12 13  1  0
 13 14  2  0
 14 15  1  0
 15 16  2  0
 16 17  1  0
 16 18  1  0
 18 19  2  0
  2 20  1  0
 20 21  2  0
 21 22  1  0
 22 23  2  0
 23 24  1  0
 24 25  2  0
 25 26  1  0
 25 27  1  0
 27 28  2  0
 28 29  1  0
 29 30  2  0
 12  7  1  0
 19 13  1  0
 30 20  1  0
 29 23  1  0
  3 31  1  0
  4 32  1  0
  4 33  1  0
  8 34  1  0
  8 35  1  0
  9 36  1  6
 11 37  1  0
 11 38  1  0
 12 39  1  1
 14 40  1  0
 15 41  1  0
 18 42  1  0
 19 43  1  0
 21 44  1  0
 22 45  1  0
 24 46  1  0
 27 47  1  0
 28 48  1  0
M  END
>  <smiles>  (12) 
O=C(NCC(=O)N1C[C@@H](F)C[C@H]1c1ccc(Cl)cc1)c1ccc2cc(Cl)ccc2n1

>  <score_type>  (12) 
oracle

>  <origin>  (12) 
autodockgpu

>  <m_score__min__energy>  (12) 
-8.75

>  <m_primary>  (12) 
energy

>  <rmsd>  (12) 
1.6317629222529384

>  <m_score__min__rmsd>  (12) 
1.6317629222529384

>  <meeko>  (12) 
{"free_energy": -8.24, "intermolecular_energy": -9.73, "internal_energy": -1.28, "cluster_size": 23, "cluster_id": 1, "rank_in_cluster": 11}

>  <energy>  (12) 
-8.2

>  <cluster_rmsd>  (12) 
1.5

>  <cluster>  (12) 
1

$$$$

     RDKit          3D

 48 51  0  0  0  0  0  0  0  0999 V2000
  140.6950   73.0830  221.6650 O   0  0  0  0  0  0  0  0  0  0  0  0
  139.7620   72.7750  222.4710 C   0  0  0  0  0  0  0  0  0  0  0  0
  138.5050   73.4130  222.2160 N   0  0  0  0  0  0  0  0  0  0  0  0
  138.4270   74.3100  221.1080 C   0  0  0  0  0  0  0  0  0  0  0  0
  138.4060   75.7410  221.5120 C   0  0  0  0  0  0  0  0  0  0  0  0
  137.5990   76.2110  222.3550 O   0  0  0  0  0  0  0  0  0  0  0  0
  139.3600   76.6020  220.8960 N   0  0  0  0  0  0  0  0  0  0  0  0
  139.1500   77.5930  219.8460 C   0  0  0  0  0  0  0  0  0  0  0  0
  140.4150   77.6210  219.0040 C   0  0  1  0  0  0  0  0  0  0  0  0
  140.9250   78.8960  218.8580 F   0  0  0  0  0  0  0  0  0  0  0  0
  141.3350   76.6990  219.7750 C   0  0  0  0  0  0  0  0  0  0  0  0
  140.7970   76.6880  221.1840 C   0  0  1  0  0  0  0  0  0  0  0  0
  141.1290   77.8610  221.9730 C   0  0  0  0  0  0  0  0  0  0  0  0
  142.1670   78.6770  221.5030 C   0  0  0  0  0  0  0  0  0  0  0  0
  142.5620   79.8130  222.1700 C   0  0  0  0  0  0  0  0  0  0  0  0
  141.9550   80.2070  223.3410 C   0  0  0  0  0  0  0  0  0  0  0  0
  142.4170   81.6400  224.2300 Cl  0  0  0  0  0  0  0  0  0  0  0  0
  140.9300   79.4210  223.8250 C   0  0  0  0  0  0  0  0  0  0  0  0
  140.5370   78.2700  223.1400 C   0  0  0  0  0  0  0  0  0  0  0  0
  139.9470   71.8460  223.5730 C   0  0  0  0  0  0  0  0  0  0  0  0
  139.6050   70.5290  223.3530 C   0  0  0  0  0  0  0  0  0  0  0  0
  139.7370   69.5650  224.3180 C   0  0  0  0  0  0  0  0  0  0  0  0
  140.2320   69.9650  225.5460 C   0  0  0  0  0  0  0  0  0  0  0  0
  140.3630   68.9940  226.5140 C   0  0  0  0  0  0  0  0  0  0  0  0
  140.8530   69.3520  227.7520 C   0  0  0  0  0  0  0  0  0  0  0  0
  141.0230   68.1210  228.9910 Cl  0  0  0  0  0  0  0  0  0  0  0  0
  141.1970   70.6780  227.9750 C   0  0  0  0  0  0  0  0  0  0  0  0
  141.0540   71.6390  226.9740 C   0  0  0  0  0  0  0  0  0  0  0  0
  140.5610   71.2830  225.7290 C   0  0  0  0  0  0  0  0  0  0  0  0
  140.4300   72.2270  224.7740 N   0  0  0  0  0  0  0  0  0  0  0  0
  137.7010   73.1880  222.8590 H   0  0  0  0  0  0  0  0  0  0  0  0
  139.3004   74.1424  220.4606 H   0  0  0  0  0  0  0  0  0  0  0  0
  137.4803   74.1039  220.5871 H   0  0  0  0  0  0  0  0  0  0  0  0
  138.2883   77.3083  219.2243 H   0  0  0  0  0  0  0  0  0  0  0  0
  138.9422   78.5838  220.2764 H   0  0  0  0  0  0  0  0  0  0  0  0
  140.2577   77.2998  217.9638 H   0  0  0  0  0  0  0  0  0  0  0  0
  141.3134   75.6862  219.3463 H   0  0  0  0  0  0  0  0  0  0  0  0
  142.3809   77.0378  219.7377 H   0  0  0  0  0  0  0  0  0  0  0  0
  141.2151   75.8842  221.8078 H   0  0  0  0  0  0  0  0  0  0  0  0
  142.6820   78.4001  220.5713 H   0  0  0  0  0  0  0  0  0  0  0  0
  143.3815   80.4205  221.7584 H   0  0  0  0  0  0  0  0  0  0  0  0
  140.4187   79.7032  224.7572 H   0  0  0  0  0  0  0  0  0  0  0  0
  139.7170   77.6651  223.5544 H   0  0  0  0  0  0  0  0  0  0  0  0
  139.2117   70.2413  222.3668 H   0  0  0  0  0  0  0  0  0  0  0  0
  139.4611   68.5179  224.1243 H   0  0  0  0  0  0  0  0  0  0  0  0
  140.0818   67.9517  226.3032 H   0  0  0  0  0  0  0  0  0  0  0  0
  141.5893   70.9764  228.9584 H   0  0  0  0  0  0  0  0  0  0  0  0
  141.3338   72.6839  227.1739 H   0  0  0  0  0  0  0  0  0  0  0  0
  1  2  2  0
  2  3  1  0
  3  4  1  0
  4  5  1  0
  5  6  2  0
  5  7  1  0
  7  8  1  0
  8  9  1  0
  9 10  1  0
  9 11  1  0
 11 12  1  0
 12 13  1  0
 13 14  2  0
 14 15  1  0
 15 16  2  0
 16 17  1  0
 16 18  1  0
 18 19  2  0
  2 20  1  0
 20 21  2  0
 21 22  1  0
 22 23  2  0
 23 24  1  0
 24 25  2  0
 25 26  1  0
 25 27  1  0
 27 28  2  0
 28 29  1  0
 29 30  2  0
 12  7  1  0
 19 13  1  0
 30 20  1  0
 29 23  1  0
  3 31  1  0
  4 32  1  0
  4 33  1  0
  8 34  1  0
  8 35  1  0
  9 36  1  6
 11 37  1  0
 11 38  1  0
 12 39  1  1
 14 40  1  0
 15 41  1  0
 18 42  1  0
 19 43  1  0
 21 44  1  0
 22 45  1  0
 24 46  1  0
 27 47  1  0
 28 48  1  0
M  END
>  <smiles>  (13) 
O=C(NCC(=O)N1C[C@@H](F)C[C@H]1c1ccc(Cl)cc1)c1ccc2cc(Cl)ccc2n1

>  <score_type>  (13) 
oracle

>  <origin>  (13) 
autodockgpu

>  <m_score__min__energy>  (13) 
-8.75

>  <m_primary>  (13) 
energy

>  <rmsd>  (13) 
1.7602066470217035

>  <m_score__min__rmsd>  (13) 
1.7602066470217035

>  <meeko>  (13) 
{"free_energy": -8.41, "intermolecular_energy": -9.9, "internal_energy": -1.37, "cluster_size": 23, "cluster_id": 1, "rank_in_cluster": 6}

>  <energy>  (13) 
-8.19

>  <cluster_rmsd>  (13) 
1.65

>  <cluster>  (13) 
1

$$$$

     RDKit          3D

 48 51  0  0  0  0  0  0  0  0999 V2000
  139.7470   73.1310  220.5650 O   0  0  0  0  0  0  0  0  0  0  0  0
  139.2140   73.1910  221.7170 C   0  0  0  0  0  0  0  0  0  0  0  0
  138.4160   74.3570  221.9560 N   0  0  0  0  0  0  0  0  0  0  0  0
  138.3020   75.3130  220.9010 C   0  0  0  0  0  0  0  0  0  0  0  0
  138.4180   76.7190  221.3690 C   0  0  0  0  0  0  0  0  0  0  0  0
  137.4310   77.4160  221.7220 O   0  0  0  0  0  0  0  0  0  0  0  0
  139.7270   77.2830  221.4090 N   0  0  0  0  0  0  0  0  0  0  0  0
  140.4490   77.8320  222.5510 C   0  0  0  0  0  0  0  0  0  0  0  0
  141.3140   78.9660  222.0240 C   0  0  1  0  0  0  0  0  0  0  0  0
  142.6380   78.8360  222.3960 F   0  0  0  0  0  0  0  0  0  0  0  0
  141.1050   78.8620  220.5290 C   0  0  0  0  0  0  0  0  0  0  0  0
  140.6620   77.4400  220.2880 C   0  0  1  0  0  0  0  0  0  0  0  0
  141.7270   76.4550  220.3190 C   0  0  0  0  0  0  0  0  0  0  0  0
  142.9330   76.7930  219.6890 C   0  0  0  0  0  0  0  0  0  0  0  0
  144.0080   75.9360  219.6600 C   0  0  0  0  0  0  0  0  0  0  0  0
  143.9540   74.6940  220.2520 C   0  0  0  0  0  0  0  0  0  0  0  0
  145.2890   73.5660  220.2450 Cl  0  0  0  0  0  0  0  0  0  0  0  0
  142.7780   74.3370  220.8780 C   0  0  0  0  0  0  0  0  0  0  0  0
  141.6930   75.2140  220.9020 C   0  0  0  0  0  0  0  0  0  0  0  0
  139.3940   72.1600  222.7240 C   0  0  0  0  0  0  0  0  0  0  0  0
  138.5790   71.0510  222.6460 C   0  0  0  0  0  0  0  0  0  0  0  0
  138.6590   70.0160  223.5400 C   0  0  0  0  0  0  0  0  0  0  0  0
  139.6020   70.1220  224.5460 C   0  0  0  0  0  0  0  0  0  0  0  0
  139.6800   69.0800  225.4440 C   0  0  0  0  0  0  0  0  0  0  0  0
  140.6080   69.1490  226.4610 C   0  0  0  0  0  0  0  0  0  0  0  0
  140.7140   67.8250  227.6090 Cl  0  0  0  0  0  0  0  0  0  0  0  0
  141.4290   70.2640  226.5420 C   0  0  0  0  0  0  0  0  0  0  0  0
  141.3270   71.3040  225.6170 C   0  0  0  0  0  0  0  0  0  0  0  0
  140.3950   71.2400  224.5930 C   0  0  0  0  0  0  0  0  0  0  0  0
  140.3120   72.2550  223.7080 N   0  0  0  0  0  0  0  0  0  0  0  0
  137.9530   74.4510  222.8980 H   0  0  0  0  0  0  0  0  0  0  0  0
  139.0998   75.1216  220.1682 H   0  0  0  0  0  0  0  0  0  0  0  0
  137.3003   75.1966  220.4616 H   0  0  0  0  0  0  0  0  0  0  0  0
  139.7389   78.2143  223.2991 H   0  0  0  0  0  0  0  0  0  0  0  0
  141.0648   77.0598  223.0353 H   0  0  0  0  0  0  0  0  0  0  0  0
  141.0411   79.9521  222.4279 H   0  0  0  0  0  0  0  0  0  0  0  0
  140.3297   79.5686  220.1981 H   0  0  0  0  0  0  0  0  0  0  0  0
  142.0191   79.1078  219.9686 H   0  0  0  0  0  0  0  0  0  0  0  0
  140.2464   77.2733  219.2833 H   0  0  0  0  0  0  0  0  0  0  0  0
  143.0222   77.7754  219.2022 H   0  0  0  0  0  0  0  0  0  0  0  0
  144.9320   76.2498  219.1524 H   0  0  0  0  0  0  0  0  0  0  0  0
  142.6948   73.3529  221.3623 H   0  0  0  0  0  0  0  0  0  0  0  0
  140.7707   74.8964  221.4104 H   0  0  0  0  0  0  0  0  0  0  0  0
  137.8369   70.9950  221.8359 H   0  0  0  0  0  0  0  0  0  0  0  0
  138.0011   69.1380  223.4610 H   0  0  0  0  0  0  0  0  0  0  0  0
  139.0142   68.2093  225.3512 H   0  0  0  0  0  0  0  0  0  0  0  0
  142.1733   70.3297  227.3493 H   0  0  0  0  0  0  0  0  0  0  0  0
  141.9891   72.1784  225.7009 H   0  0  0  0  0  0  0  0  0  0  0  0
  1  2  2  0
  2  3  1  0
  3  4  1  0
  4  5  1  0
  5  6  2  0
  5  7  1  0
  7  8  1  0
  8  9  1  0
  9 10  1  0
  9 11  1  0
 11 12  1  0
 12 13  1  0
 13 14  2  0
 14 15  1  0
 15 16  2  0
 16 17  1  0
 16 18  1  0
 18 19  2  0
  2 20  1  0
 20 21  2  0
 21 22  1  0
 22 23  2  0
 23 24  1  0
 24 25  2  0
 25 26  1  0
 25 27  1  0
 27 28  2  0
 28 29  1  0
 29 30  2  0
 12  7  1  0
 19 13  1  0
 30 20  1  0
 29 23  1  0
  3 31  1  0
  4 32  1  0
  4 33  1  0
  8 34  1  0
  8 35  1  0
  9 36  1  1
 11 37  1  0
 11 38  1  0
 12 39  1  6
 14 40  1  0
 15 41  1  0
 18 42  1  0
 19 43  1  0
 21 44  1  0
 22 45  1  0
 24 46  1  0
 27 47  1  0
 28 48  1  0
M  END
>  <smiles>  (14) 
O=C(NCC(=O)N1C[C@@H](F)C[C@H]1c1ccc(Cl)cc1)c1ccc2cc(Cl)ccc2n1

>  <score_type>  (14) 
oracle

>  <origin>  (14) 
autodockgpu

>  <m_score__min__energy>  (14) 
-8.75

>  <m_primary>  (14) 
energy

>  <rmsd>  (14) 
2.8664304406087884

>  <m_score__min__rmsd>  (14) 
2.8664304406087884

>  <meeko>  (14) 
{"free_energy": -7.78, "intermolecular_energy": -9.27, "internal_energy": -1.66, "cluster_size": 18, "cluster_id": 2, "rank_in_cluster": 18}

>  <energy>  (14) 
-8.15

>  <cluster_rmsd>  (14) 
1.82

>  <cluster>  (14) 
1

$$$$

     RDKit          3D

 48 51  0  0  0  0  0  0  0  0999 V2000
  139.1720   72.6740  220.9150 O   0  0  0  0  0  0  0  0  0  0  0  0
  140.1990   72.4650  221.6330 C   0  0  0  0  0  0  0  0  0  0  0  0
  141.4060   73.0760  221.1600 N   0  0  0  0  0  0  0  0  0  0  0  0
  141.3360   73.8410  219.9560 C   0  0  0  0  0  0  0  0  0  0  0  0
  141.6500   75.2800  220.1560 C   0  0  0  0  0  0  0  0  0  0  0  0
  142.7210   75.8160  219.7680 O   0  0  0  0  0  0  0  0  0  0  0  0
  140.6720   76.0710  220.8260 N   0  0  0  0  0  0  0  0  0  0  0  0
  139.8310   75.7110  221.9630 C   0  0  0  0  0  0  0  0  0  0  0  0
  138.5080   76.4390  221.7830 C   0  0  1  0  0  0  0  0  0  0  0  0
  138.1510   77.1670  222.9020 F   0  0  0  0  0  0  0  0  0  0  0  0
  138.7800   77.3060  220.5730 C   0  0  0  0  0  0  0  0  0  0  0  0
  140.2810   77.4520  220.5180 C   0  0  1  0  0  0  0  0  0  0  0  0
  140.8370   78.4040  221.4620 C   0  0  0  0  0  0  0  0  0  0  0  0
  140.8700   79.7500  221.0730 C   0  0  0  0  0  0  0  0  0  0  0  0
  141.3720   80.7350  221.8910 C   0  0  0  0  0  0  0  0  0  0  0  0
  141.8730   80.4460  223.1400 C   0  0  0  0  0  0  0  0  0  0  0  0
  142.5240   81.6580  224.2190 Cl  0  0  0  0  0  0  0  0  0  0  0  0
  141.8530   79.1290  223.5470 C   0  0  0  0  0  0  0  0  0  0  0  0
  141.3400   78.1360  222.7100 C   0  0  0  0  0  0  0  0  0  0  0  0
  140.1630   71.6670  222.8470 C   0  0  0  0  0  0  0  0  0  0  0  0
  139.5580   70.4300  222.7720 C   0  0  0  0  0  0  0  0  0  0  0  0
  139.4660   69.5920  223.8510 C   0  0  0  0  0  0  0  0  0  0  0  0
  140.0070   70.0350  225.0440 C   0  0  0  0  0  0  0  0  0  0  0  0
  139.9120   69.1910  226.1280 C   0  0  0  0  0  0  0  0  0  0  0  0
  140.4400   69.5970  227.3340 C   0  0  0  0  0  0  0  0  0  0  0  0
  140.3230   68.5260  228.7200 Cl  0  0  0  0  0  0  0  0  0  0  0  0
  141.0480   70.8410  227.4120 C   0  0  0  0  0  0  0  0  0  0  0  0
  141.1290   71.6760  226.2970 C   0  0  0  0  0  0  0  0  0  0  0  0
  140.6000   71.2720  225.0810 C   0  0  0  0  0  0  0  0  0  0  0  0
  140.6880   72.0920  224.0140 N   0  0  0  0  0  0  0  0  0  0  0  0
  142.2830   72.9310  221.7230 H   0  0  0  0  0  0  0  0  0  0  0  0
  142.0540   73.4237  219.2347 H   0  0  0  0  0  0  0  0  0  0  0  0
  140.3001   73.7807  219.5908 H   0  0  0  0  0  0  0  0  0  0  0  0
  139.6649   74.6238  221.9812 H   0  0  0  0  0  0  0  0  0  0  0  0
  140.3100   75.9943  222.9119 H   0  0  0  0  0  0  0  0  0  0  0  0
  137.6496   75.7654  221.6436 H   0  0  0  0  0  0  0  0  0  0  0  0
  138.4062   76.8208  219.6593 H   0  0  0  0  0  0  0  0  0  0  0  0
  138.2752   78.2807  220.6447 H   0  0  0  0  0  0  0  0  0  0  0  0
  140.6483   77.8580  219.5639 H   0  0  0  0  0  0  0  0  0  0  0  0
  140.4820   80.0275  220.0818 H   0  0  0  0  0  0  0  0  0  0  0  0
  141.3731   81.7772  221.5392 H   0  0  0  0  0  0  0  0  0  0  0  0
  142.2442   78.8583  224.5388 H   0  0  0  0  0  0  0  0  0  0  0  0
  141.3391   77.0953  223.0662 H   0  0  0  0  0  0  0  0  0  0  0  0
  139.1340   70.1047  221.8105 H   0  0  0  0  0  0  0  0  0  0  0  0
  138.9819   68.6074  223.7721 H   0  0  0  0  0  0  0  0  0  0  0  0
  139.4233   68.2102  226.0327 H   0  0  0  0  0  0  0  0  0  0  0  0
  141.4738   71.1753  228.3696 H   0  0  0  0  0  0  0  0  0  0  0  0
  141.6147   72.6592  226.3833 H   0  0  0  0  0  0  0  0  0  0  0  0
  1  2  2  0
  2  3  1  0
  3  4  1  0
  4  5  1  0
  5  6  2  0
  5  7  1  0
  7  8  1  0
  8  9  1  0
  9 10  1  0
  9 11  1  0
 11 12  1  0
 12 13  1  0
 13 14  2  0
 14 15  1  0
 15 16  2  0
 16 17  1  0
 16 18  1  0
 18 19  2  0
  2 20  1  0
 20 21  2  0
 21 22  1  0
 22 23  2  0
 23 24  1  0
 24 25  2  0
 25 26  1  0
 25 27  1  0
 27 28  2  0
 28 29  1  0
 29 30  2  0
 12  7  1  0
 19 13  1  0
 30 20  1  0
 29 23  1  0
  3 31  1  0
  4 32  1  0
  4 33  1  0
  8 34  1  0
  8 35  1  0
  9 36  1  6
 11 37  1  0
 11 38  1  0
 12 39  1  6
 14 40  1  0
 15 41  1  0
 18 42  1  0
 19 43  1  0
 21 44  1  0
 22 45  1  0
 24 46  1  0
 27 47  1  0
 28 48  1  0
M  END
>  <smiles>  (15) 
O=C(NCC(=O)N1C[C@@H](F)C[C@H]1c1ccc(Cl)cc1)c1ccc2cc(Cl)ccc2n1

>  <score_type>  (15) 
oracle

>  <origin>  (15) 
autodockgpu

>  <m_score__min__energy>  (15) 
-8.75

>  <m_primary>  (15) 
energy

>  <rmsd>  (15) 
2.592036177792179

>  <m_score__min__rmsd>  (15) 
2.592036177792179

>  <meeko>  (15) 
{"free_energy": -8.15, "intermolecular_energy": -9.64, "internal_energy": -1.32, "cluster_size": 23, "cluster_id": 1, "rank_in_cluster": 14}

>  <energy>  (15) 
-8.14

>  <cluster_rmsd>  (15) 
1.92

>  <cluster>  (15) 
1

$$$$

     RDKit          3D

 48 51  0  0  0  0  0  0  0  0999 V2000
  138.7810   71.0900  221.1300 O   0  0  0  0  0  0  0  0  0  0  0  0
  138.7500   71.7110  222.2380 C   0  0  0  0  0  0  0  0  0  0  0  0
  138.1190   72.9970  222.1960 N   0  0  0  0  0  0  0  0  0  0  0  0
  137.6000   73.4420  220.9430 C   0  0  0  0  0  0  0  0  0  0  0  0
  138.6580   73.8590  219.9850 C   0  0  0  0  0  0  0  0  0  0  0  0
  138.7310   73.4310  218.8030 O   0  0  0  0  0  0  0  0  0  0  0  0
  139.6280   74.7910  220.4550 N   0  0  0  0  0  0  0  0  0  0  0  0
  139.7520   75.3890  221.7800 C   0  0  0  0  0  0  0  0  0  0  0  0
  140.3020   76.7920  221.5830 C   0  0  1  0  0  0  0  0  0  0  0  0
  141.4190   77.0340  222.3590 F   0  0  0  0  0  0  0  0  0  0  0  0
  140.5940   76.8170  220.0980 C   0  0  0  0  0  0  0  0  0  0  0  0
  140.7450   75.3700  219.6980 C   0  0  1  0  0  0  0  0  0  0  0  0
  142.0180   74.7690  220.0510 C   0  0  0  0  0  0  0  0  0  0  0  0
  143.1670   75.5530  219.8810 C   0  0  0  0  0  0  0  0  0  0  0  0
  144.4240   75.0850  220.1850 C   0  0  0  0  0  0  0  0  0  0  0  0
  144.6170   73.8130  220.6760 C   0  0  0  0  0  0  0  0  0  0  0  0
  146.1910   73.1660  221.0790 Cl  0  0  0  0  0  0  0  0  0  0  0  0
  143.5020   73.0200  220.8530 C   0  0  0  0  0  0  0  0  0  0  0  0
  142.2310   73.5060  220.5410 C   0  0  0  0  0  0  0  0  0  0  0  0
  139.3110   71.1660  223.4630 C   0  0  0  0  0  0  0  0  0  0  0  0
  140.3150   71.8870  224.0740 C   0  0  0  0  0  0  0  0  0  0  0  0
  140.9170   71.4710  225.2320 C   0  0  0  0  0  0  0  0  0  0  0  0
  140.4790   70.2790  225.7790 C   0  0  0  0  0  0  0  0  0  0  0  0
  141.0860   69.8630  226.9430 C   0  0  0  0  0  0  0  0  0  0  0  0
  140.6770   68.6800  227.5190 C   0  0  0  0  0  0  0  0  0  0  0  0
  141.4470   68.1430  229.0030 Cl  0  0  0  0  0  0  0  0  0  0  0  0
  139.6670   67.9530  226.9060 C   0  0  0  0  0  0  0  0  0  0  0  0
  139.0700   68.4000  225.7270 C   0  0  0  0  0  0  0  0  0  0  0  0
  139.4790   69.5890  225.1430 C   0  0  0  0  0  0  0  0  0  0  0  0
  138.8890   70.0040  224.0030 N   0  0  0  0  0  0  0  0  0  0  0  0
  138.0700   73.5490  223.0920 H   0  0  0  0  0  0  0  0  0  0  0  0
  137.0239   72.6207  220.4918 H   0  0  0  0  0  0  0  0  0  0  0  0
  136.9745   74.3244  221.1433 H   0  0  0  0  0  0  0  0  0  0  0  0
  138.7672   75.4341  222.2680 H   0  0  0  0  0  0  0  0  0  0  0  0
  140.4181   74.7919  222.4201 H   0  0  0  0  0  0  0  0  0  0  0  0
  139.6081   77.5856  221.8973 H   0  0  0  0  0  0  0  0  0  0  0  0
  139.7625   77.2837  219.5496 H   0  0  0  0  0  0  0  0  0  0  0  0
  141.4959   77.4028  219.8670 H   0  0  0  0  0  0  0  0  0  0  0  0
  140.7276   75.2100  218.6098 H   0  0  0  0  0  0  0  0  0  0  0  0
  143.0601   76.5762  219.4917 H   0  0  0  0  0  0  0  0  0  0  0  0
  145.2939   75.7408  220.0327 H   0  0  0  0  0  0  0  0  0  0  0  0
  143.6153   71.9976  221.2427 H   0  0  0  0  0  0  0  0  0  0  0  0
  141.3633   72.8477  220.6948 H   0  0  0  0  0  0  0  0  0  0  0  0
  140.6446   72.8307  223.6148 H   0  0  0  0  0  0  0  0  0  0  0  0
  141.7153   72.0604  225.7067 H   0  0  0  0  0  0  0  0  0  0  0  0
  141.8831   70.4643  227.4046 H   0  0  0  0  0  0  0  0  0  0  0  0
  139.3311   67.0078  227.3573 H   0  0  0  0  0  0  0  0  0  0  0  0
  138.2711   67.8064  225.2586 H   0  0  0  0  0  0  0  0  0  0  0  0
  1  2  2  0
  2  3  1  0
  3  4  1  0
  4  5  1  0
  5  6  2  0
  5  7  1  0
  7  8  1  0
  8  9  1  0
  9 10  1  0
  9 11  1  0
 11 12  1  0
 12 13  1  0
 13 14  2  0
 14 15  1  0
 15 16  2  0
 16 17  1  0
 16 18  1  0
 18 19  2  0
  2 20  1  0
 20 21  2  0
 21 22  1  0
 22 23  2  0
 23 24  1  0
 24 25  2  0
 25 26  1  0
 25 27  1  0
 27 28  2  0
 28 29  1  0
 29 30  2  0
 12  7  1  0
 19 13  1  0
 30 20  1  0
 29 23  1  0
  3 31  1  0
  4 32  1  0
  4 33  1  0
  8 34  1  0
  8 35  1  0
  9 36  1  6
 11 37  1  0
 11 38  1  0
 12 39  1  6
 14 40  1  0
 15 41  1  0
 18 42  1  0
 19 43  1  0
 21 44  1  0
 22 45  1  0
 24 46  1  0
 27 47  1  0
 28 48  1  0
M  END
>  <smiles>  (16) 
O=C(NCC(=O)N1C[C@@H](F)C[C@H]1c1ccc(Cl)cc1)c1ccc2cc(Cl)ccc2n1

>  <score_type>  (16) 
oracle

>  <origin>  (16) 
autodockgpu

>  <m_score__min__energy>  (16) 
-8.75

>  <m_primary>  (16) 
energy

>  <rmsd>  (16) 
2.934142088873767

>  <m_score__min__rmsd>  (16) 
2.934142088873767

>  <meeko>  (16) 
{"free_energy": -8.01, "intermolecular_energy": -9.51, "internal_energy": -1.63, "cluster_size": 18, "cluster_id": 2, "rank_in_cluster": 12}

>  <energy>  (16) 
-8.13

>  <cluster_rmsd>  (16) 
1.91

>  <cluster>  (16) 
1

$$$$

     RDKit          3D

 48 51  0  0  0  0  0  0  0  0999 V2000
  138.3440   71.2180  220.8130 O   0  0  0  0  0  0  0  0  0  0  0  0
  138.3070   71.7100  221.9840 C   0  0  0  0  0  0  0  0  0  0  0  0
  137.7780   73.0390  222.0680 N   0  0  0  0  0  0  0  0  0  0  0  0
  137.3560   73.6640  220.8560 C   0  0  0  0  0  0  0  0  0  0  0  0
  138.4870   74.1160  220.0040 C   0  0  0  0  0  0  0  0  0  0  0  0
  138.5990   73.8190  218.7860 O   0  0  0  0  0  0  0  0  0  0  0  0
  139.4820   74.9270  220.6240 N   0  0  0  0  0  0  0  0  0  0  0  0
  139.6250   75.2770  222.0330 C   0  0  0  0  0  0  0  0  0  0  0  0
  140.2090   76.6800  222.0830 C   0  0  1  0  0  0  0  0  0  0  0  0
  141.3350   76.7540  222.8800 F   0  0  0  0  0  0  0  0  0  0  0  0
  140.4960   76.9620  220.6240 C   0  0  0  0  0  0  0  0  0  0  0  0
  140.6090   75.6050  219.9730 C   0  0  1  0  0  0  0  0  0  0  0  0
  141.8690   74.9210  220.2020 C   0  0  0  0  0  0  0  0  0  0  0  0
  143.0450   75.6470  219.9700 C   0  0  0  0  0  0  0  0  0  0  0  0
  144.2920   75.0980  220.1580 C   0  0  0  0  0  0  0  0  0  0  0  0
  144.4480   73.7990  220.5860 C   0  0  0  0  0  0  0  0  0  0  0  0
  146.0080   73.0510  220.8400 Cl  0  0  0  0  0  0  0  0  0  0  0  0
  143.3060   73.0620  220.8220 C   0  0  0  0  0  0  0  0  0  0  0  0
  142.0450   73.6290  220.6280 C   0  0  0  0  0  0  0  0  0  0  0  0
  138.7650   70.9850  223.1580 C   0  0  0  0  0  0  0  0  0  0  0  0
  138.3980   69.6610  223.2660 C   0  0  0  0  0  0  0  0  0  0  0  0
  138.7720   68.8800  224.3270 C   0  0  0  0  0  0  0  0  0  0  0  0
  139.5430   69.4750  225.3090 C   0  0  0  0  0  0  0  0  0  0  0  0
  139.9170   68.6880  226.3750 C   0  0  0  0  0  0  0  0  0  0  0  0
  140.6870   69.2450  227.3740 C   0  0  0  0  0  0  0  0  0  0  0  0
  141.1680   68.2470  228.7360 Cl  0  0  0  0  0  0  0  0  0  0  0  0
  141.0570   70.5770  227.2670 C   0  0  0  0  0  0  0  0  0  0  0  0
  140.6630   71.3500  226.1740 C   0  0  0  0  0  0  0  0  0  0  0  0
  139.8890   70.7950  225.1680 C   0  0  0  0  0  0  0  0  0  0  0  0
  139.5180   71.5580  224.1190 N   0  0  0  0  0  0  0  0  0  0  0  0
  137.7290   73.4880  223.0200 H   0  0  0  0  0  0  0  0  0  0  0  0
  136.7531   72.9440  220.2832 H   0  0  0  0  0  0  0  0  0  0  0  0
  136.7791   74.5584  221.1339 H   0  0  0  0  0  0  0  0  0  0  0  0
  138.6433   75.2581  222.5289 H   0  0  0  0  0  0  0  0  0  0  0  0
  140.2781   74.5601  222.5523 H   0  0  0  0  0  0  0  0  0  0  0  0
  139.5356   77.4209  222.5387 H   0  0  0  0  0  0  0  0  0  0  0  0
  139.6745   77.5385  220.1738 H   0  0  0  0  0  0  0  0  0  0  0  0
  141.4111   77.5581  220.4929 H   0  0  0  0  0  0  0  0  0  0  0  0
  140.5824   75.6412  218.8739 H   0  0  0  0  0  0  0  0  0  0  0  0
  142.9683   76.6892  219.6266 H   0  0  0  0  0  0  0  0  0  0  0  0
  145.1844   75.7105  219.9620 H   0  0  0  0  0  0  0  0  0  0  0  0
  143.3895   72.0203  221.1654 H   0  0  0  0  0  0  0  0  0  0  0  0
  141.1548   73.0136  220.8251 H   0  0  0  0  0  0  0  0  0  0  0  0
  137.7822   69.2153  222.4710 H   0  0  0  0  0  0  0  0  0  0  0  0
  138.4718   67.8239  224.3953 H   0  0  0  0  0  0  0  0  0  0  0  0
  139.6071   67.6339  226.4287 H   0  0  0  0  0  0  0  0  0  0  0  0
  141.6718   71.0323  228.0574 H   0  0  0  0  0  0  0  0  0  0  0  0
  140.9684   72.4049  226.1110 H   0  0  0  0  0  0  0  0  0  0  0  0
  1  2  2  0
  2  3  1  0
  3  4  1  0
  4  5  1  0
  5  6  2  0
  5  7  1  0
  7  8  1  0
  8  9  1  0
  9 10  1  0
  9 11  1  0
 11 12  1  0
 12 13  1  0
 13 14  2  0
 14 15  1  0
 15 16  2  0
 16 17  1  0
 16 18  1  0
 18 19  2  0
  2 20  1  0
 20 21  2  0
 21 22  1  0
 22 23  2  0
 23 24  1  0
 24 25  2  0
 25 26  1  0
 25 27  1  0
 27 28  2  0
 28 29  1  0
 29 30  2  0
 12  7  1  0
 19 13  1  0
 30 20  1  0
 29 23  1  0
  3 31  1  0
  4 32  1  0
  4 33  1  0
  8 34  1  0
  8 35  1  0
  9 36  1  1
 11 37  1  0
 11 38  1  0
 12 39  1  6
 14 40  1  0
 15 41  1  0
 18 42  1  0
 19 43  1  0
 21 44  1  0
 22 45  1  0
 24 46  1  0
 27 47  1  0
 28 48  1  0
M  END
>  <smiles>  (17) 
O=C(NCC(=O)N1C[C@@H](F)C[C@H]1c1ccc(Cl)cc1)c1ccc2cc(Cl)ccc2n1

>  <score_type>  (17) 
oracle

>  <origin>  (17) 
autodockgpu

>  <m_score__min__energy>  (17) 
-8.75

>  <m_primary>  (17) 
energy

>  <rmsd>  (17) 
2.153187217957125

>  <m_score__min__rmsd>  (17) 
2.153187217957125

>  <meeko>  (17) 
{"free_energy": -7.9, "intermolecular_energy": -9.39, "internal_energy": -1.62, "cluster_size": 18, "cluster_id": 2, "rank_in_cluster": 17}

>  <energy>  (17) 
-8.04

>  <cluster_rmsd>  (17) 
1.48

>  <cluster>  (17) 
1

$$$$

     RDKit          3D

 48 51  0  0  0  0  0  0  0  0999 V2000
  139.6750   73.8510  222.3510 O   0  0  0  0  0  0  0  0  0  0  0  0
  140.2040   72.6970  222.2950 C   0  0  0  0  0  0  0  0  0  0  0  0
  140.7730   72.3510  221.0260 N   0  0  0  0  0  0  0  0  0  0  0  0
  140.6900   73.3140  219.9760 C   0  0  0  0  0  0  0  0  0  0  0  0
  141.4540   74.5580  220.2600 C   0  0  0  0  0  0  0  0  0  0  0  0
  142.6440   74.5620  220.6690 O   0  0  0  0  0  0  0  0  0  0  0  0
  140.7790   75.7960  220.0520 N   0  0  0  0  0  0  0  0  0  0  0  0
  139.3650   76.1060  220.2350 C   0  0  0  0  0  0  0  0  0  0  0  0
  138.9990   77.1430  219.1850 C   0  0  1  0  0  0  0  0  0  0  0  0
  138.3870   78.2540  219.7320 F   0  0  0  0  0  0  0  0  0  0  0  0
  140.3410   77.4530  218.5580 C   0  0  0  0  0  0  0  0  0  0  0  0
  141.3640   77.0630  219.5960 C   0  0  1  0  0  0  0  0  0  0  0  0
  141.5270   78.0140  220.6810 C   0  0  0  0  0  0  0  0  0  0  0  0
  141.8040   79.3430  220.3330 C   0  0  0  0  0  0  0  0  0  0  0  0
  141.9740   80.3260  221.2790 C   0  0  0  0  0  0  0  0  0  0  0  0
  141.8810   80.0520  222.6250 C   0  0  0  0  0  0  0  0  0  0  0  0
  142.0890   81.2620  223.8700 Cl  0  0  0  0  0  0  0  0  0  0  0  0
  141.6090   78.7510  222.9950 C   0  0  0  0  0  0  0  0  0  0  0  0
  141.4370   77.7610  222.0260 C   0  0  0  0  0  0  0  0  0  0  0  0
  140.2350   71.7880  223.4290 C   0  0  0  0  0  0  0  0  0  0  0  0
  139.7720   70.5060  223.2230 C   0  0  0  0  0  0  0  0  0  0  0  0
  139.7540   69.5630  224.2170 C   0  0  0  0  0  0  0  0  0  0  0  0
  140.2210   69.9480  225.4600 C   0  0  0  0  0  0  0  0  0  0  0  0
  140.2010   68.9980  226.4580 C   0  0  0  0  0  0  0  0  0  0  0  0
  140.6590   69.3430  227.7110 C   0  0  0  0  0  0  0  0  0  0  0  0
  140.6360   68.1390  228.9880 Cl  0  0  0  0  0  0  0  0  0  0  0  0
  141.1240   70.6330  227.9210 C   0  0  0  0  0  0  0  0  0  0  0  0
  141.1330   71.5730  226.8910 C   0  0  0  0  0  0  0  0  0  0  0  0
  140.6730   71.2320  225.6280 C   0  0  0  0  0  0  0  0  0  0  0  0
  140.6890   72.1550  224.6450 N   0  0  0  0  0  0  0  0  0  0  0  0
  141.2230   71.4030  220.9320 H   0  0  0  0  0  0  0  0  0  0  0  0
  141.0874   72.8623  219.0551 H   0  0  0  0  0  0  0  0  0  0  0  0
  139.6317   73.5964  219.8745 H   0  0  0  0  0  0  0  0  0  0  0  0
  138.7583   75.1988  220.0978 H   0  0  0  0  0  0  0  0  0  0  0  0
  139.1745   76.4887  221.2485 H   0  0  0  0  0  0  0  0  0  0  0  0
  138.2562   76.7880  218.4554 H   0  0  0  0  0  0  0  0  0  0  0  0
  140.4817   76.8659  217.6385 H   0  0  0  0  0  0  0  0  0  0  0  0
  140.4269   78.5125  218.2749 H   0  0  0  0  0  0  0  0  0  0  0  0
  142.3898   77.0093  219.2025 H   0  0  0  0  0  0  0  0  0  0  0  0
  141.8881   79.6081  219.2687 H   0  0  0  0  0  0  0  0  0  0  0  0
  142.1891   81.3544  220.9532 H   0  0  0  0  0  0  0  0  0  0  0  0
  141.5271   78.4920  224.0609 H   0  0  0  0  0  0  0  0  0  0  0  0
  141.2200   76.7341  222.3552 H   0  0  0  0  0  0  0  0  0  0  0  0
  139.4035   70.2299  222.2240 H   0  0  0  0  0  0  0  0  0  0  0  0
  139.3839   68.5435  224.0338 H   0  0  0  0  0  0  0  0  0  0  0  0
  139.8264   67.9832  226.2581 H   0  0  0  0  0  0  0  0  0  0  0  0
  141.4920   70.9194  228.9173 H   0  0  0  0  0  0  0  0  0  0  0  0
  141.5068   72.5899  227.0813 H   0  0  0  0  0  0  0  0  0  0  0  0
  1  2  2  0
  2  3  1  0
  3  4  1  0
  4  5  1  0
  5  6  2  0
  5  7  1  0
  7  8  1  0
  8  9  1  0
  9 10  1  0
  9 11  1  0
 11 12  1  0
 12 13  1  0
 13 14  2  0
 14 15  1  0
 15 16  2  0
 16 17  1  0
 16 18  1  0
 18 19  2  0
  2 20  1  0
 20 21  2  0
 21 22  1  0
 22 23  2  0
 23 24  1  0
 24 25  2  0
 25 26  1  0
 25 27  1  0
 27 28  2  0
 28 29  1  0
 29 30  2  0
 12  7  1  0
 19 13  1  0
 30 20  1  0
 29 23  1  0
  3 31  1  0
  4 32  1  0
  4 33  1  0
  8 34  1  0
  8 35  1  0
  9 36  1  6
 11 37  1  0
 11 38  1  0
 12 39  1  6
 14 40  1  0
 15 41  1  0
 18 42  1  0
 19 43  1  0
 21 44  1  0
 22 45  1  0
 24 46  1  0
 27 47  1  0
 28 48  1  0
M  END
>  <smiles>  (18) 
O=C(NCC(=O)N1C[C@@H](F)C[C@H]1c1ccc(Cl)cc1)c1ccc2cc(Cl)ccc2n1

>  <score_type>  (18) 
oracle

>  <origin>  (18) 
autodockgpu

>  <m_score__min__energy>  (18) 
-8.75

>  <m_primary>  (18) 
energy

>  <rmsd>  (18) 
1.8695165637301123

>  <m_score__min__rmsd>  (18) 
1.8695165637301123

>  <meeko>  (18) 
{"free_energy": -8.2, "intermolecular_energy": -9.69, "internal_energy": -1.3, "cluster_size": 23, "cluster_id": 1, "rank_in_cluster": 12}

>  <energy>  (18) 
-7.98

>  <cluster_rmsd>  (18) 
1.68

>  <cluster>  (18) 
1

$$$$

     RDKit          3D

 48 51  0  0  0  0  0  0  0  0999 V2000
  139.2650   71.7220  220.5830 O   0  0  0  0  0  0  0  0  0  0  0  0
  139.1010   72.1890  221.7540 C   0  0  0  0  0  0  0  0  0  0  0  0
  138.6050   73.5320  221.8080 N   0  0  0  0  0  0  0  0  0  0  0  0
  138.3490   74.1960  220.5700 C   0  0  0  0  0  0  0  0  0  0  0  0
  138.2550   75.6740  220.7070 C   0  0  0  0  0  0  0  0  0  0  0  0
  137.2120   76.3290  220.4440 O   0  0  0  0  0  0  0  0  0  0  0  0
  139.4200   76.3590  221.1590 N   0  0  0  0  0  0  0  0  0  0  0  0
  139.8360   76.6460  222.5270 C   0  0  0  0  0  0  0  0  0  0  0  0
  140.5640   77.9810  222.4980 C   0  0  1  0  0  0  0  0  0  0  0  0
  141.8100   77.9140  223.0910 F   0  0  0  0  0  0  0  0  0  0  0  0
  140.6280   78.2790  221.0160 C   0  0  0  0  0  0  0  0  0  0  0  0
  140.4860   76.9410  220.3340 C   0  0  1  0  0  0  0  0  0  0  0  0
  141.6870   76.1260  220.3330 C   0  0  0  0  0  0  0  0  0  0  0  0
  141.5690   74.8090  220.7990 C   0  0  0  0  0  0  0  0  0  0  0  0
  142.6420   73.9490  220.8390 C   0  0  0  0  0  0  0  0  0  0  0  0
  143.8940   74.3420  220.4230 C   0  0  0  0  0  0  0  0  0  0  0  0
  145.2910   73.2920  220.4530 Cl  0  0  0  0  0  0  0  0  0  0  0  0
  144.0370   75.6340  219.9600 C   0  0  0  0  0  0  0  0  0  0  0  0
  142.9410   76.4980  219.9230 C   0  0  0  0  0  0  0  0  0  0  0  0
  139.3940   71.4250  222.9550 C   0  0  0  0  0  0  0  0  0  0  0  0
  139.0180   70.0980  222.9670 C   0  0  0  0  0  0  0  0  0  0  0  0
  139.2420   69.2820  224.0440 C   0  0  0  0  0  0  0  0  0  0  0  0
  139.8690   69.8420  225.1420 C   0  0  0  0  0  0  0  0  0  0  0  0
  140.0920   69.0190  226.2240 C   0  0  0  0  0  0  0  0  0  0  0  0
  140.7140   69.5410  227.3380 C   0  0  0  0  0  0  0  0  0  0  0  0
  141.0030   68.4980  228.7200 Cl  0  0  0  0  0  0  0  0  0  0  0  0
  141.0920   70.8760  227.3280 C   0  0  0  0  0  0  0  0  0  0  0  0
  140.8530   71.6850  226.2170 C   0  0  0  0  0  0  0  0  0  0  0  0
  140.2270   71.1650  225.0950 C   0  0  0  0  0  0  0  0  0  0  0  0
  140.0040   71.9640  224.0300 N   0  0  0  0  0  0  0  0  0  0  0  0
  138.4540   73.9610  222.7570 H   0  0  0  0  0  0  0  0  0  0  0  0
  139.1656   73.9608  219.8716 H   0  0  0  0  0  0  0  0  0  0  0  0
  137.3756   73.8390  220.2025 H   0  0  0  0  0  0  0  0  0  0  0  0
  138.9562   76.7094  223.1842 H   0  0  0  0  0  0  0  0  0  0  0  0
  140.4893   75.8503  222.9144 H   0  0  0  0  0  0  0  0  0  0  0  0
  140.0596   78.7712  223.0735 H   0  0  0  0  0  0  0  0  0  0  0  0
  139.8075   78.9501  220.7222 H   0  0  0  0  0  0  0  0  0  0  0  0
  141.5660   78.7826  220.7393 H   0  0  0  0  0  0  0  0  0  0  0  0
  140.2780   77.0164  219.2565 H   0  0  0  0  0  0  0  0  0  0  0  0
  140.5873   74.4520  221.1436 H   0  0  0  0  0  0  0  0  0  0  0  0
  142.4963   72.9244  221.2117 H   0  0  0  0  0  0  0  0  0  0  0  0
  145.0215   75.9857  219.6177 H   0  0  0  0  0  0  0  0  0  0  0  0
  143.0902   77.5215  219.5487 H   0  0  0  0  0  0  0  0  0  0  0  0
  138.5203   69.6800  222.0796 H   0  0  0  0  0  0  0  0  0  0  0  0
  138.9360   68.2255  224.0359 H   0  0  0  0  0  0  0  0  0  0  0  0
  139.7794   67.9646  226.1995 H   0  0  0  0  0  0  0  0  0  0  0  0
  141.5887   71.3038  228.2114 H   0  0  0  0  0  0  0  0  0  0  0  0
  141.1627   72.7404  226.2314 H   0  0  0  0  0  0  0  0  0  0  0  0
  1  2  2  0
  2  3  1  0
  3  4  1  0
  4  5  1  0
  5  6  2  0
  5  7  1  0
  7  8  1  0
  8  9  1  0
  9 10  1  0
  9 11  1  0
 11 12  1  0
 12 13  1  0
 13 14  2  0
 14 15  1  0
 15 16  2  0
 16 17  1  0
 16 18  1  0
 18 19  2  0
  2 20  1  0
 20 21  2  0
 21 22  1  0
 22 23  2  0
 23 24  1  0
 24 25  2  0
 25 26  1  0
 25 27  1  0
 27 28  2  0
 28 29  1  0
 29 30  2  0
 12  7  1  0
 19 13  1  0
 30 20  1  0
 29 23  1  0
  3 31  1  0
  4 32  1  0
  4 33  1  0
  8 34  1  0
  8 35  1  0
  9 36  1  1
 11 37  1  0
 11 38  1  0
 12 39  1  6
 14 40  1  0
 15 41  1  0
 18 42  1  0
 19 43  1  0
 21 44  1  0
 22 45  1  0
 24 46  1  0
 27 47  1  0
 28 48  1  0
M  END
>  <smiles>  (19) 
O=C(NCC(=O)N1C[C@@H](F)C[C@H]1c1ccc(Cl)cc1)c1ccc2cc(Cl)ccc2n1

>  <score_type>  (19) 
oracle

>  <origin>  (19) 
autodockgpu

>  <m_score__min__energy>  (19) 
-8.75

>  <m_primary>  (19) 
energy

>  <rmsd>  (19) 
2.457901776282954

>  <m_score__min__rmsd>  (19) 
2.457901776282954

>  <meeko>  (19) 
{"free_energy": -8.09, "intermolecular_energy": -9.58, "internal_energy": -1.63, "cluster_size": 18, "cluster_id": 2, "rank_in_cluster": 9}

>  <energy>  (19) 
-7.91

>  <cluster_rmsd>  (19) 
1.32

>  <cluster>  (19) 
1

$$$$

     RDKit          3D

 48 51  0  0  0  0  0  0  0  0999 V2000
  139.5760   73.8330  222.3390 O   0  0  0  0  0  0  0  0  0  0  0  0
  140.1730   72.7120  222.3000 C   0  0  0  0  0  0  0  0  0  0  0  0
  140.8090   72.4070  221.0520 N   0  0  0  0  0  0  0  0  0  0  0  0
  140.7110   73.3690  220.0030 C   0  0  0  0  0  0  0  0  0  0  0  0
  141.9230   74.2210  219.8730 C   0  0  0  0  0  0  0  0  0  0  0  0
  143.0920   73.7950  220.0600 O   0  0  0  0  0  0  0  0  0  0  0  0
  141.7210   75.5860  219.5170 N   0  0  0  0  0  0  0  0  0  0  0  0
  140.7910   76.1470  218.5430 C   0  0  0  0  0  0  0  0  0  0  0  0
  141.4640   77.3720  217.9440 C   0  0  1  0  0  0  0  0  0  0  0  0
  140.6650   78.4970  218.0090 F   0  0  0  0  0  0  0  0  0  0  0  0
  142.7210   77.4890  218.7780 C   0  0  0  0  0  0  0  0  0  0  0  0
  142.4150   76.7590  220.0620 C   0  0  1  0  0  0  0  0  0  0  0  0
  141.5910   77.4980  221.0020 C   0  0  0  0  0  0  0  0  0  0  0  0
  141.7860   78.8840  221.0760 C   0  0  0  0  0  0  0  0  0  0  0  0
  141.0590   79.6800  221.9290 C   0  0  0  0  0  0  0  0  0  0  0  0
  140.0960   79.1520  222.7600 C   0  0  0  0  0  0  0  0  0  0  0  0
  139.1440   80.1170  223.8630 Cl  0  0  0  0  0  0  0  0  0  0  0  0
  139.8840   77.7900  222.7070 C   0  0  0  0  0  0  0  0  0  0  0  0
  140.6280   76.9910  221.8370 C   0  0  0  0  0  0  0  0  0  0  0  0
  140.2140   71.8000  223.4310 C   0  0  0  0  0  0  0  0  0  0  0  0
  139.7560   70.5170  223.2240 C   0  0  0  0  0  0  0  0  0  0  0  0
  139.7470   69.5710  224.2150 C   0  0  0  0  0  0  0  0  0  0  0  0
  140.2190   69.9550  225.4580 C   0  0  0  0  0  0  0  0  0  0  0  0
  140.2080   69.0030  226.4530 C   0  0  0  0  0  0  0  0  0  0  0  0
  140.6710   69.3460  227.7050 C   0  0  0  0  0  0  0  0  0  0  0  0
  140.6610   68.1380  228.9780 Cl  0  0  0  0  0  0  0  0  0  0  0  0
  141.1320   70.6380  227.9150 C   0  0  0  0  0  0  0  0  0  0  0  0
  141.1310   71.5800  226.8870 C   0  0  0  0  0  0  0  0  0  0  0  0
  140.6660   71.2400  225.6270 C   0  0  0  0  0  0  0  0  0  0  0  0
  140.6730   72.1660  224.6450 N   0  0  0  0  0  0  0  0  0  0  0  0
  141.3170   71.4870  220.9730 H   0  0  0  0  0  0  0  0  0  0  0  0
  140.5551   72.8360  219.0535 H   0  0  0  0  0  0  0  0  0  0  0  0
  139.8693   74.0338  220.2473 H   0  0  0  0  0  0  0  0  0  0  0  0
  140.5778   75.4094  217.7553 H   0  0  0  0  0  0  0  0  0  0  0  0
  139.8366   76.4157  219.0194 H   0  0  0  0  0  0  0  0  0  0  0  0
  141.6704   77.2786  216.8676 H   0  0  0  0  0  0  0  0  0  0  0  0
  143.5714   77.0202  218.2613 H   0  0  0  0  0  0  0  0  0  0  0  0
  142.9978   78.5382  218.9583 H   0  0  0  0  0  0  0  0  0  0  0  0
  143.3056   76.5529  220.6738 H   0  0  0  0  0  0  0  0  0  0  0  0
  142.5453   79.3499  220.4307 H   0  0  0  0  0  0  0  0  0  0  0  0
  141.2508   80.7630  221.9483 H   0  0  0  0  0  0  0  0  0  0  0  0
  139.1232   77.3302  223.3549 H   0  0  0  0  0  0  0  0  0  0  0  0
  140.4337   75.9084  221.8204 H   0  0  0  0  0  0  0  0  0  0  0  0
  139.3838   70.2421  222.2261 H   0  0  0  0  0  0  0  0  0  0  0  0
  139.3805   68.5504  224.0306 H   0  0  0  0  0  0  0  0  0  0  0  0
  139.8364   67.9873  226.2522 H   0  0  0  0  0  0  0  0  0  0  0  0
  141.5047   70.9239  228.9097 H   0  0  0  0  0  0  0  0  0  0  0  0
  141.5012   72.5982  227.0773 H   0  0  0  0  0  0  0  0  0  0  0  0
  1  2  2  0
  2  3  1  0
  3  4  1  0
  4  5  1  0
  5  6  2  0
  5  7  1  0
  7  8  1  0
  8  9  1  0
  9 10  1  0
  9 11  1  0
 11 12  1  0
 12 13  1  0
 13 14  2  0
 14 15  1  0
 15 16  2  0
 16 17  1  0
 16 18  1  0
 18 19  2  0
  2 20  1  0
 20 21  2  0
 21 22  1  0
 22 23  2  0
 23 24  1  0
 24 25  2  0
 25 26  1  0
 25 27  1  0
 27 28  2  0
 28 29  1  0
 29 30  2  0
 12  7  1  0
 19 13  1  0
 30 20  1  0
 29 23  1  0
  3 31  1  0
  4 32  1  0
  4 33  1  0
  8 34  1  0
  8 35  1  0
  9 36  1  6
 11 37  1  0
 11 38  1  0
 12 39  1  1
 14 40  1  0
 15 41  1  0
 18 42  1  0
 19 43  1  0
 21 44  1  0
 22 45  1  0
 24 46  1  0
 27 47  1  0
 28 48  1  0
M  END
>  <smiles>  (20) 
O=C(NCC(=O)N1C[C@@H](F)C[C@H]1c1ccc(Cl)cc1)c1ccc2cc(Cl)ccc2n1

>  <score_type>  (20) 
oracle

>  <origin>  (20) 
autodockgpu

>  <m_score__min__energy>  (20) 
-8.75

>  <m_primary>  (20) 
energy

>  <rmsd>  (20) 
1.989458237746039

>  <m_score__min__rmsd>  (20) 
1.989458237746039

>  <meeko>  (20) 
{"free_energy": -7.98, "intermolecular_energy": -9.47, "internal_energy": -1.46, "cluster_size": 23, "cluster_id": 1, "rank_in_cluster": 18}

>  <energy>  (20) 
-7.89

>  <cluster_rmsd>  (20) 
1.73

>  <cluster>  (20) 
1

$$$$

     RDKit          3D

 48 51  0  0  0  0  0  0  0  0999 V2000
  138.3740   71.4300  221.3070 O   0  0  0  0  0  0  0  0  0  0  0  0
  138.8580   71.9490  222.3610 C   0  0  0  0  0  0  0  0  0  0  0  0
  138.9800   73.3760  222.3340 N   0  0  0  0  0  0  0  0  0  0  0  0
  138.5560   74.0580  221.1540 C   0  0  0  0  0  0  0  0  0  0  0  0
  138.4000   75.5240  221.3470 C   0  0  0  0  0  0  0  0  0  0  0  0
  137.3000   76.0760  221.6070 O   0  0  0  0  0  0  0  0  0  0  0  0
  139.5750   76.3210  221.2250 N   0  0  0  0  0  0  0  0  0  0  0  0
  140.1970   77.1890  222.2190 C   0  0  0  0  0  0  0  0  0  0  0  0
  140.8160   78.3550  221.4650 C   0  0  1  0  0  0  0  0  0  0  0  0
  142.1460   78.5440  221.7870 F   0  0  0  0  0  0  0  0  0  0  0  0
  140.6060   77.9520  220.0220 C   0  0  0  0  0  0  0  0  0  0  0  0
  140.4430   76.4520  220.0470 C   0  0  1  0  0  0  0  0  0  0  0  0
  141.6800   75.7060  220.1910 C   0  0  0  0  0  0  0  0  0  0  0  0
  142.8540   76.3160  219.7290 C   0  0  0  0  0  0  0  0  0  0  0  0
  144.0810   75.7010  219.8180 C   0  0  0  0  0  0  0  0  0  0  0  0
  144.2180   74.4460  220.3680 C   0  0  0  0  0  0  0  0  0  0  0  0
  145.7510   73.6180  220.5050 Cl  0  0  0  0  0  0  0  0  0  0  0  0
  143.0760   73.8240  220.8300 C   0  0  0  0  0  0  0  0  0  0  0  0
  141.8360   74.4570  220.7350 C   0  0  0  0  0  0  0  0  0  0  0  0
  139.2620   71.1610  223.5140 C   0  0  0  0  0  0  0  0  0  0  0  0
  139.0320   69.8020  223.4620 C   0  0  0  0  0  0  0  0  0  0  0  0
  139.3700   68.9610  224.4890 C   0  0  0  0  0  0  0  0  0  0  0  0
  139.9600   69.5300  225.6030 C   0  0  0  0  0  0  0  0  0  0  0  0
  140.2990   68.6820  226.6340 C   0  0  0  0  0  0  0  0  0  0  0  0
  140.8900   69.2110  227.7620 C   0  0  0  0  0  0  0  0  0  0  0  0
  141.3240   68.1360  229.0800 Cl  0  0  0  0  0  0  0  0  0  0  0  0
  141.1210   70.5770  227.8160 C   0  0  0  0  0  0  0  0  0  0  0  0
  140.7680   71.4120  226.7550 C   0  0  0  0  0  0  0  0  0  0  0  0
  140.1730   70.8850  225.6190 C   0  0  0  0  0  0  0  0  0  0  0  0
  139.8380   71.7080  224.6040 N   0  0  0  0  0  0  0  0  0  0  0  0
  139.3770   73.8510  223.1870 H   0  0  0  0  0  0  0  0  0  0  0  0
  139.3026   73.8871  220.3645 H   0  0  0  0  0  0  0  0  0  0  0  0
  137.5679   73.6577  220.8831 H   0  0  0  0  0  0  0  0  0  0  0  0
  139.4394   77.5563  222.9269 H   0  0  0  0  0  0  0  0  0  0  0  0
  140.9599   76.6438  222.7942 H   0  0  0  0  0  0  0  0  0  0  0  0
  140.3638   79.3277  221.7088 H   0  0  0  0  0  0  0  0  0  0  0  0
  139.7029   78.4310  219.6157 H   0  0  0  0  0  0  0  0  0  0  0  0
  141.4459   78.2626  219.3832 H   0  0  0  0  0  0  0  0  0  0  0  0
  140.0506   76.0366  219.1071 H   0  0  0  0  0  0  0  0  0  0  0  0
  142.7922   77.3187  219.2809 H   0  0  0  0  0  0  0  0  0  0  0  0
  144.9728   76.2233  219.4414 H   0  0  0  0  0  0  0  0  0  0  0  0
  143.1437   72.8211  221.2768 H   0  0  0  0  0  0  0  0  0  0  0  0
  140.9462   73.9319  221.1124 H   0  0  0  0  0  0  0  0  0  0  0  0
  138.5601   69.3782  222.5633 H   0  0  0  0  0  0  0  0  0  0  0  0
  139.1802   67.8791  224.4302 H   0  0  0  0  0  0  0  0  0  0  0  0
  140.1019   67.6024  226.5590 H   0  0  0  0  0  0  0  0  0  0  0  0
  141.5909   71.0104  228.7112 H   0  0  0  0  0  0  0  0  0  0  0  0
  140.9626   72.4927  226.8203 H   0  0  0  0  0  0  0  0  0  0  0  0
  1  2  2  0
  2  3  1  0
  3  4  1  0
  4  5  1  0
  5  6  2  0
  5  7  1  0
  7  8  1  0
  8  9  1  0
  9 10  1  0
  9 11  1  0
 11 12  1  0
 12 13  1  0
 13 14  2  0
 14 15  1  0
 15 16  2  0
 16 17  1  0
 16 18  1  0
 18 19  2  0
  2 20  1  0
 20 21  2  0
 21 22  1  0
 22 23  2  0
 23 24  1  0
 24 25  2  0
 25 26  1  0
 25 27  1  0
 27 28  2  0
 28 29  1  0
 29 30  2  0
 12  7  1  0
 19 13  1  0
 30 20  1  0
 29 23  1  0
  3 31  1  0
  4 32  1  0
  4 33  1  0
  8 34  1  0
  8 35  1  0
  9 36  1  6
 11 37  1  0
 11 38  1  0
 12 39  1  6
 14 40  1  0
 15 41  1  0
 18 42  1  0
 19 43  1  0
 21 44  1  0
 22 45  1  0
 24 46  1  0
 27 47  1  0
 28 48  1  0
M  END
>  <smiles>  (21) 
O=C(NCC(=O)N1C[C@@H](F)C[C@H]1c1ccc(Cl)cc1)c1ccc2cc(Cl)ccc2n1

>  <score_type>  (21) 
oracle

>  <origin>  (21) 
autodockgpu

>  <m_score__min__energy>  (21) 
-8.75

>  <m_primary>  (21) 
energy

>  <rmsd>  (21) 
2.231500610398266

>  <m_score__min__rmsd>  (21) 
2.231500610398266

>  <meeko>  (21) 
{"free_energy": -8.16, "intermolecular_energy": -9.65, "internal_energy": -1.6, "cluster_size": 18, "cluster_id": 2, "rank_in_cluster": 6}

>  <energy>  (21) 
-7.84

>  <cluster_rmsd>  (21) 
1.66

>  <cluster>  (21) 
1

$$$$

     RDKit          3D

 48 51  0  0  0  0  0  0  0  0999 V2000
  140.5520   72.6470  221.0540 O   0  0  0  0  0  0  0  0  0  0  0  0
  139.7650   72.6730  222.0510 C   0  0  0  0  0  0  0  0  0  0  0  0
  138.7270   73.6590  221.9800 N   0  0  0  0  0  0  0  0  0  0  0  0
  138.6820   74.4930  220.8230 C   0  0  0  0  0  0  0  0  0  0  0  0
  138.6800   75.9450  221.1470 C   0  0  0  0  0  0  0  0  0  0  0  0
  137.8560   76.4770  221.9350 O   0  0  0  0  0  0  0  0  0  0  0  0
  139.6720   76.7510  220.5170 N   0  0  0  0  0  0  0  0  0  0  0  0
  139.5160   77.6970  219.4180 C   0  0  0  0  0  0  0  0  0  0  0  0
  140.8020   77.6510  218.6080 C   0  0  1  0  0  0  0  0  0  0  0  0
  141.3490   78.9050  218.4170 F   0  0  0  0  0  0  0  0  0  0  0  0
  141.6760   76.7430  219.4440 C   0  0  0  0  0  0  0  0  0  0  0  0
  141.1030   76.8130  220.8380 C   0  0  1  0  0  0  0  0  0  0  0  0
  141.4480   78.0120  221.5810 C   0  0  0  0  0  0  0  0  0  0  0  0
  141.3290   77.9590  222.9760 C   0  0  0  0  0  0  0  0  0  0  0  0
  141.6320   79.0350  223.7770 C   0  0  0  0  0  0  0  0  0  0  0  0
  142.0690   80.2270  223.2440 C   0  0  0  0  0  0  0  0  0  0  0  0
  142.4670   81.6260  224.2140 Cl  0  0  0  0  0  0  0  0  0  0  0  0
  142.1940   80.3050  221.8720 C   0  0  0  0  0  0  0  0  0  0  0  0
  141.8850   79.2070  221.0690 C   0  0  0  0  0  0  0  0  0  0  0  0
  139.9000   71.7740  223.1860 C   0  0  0  0  0  0  0  0  0  0  0  0
  139.4670   70.4760  223.0180 C   0  0  0  0  0  0  0  0  0  0  0  0
  139.5440   69.5410  224.0160 C   0  0  0  0  0  0  0  0  0  0  0  0
  140.0790   69.9500  225.2240 C   0  0  0  0  0  0  0  0  0  0  0  0
  140.1550   69.0090  226.2260 C   0  0  0  0  0  0  0  0  0  0  0  0
  140.6830   69.3780  227.4450 C   0  0  0  0  0  0  0  0  0  0  0  0
  140.7840   68.1830  228.7270 Cl  0  0  0  0  0  0  0  0  0  0  0  0
  141.1190   70.6830  227.6160 C   0  0  0  0  0  0  0  0  0  0  0  0
  141.0290   71.6150  226.5820 C   0  0  0  0  0  0  0  0  0  0  0  0
  140.4990   71.2490  225.3550 C   0  0  0  0  0  0  0  0  0  0  0  0
  140.4210   72.1650  224.3670 N   0  0  0  0  0  0  0  0  0  0  0  0
  138.0500   73.7170  222.7850 H   0  0  0  0  0  0  0  0  0  0  0  0
  139.5622   74.2749  220.2004 H   0  0  0  0  0  0  0  0  0  0  0  0
  137.7403   74.2738  220.2984 H   0  0  0  0  0  0  0  0  0  0  0  0
  138.6620   77.4073  218.7882 H   0  0  0  0  0  0  0  0  0  0  0  0
  139.3261   78.7121  219.7969 H   0  0  0  0  0  0  0  0  0  0  0  0
  140.6630   77.2846  217.5802 H   0  0  0  0  0  0  0  0  0  0  0  0
  141.6368   75.7120  219.0625 H   0  0  0  0  0  0  0  0  0  0  0  0
  142.7315   77.0516  219.4182 H   0  0  0  0  0  0  0  0  0  0  0  0
  141.4833   76.0289  221.5092 H   0  0  0  0  0  0  0  0  0  0  0  0
  140.9820   77.0268  223.4456 H   0  0  0  0  0  0  0  0  0  0  0  0
  141.5229   78.9413  224.8675 H   0  0  0  0  0  0  0  0  0  0  0  0
  142.5400   81.2403  221.4079 H   0  0  0  0  0  0  0  0  0  0  0  0
  141.9965   79.3037  219.9789 H   0  0  0  0  0  0  0  0  0  0  0  0
  139.0440   70.1803  222.0466 H   0  0  0  0  0  0  0  0  0  0  0  0
  139.1953   68.5090  223.8632 H   0  0  0  0  0  0  0  0  0  0  0  0
  139.8009   67.9813  226.0571 H   0  0  0  0  0  0  0  0  0  0  0  0
  141.5432   70.9887  228.5838 H   0  0  0  0  0  0  0  0  0  0  0  0
  141.3803   72.6451  226.7413 H   0  0  0  0  0  0  0  0  0  0  0  0
  1  2  2  0
  2  3  1  0
  3  4  1  0
  4  5  1  0
  5  6  2  0
  5  7  1  0
  7  8  1  0
  8  9  1  0
  9 10  1  0
  9 11  1  0
 11 12  1  0
 12 13  1  0
 13 14  2  0
 14 15  1  0
 15 16  2  0
 16 17  1  0
 16 18  1  0
 18 19  2  0
  2 20  1  0
 20 21  2  0
 21 22  1  0
 22 23  2  0
 23 24  1  0
 24 25  2  0
 25 26  1  0
 25 27  1  0
 27 28  2  0
 28 29  1  0
 29 30  2  0
 12  7  1  0
 19 13  1  0
 30 20  1  0
 29 23  1  0
  3 31  1  0
  4 32  1  0
  4 33  1  0
  8 34  1  0
  8 35  1  0
  9 36  1  6
 11 37  1  0
 11 38  1  0
 12 39  1  1
 14 40  1  0
 15 41  1  0
 18 42  1  0
 19 43  1  0
 21 44  1  0
 22 45  1  0
 24 46  1  0
 27 47  1  0
 28 48  1  0
M  END
>  <smiles>  (22) 
O=C(NCC(=O)N1C[C@@H](F)C[C@H]1c1ccc(Cl)cc1)c1ccc2cc(Cl)ccc2n1

>  <score_type>  (22) 
oracle

>  <origin>  (22) 
autodockgpu

>  <m_score__min__energy>  (22) 
-8.75

>  <m_primary>  (22) 
energy

>  <rmsd>  (22) 
1.685804336319934

>  <m_score__min__rmsd>  (22) 
1.685804336319934

>  <meeko>  (22) 
{"free_energy": -8.75, "intermolecular_energy": -10.24, "internal_energy": -1.21, "cluster_size": 23, "cluster_id": 1, "rank_in_cluster": 1}

>  <energy>  (22) 
-7.79

>  <cluster_rmsd>  (22) 
1.87

>  <cluster>  (22) 
1

$$$$

     RDKit          3D

 48 51  0  0  0  0  0  0  0  0999 V2000
  138.8850   71.7280  221.1490 O   0  0  0  0  0  0  0  0  0  0  0  0
  139.2130   72.2100  222.2780 C   0  0  0  0  0  0  0  0  0  0  0  0
  139.2630   73.6410  222.3360 N   0  0  0  0  0  0  0  0  0  0  0  0
  138.9470   74.3660  221.1470 C   0  0  0  0  0  0  0  0  0  0  0  0
  137.5540   74.8850  221.1290 C   0  0  0  0  0  0  0  0  0  0  0  0
  136.5840   74.2490  220.6400 O   0  0  0  0  0  0  0  0  0  0  0  0
  137.3340   76.1720  221.7010 N   0  0  0  0  0  0  0  0  0  0  0  0
  136.7070   76.5090  222.9740 C   0  0  0  0  0  0  0  0  0  0  0  0
  135.9880   77.8340  222.7760 C   0  0  1  0  0  0  0  0  0  0  0  0
  136.3380   78.7710  223.7290 F   0  0  0  0  0  0  0  0  0  0  0  0
  136.4130   78.2240  221.3770 C   0  0  0  0  0  0  0  0  0  0  0  0
  137.6970   77.4730  221.1280 C   0  0  1  0  0  0  0  0  0  0  0  0
  138.8710   78.0450  221.7620 C   0  0  0  0  0  0  0  0  0  0  0  0
  138.8710   79.4290  221.9840 C   0  0  0  0  0  0  0  0  0  0  0  0
  139.9300   80.0740  222.5800 C   0  0  0  0  0  0  0  0  0  0  0  0
  141.0510   79.3870  222.9910 C   0  0  0  0  0  0  0  0  0  0  0  0
  142.4240   80.1560  223.7520 Cl  0  0  0  0  0  0  0  0  0  0  0  0
  141.0760   78.0240  222.7840 C   0  0  0  0  0  0  0  0  0  0  0  0
  139.9960   77.3790  222.1780 C   0  0  0  0  0  0  0  0  0  0  0  0
  139.5160   71.3800  223.4320 C   0  0  0  0  0  0  0  0  0  0  0  0
  139.2470   70.0320  223.3280 C   0  0  0  0  0  0  0  0  0  0  0  0
  139.4920   69.1540  224.3500 C   0  0  0  0  0  0  0  0  0  0  0  0
  140.0270   69.6740  225.5150 C   0  0  0  0  0  0  0  0  0  0  0  0
  140.2720   68.7880  226.5410 C   0  0  0  0  0  0  0  0  0  0  0  0
  140.8060   69.2680  227.7180 C   0  0  0  0  0  0  0  0  0  0  0  0
  141.1210   68.1460  229.0310 Cl  0  0  0  0  0  0  0  0  0  0  0  0
  141.0770   70.6240  227.8250 C   0  0  0  0  0  0  0  0  0  0  0  0
  140.8180   71.4970  226.7670 C   0  0  0  0  0  0  0  0  0  0  0  0
  140.2810   71.0190  225.5820 C   0  0  0  0  0  0  0  0  0  0  0  0
  140.0380   71.8790  224.5710 N   0  0  0  0  0  0  0  0  0  0  0  0
  139.5300   74.0860  223.2520 H   0  0  0  0  0  0  0  0  0  0  0  0
  139.6382   75.2175  221.0629 H   0  0  0  0  0  0  0  0  0  0  0  0
  139.0461   73.6677  220.3029 H   0  0  0  0  0  0  0  0  0  0  0  0
  135.9876   75.7274  223.2598 H   0  0  0  0  0  0  0  0  0  0  0  0
  137.4577   76.5845  223.7745 H   0  0  0  0  0  0  0  0  0  0  0  0
  134.8961   77.7641  222.8893 H   0  0  0  0  0  0  0  0  0  0  0  0
  135.6463   77.9298  220.6452 H   0  0  0  0  0  0  0  0  0  0  0  0
  136.5474   79.3112  221.2770 H   0  0  0  0  0  0  0  0  0  0  0  0
  138.0056   77.4674  220.0722 H   0  0  0  0  0  0  0  0  0  0  0  0
  137.9962   80.0183  221.6717 H   0  0  0  0  0  0  0  0  0  0  0  0
  139.8805   81.1624  222.7317 H   0  0  0  0  0  0  0  0  0  0  0  0
  141.9536   77.4402  223.0987 H   0  0  0  0  0  0  0  0  0  0  0  0
  140.0495   76.2906  222.0277 H   0  0  0  0  0  0  0  0  0  0  0  0
  138.8200   69.6476  222.3900 H   0  0  0  0  0  0  0  0  0  0  0  0
  139.2727   68.0808  224.2489 H   0  0  0  0  0  0  0  0  0  0  0  0
  140.0459   67.7179  226.4234 H   0  0  0  0  0  0  0  0  0  0  0  0
  141.5032   71.0182  228.7593 H   0  0  0  0  0  0  0  0  0  0  0  0
  141.0410   72.5688  226.8742 H   0  0  0  0  0  0  0  0  0  0  0  0
  1  2  2  0
  2  3  1  0
  3  4  1  0
  4  5  1  0
  5  6  2  0
  5  7  1  0
  7  8  1  0
  8  9  1  0
  9 10  1  0
  9 11  1  0
 11 12  1  0
 12 13  1  0
 13 14  2  0
 14 15  1  0
 15 16  2  0
 16 17  1  0
 16 18  1  0
 18 19  2  0
  2 20  1  0
 20 21  2  0
 21 22  1  0
 22 23  2  0
 23 24  1  0
 24 25  2  0
 25 26  1  0
 25 27  1  0
 27 28  2  0
 28 29  1  0
 29 30  2  0
 12  7  1  0
 19 13  1  0
 30 20  1  0
 29 23  1  0
  3 31  1  0
  4 32  1  0
  4 33  1  0
  8 34  1  0
  8 35  1  0
  9 36  1  6
 11 37  1  0
 11 38  1  0
 12 39  1  6
 14 40  1  0
 15 41  1  0
 18 42  1  0
 19 43  1  0
 21 44  1  0
 22 45  1  0
 24 46  1  0
 27 47  1  0
 28 48  1  0
M  END
>  <smiles>  (23) 
O=C(NCC(=O)N1C[C@@H](F)C[C@H]1c1ccc(Cl)cc1)c1ccc2cc(Cl)ccc2n1

>  <score_type>  (23) 
oracle

>  <origin>  (23) 
autodockgpu

>  <m_score__min__energy>  (23) 
-8.75

>  <m_primary>  (23) 
energy

>  <rmsd>  (23) 
3.2971905038355422

>  <m_score__min__rmsd>  (23) 
3.2971905038355422

>  <meeko>  (23) 
{"free_energy": -7.83, "intermolecular_energy": -9.33, "internal_energy": -1.49, "cluster_size": 2, "cluster_id": 6, "rank_in_cluster": 1}

>  <energy>  (23) 
-7.72

>  <cluster_rmsd>  (23) 
1.8

>  <cluster>  (23) 
1

$$$$

     RDKit          3D

 48 51  0  0  0  0  0  0  0  0999 V2000
  141.9520   73.4950  221.0520 O   0  0  0  0  0  0  0  0  0  0  0  0
  141.1050   74.2760  221.5880 C   0  0  0  0  0  0  0  0  0  0  0  0
  140.0470   73.6260  222.3030 N   0  0  0  0  0  0  0  0  0  0  0  0
  140.0490   72.1990  222.3410 C   0  0  0  0  0  0  0  0  0  0  0  0
  138.6840   71.6120  222.4060 C   0  0  0  0  0  0  0  0  0  0  0  0
  137.6400   72.2550  222.1240 O   0  0  0  0  0  0  0  0  0  0  0  0
  138.5830   70.2500  222.8110 N   0  0  0  0  0  0  0  0  0  0  0  0
  139.2060   69.0720  222.2160 C   0  0  0  0  0  0  0  0  0  0  0  0
  138.2370   67.9160  222.4040 C   0  0  1  0  0  0  0  0  0  0  0  0
  138.8330   66.8190  222.9960 F   0  0  0  0  0  0  0  0  0  0  0  0
  137.1560   68.5380  223.2620 C   0  0  0  0  0  0  0  0  0  0  0  0
  137.8160   69.7130  223.9420 C   0  0  1  0  0  0  0  0  0  0  0  0
  138.6650   69.3680  225.0680 C   0  0  0  0  0  0  0  0  0  0  0  0
  139.4710   70.3840  225.5990 C   0  0  0  0  0  0  0  0  0  0  0  0
  140.3110   70.1680  226.6660 C   0  0  0  0  0  0  0  0  0  0  0  0
  140.4030   68.9340  227.2700 C   0  0  0  0  0  0  0  0  0  0  0  0
  141.4530   68.6050  228.6280 Cl  0  0  0  0  0  0  0  0  0  0  0  0
  139.6210   67.9160  226.7660 C   0  0  0  0  0  0  0  0  0  0  0  0
  138.7710   68.1460  225.6830 C   0  0  0  0  0  0  0  0  0  0  0  0
  141.1950   75.7230  221.4890 C   0  0  0  0  0  0  0  0  0  0  0  0
  141.5310   76.2530  220.2610 C   0  0  0  0  0  0  0  0  0  0  0  0
  141.6440   77.6010  220.0490 C   0  0  0  0  0  0  0  0  0  0  0  0
  141.4080   78.4320  221.1300 C   0  0  0  0  0  0  0  0  0  0  0  0
  141.5240   79.7880  220.9140 C   0  0  0  0  0  0  0  0  0  0  0  0
  141.2960   80.6490  221.9660 C   0  0  0  0  0  0  0  0  0  0  0  0
  141.4410   82.3780  221.6990 Cl  0  0  0  0  0  0  0  0  0  0  0  0
  140.9590   80.1180  223.2020 C   0  0  0  0  0  0  0  0  0  0  0  0
  140.8490   78.7400  223.3900 C   0  0  0  0  0  0  0  0  0  0  0  0
  141.0770   77.8700  222.3360 C   0  0  0  0  0  0  0  0  0  0  0  0
  140.9660   76.5410  222.5370 N   0  0  0  0  0  0  0  0  0  0  0  0
  139.3210   74.2340  222.7650 H   0  0  0  0  0  0  0  0  0  0  0  0
  140.5470   71.8259  221.4339 H   0  0  0  0  0  0  0  0  0  0  0  0
  140.5781   71.8975  223.2570 H   0  0  0  0  0  0  0  0  0  0  0  0
  139.3889   69.2415  221.1447 H   0  0  0  0  0  0  0  0  0  0  0  0
  140.1734   68.8557  222.6928 H   0  0  0  0  0  0  0  0  0  0  0  0
  137.8521   67.5065  221.4584 H   0  0  0  0  0  0  0  0  0  0  0  0
  136.3154   68.8759  222.6381 H   0  0  0  0  0  0  0  0  0  0  0  0
  136.7448   67.8212  223.9880 H   0  0  0  0  0  0  0  0  0  0  0  0
  137.1035   70.4046  224.4154 H   0  0  0  0  0  0  0  0  0  0  0  0
  139.4304   71.3864  225.1478 H   0  0  0  0  0  0  0  0  0  0  0  0
  140.9231   70.9995  227.0455 H   0  0  0  0  0  0  0  0  0  0  0  0
  139.6675   66.9155  227.2208 H   0  0  0  0  0  0  0  0  0  0  0  0
  138.1602   67.3122  225.3066 H   0  0  0  0  0  0  0  0  0  0  0  0
  141.7151   75.5674  219.4207 H   0  0  0  0  0  0  0  0  0  0  0  0
  141.9109   78.0060  219.0617 H   0  0  0  0  0  0  0  0  0  0  0  0
  141.7935   80.1761  219.9206 H   0  0  0  0  0  0  0  0  0  0  0  0
  140.7752   80.7953  224.0491 H   0  0  0  0  0  0  0  0  0  0  0  0
  140.5800   78.3423  224.3797 H   0  0  0  0  0  0  0  0  0  0  0  0
  1  2  2  0
  2  3  1  0
  3  4  1  0
  4  5  1  0
  5  6  2  0
  5  7  1  0
  7  8  1  0
  8  9  1  0
  9 10  1  0
  9 11  1  0
 11 12  1  0
 12 13  1  0
 13 14  2  0
 14 15  1  0
 15 16  2  0
 16 17  1  0
 16 18  1  0
 18 19  2  0
  2 20  1  0
 20 21  2  0
 21 22  1  0
 22 23  2  0
 23 24  1  0
 24 25  2  0
 25 26  1  0
 25 27  1  0
 27 28  2  0
 28 29  1  0
 29 30  2  0
 12  7  1  0
 19 13  1  0
 30 20  1  0
 29 23  1  0
  3 31  1  0
  4 32  1  0
  4 33  1  0
  8 34  1  0
  8 35  1  0
  9 36  1  6
 11 37  1  0
 11 38  1  0
 12 39  1  1
 14 40  1  0
 15 41  1  0
 18 42  1  0
 19 43  1  0
 21 44  1  0
 22 45  1  0
 24 46  1  0
 27 47  1  0
 28 48  1  0
M  END
>  <smiles>  (24) 
O=C(NCC(=O)N1C[C@@H](F)C[C@H]1c1ccc(Cl)cc1)c1ccc2cc(Cl)ccc2n1

>  <score_type>  (24) 
oracle

>  <origin>  (24) 
autodockgpu

>  <m_score__min__energy>  (24) 
-8.75

>  <m_primary>  (24) 
energy

>  <rmsd>  (24) 
8.450489224224015

>  <m_score__min__rmsd>  (24) 
8.450489224224015

>  <meeko>  (24) 
{"free_energy": -8.06, "intermolecular_energy": -9.55, "internal_energy": -1.41, "cluster_size": 2, "cluster_id": 4, "rank_in_cluster": 2}

>  <energy>  (24) 
-8.32

>  <cluster_rmsd>  (24) 
0.0

>  <cluster>  (24) 
2

$$$$

     RDKit          3D

 48 51  0  0  0  0  0  0  0  0999 V2000
  139.8080   72.0370  220.8180 O   0  0  0  0  0  0  0  0  0  0  0  0
  139.3800   72.3090  221.9830 C   0  0  0  0  0  0  0  0  0  0  0  0
  138.6170   73.5180  222.0820 N   0  0  0  0  0  0  0  0  0  0  0  0
  138.4180   74.2790  220.8910 C   0  0  0  0  0  0  0  0  0  0  0  0
  138.3300   75.7420  221.1370 C   0  0  0  0  0  0  0  0  0  0  0  0
  137.2440   76.3470  221.3370 O   0  0  0  0  0  0  0  0  0  0  0  0
  139.5530   76.4740  221.1410 N   0  0  0  0  0  0  0  0  0  0  0  0
  140.1630   77.2260  222.2330 C   0  0  0  0  0  0  0  0  0  0  0  0
  140.8900   78.4040  221.6060 C   0  0  1  0  0  0  0  0  0  0  0  0
  142.2080   78.4880  222.0130 F   0  0  0  0  0  0  0  0  0  0  0  0
  140.7440   78.1220  220.1260 C   0  0  0  0  0  0  0  0  0  0  0  0
  140.4950   76.6380  220.0270 C   0  0  1  0  0  0  0  0  0  0  0  0
  141.6770   75.8090  220.1810 C   0  0  0  0  0  0  0  0  0  0  0  0
  142.8960   76.3420  219.7410 C   0  0  0  0  0  0  0  0  0  0  0  0
  144.0770   75.6450  219.8410 C   0  0  0  0  0  0  0  0  0  0  0  0
  144.1220   74.3790  220.3810 C   0  0  0  0  0  0  0  0  0  0  0  0
  145.5940   73.4490  220.5310 Cl  0  0  0  0  0  0  0  0  0  0  0  0
  142.9350   73.8310  220.8210 C   0  0  0  0  0  0  0  0  0  0  0  0
  141.7420   74.5480  220.7150 C   0  0  0  0  0  0  0  0  0  0  0  0
  139.6400   71.4630  223.1350 C   0  0  0  0  0  0  0  0  0  0  0  0
  139.3180   70.1270  223.0240 C   0  0  0  0  0  0  0  0  0  0  0  0
  139.5190   69.2360  224.0450 C   0  0  0  0  0  0  0  0  0  0  0  0
  140.0640   69.7300  225.2160 C   0  0  0  0  0  0  0  0  0  0  0  0
  140.2650   68.8320  226.2410 C   0  0  0  0  0  0  0  0  0  0  0  0
  140.8070   69.2850  227.4240 C   0  0  0  0  0  0  0  0  0  0  0  0
  141.0650   68.1470  228.7350 Cl  0  0  0  0  0  0  0  0  0  0  0  0
  141.1310   70.6290  227.5380 C   0  0  0  0  0  0  0  0  0  0  0  0
  140.9170   71.5150  226.4820 C   0  0  0  0  0  0  0  0  0  0  0  0
  140.3720   71.0640  225.2900 C   0  0  0  0  0  0  0  0  0  0  0  0
  140.1720   71.9360  224.2810 N   0  0  0  0  0  0  0  0  0  0  0  0
  138.2410   73.7840  223.0290 H   0  0  0  0  0  0  0  0  0  0  0  0
  139.2610   74.0893  220.2104 H   0  0  0  0  0  0  0  0  0  0  0  0
  137.4574   73.9626  220.4585 H   0  0  0  0  0  0  0  0  0  0  0  0
  139.3868   77.5853  222.9247 H   0  0  0  0  0  0  0  0  0  0  0  0
  140.8578   76.5943  222.8059 H   0  0  0  0  0  0  0  0  0  0  0  0
  140.4790   79.3812  221.8996 H   0  0  0  0  0  0  0  0  0  0  0  0
  139.8955   78.6839  219.7085 H   0  0  0  0  0  0  0  0  0  0  0  0
  141.6366   78.4270  219.5602 H   0  0  0  0  0  0  0  0  0  0  0  0
  140.1361   76.3176  219.0378 H   0  0  0  0  0  0  0  0  0  0  0  0
  142.9085   77.3503  219.3015 H   0  0  0  0  0  0  0  0  0  0  0  0
  145.0071   76.1093  219.4814 H   0  0  0  0  0  0  0  0  0  0  0  0
  142.9285   72.8218  221.2585 H   0  0  0  0  0  0  0  0  0  0  0  0
  140.8137   74.0809  221.0756 H   0  0  0  0  0  0  0  0  0  0  0  0
  138.8838   69.7632  222.0811 H   0  0  0  0  0  0  0  0  0  0  0  0
  139.2580   68.1728  223.9379 H   0  0  0  0  0  0  0  0  0  0  0  0
  139.9976   67.7722  226.1173 H   0  0  0  0  0  0  0  0  0  0  0  0
  141.5642   71.0026  228.4775 H   0  0  0  0  0  0  0  0  0  0  0  0
  141.1820   72.5765  226.5958 H   0  0  0  0  0  0  0  0  0  0  0  0
  1  2  2  0
  2  3  1  0
  3  4  1  0
  4  5  1  0
  5  6  2  0
  5  7  1  0
  7  8  1  0
  8  9  1  0
  9 10  1  0
  9 11  1  0
 11 12  1  0
 12 13  1  0
 13 14  2  0
 14 15  1  0
 15 16  2  0
 16 17  1  0
 16 18  1  0
 18 19  2  0
  2 20  1  0
 20 21  2  0
 21 22  1  0
 22 23  2  0
 23 24  1  0
 24 25  2  0
 25 26  1  0
 25 27  1  0
 27 28  2  0
 28 29  1  0
 29 30  2  0
 12  7  1  0
 19 13  1  0
 30 20  1  0
 29 23  1  0
  3 31  1  0
  4 32  1  0
  4 33  1  0
  8 34  1  0
  8 35  1  0
  9 36  1  6
 11 37  1  0
 11 38  1  0
 12 39  1  6
 14 40  1  0
 15 41  1  0
 18 42  1  0
 19 43  1  0
 21 44  1  0
 22 45  1  0
 24 46  1  0
 27 47  1  0
 28 48  1  0
M  END
>  <smiles>  (25) 
O=C(NCC(=O)N1C[C@@H](F)C[C@H]1c1ccc(Cl)cc1)c1ccc2cc(Cl)ccc2n1

>  <score_type>  (25) 
oracle

>  <origin>  (25) 
autodockgpu

>  <m_score__min__energy>  (25) 
-8.75

>  <m_primary>  (25) 
energy

>  <rmsd>  (25) 
2.3117069536652184

>  <m_score__min__rmsd>  (25) 
2.3117069536652184

>  <meeko>  (25) 
{"free_energy": -8.3, "intermolecular_energy": -9.8, "internal_energy": -1.68, "cluster_size": 18, "cluster_id": 2, "rank_in_cluster": 2}

>  <energy>  (25) 
-8.3

>  <cluster_rmsd>  (25) 
0.13

>  <cluster>  (25) 
2

$$$$

     RDKit          3D

 48 51  0  0  0  0  0  0  0  0999 V2000
  139.2140   71.7250  220.8620 O   0  0  0  0  0  0  0  0  0  0  0  0
  139.3310   72.2000  222.0340 C   0  0  0  0  0  0  0  0  0  0  0  0
  139.1800   73.6220  222.1300 N   0  0  0  0  0  0  0  0  0  0  0  0
  138.9180   74.3450  220.9270 C   0  0  0  0  0  0  0  0  0  0  0  0
  138.5780   75.7740  221.1640 C   0  0  0  0  0  0  0  0  0  0  0  0
  137.5870   76.1470  221.8440 O   0  0  0  0  0  0  0  0  0  0  0  0
  139.4370   76.7490  220.5790 N   0  0  0  0  0  0  0  0  0  0  0  0
  139.0910   77.8500  219.6860 C   0  0  0  0  0  0  0  0  0  0  0  0
  140.2690   78.0420  218.7440 C   0  0  1  0  0  0  0  0  0  0  0  0
  140.7140   79.3500  218.7160 F   0  0  0  0  0  0  0  0  0  0  0  0
  141.2920   77.0800  219.3070 C   0  0  0  0  0  0  0  0  0  0  0  0
  140.8900   76.8710  220.7470 C   0  0  1  0  0  0  0  0  0  0  0  0
  141.2510   77.9530  221.6440 C   0  0  0  0  0  0  0  0  0  0  0  0
  141.9050   79.0590  221.0850 C   0  0  0  0  0  0  0  0  0  0  0  0
  142.2900   80.1400  221.8430 C   0  0  0  0  0  0  0  0  0  0  0  0
  142.0520   80.1900  223.1980 C   0  0  0  0  0  0  0  0  0  0  0  0
  142.5200   81.5380  224.2080 Cl  0  0  0  0  0  0  0  0  0  0  0  0
  141.4100   79.1130  223.7730 C   0  0  0  0  0  0  0  0  0  0  0  0
  141.0230   78.0210  222.9950 C   0  0  0  0  0  0  0  0  0  0  0  0
  139.5990   71.3720  223.1980 C   0  0  0  0  0  0  0  0  0  0  0  0
  139.2760   70.0350  223.1100 C   0  0  0  0  0  0  0  0  0  0  0  0
  139.4840   69.1600  224.1430 C   0  0  0  0  0  0  0  0  0  0  0  0
  140.0390   69.6710  225.3020 C   0  0  0  0  0  0  0  0  0  0  0  0
  140.2460   68.7890  226.3390 C   0  0  0  0  0  0  0  0  0  0  0  0
  140.7970   69.2610  227.5110 C   0  0  0  0  0  0  0  0  0  0  0  0
  141.0650   68.1430  228.8380 Cl  0  0  0  0  0  0  0  0  0  0  0  0
  141.1230   70.6060  227.6020 C   0  0  0  0  0  0  0  0  0  0  0  0
  140.9020   71.4760  226.5340 C   0  0  0  0  0  0  0  0  0  0  0  0
  140.3470   71.0060  225.3530 C   0  0  0  0  0  0  0  0  0  0  0  0
  140.1400   71.8630  224.3320 N   0  0  0  0  0  0  0  0  0  0  0  0
  139.2690   74.0620  223.0830 H   0  0  0  0  0  0  0  0  0  0  0  0
  139.8136   74.2998  220.2899 H   0  0  0  0  0  0  0  0  0  0  0  0
  138.0457   73.8767  220.4477 H   0  0  0  0  0  0  0  0  0  0  0  0
  138.1852   77.6021  219.1132 H   0  0  0  0  0  0  0  0  0  0  0  0
  138.8881   78.7693  220.2549 H   0  0  0  0  0  0  0  0  0  0  0  0
  140.0265   77.8419  217.6899 H   0  0  0  0  0  0  0  0  0  0  0  0
  141.2683   76.1271  218.7579 H   0  0  0  0  0  0  0  0  0  0  0  0
  142.3161   77.4718  219.2193 H   0  0  0  0  0  0  0  0  0  0  0  0
  141.3950   76.0191  221.2258 H   0  0  0  0  0  0  0  0  0  0  0  0
  142.1172   79.0627  220.0057 H   0  0  0  0  0  0  0  0  0  0  0  0
  142.7998   80.9840  221.3554 H   0  0  0  0  0  0  0  0  0  0  0  0
  141.2015   79.1149  224.8531 H   0  0  0  0  0  0  0  0  0  0  0  0
  140.5134   77.1789  223.4860 H   0  0  0  0  0  0  0  0  0  0  0  0
  138.8350   69.6568  222.1759 H   0  0  0  0  0  0  0  0  0  0  0  0
  139.2207   68.0957  224.0545 H   0  0  0  0  0  0  0  0  0  0  0  0
  139.9767   67.7277  226.2341 H   0  0  0  0  0  0  0  0  0  0  0  0
  141.5635   70.9935  228.5325 H   0  0  0  0  0  0  0  0  0  0  0  0
  141.1689   72.5389  226.6289 H   0  0  0  0  0  0  0  0  0  0  0  0
  1  2  2  0
  2  3  1  0
  3  4  1  0
  4  5  1  0
  5  6  2  0
  5  7  1  0
  7  8  1  0
  8  9  1  0
  9 10  1  0
  9 11  1  0
 11 12  1  0
 12 13  1  0
 13 14  2  0
 14 15  1  0
 15 16  2  0
 16 17  1  0
 16 18  1  0
 18 19  2  0
  2 20  1  0
 20 21  2  0
 21 22  1  0
 22 23  2  0
 23 24  1  0
 24 25  2  0
 25 26  1  0
 25 27  1  0
 27 28  2  0
 28 29  1  0
 29 30  2  0
 12  7  1  0
 19 13  1  0
 30 20  1  0
 29 23  1  0
  3 31  1  0
  4 32  1  0
  4 33  1  0
  8 34  1  0
  8 35  1  0
  9 36  1  6
 11 37  1  0
 11 38  1  0
 12 39  1  1
 14 40  1  0
 15 41  1  0
 18 42  1  0
 19 43  1  0
 21 44  1  0
 22 45  1  0
 24 46  1  0
 27 47  1  0
 28 48  1  0
M  END
>  <smiles>  (26) 
O=C(NCC(=O)N1C[C@@H](F)C[C@H]1c1ccc(Cl)cc1)c1ccc2cc(Cl)ccc2n1

>  <score_type>  (26) 
oracle

>  <origin>  (26) 
autodockgpu

>  <m_score__min__energy>  (26) 
-8.75

>  <m_primary>  (26) 
energy

>  <rmsd>  (26) 
1.6016698872245168

>  <m_score__min__rmsd>  (26) 
1.6016698872245168

>  <meeko>  (26) 
{"free_energy": -8.55, "intermolecular_energy": -10.05, "internal_energy": -1.19, "cluster_size": 23, "cluster_id": 1, "rank_in_cluster": 4}

>  <energy>  (26) 
-8.28

>  <cluster_rmsd>  (26) 
0.23

>  <cluster>  (26) 
2

$$$$

     RDKit          3D

 48 51  0  0  0  0  0  0  0  0999 V2000
  138.7170   71.6250  220.7760 O   0  0  0  0  0  0  0  0  0  0  0  0
  138.4980   72.0130  221.9660 C   0  0  0  0  0  0  0  0  0  0  0  0
  137.8150   73.2680  222.0790 N   0  0  0  0  0  0  0  0  0  0  0  0
  137.4560   73.9410  220.8720 C   0  0  0  0  0  0  0  0  0  0  0  0
  137.8530   75.3740  220.8600 C   0  0  0  0  0  0  0  0  0  0  0  0
  137.0250   76.3220  220.8500 O   0  0  0  0  0  0  0  0  0  0  0  0
  139.2490   75.6590  220.8580 N   0  0  0  0  0  0  0  0  0  0  0  0
  140.1440   75.8340  219.7190 C   0  0  0  0  0  0  0  0  0  0  0  0
  141.5050   75.3050  220.1400 C   0  0  1  0  0  0  0  0  0  0  0  0
  142.5170   76.2210  219.9240 F   0  0  0  0  0  0  0  0  0  0  0  0
  141.2900   74.9930  221.6050 C   0  0  0  0  0  0  0  0  0  0  0  0
  140.1200   75.8470  222.0260 C   0  0  1  0  0  0  0  0  0  0  0  0
  140.4360   77.2450  222.2560 C   0  0  0  0  0  0  0  0  0  0  0  0
  141.4510   77.5290  223.1800 C   0  0  0  0  0  0  0  0  0  0  0  0
  141.8330   78.8170  223.4730 C   0  0  0  0  0  0  0  0  0  0  0  0
  141.2330   79.9000  222.8690 C   0  0  0  0  0  0  0  0  0  0  0  0
  141.6780   81.5570  223.2040 Cl  0  0  0  0  0  0  0  0  0  0  0  0
  140.2300   79.6470  221.9560 C   0  0  0  0  0  0  0  0  0  0  0  0
  139.8500   78.3360  221.6660 C   0  0  0  0  0  0  0  0  0  0  0  0
  138.9070   71.2490  223.1320 C   0  0  0  0  0  0  0  0  0  0  0  0
  138.5100   69.9300  223.1940 C   0  0  0  0  0  0  0  0  0  0  0  0
  138.8360   69.1130  224.2440 C   0  0  0  0  0  0  0  0  0  0  0  0
  139.5910   69.6660  225.2630 C   0  0  0  0  0  0  0  0  0  0  0  0
  139.9180   68.8430  226.3180 C   0  0  0  0  0  0  0  0  0  0  0  0
  140.6700   69.3570  227.3520 C   0  0  0  0  0  0  0  0  0  0  0  0
  141.0900   68.3140  228.7010 Cl  0  0  0  0  0  0  0  0  0  0  0  0
  141.0700   70.6840  227.2920 C   0  0  0  0  0  0  0  0  0  0  0  0
  140.7240   71.4930  226.2100 C   0  0  0  0  0  0  0  0  0  0  0  0
  139.9680   70.9810  225.1670 C   0  0  0  0  0  0  0  0  0  0  0  0
  139.6440   71.7800  224.1290 N   0  0  0  0  0  0  0  0  0  0  0  0
  137.6120   73.6300  223.0470 H   0  0  0  0  0  0  0  0  0  0  0  0
  137.9493   73.4345  220.0293 H   0  0  0  0  0  0  0  0  0  0  0  0
  136.3596   73.9049  220.7913 H   0  0  0  0  0  0  0  0  0  0  0  0
  139.7695   75.2678  218.8535 H   0  0  0  0  0  0  0  0  0  0  0  0
  140.2067   76.8928  219.4273 H   0  0  0  0  0  0  0  0  0  0  0  0
  141.8365   74.4315  219.5595 H   0  0  0  0  0  0  0  0  0  0  0  0
  141.0576   73.9266  221.7418 H   0  0  0  0  0  0  0  0  0  0  0  0
  142.1878   75.2025  222.2051 H   0  0  0  0  0  0  0  0  0  0  0  0
  139.6944   75.5611  222.9992 H   0  0  0  0  0  0  0  0  0  0  0  0
  141.9582   76.6949  223.6869 H   0  0  0  0  0  0  0  0  0  0  0  0
  142.6355   78.9864  224.2060 H   0  0  0  0  0  0  0  0  0  0  0  0
  139.7260   80.4853  221.4528 H   0  0  0  0  0  0  0  0  0  0  0  0
  139.0465   78.1704  220.9332 H   0  0  0  0  0  0  0  0  0  0  0  0
  137.9091   69.5185  222.3696 H   0  0  0  0  0  0  0  0  0  0  0  0
  138.5115   68.0624  224.2757 H   0  0  0  0  0  0  0  0  0  0  0  0
  139.5850   67.7948  226.3348 H   0  0  0  0  0  0  0  0  0  0  0  0
  141.6703   71.1053  228.1118 H   0  0  0  0  0  0  0  0  0  0  0  0
  141.0526   72.5425  226.1841 H   0  0  0  0  0  0  0  0  0  0  0  0
  1  2  2  0
  2  3  1  0
  3  4  1  0
  4  5  1  0
  5  6  2  0
  5  7  1  0
  7  8  1  0
  8  9  1  0
  9 10  1  0
  9 11  1  0
 11 12  1  0
 12 13  1  0
 13 14  2  0
 14 15  1  0
 15 16  2  0
 16 17  1  0
 16 18  1  0
 18 19  2  0
  2 20  1  0
 20 21  2  0
 21 22  1  0
 22 23  2  0
 23 24  1  0
 24 25  2  0
 25 26  1  0
 25 27  1  0
 27 28  2  0
 28 29  1  0
 29 30  2  0
 12  7  1  0
 19 13  1  0
 30 20  1  0
 29 23  1  0
  3 31  1  0
  4 32  1  0
  4 33  1  0
  8 34  1  0
  8 35  1  0
  9 36  1  6
 11 37  1  0
 11 38  1  0
 12 39  1  1
 14 40  1  0
 15 41  1  0
 18 42  1  0
 19 43  1  0
 21 44  1  0
 22 45  1  0
 24 46  1  0
 27 47  1  0
 28 48  1  0
M  END
>  <smiles>  (27) 
O=C(NCC(=O)N1C[C@@H](F)C[C@H]1c1ccc(Cl)cc1)c1ccc2cc(Cl)ccc2n1

>  <score_type>  (27) 
oracle

>  <origin>  (27) 
autodockgpu

>  <m_score__min__energy>  (27) 
-8.75

>  <m_primary>  (27) 
energy

>  <rmsd>  (27) 
2.057832195807072

>  <m_score__min__rmsd>  (27) 
2.057832195807072

>  <meeko>  (27) 
{"free_energy": -7.91, "intermolecular_energy": -9.41, "internal_energy": -1.54, "cluster_size": 23, "cluster_id": 1, "rank_in_cluster": 19}

>  <energy>  (27) 
-8.26

>  <cluster_rmsd>  (27) 
0.24

>  <cluster>  (27) 
2

$$$$

     RDKit          3D

 48 51  0  0  0  0  0  0  0  0999 V2000
  139.7720   71.9840  220.7690 O   0  0  0  0  0  0  0  0  0  0  0  0
  139.3260   72.2630  221.9250 C   0  0  0  0  0  0  0  0  0  0  0  0
  138.5580   73.4710  222.0040 N   0  0  0  0  0  0  0  0  0  0  0  0
  138.3750   74.2220  220.8040 C   0  0  0  0  0  0  0  0  0  0  0  0
  138.2710   75.6860  221.0390 C   0  0  0  0  0  0  0  0  0  0  0  0
  137.1760   76.3040  221.0870 O   0  0  0  0  0  0  0  0  0  0  0  0
  139.4910   76.4020  221.2140 N   0  0  0  0  0  0  0  0  0  0  0  0
  140.0360   76.9920  222.4320 C   0  0  0  0  0  0  0  0  0  0  0  0
  140.7970   78.2410  222.0170 C   0  0  1  0  0  0  0  0  0  0  0  0
  142.0880   78.2590  222.5070 F   0  0  0  0  0  0  0  0  0  0  0  0
  140.7350   78.1690  220.5070 C   0  0  0  0  0  0  0  0  0  0  0  0
  140.4950   76.7140  220.1890 C   0  0  1  0  0  0  0  0  0  0  0  0
  141.6670   75.8650  220.2920 C   0  0  0  0  0  0  0  0  0  0  0  0
  142.8830   76.3900  219.8320 C   0  0  0  0  0  0  0  0  0  0  0  0
  144.0550   75.6740  219.8850 C   0  0  0  0  0  0  0  0  0  0  0  0
  144.0950   74.3950  220.3940 C   0  0  0  0  0  0  0  0  0  0  0  0
  145.5560   73.4400  220.4840 Cl  0  0  0  0  0  0  0  0  0  0  0  0
  142.9110   73.8540  220.8530 C   0  0  0  0  0  0  0  0  0  0  0  0
  141.7270   74.5900  220.7950 C   0  0  0  0  0  0  0  0  0  0  0  0
  139.5720   71.4270  223.0880 C   0  0  0  0  0  0  0  0  0  0  0  0
  139.2090   70.1000  223.0000 C   0  0  0  0  0  0  0  0  0  0  0  0
  139.3930   69.2180  224.0320 C   0  0  0  0  0  0  0  0  0  0  0  0
  139.9640   69.7130  225.1900 C   0  0  0  0  0  0  0  0  0  0  0  0
  140.1470   68.8240  226.2270 C   0  0  0  0  0  0  0  0  0  0  0  0
  140.7140   69.2790  227.3980 C   0  0  0  0  0  0  0  0  0  0  0  0
  140.9500   68.1520  228.7240 Cl  0  0  0  0  0  0  0  0  0  0  0  0
  141.0790   70.6140  227.4900 C   0  0  0  0  0  0  0  0  0  0  0  0
  140.8810   71.4900  226.4220 C   0  0  0  0  0  0  0  0  0  0  0  0
  140.3120   71.0380  225.2420 C   0  0  0  0  0  0  0  0  0  0  0  0
  140.1280   71.9010  224.2210 N   0  0  0  0  0  0  0  0  0  0  0  0
  138.1680   73.7430  222.9440 H   0  0  0  0  0  0  0  0  0  0  0  0
  139.2319   74.0346  220.1403 H   0  0  0  0  0  0  0  0  0  0  0  0
  137.4253   73.8949  220.3555 H   0  0  0  0  0  0  0  0  0  0  0  0
  139.2207   77.2575  223.1210 H   0  0  0  0  0  0  0  0  0  0  0  0
  140.6976   76.2826  222.9506 H   0  0  0  0  0  0  0  0  0  0  0  0
  140.3696   79.1713  222.4193 H   0  0  0  0  0  0  0  0  0  0  0  0
  139.9101   78.7883  220.1250 H   0  0  0  0  0  0  0  0  0  0  0  0
  141.6571   78.5449  220.0397 H   0  0  0  0  0  0  0  0  0  0  0  0
  140.1937   76.5364  219.1461 H   0  0  0  0  0  0  0  0  0  0  0  0
  142.8995   77.4078  219.4152 H   0  0  0  0  0  0  0  0  0  0  0  0
  144.9825   76.1332  219.5122 H   0  0  0  0  0  0  0  0  0  0  0  0
  142.9008   72.8352  221.2676 H   0  0  0  0  0  0  0  0  0  0  0  0
  140.8014   74.1278  221.1688 H   0  0  0  0  0  0  0  0  0  0  0  0
  138.7548   69.7359  222.0667 H   0  0  0  0  0  0  0  0  0  0  0  0
  139.0992   68.1617  223.9433 H   0  0  0  0  0  0  0  0  0  0  0  0
  139.8462   67.7711  226.1222 H   0  0  0  0  0  0  0  0  0  0  0  0
  141.5319   70.9883  228.4200 H   0  0  0  0  0  0  0  0  0  0  0  0
  141.1781   72.5448  226.5172 H   0  0  0  0  0  0  0  0  0  0  0  0
  1  2  2  0
  2  3  1  0
  3  4  1  0
  4  5  1  0
  5  6  2  0
  5  7  1  0
  7  8  1  0
  8  9  1  0
  9 10  1  0
  9 11  1  0
 11 12  1  0
 12 13  1  0
 13 14  2  0
 14 15  1  0
 15 16  2  0
 16 17  1  0
 16 18  1  0
 18 19  2  0
  2 20  1  0
 20 21  2  0
 21 22  1  0
 22 23  2  0
 23 24  1  0
 24 25  2  0
 25 26  1  0
 25 27  1  0
 27 28  2  0
 28 29  1  0
 29 30  2  0
 12  7  1  0
 19 13  1  0
 30 20  1  0
 29 23  1  0
  3 31  1  0
  4 32  1  0
  4 33  1  0
  8 34  1  0
  8 35  1  0
  9 36  1  1
 11 37  1  0
 11 38  1  0
 12 39  1  6
 14 40  1  0
 15 41  1  0
 18 42  1  0
 19 43  1  0
 21 44  1  0
 22 45  1  0
 24 46  1  0
 27 47  1  0
 28 48  1  0
M  END
>  <smiles>  (28) 
O=C(NCC(=O)N1C[C@@H](F)C[C@H]1c1ccc(Cl)cc1)c1ccc2cc(Cl)ccc2n1

>  <score_type>  (28) 
oracle

>  <origin>  (28) 
autodockgpu

>  <m_score__min__energy>  (28) 
-8.75

>  <m_primary>  (28) 
energy

>  <rmsd>  (28) 
2.373116812149776

>  <m_score__min__rmsd>  (28) 
2.373116812149776

>  <meeko>  (28) 
{"free_energy": -8.26, "intermolecular_energy": -9.75, "internal_energy": -1.68, "cluster_size": 18, "cluster_id": 2, "rank_in_cluster": 4}

>  <energy>  (28) 
-8.18

>  <cluster_rmsd>  (28) 
1.02

>  <cluster>  (28) 
2

$$$$

     RDKit          3D

 48 51  0  0  0  0  0  0  0  0999 V2000
  140.2840   72.3880  220.8250 O   0  0  0  0  0  0  0  0  0  0  0  0
  139.9260   72.7320  221.9950 C   0  0  0  0  0  0  0  0  0  0  0  0
  139.4450   74.0770  222.1110 N   0  0  0  0  0  0  0  0  0  0  0  0
  139.4160   74.8770  220.9290 C   0  0  0  0  0  0  0  0  0  0  0  0
  138.1110   75.5560  220.7120 C   0  0  0  0  0  0  0  0  0  0  0  0
  137.2230   75.1180  219.9360 O   0  0  0  0  0  0  0  0  0  0  0  0
  137.8820   76.7640  221.4330 N   0  0  0  0  0  0  0  0  0  0  0  0
  137.2510   76.9430  222.7360 C   0  0  0  0  0  0  0  0  0  0  0  0
  136.5220   78.2770  222.6960 C   0  0  1  0  0  0  0  0  0  0  0  0
  136.8640   79.0960  223.7550 F   0  0  0  0  0  0  0  0  0  0  0  0
  136.9450   78.8340  221.3540 C   0  0  0  0  0  0  0  0  0  0  0  0
  138.2360   78.1270  221.0200 C   0  0  1  0  0  0  0  0  0  0  0  0
  139.4050   78.6280  221.7200 C   0  0  0  0  0  0  0  0  0  0  0  0
  139.5730   80.0180  221.7760 C   0  0  0  0  0  0  0  0  0  0  0  0
  140.6430   80.5990  222.4160 C   0  0  0  0  0  0  0  0  0  0  0  0
  141.6090   79.8400  223.0370 C   0  0  0  0  0  0  0  0  0  0  0  0
  142.9880   80.5260  223.8630 Cl  0  0  0  0  0  0  0  0  0  0  0  0
  141.4670   78.4680  222.9960 C   0  0  0  0  0  0  0  0  0  0  0  0
  140.3770   77.8880  222.3440 C   0  0  0  0  0  0  0  0  0  0  0  0
  139.9960   71.8360  223.1370 C   0  0  0  0  0  0  0  0  0  0  0  0
  139.5240   70.5520  222.9630 C   0  0  0  0  0  0  0  0  0  0  0  0
  139.5400   69.6220  223.9670 C   0  0  0  0  0  0  0  0  0  0  0  0
  140.0530   70.0190  225.1890 C   0  0  0  0  0  0  0  0  0  0  0  0
  140.0670   69.0810  226.1970 C   0  0  0  0  0  0  0  0  0  0  0  0
  140.5720   69.4390  227.4290 C   0  0  0  0  0  0  0  0  0  0  0  0
  140.5930   68.2500  228.7200 Cl  0  0  0  0  0  0  0  0  0  0  0  0
  141.0470   70.7300  227.6070 C   0  0  0  0  0  0  0  0  0  0  0  0
  141.0200   71.6590  226.5660 C   0  0  0  0  0  0  0  0  0  0  0  0
  140.5140   71.3040  225.3250 C   0  0  0  0  0  0  0  0  0  0  0  0
  140.4960   72.2160  224.3310 N   0  0  0  0  0  0  0  0  0  0  0  0
  139.1380   74.4080  223.0630 H   0  0  0  0  0  0  0  0  0  0  0  0
  140.2004   75.6442  221.0070 H   0  0  0  0  0  0  0  0  0  0  0  0
  139.5796   74.2035  220.0748 H   0  0  0  0  0  0  0  0  0  0  0  0
  136.5373   76.1277  222.9255 H   0  0  0  0  0  0  0  0  0  0  0  0
  138.0005   76.9286  223.5410 H   0  0  0  0  0  0  0  0  0  0  0  0
  135.4305   78.1864  222.7980 H   0  0  0  0  0  0  0  0  0  0  0  0
  136.1813   78.6230  220.5910 H   0  0  0  0  0  0  0  0  0  0  0  0
  137.0708   79.9264  221.3839 H   0  0  0  0  0  0  0  0  0  0  0  0
  138.5460   78.2497  219.9718 H   0  0  0  0  0  0  0  0  0  0  0  0
  138.8258   80.6648  221.2930 H   0  0  0  0  0  0  0  0  0  0  0  0
  140.7287   81.6955  222.4319 H   0  0  0  0  0  0  0  0  0  0  0  0
  142.2179   77.8266  223.4805 H   0  0  0  0  0  0  0  0  0  0  0  0
  140.2942   76.7912  222.3301 H   0  0  0  0  0  0  0  0  0  0  0  0
  139.1198   70.2647  221.9811 H   0  0  0  0  0  0  0  0  0  0  0  0
  139.1608   68.6016  223.8089 H   0  0  0  0  0  0  0  0  0  0  0  0
  139.6825   68.0652  226.0226 H   0  0  0  0  0  0  0  0  0  0  0  0
  141.4520   71.0267  228.5857 H   0  0  0  0  0  0  0  0  0  0  0  0
  141.4019   72.6773  226.7308 H   0  0  0  0  0  0  0  0  0  0  0  0
  1  2  2  0
  2  3  1  0
  3  4  1  0
  4  5  1  0
  5  6  2  0
  5  7  1  0
  7  8  1  0
  8  9  1  0
  9 10  1  0
  9 11  1  0
 11 12  1  0
 12 13  1  0
 13 14  2  0
 14 15  1  0
 15 16  2  0
 16 17  1  0
 16 18  1  0
 18 19  2  0
  2 20  1  0
 20 21  2  0
 21 22  1  0
 22 23  2  0
 23 24  1  0
 24 25  2  0
 25 26  1  0
 25 27  1  0
 27 28  2  0
 28 29  1  0
 29 30  2  0
 12  7  1  0
 19 13  1  0
 30 20  1  0
 29 23  1  0
  3 31  1  0
  4 32  1  0
  4 33  1  0
  8 34  1  0
  8 35  1  0
  9 36  1  6
 11 37  1  0
 11 38  1  0
 12 39  1  6
 14 40  1  0
 15 41  1  0
 18 42  1  0
 19 43  1  0
 21 44  1  0
 22 45  1  0
 24 46  1  0
 27 47  1  0
 28 48  1  0
M  END
>  <smiles>  (29) 
O=C(NCC(=O)N1C[C@@H](F)C[C@H]1c1ccc(Cl)cc1)c1ccc2cc(Cl)ccc2n1

>  <score_type>  (29) 
oracle

>  <origin>  (29) 
autodockgpu

>  <m_score__min__energy>  (29) 
-8.75

>  <m_primary>  (29) 
energy

>  <rmsd>  (29) 
3.2494165089379337

>  <m_score__min__rmsd>  (29) 
3.2494165089379337

>  <meeko>  (29) 
{"free_energy": -8.14, "intermolecular_energy": -9.63, "internal_energy": -1.34, "cluster_size": 23, "cluster_id": 1, "rank_in_cluster": 15}

>  <energy>  (29) 
-8.16

>  <cluster_rmsd>  (29) 
0.55

>  <cluster>  (29) 
2

$$$$

     RDKit          3D

 48 51  0  0  0  0  0  0  0  0999 V2000
  138.7850   71.1160  221.0740 O   0  0  0  0  0  0  0  0  0  0  0  0
  138.6610   71.6880  222.2020 C   0  0  0  0  0  0  0  0  0  0  0  0
  137.9070   72.9060  222.1850 N   0  0  0  0  0  0  0  0  0  0  0  0
  137.3830   73.3460  220.9320 C   0  0  0  0  0  0  0  0  0  0  0  0
  138.4210   73.9050  220.0260 C   0  0  0  0  0  0  0  0  0  0  0  0
  138.4900   73.6310  218.8000 O   0  0  0  0  0  0  0  0  0  0  0  0
  139.3750   74.7930  220.6030 N   0  0  0  0  0  0  0  0  0  0  0  0
  139.5110   75.2070  221.9950 C   0  0  0  0  0  0  0  0  0  0  0  0
  140.0170   76.6400  221.9840 C   0  0  1  0  0  0  0  0  0  0  0  0
  141.1440   76.8080  222.7650 F   0  0  0  0  0  0  0  0  0  0  0  0
  140.2750   76.8790  220.5120 C   0  0  0  0  0  0  0  0  0  0  0  0
  140.4570   75.5060  219.9130 C   0  0  1  0  0  0  0  0  0  0  0  0
  141.7550   74.9010  220.1550 C   0  0  0  0  0  0  0  0  0  0  0  0
  142.8860   75.6950  219.9220 C   0  0  0  0  0  0  0  0  0  0  0  0
  144.1630   75.2240  220.1220 C   0  0  0  0  0  0  0  0  0  0  0  0
  144.3950   73.9410  220.5630 C   0  0  0  0  0  0  0  0  0  0  0  0
  145.9960   73.2920  220.8330 Cl  0  0  0  0  0  0  0  0  0  0  0  0
  143.2980   73.1390  220.8000 C   0  0  0  0  0  0  0  0  0  0  0  0
  142.0060   73.6260  220.5940 C   0  0  0  0  0  0  0  0  0  0  0  0
  139.2370   71.1530  223.4240 C   0  0  0  0  0  0  0  0  0  0  0  0
  140.2560   71.8750  224.0100 C   0  0  0  0  0  0  0  0  0  0  0  0
  140.8740   71.4690  225.1630 C   0  0  0  0  0  0  0  0  0  0  0  0
  140.4360   70.2870  225.7320 C   0  0  0  0  0  0  0  0  0  0  0  0
  141.0590   69.8810  226.8910 C   0  0  0  0  0  0  0  0  0  0  0  0
  140.6510   68.7080  227.4890 C   0  0  0  0  0  0  0  0  0  0  0  0
  141.4400   68.1830  228.9660 Cl  0  0  0  0  0  0  0  0  0  0  0  0
  139.6260   67.9800  226.9000 C   0  0  0  0  0  0  0  0  0  0  0  0
  139.0140   68.4170  225.7260 C   0  0  0  0  0  0  0  0  0  0  0  0
  139.4210   69.5960  225.1210 C   0  0  0  0  0  0  0  0  0  0  0  0
  138.8160   70.0020  223.9850 N   0  0  0  0  0  0  0  0  0  0  0  0
  137.7780   73.4160  223.0980 H   0  0  0  0  0  0  0  0  0  0  0  0
  136.9073   72.4895  220.4320 H   0  0  0  0  0  0  0  0  0  0  0  0
  136.6653   74.1524  221.1433 H   0  0  0  0  0  0  0  0  0  0  0  0
  138.5362   75.1543  222.5019 H   0  0  0  0  0  0  0  0  0  0  0  0
  140.2076   74.5485  222.5345 H   0  0  0  0  0  0  0  0  0  0  0  0
  139.3078   77.3601  222.4182 H   0  0  0  0  0  0  0  0  0  0  0  0
  139.4189   77.3913  220.0487 H   0  0  0  0  0  0  0  0  0  0  0  0
  141.1548   77.5186  220.3478 H   0  0  0  0  0  0  0  0  0  0  0  0
  140.4186   75.4979  218.8137 H   0  0  0  0  0  0  0  0  0  0  0  0
  142.7484   76.7274  219.5680 H   0  0  0  0  0  0  0  0  0  0  0  0
  145.0178   75.8877  219.9250 H   0  0  0  0  0  0  0  0  0  0  0  0
  143.4424   72.1076  221.1541 H   0  0  0  0  0  0  0  0  0  0  0  0
  141.1537   72.9594  220.7920 H   0  0  0  0  0  0  0  0  0  0  0  0
  140.5842   72.8108  223.5340 H   0  0  0  0  0  0  0  0  0  0  0  0
  141.6843   72.0581  225.6172 H   0  0  0  0  0  0  0  0  0  0  0  0
  141.8679   70.4821  227.3318 H   0  0  0  0  0  0  0  0  0  0  0  0
  139.2910   67.0424  227.3676 H   0  0  0  0  0  0  0  0  0  0  0  0
  138.2040   67.8231  225.2775 H   0  0  0  0  0  0  0  0  0  0  0  0
  1  2  2  0
  2  3  1  0
  3  4  1  0
  4  5  1  0
  5  6  2  0
  5  7  1  0
  7  8  1  0
  8  9  1  0
  9 10  1  0
  9 11  1  0
 11 12  1  0
 12 13  1  0
 13 14  2  0
 14 15  1  0
 15 16  2  0
 16 17  1  0
 16 18  1  0
 18 19  2  0
  2 20  1  0
 20 21  2  0
 21 22  1  0
 22 23  2  0
 23 24  1  0
 24 25  2  0
 25 26  1  0
 25 27  1  0
 27 28  2  0
 28 29  1  0
 29 30  2  0
 12  7  1  0
 19 13  1  0
 30 20  1  0
 29 23  1  0
  3 31  1  0
  4 32  1  0
  4 33  1  0
  8 34  1  0
  8 35  1  0
  9 36  1  1
 11 37  1  0
 11 38  1  0
 12 39  1  6
 14 40  1  0
 15 41  1  0
 18 42  1  0
 19 43  1  0
 21 44  1  0
 22 45  1  0
 24 46  1  0
 27 47  1  0
 28 48  1  0
M  END
>  <smiles>  (30) 
O=C(NCC(=O)N1C[C@@H](F)C[C@H]1c1ccc(Cl)cc1)c1ccc2cc(Cl)ccc2n1

>  <score_type>  (30) 
oracle

>  <origin>  (30) 
autodockgpu

>  <m_score__min__energy>  (30) 
-8.75

>  <m_primary>  (30) 
energy

>  <rmsd>  (30) 
3.009983443915927

>  <m_score__min__rmsd>  (30) 
3.009983443915927

>  <meeko>  (30) 
{"free_energy": -8.06, "intermolecular_energy": -9.55, "internal_energy": -1.61, "cluster_size": 18, "cluster_id": 2, "rank_in_cluster": 10}

>  <energy>  (30) 
-8.15

>  <cluster_rmsd>  (30) 
1.21

>  <cluster>  (30) 
2

$$$$

     RDKit          3D

 48 51  0  0  0  0  0  0  0  0999 V2000
  139.9570   71.8590  220.9150 O   0  0  0  0  0  0  0  0  0  0  0  0
  139.8320   72.3060  222.0980 C   0  0  0  0  0  0  0  0  0  0  0  0
  139.5760   73.7130  222.1920 N   0  0  0  0  0  0  0  0  0  0  0  0
  139.4890   74.4550  220.9750 C   0  0  0  0  0  0  0  0  0  0  0  0
  138.8290   75.7770  221.1410 C   0  0  0  0  0  0  0  0  0  0  0  0
  137.7970   75.9530  221.8400 O   0  0  0  0  0  0  0  0  0  0  0  0
  139.4150   76.8840  220.4620 N   0  0  0  0  0  0  0  0  0  0  0  0
  138.7540   77.9750  219.7540 C   0  0  0  0  0  0  0  0  0  0  0  0
  139.6600   78.3650  218.5970 C   0  0  1  0  0  0  0  0  0  0  0  0
  139.9340   79.7190  218.5760 F   0  0  0  0  0  0  0  0  0  0  0  0
  140.8870   77.5160  218.8480 C   0  0  0  0  0  0  0  0  0  0  0  0
  140.8450   77.1830  220.3200 C   0  0  1  0  0  0  0  0  0  0  0  0
  141.2720   78.2560  221.2000 C   0  0  0  0  0  0  0  0  0  0  0  0
  141.1390   78.0460  222.5790 C   0  0  0  0  0  0  0  0  0  0  0  0
  141.5150   78.9940  223.5020 C   0  0  0  0  0  0  0  0  0  0  0  0
  142.0430   80.2050  223.1150 C   0  0  0  0  0  0  0  0  0  0  0  0
  142.5350   81.4450  224.2440 Cl  0  0  0  0  0  0  0  0  0  0  0  0
  142.1840   80.4370  221.7620 C   0  0  0  0  0  0  0  0  0  0  0  0
  141.8000   79.4680  220.8340 C   0  0  0  0  0  0  0  0  0  0  0  0
  139.9390   71.4600  223.2750 C   0  0  0  0  0  0  0  0  0  0  0  0
  139.5100   70.1550  223.1570 C   0  0  0  0  0  0  0  0  0  0  0  0
  139.5630   69.2680  224.2000 C   0  0  0  0  0  0  0  0  0  0  0  0
  140.0700   69.7330  225.4000 C   0  0  0  0  0  0  0  0  0  0  0  0
  140.1220   68.8390  226.4460 C   0  0  0  0  0  0  0  0  0  0  0  0
  140.6200   69.2640  227.6590 C   0  0  0  0  0  0  0  0  0  0  0  0
  140.6900   68.1310  228.9970 Cl  0  0  0  0  0  0  0  0  0  0  0  0
  141.0520   70.5770  227.7800 C   0  0  0  0  0  0  0  0  0  0  0  0
  140.9870   71.4600  226.7010 C   0  0  0  0  0  0  0  0  0  0  0  0
  140.4860   71.0370  225.4800 C   0  0  0  0  0  0  0  0  0  0  0  0
  140.4320   71.9060  224.4490 N   0  0  0  0  0  0  0  0  0  0  0  0
  139.4650   74.1280  223.1530 H   0  0  0  0  0  0  0  0  0  0  0  0
  140.5070   74.6182  220.5915 H   0  0  0  0  0  0  0  0  0  0  0  0
  138.8738   73.8678  220.2774 H   0  0  0  0  0  0  0  0  0  0  0  0
  137.7771   77.6419  219.3736 H   0  0  0  0  0  0  0  0  0  0  0  0
  138.5807   78.8304  220.4235 H   0  0  0  0  0  0  0  0  0  0  0  0
  139.2116   78.1889  217.6081 H   0  0  0  0  0  0  0  0  0  0  0  0
  140.8505   76.5975  218.2438 H   0  0  0  0  0  0  0  0  0  0  0  0
  141.8133   78.0412  218.5720 H   0  0  0  0  0  0  0  0  0  0  0  0
  141.5384   76.3795  220.6093 H   0  0  0  0  0  0  0  0  0  0  0  0
  140.7207   77.0928  222.9347 H   0  0  0  0  0  0  0  0  0  0  0  0
  141.3910   78.7796  224.5737 H   0  0  0  0  0  0  0  0  0  0  0  0
  142.6021   81.3925  221.4125 H   0  0  0  0  0  0  0  0  0  0  0  0
  141.9261   79.6855  219.7631 H   0  0  0  0  0  0  0  0  0  0  0  0
  139.1107   69.8136  222.1906 H   0  0  0  0  0  0  0  0  0  0  0  0
  139.2170   68.2299  224.0878 H   0  0  0  0  0  0  0  0  0  0  0  0
  139.7724   67.8042  226.3159 H   0  0  0  0  0  0  0  0  0  0  0  0
  141.4525   70.9279  228.7425 H   0  0  0  0  0  0  0  0  0  0  0  0
  141.3351   72.4966  226.8203 H   0  0  0  0  0  0  0  0  0  0  0  0
  1  2  2  0
  2  3  1  0
  3  4  1  0
  4  5  1  0
  5  6  2  0
  5  7  1  0
  7  8  1  0
  8  9  1  0
  9 10  1  0
  9 11  1  0
 11 12  1  0
 12 13  1  0
 13 14  2  0
 14 15  1  0
 15 16  2  0
 16 17  1  0
 16 18  1  0
 18 19  2  0
  2 20  1  0
 20 21  2  0
 21 22  1  0
 22 23  2  0
 23 24  1  0
 24 25  2  0
 25 26  1  0
 25 27  1  0
 27 28  2  0
 28 29  1  0
 29 30  2  0
 12  7  1  0
 19 13  1  0
 30 20  1  0
 29 23  1  0
  3 31  1  0
  4 32  1  0
  4 33  1  0
  8 34  1  0
  8 35  1  0
  9 36  1  6
 11 37  1  0
 11 38  1  0
 12 39  1  6
 14 40  1  0
 15 41  1  0
 18 42  1  0
 19 43  1  0
 21 44  1  0
 22 45  1  0
 24 46  1  0
 27 47  1  0
 28 48  1  0
M  END
>  <smiles>  (31) 
O=C(NCC(=O)N1C[C@@H](F)C[C@H]1c1ccc(Cl)cc1)c1ccc2cc(Cl)ccc2n1

>  <score_type>  (31) 
oracle

>  <origin>  (31) 
autodockgpu

>  <m_score__min__energy>  (31) 
-8.75

>  <m_primary>  (31) 
energy

>  <rmsd>  (31) 
1.6981857448370137

>  <m_score__min__rmsd>  (31) 
1.6981857448370137

>  <meeko>  (31) 
{"free_energy": -8.43, "intermolecular_energy": -9.92, "internal_energy": -1.37, "cluster_size": 23, "cluster_id": 1, "rank_in_cluster": 5}

>  <energy>  (31) 
-8.15

>  <cluster_rmsd>  (31) 
0.97

>  <cluster>  (31) 
2

$$$$

     RDKit          3D

 48 51  0  0  0  0  0  0  0  0999 V2000
  140.5440   73.8050  222.0810 O   0  0  0  0  0  0  0  0  0  0  0  0
  139.8700   72.7320  222.1640 C   0  0  0  0  0  0  0  0  0  0  0  0
  138.9870   72.4820  221.0630 N   0  0  0  0  0  0  0  0  0  0  0  0
  138.9550   73.4420  220.0070 C   0  0  0  0  0  0  0  0  0  0  0  0
  137.6470   74.1410  219.8890 C   0  0  0  0  0  0  0  0  0  0  0  0
  136.9070   74.0590  218.8750 O   0  0  0  0  0  0  0  0  0  0  0  0
  137.2370   74.9370  220.9970 N   0  0  0  0  0  0  0  0  0  0  0  0
  136.8940   74.5120  222.3500 C   0  0  0  0  0  0  0  0  0  0  0  0
  135.8100   75.4550  222.8490 C   0  0  1  0  0  0  0  0  0  0  0  0
  136.1220   76.0140  224.0730 F   0  0  0  0  0  0  0  0  0  0  0  0
  135.7320   76.4740  221.7340 C   0  0  0  0  0  0  0  0  0  0  0  0
  137.0640   76.3950  221.0290 C   0  0  1  0  0  0  0  0  0  0  0  0
  138.1570   77.0630  221.7120 C   0  0  0  0  0  0  0  0  0  0  0  0
  139.4440   76.5430  221.5240 C   0  0  0  0  0  0  0  0  0  0  0  0
  140.5510   77.1000  222.1220 C   0  0  0  0  0  0  0  0  0  0  0  0
  140.4490   78.2020  222.9400 C   0  0  0  0  0  0  0  0  0  0  0  0
  141.8220   78.9480  223.7240 Cl  0  0  0  0  0  0  0  0  0  0  0  0
  139.1920   78.7330  223.1420 C   0  0  0  0  0  0  0  0  0  0  0  0
  138.0750   78.1610  222.5300 C   0  0  0  0  0  0  0  0  0  0  0  0
  139.9770   71.8180  223.2890 C   0  0  0  0  0  0  0  0  0  0  0  0
  139.5420   70.5240  223.0960 C   0  0  0  0  0  0  0  0  0  0  0  0
  139.5950   69.5760  224.0840 C   0  0  0  0  0  0  0  0  0  0  0  0
  140.1080   69.9680  225.3080 C   0  0  0  0  0  0  0  0  0  0  0  0
  140.1600   69.0130  226.2990 C   0  0  0  0  0  0  0  0  0  0  0  0
  140.6640   69.3650  227.5330 C   0  0  0  0  0  0  0  0  0  0  0  0
  140.7340   68.1540  228.8020 Cl  0  0  0  0  0  0  0  0  0  0  0  0
  141.1020   70.6660  227.7290 C   0  0  0  0  0  0  0  0  0  0  0  0
  141.0370   71.6110  226.7060 C   0  0  0  0  0  0  0  0  0  0  0  0
  140.5300   71.2630  225.4630 C   0  0  0  0  0  0  0  0  0  0  0  0
  140.4760   72.1910  224.4860 N   0  0  0  0  0  0  0  0  0  0  0  0
  138.4070   71.6030  221.0880 H   0  0  0  0  0  0  0  0  0  0  0  0
  139.7370   74.1929  220.1935 H   0  0  0  0  0  0  0  0  0  0  0  0
  139.1205   72.8976  219.0656 H   0  0  0  0  0  0  0  0  0  0  0  0
  136.5193   73.4779  222.3379 H   0  0  0  0  0  0  0  0  0  0  0  0
  137.7754   74.5431  223.0073 H   0  0  0  0  0  0  0  0  0  0  0  0
  134.8481   74.9579  223.0433 H   0  0  0  0  0  0  0  0  0  0  0  0
  134.9142   76.2257  221.0415 H   0  0  0  0  0  0  0  0  0  0  0  0
  135.5293   77.4854  222.1160 H   0  0  0  0  0  0  0  0  0  0  0  0
  137.0767   76.9058  220.0549 H   0  0  0  0  0  0  0  0  0  0  0  0
  139.5737   75.6620  220.8782 H   0  0  0  0  0  0  0  0  0  0  0  0
  141.5404   76.6542  221.9421 H   0  0  0  0  0  0  0  0  0  0  0  0
  139.0688   79.6134  223.7899 H   0  0  0  0  0  0  0  0  0  0  0  0
  137.0873   78.6099  222.7115 H   0  0  0  0  0  0  0  0  0  0  0  0
  139.1375   70.2422  222.1126 H   0  0  0  0  0  0  0  0  0  0  0  0
  139.2448   68.5476  223.9116 H   0  0  0  0  0  0  0  0  0  0  0  0
  139.8061   67.9889  226.1095 H   0  0  0  0  0  0  0  0  0  0  0  0
  141.5079   70.9576  228.7089 H   0  0  0  0  0  0  0  0  0  0  0  0
  141.3895   72.6374  226.8856 H   0  0  0  0  0  0  0  0  0  0  0  0
  1  2  2  0
  2  3  1  0
  3  4  1  0
  4  5  1  0
  5  6  2  0
  5  7  1  0
  7  8  1  0
  8  9  1  0
  9 10  1  0
  9 11  1  0
 11 12  1  0
 12 13  1  0
 13 14  2  0
 14 15  1  0
 15 16  2  0
 16 17  1  0
 16 18  1  0
 18 19  2  0
  2 20  1  0
 20 21  2  0
 21 22  1  0
 22 23  2  0
 23 24  1  0
 24 25  2  0
 25 26  1  0
 25 27  1  0
 27 28  2  0
 28 29  1  0
 29 30  2  0
 12  7  1  0
 19 13  1  0
 30 20  1  0
 29 23  1  0
  3 31  1  0
  4 32  1  0
  4 33  1  0
  8 34  1  0
  8 35  1  0
  9 36  1  1
 11 37  1  0
 11 38  1  0
 12 39  1  6
 14 40  1  0
 15 41  1  0
 18 42  1  0
 19 43  1  0
 21 44  1  0
 22 45  1  0
 24 46  1  0
 27 47  1  0
 28 48  1  0
M  END
>  <smiles>  (32) 
O=C(NCC(=O)N1C[C@@H](F)C[C@H]1c1ccc(Cl)cc1)c1ccc2cc(Cl)ccc2n1

>  <score_type>  (32) 
oracle

>  <origin>  (32) 
autodockgpu

>  <m_score__min__energy>  (32) 
-8.75

>  <m_primary>  (32) 
energy

>  <rmsd>  (32) 
3.4886683279092146

>  <m_score__min__rmsd>  (32) 
3.4886683279092146

>  <meeko>  (32) 
{"free_energy": -7.53, "intermolecular_energy": -9.02, "internal_energy": -1.67, "cluster_size": 2, "cluster_id": 6, "rank_in_cluster": 2}

>  <energy>  (32) 
-8.09

>  <cluster_rmsd>  (32) 
0.54

>  <cluster>  (32) 
2

$$$$

     RDKit          3D

 48 51  0  0  0  0  0  0  0  0999 V2000
  138.8260   71.0360  221.1960 O   0  0  0  0  0  0  0  0  0  0  0  0
  138.9130   71.7160  222.2660 C   0  0  0  0  0  0  0  0  0  0  0  0
  138.4560   73.0700  222.1640 N   0  0  0  0  0  0  0  0  0  0  0  0
  137.9610   73.5110  220.9000 C   0  0  0  0  0  0  0  0  0  0  0  0
  139.0140   73.5920  219.8530 C   0  0  0  0  0  0  0  0  0  0  0  0
  139.0140   72.8810  218.8150 O   0  0  0  0  0  0  0  0  0  0  0  0
  140.0650   74.5300  220.0630 N   0  0  0  0  0  0  0  0  0  0  0  0
  140.7150   75.4040  219.0930 C   0  0  0  0  0  0  0  0  0  0  0  0
  142.1660   75.5470  219.5260 C   0  0  1  0  0  0  0  0  0  0  0  0
  142.5590   76.8670  219.6280 F   0  0  0  0  0  0  0  0  0  0  0  0
  142.1770   74.8200  220.8540 C   0  0  0  0  0  0  0  0  0  0  0  0
  140.7450   74.8370  221.3280 C   0  0  1  0  0  0  0  0  0  0  0  0
  140.3050   76.0980  221.8970 C   0  0  0  0  0  0  0  0  0  0  0  0
  138.9360   76.2390  222.1640 C   0  0  0  0  0  0  0  0  0  0  0  0
  138.4120   77.3890  222.7050 C   0  0  0  0  0  0  0  0  0  0  0  0
  139.2100   78.4680  223.0120 C   0  0  0  0  0  0  0  0  0  0  0  0
  138.5970   79.9540  223.6990 Cl  0  0  0  0  0  0  0  0  0  0  0  0
  140.5610   78.3550  222.7580 C   0  0  0  0  0  0  0  0  0  0  0  0
  141.0830   77.1830  222.2090 C   0  0  0  0  0  0  0  0  0  0  0  0
  139.4360   71.1690  223.5070 C   0  0  0  0  0  0  0  0  0  0  0  0
  140.3890   71.9110  224.1720 C   0  0  0  0  0  0  0  0  0  0  0  0
  140.9520   71.4960  225.3500 C   0  0  0  0  0  0  0  0  0  0  0  0
  140.5270   70.2830  225.8610 C   0  0  0  0  0  0  0  0  0  0  0  0
  141.0950   69.8680  227.0440 C   0  0  0  0  0  0  0  0  0  0  0  0
  140.6980   68.6640  227.5850 C   0  0  0  0  0  0  0  0  0  0  0  0
  141.4170   68.1280  229.0940 Cl  0  0  0  0  0  0  0  0  0  0  0  0
  139.7390   67.9160  226.9180 C   0  0  0  0  0  0  0  0  0  0  0  0
  139.1810   68.3630  225.7200 C   0  0  0  0  0  0  0  0  0  0  0  0
  139.5780   69.5720  225.1710 C   0  0  0  0  0  0  0  0  0  0  0  0
  139.0270   69.9870  224.0120 N   0  0  0  0  0  0  0  0  0  0  0  0
  138.5080   73.6720  223.0270 H   0  0  0  0  0  0  0  0  0  0  0  0
  137.1866   72.8063  220.5629 H   0  0  0  0  0  0  0  0  0  0  0  0
  137.5629   74.5266  221.0417 H   0  0  0  0  0  0  0  0  0  0  0  0
  140.6626   74.9587  218.0885 H   0  0  0  0  0  0  0  0  0  0  0  0
  140.2185   76.3848  219.0536 H   0  0  0  0  0  0  0  0  0  0  0  0
  142.8844   75.1330  218.8031 H   0  0  0  0  0  0  0  0  0  0  0  0
  142.5278   73.7855  220.7242 H   0  0  0  0  0  0  0  0  0  0  0  0
  142.8545   75.2970  221.5775 H   0  0  0  0  0  0  0  0  0  0  0  0
  140.5500   74.1469  222.1621 H   0  0  0  0  0  0  0  0  0  0  0  0
  138.2596   75.4028  221.9333 H   0  0  0  0  0  0  0  0  0  0  0  0
  137.3305   77.4484  222.8970 H   0  0  0  0  0  0  0  0  0  0  0  0
  141.2321   79.1951  222.9899 H   0  0  0  0  0  0  0  0  0  0  0  0
  142.1649   77.1273  222.0184 H   0  0  0  0  0  0  0  0  0  0  0  0
  140.7089   72.8712  223.7410 H   0  0  0  0  0  0  0  0  0  0  0  0
  141.7101   72.1020  225.8677 H   0  0  0  0  0  0  0  0  0  0  0  0
  141.8522   70.4861  227.5487 H   0  0  0  0  0  0  0  0  0  0  0  0
  139.4130   66.9542  227.3407 H   0  0  0  0  0  0  0  0  0  0  0  0
  138.4221   67.7527  225.2086 H   0  0  0  0  0  0  0  0  0  0  0  0
  1  2  2  0
  2  3  1  0
  3  4  1  0
  4  5  1  0
  5  6  2  0
  5  7  1  0
  7  8  1  0
  8  9  1  0
  9 10  1  0
  9 11  1  0
 11 12  1  0
 12 13  1  0
 13 14  2  0
 14 15  1  0
 15 16  2  0
 16 17  1  0
 16 18  1  0
 18 19  2  0
  2 20  1  0
 20 21  2  0
 21 22  1  0
 22 23  2  0
 23 24  1  0
 24 25  2  0
 25 26  1  0
 25 27  1  0
 27 28  2  0
 28 29  1  0
 29 30  2  0
 12  7  1  0
 19 13  1  0
 30 20  1  0
 29 23  1  0
  3 31  1  0
  4 32  1  0
  4 33  1  0
  8 34  1  0
  8 35  1  0
  9 36  1  6
 11 37  1  0
 11 38  1  0
 12 39  1  1
 14 40  1  0
 15 41  1  0
 18 42  1  0
 19 43  1  0
 21 44  1  0
 22 45  1  0
 24 46  1  0
 27 47  1  0
 28 48  1  0
M  END
>  <smiles>  (33) 
O=C(NCC(=O)N1C[C@@H](F)C[C@H]1c1ccc(Cl)cc1)c1ccc2cc(Cl)ccc2n1

>  <score_type>  (33) 
oracle

>  <origin>  (33) 
autodockgpu

>  <m_score__min__energy>  (33) 
-8.75

>  <m_primary>  (33) 
energy

>  <rmsd>  (33) 
2.9052675349459296

>  <m_score__min__rmsd>  (33) 
2.9052675349459296

>  <meeko>  (33) 
{"free_energy": -7.79, "intermolecular_energy": -9.28, "internal_energy": -1.51, "cluster_size": 23, "cluster_id": 1, "rank_in_cluster": 22}

>  <energy>  (33) 
-8.06

>  <cluster_rmsd>  (33) 
1.24

>  <cluster>  (33) 
2

$$$$

     RDKit          3D

 48 51  0  0  0  0  0  0  0  0999 V2000
  139.7230   71.9390  220.7760 O   0  0  0  0  0  0  0  0  0  0  0  0
  139.3180   72.2460  221.9410 C   0  0  0  0  0  0  0  0  0  0  0  0
  138.5910   73.4780  222.0260 N   0  0  0  0  0  0  0  0  0  0  0  0
  138.3980   74.2200  220.8210 C   0  0  0  0  0  0  0  0  0  0  0  0
  138.2960   75.6860  221.0460 C   0  0  0  0  0  0  0  0  0  0  0  0
  137.2010   76.3050  221.0970 O   0  0  0  0  0  0  0  0  0  0  0  0
  139.5170   76.4030  221.2080 N   0  0  0  0  0  0  0  0  0  0  0  0
  140.0690   77.0020  222.4180 C   0  0  0  0  0  0  0  0  0  0  0  0
  140.8280   78.2480  221.9890 C   0  0  1  0  0  0  0  0  0  0  0  0
  142.1220   78.2700  222.4710 F   0  0  0  0  0  0  0  0  0  0  0  0
  140.7580   78.1630  220.4800 C   0  0  0  0  0  0  0  0  0  0  0  0
  140.5150   76.7050  220.1750 C   0  0  1  0  0  0  0  0  0  0  0  0
  141.6880   75.8570  220.2790 C   0  0  0  0  0  0  0  0  0  0  0  0
  142.9010   76.3790  219.8110 C   0  0  0  0  0  0  0  0  0  0  0  0
  144.0740   75.6620  219.8630 C   0  0  0  0  0  0  0  0  0  0  0  0
  144.1150   74.3870  220.3810 C   0  0  0  0  0  0  0  0  0  0  0  0
  145.5760   73.4320  220.4710 Cl  0  0  0  0  0  0  0  0  0  0  0  0
  142.9340   73.8500  220.8480 C   0  0  0  0  0  0  0  0  0  0  0  0
  141.7490   74.5850  220.7900 C   0  0  0  0  0  0  0  0  0  0  0  0
  139.5700   71.4160  223.1070 C   0  0  0  0  0  0  0  0  0  0  0  0
  139.2210   70.0850  223.0220 C   0  0  0  0  0  0  0  0  0  0  0  0
  139.4110   69.2080  224.0580 C   0  0  0  0  0  0  0  0  0  0  0  0
  139.9740   69.7130  225.2160 C   0  0  0  0  0  0  0  0  0  0  0  0
  140.1640   68.8300  226.2560 C   0  0  0  0  0  0  0  0  0  0  0  0
  140.7230   69.2940  227.4270 C   0  0  0  0  0  0  0  0  0  0  0  0
  140.9680   68.1740  228.7570 Cl  0  0  0  0  0  0  0  0  0  0  0  0
  141.0740   70.6330  227.5150 C   0  0  0  0  0  0  0  0  0  0  0  0
  140.8700   71.5040  226.4440 C   0  0  0  0  0  0  0  0  0  0  0  0
  140.3080   71.0420  225.2640 C   0  0  0  0  0  0  0  0  0  0  0  0
  140.1190   71.8990  224.2400 N   0  0  0  0  0  0  0  0  0  0  0  0
  138.2350   73.7730  222.9720 H   0  0  0  0  0  0  0  0  0  0  0  0
  139.2494   74.0274  220.1517 H   0  0  0  0  0  0  0  0  0  0  0  0
  137.4448   73.8894  220.3826 H   0  0  0  0  0  0  0  0  0  0  0  0
  139.2577   77.2729  223.1097 H   0  0  0  0  0  0  0  0  0  0  0  0
  140.7335   76.2964  222.9381 H   0  0  0  0  0  0  0  0  0  0  0  0
  140.4028   79.1813  222.3866 H   0  0  0  0  0  0  0  0  0  0  0  0
  139.9316   78.7798  220.0971 H   0  0  0  0  0  0  0  0  0  0  0  0
  141.6781   78.5339  220.0049 H   0  0  0  0  0  0  0  0  0  0  0  0
  140.2073   76.5179  219.1356 H   0  0  0  0  0  0  0  0  0  0  0  0
  142.9160   77.3945  219.3885 H   0  0  0  0  0  0  0  0  0  0  0  0
  145.0000   76.1176  219.4822 H   0  0  0  0  0  0  0  0  0  0  0  0
  142.9258   72.8341  221.2697 H   0  0  0  0  0  0  0  0  0  0  0  0
  140.8248   74.1251  221.1700 H   0  0  0  0  0  0  0  0  0  0  0  0
  138.7736   69.7132  222.0884 H   0  0  0  0  0  0  0  0  0  0  0  0
  139.1280   68.1485  223.9722 H   0  0  0  0  0  0  0  0  0  0  0  0
  139.8748   67.7737  226.1536 H   0  0  0  0  0  0  0  0  0  0  0  0
  141.5208   71.0148  228.4448 H   0  0  0  0  0  0  0  0  0  0  0  0
  141.1564   72.5620  226.5365 H   0  0  0  0  0  0  0  0  0  0  0  0
  1  2  2  0
  2  3  1  0
  3  4  1  0
  4  5  1  0
  5  6  2  0
  5  7  1  0
  7  8  1  0
  8  9  1  0
  9 10  1  0
  9 11  1  0
 11 12  1  0
 12 13  1  0
 13 14  2  0
 14 15  1  0
 15 16  2  0
 16 17  1  0
 16 18  1  0
 18 19  2  0
  2 20  1  0
 20 21  2  0
 21 22  1  0
 22 23  2  0
 23 24  1  0
 24 25  2  0
 25 26  1  0
 25 27  1  0
 27 28  2  0
 28 29  1  0
 29 30  2  0
 12  7  1  0
 19 13  1  0
 30 20  1  0
 29 23  1  0
  3 31  1  0
  4 32  1  0
  4 33  1  0
  8 34  1  0
  8 35  1  0
  9 36  1  1
 11 37  1  0
 11 38  1  0
 12 39  1  6
 14 40  1  0
 15 41  1  0
 18 42  1  0
 19 43  1  0
 21 44  1  0
 22 45  1  0
 24 46  1  0
 27 47  1  0
 28 48  1  0
M  END
>  <smiles>  (34) 
O=C(NCC(=O)N1C[C@@H](F)C[C@H]1c1ccc(Cl)cc1)c1ccc2cc(Cl)ccc2n1

>  <score_type>  (34) 
oracle

>  <origin>  (34) 
autodockgpu

>  <m_score__min__energy>  (34) 
-8.75

>  <m_primary>  (34) 
energy

>  <rmsd>  (34) 
2.364002244997755

>  <m_score__min__rmsd>  (34) 
2.364002244997755

>  <meeko>  (34) 
{"free_energy": -8.28, "intermolecular_energy": -9.77, "internal_energy": -1.67, "cluster_size": 18, "cluster_id": 2, "rank_in_cluster": 3}

>  <energy>  (34) 
-8.04

>  <cluster_rmsd>  (34) 
0.96

>  <cluster>  (34) 
2

$$$$

     RDKit          3D

 48 51  0  0  0  0  0  0  0  0999 V2000
  139.5800   73.9010  222.3110 O   0  0  0  0  0  0  0  0  0  0  0  0
  139.9090   72.6800  222.1890 C   0  0  0  0  0  0  0  0  0  0  0  0
  140.1780   72.2540  220.8480 N   0  0  0  0  0  0  0  0  0  0  0  0
  140.0530   73.2220  219.8060 C   0  0  0  0  0  0  0  0  0  0  0  0
  141.3390   73.5130  219.1180 C   0  0  0  0  0  0  0  0  0  0  0  0
  142.1610   72.6220  218.7810 O   0  0  0  0  0  0  0  0  0  0  0  0
  141.6300   74.8800  218.8390 N   0  0  0  0  0  0  0  0  0  0  0  0
  141.0530   75.7450  217.8160 C   0  0  0  0  0  0  0  0  0  0  0  0
  142.1490   76.7020  217.3750 C   0  0  1  0  0  0  0  0  0  0  0  0
  141.7520   78.0230  217.4350 F   0  0  0  0  0  0  0  0  0  0  0  0
  143.2690   76.3730  218.3380 C   0  0  0  0  0  0  0  0  0  0  0  0
  142.5940   75.7430  219.5310 C   0  0  1  0  0  0  0  0  0  0  0  0
  141.9460   76.6800  220.4310 C   0  0  0  0  0  0  0  0  0  0  0  0
  141.1210   76.1450  221.4300 C   0  0  0  0  0  0  0  0  0  0  0  0
  140.4610   76.9400  222.3370 C   0  0  0  0  0  0  0  0  0  0  0  0
  140.5780   78.3120  222.3090 C   0  0  0  0  0  0  0  0  0  0  0  0
  139.7610   79.3700  223.4350 Cl  0  0  0  0  0  0  0  0  0  0  0  0
  141.3840   78.8640  221.3350 C   0  0  0  0  0  0  0  0  0  0  0  0
  142.0500   78.0480  220.4190 C   0  0  0  0  0  0  0  0  0  0  0  0
  140.0080   71.7730  223.3210 C   0  0  0  0  0  0  0  0  0  0  0  0
  139.5630   70.4810  223.1360 C   0  0  0  0  0  0  0  0  0  0  0  0
  139.6070   69.5390  224.1300 C   0  0  0  0  0  0  0  0  0  0  0  0
  140.1200   69.9350  225.3520 C   0  0  0  0  0  0  0  0  0  0  0  0
  140.1630   68.9870  226.3500 C   0  0  0  0  0  0  0  0  0  0  0  0
  140.6670   69.3430  227.5820 C   0  0  0  0  0  0  0  0  0  0  0  0
  140.7250   68.1400  228.8600 Cl  0  0  0  0  0  0  0  0  0  0  0  0
  141.1140   70.6430  227.7710 C   0  0  0  0  0  0  0  0  0  0  0  0
  141.0590   71.5810  226.7410 C   0  0  0  0  0  0  0  0  0  0  0  0
  140.5520   71.2280  225.5000 C   0  0  0  0  0  0  0  0  0  0  0  0
  140.5070   72.1510  224.5160 N   0  0  0  0  0  0  0  0  0  0  0  0
  140.4550   71.2490  220.6980 H   0  0  0  0  0  0  0  0  0  0  0  0
  139.3364   72.8439  219.0620 H   0  0  0  0  0  0  0  0  0  0  0  0
  139.7117   74.1591  220.2702 H   0  0  0  0  0  0  0  0  0  0  0  0
  140.7103   75.1431  216.9614 H   0  0  0  0  0  0  0  0  0  0  0  0
  140.1858   76.2952  218.2099 H   0  0  0  0  0  0  0  0  0  0  0  0
  142.4406   76.5826  216.3211 H   0  0  0  0  0  0  0  0  0  0  0  0
  143.9775   75.6678  217.8789 H   0  0  0  0  0  0  0  0  0  0  0  0
  143.8463   77.2667  218.6173 H   0  0  0  0  0  0  0  0  0  0  0  0
  143.2919   75.2377  220.2148 H   0  0  0  0  0  0  0  0  0  0  0  0
  140.9976   75.0536  221.4902 H   0  0  0  0  0  0  0  0  0  0  0  0
  139.8255   76.4699  223.1019 H   0  0  0  0  0  0  0  0  0  0  0  0
  141.5028   79.9562  221.2797 H   0  0  0  0  0  0  0  0  0  0  0  0
  142.6848   78.5216  219.6556 H   0  0  0  0  0  0  0  0  0  0  0  0
  139.1576   70.1960  222.1539 H   0  0  0  0  0  0  0  0  0  0  0  0
  139.2497   68.5121  223.9634 H   0  0  0  0  0  0  0  0  0  0  0  0
  139.8016   67.9643  226.1670 H   0  0  0  0  0  0  0  0  0  0  0  0
  141.5187   70.9385  228.7502 H   0  0  0  0  0  0  0  0  0  0  0  0
  141.4195   72.6058  226.9138 H   0  0  0  0  0  0  0  0  0  0  0  0
  1  2  2  0
  2  3  1  0
  3  4  1  0
  4  5  1  0
  5  6  2  0
  5  7  1  0
  7  8  1  0
  8  9  1  0
  9 10  1  0
  9 11  1  0
 11 12  1  0
 12 13  1  0
 13 14  2  0
 14 15  1  0
 15 16  2  0
 16 17  1  0
 16 18  1  0
 18 19  2  0
  2 20  1  0
 20 21  2  0
 21 22  1  0
 22 23  2  0
 23 24  1  0
 24 25  2  0
 25 26  1  0
 25 27  1  0
 27 28  2  0
 28 29  1  0
 29 30  2  0
 12  7  1  0
 19 13  1  0
 30 20  1  0
 29 23  1  0
  3 31  1  0
  4 32  1  0
  4 33  1  0
  8 34  1  0
  8 35  1  0
  9 36  1  6
 11 37  1  0
 11 38  1  0
 12 39  1  1
 14 40  1  0
 15 41  1  0
 18 42  1  0
 19 43  1  0
 21 44  1  0
 22 45  1  0
 24 46  1  0
 27 47  1  0
 28 48  1  0
M  END
>  <smiles>  (35) 
O=C(NCC(=O)N1C[C@@H](F)C[C@H]1c1ccc(Cl)cc1)c1ccc2cc(Cl)ccc2n1

>  <score_type>  (35) 
oracle

>  <origin>  (35) 
autodockgpu

>  <m_score__min__energy>  (35) 
-8.75

>  <m_primary>  (35) 
energy

>  <rmsd>  (35) 
2.08997521472981

>  <m_score__min__rmsd>  (35) 
2.08997521472981

>  <meeko>  (35) 
{"free_energy": -7.72, "intermolecular_energy": -9.21, "internal_energy": -1.5, "cluster_size": 23, "cluster_id": 1, "rank_in_cluster": 23}

>  <energy>  (35) 
-8.01

>  <cluster_rmsd>  (35) 
1.22

>  <cluster>  (35) 
2

$$$$

     RDKit          3D

 48 51  0  0  0  0  0  0  0  0999 V2000
  140.4820   73.5640  220.4880 O   0  0  0  0  0  0  0  0  0  0  0  0
  139.9250   73.6150  221.6280 C   0  0  0  0  0  0  0  0  0  0  0  0
  139.4390   74.9090  222.0090 N   0  0  0  0  0  0  0  0  0  0  0  0
  139.6260   75.9850  221.0900 C   0  0  0  0  0  0  0  0  0  0  0  0
  140.9890   76.5770  221.1490 C   0  0  0  0  0  0  0  0  0  0  0  0
  142.0240   75.9710  220.7690 O   0  0  0  0  0  0  0  0  0  0  0  0
  141.0990   77.9000  221.6690 N   0  0  0  0  0  0  0  0  0  0  0  0
  141.4210   79.1340  220.9610 C   0  0  0  0  0  0  0  0  0  0  0  0
  142.1970   80.0110  221.9310 C   0  0  1  0  0  0  0  0  0  0  0  0
  141.6570   81.2780  222.0440 F   0  0  0  0  0  0  0  0  0  0  0  0
  142.1170   79.2160  223.2170 C   0  0  0  0  0  0  0  0  0  0  0  0
  140.9090   78.3270  223.0600 C   0  0  1  0  0  0  0  0  0  0  0  0
  139.6330   78.9900  223.2620 C   0  0  0  0  0  0  0  0  0  0  0  0
  139.6490   80.2230  223.9280 C   0  0  0  0  0  0  0  0  0  0  0  0
  138.4990   80.9380  224.1690 C   0  0  0  0  0  0  0  0  0  0  0  0
  137.2660   80.4740  223.7680 C   0  0  0  0  0  0  0  0  0  0  0  0
  135.7740   81.3400  224.0500 Cl  0  0  0  0  0  0  0  0  0  0  0  0
  137.2230   79.2620  223.1110 C   0  0  0  0  0  0  0  0  0  0  0  0
  138.3960   78.5450  222.8700 C   0  0  0  0  0  0  0  0  0  0  0  0
  139.7850   72.4540  222.4910 C   0  0  0  0  0  0  0  0  0  0  0  0
  138.8270   71.5230  222.1480 C   0  0  0  0  0  0  0  0  0  0  0  0
  138.6060   70.3900  222.8850 C   0  0  0  0  0  0  0  0  0  0  0  0
  139.3910   70.2060  224.0100 C   0  0  0  0  0  0  0  0  0  0  0  0
  139.1660   69.0670  224.7500 C   0  0  0  0  0  0  0  0  0  0  0  0
  139.9270   68.8470  225.8780 C   0  0  0  0  0  0  0  0  0  0  0  0
  139.6480   67.3970  226.8270 Cl  0  0  0  0  0  0  0  0  0  0  0  0
  140.8920   69.7820  226.2250 C   0  0  0  0  0  0  0  0  0  0  0  0
  141.0960   70.9280  225.4550 C   0  0  0  0  0  0  0  0  0  0  0  0
  140.3330   71.1530  224.3200 C   0  0  0  0  0  0  0  0  0  0  0  0
  140.5460   72.2670  223.5890 N   0  0  0  0  0  0  0  0  0  0  0  0
  138.9690   75.0000  222.9470 H   0  0  0  0  0  0  0  0  0  0  0  0
  139.4524   75.6085  220.0711 H   0  0  0  0  0  0  0  0  0  0  0  0
  138.9140   76.7769  221.3653 H   0  0  0  0  0  0  0  0  0  0  0  0
  142.0360   78.9129  220.0762 H   0  0  0  0  0  0  0  0  0  0  0  0
  140.5070   79.6405  220.6175 H   0  0  0  0  0  0  0  0  0  0  0  0
  143.2308   80.2115  221.6132 H   0  0  0  0  0  0  0  0  0  0  0  0
  143.0256   78.6111  223.3533 H   0  0  0  0  0  0  0  0  0  0  0  0
  142.0343   79.8688  224.0985 H   0  0  0  0  0  0  0  0  0  0  0  0
  140.8539   77.5238  223.8096 H   0  0  0  0  0  0  0  0  0  0  0  0
  140.6117   80.6319  224.2687 H   0  0  0  0  0  0  0  0  0  0  0  0
  138.5657   81.9023  224.6940 H   0  0  0  0  0  0  0  0  0  0  0  0
  136.2570   78.8575  222.7744 H   0  0  0  0  0  0  0  0  0  0  0  0
  138.3255   77.5819  222.3432 H   0  0  0  0  0  0  0  0  0  0  0  0
  138.2176   71.6970  221.2489 H   0  0  0  0  0  0  0  0  0  0  0  0
  137.8378   69.6579  222.5954 H   0  0  0  0  0  0  0  0  0  0  0  0
  138.3930   68.3457  224.4466 H   0  0  0  0  0  0  0  0  0  0  0  0
  141.5066   69.6171  227.1223 H   0  0  0  0  0  0  0  0  0  0  0  0
  141.8659   71.6560  225.7503 H   0  0  0  0  0  0  0  0  0  0  0  0
  1  2  2  0
  2  3  1  0
  3  4  1  0
  4  5  1  0
  5  6  2  0
  5  7  1  0
  7  8  1  0
  8  9  1  0
  9 10  1  0
  9 11  1  0
 11 12  1  0
 12 13  1  0
 13 14  2  0
 14 15  1  0
 15 16  2  0
 16 17  1  0
 16 18  1  0
 18 19  2  0
  2 20  1  0
 20 21  2  0
 21 22  1  0
 22 23  2  0
 23 24  1  0
 24 25  2  0
 25 26  1  0
 25 27  1  0
 27 28  2  0
 28 29  1  0
 29 30  2  0
 12  7  1  0
 19 13  1  0
 30 20  1  0
 29 23  1  0
  3 31  1  0
  4 32  1  0
  4 33  1  0
  8 34  1  0
  8 35  1  0
  9 36  1  6
 11 37  1  0
 11 38  1  0
 12 39  1  1
 14 40  1  0
 15 41  1  0
 18 42  1  0
 19 43  1  0
 21 44  1  0
 22 45  1  0
 24 46  1  0
 27 47  1  0
 28 48  1  0
M  END
>  <smiles>  (36) 
O=C(NCC(=O)N1C[C@@H](F)C[C@H]1c1ccc(Cl)cc1)c1ccc2cc(Cl)ccc2n1

>  <score_type>  (36) 
oracle

>  <origin>  (36) 
autodockgpu

>  <m_score__min__energy>  (36) 
-8.75

>  <m_primary>  (36) 
energy

>  <rmsd>  (36) 
3.6043493056541798

>  <m_score__min__rmsd>  (36) 
3.6043493056541798

>  <meeko>  (36) 
{"free_energy": -8.14, "intermolecular_energy": -9.63, "internal_energy": -1.25, "cluster_size": 2, "cluster_id": 5, "rank_in_cluster": 1}

>  <energy>  (36) 
-7.98

>  <cluster_rmsd>  (36) 
0.57

>  <cluster>  (36) 
2

$$$$

     RDKit          3D

 48 51  0  0  0  0  0  0  0  0999 V2000
  141.8980   73.6350  220.9660 O   0  0  0  0  0  0  0  0  0  0  0  0
  141.0640   74.4090  221.5330 C   0  0  0  0  0  0  0  0  0  0  0  0
  139.9940   73.7490  222.2200 N   0  0  0  0  0  0  0  0  0  0  0  0
  139.9710   72.3220  222.2010 C   0  0  0  0  0  0  0  0  0  0  0  0
  138.6790   71.7500  222.6630 C   0  0  0  0  0  0  0  0  0  0  0  0
  137.6130   72.4150  222.7350 O   0  0  0  0  0  0  0  0  0  0  0  0
  138.6760   70.3750  223.0390 N   0  0  0  0  0  0  0  0  0  0  0  0
  139.3820   69.2590  222.4200 C   0  0  0  0  0  0  0  0  0  0  0  0
  138.4990   68.0320  222.5800 C   0  0  1  0  0  0  0  0  0  0  0  0
  139.1720   66.9680  223.1490 F   0  0  0  0  0  0  0  0  0  0  0  0
  137.3760   68.5560  223.4480 C   0  0  0  0  0  0  0  0  0  0  0  0
  137.9480   69.7590  224.1550 C   0  0  1  0  0  0  0  0  0  0  0  0
  138.8190   69.4520  225.2760 C   0  0  0  0  0  0  0  0  0  0  0  0
  138.7890   68.1410  225.7710 C   0  0  0  0  0  0  0  0  0  0  0  0
  139.5740   67.7410  226.8260 C   0  0  0  0  0  0  0  0  0  0  0  0
  140.4340   68.6140  227.4550 C   0  0  0  0  0  0  0  0  0  0  0  0
  141.4520   68.1590  228.8010 Cl  0  0  0  0  0  0  0  0  0  0  0  0
  140.4810   69.9110  226.9870 C   0  0  0  0  0  0  0  0  0  0  0  0
  139.6800   70.3070  225.9150 C   0  0  0  0  0  0  0  0  0  0  0  0
  141.1790   75.8570  221.4920 C   0  0  0  0  0  0  0  0  0  0  0  0
  141.7090   76.4160  220.3480 C   0  0  0  0  0  0  0  0  0  0  0  0
  141.8640   77.7690  220.1970 C   0  0  0  0  0  0  0  0  0  0  0  0
  141.4670   78.5720  221.2500 C   0  0  0  0  0  0  0  0  0  0  0  0
  141.6240   79.9320  221.0960 C   0  0  0  0  0  0  0  0  0  0  0  0
  141.2400   80.7660  222.1240 C   0  0  0  0  0  0  0  0  0  0  0  0
  141.4380   82.4990  221.9340 Cl  0  0  0  0  0  0  0  0  0  0  0  0
  140.7070   80.2050  223.2750 C   0  0  0  0  0  0  0  0  0  0  0  0
  140.5590   78.8230  223.4030 C   0  0  0  0  0  0  0  0  0  0  0  0
  140.9450   77.9800  222.3720 C   0  0  0  0  0  0  0  0  0  0  0  0
  140.7940   76.6470  222.5140 N   0  0  0  0  0  0  0  0  0  0  0  0
  139.2780   74.3500  222.7050 H   0  0  0  0  0  0  0  0  0  0  0  0
  140.1546   71.9833  221.1707 H   0  0  0  0  0  0  0  0  0  0  0  0
  140.7493   71.9737  222.8959 H   0  0  0  0  0  0  0  0  0  0  0  0
  139.5530   69.4651  221.3531 H   0  0  0  0  0  0  0  0  0  0  0  0
  140.3620   69.1024  222.8944 H   0  0  0  0  0  0  0  0  0  0  0  0
  138.1456   67.6161  221.6250 H   0  0  0  0  0  0  0  0  0  0  0  0
  136.5141   68.8464  222.8293 H   0  0  0  0  0  0  0  0  0  0  0  0
  137.0168   67.7958  224.1572 H   0  0  0  0  0  0  0  0  0  0  0  0
  137.1861   70.3859  224.6413 H   0  0  0  0  0  0  0  0  0  0  0  0
  138.1160   67.4092  225.3003 H   0  0  0  0  0  0  0  0  0  0  0  0
  139.5141   66.6999  227.1760 H   0  0  0  0  0  0  0  0  0  0  0  0
  141.1551   70.6387  227.4625 H   0  0  0  0  0  0  0  0  0  0  0  0
  139.7419   71.3490  225.5679 H   0  0  0  0  0  0  0  0  0  0  0  0
  142.0183   75.7519  219.5275 H   0  0  0  0  0  0  0  0  0  0  0  0
  142.2866   78.1982  219.2766 H   0  0  0  0  0  0  0  0  0  0  0  0
  142.0483   80.3450  220.1690 H   0  0  0  0  0  0  0  0  0  0  0  0
  140.3955   80.8607  224.1014 H   0  0  0  0  0  0  0  0  0  0  0  0
  140.1343   78.4008  224.3257 H   0  0  0  0  0  0  0  0  0  0  0  0
  1  2  2  0
  2  3  1  0
  3  4  1  0
  4  5  1  0
  5  6  2  0
  5  7  1  0
  7  8  1  0
  8  9  1  0
  9 10  1  0
  9 11  1  0
 11 12  1  0
 12 13  1  0
 13 14  2  0
 14 15  1  0
 15 16  2  0
 16 17  1  0
 16 18  1  0
 18 19  2  0
  2 20  1  0
 20 21  2  0
 21 22  1  0
 22 23  2  0
 23 24  1  0
 24 25  2  0
 25 26  1  0
 25 27  1  0
 27 28  2  0
 28 29  1  0
 29 30  2  0
 12  7  1  0
 19 13  1  0
 30 20  1  0
 29 23  1  0
  3 31  1  0
  4 32  1  0
  4 33  1  0
  8 34  1  0
  8 35  1  0
  9 36  1  6
 11 37  1  0
 11 38  1  0
 12 39  1  1
 14 40  1  0
 15 41  1  0
 18 42  1  0
 19 43  1  0
 21 44  1  0
 22 45  1  0
 24 46  1  0
 27 47  1  0
 28 48  1  0
M  END
>  <smiles>  (37) 
O=C(NCC(=O)N1C[C@@H](F)C[C@H]1c1ccc(Cl)cc1)c1ccc2cc(Cl)ccc2n1

>  <score_type>  (37) 
oracle

>  <origin>  (37) 
autodockgpu

>  <m_score__min__energy>  (37) 
-8.75

>  <m_primary>  (37) 
energy

>  <rmsd>  (37) 
8.488151904849078

>  <m_score__min__rmsd>  (37) 
8.488151904849078

>  <meeko>  (37) 
{"free_energy": -8.17, "intermolecular_energy": -9.66, "internal_energy": -1.46, "cluster_size": 2, "cluster_id": 4, "rank_in_cluster": 1}

>  <energy>  (37) 
-7.95

>  <cluster_rmsd>  (37) 
0.61

>  <cluster>  (37) 
2

$$$$

     RDKit          3D

 48 51  0  0  0  0  0  0  0  0999 V2000
  140.1030   72.2470  220.9750 O   0  0  0  0  0  0  0  0  0  0  0  0
  139.5090   72.4050  222.0870 C   0  0  0  0  0  0  0  0  0  0  0  0
  138.5880   73.5020  222.1330 N   0  0  0  0  0  0  0  0  0  0  0  0
  138.4330   74.2890  220.9520 C   0  0  0  0  0  0  0  0  0  0  0  0
  138.3300   75.7470  221.2280 C   0  0  0  0  0  0  0  0  0  0  0  0
  137.2410   76.3320  221.4630 O   0  0  0  0  0  0  0  0  0  0  0  0
  139.5420   76.4950  221.2190 N   0  0  0  0  0  0  0  0  0  0  0  0
  140.1650   77.2370  222.3100 C   0  0  0  0  0  0  0  0  0  0  0  0
  140.8620   78.4370  221.6890 C   0  0  1  0  0  0  0  0  0  0  0  0
  142.1870   78.5320  222.0700 F   0  0  0  0  0  0  0  0  0  0  0  0
  140.6880   78.1790  220.2080 C   0  0  0  0  0  0  0  0  0  0  0  0
  140.4580   76.6920  220.0890 C   0  0  1  0  0  0  0  0  0  0  0  0
  141.6540   75.8780  220.2020 C   0  0  0  0  0  0  0  0  0  0  0  0
  142.8550   76.4340  219.7400 C   0  0  0  0  0  0  0  0  0  0  0  0
  144.0480   75.7520  219.8020 C   0  0  0  0  0  0  0  0  0  0  0  0
  144.1220   74.4800  220.3240 C   0  0  0  0  0  0  0  0  0  0  0  0
  145.6100   73.5690  220.4260 Cl  0  0  0  0  0  0  0  0  0  0  0  0
  142.9540   73.9100  220.7850 C   0  0  0  0  0  0  0  0  0  0  0  0
  141.7490   74.6110  220.7180 C   0  0  0  0  0  0  0  0  0  0  0  0
  139.7400   71.5430  223.2340 C   0  0  0  0  0  0  0  0  0  0  0  0
  139.3730   70.2190  223.1130 C   0  0  0  0  0  0  0  0  0  0  0  0
  139.5440   69.3150  224.1270 C   0  0  0  0  0  0  0  0  0  0  0  0
  140.1060   69.7820  225.3020 C   0  0  0  0  0  0  0  0  0  0  0  0
  140.2750   68.8700  226.3210 C   0  0  0  0  0  0  0  0  0  0  0  0
  140.8320   69.2970  227.5070 C   0  0  0  0  0  0  0  0  0  0  0  0
  141.0520   68.1420  228.8100 Cl  0  0  0  0  0  0  0  0  0  0  0  0
  141.2010   70.6290  227.6310 C   0  0  0  0  0  0  0  0  0  0  0  0
  141.0170   71.5290  226.5810 C   0  0  0  0  0  0  0  0  0  0  0  0
  140.4570   71.1040  225.3860 C   0  0  0  0  0  0  0  0  0  0  0  0
  140.2870   71.9900  224.3820 N   0  0  0  0  0  0  0  0  0  0  0  0
  138.0720   73.6720  223.0350 H   0  0  0  0  0  0  0  0  0  0  0  0
  139.3028   74.1172  220.3009 H   0  0  0  0  0  0  0  0  0  0  0  0
  137.4915   73.9797  220.4746 H   0  0  0  0  0  0  0  0  0  0  0  0
  139.3990   77.5728  223.0245 H   0  0  0  0  0  0  0  0  0  0  0  0
  140.8814   76.6055  222.8559 H   0  0  0  0  0  0  0  0  0  0  0  0
  140.4442   79.4032  222.0083 H   0  0  0  0  0  0  0  0  0  0  0  0
  139.8227   78.7354  219.8187 H   0  0  0  0  0  0  0  0  0  0  0  0
  141.5633   78.5070  219.6282 H   0  0  0  0  0  0  0  0  0  0  0  0
  140.0825   76.3831  219.1023 H   0  0  0  0  0  0  0  0  0  0  0  0
  142.8431   77.4482  219.3142 H   0  0  0  0  0  0  0  0  0  0  0  0
  144.9630   76.2334  219.4263 H   0  0  0  0  0  0  0  0  0  0  0  0
  142.9722   72.8951  221.2088 H   0  0  0  0  0  0  0  0  0  0  0  0
  140.8364   74.1264  221.0953 H   0  0  0  0  0  0  0  0  0  0  0  0
  138.9267   69.8769  222.1676 H   0  0  0  0  0  0  0  0  0  0  0  0
  139.2472   68.2620  224.0124 H   0  0  0  0  0  0  0  0  0  0  0  0
  139.9710   67.8209  226.1903 H   0  0  0  0  0  0  0  0  0  0  0  0
  141.6462   70.9812  228.5732 H   0  0  0  0  0  0  0  0  0  0  0  0
  141.3175   72.5803  226.7017 H   0  0  0  0  0  0  0  0  0  0  0  0
  1  2  2  0
  2  3  1  0
  3  4  1  0
  4  5  1  0
  5  6  2  0
  5  7  1  0
  7  8  1  0
  8  9  1  0
  9 10  1  0
  9 11  1  0
 11 12  1  0
 12 13  1  0
 13 14  2  0
 14 15  1  0
 15 16  2  0
 16 17  1  0
 16 18  1  0
 18 19  2  0
  2 20  1  0
 20 21  2  0
 21 22  1  0
 22 23  2  0
 23 24  1  0
 24 25  2  0
 25 26  1  0
 25 27  1  0
 27 28  2  0
 28 29  1  0
 29 30  2  0
 12  7  1  0
 19 13  1  0
 30 20  1  0
 29 23  1  0
  3 31  1  0
  4 32  1  0
  4 33  1  0
  8 34  1  0
  8 35  1  0
  9 36  1  1
 11 37  1  0
 11 38  1  0
 12 39  1  6
 14 40  1  0
 15 41  1  0
 18 42  1  0
 19 43  1  0
 21 44  1  0
 22 45  1  0
 24 46  1  0
 27 47  1  0
 28 48  1  0
M  END
>  <smiles>  (38) 
O=C(NCC(=O)N1C[C@@H](F)C[C@H]1c1ccc(Cl)cc1)c1ccc2cc(Cl)ccc2n1

>  <score_type>  (38) 
oracle

>  <origin>  (38) 
autodockgpu

>  <m_score__min__energy>  (38) 
-8.75

>  <m_primary>  (38) 
energy

>  <rmsd>  (38) 
2.358764912184791

>  <m_score__min__rmsd>  (38) 
2.358764912184791

>  <meeko>  (38) 
{"free_energy": -8.32, "intermolecular_energy": -9.81, "internal_energy": -1.62, "cluster_size": 18, "cluster_id": 2, "rank_in_cluster": 1}

>  <energy>  (38) 
-7.95

>  <cluster_rmsd>  (38) 
1.07

>  <cluster>  (38) 
2

$$$$

     RDKit          3D

 48 51  0  0  0  0  0  0  0  0999 V2000
  140.0900   72.2940  220.7860 O   0  0  0  0  0  0  0  0  0  0  0  0
  139.9140   72.6880  221.9820 C   0  0  0  0  0  0  0  0  0  0  0  0
  139.6170   74.0830  222.1240 N   0  0  0  0  0  0  0  0  0  0  0  0
  139.5490   74.8720  220.9370 C   0  0  0  0  0  0  0  0  0  0  0  0
  138.2190   75.5040  220.7280 C   0  0  0  0  0  0  0  0  0  0  0  0
  137.3360   75.0260  219.9700 O   0  0  0  0  0  0  0  0  0  0  0  0
  137.9580   76.7130  221.4360 N   0  0  0  0  0  0  0  0  0  0  0  0
  137.3180   76.8910  222.7340 C   0  0  0  0  0  0  0  0  0  0  0  0
  136.5590   78.2070  222.6780 C   0  0  1  0  0  0  0  0  0  0  0  0
  136.8760   79.0440  223.7290 F   0  0  0  0  0  0  0  0  0  0  0  0
  136.9740   78.7600  221.3320 C   0  0  0  0  0  0  0  0  0  0  0  0
  138.2820   78.0800  221.0100 C   0  0  1  0  0  0  0  0  0  0  0  0
  139.4360   78.6150  221.7100 C   0  0  0  0  0  0  0  0  0  0  0  0
  139.5480   80.0100  221.7920 C   0  0  0  0  0  0  0  0  0  0  0  0
  140.5980   80.6220  222.4340 C   0  0  0  0  0  0  0  0  0  0  0  0
  141.6010   79.8920  223.0310 C   0  0  0  0  0  0  0  0  0  0  0  0
  142.9580   80.6180  223.8580 Cl  0  0  0  0  0  0  0  0  0  0  0  0
  141.5150   78.5170  222.9640 C   0  0  0  0  0  0  0  0  0  0  0  0
  140.4440   77.9050  222.3100 C   0  0  0  0  0  0  0  0  0  0  0  0
  140.0070   71.7970  223.1270 C   0  0  0  0  0  0  0  0  0  0  0  0
  139.5540   70.5060  222.9610 C   0  0  0  0  0  0  0  0  0  0  0  0
  139.5920   69.5790  223.9690 C   0  0  0  0  0  0  0  0  0  0  0  0
  140.1070   69.9900  225.1850 C   0  0  0  0  0  0  0  0  0  0  0  0
  140.1430   69.0570  226.1970 C   0  0  0  0  0  0  0  0  0  0  0  0
  140.6500   69.4270  227.4240 C   0  0  0  0  0  0  0  0  0  0  0  0
  140.7000   68.2430  228.7190 Cl  0  0  0  0  0  0  0  0  0  0  0  0
  141.1050   70.7270  227.5930 C   0  0  0  0  0  0  0  0  0  0  0  0
  141.0560   71.6500  226.5490 C   0  0  0  0  0  0  0  0  0  0  0  0
  140.5470   71.2820  225.3130 C   0  0  0  0  0  0  0  0  0  0  0  0
  140.5080   72.1900  224.3160 N   0  0  0  0  0  0  0  0  0  0  0  0
  139.4640   74.4550  223.0970 H   0  0  0  0  0  0  0  0  0  0  0  0
  140.3071   75.6664  221.0015 H   0  0  0  0  0  0  0  0  0  0  0  0
  139.7275   74.1980  220.0862 H   0  0  0  0  0  0  0  0  0  0  0  0
  136.6223   76.0616  222.9292 H   0  0  0  0  0  0  0  0  0  0  0  0
  138.0646   76.9022  223.5418 H   0  0  0  0  0  0  0  0  0  0  0  0
  135.4696   78.0918  222.7772 H   0  0  0  0  0  0  0  0  0  0  0  0
  136.2183   78.5236  220.5684 H   0  0  0  0  0  0  0  0  0  0  0  0
  137.0743   79.8553  221.3512 H   0  0  0  0  0  0  0  0  0  0  0  0
  138.5933   78.1992  219.9617 H   0  0  0  0  0  0  0  0  0  0  0  0
  138.7707   80.6348  221.3277 H   0  0  0  0  0  0  0  0  0  0  0  0
  140.6378   81.7206  222.4717 H   0  0  0  0  0  0  0  0  0  0  0  0
  142.2961   77.8979  223.4294 H   0  0  0  0  0  0  0  0  0  0  0  0
  140.4073   76.8062  222.2745 H   0  0  0  0  0  0  0  0  0  0  0  0
  139.1470   70.2090  221.9832 H   0  0  0  0  0  0  0  0  0  0  0  0
  139.2285   68.5519  223.8177 H   0  0  0  0  0  0  0  0  0  0  0  0
  139.7737   68.0345  226.0292 H   0  0  0  0  0  0  0  0  0  0  0  0
  141.5115   71.0348  228.5677 H   0  0  0  0  0  0  0  0  0  0  0  0
  141.4229   72.6749  226.7068 H   0  0  0  0  0  0  0  0  0  0  0  0
  1  2  2  0
  2  3  1  0
  3  4  1  0
  4  5  1  0
  5  6  2  0
  5  7  1  0
  7  8  1  0
  8  9  1  0
  9 10  1  0
  9 11  1  0
 11 12  1  0
 12 13  1  0
 13 14  2  0
 14 15  1  0
 15 16  2  0
 16 17  1  0
 16 18  1  0
 18 19  2  0
  2 20  1  0
 20 21  2  0
 21 22  1  0
 22 23  2  0
 23 24  1  0
 24 25  2  0
 25 26  1  0
 25 27  1  0
 27 28  2  0
 28 29  1  0
 29 30  2  0
 12  7  1  0
 19 13  1  0
 30 20  1  0
 29 23  1  0
  3 31  1  0
  4 32  1  0
  4 33  1  0
  8 34  1  0
  8 35  1  0
  9 36  1  6
 11 37  1  0
 11 38  1  0
 12 39  1  6
 14 40  1  0
 15 41  1  0
 18 42  1  0
 19 43  1  0
 21 44  1  0
 22 45  1  0
 24 46  1  0
 27 47  1  0
 28 48  1  0
M  END
>  <smiles>  (39) 
O=C(NCC(=O)N1C[C@@H](F)C[C@H]1c1ccc(Cl)cc1)c1ccc2cc(Cl)ccc2n1

>  <score_type>  (39) 
oracle

>  <origin>  (39) 
autodockgpu

>  <m_score__min__energy>  (39) 
-8.75

>  <m_primary>  (39) 
energy

>  <rmsd>  (39) 
3.221262383968627

>  <m_score__min__rmsd>  (39) 
3.221262383968627

>  <meeko>  (39) 
{"free_energy": -8.13, "intermolecular_energy": -9.62, "internal_energy": -1.39, "cluster_size": 23, "cluster_id": 1, "rank_in_cluster": 16}

>  <energy>  (39) 
-7.91

>  <cluster_rmsd>  (39) 
1.24

>  <cluster>  (39) 
2

$$$$

     RDKit          3D

 48 51  0  0  0  0  0  0  0  0999 V2000
  139.3980   70.9750  220.9710 O   0  0  0  0  0  0  0  0  0  0  0  0
  139.2220   71.5960  222.0650 C   0  0  0  0  0  0  0  0  0  0  0  0
  138.5580   72.8600  221.9460 N   0  0  0  0  0  0  0  0  0  0  0  0
  138.1680   73.2860  220.6400 C   0  0  0  0  0  0  0  0  0  0  0  0
  138.1280   74.7650  220.4930 C   0  0  0  0  0  0  0  0  0  0  0  0
  137.1730   75.3820  219.9550 O   0  0  0  0  0  0  0  0  0  0  0  0
  139.2440   75.4960  220.9940 N   0  0  0  0  0  0  0  0  0  0  0  0
  139.5540   75.8550  222.3740 C   0  0  0  0  0  0  0  0  0  0  0  0
  140.2570   77.2020  222.3330 C   0  0  1  0  0  0  0  0  0  0  0  0
  141.4580   77.1910  223.0160 F   0  0  0  0  0  0  0  0  0  0  0  0
  140.4220   77.4350  220.8470 C   0  0  0  0  0  0  0  0  0  0  0  0
  140.3560   76.0630  220.2210 C   0  0  1  0  0  0  0  0  0  0  0  0
  141.5690   75.2760  220.3450 C   0  0  0  0  0  0  0  0  0  0  0  0
  142.7770   75.9020  220.0080 C   0  0  0  0  0  0  0  0  0  0  0  0
  143.9860   75.2510  220.0910 C   0  0  0  0  0  0  0  0  0  0  0  0
  144.0700   73.9420  220.5110 C   0  0  0  0  0  0  0  0  0  0  0  0
  145.5780   73.0670  220.6330 Cl  0  0  0  0  0  0  0  0  0  0  0  0
  142.8950   73.3030  220.8470 C   0  0  0  0  0  0  0  0  0  0  0  0
  141.6740   73.9730  220.7600 C   0  0  0  0  0  0  0  0  0  0  0  0
  139.6600   71.0720  223.3480 C   0  0  0  0  0  0  0  0  0  0  0  0
  140.4670   71.8830  224.1190 C   0  0  0  0  0  0  0  0  0  0  0  0
  140.9390   71.4950  225.3450 C   0  0  0  0  0  0  0  0  0  0  0  0
  140.5760   70.2380  225.7930 C   0  0  0  0  0  0  0  0  0  0  0  0
  141.0530   69.8500  227.0260 C   0  0  0  0  0  0  0  0  0  0  0  0
  140.7130   68.6040  227.5070 C   0  0  0  0  0  0  0  0  0  0  0  0
  141.3170   68.1030  229.0770 Cl  0  0  0  0  0  0  0  0  0  0  0  0
  139.9030   67.7870  226.7330 C   0  0  0  0  0  0  0  0  0  0  0  0
  139.4340   68.2080  225.4880 C   0  0  0  0  0  0  0  0  0  0  0  0
  139.7740   69.4600  224.9990 C   0  0  0  0  0  0  0  0  0  0  0  0
  139.3110   69.8480  223.7920 N   0  0  0  0  0  0  0  0  0  0  0  0
  138.3900   73.4120  222.8280 H   0  0  0  0  0  0  0  0  0  0  0  0
  138.8863   72.8817  219.9116 H   0  0  0  0  0  0  0  0  0  0  0  0
  137.1480   72.9129  220.4659 H   0  0  0  0  0  0  0  0  0  0  0  0
  138.6277   75.9296  222.9626 H   0  0  0  0  0  0  0  0  0  0  0  0
  140.1916   75.0925  222.8453 H   0  0  0  0  0  0  0  0  0  0  0  0
  139.6969   78.0058  222.8333 H   0  0  0  0  0  0  0  0  0  0  0  0
  139.6116   78.0729  220.4643 H   0  0  0  0  0  0  0  0  0  0  0  0
  141.3667   77.9480  220.6139 H   0  0  0  0  0  0  0  0  0  0  0  0
  140.2261   76.0838  219.1289 H   0  0  0  0  0  0  0  0  0  0  0  0
  142.7576   76.9474  219.6662 H   0  0  0  0  0  0  0  0  0  0  0  0
  144.9059   75.7877  219.8159 H   0  0  0  0  0  0  0  0  0  0  0  0
  142.9205   72.2569  221.1863 H   0  0  0  0  0  0  0  0  0  0  0  0
  140.7564   73.4329  221.0361 H   0  0  0  0  0  0  0  0  0  0  0  0
  140.7412   72.8768  223.7355 H   0  0  0  0  0  0  0  0  0  0  0  0
  141.5797   72.1554  225.9478 H   0  0  0  0  0  0  0  0  0  0  0  0
  141.6934   70.5224  227.6157 H   0  0  0  0  0  0  0  0  0  0  0  0
  139.6255   66.7903  227.1067 H   0  0  0  0  0  0  0  0  0  0  0  0
  138.7915   67.5434  224.8918 H   0  0  0  0  0  0  0  0  0  0  0  0
  1  2  2  0
  2  3  1  0
  3  4  1  0
  4  5  1  0
  5  6  2  0
  5  7  1  0
  7  8  1  0
  8  9  1  0
  9 10  1  0
  9 11  1  0
 11 12  1  0
 12 13  1  0
 13 14  2  0
 14 15  1  0
 15 16  2  0
 16 17  1  0
 16 18  1  0
 18 19  2  0
  2 20  1  0
 20 21  2  0
 21 22  1  0
 22 23  2  0
 23 24  1  0
 24 25  2  0
 25 26  1  0
 25 27  1  0
 27 28  2  0
 28 29  1  0
 29 30  2  0
 12  7  1  0
 19 13  1  0
 30 20  1  0
 29 23  1  0
  3 31  1  0
  4 32  1  0
  4 33  1  0
  8 34  1  0
  8 35  1  0
  9 36  1  1
 11 37  1  0
 11 38  1  0
 12 39  1  6
 14 40  1  0
 15 41  1  0
 18 42  1  0
 19 43  1  0
 21 44  1  0
 22 45  1  0
 24 46  1  0
 27 47  1  0
 28 48  1  0
M  END
>  <smiles>  (40) 
O=C(NCC(=O)N1C[C@@H](F)C[C@H]1c1ccc(Cl)cc1)c1ccc2cc(Cl)ccc2n1

>  <score_type>  (40) 
oracle

>  <origin>  (40) 
autodockgpu

>  <m_score__min__energy>  (40) 
-8.75

>  <m_primary>  (40) 
energy

>  <rmsd>  (40) 
3.134286104663857

>  <m_score__min__rmsd>  (40) 
3.134286104663857

>  <meeko>  (40) 
{"free_energy": -8.18, "intermolecular_energy": -9.67, "internal_energy": -1.71, "cluster_size": 18, "cluster_id": 2, "rank_in_cluster": 5}

>  <energy>  (40) 
-7.9

>  <cluster_rmsd>  (40) 
1.15

>  <cluster>  (40) 
2

$$$$

     RDKit          3D

 48 51  0  0  0  0  0  0  0  0999 V2000
  139.1700   71.3310  221.1760 O   0  0  0  0  0  0  0  0  0  0  0  0
  138.8020   71.7130  222.3310 C   0  0  0  0  0  0  0  0  0  0  0  0
  137.8010   72.7390  222.3410 N   0  0  0  0  0  0  0  0  0  0  0  0
  137.3270   73.2170  221.0830 C   0  0  0  0  0  0  0  0  0  0  0  0
  137.5550   74.6730  220.8850 C   0  0  0  0  0  0  0  0  0  0  0  0
  136.6240   75.5070  220.7380 O   0  0  0  0  0  0  0  0  0  0  0  0
  138.9080   75.1200  220.8650 N   0  0  0  0  0  0  0  0  0  0  0  0
  139.7540   75.4170  219.7140 C   0  0  0  0  0  0  0  0  0  0  0  0
  141.1760   75.0440  220.1020 C   0  0  1  0  0  0  0  0  0  0  0  0
  142.0690   76.0750  219.8860 F   0  0  0  0  0  0  0  0  0  0  0  0
  141.0270   74.6850  221.5640 C   0  0  0  0  0  0  0  0  0  0  0  0
  139.7730   75.3890  222.0210 C   0  0  1  0  0  0  0  0  0  0  0  0
  139.9290   76.8110  222.2720 C   0  0  0  0  0  0  0  0  0  0  0  0
  141.1660   77.2430  222.7690 C   0  0  0  0  0  0  0  0  0  0  0  0
  141.4220   78.5670  223.0390 C   0  0  0  0  0  0  0  0  0  0  0  0
  140.4700   79.5400  222.8340 C   0  0  0  0  0  0  0  0  0  0  0  0
  140.7420   81.2350  223.1620 Cl  0  0  0  0  0  0  0  0  0  0  0  0
  139.2440   79.1410  222.3460 C   0  0  0  0  0  0  0  0  0  0  0  0
  138.9940   77.7940  222.0740 C   0  0  0  0  0  0  0  0  0  0  0  0
  139.3510   71.1580  223.5570 C   0  0  0  0  0  0  0  0  0  0  0  0
  140.3210   71.8940  224.2050 C   0  0  0  0  0  0  0  0  0  0  0  0
  140.9100   71.4700  225.3670 C   0  0  0  0  0  0  0  0  0  0  0  0
  140.4930   70.2550  225.8800 C   0  0  0  0  0  0  0  0  0  0  0  0
  141.0860   69.8320  227.0480 C   0  0  0  0  0  0  0  0  0  0  0  0
  140.6980   68.6260  227.5910 C   0  0  0  0  0  0  0  0  0  0  0  0
  141.4490   68.0800  229.0800 Cl  0  0  0  0  0  0  0  0  0  0  0  0
  139.7220   67.8840  226.9410 C   0  0  0  0  0  0  0  0  0  0  0  0
  139.1390   68.3390  225.7580 C   0  0  0  0  0  0  0  0  0  0  0  0
  139.5260   69.5510  225.2080 C   0  0  0  0  0  0  0  0  0  0  0  0
  138.9500   69.9740  224.0640 N   0  0  0  0  0  0  0  0  0  0  0  0
  137.4650   73.0870  223.2770 H   0  0  0  0  0  0  0  0  0  0  0  0
  137.8470   72.6699  220.2828 H   0  0  0  0  0  0  0  0  0  0  0  0
  136.2399   73.0505  221.0590 H   0  0  0  0  0  0  0  0  0  0  0  0
  139.4315   74.8249  218.8449 H   0  0  0  0  0  0  0  0  0  0  0  0
  139.6869   76.4803  219.4404 H   0  0  0  0  0  0  0  0  0  0  0  0
  141.5961   74.2250  219.4998 H   0  0  0  0  0  0  0  0  0  0  0  0
  140.9236   73.5966  221.6849 H   0  0  0  0  0  0  0  0  0  0  0  0
  141.9054   74.9886  222.1524 H   0  0  0  0  0  0  0  0  0  0  0  0
  139.4017   75.0390  222.9955 H   0  0  0  0  0  0  0  0  0  0  0  0
  141.9569   76.4999  222.9488 H   0  0  0  0  0  0  0  0  0  0  0  0
  142.4099   78.8550  223.4276 H   0  0  0  0  0  0  0  0  0  0  0  0
  138.4569   79.8889  222.1695 H   0  0  0  0  0  0  0  0  0  0  0  0
  138.0053   77.5099  221.6845 H   0  0  0  0  0  0  0  0  0  0  0  0
  140.6330   72.8564  223.7731 H   0  0  0  0  0  0  0  0  0  0  0  0
  141.6819   72.0704  225.8707 H   0  0  0  0  0  0  0  0  0  0  0  0
  141.8557   70.4454  227.5392 H   0  0  0  0  0  0  0  0  0  0  0  0
  139.4026   66.9208  227.3656 H   0  0  0  0  0  0  0  0  0  0  0  0
  138.3684   67.7329  225.2593 H   0  0  0  0  0  0  0  0  0  0  0  0
  1  2  2  0
  2  3  1  0
  3  4  1  0
  4  5  1  0
  5  6  2  0
  5  7  1  0
  7  8  1  0
  8  9  1  0
  9 10  1  0
  9 11  1  0
 11 12  1  0
 12 13  1  0
 13 14  2  0
 14 15  1  0
 15 16  2  0
 16 17  1  0
 16 18  1  0
 18 19  2  0
  2 20  1  0
 20 21  2  0
 21 22  1  0
 22 23  2  0
 23 24  1  0
 24 25  2  0
 25 26  1  0
 25 27  1  0
 27 28  2  0
 28 29  1  0
 29 30  2  0
 12  7  1  0
 19 13  1  0
 30 20  1  0
 29 23  1  0
  3 31  1  0
  4 32  1  0
  4 33  1  0
  8 34  1  0
  8 35  1  0
  9 36  1  6
 11 37  1  0
 11 38  1  0
 12 39  1  1
 14 40  1  0
 15 41  1  0
 18 42  1  0
 19 43  1  0
 21 44  1  0
 22 45  1  0
 24 46  1  0
 27 47  1  0
 28 48  1  0
M  END
>  <smiles>  (41) 
O=C(NCC(=O)N1C[C@@H](F)C[C@H]1c1ccc(Cl)cc1)c1ccc2cc(Cl)ccc2n1

>  <score_type>  (41) 
oracle

>  <origin>  (41) 
autodockgpu

>  <m_score__min__energy>  (41) 
-8.75

>  <m_primary>  (41) 
energy

>  <rmsd>  (41) 
2.991539320760984

>  <m_score__min__rmsd>  (41) 
2.991539320760984

>  <meeko>  (41) 
{"free_energy": -7.84, "intermolecular_energy": -9.34, "internal_energy": -1.64, "cluster_size": 23, "cluster_id": 1, "rank_in_cluster": 21}

>  <energy>  (41) 
-7.78

>  <cluster_rmsd>  (41) 
0.81

>  <cluster>  (41) 
2

$$$$

     RDKit          3D

 48 51  0  0  0  0  0  0  0  0999 V2000
  140.6170   72.4630  220.9920 O   0  0  0  0  0  0  0  0  0  0  0  0
  140.0650   72.7300  222.1050 C   0  0  0  0  0  0  0  0  0  0  0  0
  139.4050   74.0010  222.1660 N   0  0  0  0  0  0  0  0  0  0  0  0
  139.4320   74.8200  220.9980 C   0  0  0  0  0  0  0  0  0  0  0  0
  140.7070   75.5680  220.8350 C   0  0  0  0  0  0  0  0  0  0  0  0
  141.8410   75.0290  220.9140 O   0  0  0  0  0  0  0  0  0  0  0  0
  140.6090   76.9670  220.5790 N   0  0  0  0  0  0  0  0  0  0  0  0
  139.8520   77.6530  219.5380 C   0  0  0  0  0  0  0  0  0  0  0  0
  140.6500   78.8890  219.1520 C   0  0  1  0  0  0  0  0  0  0  0  0
  139.8920   80.0430  219.2050 F   0  0  0  0  0  0  0  0  0  0  0  0
  141.7770   78.8720  220.1620 C   0  0  0  0  0  0  0  0  0  0  0  0
  141.2610   78.0540  221.3200 C   0  0  1  0  0  0  0  0  0  0  0  0
  140.3390   78.7520  222.1970 C   0  0  0  0  0  0  0  0  0  0  0  0
  140.7340   80.0080  222.6760 C   0  0  0  0  0  0  0  0  0  0  0  0
  139.9370   80.7560  223.5110 C   0  0  0  0  0  0  0  0  0  0  0  0
  138.7020   80.3050  223.9200 C   0  0  0  0  0  0  0  0  0  0  0  0
  137.6500   81.2130  224.9800 Cl  0  0  0  0  0  0  0  0  0  0  0  0
  138.2900   79.0710  223.4630 C   0  0  0  0  0  0  0  0  0  0  0  0
  139.1060   78.3200  222.6160 C   0  0  0  0  0  0  0  0  0  0  0  0
  140.0970   71.8210  223.2390 C   0  0  0  0  0  0  0  0  0  0  0  0
  139.5910   70.5530  223.0460 C   0  0  0  0  0  0  0  0  0  0  0  0
  139.5690   69.6120  224.0410 C   0  0  0  0  0  0  0  0  0  0  0  0
  140.0780   69.9840  225.2730 C   0  0  0  0  0  0  0  0  0  0  0  0
  140.0540   69.0360  226.2720 C   0  0  0  0  0  0  0  0  0  0  0  0
  140.5520   69.3680  227.5130 C   0  0  0  0  0  0  0  0  0  0  0  0
  140.5250   68.1660  228.7920 Cl  0  0  0  0  0  0  0  0  0  0  0  0
  141.0610   70.6440  227.7100 C   0  0  0  0  0  0  0  0  0  0  0  0
  141.0720   71.5830  226.6780 C   0  0  0  0  0  0  0  0  0  0  0  0
  140.5720   71.2540  225.4280 C   0  0  0  0  0  0  0  0  0  0  0  0
  140.5910   72.1760  224.4430 N   0  0  0  0  0  0  0  0  0  0  0  0
  138.9330   74.2660  223.0700 H   0  0  0  0  0  0  0  0  0  0  0  0
  139.2891   74.1770  220.1170 H   0  0  0  0  0  0  0  0  0  0  0  0
  138.6283   75.5638  221.1022 H   0  0  0  0  0  0  0  0  0  0  0  0
  139.7278   76.9953  218.6651 H   0  0  0  0  0  0  0  0  0  0  0  0
  138.8495   77.9284  219.8973 H   0  0  0  0  0  0  0  0  0  0  0  0
  141.0064   78.8767  218.1114 H   0  0  0  0  0  0  0  0  0  0  0  0
  142.6745   78.4052  219.7301 H   0  0  0  0  0  0  0  0  0  0  0  0
  142.0647   79.8872  220.4728 H   0  0  0  0  0  0  0  0  0  0  0  0
  142.0452   77.7533  222.0304 H   0  0  0  0  0  0  0  0  0  0  0  0
  141.7130   80.4088  222.3746 H   0  0  0  0  0  0  0  0  0  0  0  0
  140.2942   81.7362  223.8598 H   0  0  0  0  0  0  0  0  0  0  0  0
  137.3101   78.6754  223.7686 H   0  0  0  0  0  0  0  0  0  0  0  0
  138.7455   77.3402  222.2696 H   0  0  0  0  0  0  0  0  0  0  0  0
  139.1903   70.2874  222.0566 H   0  0  0  0  0  0  0  0  0  0  0  0
  139.1642   68.6039  223.8683 H   0  0  0  0  0  0  0  0  0  0  0  0
  139.6449   68.0326  226.0826 H   0  0  0  0  0  0  0  0  0  0  0  0
  141.4625   70.9197  228.6963 H   0  0  0  0  0  0  0  0  0  0  0  0
  141.4794   72.5889  226.8573 H   0  0  0  0  0  0  0  0  0  0  0  0
  1  2  2  0
  2  3  1  0
  3  4  1  0
  4  5  1  0
  5  6  2  0
  5  7  1  0
  7  8  1  0
  8  9  1  0
  9 10  1  0
  9 11  1  0
 11 12  1  0
 12 13  1  0
 13 14  2  0
 14 15  1  0
 15 16  2  0
 16 17  1  0
 16 18  1  0
 18 19  2  0
  2 20  1  0
 20 21  2  0
 21 22  1  0
 22 23  2  0
 23 24  1  0
 24 25  2  0
 25 26  1  0
 25 27  1  0
 27 28  2  0
 28 29  1  0
 29 30  2  0
 12  7  1  0
 19 13  1  0
 30 20  1  0
 29 23  1  0
  3 31  1  0
  4 32  1  0
  4 33  1  0
  8 34  1  0
  8 35  1  0
  9 36  1  6
 11 37  1  0
 11 38  1  0
 12 39  1  1
 14 40  1  0
 15 41  1  0
 18 42  1  0
 19 43  1  0
 21 44  1  0
 22 45  1  0
 24 46  1  0
 27 47  1  0
 28 48  1  0
M  END
>  <smiles>  (42) 
O=C(NCC(=O)N1C[C@@H](F)C[C@H]1c1ccc(Cl)cc1)c1ccc2cc(Cl)ccc2n1

>  <score_type>  (42) 
oracle

>  <origin>  (42) 
autodockgpu

>  <m_score__min__energy>  (42) 
-8.75

>  <m_primary>  (42) 
energy

>  <rmsd>  (42) 
1.9612181804781377

>  <m_score__min__rmsd>  (42) 
1.9612181804781377

>  <meeko>  (42) 
{"free_energy": -8.19, "intermolecular_energy": -9.68, "internal_energy": -1.26, "cluster_size": 23, "cluster_id": 1, "rank_in_cluster": 13}

>  <energy>  (42) 
-8.21

>  <cluster_rmsd>  (42) 
0.0

>  <cluster>  (42) 
3

$$$$

     RDKit          3D

 48 51  0  0  0  0  0  0  0  0999 V2000
  139.0140   70.9120  220.9800 O   0  0  0  0  0  0  0  0  0  0  0  0
  139.0470   71.6090  222.0420 C   0  0  0  0  0  0  0  0  0  0  0  0
  138.5770   72.9550  221.8990 N   0  0  0  0  0  0  0  0  0  0  0  0
  138.1290   73.3700  220.6080 C   0  0  0  0  0  0  0  0  0  0  0  0
  138.1660   74.8440  220.4210 C   0  0  0  0  0  0  0  0  0  0  0  0
  137.2820   75.4850  219.7930 O   0  0  0  0  0  0  0  0  0  0  0  0
  139.2690   75.5430  220.9910 N   0  0  0  0  0  0  0  0  0  0  0  0
  139.5730   75.7760  222.3980 C   0  0  0  0  0  0  0  0  0  0  0  0
  140.2540   77.1330  222.4860 C   0  0  1  0  0  0  0  0  0  0  0  0
  141.4550   77.0770  223.1670 F   0  0  0  0  0  0  0  0  0  0  0  0
  140.4160   77.5060  221.0280 C   0  0  0  0  0  0  0  0  0  0  0  0
  140.3720   76.1980  220.2760 C   0  0  1  0  0  0  0  0  0  0  0  0
  141.5980   75.4230  220.3280 C   0  0  0  0  0  0  0  0  0  0  0  0
  141.4940   74.0850  220.7320 C   0  0  0  0  0  0  0  0  0  0  0  0
  142.5910   73.2590  220.8140 C   0  0  0  0  0  0  0  0  0  0  0  0
  143.8550   73.7090  220.5010 C   0  0  0  0  0  0  0  0  0  0  0  0
  145.2820   72.7040  220.5890 Cl  0  0  0  0  0  0  0  0  0  0  0  0
  143.9840   75.0230  220.1010 C   0  0  0  0  0  0  0  0  0  0  0  0
  142.8640   75.8520  220.0210 C   0  0  0  0  0  0  0  0  0  0  0  0
  139.5240   71.0890  223.3120 C   0  0  0  0  0  0  0  0  0  0  0  0
  140.3790   71.8880  224.0410 C   0  0  0  0  0  0  0  0  0  0  0  0
  140.8920   71.5020  225.2510 C   0  0  0  0  0  0  0  0  0  0  0  0
  140.5190   70.2580  225.7280 C   0  0  0  0  0  0  0  0  0  0  0  0
  141.0360   69.8730  226.9440 C   0  0  0  0  0  0  0  0  0  0  0  0
  140.6880   68.6400  227.4530 C   0  0  0  0  0  0  0  0  0  0  0  0
  141.3430   68.1420  229.0040 Cl  0  0  0  0  0  0  0  0  0  0  0  0
  139.8280   67.8340  226.7210 C   0  0  0  0  0  0  0  0  0  0  0  0
  139.3190   68.2520  225.4910 C   0  0  0  0  0  0  0  0  0  0  0  0
  139.6670   69.4910  224.9750 C   0  0  0  0  0  0  0  0  0  0  0  0
  139.1650   69.8770  223.7840 N   0  0  0  0  0  0  0  0  0  0  0  0
  138.5860   73.5710  222.7540 H   0  0  0  0  0  0  0  0  0  0  0  0
  138.7740   72.9049  219.8480 H   0  0  0  0  0  0  0  0  0  0  0  0
  137.0799   73.0543  220.5091 H   0  0  0  0  0  0  0  0  0  0  0  0
  138.6456   75.7795  222.9895 H   0  0  0  0  0  0  0  0  0  0  0  0
  140.2236   74.9833  222.7959 H   0  0  0  0  0  0  0  0  0  0  0  0
  139.6811   77.8772  223.0587 H   0  0  0  0  0  0  0  0  0  0  0  0
  139.5959   78.1641  220.7050 H   0  0  0  0  0  0  0  0  0  0  0  0
  141.3529   78.0529  220.8459 H   0  0  0  0  0  0  0  0  0  0  0  0
  140.2414   76.3186  219.1905 H   0  0  0  0  0  0  0  0  0  0  0  0
  140.5038   73.6826  220.9917 H   0  0  0  0  0  0  0  0  0  0  0  0
  142.4560   72.2161  221.1366 H   0  0  0  0  0  0  0  0  0  0  0  0
  144.9768   75.4203  219.8432 H   0  0  0  0  0  0  0  0  0  0  0  0
  143.0026   76.8943  219.6978 H   0  0  0  0  0  0  0  0  0  0  0  0
  140.6595   72.8715  223.6361 H   0  0  0  0  0  0  0  0  0  0  0  0
  141.5719   72.1536  225.8195 H   0  0  0  0  0  0  0  0  0  0  0  0
  141.7145   70.5370  227.4996 H   0  0  0  0  0  0  0  0  0  0  0  0
  139.5425   66.8484  227.1172 H   0  0  0  0  0  0  0  0  0  0  0  0
  138.6387   67.5958  224.9283 H   0  0  0  0  0  0  0  0  0  0  0  0
  1  2  2  0
  2  3  1  0
  3  4  1  0
  4  5  1  0
  5  6  2  0
  5  7  1  0
  7  8  1  0
  8  9  1  0
  9 10  1  0
  9 11  1  0
 11 12  1  0
 12 13  1  0
 13 14  2  0
 14 15  1  0
 15 16  2  0
 16 17  1  0
 16 18  1  0
 18 19  2  0
  2 20  1  0
 20 21  2  0
 21 22  1  0
 22 23  2  0
 23 24  1  0
 24 25  2  0
 25 26  1  0
 25 27  1  0
 27 28  2  0
 28 29  1  0
 29 30  2  0
 12  7  1  0
 19 13  1  0
 30 20  1  0
 29 23  1  0
  3 31  1  0
  4 32  1  0
  4 33  1  0
  8 34  1  0
  8 35  1  0
  9 36  1  1
 11 37  1  0
 11 38  1  0
 12 39  1  6
 14 40  1  0
 15 41  1  0
 18 42  1  0
 19 43  1  0
 21 44  1  0
 22 45  1  0
 24 46  1  0
 27 47  1  0
 28 48  1  0
M  END
>  <smiles>  (43) 
O=C(NCC(=O)N1C[C@@H](F)C[C@H]1c1ccc(Cl)cc1)c1ccc2cc(Cl)ccc2n1

>  <score_type>  (43) 
oracle

>  <origin>  (43) 
autodockgpu

>  <m_score__min__energy>  (43) 
-8.75

>  <m_primary>  (43) 
energy

>  <rmsd>  (43) 
3.1494193938935195

>  <m_score__min__rmsd>  (43) 
3.1494193938935195

>  <meeko>  (43) 
{"free_energy": -7.95, "intermolecular_energy": -9.44, "internal_energy": -1.61, "cluster_size": 18, "cluster_id": 2, "rank_in_cluster": 15}

>  <energy>  (43) 
-8.17

>  <cluster_rmsd>  (43) 
0.0

>  <cluster>  (43) 
4

$$$$

     RDKit          3D

 48 51  0  0  0  0  0  0  0  0999 V2000
  137.4960   70.9100  221.2380 O   0  0  0  0  0  0  0  0  0  0  0  0
  138.0210   71.5050  222.2300 C   0  0  0  0  0  0  0  0  0  0  0  0
  138.0160   72.9360  222.1520 N   0  0  0  0  0  0  0  0  0  0  0  0
  137.4360   73.5360  220.9930 C   0  0  0  0  0  0  0  0  0  0  0  0
  138.4440   74.1080  220.0620 C   0  0  0  0  0  0  0  0  0  0  0  0
  138.4460   73.8880  218.8230 O   0  0  0  0  0  0  0  0  0  0  0  0
  139.4500   74.9430  220.6290 N   0  0  0  0  0  0  0  0  0  0  0  0
  139.6220   75.3500  222.0190 C   0  0  0  0  0  0  0  0  0  0  0  0
  140.2050   76.7540  222.0020 C   0  0  1  0  0  0  0  0  0  0  0  0
  141.3460   76.8600  222.7720 F   0  0  0  0  0  0  0  0  0  0  0  0
  140.4610   76.9770  220.5270 C   0  0  0  0  0  0  0  0  0  0  0  0
  140.5630   75.5960  219.9280 C   0  0  1  0  0  0  0  0  0  0  0  0
  141.8280   74.9230  220.1590 C   0  0  0  0  0  0  0  0  0  0  0  0
  142.9980   75.6500  219.9050 C   0  0  0  0  0  0  0  0  0  0  0  0
  144.2500   75.1110  220.0920 C   0  0  0  0  0  0  0  0  0  0  0  0
  144.4170   73.8200  220.5410 C   0  0  0  0  0  0  0  0  0  0  0  0
  145.9820   73.0860  220.7950 Cl  0  0  0  0  0  0  0  0  0  0  0  0
  143.2800   73.0820  220.7980 C   0  0  0  0  0  0  0  0  0  0  0  0
  142.0150   73.6390  220.6060 C   0  0  0  0  0  0  0  0  0  0  0  0
  138.5870   70.7960  223.3660 C   0  0  0  0  0  0  0  0  0  0  0  0
  138.3430   69.4420  223.4500 C   0  0  0  0  0  0  0  0  0  0  0  0
  138.8250   68.6720  224.4750 C   0  0  0  0  0  0  0  0  0  0  0  0
  139.5790   69.3100  225.4440 C   0  0  0  0  0  0  0  0  0  0  0  0
  140.0620   68.5330  226.4740 C   0  0  0  0  0  0  0  0  0  0  0  0
  140.8170   69.1320  227.4590 C   0  0  0  0  0  0  0  0  0  0  0  0
  141.4370   68.1490  228.7740 Cl  0  0  0  0  0  0  0  0  0  0  0  0
  141.0630   70.4950  227.3760 C   0  0  0  0  0  0  0  0  0  0  0  0
  140.5610   71.2560  226.3200 C   0  0  0  0  0  0  0  0  0  0  0  0
  139.8000   70.6580  225.3270 C   0  0  0  0  0  0  0  0  0  0  0  0
  139.3220   71.4110  224.3150 N   0  0  0  0  0  0  0  0  0  0  0  0
  138.4410   73.4730  222.9520 H   0  0  0  0  0  0  0  0  0  0  0  0
  136.8583   72.7700  220.4549 H   0  0  0  0  0  0  0  0  0  0  0  0
  136.8019   74.3661  221.3377 H   0  0  0  0  0  0  0  0  0  0  0  0
  138.6508   75.3505  222.5355 H   0  0  0  0  0  0  0  0  0  0  0  0
  140.2874   74.6550  222.5521 H   0  0  0  0  0  0  0  0  0  0  0  0
  139.5410   77.5126  222.4420 H   0  0  0  0  0  0  0  0  0  0  0  0
  139.6292   77.5342  220.0714 H   0  0  0  0  0  0  0  0  0  0  0  0
  141.3724   77.5679  220.3534 H   0  0  0  0  0  0  0  0  0  0  0  0
  140.5140   75.5886  218.8291 H   0  0  0  0  0  0  0  0  0  0  0  0
  142.9131   76.6857  219.5442 H   0  0  0  0  0  0  0  0  0  0  0  0
  145.1373   75.7250  219.8781 H   0  0  0  0  0  0  0  0  0  0  0  0
  143.3714   72.0463  221.1571 H   0  0  0  0  0  0  0  0  0  0  0  0
  141.1299   73.0226  220.8222 H   0  0  0  0  0  0  0  0  0  0  0  0
  137.7393   68.9625  222.6654 H   0  0  0  0  0  0  0  0  0  0  0  0
  138.6213   67.5922  224.5257 H   0  0  0  0  0  0  0  0  0  0  0  0
  139.8489   67.4544  226.5095 H   0  0  0  0  0  0  0  0  0  0  0  0
  141.6644   70.9841  228.1565 H   0  0  0  0  0  0  0  0  0  0  0  0
  140.7698   72.3351  226.2749 H   0  0  0  0  0  0  0  0  0  0  0  0
  1  2  2  0
  2  3  1  0
  3  4  1  0
  4  5  1  0
  5  6  2  0
  5  7  1  0
  7  8  1  0
  8  9  1  0
  9 10  1  0
  9 11  1  0
 11 12  1  0
 12 13  1  0
 13 14  2  0
 14 15  1  0
 15 16  2  0
 16 17  1  0
 16 18  1  0
 18 19  2  0
  2 20  1  0
 20 21  2  0
 21 22  1  0
 22 23  2  0
 23 24  1  0
 24 25  2  0
 25 26  1  0
 25 27  1  0
 27 28  2  0
 28 29  1  0
 29 30  2  0
 12  7  1  0
 19 13  1  0
 30 20  1  0
 29 23  1  0
  3 31  1  0
  4 32  1  0
  4 33  1  0
  8 34  1  0
  8 35  1  0
  9 36  1  1
 11 37  1  0
 11 38  1  0
 12 39  1  6
 14 40  1  0
 15 41  1  0
 18 42  1  0
 19 43  1  0
 21 44  1  0
 22 45  1  0
 24 46  1  0
 27 47  1  0
 28 48  1  0
M  END
>  <smiles>  (44) 
O=C(NCC(=O)N1C[C@@H](F)C[C@H]1c1ccc(Cl)cc1)c1ccc2cc(Cl)ccc2n1

>  <score_type>  (44) 
oracle

>  <origin>  (44) 
autodockgpu

>  <m_score__min__energy>  (44) 
-8.75

>  <m_primary>  (44) 
energy

>  <rmsd>  (44) 
2.1393133341362947

>  <m_score__min__rmsd>  (44) 
2.1393133341362947

>  <meeko>  (44) 
{"free_energy": -7.91, "intermolecular_energy": -9.4, "internal_energy": -1.57, "cluster_size": 18, "cluster_id": 2, "rank_in_cluster": 16}

>  <energy>  (44) 
-8.06

>  <cluster_rmsd>  (44) 
0.29

>  <cluster>  (44) 
4

$$$$

     RDKit          3D

 48 51  0  0  0  0  0  0  0  0999 V2000
  139.5090   71.7930  220.9710 O   0  0  0  0  0  0  0  0  0  0  0  0
  139.5940   72.2620  222.1490 C   0  0  0  0  0  0  0  0  0  0  0  0
  139.4750   73.6870  222.2450 N   0  0  0  0  0  0  0  0  0  0  0  0
  139.2760   74.4200  221.0360 C   0  0  0  0  0  0  0  0  0  0  0  0
  138.5640   75.7090  221.2430 C   0  0  0  0  0  0  0  0  0  0  0  0
  137.5360   75.8250  221.9600 O   0  0  0  0  0  0  0  0  0  0  0  0
  139.0940   76.8560  220.5830 N   0  0  0  0  0  0  0  0  0  0  0  0
  138.3860   78.0300  220.0850 C   0  0  0  0  0  0  0  0  0  0  0  0
  139.1260   78.4980  218.8410 C   0  0  1  0  0  0  0  0  0  0  0  0
  139.4570   79.8380  218.8980 F   0  0  0  0  0  0  0  0  0  0  0  0
  140.3350   77.5880  218.8240 C   0  0  0  0  0  0  0  0  0  0  0  0
  140.4990   77.1200  220.2490 C   0  0  1  0  0  0  0  0  0  0  0  0
  141.1040   78.0890  221.1450 C   0  0  0  0  0  0  0  0  0  0  0  0
  141.0950   77.7910  222.5140 C   0  0  0  0  0  0  0  0  0  0  0  0
  141.6420   78.6370  223.4500 C   0  0  0  0  0  0  0  0  0  0  0  0
  142.2290   79.8280  223.0860 C   0  0  0  0  0  0  0  0  0  0  0  0
  142.9380   80.9400  224.2330 Cl  0  0  0  0  0  0  0  0  0  0  0  0
  142.2510   80.1450  221.7440 C   0  0  0  0  0  0  0  0  0  0  0  0
  141.6930   79.2790  220.8020 C   0  0  0  0  0  0  0  0  0  0  0  0
  139.7990   71.4240  223.3180 C   0  0  0  0  0  0  0  0  0  0  0  0
  139.4460   70.0950  223.2130 C   0  0  0  0  0  0  0  0  0  0  0  0
  139.5940   69.2110  224.2490 C   0  0  0  0  0  0  0  0  0  0  0  0
  140.1170   69.7060  225.4300 C   0  0  0  0  0  0  0  0  0  0  0  0
  140.2640   68.8150  226.4710 C   0  0  0  0  0  0  0  0  0  0  0  0
  140.7820   69.2690  227.6650 C   0  0  0  0  0  0  0  0  0  0  0  0
  140.9720   68.1410  228.9950 Cl  0  0  0  0  0  0  0  0  0  0  0  0
  141.1360   70.6060  227.7730 C   0  0  0  0  0  0  0  0  0  0  0  0
  140.9760   71.4840  226.7020 C   0  0  0  0  0  0  0  0  0  0  0  0
  140.4550   71.0330  225.4990 C   0  0  0  0  0  0  0  0  0  0  0  0
  140.3080   71.8980  224.4740 N   0  0  0  0  0  0  0  0  0  0  0  0
  139.5400   74.1210  223.2020 H   0  0  0  0  0  0  0  0  0  0  0  0
  140.2588   74.6313  220.5894 H   0  0  0  0  0  0  0  0  0  0  0  0
  138.6477   73.8014  220.3783 H   0  0  0  0  0  0  0  0  0  0  0  0
  137.3486   77.7666  219.8313 H   0  0  0  0  0  0  0  0  0  0  0  0
  138.3551   78.8233  220.8464 H   0  0  0  0  0  0  0  0  0  0  0  0
  138.5268   78.4318  217.9209 H   0  0  0  0  0  0  0  0  0  0  0  0
  140.1641   76.7322  218.1543 H   0  0  0  0  0  0  0  0  0  0  0  0
  141.2332   78.1051  218.4555 H   0  0  0  0  0  0  0  0  0  0  0  0
  141.1899   76.2707  220.3552 H   0  0  0  0  0  0  0  0  0  0  0  0
  140.6356   76.8500  222.8509 H   0  0  0  0  0  0  0  0  0  0  0  0
  141.6098   78.3560  224.5130 H   0  0  0  0  0  0  0  0  0  0  0  0
  142.7118   81.0875  221.4133 H   0  0  0  0  0  0  0  0  0  0  0  0
  141.7272   79.5631  219.7399 H   0  0  0  0  0  0  0  0  0  0  0  0
  139.0301   69.7312  222.2619 H   0  0  0  0  0  0  0  0  0  0  0  0
  139.3093   68.1535  224.1462 H   0  0  0  0  0  0  0  0  0  0  0  0
  139.9733   67.7609  226.3513 H   0  0  0  0  0  0  0  0  0  0  0  0
  141.5504   70.9801  228.7208 H   0  0  0  0  0  0  0  0  0  0  0  0
  141.2645   72.5398  226.8120 H   0  0  0  0  0  0  0  0  0  0  0  0
  1  2  2  0
  2  3  1  0
  3  4  1  0
  4  5  1  0
  5  6  2  0
  5  7  1  0
  7  8  1  0
  8  9  1  0
  9 10  1  0
  9 11  1  0
 11 12  1  0
 12 13  1  0
 13 14  2  0
 14 15  1  0
 15 16  2  0
 16 17  1  0
 16 18  1  0
 18 19  2  0
  2 20  1  0
 20 21  2  0
 21 22  1  0
 22 23  2  0
 23 24  1  0
 24 25  2  0
 25 26  1  0
 25 27  1  0
 27 28  2  0
 28 29  1  0
 29 30  2  0
 12  7  1  0
 19 13  1  0
 30 20  1  0
 29 23  1  0
  3 31  1  0
  4 32  1  0
  4 33  1  0
  8 34  1  0
  8 35  1  0
  9 36  1  6
 11 37  1  0
 11 38  1  0
 12 39  1  6
 14 40  1  0
 15 41  1  0
 18 42  1  0
 19 43  1  0
 21 44  1  0
 22 45  1  0
 24 46  1  0
 27 47  1  0
 28 48  1  0
M  END
>  <smiles>  (45) 
O=C(NCC(=O)N1C[C@@H](F)C[C@H]1c1ccc(Cl)cc1)c1ccc2cc(Cl)ccc2n1

>  <score_type>  (45) 
oracle

>  <origin>  (45) 
autodockgpu

>  <m_score__min__energy>  (45) 
-8.75

>  <m_primary>  (45) 
energy

>  <rmsd>  (45) 
1.7710556728905746

>  <m_score__min__rmsd>  (45) 
1.7710556728905746

>  <meeko>  (45) 
{"free_energy": -8.33, "intermolecular_energy": -9.82, "internal_energy": -1.4, "cluster_size": 23, "cluster_id": 1, "rank_in_cluster": 7}

>  <energy>  (45) 
-8.14

>  <cluster_rmsd>  (45) 
0.0

>  <cluster>  (45) 
5

$$$$

     RDKit          3D

 48 51  0  0  0  0  0  0  0  0999 V2000
  140.9200   72.0280  221.2860 O   0  0  0  0  0  0  0  0  0  0  0  0
  139.7700   72.5570  221.1870 C   0  0  0  0  0  0  0  0  0  0  0  0
  138.7570   71.7090  220.6320 N   0  0  0  0  0  0  0  0  0  0  0  0
  139.1330   70.3840  220.2540 C   0  0  0  0  0  0  0  0  0  0  0  0
  139.2620   69.4590  221.4110 C   0  0  0  0  0  0  0  0  0  0  0  0
  139.9510   68.4060  221.3830 O   0  0  0  0  0  0  0  0  0  0  0  0
  138.5590   69.8080  222.6010 N   0  0  0  0  0  0  0  0  0  0  0  0
  137.2640   69.3260  223.0700 C   0  0  0  0  0  0  0  0  0  0  0  0
  136.6070   70.4770  223.8150 C   0  0  1  0  0  0  0  0  0  0  0  0
  136.1870   70.1140  225.0800 F   0  0  0  0  0  0  0  0  0  0  0  0
  137.7040   71.5190  223.8300 C   0  0  0  0  0  0  0  0  0  0  0  0
  138.9870   70.7470  223.6450 C   0  0  1  0  0  0  0  0  0  0  0  0
  139.4660   70.0660  224.8340 C   0  0  0  0  0  0  0  0  0  0  0  0
  140.0180   70.8590  225.8490 C   0  0  0  0  0  0  0  0  0  0  0  0
  140.5000   70.3190  227.0190 C   0  0  0  0  0  0  0  0  0  0  0  0
  140.4650   68.9620  227.2520 C   0  0  0  0  0  0  0  0  0  0  0  0
  141.0630   68.2230  228.7180 Cl  0  0  0  0  0  0  0  0  0  0  0  0
  139.9270   68.1590  226.2680 C   0  0  0  0  0  0  0  0  0  0  0  0
  139.4400   68.7180  225.0850 C   0  0  0  0  0  0  0  0  0  0  0  0
  139.4910   73.9220  221.6030 C   0  0  0  0  0  0  0  0  0  0  0  0
  138.1700   74.3150  221.6360 C   0  0  0  0  0  0  0  0  0  0  0  0
  137.7880   75.5750  222.0120 C   0  0  0  0  0  0  0  0  0  0  0  0
  138.7920   76.4610  222.3620 C   0  0  0  0  0  0  0  0  0  0  0  0
  138.4050   77.7280  222.7380 C   0  0  0  0  0  0  0  0  0  0  0  0
  139.3750   78.6400  223.0940 C   0  0  0  0  0  0  0  0  0  0  0  0
  138.8910   80.2570  223.5760 Cl  0  0  0  0  0  0  0  0  0  0  0  0
  140.7050   78.2460  223.0610 C   0  0  0  0  0  0  0  0  0  0  0  0
  141.0670   76.9550  222.6750 C   0  0  0  0  0  0  0  0  0  0  0  0
  140.0940   76.0350  222.3160 C   0  0  0  0  0  0  0  0  0  0  0  0
  140.4630   74.7910  221.9450 N   0  0  0  0  0  0  0  0  0  0  0  0
  137.7860   72.1050  220.5300 H   0  0  0  0  0  0  0  0  0  0  0  0
  138.3685   69.9851  219.5710 H   0  0  0  0  0  0  0  0  0  0  0  0
  140.1214   70.4487  219.7755 H   0  0  0  0  0  0  0  0  0  0  0  0
  136.6408   69.0239  222.2154 H   0  0  0  0  0  0  0  0  0  0  0  0
  137.3838   68.4506  223.7252 H   0  0  0  0  0  0  0  0  0  0  0  0
  135.6811   70.8364  223.3422 H   0  0  0  0  0  0  0  0  0  0  0  0
  137.5645   72.2375  223.0088 H   0  0  0  0  0  0  0  0  0  0  0  0
  137.7055   72.1003  224.7639 H   0  0  0  0  0  0  0  0  0  0  0  0
  139.8508   71.3823  223.3997 H   0  0  0  0  0  0  0  0  0  0  0  0
  140.0675   71.9485  225.7056 H   0  0  0  0  0  0  0  0  0  0  0  0
  140.9226   70.9856  227.7852 H   0  0  0  0  0  0  0  0  0  0  0  0
  139.8813   67.0700  226.4165 H   0  0  0  0  0  0  0  0  0  0  0  0
  139.0173   68.0485  224.3214 H   0  0  0  0  0  0  0  0  0  0  0  0
  137.3942   73.5896  221.3497 H   0  0  0  0  0  0  0  0  0  0  0  0
  136.7286   75.8704  222.0349 H   0  0  0  0  0  0  0  0  0  0  0  0
  137.3411   78.0070  222.7539 H   0  0  0  0  0  0  0  0  0  0  0  0
  141.4882   78.9645  223.3443 H   0  0  0  0  0  0  0  0  0  0  0  0
  142.1282   76.6661  222.6555 H   0  0  0  0  0  0  0  0  0  0  0  0
  1  2  2  0
  2  3  1  0
  3  4  1  0
  4  5  1  0
  5  6  2  0
  5  7  1  0
  7  8  1  0
  8  9  1  0
  9 10  1  0
  9 11  1  0
 11 12  1  0
 12 13  1  0
 13 14  2  0
 14 15  1  0
 15 16  2  0
 16 17  1  0
 16 18  1  0
 18 19  2  0
  2 20  1  0
 20 21  2  0
 21 22  1  0
 22 23  2  0
 23 24  1  0
 24 25  2  0
 25 26  1  0
 25 27  1  0
 27 28  2  0
 28 29  1  0
 29 30  2  0
 12  7  1  0
 19 13  1  0
 30 20  1  0
 29 23  1  0
  3 31  1  0
  4 32  1  0
  4 33  1  0
  8 34  1  0
  8 35  1  0
  9 36  1  6
 11 37  1  0
 11 38  1  0
 12 39  1  6
 14 40  1  0
 15 41  1  0
 18 42  1  0
 19 43  1  0
 21 44  1  0
 22 45  1  0
 24 46  1  0
 27 47  1  0
 28 48  1  0
M  END
>  <smiles>  (46) 
O=C(NCC(=O)N1C[C@@H](F)C[C@H]1c1ccc(Cl)cc1)c1ccc2cc(Cl)ccc2n1

>  <score_type>  (46) 
oracle

>  <origin>  (46) 
autodockgpu

>  <m_score__min__energy>  (46) 
-8.75

>  <m_primary>  (46) 
energy

>  <rmsd>  (46) 
7.138114026411558

>  <m_score__min__rmsd>  (46) 
7.138114026411558

>  <meeko>  (46) 
{"free_energy": -7.39, "intermolecular_energy": -8.88, "internal_energy": -1.68, "cluster_size": 2, "cluster_id": 7, "rank_in_cluster": 1}

>  <energy>  (46) 
-8.1

>  <cluster_rmsd>  (46) 
1.05

>  <cluster>  (46) 
5

$$$$

     RDKit          3D

 48 51  0  0  0  0  0  0  0  0999 V2000
  139.2700   71.7120  220.5560 O   0  0  0  0  0  0  0  0  0  0  0  0
  139.0200   72.1440  221.7240 C   0  0  0  0  0  0  0  0  0  0  0  0
  138.4070   73.4380  221.7740 N   0  0  0  0  0  0  0  0  0  0  0  0
  138.1450   74.0980  220.5350 C   0  0  0  0  0  0  0  0  0  0  0  0
  138.1790   75.5800  220.6420 C   0  0  0  0  0  0  0  0  0  0  0  0
  137.2280   76.3230  220.2820 O   0  0  0  0  0  0  0  0  0  0  0  0
  139.3620   76.1650  221.1810 N   0  0  0  0  0  0  0  0  0  0  0  0
  139.7240   76.3670  222.5800 C   0  0  0  0  0  0  0  0  0  0  0  0
  140.5400   77.6470  222.6450 C   0  0  1  0  0  0  0  0  0  0  0  0
  141.7460   77.4710  223.2960 F   0  0  0  0  0  0  0  0  0  0  0  0
  140.7010   78.0010  221.1830 C   0  0  0  0  0  0  0  0  0  0  0  0
  140.5060   76.7050  220.4360 C   0  0  1  0  0  0  0  0  0  0  0  0
  141.6480   75.8090  220.4590 C   0  0  0  0  0  0  0  0  0  0  0  0
  142.8770   76.3250  220.0260 C   0  0  0  0  0  0  0  0  0  0  0  0
  144.0240   75.5660  220.0090 C   0  0  0  0  0  0  0  0  0  0  0  0
  144.0220   74.2510  220.4180 C   0  0  0  0  0  0  0  0  0  0  0  0
  145.4480   73.2410  220.4160 Cl  0  0  0  0  0  0  0  0  0  0  0  0
  142.8240   73.7190  220.8490 C   0  0  0  0  0  0  0  0  0  0  0  0
  141.6660   74.4980  220.8630 C   0  0  0  0  0  0  0  0  0  0  0  0
  139.3290   71.3890  222.9280 C   0  0  0  0  0  0  0  0  0  0  0  0
  138.9550   70.0620  222.9540 C   0  0  0  0  0  0  0  0  0  0  0  0
  139.1940   69.2540  224.0340 C   0  0  0  0  0  0  0  0  0  0  0  0
  139.8340   69.8230  225.1200 C   0  0  0  0  0  0  0  0  0  0  0  0
  140.0730   69.0090  226.2040 C   0  0  0  0  0  0  0  0  0  0  0  0
  140.7090   69.5390  227.3060 C   0  0  0  0  0  0  0  0  0  0  0  0
  141.0170   68.5070  228.6920 Cl  0  0  0  0  0  0  0  0  0  0  0  0
  141.0850   70.8740  227.2810 C   0  0  0  0  0  0  0  0  0  0  0  0
  140.8300   71.6750  226.1680 C   0  0  0  0  0  0  0  0  0  0  0  0
  140.1900   71.1460  225.0580 C   0  0  0  0  0  0  0  0  0  0  0  0
  139.9520   71.9370  223.9910 N   0  0  0  0  0  0  0  0  0  0  0  0
  138.1810   73.8380  222.7220 H   0  0  0  0  0  0  0  0  0  0  0  0
  138.9039   73.7828  219.8038 H   0  0  0  0  0  0  0  0  0  0  0  0
  137.1284   73.8162  220.2233 H   0  0  0  0  0  0  0  0  0  0  0  0
  138.8172   76.4650  223.1949 H   0  0  0  0  0  0  0  0  0  0  0  0
  140.3006   75.5128  222.9645 H   0  0  0  0  0  0  0  0  0  0  0  0
  140.0599   78.4459  223.2292 H   0  0  0  0  0  0  0  0  0  0  0  0
  139.9434   78.7385  220.8794 H   0  0  0  0  0  0  0  0  0  0  0  0
  141.6834   78.4502  220.9755 H   0  0  0  0  0  0  0  0  0  0  0  0
  140.3608   76.8388  219.3539 H   0  0  0  0  0  0  0  0  0  0  0  0
  142.9259   77.3709  219.6888 H   0  0  0  0  0  0  0  0  0  0  0  0
  144.9638   76.0195  219.6610 H   0  0  0  0  0  0  0  0  0  0  0  0
  142.7813   72.6722  221.1843 H   0  0  0  0  0  0  0  0  0  0  0  0
  140.7282   74.0416  221.2127 H   0  0  0  0  0  0  0  0  0  0  0  0
  138.4465   69.6371  222.0760 H   0  0  0  0  0  0  0  0  0  0  0  0
  138.8897   68.1969  224.0374 H   0  0  0  0  0  0  0  0  0  0  0  0
  139.7619   67.9540  226.1910 H   0  0  0  0  0  0  0  0  0  0  0  0
  141.5933   71.3086  228.1544 H   0  0  0  0  0  0  0  0  0  0  0  0
  141.1381   72.7310  226.1711 H   0  0  0  0  0  0  0  0  0  0  0  0
  1  2  2  0
  2  3  1  0
  3  4  1  0
  4  5  1  0
  5  6  2  0
  5  7  1  0
  7  8  1  0
  8  9  1  0
  9 10  1  0
  9 11  1  0
 11 12  1  0
 12 13  1  0
 13 14  2  0
 14 15  1  0
 15 16  2  0
 16 17  1  0
 16 18  1  0
 18 19  2  0
  2 20  1  0
 20 21  2  0
 21 22  1  0
 22 23  2  0
 23 24  1  0
 24 25  2  0
 25 26  1  0
 25 27  1  0
 27 28  2  0
 28 29  1  0
 29 30  2  0
 12  7  1  0
 19 13  1  0
 30 20  1  0
 29 23  1  0
  3 31  1  0
  4 32  1  0
  4 33  1  0
  8 34  1  0
  8 35  1  0
  9 36  1  1
 11 37  1  0
 11 38  1  0
 12 39  1  6
 14 40  1  0
 15 41  1  0
 18 42  1  0
 19 43  1  0
 21 44  1  0
 22 45  1  0
 24 46  1  0
 27 47  1  0
 28 48  1  0
M  END
>  <smiles>  (47) 
O=C(NCC(=O)N1C[C@@H](F)C[C@H]1c1ccc(Cl)cc1)c1ccc2cc(Cl)ccc2n1

>  <score_type>  (47) 
oracle

>  <origin>  (47) 
autodockgpu

>  <m_score__min__energy>  (47) 
-8.75

>  <m_primary>  (47) 
energy

>  <rmsd>  (47) 
2.45192616091748

>  <m_score__min__rmsd>  (47) 
2.45192616091748

>  <meeko>  (47) 
{"free_energy": -7.95, "intermolecular_energy": -9.44, "internal_energy": -1.74, "cluster_size": 18, "cluster_id": 2, "rank_in_cluster": 14}

>  <energy>  (47) 
-7.83

>  <cluster_rmsd>  (47) 
0.0

>  <cluster>  (47) 
6

$$$$

     RDKit          3D

 48 51  0  0  0  0  0  0  0  0999 V2000
  138.7610   71.7000  220.9650 O   0  0  0  0  0  0  0  0  0  0  0  0
  139.0440   72.1940  222.1010 C   0  0  0  0  0  0  0  0  0  0  0  0
  139.0130   73.6260  222.1650 N   0  0  0  0  0  0  0  0  0  0  0  0
  138.6750   74.3370  220.9740 C   0  0  0  0  0  0  0  0  0  0  0  0
  138.6420   75.8120  221.1620 C   0  0  0  0  0  0  0  0  0  0  0  0
  137.7370   76.4090  221.8010 O   0  0  0  0  0  0  0  0  0  0  0  0
  139.7020   76.5630  220.5770 N   0  0  0  0  0  0  0  0  0  0  0  0
  139.6660   77.4350  219.4080 C   0  0  0  0  0  0  0  0  0  0  0  0
  141.0210   77.3220  218.7280 C   0  0  1  0  0  0  0  0  0  0  0  0
  141.6050   78.5540  218.5080 F   0  0  0  0  0  0  0  0  0  0  0  0
  141.7980   76.4630  219.7020 C   0  0  0  0  0  0  0  0  0  0  0  0
  141.0980   76.6320  221.0280 C   0  0  1  0  0  0  0  0  0  0  0  0
  141.3920   77.8740  221.7190 C   0  0  0  0  0  0  0  0  0  0  0  0
  141.1880   77.9020  223.1050 C   0  0  0  0  0  0  0  0  0  0  0  0
  141.4360   79.0250  223.8580 C   0  0  0  0  0  0  0  0  0  0  0  0
  141.9000   80.1880  223.2840 C   0  0  0  0  0  0  0  0  0  0  0  0
  142.2320   81.6430  224.1940 Cl  0  0  0  0  0  0  0  0  0  0  0  0
  142.1090   80.1870  221.9210 C   0  0  0  0  0  0  0  0  0  0  0  0
  141.8540   79.0410  221.1660 C   0  0  0  0  0  0  0  0  0  0  0  0
  139.3770   71.3770  223.2550 C   0  0  0  0  0  0  0  0  0  0  0  0
  139.0930   70.0290  223.1780 C   0  0  0  0  0  0  0  0  0  0  0  0
  139.3630   69.1630  224.2040 C   0  0  0  0  0  0  0  0  0  0  0  0
  139.9390   69.6930  225.3450 C   0  0  0  0  0  0  0  0  0  0  0  0
  140.2080   68.8200  226.3740 C   0  0  0  0  0  0  0  0  0  0  0  0
  140.7820   69.3100  227.5280 C   0  0  0  0  0  0  0  0  0  0  0  0
  141.1290   68.2030  228.8450 Cl  0  0  0  0  0  0  0  0  0  0  0  0
  141.0670   70.6650  227.6070 C   0  0  0  0  0  0  0  0  0  0  0  0
  140.7830   71.5260  226.5470 C   0  0  0  0  0  0  0  0  0  0  0  0
  140.2060   71.0380  225.3850 C   0  0  0  0  0  0  0  0  0  0  0  0
  139.9380   71.8860  224.3710 N   0  0  0  0  0  0  0  0  0  0  0  0
  139.2410   74.0800  223.0870 H   0  0  0  0  0  0  0  0  0  0  0  0
  139.4211   74.0996  220.2014 H   0  0  0  0  0  0  0  0  0  0  0  0
  137.6626   74.0219  220.6812 H   0  0  0  0  0  0  0  0  0  0  0  0
  138.8701   77.1126  218.7205 H   0  0  0  0  0  0  0  0  0  0  0  0
  139.4586   78.4750  219.7000 H   0  0  0  0  0  0  0  0  0  0  0  0
  140.9722   76.8895  217.7178 H   0  0  0  0  0  0  0  0  0  0  0  0
  141.7780   75.4092  219.3873 H   0  0  0  0  0  0  0  0  0  0  0  0
  142.8561   76.7589  219.7561 H   0  0  0  0  0  0  0  0  0  0  0  0
  141.4001   75.8910  221.7828 H   0  0  0  0  0  0  0  0  0  0  0  0
  140.8174   76.9960  223.6068 H   0  0  0  0  0  0  0  0  0  0  0  0
  141.2600   78.9942  224.9434 H   0  0  0  0  0  0  0  0  0  0  0  0
  142.4795   81.0962  221.4249 H   0  0  0  0  0  0  0  0  0  0  0  0
  142.0312   79.0753  220.0809 H   0  0  0  0  0  0  0  0  0  0  0  0
  138.6331   69.6357  222.2594 H   0  0  0  0  0  0  0  0  0  0  0  0
  139.1316   68.0906  224.1243 H   0  0  0  0  0  0  0  0  0  0  0  0
  139.9694   67.7505  226.2777 H   0  0  0  0  0  0  0  0  0  0  0  0
  141.5253   71.0680  228.5222 H   0  0  0  0  0  0  0  0  0  0  0  0
  141.0180   72.5971  226.6336 H   0  0  0  0  0  0  0  0  0  0  0  0
  1  2  2  0
  2  3  1  0
  3  4  1  0
  4  5  1  0
  5  6  2  0
  5  7  1  0
  7  8  1  0
  8  9  1  0
  9 10  1  0
  9 11  1  0
 11 12  1  0
 12 13  1  0
 13 14  2  0
 14 15  1  0
 15 16  2  0
 16 17  1  0
 16 18  1  0
 18 19  2  0
  2 20  1  0
 20 21  2  0
 21 22  1  0
 22 23  2  0
 23 24  1  0
 24 25  2  0
 25 26  1  0
 25 27  1  0
 27 28  2  0
 28 29  1  0
 29 30  2  0
 12  7  1  0
 19 13  1  0
 30 20  1  0
 29 23  1  0
  3 31  1  0
  4 32  1  0
  4 33  1  0
  8 34  1  0
  8 35  1  0
  9 36  1  6
 11 37  1  0
 11 38  1  0
 12 39  1  1
 14 40  1  0
 15 41  1  0
 18 42  1  0
 19 43  1  0
 21 44  1  0
 22 45  1  0
 24 46  1  0
 27 47  1  0
 28 48  1  0
M  END
>  <smiles>  (48) 
O=C(NCC(=O)N1C[C@@H](F)C[C@H]1c1ccc(Cl)cc1)c1ccc2cc(Cl)ccc2n1

>  <score_type>  (48) 
oracle

>  <origin>  (48) 
autodockgpu

>  <m_score__min__energy>  (48) 
-8.75

>  <m_primary>  (48) 
energy

>  <rmsd>  (48) 
1.5578803881978784

>  <m_score__min__rmsd>  (48) 
1.5578803881978784

>  <meeko>  (48) 
{"free_energy": -8.66, "intermolecular_energy": -10.16, "internal_energy": -1.24, "cluster_size": 23, "cluster_id": 1, "rank_in_cluster": 2}

>  <energy>  (48) 
-7.53

>  <cluster_rmsd>  (48) 
1.39

>  <cluster>  (48) 
6

$$$$

     RDKit          3D

 48 51  0  0  0  0  0  0  0  0999 V2000
  139.6630   71.2470  220.9900 O   0  0  0  0  0  0  0  0  0  0  0  0
  139.3100   71.7440  222.1040 C   0  0  0  0  0  0  0  0  0  0  0  0
  138.4690   72.9010  222.0130 N   0  0  0  0  0  0  0  0  0  0  0  0
  138.1190   73.3680  220.7100 C   0  0  0  0  0  0  0  0  0  0  0  0
  138.0410   74.8500  220.6190 C   0  0  0  0  0  0  0  0  0  0  0  0
  137.0390   75.4640  220.1680 O   0  0  0  0  0  0  0  0  0  0  0  0
  139.1730   75.5870  221.0730 N   0  0  0  0  0  0  0  0  0  0  0  0
  139.5210   75.9790  222.4340 C   0  0  0  0  0  0  0  0  0  0  0  0
  140.2290   77.3220  222.3410 C   0  0  1  0  0  0  0  0  0  0  0  0
  141.4470   77.3210  222.9920 F   0  0  0  0  0  0  0  0  0  0  0  0
  140.3560   77.5160  220.8460 C   0  0  0  0  0  0  0  0  0  0  0  0
  140.2660   76.1290  220.2560 C   0  0  1  0  0  0  0  0  0  0  0  0
  141.4790   75.3390  220.3680 C   0  0  0  0  0  0  0  0  0  0  0  0
  142.6850   75.9620  220.0180 C   0  0  0  0  0  0  0  0  0  0  0  0
  143.8920   75.3080  220.0890 C   0  0  0  0  0  0  0  0  0  0  0  0
  143.9780   73.9990  220.5090 C   0  0  0  0  0  0  0  0  0  0  0  0
  145.4850   73.1200  220.6160 Cl  0  0  0  0  0  0  0  0  0  0  0  0
  142.8050   73.3630  220.8590 C   0  0  0  0  0  0  0  0  0  0  0  0
  141.5840   74.0370  220.7840 C   0  0  0  0  0  0  0  0  0  0  0  0
  139.7240   71.1900  223.3820 C   0  0  0  0  0  0  0  0  0  0  0  0
  140.5940   71.9400  224.1440 C   0  0  0  0  0  0  0  0  0  0  0  0
  141.0520   71.5190  225.3650 C   0  0  0  0  0  0  0  0  0  0  0  0
  140.6060   70.2900  225.8170 C   0  0  0  0  0  0  0  0  0  0  0  0
  141.0680   69.8690  227.0440 C   0  0  0  0  0  0  0  0  0  0  0  0
  140.6470   68.6490  227.5280 C   0  0  0  0  0  0  0  0  0  0  0  0
  141.2310   68.1050  229.0920 Cl  0  0  0  0  0  0  0  0  0  0  0  0
  139.7720   67.8920  226.7630 C   0  0  0  0  0  0  0  0  0  0  0  0
  139.3210   68.3460  225.5230 C   0  0  0  0  0  0  0  0  0  0  0  0
  139.7420   69.5710  225.0310 C   0  0  0  0  0  0  0  0  0  0  0  0
  139.2940   69.9920  223.8300 N   0  0  0  0  0  0  0  0  0  0  0  0
  138.1510   73.3480  222.9120 H   0  0  0  0  0  0  0  0  0  0  0  0
  138.8774   73.0136  219.9965 H   0  0  0  0  0  0  0  0  0  0  0  0
  137.1182   72.9738  220.4800 H   0  0  0  0  0  0  0  0  0  0  0  0
  138.6110   76.0729  223.0448 H   0  0  0  0  0  0  0  0  0  0  0  0
  140.1678   75.2254  222.9070 H   0  0  0  0  0  0  0  0  0  0  0  0
  139.6863   78.1413  222.8352 H   0  0  0  0  0  0  0  0  0  0  0  0
  139.5394   78.1491  220.4687 H   0  0  0  0  0  0  0  0  0  0  0  0
  141.2973   78.0168  220.5756 H   0  0  0  0  0  0  0  0  0  0  0  0
  140.1059   76.1233  219.1677 H   0  0  0  0  0  0  0  0  0  0  0  0
  142.6649   77.0072  219.6757 H   0  0  0  0  0  0  0  0  0  0  0  0
  144.8103   75.8423  219.8039 H   0  0  0  0  0  0  0  0  0  0  0  0
  142.8314   72.3174  221.1996 H   0  0  0  0  0  0  0  0  0  0  0  0
  140.6677   73.5003  221.0709 H   0  0  0  0  0  0  0  0  0  0  0  0
  140.9332   72.9125  223.7577 H   0  0  0  0  0  0  0  0  0  0  0  0
  141.7447   72.1321  225.9603 H   0  0  0  0  0  0  0  0  0  0  0  0
  141.7600   70.4946  227.6269 H   0  0  0  0  0  0  0  0  0  0  0  0
  139.4279   66.9176  227.1401 H   0  0  0  0  0  0  0  0  0  0  0  0
  138.6278   67.7283  224.9331 H   0  0  0  0  0  0  0  0  0  0  0  0
  1  2  2  0
  2  3  1  0
  3  4  1  0
  4  5  1  0
  5  6  2  0
  5  7  1  0
  7  8  1  0
  8  9  1  0
  9 10  1  0
  9 11  1  0
 11 12  1  0
 12 13  1  0
 13 14  2  0
 14 15  1  0
 15 16  2  0
 16 17  1  0
 16 18  1  0
 18 19  2  0
  2 20  1  0
 20 21  2  0
 21 22  1  0
 22 23  2  0
 23 24  1  0
 24 25  2  0
 25 26  1  0
 25 27  1  0
 27 28  2  0
 28 29  1  0
 29 30  2  0
 12  7  1  0
 19 13  1  0
 30 20  1  0
 29 23  1  0
  3 31  1  0
  4 32  1  0
  4 33  1  0
  8 34  1  0
  8 35  1  0
  9 36  1  1
 11 37  1  0
 11 38  1  0
 12 39  1  6
 14 40  1  0
 15 41  1  0
 18 42  1  0
 19 43  1  0
 21 44  1  0
 22 45  1  0
 24 46  1  0
 27 47  1  0
 28 48  1  0
M  END
>  <smiles>  (49) 
O=C(NCC(=O)N1C[C@@H](F)C[C@H]1c1ccc(Cl)cc1)c1ccc2cc(Cl)ccc2n1

>  <score_type>  (49) 
oracle

>  <origin>  (49) 
autodockgpu

>  <m_score__min__energy>  (49) 
-8.75

>  <m_primary>  (49) 
energy

>  <rmsd>  (49) 
3.156412212391513

>  <m_score__min__rmsd>  (49) 
3.156412212391513

>  <meeko>  (49) 
{"free_energy": -8.04, "intermolecular_energy": -9.53, "internal_energy": -1.76, "cluster_size": 18, "cluster_id": 2, "rank_in_cluster": 11}

>  <energy>  (49) 
-7.39

>  <cluster_rmsd>  (49) 
0.0

>  <cluster>  (49) 
7

$$$$

     RDKit          3D

 48 51  0  0  0  0  0  0  0  0999 V2000
  140.6510   72.5160  220.8970 O   0  0  0  0  0  0  0  0  0  0  0  0
  140.1920   72.8340  222.0380 C   0  0  0  0  0  0  0  0  0  0  0  0
  139.6820   74.1700  222.1370 N   0  0  0  0  0  0  0  0  0  0  0  0
  139.7380   74.9900  220.9700 C   0  0  0  0  0  0  0  0  0  0  0  0
  141.0100   75.7520  220.8490 C   0  0  0  0  0  0  0  0  0  0  0  0
  142.0990   75.2300  220.4960 O   0  0  0  0  0  0  0  0  0  0  0  0
  140.9640   77.1430  221.1580 N   0  0  0  0  0  0  0  0  0  0  0  0
  141.0110   78.2810  220.2470 C   0  0  0  0  0  0  0  0  0  0  0  0
  141.7360   79.4020  220.9750 C   0  0  1  0  0  0  0  0  0  0  0  0
  141.0180   80.5820  220.9740 F   0  0  0  0  0  0  0  0  0  0  0  0
  141.9190   78.8190  222.3600 C   0  0  0  0  0  0  0  0  0  0  0  0
  140.8560   77.7560  222.4870 C   0  0  1  0  0  0  0  0  0  0  0  0
  139.5200   78.2570  222.7540 C   0  0  0  0  0  0  0  0  0  0  0  0
  139.4170   79.4680  223.4510 C   0  0  0  0  0  0  0  0  0  0  0  0
  138.2010   80.0350  223.7550 C   0  0  0  0  0  0  0  0  0  0  0  0
  137.0170   79.4370  223.3880 C   0  0  0  0  0  0  0  0  0  0  0  0
  135.4450   80.1120  223.7490 Cl  0  0  0  0  0  0  0  0  0  0  0  0
  137.0910   78.2430  222.7010 C   0  0  0  0  0  0  0  0  0  0  0  0
  138.3300   77.6760  222.3970 C   0  0  0  0  0  0  0  0  0  0  0  0
  140.1810   71.9190  223.1670 C   0  0  0  0  0  0  0  0  0  0  0  0
  139.6100   70.6800  222.9700 C   0  0  0  0  0  0  0  0  0  0  0  0
  139.5440   69.7360  223.9610 C   0  0  0  0  0  0  0  0  0  0  0  0
  140.0770   70.0740  225.1920 C   0  0  0  0  0  0  0  0  0  0  0  0
  140.0080   69.1240  226.1860 C   0  0  0  0  0  0  0  0  0  0  0  0
  140.5290   69.4230  227.4270 C   0  0  0  0  0  0  0  0  0  0  0  0
  140.4450   68.2170  228.7000 Cl  0  0  0  0  0  0  0  0  0  0  0  0
  141.1040   70.6690  227.6270 C   0  0  0  0  0  0  0  0  0  0  0  0
  141.1590   71.6120  226.6000 C   0  0  0  0  0  0  0  0  0  0  0  0
  140.6360   71.3160  225.3510 C   0  0  0  0  0  0  0  0  0  0  0  0
  140.6990   72.2410  224.3700 N   0  0  0  0  0  0  0  0  0  0  0  0
  139.2910   74.4790  223.0650 H   0  0  0  0  0  0  0  0  0  0  0  0
  139.6309   74.3459  220.0848 H   0  0  0  0  0  0  0  0  0  0  0  0
  138.9232   75.7248  221.0477 H   0  0  0  0  0  0  0  0  0  0  0  0
  141.5569   78.0099  219.3313 H   0  0  0  0  0  0  0  0  0  0  0  0
  139.9974   78.5929  219.9551 H   0  0  0  0  0  0  0  0  0  0  0  0
  142.6859   79.6928  220.5027 H   0  0  0  0  0  0  0  0  0  0  0  0
  142.9208   78.3765  222.4627 H   0  0  0  0  0  0  0  0  0  0  0  0
  141.8284   79.5858  223.1434 H   0  0  0  0  0  0  0  0  0  0  0  0
  141.0072   77.0836  223.3443 H   0  0  0  0  0  0  0  0  0  0  0  0
  140.3376   79.9817  223.7651 H   0  0  0  0  0  0  0  0  0  0  0  0
  138.1744   80.9879  224.3038 H   0  0  0  0  0  0  0  0  0  0  0  0
  136.1668   77.7338  222.3904 H   0  0  0  0  0  0  0  0  0  0  0  0
  138.3528   76.7231  221.8480 H   0  0  0  0  0  0  0  0  0  0  0  0
  139.1920   70.4403  221.9811 H   0  0  0  0  0  0  0  0  0  0  0  0
  139.0866   68.7512  223.7852 H   0  0  0  0  0  0  0  0  0  0  0  0
  139.5457   68.1445  225.9937 H   0  0  0  0  0  0  0  0  0  0  0  0
  141.5241   70.9183  228.6126 H   0  0  0  0  0  0  0  0  0  0  0  0
  141.6193   72.5943  226.7824 H   0  0  0  0  0  0  0  0  0  0  0  0
  1  2  2  0
  2  3  1  0
  3  4  1  0
  4  5  1  0
  5  6  2  0
  5  7  1  0
  7  8  1  0
  8  9  1  0
  9 10  1  0
  9 11  1  0
 11 12  1  0
 12 13  1  0
 13 14  2  0
 14 15  1  0
 15 16  2  0
 16 17  1  0
 16 18  1  0
 18 19  2  0
  2 20  1  0
 20 21  2  0
 21 22  1  0
 22 23  2  0
 23 24  1  0
 24 25  2  0
 25 26  1  0
 25 27  1  0
 27 28  2  0
 28 29  1  0
 29 30  2  0
 12  7  1  0
 19 13  1  0
 30 20  1  0
 29 23  1  0
  3 31  1  0
  4 32  1  0
  4 33  1  0
  8 34  1  0
  8 35  1  0
  9 36  1  6
 11 37  1  0
 11 38  1  0
 12 39  1  1
 14 40  1  0
 15 41  1  0
 18 42  1  0
 19 43  1  0
 21 44  1  0
 22 45  1  0
 24 46  1  0
 27 47  1  0
 28 48  1  0
M  END
>  <smiles>  (50) 
O=C(NCC(=O)N1C[C@@H](F)C[C@H]1c1ccc(Cl)cc1)c1ccc2cc(Cl)ccc2n1

>  <score_type>  (50) 
oracle

>  <origin>  (50) 
autodockgpu

>  <m_score__min__energy>  (50) 
-8.75

>  <m_primary>  (50) 
energy

>  <rmsd>  (50) 
2.7804965967372435

>  <m_score__min__rmsd>  (50) 
2.7804965967372435

>  <meeko>  (50) 
{"free_energy": -8.1, "intermolecular_energy": -9.59, "internal_energy": -1.36, "cluster_size": 2, "cluster_id": 5, "rank_in_cluster": 2}

>  <energy>  (50) 
-7.39

>  <cluster_rmsd>  (50) 
0.04

>  <cluster>  (50) 
7

$$$$
