
     RDKit          3D

 48 50  0  0  0  0  0  0  0  0999 V2000
  141.0670   72.2640  221.8380 C   0  0  0  0  0  0  0  0  0  0  0  0
  140.9130   73.6530  221.9830 O   0  0  0  0  0  0  0  0  0  0  0  0
  141.5380   74.6120  221.2090 C   0  0  0  0  0  0  0  0  0  0  0  0
  142.8190   74.3260  220.7740 C   0  0  0  0  0  0  0  0  0  0  0  0
  143.5250   75.2250  219.9970 C   0  0  0  0  0  0  0  0  0  0  0  0
  142.8940   76.4040  219.6840 C   0  0  0  0  0  0  0  0  0  0  0  0
  141.6180   76.6870  220.1170 C   0  0  0  0  0  0  0  0  0  0  0  0
  140.8850   75.7900  220.9070 C   0  0  0  0  0  0  0  0  0  0  0  0
  139.5310   76.1300  221.3470 C   0  0  2  0  0  0  0  0  0  0  0  0
  139.4880   77.2030  222.4280 C   0  0  0  0  0  0  0  0  0  0  0  0
  138.7340   75.0260  221.8120 N   0  0  0  0  0  0  0  0  0  0  0  0
  137.8080   74.4530  220.8940 C   0  0  0  0  0  0  0  0  0  0  0  0
  137.7130   74.9240  219.7100 O   0  0  0  0  0  0  0  0  0  0  0  0
  136.9610   73.3140  221.3240 C   0  0  0  0  0  0  0  0  0  0  0  0
  137.4800   72.6380  222.4780 N   0  0  0  0  0  0  0  0  0  0  0  0
  138.0230   71.3270  222.2800 C   0  0  0  0  0  0  0  0  0  0  0  0
  138.0180   70.8420  221.1190 O   0  0  0  0  0  0  0  0  0  0  0  0
  138.5660   70.5860  223.4080 C   0  0  0  0  0  0  0  0  0  0  0  0
  138.3380   69.2240  223.4810 C   0  0  0  0  0  0  0  0  0  0  0  0
  138.8530   68.5330  224.5490 C   0  0  0  0  0  0  0  0  0  0  0  0
  139.5860   69.1300  225.5500 C   0  0  0  0  0  0  0  0  0  0  0  0
  140.1090   68.4490  226.6260 C   0  0  0  0  0  0  0  0  0  0  0  0
  140.8320   69.0810  227.5970 C   0  0  0  0  0  0  0  0  0  0  0  0
  141.4580   68.1410  228.9290 Cl  0  0  0  0  0  0  0  0  0  0  0  0
  141.0430   70.4400  227.4980 C   0  0  0  0  0  0  0  0  0  0  0  0
  140.5210   71.1370  226.4180 C   0  0  0  0  0  0  0  0  0  0  0  0
  139.7910   70.5080  225.4320 C   0  0  0  0  0  0  0  0  0  0  0  0
  139.2820   71.1770  224.3820 N   0  0  0  0  0  0  0  0  0  0  0  0
  141.1190   71.7951  222.8317 H   0  0  0  0  0  0  0  0  0  0  0  0
  140.2086   71.8557  221.2844 H   0  0  0  0  0  0  0  0  0  0  0  0
  141.9940   72.0537  221.2844 H   0  0  0  0  0  0  0  0  0  0  0  0
  143.2835   73.3680  221.0507 H   0  0  0  0  0  0  0  0  0  0  0  0
  144.5443   75.0064  219.6458 H   0  0  0  0  0  0  0  0  0  0  0  0
  143.4245   77.1452  219.0683 H   0  0  0  0  0  0  0  0  0  0  0  0
  141.1596   77.6462  219.8345 H   0  0  0  0  0  0  0  0  0  0  0  0
  139.0927   76.5075  220.4114 H   0  0  0  0  0  0  0  0  0  0  0  0
  139.5071   76.7260  223.4190 H   0  0  0  0  0  0  0  0  0  0  0  0
  140.3604   77.8648  222.3227 H   0  0  0  0  0  0  0  0  0  0  0  0
  138.5655   77.7928  222.3227 H   0  0  0  0  0  0  0  0  0  0  0  0
  138.7690   74.6100  222.7590 H   0  0  0  0  0  0  0  0  0  0  0  0
  135.9563   73.6936  221.5617 H   0  0  0  0  0  0  0  0  0  0  0  0
  136.9389   72.5881  220.4978 H   0  0  0  0  0  0  0  0  0  0  0  0
  137.4710   73.0750  223.4470 H   0  0  0  0  0  0  0  0  0  0  0  0
  137.7581   68.7072  222.7022 H   0  0  0  0  0  0  0  0  0  0  0  0
  138.6714   67.4497  224.6082 H   0  0  0  0  0  0  0  0  0  0  0  0
  139.9397   67.3650  226.7060 H   0  0  0  0  0  0  0  0  0  0  0  0
  141.6215   70.9681  228.2703 H   0  0  0  0  0  0  0  0  0  0  0  0
  140.6943   72.2209  226.3464 H   0  0  0  0  0  0  0  0  0  0  0  0
  1  2  1  0
  2  3  1  0
  3  4  2  0
  4  5  1  0
  5  6  2  0
  6  7  1  0
  7  8  2  0
  8  9  1  0
  9 10  1  0
  9 11  1  0
 11 12  1  0
 12 13  2  0
 12 14  1  0
 14 15  1  0
 15 16  1  0
 16 17  2  0
 16 18  1  0
 18 19  2  0
 19 20  1  0
 20 21  2  0
 21 22  1  0
 22 23  2  0
 23 24  1  0
 23 25  1  0
 25 26  2  0
 26 27  1  0
 27 28  2  0
  8  3  1  0
 28 18  1  0
 27 21  1  0
  1 29  1  0
  1 30  1  0
  1 31  1  0
  4 32  1  0
  5 33  1  0
  6 34  1  0
  7 35  1  0
  9 36  1  6
 10 37  1  0
 10 38  1  0
 10 39  1  0
 11 40  1  0
 14 41  1  0
 14 42  1  0
 15 43  1  0
 19 44  1  0
 20 45  1  0
 22 46  1  0
 25 47  1  0
 26 48  1  0
M  END
>  <smiles>  (1) 
COc1ccccc1[C@H](C)NC(=O)CNC(=O)c1ccc2cc(Cl)ccc2n1

>  <score_type>  (1) 
oracle

>  <origin>  (1) 
autodockgpu

>  <m_score__min__energy>  (1) 
-8.4199999999999999

>  <m_primary>  (1) 
energy

>  <rmsd>  (1) 
5.305591757936373

>  <m_score__min__rmsd>  (1) 
5.305591757936373

>  <meeko>  (1) 
{"free_energy": -7.78, "intermolecular_energy": -9.57, "internal_energy": -1.76, "cluster_size": 8, "cluster_id": 2, "rank_in_cluster": 1}

>  <energy>  (1) 
-8.42

>  <cluster_rmsd>  (1) 
0.0

>  <cluster>  (1) 
1

$$$$

     RDKit          3D

 48 50  0  0  0  0  0  0  0  0999 V2000
  141.4010   75.7800  220.9840 C   0  0  0  0  0  0  0  0  0  0  0  0
  140.8200   76.0430  222.2350 O   0  0  0  0  0  0  0  0  0  0  0  0
  140.4560   77.2930  222.7010 C   0  0  0  0  0  0  0  0  0  0  0  0
  141.4750   78.1120  223.1520 C   0  0  0  0  0  0  0  0  0  0  0  0
  141.2080   79.3780  223.6380 C   0  0  0  0  0  0  0  0  0  0  0  0
  139.8930   79.7750  223.6480 C   0  0  0  0  0  0  0  0  0  0  0  0
  138.8800   78.9580  223.1990 C   0  0  0  0  0  0  0  0  0  0  0  0
  139.1280   77.6700  222.7030 C   0  0  0  0  0  0  0  0  0  0  0  0
  138.0230   76.8340  222.2330 C   0  0  2  0  0  0  0  0  0  0  0  0
  136.7860   76.8960  223.1210 C   0  0  0  0  0  0  0  0  0  0  0  0
  138.3340   75.4430  222.0380 N   0  0  0  0  0  0  0  0  0  0  0  0
  137.4350   74.6750  221.2450 C   0  0  0  0  0  0  0  0  0  0  0  0
  136.3980   75.2290  220.7420 O   0  0  0  0  0  0  0  0  0  0  0  0
  137.7090   73.2360  221.0130 C   0  0  0  0  0  0  0  0  0  0  0  0
  138.2860   72.5870  222.1550 N   0  0  0  0  0  0  0  0  0  0  0  0
  138.0080   71.1920  222.3260 C   0  0  0  0  0  0  0  0  0  0  0  0
  137.2810   70.6140  221.4770 O   0  0  0  0  0  0  0  0  0  0  0  0
  138.5620   70.4740  223.4640 C   0  0  0  0  0  0  0  0  0  0  0  0
  138.4190   69.0990  223.5160 C   0  0  0  0  0  0  0  0  0  0  0  0
  138.9440   68.4300  224.5920 C   0  0  0  0  0  0  0  0  0  0  0  0
  139.6070   69.0600  225.6210 C   0  0  0  0  0  0  0  0  0  0  0  0
  140.1390   68.4010  226.7070 C   0  0  0  0  0  0  0  0  0  0  0  0
  140.7900   69.0670  227.7060 C   0  0  0  0  0  0  0  0  0  0  0  0
  141.4340   68.1520  229.0480 Cl  0  0  0  0  0  0  0  0  0  0  0  0
  140.9170   70.4370  227.6270 C   0  0  0  0  0  0  0  0  0  0  0  0
  140.3850   71.1120  226.5390 C   0  0  0  0  0  0  0  0  0  0  0  0
  139.7270   70.4500  225.5240 C   0  0  0  0  0  0  0  0  0  0  0  0
  139.2080   71.0970  224.4650 N   0  0  0  0  0  0  0  0  0  0  0  0
  142.3944   75.3303  221.1284 H   0  0  0  0  0  0  0  0  0  0  0  0
  140.7615   75.0836  220.4218 H   0  0  0  0  0  0  0  0  0  0  0  0
  141.5022   76.7201  220.4218 H   0  0  0  0  0  0  0  0  0  0  0  0
  142.5135   77.7505  223.1235 H   0  0  0  0  0  0  0  0  0  0  0  0
  142.0110   80.0369  223.9999 H   0  0  0  0  0  0  0  0  0  0  0  0
  139.6416   80.7768  224.0265 H   0  0  0  0  0  0  0  0  0  0  0  0
  137.8442   79.3269  223.2303 H   0  0  0  0  0  0  0  0  0  0  0  0
  137.8190   77.2872  221.2517 H   0  0  0  0  0  0  0  0  0  0  0  0
  137.0919   76.8807  224.1775 H   0  0  0  0  0  0  0  0  0  0  0  0
  136.2316   77.8231  222.9132 H   0  0  0  0  0  0  0  0  0  0  0  0
  136.1416   76.0290  222.9132 H   0  0  0  0  0  0  0  0  0  0  0  0
  139.1550   74.9460  222.4240 H   0  0  0  0  0  0  0  0  0  0  0  0
  136.7623   72.7339  220.7649 H   0  0  0  0  0  0  0  0  0  0  0  0
  138.4365   73.1666  220.1909 H   0  0  0  0  0  0  0  0  0  0  0  0
  138.8980   73.1030  222.8560 H   0  0  0  0  0  0  0  0  0  0  0  0
  137.8972   68.5558  222.7143 H   0  0  0  0  0  0  0  0  0  0  0  0
  138.8298   67.3368  224.6349 H   0  0  0  0  0  0  0  0  0  0  0  0
  140.0368   67.3077  226.7716 H   0  0  0  0  0  0  0  0  0  0  0  0
  141.4371   70.9914  228.4220 H   0  0  0  0  0  0  0  0  0  0  0  0
  140.4907   72.2055  226.4840 H   0  0  0  0  0  0  0  0  0  0  0  0
  1  2  1  0
  2  3  1  0
  3  4  2  0
  4  5  1  0
  5  6  2  0
  6  7  1  0
  7  8  2  0
  8  9  1  0
  9 10  1  0
  9 11  1  0
 11 12  1  0
 12 13  2  0
 12 14  1  0
 14 15  1  0
 15 16  1  0
 16 17  2  0
 16 18  1  0
 18 19  2  0
 19 20  1  0
 20 21  2  0
 21 22  1  0
 22 23  2  0
 23 24  1  0
 23 25  1  0
 25 26  2  0
 26 27  1  0
 27 28  2  0
  8  3  1  0
 28 18  1  0
 27 21  1  0
  1 29  1  0
  1 30  1  0
  1 31  1  0
  4 32  1  0
  5 33  1  0
  6 34  1  0
  7 35  1  0
  9 36  1  6
 10 37  1  0
 10 38  1  0
 10 39  1  0
 11 40  1  0
 14 41  1  0
 14 42  1  0
 15 43  1  0
 19 44  1  0
 20 45  1  0
 22 46  1  0
 25 47  1  0
 26 48  1  0
M  END
>  <smiles>  (2) 
COc1ccccc1[C@H](C)NC(=O)CNC(=O)c1ccc2cc(Cl)ccc2n1

>  <score_type>  (2) 
oracle

>  <origin>  (2) 
autodockgpu

>  <m_score__min__energy>  (2) 
-8.4199999999999999

>  <m_primary>  (2) 
energy

>  <rmsd>  (2) 
4.969273957209336

>  <m_score__min__rmsd>  (2) 
4.969273957209336

>  <meeko>  (2) 
{"free_energy": -7.37, "intermolecular_energy": -9.16, "internal_energy": -1.73, "cluster_size": 17, "cluster_id": 1, "rank_in_cluster": 17}

>  <energy>  (2) 
-8.42

>  <cluster_rmsd>  (2) 
0.29

>  <cluster>  (2) 
1

$$$$

     RDKit          3D

 48 50  0  0  0  0  0  0  0  0999 V2000
  138.1790   79.1410  222.8110 C   0  0  0  0  0  0  0  0  0  0  0  0
  139.2860   79.5530  222.0510 O   0  0  0  0  0  0  0  0  0  0  0  0
  140.5420   79.8350  222.5540 C   0  0  0  0  0  0  0  0  0  0  0  0
  140.6230   80.8350  223.5060 C   0  0  0  0  0  0  0  0  0  0  0  0
  141.8360   81.1880  224.0660 C   0  0  0  0  0  0  0  0  0  0  0  0
  142.9440   80.5010  223.6320 C   0  0  0  0  0  0  0  0  0  0  0  0
  142.8610   79.5050  222.6850 C   0  0  0  0  0  0  0  0  0  0  0  0
  141.6410   79.1320  222.1040 C   0  0  0  0  0  0  0  0  0  0  0  0
  141.5960   78.0670  221.1010 C   0  0  2  0  0  0  0  0  0  0  0  0
  141.8240   78.5560  219.6760 C   0  0  0  0  0  0  0  0  0  0  0  0
  140.3960   77.2730  221.0900 N   0  0  0  0  0  0  0  0  0  0  0  0
  140.5450   75.8570  221.1190 C   0  0  0  0  0  0  0  0  0  0  0  0
  141.7150   75.3420  221.1530 O   0  0  0  0  0  0  0  0  0  0  0  0
  139.3400   74.9940  221.1090 C   0  0  0  0  0  0  0  0  0  0  0  0
  139.3030   74.0740  222.2090 N   0  0  0  0  0  0  0  0  0  0  0  0
  140.0680   72.8690  222.0820 C   0  0  0  0  0  0  0  0  0  0  0  0
  140.7230   72.6810  221.0250 O   0  0  0  0  0  0  0  0  0  0  0  0
  140.0740   71.8940  223.1610 C   0  0  0  0  0  0  0  0  0  0  0  0
  139.5810   70.6260  222.9150 C   0  0  0  0  0  0  0  0  0  0  0  0
  139.5900   69.7120  223.9380 C   0  0  0  0  0  0  0  0  0  0  0  0
  140.0670   69.9970  225.1980 C   0  0  0  0  0  0  0  0  0  0  0  0
  140.0830   69.0900  226.2340 C   0  0  0  0  0  0  0  0  0  0  0  0
  140.5660   69.4160  227.4700 C   0  0  0  0  0  0  0  0  0  0  0  0
  140.5480   68.2040  228.7280 Cl  0  0  0  0  0  0  0  0  0  0  0  0
  141.0510   70.6880  227.6860 C   0  0  0  0  0  0  0  0  0  0  0  0
  141.0400   71.6100  226.6500 C   0  0  0  0  0  0  0  0  0  0  0  0
  140.5560   71.2910  225.3990 C   0  0  0  0  0  0  0  0  0  0  0  0
  140.5420   72.1800  224.3900 N   0  0  0  0  0  0  0  0  0  0  0  0
  138.4159   79.2292  223.8816 H   0  0  0  0  0  0  0  0  0  0  0  0
  137.3138   79.7773  222.5733 H   0  0  0  0  0  0  0  0  0  0  0  0
  137.9403   78.0938  222.5733 H   0  0  0  0  0  0  0  0  0  0  0  0
  139.7080   81.3573  223.8222 H   0  0  0  0  0  0  0  0  0  0  0  0
  141.9110   81.9818  224.8237 H   0  0  0  0  0  0  0  0  0  0  0  0
  143.9276   80.7545  224.0541 H   0  0  0  0  0  0  0  0  0  0  0  0
  143.7800   78.9861  222.3749 H   0  0  0  0  0  0  0  0  0  0  0  0
  142.4316   77.4319  221.4303 H   0  0  0  0  0  0  0  0  0  0  0  0
  142.2888   79.5527  219.7003 H   0  0  0  0  0  0  0  0  0  0  0  0
  142.4879   77.8546  219.1495 H   0  0  0  0  0  0  0  0  0  0  0  0
  140.8599   78.6137  219.1495 H   0  0  0  0  0  0  0  0  0  0  0  0
  139.4280   77.6390  221.0590 H   0  0  0  0  0  0  0  0  0  0  0  0
  138.4481   75.6360  221.1582 H   0  0  0  0  0  0  0  0  0  0  0  0
  139.3667   74.4006  220.1832 H   0  0  0  0  0  0  0  0  0  0  0  0
  138.7390   74.2620  223.0910 H   0  0  0  0  0  0  0  0  0  0  0  0
  139.1908   70.3564  221.9225 H   0  0  0  0  0  0  0  0  0  0  0  0
  139.1974   68.7032  223.7425 H   0  0  0  0  0  0  0  0  0  0  0  0
  139.6962   68.0747  226.0618 H   0  0  0  0  0  0  0  0  0  0  0  0
  141.4443   70.9701  228.6738 H   0  0  0  0  0  0  0  0  0  0  0  0
  141.4279   72.6232  226.8313 H   0  0  0  0  0  0  0  0  0  0  0  0
  1  2  1  0
  2  3  1  0
  3  4  2  0
  4  5  1  0
  5  6  2  0
  6  7  1  0
  7  8  2  0
  8  9  1  0
  9 10  1  0
  9 11  1  0
 11 12  1  0
 12 13  2  0
 12 14  1  0
 14 15  1  0
 15 16  1  0
 16 17  2  0
 16 18  1  0
 18 19  2  0
 19 20  1  0
 20 21  2  0
 21 22  1  0
 22 23  2  0
 23 24  1  0
 23 25  1  0
 25 26  2  0
 26 27  1  0
 27 28  2  0
  8  3  1  0
 28 18  1  0
 27 21  1  0
  1 29  1  0
  1 30  1  0
  1 31  1  0
  4 32  1  0
  5 33  1  0
  6 34  1  0
  7 35  1  0
  9 36  1  1
 10 37  1  0
 10 38  1  0
 10 39  1  0
 11 40  1  0
 14 41  1  0
 14 42  1  0
 15 43  1  0
 19 44  1  0
 20 45  1  0
 22 46  1  0
 25 47  1  0
 26 48  1  0
M  END
>  <smiles>  (3) 
COc1ccccc1[C@H](C)NC(=O)CNC(=O)c1ccc2cc(Cl)ccc2n1

>  <score_type>  (3) 
oracle

>  <origin>  (3) 
autodockgpu

>  <m_score__min__energy>  (3) 
-8.4199999999999999

>  <m_primary>  (3) 
energy

>  <rmsd>  (3) 
3.7791043192642233

>  <m_score__min__rmsd>  (3) 
3.7791043192642233

>  <meeko>  (3) 
{"free_energy": -8.4, "intermolecular_energy": -10.19, "internal_energy": -1.6, "cluster_size": 17, "cluster_id": 1, "rank_in_cluster": 3}

>  <energy>  (3) 
-8.4

>  <cluster_rmsd>  (3) 
0.37

>  <cluster>  (3) 
1

$$$$

     RDKit          3D

 48 50  0  0  0  0  0  0  0  0999 V2000
  141.3100   72.0250  221.8180 C   0  0  0  0  0  0  0  0  0  0  0  0
  141.0450   73.3970  221.9580 O   0  0  0  0  0  0  0  0  0  0  0  0
  141.6170   74.4030  221.2020 C   0  0  0  0  0  0  0  0  0  0  0  0
  142.8940   74.1750  220.7220 C   0  0  0  0  0  0  0  0  0  0  0  0
  143.5470   75.1240  219.9580 C   0  0  0  0  0  0  0  0  0  0  0  0
  142.8690   76.2910  219.7040 C   0  0  0  0  0  0  0  0  0  0  0  0
  141.5980   76.5170  220.1830 C   0  0  0  0  0  0  0  0  0  0  0  0
  140.9170   75.5680  220.9600 C   0  0  0  0  0  0  0  0  0  0  0  0
  139.5660   75.8470  221.4490 C   0  0  2  0  0  0  0  0  0  0  0  0
  139.5320   76.7450  222.6790 C   0  0  0  0  0  0  0  0  0  0  0  0
  138.7620   74.6920  221.7450 N   0  0  0  0  0  0  0  0  0  0  0  0
  137.3830   74.7440  221.3900 C   0  0  0  0  0  0  0  0  0  0  0  0
  136.9100   75.7930  220.8330 O   0  0  0  0  0  0  0  0  0  0  0  0
  136.5090   73.5800  221.6740 C   0  0  0  0  0  0  0  0  0  0  0  0
  136.9750   72.7890  222.7770 N   0  0  0  0  0  0  0  0  0  0  0  0
  138.0260   71.8520  222.5130 C   0  0  0  0  0  0  0  0  0  0  0  0
  138.4810   71.7710  221.3440 O   0  0  0  0  0  0  0  0  0  0  0  0
  138.5440   71.0190  223.5880 C   0  0  0  0  0  0  0  0  0  0  0  0
  138.2310   69.6720  223.5950 C   0  0  0  0  0  0  0  0  0  0  0  0
  138.7240   68.8940  224.6120 C   0  0  0  0  0  0  0  0  0  0  0  0
  139.5140   69.3890  225.6250 C   0  0  0  0  0  0  0  0  0  0  0  0
  140.0150   68.6200  226.6510 C   0  0  0  0  0  0  0  0  0  0  0  0
  140.7960   69.1530  227.6360 C   0  0  0  0  0  0  0  0  0  0  0  0
  141.3890   68.1040  228.9010 Cl  0  0  0  0  0  0  0  0  0  0  0  0
  141.0910   70.4990  227.6030 C   0  0  0  0  0  0  0  0  0  0  0  0
  140.5920   71.2840  226.5750 C   0  0  0  0  0  0  0  0  0  0  0  0
  139.8030   70.7560  225.5750 C   0  0  0  0  0  0  0  0  0  0  0  0
  139.3160   71.5110  224.5740 N   0  0  0  0  0  0  0  0  0  0  0  0
  141.3988   71.5653  222.8134 H   0  0  0  0  0  0  0  0  0  0  0  0
  140.4875   71.5472  221.2655 H   0  0  0  0  0  0  0  0  0  0  0  0
  142.2512   71.8879  221.2655 H   0  0  0  0  0  0  0  0  0  0  0  0
  143.3974   73.2243  220.9517 H   0  0  0  0  0  0  0  0  0  0  0  0
  144.5625   74.9525  219.5714 H   0  0  0  0  0  0  0  0  0  0  0  0
  143.3566   77.0696  219.0989 H   0  0  0  0  0  0  0  0  0  0  0  0
  141.1016   77.4704  219.9494 H   0  0  0  0  0  0  0  0  0  0  0  0
  139.1295   76.3634  220.5814 H   0  0  0  0  0  0  0  0  0  0  0  0
  139.5555   76.1244  223.5869 H   0  0  0  0  0  0  0  0  0  0  0  0
  140.4055   77.4135  222.6692 H   0  0  0  0  0  0  0  0  0  0  0  0
  138.6105   77.3456  222.6692 H   0  0  0  0  0  0  0  0  0  0  0  0
  139.0930   73.8220  222.1960 H   0  0  0  0  0  0  0  0  0  0  0  0
  135.4990   73.9479  221.9076 H   0  0  0  0  0  0  0  0  0  0  0  0
  136.5137   72.9375  220.7812 H   0  0  0  0  0  0  0  0  0  0  0  0
  136.5690   72.8820  223.7560 H   0  0  0  0  0  0  0  0  0  0  0  0
  137.6025   69.2352  222.8050 H   0  0  0  0  0  0  0  0  0  0  0  0
  138.4759   67.8224  224.6182 H   0  0  0  0  0  0  0  0  0  0  0  0
  139.7795   67.5459  226.6781 H   0  0  0  0  0  0  0  0  0  0  0  0
  141.7184   70.9475  228.3874 H   0  0  0  0  0  0  0  0  0  0  0  0
  140.8320   72.3573  226.5566 H   0  0  0  0  0  0  0  0  0  0  0  0
  1  2  1  0
  2  3  1  0
  3  4  2  0
  4  5  1  0
  5  6  2  0
  6  7  1  0
  7  8  2  0
  8  9  1  0
  9 10  1  0
  9 11  1  0
 11 12  1  0
 12 13  2  0
 12 14  1  0
 14 15  1  0
 15 16  1  0
 16 17  2  0
 16 18  1  0
 18 19  2  0
 19 20  1  0
 20 21  2  0
 21 22  1  0
 22 23  2  0
 23 24  1  0
 23 25  1  0
 25 26  2  0
 26 27  1  0
 27 28  2  0
  8  3  1  0
 28 18  1  0
 27 21  1  0
  1 29  1  0
  1 30  1  0
  1 31  1  0
  4 32  1  0
  5 33  1  0
  6 34  1  0
  7 35  1  0
  9 36  1  6
 10 37  1  0
 10 38  1  0
 10 39  1  0
 11 40  1  0
 14 41  1  0
 14 42  1  0
 15 43  1  0
 19 44  1  0
 20 45  1  0
 22 46  1  0
 25 47  1  0
 26 48  1  0
M  END
>  <smiles>  (4) 
COc1ccccc1[C@H](C)NC(=O)CNC(=O)c1ccc2cc(Cl)ccc2n1

>  <score_type>  (4) 
oracle

>  <origin>  (4) 
autodockgpu

>  <m_score__min__energy>  (4) 
-8.4199999999999999

>  <m_primary>  (4) 
energy

>  <rmsd>  (4) 
5.378622378060169

>  <m_score__min__rmsd>  (4) 
5.378622378060169

>  <meeko>  (4) 
{"free_energy": -6.88, "intermolecular_energy": -8.67, "internal_energy": -2.54, "cluster_size": 8, "cluster_id": 2, "rank_in_cluster": 8}

>  <energy>  (4) 
-8.39

>  <cluster_rmsd>  (4) 
0.32

>  <cluster>  (4) 
1

$$$$

     RDKit          3D

 48 50  0  0  0  0  0  0  0  0999 V2000
  140.7330   71.8570  222.7170 C   0  0  0  0  0  0  0  0  0  0  0  0
  140.3520   72.2430  224.0130 O   0  0  0  0  0  0  0  0  0  0  0  0
  140.2310   71.3940  225.0970 C   0  0  0  0  0  0  0  0  0  0  0  0
  141.1840   71.5140  226.0920 C   0  0  0  0  0  0  0  0  0  0  0  0
  141.1470   70.7080  227.2140 C   0  0  0  0  0  0  0  0  0  0  0  0
  140.1250   69.7930  227.2870 C   0  0  0  0  0  0  0  0  0  0  0  0
  139.1780   69.6750  226.2960 C   0  0  0  0  0  0  0  0  0  0  0  0
  139.1970   70.4820  225.1490 C   0  0  0  0  0  0  0  0  0  0  0  0
  138.1700   70.3250  224.1190 C   0  0  2  0  0  0  0  0  0  0  0  0
  138.5640   69.3670  223.0000 C   0  0  0  0  0  0  0  0  0  0  0  0
  137.7230   71.5430  223.4960 N   0  0  0  0  0  0  0  0  0  0  0  0
  136.3430   71.6390  223.1600 C   0  0  0  0  0  0  0  0  0  0  0  0
  135.5570   70.6630  223.4140 O   0  0  0  0  0  0  0  0  0  0  0  0
  135.8300   72.8730  222.5160 C   0  0  0  0  0  0  0  0  0  0  0  0
  136.6890   74.0040  222.7180 N   0  0  0  0  0  0  0  0  0  0  0  0
  137.9070   74.0440  221.9650 C   0  0  0  0  0  0  0  0  0  0  0  0
  138.1600   73.0970  221.1780 O   0  0  0  0  0  0  0  0  0  0  0  0
  138.8230   75.1640  222.1230 C   0  0  0  0  0  0  0  0  0  0  0  0
  140.1520   74.9880  221.7850 C   0  0  0  0  0  0  0  0  0  0  0  0
  141.0090   76.0490  221.9370 C   0  0  0  0  0  0  0  0  0  0  0  0
  140.6090   77.2800  222.4060 C   0  0  0  0  0  0  0  0  0  0  0  0
  141.4570   78.3520  222.5630 C   0  0  0  0  0  0  0  0  0  0  0  0
  141.0170   79.5570  223.0330 C   0  0  0  0  0  0  0  0  0  0  0  0
  142.1620   80.8660  223.2010 Cl  0  0  0  0  0  0  0  0  0  0  0  0
  139.6860   79.7030  223.3610 C   0  0  0  0  0  0  0  0  0  0  0  0
  138.8210   78.6290  223.2080 C   0  0  0  0  0  0  0  0  0  0  0  0
  139.2560   77.4090  222.7330 C   0  0  0  0  0  0  0  0  0  0  0  0
  138.4230   76.3630  222.5820 N   0  0  0  0  0  0  0  0  0  0  0  0
  141.5045   71.0754  222.7791 H   0  0  0  0  0  0  0  0  0  0  0  0
  139.8572   71.4658  222.1786 H   0  0  0  0  0  0  0  0  0  0  0  0
  141.1356   72.7276  222.1786 H   0  0  0  0  0  0  0  0  0  0  0  0
  141.9836   72.2623  225.9888 H   0  0  0  0  0  0  0  0  0  0  0  0
  141.9003   70.7950  228.0109 H   0  0  0  0  0  0  0  0  0  0  0  0
  140.0618   69.1339  228.1654 H   0  0  0  0  0  0  0  0  0  0  0  0
  138.3813   68.9246  226.4066 H   0  0  0  0  0  0  0  0  0  0  0  0
  137.3403   69.9096  224.7098 H   0  0  0  0  0  0  0  0  0  0  0  0
  138.9482   68.4328  223.4354 H   0  0  0  0  0  0  0  0  0  0  0  0
  137.6834   69.1469  222.3787 H   0  0  0  0  0  0  0  0  0  0  0  0
  139.3446   69.8302  222.3787 H   0  0  0  0  0  0  0  0  0  0  0  0
  138.3160   72.3580  223.2660 H   0  0  0  0  0  0  0  0  0  0  0  0
  135.7355   72.6921  221.4351 H   0  0  0  0  0  0  0  0  0  0  0  0
  134.8593   73.1080  222.9769 H   0  0  0  0  0  0  0  0  0  0  0  0
  136.4460   74.7910  223.3920 H   0  0  0  0  0  0  0  0  0  0  0  0
  140.5134   74.0216  221.4037 H   0  0  0  0  0  0  0  0  0  0  0  0
  142.0672   75.9091  221.6711 H   0  0  0  0  0  0  0  0  0  0  0  0
  142.5194   78.2356  222.3027 H   0  0  0  0  0  0  0  0  0  0  0  0
  139.3121   80.6649  223.7416 H   0  0  0  0  0  0  0  0  0  0  0  0
  137.7605   78.7536  223.4724 H   0  0  0  0  0  0  0  0  0  0  0  0
  1  2  1  0
  2  3  1  0
  3  4  2  0
  4  5  1  0
  5  6  2  0
  6  7  1  0
  7  8  2  0
  8  9  1  0
  9 10  1  0
  9 11  1  0
 11 12  1  0
 12 13  2  0
 12 14  1  0
 14 15  1  0
 15 16  1  0
 16 17  2  0
 16 18  1  0
 18 19  2  0
 19 20  1  0
 20 21  2  0
 21 22  1  0
 22 23  2  0
 23 24  1  0
 23 25  1  0
 25 26  2  0
 26 27  1  0
 27 28  2  0
  8  3  1  0
 28 18  1  0
 27 21  1  0
  1 29  1  0
  1 30  1  0
  1 31  1  0
  4 32  1  0
  5 33  1  0
  6 34  1  0
  7 35  1  0
  9 36  1  1
 10 37  1  0
 10 38  1  0
 10 39  1  0
 11 40  1  0
 14 41  1  0
 14 42  1  0
 15 43  1  0
 19 44  1  0
 20 45  1  0
 22 46  1  0
 25 47  1  0
 26 48  1  0
M  END
>  <smiles>  (5) 
COc1ccccc1[C@H](C)NC(=O)CNC(=O)c1ccc2cc(Cl)ccc2n1

>  <score_type>  (5) 
oracle

>  <origin>  (5) 
autodockgpu

>  <m_score__min__energy>  (5) 
-8.4199999999999999

>  <m_primary>  (5) 
energy

>  <rmsd>  (5) 
9.720298722839285

>  <m_score__min__rmsd>  (5) 
9.720298722839285

>  <meeko>  (5) 
{"free_energy": -7.18, "intermolecular_energy": -8.97, "internal_energy": -2.71, "cluster_size": 17, "cluster_id": 3, "rank_in_cluster": 3}

>  <energy>  (5) 
-8.29

>  <cluster_rmsd>  (5) 
0.3

>  <cluster>  (5) 
1

$$$$

     RDKit          3D

 48 50  0  0  0  0  0  0  0  0999 V2000
  142.0420   70.8570  219.8010 C   0  0  0  0  0  0  0  0  0  0  0  0
  142.1870   72.0600  220.5130 O   0  0  0  0  0  0  0  0  0  0  0  0
  143.3160   72.8570  220.5150 C   0  0  0  0  0  0  0  0  0  0  0  0
  144.5240   72.2280  220.7570 C   0  0  0  0  0  0  0  0  0  0  0  0
  145.7060   72.9420  220.7800 C   0  0  0  0  0  0  0  0  0  0  0  0
  145.6200   74.2950  220.5540 C   0  0  0  0  0  0  0  0  0  0  0  0
  144.4170   74.9190  220.3140 C   0  0  0  0  0  0  0  0  0  0  0  0
  143.2050   74.2130  220.2860 C   0  0  0  0  0  0  0  0  0  0  0  0
  141.9480   74.9150  220.0260 C   0  0  2  0  0  0  0  0  0  0  0  0
  141.9610   76.3780  220.4560 C   0  0  0  0  0  0  0  0  0  0  0  0
  140.7710   74.3160  220.5990 N   0  0  0  0  0  0  0  0  0  0  0  0
  139.5150   74.9120  220.2890 C   0  0  0  0  0  0  0  0  0  0  0  0
  139.4680   75.9380  219.5290 O   0  0  0  0  0  0  0  0  0  0  0  0
  138.2720   74.3330  220.8540 C   0  0  0  0  0  0  0  0  0  0  0  0
  138.5080   73.5410  222.0260 N   0  0  0  0  0  0  0  0  0  0  0  0
  139.0970   72.2490  221.8350 C   0  0  0  0  0  0  0  0  0  0  0  0
  139.3730   71.8790  220.6650 O   0  0  0  0  0  0  0  0  0  0  0  0
  139.3630   71.3940  222.9820 C   0  0  0  0  0  0  0  0  0  0  0  0
  139.0020   70.0610  222.9160 C   0  0  0  0  0  0  0  0  0  0  0  0
  139.2560   69.2620  224.0020 C   0  0  0  0  0  0  0  0  0  0  0  0
  139.8540   69.7230  225.1530 C   0  0  0  0  0  0  0  0  0  0  0  0
  140.1150   68.9330  226.2500 C   0  0  0  0  0  0  0  0  0  0  0  0
  140.7110   69.4320  227.3730 C   0  0  0  0  0  0  0  0  0  0  0  0
  141.0050   68.3590  228.7200 Cl  0  0  0  0  0  0  0  0  0  0  0  0
  141.0590   70.7660  227.4100 C   0  0  0  0  0  0  0  0  0  0  0  0
  140.8010   71.5720  226.3120 C   0  0  0  0  0  0  0  0  0  0  0  0
  140.2010   71.0770  225.1730 C   0  0  0  0  0  0  0  0  0  0  0  0
  139.9470   71.8530  224.1040 N   0  0  0  0  0  0  0  0  0  0  0  0
  141.9413   70.0215  220.5094 H   0  0  0  0  0  0  0  0  0  0  0  0
  141.1439   70.9114  219.1682 H   0  0  0  0  0  0  0  0  0  0  0  0
  142.9273   70.6965  219.1682 H   0  0  0  0  0  0  0  0  0  0  0  0
  144.5435   71.1425  220.9338 H   0  0  0  0  0  0  0  0  0  0  0  0
  146.6715   72.4506  220.9704 H   0  0  0  0  0  0  0  0  0  0  0  0
  146.5404   74.8973  220.5653 H   0  0  0  0  0  0  0  0  0  0  0  0
  144.4055   76.0049  220.1387 H   0  0  0  0  0  0  0  0  0  0  0  0
  141.8840   74.8340  218.9309 H   0  0  0  0  0  0  0  0  0  0  0  0
  141.9615   76.4373  221.5544 H   0  0  0  0  0  0  0  0  0  0  0  0
  142.8635   76.8680  220.0619 H   0  0  0  0  0  0  0  0  0  0  0  0
  141.0673   76.8840  220.0619 H   0  0  0  0  0  0  0  0  0  0  0  0
  140.7540   73.4900  221.2210 H   0  0  0  0  0  0  0  0  0  0  0  0
  137.5900   75.1549  221.1173 H   0  0  0  0  0  0  0  0  0  0  0  0
  137.8391   73.6708  220.0897 H   0  0  0  0  0  0  0  0  0  0  0  0
  138.2630   73.8820  223.0030 H   0  0  0  0  0  0  0  0  0  0  0  0
  138.5228   69.6510  222.0147 H   0  0  0  0  0  0  0  0  0  0  0  0
  138.9678   68.2017  223.9505 H   0  0  0  0  0  0  0  0  0  0  0  0
  139.8355   67.8695  226.2211 H   0  0  0  0  0  0  0  0  0  0  0  0
  141.5385   71.1880  228.3055 H   0  0  0  0  0  0  0  0  0  0  0  0
  141.0823   72.6347  226.3502 H   0  0  0  0  0  0  0  0  0  0  0  0
  1  2  1  0
  2  3  1  0
  3  4  2  0
  4  5  1  0
  5  6  2  0
  6  7  1  0
  7  8  2  0
  8  9  1  0
  9 10  1  0
  9 11  1  0
 11 12  1  0
 12 13  2  0
 12 14  1  0
 14 15  1  0
 15 16  1  0
 16 17  2  0
 16 18  1  0
 18 19  2  0
 19 20  1  0
 20 21  2  0
 21 22  1  0
 22 23  2  0
 23 24  1  0
 23 25  1  0
 25 26  2  0
 26 27  1  0
 27 28  2  0
  8  3  1  0
 28 18  1  0
 27 21  1  0
  1 29  1  0
  1 30  1  0
  1 31  1  0
  4 32  1  0
  5 33  1  0
  6 34  1  0
  7 35  1  0
  9 36  1  6
 10 37  1  0
 10 38  1  0
 10 39  1  0
 11 40  1  0
 14 41  1  0
 14 42  1  0
 15 43  1  0
 19 44  1  0
 20 45  1  0
 22 46  1  0
 25 47  1  0
 26 48  1  0
M  END
>  <smiles>  (6) 
COc1ccccc1[C@H](C)NC(=O)CNC(=O)c1ccc2cc(Cl)ccc2n1

>  <score_type>  (6) 
oracle

>  <origin>  (6) 
autodockgpu

>  <m_score__min__energy>  (6) 
-8.4199999999999999

>  <m_primary>  (6) 
energy

>  <rmsd>  (6) 
6.112832167107077

>  <m_score__min__rmsd>  (6) 
6.112832167107077

>  <meeko>  (6) 
{"free_energy": -7.2, "intermolecular_energy": -8.99, "internal_energy": -2.47, "cluster_size": 8, "cluster_id": 2, "rank_in_cluster": 6}

>  <energy>  (6) 
-8.23

>  <cluster_rmsd>  (6) 
0.39

>  <cluster>  (6) 
1

$$$$

     RDKit          3D

 48 50  0  0  0  0  0  0  0  0999 V2000
  142.1550   77.1140  220.0680 C   0  0  0  0  0  0  0  0  0  0  0  0
  141.3620   76.9220  221.2120 O   0  0  0  0  0  0  0  0  0  0  0  0
  140.9350   77.9210  222.0670 C   0  0  0  0  0  0  0  0  0  0  0  0
  141.8910   78.8190  222.5040 C   0  0  0  0  0  0  0  0  0  0  0  0
  141.5590   79.8510  223.3610 C   0  0  0  0  0  0  0  0  0  0  0  0
  140.2450   79.9350  223.7520 C   0  0  0  0  0  0  0  0  0  0  0  0
  139.2940   79.0400  223.3160 C   0  0  0  0  0  0  0  0  0  0  0  0
  139.6100   77.9850  222.4470 C   0  0  0  0  0  0  0  0  0  0  0  0
  138.5690   77.0560  222.0060 C   0  0  2  0  0  0  0  0  0  0  0  0
  137.5120   76.7710  223.0660 C   0  0  0  0  0  0  0  0  0  0  0  0
  139.0360   75.7840  221.5210 N   0  0  0  0  0  0  0  0  0  0  0  0
  138.0760   74.9160  220.9280 C   0  0  0  0  0  0  0  0  0  0  0  0
  136.8540   75.2810  220.8460 O   0  0  0  0  0  0  0  0  0  0  0  0
  138.5050   73.5930  220.4120 C   0  0  0  0  0  0  0  0  0  0  0  0
  138.6050   72.5990  221.4420 N   0  0  0  0  0  0  0  0  0  0  0  0
  139.6860   72.7260  222.3730 C   0  0  0  0  0  0  0  0  0  0  0  0
  140.4830   73.6900  222.2430 O   0  0  0  0  0  0  0  0  0  0  0  0
  139.8440   71.7510  223.4410 C   0  0  0  0  0  0  0  0  0  0  0  0
  139.5030   70.4340  223.1950 C   0  0  0  0  0  0  0  0  0  0  0  0
  139.6550   69.5210  224.2080 C   0  0  0  0  0  0  0  0  0  0  0  0
  140.1330   69.8530  225.4570 C   0  0  0  0  0  0  0  0  0  0  0  0
  140.2900   68.9470  226.4810 C   0  0  0  0  0  0  0  0  0  0  0  0
  140.7680   69.3200  227.7060 C   0  0  0  0  0  0  0  0  0  0  0  0
  140.9370   68.1060  228.9500 Cl  0  0  0  0  0  0  0  0  0  0  0  0
  141.1000   70.6410  227.9210 C   0  0  0  0  0  0  0  0  0  0  0  0
  140.9450   71.5620  226.8970 C   0  0  0  0  0  0  0  0  0  0  0  0
  140.4650   71.1960  225.6570 C   0  0  0  0  0  0  0  0  0  0  0  0
  140.3120   72.0840  224.6580 N   0  0  0  0  0  0  0  0  0  0  0  0
  143.1826   77.3628  220.3717 H   0  0  0  0  0  0  0  0  0  0  0  0
  142.1630   76.1918  219.4684 H   0  0  0  0  0  0  0  0  0  0  0  0
  141.7403   77.9377  219.4684 H   0  0  0  0  0  0  0  0  0  0  0  0
  142.9316   78.7104  222.1644 H   0  0  0  0  0  0  0  0  0  0  0  0
  142.3118   80.5714  223.7135 H   0  0  0  0  0  0  0  0  0  0  0  0
  139.9430   80.7427  224.4349 H   0  0  0  0  0  0  0  0  0  0  0  0
  138.2554   79.1556  223.6593 H   0  0  0  0  0  0  0  0  0  0  0  0
  138.1322   77.6124  221.1636 H   0  0  0  0  0  0  0  0  0  0  0  0
  137.9542   76.8902  224.0661 H   0  0  0  0  0  0  0  0  0  0  0  0
  136.6756   77.4757  222.9485 H   0  0  0  0  0  0  0  0  0  0  0  0
  137.1432   75.7413  222.9485 H   0  0  0  0  0  0  0  0  0  0  0  0
  140.0110   75.4390  221.5660 H   0  0  0  0  0  0  0  0  0  0  0  0
  137.7723   73.2527  219.6655 H   0  0  0  0  0  0  0  0  0  0  0  0
  139.5065   73.7176  219.9744 H   0  0  0  0  0  0  0  0  0  0  0  0
  137.9140   71.7940  221.5260 H   0  0  0  0  0  0  0  0  0  0  0  0
  139.1193   70.1256  222.2113 H   0  0  0  0  0  0  0  0  0  0  0  0
  139.3820   68.4733  224.0136 H   0  0  0  0  0  0  0  0  0  0  0  0
  140.0235   67.8937  226.3089 H   0  0  0  0  0  0  0  0  0  0  0  0
  141.4857   70.9620  228.8999 H   0  0  0  0  0  0  0  0  0  0  0  0
  141.2121   72.6136  227.0783 H   0  0  0  0  0  0  0  0  0  0  0  0
  1  2  1  0
  2  3  1  0
  3  4  2  0
  4  5  1  0
  5  6  2  0
  6  7  1  0
  7  8  2  0
  8  9  1  0
  9 10  1  0
  9 11  1  0
 11 12  1  0
 12 13  2  0
 12 14  1  0
 14 15  1  0
 15 16  1  0
 16 17  2  0
 16 18  1  0
 18 19  2  0
 19 20  1  0
 20 21  2  0
 21 22  1  0
 22 23  2  0
 23 24  1  0
 23 25  1  0
 25 26  2  0
 26 27  1  0
 27 28  2  0
  8  3  1  0
 28 18  1  0
 27 21  1  0
  1 29  1  0
  1 30  1  0
  1 31  1  0
  4 32  1  0
  5 33  1  0
  6 34  1  0
  7 35  1  0
  9 36  1  6
 10 37  1  0
 10 38  1  0
 10 39  1  0
 11 40  1  0
 14 41  1  0
 14 42  1  0
 15 43  1  0
 19 44  1  0
 20 45  1  0
 22 46  1  0
 25 47  1  0
 26 48  1  0
M  END
>  <smiles>  (7) 
COc1ccccc1[C@H](C)NC(=O)CNC(=O)c1ccc2cc(Cl)ccc2n1

>  <score_type>  (7) 
oracle

>  <origin>  (7) 
autodockgpu

>  <m_score__min__energy>  (7) 
-8.4199999999999999

>  <m_primary>  (7) 
energy

>  <rmsd>  (7) 
4.546837281321318

>  <m_score__min__rmsd>  (7) 
4.546837281321318

>  <meeko>  (7) 
{"free_energy": -7.52, "intermolecular_energy": -9.31, "internal_energy": -2.2, "cluster_size": 17, "cluster_id": 1, "rank_in_cluster": 15}

>  <energy>  (7) 
-8.09

>  <cluster_rmsd>  (7) 
1.55

>  <cluster>  (7) 
1

$$$$

     RDKit          3D

 48 50  0  0  0  0  0  0  0  0999 V2000
  142.1000   79.5680  218.9650 C   0  0  0  0  0  0  0  0  0  0  0  0
  141.8010   80.4420  220.0230 O   0  0  0  0  0  0  0  0  0  0  0  0
  141.7110   80.0860  221.3550 C   0  0  0  0  0  0  0  0  0  0  0  0
  142.7210   80.5290  222.1890 C   0  0  0  0  0  0  0  0  0  0  0  0
  142.7180   80.2210  223.5360 C   0  0  0  0  0  0  0  0  0  0  0  0
  141.6700   79.4620  223.9980 C   0  0  0  0  0  0  0  0  0  0  0  0
  140.6650   79.0220  223.1660 C   0  0  0  0  0  0  0  0  0  0  0  0
  140.6500   79.3210  221.7960 C   0  0  0  0  0  0  0  0  0  0  0  0
  139.5620   78.8350  220.9460 C   0  0  2  0  0  0  0  0  0  0  0  0
  138.1800   78.9890  221.5700 C   0  0  0  0  0  0  0  0  0  0  0  0
  139.6790   77.4700  220.5070 N   0  0  0  0  0  0  0  0  0  0  0  0
  139.5100   76.4490  221.4860 C   0  0  0  0  0  0  0  0  0  0  0  0
  139.2660   76.7670  222.7000 O   0  0  0  0  0  0  0  0  0  0  0  0
  139.6210   75.0250  221.0860 C   0  0  0  0  0  0  0  0  0  0  0  0
  139.5880   74.1280  222.2050 N   0  0  0  0  0  0  0  0  0  0  0  0
  140.0890   72.8020  221.9960 C   0  0  0  0  0  0  0  0  0  0  0  0
  140.5260   72.4960  220.8570 O   0  0  0  0  0  0  0  0  0  0  0  0
  140.0840   71.8420  223.0890 C   0  0  0  0  0  0  0  0  0  0  0  0
  139.5740   70.5770  222.8600 C   0  0  0  0  0  0  0  0  0  0  0  0
  139.5730   69.6780  223.8970 C   0  0  0  0  0  0  0  0  0  0  0  0
  140.0570   69.9730  225.1510 C   0  0  0  0  0  0  0  0  0  0  0  0
  140.0620   69.0810  226.2000 C   0  0  0  0  0  0  0  0  0  0  0  0
  140.5520   69.4160  227.4300 C   0  0  0  0  0  0  0  0  0  0  0  0
  140.5200   68.2220  228.7040 Cl  0  0  0  0  0  0  0  0  0  0  0  0
  141.0550   70.6850  227.6270 C   0  0  0  0  0  0  0  0  0  0  0  0
  141.0540   71.5930  226.5790 C   0  0  0  0  0  0  0  0  0  0  0  0
  140.5630   71.2630  225.3340 C   0  0  0  0  0  0  0  0  0  0  0  0
  140.5590   72.1390  224.3120 N   0  0  0  0  0  0  0  0  0  0  0  0
  142.4309   78.6007  219.3709 H   0  0  0  0  0  0  0  0  0  0  0  0
  141.2018   79.4187  218.3477 H   0  0  0  0  0  0  0  0  0  0  0  0
  142.9014   80.0001  218.3477 H   0  0  0  0  0  0  0  0  0  0  0  0
  143.5392   81.1358  221.7739 H   0  0  0  0  0  0  0  0  0  0  0  0
  143.5176   80.5674  224.2073 H   0  0  0  0  0  0  0  0  0  0  0  0
  141.6327   79.1978  225.0651 H   0  0  0  0  0  0  0  0  0  0  0  0
  139.8490   78.4175  223.5888 H   0  0  0  0  0  0  0  0  0  0  0  0
  139.6668   79.4936  220.0712 H   0  0  0  0  0  0  0  0  0  0  0  0
  138.2695   78.9790  222.6663 H   0  0  0  0  0  0  0  0  0  0  0  0
  137.7360   79.9422  221.2470 H   0  0  0  0  0  0  0  0  0  0  0  0
  137.5371   78.1569  221.2470 H   0  0  0  0  0  0  0  0  0  0  0  0
  139.8780   77.1590  219.5410 H   0  0  0  0  0  0  0  0  0  0  0  0
  138.7830   74.7820  220.4162 H   0  0  0  0  0  0  0  0  0  0  0  0
  140.5931   74.8963  220.5876 H   0  0  0  0  0  0  0  0  0  0  0  0
  139.2130   74.4170  223.1570 H   0  0  0  0  0  0  0  0  0  0  0  0
  139.1792   70.2985  221.8718 H   0  0  0  0  0  0  0  0  0  0  0  0
  139.1653   68.6723  223.7170 H   0  0  0  0  0  0  0  0  0  0  0  0
  139.6597   68.0694  226.0428 H   0  0  0  0  0  0  0  0  0  0  0  0
  141.4547   70.9752  228.6099 H   0  0  0  0  0  0  0  0  0  0  0  0
  141.4557   72.6034  226.7456 H   0  0  0  0  0  0  0  0  0  0  0  0
  1  2  1  0
  2  3  1  0
  3  4  2  0
  4  5  1  0
  5  6  2  0
  6  7  1  0
  7  8  2  0
  8  9  1  0
  9 10  1  0
  9 11  1  0
 11 12  1  0
 12 13  2  0
 12 14  1  0
 14 15  1  0
 15 16  1  0
 16 17  2  0
 16 18  1  0
 18 19  2  0
 19 20  1  0
 20 21  2  0
 21 22  1  0
 22 23  2  0
 23 24  1  0
 23 25  1  0
 25 26  2  0
 26 27  1  0
 27 28  2  0
  8  3  1  0
 28 18  1  0
 27 21  1  0
  1 29  1  0
  1 30  1  0
  1 31  1  0
  4 32  1  0
  5 33  1  0
  6 34  1  0
  7 35  1  0
  9 36  1  6
 10 37  1  0
 10 38  1  0
 10 39  1  0
 11 40  1  0
 14 41  1  0
 14 42  1  0
 15 43  1  0
 19 44  1  0
 20 45  1  0
 22 46  1  0
 25 47  1  0
 26 48  1  0
M  END
>  <smiles>  (8) 
COc1ccccc1[C@H](C)NC(=O)CNC(=O)c1ccc2cc(Cl)ccc2n1

>  <score_type>  (8) 
oracle

>  <origin>  (8) 
autodockgpu

>  <m_score__min__energy>  (8) 
-8.4199999999999999

>  <m_primary>  (8) 
energy

>  <rmsd>  (8) 
4.155470508420709

>  <m_score__min__rmsd>  (8) 
4.155470508420709

>  <meeko>  (8) 
{"free_energy": -8.03, "intermolecular_energy": -9.82, "internal_energy": -1.14, "cluster_size": 17, "cluster_id": 1, "rank_in_cluster": 8}

>  <energy>  (8) 
-8.03

>  <cluster_rmsd>  (8) 
1.28

>  <cluster>  (8) 
1

$$$$

     RDKit          3D

 48 50  0  0  0  0  0  0  0  0999 V2000
  141.4020   75.9310  221.1360 C   0  0  0  0  0  0  0  0  0  0  0  0
  140.5340   76.0960  222.2280 O   0  0  0  0  0  0  0  0  0  0  0  0
  139.9790   77.2950  222.6340 C   0  0  0  0  0  0  0  0  0  0  0  0
  140.8580   78.3120  222.9590 C   0  0  0  0  0  0  0  0  0  0  0  0
  140.3960   79.5450  223.3770 C   0  0  0  0  0  0  0  0  0  0  0  0
  139.0340   79.7060  223.4510 C   0  0  0  0  0  0  0  0  0  0  0  0
  138.1600   78.6920  223.1280 C   0  0  0  0  0  0  0  0  0  0  0  0
  138.6070   77.4330  222.7020 C   0  0  0  0  0  0  0  0  0  0  0  0
  137.6450   76.3830  222.3670 C   0  0  2  0  0  0  0  0  0  0  0  0
  136.6120   76.1260  223.4570 C   0  0  0  0  0  0  0  0  0  0  0  0
  138.2140   75.1090  222.0120 N   0  0  0  0  0  0  0  0  0  0  0  0
  138.0110   74.6490  220.6800 C   0  0  0  0  0  0  0  0  0  0  0  0
  137.3450   75.3620  219.8550 O   0  0  0  0  0  0  0  0  0  0  0  0
  138.5750   73.3420  220.2640 C   0  0  0  0  0  0  0  0  0  0  0  0
  138.6260   72.3890  221.3360 N   0  0  0  0  0  0  0  0  0  0  0  0
  139.6870   72.5310  222.2880 C   0  0  0  0  0  0  0  0  0  0  0  0
  140.5100   73.4700  222.1370 O   0  0  0  0  0  0  0  0  0  0  0  0
  139.7960   71.5980  223.3990 C   0  0  0  0  0  0  0  0  0  0  0  0
  139.3420   70.3030  223.2270 C   0  0  0  0  0  0  0  0  0  0  0  0
  139.4480   69.4300  224.2800 C   0  0  0  0  0  0  0  0  0  0  0  0
  139.9870   69.7800  225.4980 C   0  0  0  0  0  0  0  0  0  0  0  0
  140.1000   68.9150  226.5620 C   0  0  0  0  0  0  0  0  0  0  0  0
  140.6410   69.3050  227.7550 C   0  0  0  0  0  0  0  0  0  0  0  0
  140.7460   68.1410  229.0530 Cl  0  0  0  0  0  0  0  0  0  0  0  0
  141.0850   70.6020  227.8960 C   0  0  0  0  0  0  0  0  0  0  0  0
  140.9770   71.4830  226.8310 C   0  0  0  0  0  0  0  0  0  0  0  0
  140.4330   71.0990  225.6240 C   0  0  0  0  0  0  0  0  0  0  0  0
  140.3240   71.9480  224.5860 N   0  0  0  0  0  0  0  0  0  0  0  0
  142.4206   75.7374  221.5033 H   0  0  0  0  0  0  0  0  0  0  0  0
  141.0648   75.0809  220.5248 H   0  0  0  0  0  0  0  0  0  0  0  0
  141.4003   76.8456  220.5248 H   0  0  0  0  0  0  0  0  0  0  0  0
  141.9413   78.1365  222.8835 H   0  0  0  0  0  0  0  0  0  0  0  0
  141.0869   80.3600  223.6384 H   0  0  0  0  0  0  0  0  0  0  0  0
  138.6288   80.6748  223.7784 H   0  0  0  0  0  0  0  0  0  0  0  0
  137.0782   78.8752  223.2066 H   0  0  0  0  0  0  0  0  0  0  0  0
  137.1658   76.8124  221.4748 H   0  0  0  0  0  0  0  0  0  0  0  0
  137.0834   76.2433  224.4439 H   0  0  0  0  0  0  0  0  0  0  0  0
  135.7865   76.8462  223.3570 H   0  0  0  0  0  0  0  0  0  0  0  0
  136.2202   75.1030  223.3570 H   0  0  0  0  0  0  0  0  0  0  0  0
  138.7560   74.4920  222.6410 H   0  0  0  0  0  0  0  0  0  0  0  0
  137.9497   72.9305  219.4580 H   0  0  0  0  0  0  0  0  0  0  0  0
  139.6081   73.5194  219.9306 H   0  0  0  0  0  0  0  0  0  0  0  0
  137.9140   71.6050  221.4360 H   0  0  0  0  0  0  0  0  0  0  0  0
  138.9066   69.9809  222.2695 H   0  0  0  0  0  0  0  0  0  0  0  0
  139.0848   68.4005  224.1448 H   0  0  0  0  0  0  0  0  0  0  0  0
  139.7448   67.8800  226.4493 H   0  0  0  0  0  0  0  0  0  0  0  0
  141.5226   70.9364  228.8482 H   0  0  0  0  0  0  0  0  0  0  0  0
  141.3350   72.5160  226.9524 H   0  0  0  0  0  0  0  0  0  0  0  0
  1  2  1  0
  2  3  1  0
  3  4  2  0
  4  5  1  0
  5  6  2  0
  6  7  1  0
  7  8  2  0
  8  9  1  0
  9 10  1  0
  9 11  1  0
 11 12  1  0
 12 13  2  0
 12 14  1  0
 14 15  1  0
 15 16  1  0
 16 17  2  0
 16 18  1  0
 18 19  2  0
 19 20  1  0
 20 21  2  0
 21 22  1  0
 22 23  2  0
 23 24  1  0
 23 25  1  0
 25 26  2  0
 26 27  1  0
 27 28  2  0
  8  3  1  0
 28 18  1  0
 27 21  1  0
  1 29  1  0
  1 30  1  0
  1 31  1  0
  4 32  1  0
  5 33  1  0
  6 34  1  0
  7 35  1  0
  9 36  1  6
 10 37  1  0
 10 38  1  0
 10 39  1  0
 11 40  1  0
 14 41  1  0
 14 42  1  0
 15 43  1  0
 19 44  1  0
 20 45  1  0
 22 46  1  0
 25 47  1  0
 26 48  1  0
M  END
>  <smiles>  (9) 
COc1ccccc1[C@H](C)NC(=O)CNC(=O)c1ccc2cc(Cl)ccc2n1

>  <score_type>  (9) 
oracle

>  <origin>  (9) 
autodockgpu

>  <m_score__min__energy>  (9) 
-8.4199999999999999

>  <m_primary>  (9) 
energy

>  <rmsd>  (9) 
4.88718015195813

>  <m_score__min__rmsd>  (9) 
4.88718015195813

>  <meeko>  (9) 
{"free_energy": -7.84, "intermolecular_energy": -9.63, "internal_energy": -1.98, "cluster_size": 17, "cluster_id": 1, "rank_in_cluster": 9}

>  <energy>  (9) 
-7.84

>  <cluster_rmsd>  (9) 
1.84

>  <cluster>  (9) 
1

$$$$

     RDKit          3D

 48 50  0  0  0  0  0  0  0  0999 V2000
  140.7990   71.8140  222.5970 C   0  0  0  0  0  0  0  0  0  0  0  0
  140.2970   72.1660  223.8600 O   0  0  0  0  0  0  0  0  0  0  0  0
  140.2310   71.3270  224.9570 C   0  0  0  0  0  0  0  0  0  0  0  0
  141.2350   71.4530  225.9000 C   0  0  0  0  0  0  0  0  0  0  0  0
  141.2540   70.6570  227.0300 C   0  0  0  0  0  0  0  0  0  0  0  0
  140.2350   69.7450  227.1640 C   0  0  0  0  0  0  0  0  0  0  0  0
  139.2370   69.6210  226.2240 C   0  0  0  0  0  0  0  0  0  0  0  0
  139.1990   70.4180  225.0710 C   0  0  0  0  0  0  0  0  0  0  0  0
  138.1190   70.2560  224.0970 C   0  0  2  0  0  0  0  0  0  0  0  0
  138.3840   69.1680  223.0630 C   0  0  0  0  0  0  0  0  0  0  0  0
  137.7470   71.4450  223.3760 N   0  0  0  0  0  0  0  0  0  0  0  0
  136.3570   71.6900  223.1890 C   0  0  0  0  0  0  0  0  0  0  0  0
  135.4980   70.8670  223.6540 O   0  0  0  0  0  0  0  0  0  0  0  0
  135.9210   72.9010  222.4520 C   0  0  0  0  0  0  0  0  0  0  0  0
  136.7830   74.0270  222.6700 N   0  0  0  0  0  0  0  0  0  0  0  0
  137.9840   74.0930  221.8910 C   0  0  0  0  0  0  0  0  0  0  0  0
  138.2180   73.1720  221.0670 O   0  0  0  0  0  0  0  0  0  0  0  0
  138.9020   75.2080  222.0630 C   0  0  0  0  0  0  0  0  0  0  0  0
  140.2310   75.0350  221.7220 C   0  0  0  0  0  0  0  0  0  0  0  0
  141.0900   76.0910  221.8880 C   0  0  0  0  0  0  0  0  0  0  0  0
  140.6920   77.3170  222.3750 C   0  0  0  0  0  0  0  0  0  0  0  0
  141.5430   78.3850  222.5460 C   0  0  0  0  0  0  0  0  0  0  0  0
  141.1060   79.5840  223.0330 C   0  0  0  0  0  0  0  0  0  0  0  0
  142.2540   80.8880  223.2180 Cl  0  0  0  0  0  0  0  0  0  0  0  0
  139.7760   79.7280  223.3640 C   0  0  0  0  0  0  0  0  0  0  0  0
  138.9090   78.6580  223.1970 C   0  0  0  0  0  0  0  0  0  0  0  0
  139.3400   77.4440  222.7050 C   0  0  0  0  0  0  0  0  0  0  0  0
  138.5050   76.4020  222.5400 N   0  0  0  0  0  0  0  0  0  0  0  0
  141.6940   71.1864  222.7201 H   0  0  0  0  0  0  0  0  0  0  0  0
  140.0325   71.2545  222.0407 H   0  0  0  0  0  0  0  0  0  0  0  0
  141.0638   72.7253  222.0407 H   0  0  0  0  0  0  0  0  0  0  0  0
  142.0302   72.1978  225.7485 H   0  0  0  0  0  0  0  0  0  0  0  0
  142.0474   70.7493  227.7863 H   0  0  0  0  0  0  0  0  0  0  0  0
  140.2161   69.0936  228.0502 H   0  0  0  0  0  0  0  0  0  0  0  0
  138.4452   68.8739  226.3822 H   0  0  0  0  0  0  0  0  0  0  0  0
  137.2837   69.9711  224.7536 H   0  0  0  0  0  0  0  0  0  0  0  0
  138.6142   68.2227  223.5762 H   0  0  0  0  0  0  0  0  0  0  0  0
  137.4919   69.0355  222.4333 H   0  0  0  0  0  0  0  0  0  0  0  0
  139.2371   69.4606  222.4333 H   0  0  0  0  0  0  0  0  0  0  0  0
  138.4010   72.1400  222.9770 H   0  0  0  0  0  0  0  0  0  0  0  0
  135.9082   72.6717  221.3762 H   0  0  0  0  0  0  0  0  0  0  0  0
  134.9222   73.1726  222.8242 H   0  0  0  0  0  0  0  0  0  0  0  0
  136.5560   74.7910  223.3750 H   0  0  0  0  0  0  0  0  0  0  0  0
  140.5905   74.0733  221.3271 H   0  0  0  0  0  0  0  0  0  0  0  0
  142.1477   75.9527  221.6194 H   0  0  0  0  0  0  0  0  0  0  0  0
  142.6049   78.2698  222.2831 H   0  0  0  0  0  0  0  0  0  0  0  0
  139.4042   80.6853  223.7581 H   0  0  0  0  0  0  0  0  0  0  0  0
  137.8491   78.7813  223.4643 H   0  0  0  0  0  0  0  0  0  0  0  0
  1  2  1  0
  2  3  1  0
  3  4  2  0
  4  5  1  0
  5  6  2  0
  6  7  1  0
  7  8  2  0
  8  9  1  0
  9 10  1  0
  9 11  1  0
 11 12  1  0
 12 13  2  0
 12 14  1  0
 14 15  1  0
 15 16  1  0
 16 17  2  0
 16 18  1  0
 18 19  2  0
 19 20  1  0
 20 21  2  0
 21 22  1  0
 22 23  2  0
 23 24  1  0
 23 25  1  0
 25 26  2  0
 26 27  1  0
 27 28  2  0
  8  3  1  0
 28 18  1  0
 27 21  1  0
  1 29  1  0
  1 30  1  0
  1 31  1  0
  4 32  1  0
  5 33  1  0
  6 34  1  0
  7 35  1  0
  9 36  1  1
 10 37  1  0
 10 38  1  0
 10 39  1  0
 11 40  1  0
 14 41  1  0
 14 42  1  0
 15 43  1  0
 19 44  1  0
 20 45  1  0
 22 46  1  0
 25 47  1  0
 26 48  1  0
M  END
>  <smiles>  (10) 
COc1ccccc1[C@H](C)NC(=O)CNC(=O)c1ccc2cc(Cl)ccc2n1

>  <score_type>  (10) 
oracle

>  <origin>  (10) 
autodockgpu

>  <m_score__min__energy>  (10) 
-8.4199999999999999

>  <m_primary>  (10) 
energy

>  <rmsd>  (10) 
9.762760511503856

>  <m_score__min__rmsd>  (10) 
9.762760511503856

>  <meeko>  (10) 
{"free_energy": -6.98, "intermolecular_energy": -8.77, "internal_energy": -2.81, "cluster_size": 17, "cluster_id": 3, "rank_in_cluster": 15}

>  <energy>  (10) 
-7.77

>  <cluster_rmsd>  (10) 
1.82

>  <cluster>  (10) 
1

$$$$

     RDKit          3D

 48 50  0  0  0  0  0  0  0  0999 V2000
  137.6650   79.6280  222.0050 C   0  0  0  0  0  0  0  0  0  0  0  0
  138.7220   78.8060  222.4290 O   0  0  0  0  0  0  0  0  0  0  0  0
  139.9690   79.2480  222.8280 C   0  0  0  0  0  0  0  0  0  0  0  0
  140.0290   80.4960  223.4210 C   0  0  0  0  0  0  0  0  0  0  0  0
  141.2310   81.0230  223.8510 C   0  0  0  0  0  0  0  0  0  0  0  0
  142.3520   80.2510  223.6610 C   0  0  0  0  0  0  0  0  0  0  0  0
  142.2910   79.0090  223.0700 C   0  0  0  0  0  0  0  0  0  0  0  0
  141.0810   78.4560  222.6250 C   0  0  0  0  0  0  0  0  0  0  0  0
  141.0600   77.1320  222.0030 C   0  0  2  0  0  0  0  0  0  0  0  0
  141.8020   77.0660  220.6740 C   0  0  0  0  0  0  0  0  0  0  0  0
  139.7540   76.5670  221.7880 N   0  0  0  0  0  0  0  0  0  0  0  0
  139.6490   75.1470  221.7720 C   0  0  0  0  0  0  0  0  0  0  0  0
  140.6930   74.4300  221.9440 O   0  0  0  0  0  0  0  0  0  0  0  0
  138.3260   74.5130  221.5530 C   0  0  0  0  0  0  0  0  0  0  0  0
  137.3700   74.8530  222.5680 N   0  0  0  0  0  0  0  0  0  0  0  0
  136.6880   76.1050  222.4320 C   0  0  0  0  0  0  0  0  0  0  0  0
  136.9570   76.8340  221.4430 O   0  0  0  0  0  0  0  0  0  0  0  0
  135.7070   76.5100  223.4270 C   0  0  0  0  0  0  0  0  0  0  0  0
  135.2210   77.8050  223.3940 C   0  0  0  0  0  0  0  0  0  0  0  0
  134.2960   78.1780  224.3360 C   0  0  0  0  0  0  0  0  0  0  0  0
  133.8280   77.3270  225.3110 C   0  0  0  0  0  0  0  0  0  0  0  0
  132.9000   77.6890  226.2620 C   0  0  0  0  0  0  0  0  0  0  0  0
  132.4620   76.8110  227.2130 C   0  0  0  0  0  0  0  0  0  0  0  0
  131.2840   77.3540  228.3820 Cl  0  0  0  0  0  0  0  0  0  0  0  0
  132.9650   75.5270  227.2210 C   0  0  0  0  0  0  0  0  0  0  0  0
  133.9000   75.1510  226.2690 C   0  0  0  0  0  0  0  0  0  0  0  0
  134.3470   76.0290  225.3040 C   0  0  0  0  0  0  0  0  0  0  0  0
  135.2540   75.6720  224.3770 N   0  0  0  0  0  0  0  0  0  0  0  0
  137.1419   80.0348  222.8830 H   0  0  0  0  0  0  0  0  0  0  0  0
  138.0640   80.4555  221.4000 H   0  0  0  0  0  0  0  0  0  0  0  0
  136.9613   79.0375  221.4000 H   0  0  0  0  0  0  0  0  0  0  0  0
  139.1049   81.0780  223.5522 H   0  0  0  0  0  0  0  0  0  0  0  0
  141.2884   82.0146  224.3236 H   0  0  0  0  0  0  0  0  0  0  0  0
  143.3277   80.6371  223.9911 H   0  0  0  0  0  0  0  0  0  0  0  0
  143.2193   78.4328  222.9429 H   0  0  0  0  0  0  0  0  0  0  0  0
  141.5790   76.5325  222.7654 H   0  0  0  0  0  0  0  0  0  0  0  0
  142.8817   76.9700  220.8612 H   0  0  0  0  0  0  0  0  0  0  0  0
  141.4504   76.1956  220.1006 H   0  0  0  0  0  0  0  0  0  0  0  0
  141.6096   77.9848  220.1006 H   0  0  0  0  0  0  0  0  0  0  0  0
  138.8800   77.1000  221.6410 H   0  0  0  0  0  0  0  0  0  0  0  0
  137.9358   74.8422  220.5786 H   0  0  0  0  0  0  0  0  0  0  0  0
  138.4718   73.4233  221.5880 H   0  0  0  0  0  0  0  0  0  0  0  0
  137.1640   74.2140  223.3940 H   0  0  0  0  0  0  0  0  0  0  0  0
  135.5677   78.5178  222.6313 H   0  0  0  0  0  0  0  0  0  0  0  0
  133.9096   79.2076  224.3107 H   0  0  0  0  0  0  0  0  0  0  0  0
  132.5001   78.7137  226.2558 H   0  0  0  0  0  0  0  0  0  0  0  0
  132.6262   74.8051  227.9786 H   0  0  0  0  0  0  0  0  0  0  0  0
  134.2960   74.1248  226.2837 H   0  0  0  0  0  0  0  0  0  0  0  0
  1  2  1  0
  2  3  1  0
  3  4  2  0
  4  5  1  0
  5  6  2  0
  6  7  1  0
  7  8  2  0
  8  9  1  0
  9 10  1  0
  9 11  1  0
 11 12  1  0
 12 13  2  0
 12 14  1  0
 14 15  1  0
 15 16  1  0
 16 17  2  0
 16 18  1  0
 18 19  2  0
 19 20  1  0
 20 21  2  0
 21 22  1  0
 22 23  2  0
 23 24  1  0
 23 25  1  0
 25 26  2  0
 26 27  1  0
 27 28  2  0
  8  3  1  0
 28 18  1  0
 27 21  1  0
  1 29  1  0
  1 30  1  0
  1 31  1  0
  4 32  1  0
  5 33  1  0
  6 34  1  0
  7 35  1  0
  9 36  1  1
 10 37  1  0
 10 38  1  0
 10 39  1  0
 11 40  1  0
 14 41  1  0
 14 42  1  0
 15 43  1  0
 19 44  1  0
 20 45  1  0
 22 46  1  0
 25 47  1  0
 26 48  1  0
M  END
>  <smiles>  (11) 
COc1ccccc1[C@H](C)NC(=O)CNC(=O)c1ccc2cc(Cl)ccc2n1

>  <score_type>  (11) 
oracle

>  <origin>  (11) 
autodockgpu

>  <m_score__min__energy>  (11) 
-8.4199999999999999

>  <m_primary>  (11) 
energy

>  <rmsd>  (11) 
6.201118394752255

>  <m_score__min__rmsd>  (11) 
6.201118394752255

>  <meeko>  (11) 
{"free_energy": -6.51, "intermolecular_energy": -8.3, "internal_energy": -2.75, "cluster_size": 5, "cluster_id": 7, "rank_in_cluster": 4}

>  <energy>  (11) 
-7.59

>  <cluster_rmsd>  (11) 
1.55

>  <cluster>  (11) 
1

$$$$

     RDKit          3D

 48 50  0  0  0  0  0  0  0  0999 V2000
  142.1070   70.9750  220.0790 C   0  0  0  0  0  0  0  0  0  0  0  0
  142.5220   72.2350  219.6180 O   0  0  0  0  0  0  0  0  0  0  0  0
  143.6820   72.8840  219.9990 C   0  0  0  0  0  0  0  0  0  0  0  0
  144.7740   72.0890  220.2950 C   0  0  0  0  0  0  0  0  0  0  0  0
  145.9760   72.6470  220.6860 C   0  0  0  0  0  0  0  0  0  0  0  0
  146.0280   74.0180  220.7640 C   0  0  0  0  0  0  0  0  0  0  0  0
  144.9400   74.8080  220.4680 C   0  0  0  0  0  0  0  0  0  0  0  0
  143.7110   74.2620  220.0700 C   0  0  0  0  0  0  0  0  0  0  0  0
  142.5790   75.1370  219.7640 C   0  0  2  0  0  0  0  0  0  0  0  0
  142.9520   76.6120  219.6660 C   0  0  0  0  0  0  0  0  0  0  0  0
  141.4580   75.0430  220.6620 N   0  0  0  0  0  0  0  0  0  0  0  0
  140.1880   74.7400  220.0950 C   0  0  0  0  0  0  0  0  0  0  0  0
  140.0790   74.5650  218.8340 O   0  0  0  0  0  0  0  0  0  0  0  0
  139.0000   74.6310  220.9770 C   0  0  0  0  0  0  0  0  0  0  0  0
  139.2300   73.7970  222.1220 N   0  0  0  0  0  0  0  0  0  0  0  0
  139.3380   72.3870  221.8930 C   0  0  0  0  0  0  0  0  0  0  0  0
  139.2280   71.9570  220.7170 O   0  0  0  0  0  0  0  0  0  0  0  0
  139.5710   71.4850  223.0110 C   0  0  0  0  0  0  0  0  0  0  0  0
  139.2350   70.1510  222.8700 C   0  0  0  0  0  0  0  0  0  0  0  0
  139.4580   69.3080  223.9290 C   0  0  0  0  0  0  0  0  0  0  0  0
  140.0010   69.7240  225.1230 C   0  0  0  0  0  0  0  0  0  0  0  0
  140.2300   68.8890  226.1930 C   0  0  0  0  0  0  0  0  0  0  0  0
  140.7710   69.3450  227.3610 C   0  0  0  0  0  0  0  0  0  0  0  0
  141.0270   68.2160  228.6690 Cl  0  0  0  0  0  0  0  0  0  0  0  0
  141.0960   70.6800  227.4730 C   0  0  0  0  0  0  0  0  0  0  0  0
  140.8690   71.5320  226.4020 C   0  0  0  0  0  0  0  0  0  0  0  0
  140.3250   71.0810  225.2180 C   0  0  0  0  0  0  0  0  0  0  0  0
  140.1020   71.9010  224.1750 N   0  0  0  0  0  0  0  0  0  0  0  0
  142.1051   70.9694  221.1790 H   0  0  0  0  0  0  0  0  0  0  0  0
  141.0923   70.7653  219.7095 H   0  0  0  0  0  0  0  0  0  0  0  0
  142.7985   70.2034  219.7095 H   0  0  0  0  0  0  0  0  0  0  0  0
  144.6843   70.9954  220.2180 H   0  0  0  0  0  0  0  0  0  0  0  0
  146.8502   72.0231  220.9237 H   0  0  0  0  0  0  0  0  0  0  0  0
  146.9679   74.4991  221.0725 H   0  0  0  0  0  0  0  0  0  0  0  0
  145.0376   75.9009  220.5460 H   0  0  0  0  0  0  0  0  0  0  0  0
  142.2728   74.7483  218.7816 H   0  0  0  0  0  0  0  0  0  0  0  0
  143.0580   77.0314  220.6774 H   0  0  0  0  0  0  0  0  0  0  0  0
  143.9043   76.7142  219.1250 H   0  0  0  0  0  0  0  0  0  0  0  0
  142.1628   77.1546  219.1250 H   0  0  0  0  0  0  0  0  0  0  0  0
  141.4910   75.1780  221.6870 H   0  0  0  0  0  0  0  0  0  0  0  0
  138.7277   75.6382  221.3253 H   0  0  0  0  0  0  0  0  0  0  0  0
  138.1931   74.1695  220.3889 H   0  0  0  0  0  0  0  0  0  0  0  0
  139.3190   74.1920  223.1060 H   0  0  0  0  0  0  0  0  0  0  0  0
  138.7998   69.7753  221.9322 H   0  0  0  0  0  0  0  0  0  0  0  0
  139.1895   68.2470  223.8182 H   0  0  0  0  0  0  0  0  0  0  0  0
  139.9698   67.8239  226.1047 H   0  0  0  0  0  0  0  0  0  0  0  0
  141.5325   71.0672  228.4055 H   0  0  0  0  0  0  0  0  0  0  0  0
  141.1301   72.5961  226.5000 H   0  0  0  0  0  0  0  0  0  0  0  0
  1  2  1  0
  2  3  1  0
  3  4  2  0
  4  5  1  0
  5  6  2  0
  6  7  1  0
  7  8  2  0
  8  9  1  0
  9 10  1  0
  9 11  1  0
 11 12  1  0
 12 13  2  0
 12 14  1  0
 14 15  1  0
 15 16  1  0
 16 17  2  0
 16 18  1  0
 18 19  2  0
 19 20  1  0
 20 21  2  0
 21 22  1  0
 22 23  2  0
 23 24  1  0
 23 25  1  0
 25 26  2  0
 26 27  1  0
 27 28  2  0
  8  3  1  0
 28 18  1  0
 27 21  1  0
  1 29  1  0
  1 30  1  0
  1 31  1  0
  4 32  1  0
  5 33  1  0
  6 34  1  0
  7 35  1  0
  9 36  1  6
 10 37  1  0
 10 38  1  0
 10 39  1  0
 11 40  1  0
 14 41  1  0
 14 42  1  0
 15 43  1  0
 19 44  1  0
 20 45  1  0
 22 46  1  0
 25 47  1  0
 26 48  1  0
M  END
>  <smiles>  (12) 
COc1ccccc1[C@H](C)NC(=O)CNC(=O)c1ccc2cc(Cl)ccc2n1

>  <score_type>  (12) 
oracle

>  <origin>  (12) 
autodockgpu

>  <m_score__min__energy>  (12) 
-8.4199999999999999

>  <m_primary>  (12) 
energy

>  <rmsd>  (12) 
6.2360061508927265

>  <m_score__min__rmsd>  (12) 
6.2360061508927265

>  <meeko>  (12) 
{"free_energy": -7.53, "intermolecular_energy": -9.32, "internal_energy": -1.6, "cluster_size": 1, "cluster_id": 5, "rank_in_cluster": 1}

>  <energy>  (12) 
-7.58

>  <cluster_rmsd>  (12) 
1.27

>  <cluster>  (12) 
1

$$$$

     RDKit          3D

 48 50  0  0  0  0  0  0  0  0999 V2000
  140.7610   71.8220  222.4520 C   0  0  0  0  0  0  0  0  0  0  0  0
  140.3480   72.2060  223.7380 O   0  0  0  0  0  0  0  0  0  0  0  0
  140.2600   71.3690  224.8340 C   0  0  0  0  0  0  0  0  0  0  0  0
  141.2770   71.4520  225.7680 C   0  0  0  0  0  0  0  0  0  0  0  0
  141.2750   70.6530  226.8950 C   0  0  0  0  0  0  0  0  0  0  0  0
  140.2220   69.7830  227.0380 C   0  0  0  0  0  0  0  0  0  0  0  0
  139.2100   69.7010  226.1080 C   0  0  0  0  0  0  0  0  0  0  0  0
  139.1930   70.5010  224.9570 C   0  0  0  0  0  0  0  0  0  0  0  0
  138.0980   70.3840  223.9930 C   0  0  2  0  0  0  0  0  0  0  0  0
  138.3600   69.3700  222.8860 C   0  0  0  0  0  0  0  0  0  0  0  0
  137.6960   71.6110  223.3570 N   0  0  0  0  0  0  0  0  0  0  0  0
  136.3080   71.7860  223.0890 C   0  0  0  0  0  0  0  0  0  0  0  0
  135.4770   70.8700  223.4120 O   0  0  0  0  0  0  0  0  0  0  0  0
  135.8410   73.0320  222.4340 C   0  0  0  0  0  0  0  0  0  0  0  0
  136.7200   74.1430  222.6580 N   0  0  0  0  0  0  0  0  0  0  0  0
  137.9300   74.1860  221.8910 C   0  0  0  0  0  0  0  0  0  0  0  0
  138.1560   73.2600  221.0710 O   0  0  0  0  0  0  0  0  0  0  0  0
  138.8650   75.2860  222.0700 C   0  0  0  0  0  0  0  0  0  0  0  0
  140.1900   75.0950  221.7230 C   0  0  0  0  0  0  0  0  0  0  0  0
  141.0660   76.1370  221.8940 C   0  0  0  0  0  0  0  0  0  0  0  0
  140.6890   77.3630  222.3940 C   0  0  0  0  0  0  0  0  0  0  0  0
  141.5570   78.4170  222.5710 C   0  0  0  0  0  0  0  0  0  0  0  0
  141.1400   79.6180  223.0710 C   0  0  0  0  0  0  0  0  0  0  0  0
  142.3090   80.9020  223.2640 Cl  0  0  0  0  0  0  0  0  0  0  0  0
  139.8130   79.7790  223.4080 C   0  0  0  0  0  0  0  0  0  0  0  0
  138.9290   78.7250  223.2340 C   0  0  0  0  0  0  0  0  0  0  0  0
  139.3400   77.5090  222.7300 C   0  0  0  0  0  0  0  0  0  0  0  0
  138.4890   76.4810  222.5590 N   0  0  0  0  0  0  0  0  0  0  0  0
  141.5644   71.0750  222.5327 H   0  0  0  0  0  0  0  0  0  0  0  0
  139.9095   71.3873  221.9079 H   0  0  0  0  0  0  0  0  0  0  0  0
  141.1326   72.7029  221.9079 H   0  0  0  0  0  0  0  0  0  0  0  0
  142.0998   72.1650  225.6110 H   0  0  0  0  0  0  0  0  0  0  0  0
  142.0794   70.7109  227.6431 H   0  0  0  0  0  0  0  0  0  0  0  0
  140.1860   69.1312  227.9233 H   0  0  0  0  0  0  0  0  0  0  0  0
  138.3903   68.9863  226.2731 H   0  0  0  0  0  0  0  0  0  0  0  0
  137.2795   70.0429  224.6439 H   0  0  0  0  0  0  0  0  0  0  0  0
  138.6115   68.3966  223.3324 H   0  0  0  0  0  0  0  0  0  0  0  0
  137.4592   69.2660  222.2633 H   0  0  0  0  0  0  0  0  0  0  0  0
  139.1984   69.7154  222.2633 H   0  0  0  0  0  0  0  0  0  0  0  0
  138.3260   72.3810  223.0720 H   0  0  0  0  0  0  0  0  0  0  0  0
  135.7695   72.8537  221.3509 H   0  0  0  0  0  0  0  0  0  0  0  0
  134.8652   73.2894  222.8715 H   0  0  0  0  0  0  0  0  0  0  0  0
  136.5000   74.9120  223.3590 H   0  0  0  0  0  0  0  0  0  0  0  0
  140.5333   74.1309  221.3196 H   0  0  0  0  0  0  0  0  0  0  0  0
  142.1201   75.9856  221.6184 H   0  0  0  0  0  0  0  0  0  0  0  0
  142.6159   78.2884  222.3023 H   0  0  0  0  0  0  0  0  0  0  0  0
  139.4575   80.7381  223.8126 H   0  0  0  0  0  0  0  0  0  0  0  0
  137.8719   78.8625  223.5052 H   0  0  0  0  0  0  0  0  0  0  0  0
  1  2  1  0
  2  3  1  0
  3  4  2  0
  4  5  1  0
  5  6  2  0
  6  7  1  0
  7  8  2  0
  8  9  1  0
  9 10  1  0
  9 11  1  0
 11 12  1  0
 12 13  2  0
 12 14  1  0
 14 15  1  0
 15 16  1  0
 16 17  2  0
 16 18  1  0
 18 19  2  0
 19 20  1  0
 20 21  2  0
 21 22  1  0
 22 23  2  0
 23 24  1  0
 23 25  1  0
 25 26  2  0
 26 27  1  0
 27 28  2  0
  8  3  1  0
 28 18  1  0
 27 21  1  0
  1 29  1  0
  1 30  1  0
  1 31  1  0
  4 32  1  0
  5 33  1  0
  6 34  1  0
  7 35  1  0
  9 36  1  1
 10 37  1  0
 10 38  1  0
 10 39  1  0
 11 40  1  0
 14 41  1  0
 14 42  1  0
 15 43  1  0
 19 44  1  0
 20 45  1  0
 22 46  1  0
 25 47  1  0
 26 48  1  0
M  END
>  <smiles>  (13) 
COc1ccccc1[C@H](C)NC(=O)CNC(=O)c1ccc2cc(Cl)ccc2n1

>  <score_type>  (13) 
oracle

>  <origin>  (13) 
autodockgpu

>  <m_score__min__energy>  (13) 
-8.4199999999999999

>  <m_primary>  (13) 
energy

>  <rmsd>  (13) 
9.711050945553966

>  <m_score__min__rmsd>  (13) 
9.711050945553966

>  <meeko>  (13) 
{"free_energy": -7.06, "intermolecular_energy": -8.85, "internal_energy": -2.79, "cluster_size": 17, "cluster_id": 3, "rank_in_cluster": 9}

>  <energy>  (13) 
-7.57

>  <cluster_rmsd>  (13) 
1.25

>  <cluster>  (13) 
1

$$$$

     RDKit          3D

 48 50  0  0  0  0  0  0  0  0999 V2000
  138.1040   79.6630  222.9080 C   0  0  0  0  0  0  0  0  0  0  0  0
  139.2970   79.5400  222.1770 O   0  0  0  0  0  0  0  0  0  0  0  0
  140.5620   79.8300  222.6540 C   0  0  0  0  0  0  0  0  0  0  0  0
  140.6580   80.8430  223.5910 C   0  0  0  0  0  0  0  0  0  0  0  0
  141.8810   81.2040  224.1240 C   0  0  0  0  0  0  0  0  0  0  0  0
  142.9820   80.5120  223.6800 C   0  0  0  0  0  0  0  0  0  0  0  0
  142.8830   79.5040  222.7480 C   0  0  0  0  0  0  0  0  0  0  0  0
  141.6530   79.1210  222.1940 C   0  0  0  0  0  0  0  0  0  0  0  0
  141.5920   78.0430  221.2060 C   0  0  2  0  0  0  0  0  0  0  0  0
  141.8200   78.5100  219.7730 C   0  0  0  0  0  0  0  0  0  0  0  0
  140.3820   77.2640  221.2110 N   0  0  0  0  0  0  0  0  0  0  0  0
  140.5130   75.8500  221.1070 C   0  0  0  0  0  0  0  0  0  0  0  0
  141.6740   75.3240  221.0140 O   0  0  0  0  0  0  0  0  0  0  0  0
  139.2970   75.0000  221.1060 C   0  0  0  0  0  0  0  0  0  0  0  0
  139.2630   74.0740  222.2010 N   0  0  0  0  0  0  0  0  0  0  0  0
  140.0570   72.8870  222.0800 C   0  0  0  0  0  0  0  0  0  0  0  0
  140.7340   72.7200  221.0330 O   0  0  0  0  0  0  0  0  0  0  0  0
  140.0680   71.9060  223.1540 C   0  0  0  0  0  0  0  0  0  0  0  0
  139.5750   70.6390  222.9020 C   0  0  0  0  0  0  0  0  0  0  0  0
  139.5890   69.7200  223.9210 C   0  0  0  0  0  0  0  0  0  0  0  0
  140.0710   69.9980  225.1810 C   0  0  0  0  0  0  0  0  0  0  0  0
  140.0910   69.0860  226.2110 C   0  0  0  0  0  0  0  0  0  0  0  0
  140.5790   69.4050  227.4470 C   0  0  0  0  0  0  0  0  0  0  0  0
  140.5670   68.1870  228.6980 Cl  0  0  0  0  0  0  0  0  0  0  0  0
  141.0640   70.6770  227.6680 C   0  0  0  0  0  0  0  0  0  0  0  0
  141.0490   71.6040  226.6370 C   0  0  0  0  0  0  0  0  0  0  0  0
  140.5590   71.2920  225.3870 C   0  0  0  0  0  0  0  0  0  0  0  0
  140.5410   72.1870  224.3820 N   0  0  0  0  0  0  0  0  0  0  0  0
  138.3295   79.6398  223.9844 H   0  0  0  0  0  0  0  0  0  0  0  0
  137.6162   80.6162  222.6561 H   0  0  0  0  0  0  0  0  0  0  0  0
  137.4320   78.8294  222.6561 H   0  0  0  0  0  0  0  0  0  0  0  0
  139.7482   81.3686  223.9165 H   0  0  0  0  0  0  0  0  0  0  0  0
  141.9690   82.0082  224.8693 H   0  0  0  0  0  0  0  0  0  0  0  0
  143.9726   80.7715  224.0816 H   0  0  0  0  0  0  0  0  0  0  0  0
  143.7971   78.9826  222.4278 H   0  0  0  0  0  0  0  0  0  0  0  0
  142.4215   77.4024  221.5400 H   0  0  0  0  0  0  0  0  0  0  0  0
  142.3026   79.4984  219.7819 H   0  0  0  0  0  0  0  0  0  0  0  0
  142.4681   77.7902  219.2515 H   0  0  0  0  0  0  0  0  0  0  0  0
  140.8539   78.5783  219.2515 H   0  0  0  0  0  0  0  0  0  0  0  0
  139.4200   77.6390  221.2800 H   0  0  0  0  0  0  0  0  0  0  0  0
  138.4131   75.6516  221.1697 H   0  0  0  0  0  0  0  0  0  0  0  0
  139.3057   74.4121  220.1763 H   0  0  0  0  0  0  0  0  0  0  0  0
  138.6810   74.2440  223.0750 H   0  0  0  0  0  0  0  0  0  0  0  0
  139.1814   70.3743  221.9095 H   0  0  0  0  0  0  0  0  0  0  0  0
  139.1961   68.7121  223.7218 H   0  0  0  0  0  0  0  0  0  0  0  0
  139.7034   68.0718  226.0347 H   0  0  0  0  0  0  0  0  0  0  0  0
  141.4602   70.9544  228.6560 H   0  0  0  0  0  0  0  0  0  0  0  0
  141.4387   72.6159  226.8216 H   0  0  0  0  0  0  0  0  0  0  0  0
  1  2  1  0
  2  3  1  0
  3  4  2  0
  4  5  1  0
  5  6  2  0
  6  7  1  0
  7  8  2  0
  8  9  1  0
  9 10  1  0
  9 11  1  0
 11 12  1  0
 12 13  2  0
 12 14  1  0
 14 15  1  0
 15 16  1  0
 16 17  2  0
 16 18  1  0
 18 19  2  0
 19 20  1  0
 20 21  2  0
 21 22  1  0
 22 23  2  0
 23 24  1  0
 23 25  1  0
 25 26  2  0
 26 27  1  0
 27 28  2  0
  8  3  1  0
 28 18  1  0
 27 21  1  0
  1 29  1  0
  1 30  1  0
  1 31  1  0
  4 32  1  0
  5 33  1  0
  6 34  1  0
  7 35  1  0
  9 36  1  1
 10 37  1  0
 10 38  1  0
 10 39  1  0
 11 40  1  0
 14 41  1  0
 14 42  1  0
 15 43  1  0
 19 44  1  0
 20 45  1  0
 22 46  1  0
 25 47  1  0
 26 48  1  0
M  END
>  <smiles>  (14) 
COc1ccccc1[C@H](C)NC(=O)CNC(=O)c1ccc2cc(Cl)ccc2n1

>  <score_type>  (14) 
oracle

>  <origin>  (14) 
autodockgpu

>  <m_score__min__energy>  (14) 
-8.4199999999999999

>  <m_primary>  (14) 
energy

>  <rmsd>  (14) 
3.781439547837625

>  <m_score__min__rmsd>  (14) 
3.781439547837625

>  <meeko>  (14) 
{"free_energy": -8.42, "intermolecular_energy": -10.21, "internal_energy": -1.58, "cluster_size": 17, "cluster_id": 1, "rank_in_cluster": 2}

>  <energy>  (14) 
-7.56

>  <cluster_rmsd>  (14) 
1.72

>  <cluster>  (14) 
1

$$$$

     RDKit          3D

 48 50  0  0  0  0  0  0  0  0999 V2000
  142.3340   77.0770  220.0650 C   0  0  0  0  0  0  0  0  0  0  0  0
  141.9880   78.4230  220.2660 O   0  0  0  0  0  0  0  0  0  0  0  0
  141.5730   78.9720  221.4650 C   0  0  0  0  0  0  0  0  0  0  0  0
  142.5610   79.4330  222.3160 C   0  0  0  0  0  0  0  0  0  0  0  0
  142.2430   79.9970  223.5370 C   0  0  0  0  0  0  0  0  0  0  0  0
  140.9090   80.0730  223.8570 C   0  0  0  0  0  0  0  0  0  0  0  0
  139.9270   79.6140  223.0090 C   0  0  0  0  0  0  0  0  0  0  0  0
  140.2270   79.0390  221.7660 C   0  0  0  0  0  0  0  0  0  0  0  0
  139.1530   78.5640  220.8930 C   0  0  2  0  0  0  0  0  0  0  0  0
  137.7570   78.7650  221.4730 C   0  0  0  0  0  0  0  0  0  0  0  0
  139.2470   77.1870  220.4830 N   0  0  0  0  0  0  0  0  0  0  0  0
  139.1340   76.1930  221.4960 C   0  0  0  0  0  0  0  0  0  0  0  0
  138.9560   76.5410  222.7130 O   0  0  0  0  0  0  0  0  0  0  0  0
  139.2240   74.7590  221.1270 C   0  0  0  0  0  0  0  0  0  0  0  0
  139.3520   73.8970  222.2670 N   0  0  0  0  0  0  0  0  0  0  0  0
  139.5930   72.5070  222.0130 C   0  0  0  0  0  0  0  0  0  0  0  0
  139.6790   72.1190  220.8200 O   0  0  0  0  0  0  0  0  0  0  0  0
  139.7310   71.5790  223.1240 C   0  0  0  0  0  0  0  0  0  0  0  0
  139.3290   70.2670  222.9490 C   0  0  0  0  0  0  0  0  0  0  0  0
  139.4630   69.3980  224.0020 C   0  0  0  0  0  0  0  0  0  0  0  0
  139.9800   69.7680  225.2240 C   0  0  0  0  0  0  0  0  0  0  0  0
  140.1210   68.9070  226.2880 C   0  0  0  0  0  0  0  0  0  0  0  0
  140.6390   69.3170  227.4840 C   0  0  0  0  0  0  0  0  0  0  0  0
  140.7820   68.1570  228.7830 Cl  0  0  0  0  0  0  0  0  0  0  0  0
  141.0320   70.6300  227.6280 C   0  0  0  0  0  0  0  0  0  0  0  0
  140.8950   71.5070  226.5630 C   0  0  0  0  0  0  0  0  0  0  0  0
  140.3740   71.1030  225.3520 C   0  0  0  0  0  0  0  0  0  0  0  0
  140.2380   71.9490  224.3150 N   0  0  0  0  0  0  0  0  0  0  0  0
  142.4613   76.5818  221.0389 H   0  0  0  0  0  0  0  0  0  0  0  0
  141.5360   76.5738  219.4993 H   0  0  0  0  0  0  0  0  0  0  0  0
  143.2757   77.0210  219.4993 H   0  0  0  0  0  0  0  0  0  0  0  0
  143.6161   79.3495  222.0164 H   0  0  0  0  0  0  0  0  0  0  0  0
  143.0212   80.3676  224.2204 H   0  0  0  0  0  0  0  0  0  0  0  0
  140.6167   80.5145  224.8212 H   0  0  0  0  0  0  0  0  0  0  0  0
  138.8743   79.7009  223.3159 H   0  0  0  0  0  0  0  0  0  0  0  0
  139.3013   79.2022  220.0094 H   0  0  0  0  0  0  0  0  0  0  0  0
  137.8118   78.7571  222.5716 H   0  0  0  0  0  0  0  0  0  0  0  0
  137.3541   79.7304  221.1329 H   0  0  0  0  0  0  0  0  0  0  0  0
  137.0981   77.9525  221.1329 H   0  0  0  0  0  0  0  0  0  0  0  0
  139.3940   76.8520  219.5160 H   0  0  0  0  0  0  0  0  0  0  0  0
  138.3134   74.4802  220.5764 H   0  0  0  0  0  0  0  0  0  0  0  0
  140.1279   74.6317  220.5132 H   0  0  0  0  0  0  0  0  0  0  0  0
  139.2740   74.2560  223.2650 H   0  0  0  0  0  0  0  0  0  0  0  0
  138.9120   69.9288  221.9889 H   0  0  0  0  0  0  0  0  0  0  0  0
  139.1420   68.3550  223.8638 H   0  0  0  0  0  0  0  0  0  0  0  0
  139.8078   67.8589  226.1724 H   0  0  0  0  0  0  0  0  0  0  0  0
  141.4520   70.9802  228.5825 H   0  0  0  0  0  0  0  0  0  0  0  0
  141.2105   72.5534  226.6875 H   0  0  0  0  0  0  0  0  0  0  0  0
  1  2  1  0
  2  3  1  0
  3  4  2  0
  4  5  1  0
  5  6  2  0
  6  7  1  0
  7  8  2  0
  8  9  1  0
  9 10  1  0
  9 11  1  0
 11 12  1  0
 12 13  2  0
 12 14  1  0
 14 15  1  0
 15 16  1  0
 16 17  2  0
 16 18  1  0
 18 19  2  0
 19 20  1  0
 20 21  2  0
 21 22  1  0
 22 23  2  0
 23 24  1  0
 23 25  1  0
 25 26  2  0
 26 27  1  0
 27 28  2  0
  8  3  1  0
 28 18  1  0
 27 21  1  0
  1 29  1  0
  1 30  1  0
  1 31  1  0
  4 32  1  0
  5 33  1  0
  6 34  1  0
  7 35  1  0
  9 36  1  6
 10 37  1  0
 10 38  1  0
 10 39  1  0
 11 40  1  0
 14 41  1  0
 14 42  1  0
 15 43  1  0
 19 44  1  0
 20 45  1  0
 22 46  1  0
 25 47  1  0
 26 48  1  0
M  END
>  <smiles>  (15) 
COc1ccccc1[C@H](C)NC(=O)CNC(=O)c1ccc2cc(Cl)ccc2n1

>  <score_type>  (15) 
oracle

>  <origin>  (15) 
autodockgpu

>  <m_score__min__energy>  (15) 
-8.4199999999999999

>  <m_primary>  (15) 
energy

>  <rmsd>  (15) 
4.268916298528936

>  <m_score__min__rmsd>  (15) 
4.268916298528936

>  <meeko>  (15) 
{"free_energy": -7.58, "intermolecular_energy": -9.37, "internal_energy": -1.54, "cluster_size": 17, "cluster_id": 1, "rank_in_cluster": 12}

>  <energy>  (15) 
-7.52

>  <cluster_rmsd>  (15) 
1.66

>  <cluster>  (15) 
1

$$$$

     RDKit          3D

 48 50  0  0  0  0  0  0  0  0999 V2000
  140.7230   72.0270  222.3940 C   0  0  0  0  0  0  0  0  0  0  0  0
  140.3280   72.3850  223.6930 O   0  0  0  0  0  0  0  0  0  0  0  0
  140.2200   71.5170  224.7640 C   0  0  0  0  0  0  0  0  0  0  0  0
  141.2380   71.5510  225.7000 C   0  0  0  0  0  0  0  0  0  0  0  0
  141.2180   70.7190  226.8030 C   0  0  0  0  0  0  0  0  0  0  0  0
  140.1470   69.8680  226.9200 C   0  0  0  0  0  0  0  0  0  0  0  0
  139.1340   69.8350  225.9880 C   0  0  0  0  0  0  0  0  0  0  0  0
  139.1350   70.6690  224.8600 C   0  0  0  0  0  0  0  0  0  0  0  0
  138.0390   70.6040  223.8930 C   0  0  2  0  0  0  0  0  0  0  0  0
  138.2960   69.6450  222.7370 C   0  0  0  0  0  0  0  0  0  0  0  0
  137.6400   71.8620  223.3190 N   0  0  0  0  0  0  0  0  0  0  0  0
  136.2570   72.0440  223.0350 C   0  0  0  0  0  0  0  0  0  0  0  0
  135.4270   71.1070  223.2900 O   0  0  0  0  0  0  0  0  0  0  0  0
  135.7940   73.3230  222.4420 C   0  0  0  0  0  0  0  0  0  0  0  0
  136.6760   74.4190  222.7220 N   0  0  0  0  0  0  0  0  0  0  0  0
  137.8910   74.4910  221.9670 C   0  0  0  0  0  0  0  0  0  0  0  0
  138.1200   73.6010  221.1080 O   0  0  0  0  0  0  0  0  0  0  0  0
  138.8290   75.5780  222.2010 C   0  0  0  0  0  0  0  0  0  0  0  0
  140.1720   75.3620  221.9500 C   0  0  0  0  0  0  0  0  0  0  0  0
  141.0500   76.3920  222.1730 C   0  0  0  0  0  0  0  0  0  0  0  0
  140.6600   77.6290  222.6350 C   0  0  0  0  0  0  0  0  0  0  0  0
  141.5300   78.6710  222.8630 C   0  0  0  0  0  0  0  0  0  0  0  0
  141.0980   79.8840  223.3220 C   0  0  0  0  0  0  0  0  0  0  0  0
  142.2710   81.1510  223.5850 Cl  0  0  0  0  0  0  0  0  0  0  0  0
  139.7540   80.0690  223.5630 C   0  0  0  0  0  0  0  0  0  0  0  0
  138.8670   79.0270  223.3370 C   0  0  0  0  0  0  0  0  0  0  0  0
  139.2930   77.8000  222.8730 C   0  0  0  0  0  0  0  0  0  0  0  0
  138.4390   76.7840  222.6520 N   0  0  0  0  0  0  0  0  0  0  0  0
  141.5371   71.2892  222.4485 H   0  0  0  0  0  0  0  0  0  0  0  0
  139.8676   71.5902  221.8579 H   0  0  0  0  0  0  0  0  0  0  0  0
  141.0739   72.9212  221.8579 H   0  0  0  0  0  0  0  0  0  0  0  0
  142.0758   72.2507  225.5642 H   0  0  0  0  0  0  0  0  0  0  0  0
  142.0228   70.7376  227.5526 H   0  0  0  0  0  0  0  0  0  0  0  0
  140.0966   69.1912  227.7856 H   0  0  0  0  0  0  0  0  0  0  0  0
  138.2989   69.1337  226.1323 H   0  0  0  0  0  0  0  0  0  0  0  0
  137.2202   70.2343  224.5277 H   0  0  0  0  0  0  0  0  0  0  0  0
  138.5615   68.6543  223.1345 H   0  0  0  0  0  0  0  0  0  0  0  0
  137.3885   69.5617  222.1210 H   0  0  0  0  0  0  0  0  0  0  0  0
  139.1235   70.0267  222.1210 H   0  0  0  0  0  0  0  0  0  0  0  0
  138.2700   72.6510  223.0910 H   0  0  0  0  0  0  0  0  0  0  0  0
  135.7233   73.1990  221.3513 H   0  0  0  0  0  0  0  0  0  0  0  0
  134.8183   73.5611  222.8907 H   0  0  0  0  0  0  0  0  0  0  0  0
  136.4530   75.1570  223.4550 H   0  0  0  0  0  0  0  0  0  0  0  0
  140.5270   74.3885  221.5808 H   0  0  0  0  0  0  0  0  0  0  0  0
  142.1181   76.2213  221.9729 H   0  0  0  0  0  0  0  0  0  0  0  0
  142.6029   78.5235  222.6705 H   0  0  0  0  0  0  0  0  0  0  0  0
  139.3866   81.0377  223.9326 H   0  0  0  0  0  0  0  0  0  0  0  0
  137.7959   79.1832  223.5329 H   0  0  0  0  0  0  0  0  0  0  0  0
  1  2  1  0
  2  3  1  0
  3  4  2  0
  4  5  1  0
  5  6  2  0
  6  7  1  0
  7  8  2  0
  8  9  1  0
  9 10  1  0
  9 11  1  0
 11 12  1  0
 12 13  2  0
 12 14  1  0
 14 15  1  0
 15 16  1  0
 16 17  2  0
 16 18  1  0
 18 19  2  0
 19 20  1  0
 20 21  2  0
 21 22  1  0
 22 23  2  0
 23 24  1  0
 23 25  1  0
 25 26  2  0
 26 27  1  0
 27 28  2  0
  8  3  1  0
 28 18  1  0
 27 21  1  0
  1 29  1  0
  1 30  1  0
  1 31  1  0
  4 32  1  0
  5 33  1  0
  6 34  1  0
  7 35  1  0
  9 36  1  1
 10 37  1  0
 10 38  1  0
 10 39  1  0
 11 40  1  0
 14 41  1  0
 14 42  1  0
 15 43  1  0
 19 44  1  0
 20 45  1  0
 22 46  1  0
 25 47  1  0
 26 48  1  0
M  END
>  <smiles>  (16) 
COc1ccccc1[C@H](C)NC(=O)CNC(=O)c1ccc2cc(Cl)ccc2n1

>  <score_type>  (16) 
oracle

>  <origin>  (16) 
autodockgpu

>  <m_score__min__energy>  (16) 
-8.4199999999999999

>  <m_primary>  (16) 
energy

>  <rmsd>  (16) 
9.651201305066774

>  <m_score__min__rmsd>  (16) 
9.651201305066774

>  <meeko>  (16) 
{"free_energy": -7.13, "intermolecular_energy": -8.91, "internal_energy": -2.77, "cluster_size": 17, "cluster_id": 3, "rank_in_cluster": 5}

>  <energy>  (16) 
-7.51

>  <cluster_rmsd>  (16) 
1.05

>  <cluster>  (16) 
1

$$$$

     RDKit          3D

 48 50  0  0  0  0  0  0  0  0999 V2000
  141.2860   75.3920  221.2290 C   0  0  0  0  0  0  0  0  0  0  0  0
  140.5420   75.8170  222.3430 O   0  0  0  0  0  0  0  0  0  0  0  0
  140.3400   77.1330  222.7150 C   0  0  0  0  0  0  0  0  0  0  0  0
  141.4530   77.8430  223.1270 C   0  0  0  0  0  0  0  0  0  0  0  0
  141.3490   79.1640  223.5190 C   0  0  0  0  0  0  0  0  0  0  0  0
  140.0970   79.7280  223.4780 C   0  0  0  0  0  0  0  0  0  0  0  0
  138.9910   79.0190  223.0670 C   0  0  0  0  0  0  0  0  0  0  0  0
  139.0730   77.6780  222.6660 C   0  0  0  0  0  0  0  0  0  0  0  0
  137.8720   76.9610  222.2350 C   0  0  2  0  0  0  0  0  0  0  0  0
  136.6500   77.2350  223.1030 C   0  0  0  0  0  0  0  0  0  0  0  0
  138.0060   75.5320  222.1300 N   0  0  0  0  0  0  0  0  0  0  0  0
  137.7430   74.9410  220.8610 C   0  0  0  0  0  0  0  0  0  0  0  0
  137.4030   75.6790  219.8740 O   0  0  0  0  0  0  0  0  0  0  0  0
  137.8660   73.4720  220.6980 C   0  0  0  0  0  0  0  0  0  0  0  0
  138.3120   72.8140  221.8930 N   0  0  0  0  0  0  0  0  0  0  0  0
  138.3020   71.3820  221.8940 C   0  0  0  0  0  0  0  0  0  0  0  0
  137.9070   70.7810  220.8620 O   0  0  0  0  0  0  0  0  0  0  0  0
  138.7420   70.6520  223.0730 C   0  0  0  0  0  0  0  0  0  0  0  0
  138.4160   69.3130  223.1870 C   0  0  0  0  0  0  0  0  0  0  0  0
  138.8350   68.6330  224.3030 C   0  0  0  0  0  0  0  0  0  0  0  0
  139.5650   69.2190  225.3130 C   0  0  0  0  0  0  0  0  0  0  0  0
  139.9910   68.5480  226.4370 C   0  0  0  0  0  0  0  0  0  0  0  0
  140.7140   69.1690  227.4160 C   0  0  0  0  0  0  0  0  0  0  0  0
  141.2150   68.2430  228.8100 Cl  0  0  0  0  0  0  0  0  0  0  0  0
  141.0240   70.5050  227.2750 C   0  0  0  0  0  0  0  0  0  0  0  0
  140.5990   71.1910  226.1470 C   0  0  0  0  0  0  0  0  0  0  0  0
  139.8700   70.5740  225.1530 C   0  0  0  0  0  0  0  0  0  0  0  0
  139.4550   71.2320  224.0560 N   0  0  0  0  0  0  0  0  0  0  0  0
  142.1939   74.8734  221.5706 H   0  0  0  0  0  0  0  0  0  0  0  0
  140.6777   74.7051  220.6222 H   0  0  0  0  0  0  0  0  0  0  0  0
  141.5687   76.2649  220.6222 H   0  0  0  0  0  0  0  0  0  0  0  0
  142.4356   77.3488  223.1429 H   0  0  0  0  0  0  0  0  0  0  0  0
  142.2280   79.7374  223.8486 H   0  0  0  0  0  0  0  0  0  0  0  0
  139.9746   80.7778  223.7828 H   0  0  0  0  0  0  0  0  0  0  0  0
  138.0120   79.5203  223.0527 H   0  0  0  0  0  0  0  0  0  0  0  0
  137.7294   77.3736  221.2253 H   0  0  0  0  0  0  0  0  0  0  0  0
  136.9324   77.1717  224.1642 H   0  0  0  0  0  0  0  0  0  0  0  0
  136.2642   78.2419  222.8857 H   0  0  0  0  0  0  0  0  0  0  0  0
  135.8712   76.4892  222.8857 H   0  0  0  0  0  0  0  0  0  0  0  0
  138.2730   74.8910  222.8960 H   0  0  0  0  0  0  0  0  0  0  0  0
  136.8823   73.0659  220.4197 H   0  0  0  0  0  0  0  0  0  0  0  0
  138.6197   73.2878  219.9182 H   0  0  0  0  0  0  0  0  0  0  0  0
  138.6410   73.3510  222.7500 H   0  0  0  0  0  0  0  0  0  0  0  0
  137.8353   68.8055  222.4027 H   0  0  0  0  0  0  0  0  0  0  0  0
  138.5751   67.5681  224.3952 H   0  0  0  0  0  0  0  0  0  0  0  0
  139.7424   67.4824  226.5501 H   0  0  0  0  0  0  0  0  0  0  0  0
  141.6047   71.0235  228.0521 H   0  0  0  0  0  0  0  0  0  0  0  0
  140.8506   72.2568  226.0427 H   0  0  0  0  0  0  0  0  0  0  0  0
  1  2  1  0
  2  3  1  0
  3  4  2  0
  4  5  1  0
  5  6  2  0
  6  7  1  0
  7  8  2  0
  8  9  1  0
  9 10  1  0
  9 11  1  0
 11 12  1  0
 12 13  2  0
 12 14  1  0
 14 15  1  0
 15 16  1  0
 16 17  2  0
 16 18  1  0
 18 19  2  0
 19 20  1  0
 20 21  2  0
 21 22  1  0
 22 23  2  0
 23 24  1  0
 23 25  1  0
 25 26  2  0
 26 27  1  0
 27 28  2  0
  8  3  1  0
 28 18  1  0
 27 21  1  0
  1 29  1  0
  1 30  1  0
  1 31  1  0
  4 32  1  0
  5 33  1  0
  6 34  1  0
  7 35  1  0
  9 36  1  6
 10 37  1  0
 10 38  1  0
 10 39  1  0
 11 40  1  0
 14 41  1  0
 14 42  1  0
 15 43  1  0
 19 44  1  0
 20 45  1  0
 22 46  1  0
 25 47  1  0
 26 48  1  0
M  END
>  <smiles>  (17) 
COc1ccccc1[C@H](C)NC(=O)CNC(=O)c1ccc2cc(Cl)ccc2n1

>  <score_type>  (17) 
oracle

>  <origin>  (17) 
autodockgpu

>  <m_score__min__energy>  (17) 
-8.4199999999999999

>  <m_primary>  (17) 
energy

>  <rmsd>  (17) 
4.8908486546597825

>  <m_score__min__rmsd>  (17) 
4.8908486546597825

>  <meeko>  (17) 
{"free_energy": -7.77, "intermolecular_energy": -9.56, "internal_energy": -1.49, "cluster_size": 17, "cluster_id": 1, "rank_in_cluster": 10}

>  <energy>  (17) 
-7.37

>  <cluster_rmsd>  (17) 
1.96

>  <cluster>  (17) 
1

$$$$

     RDKit          3D

 48 50  0  0  0  0  0  0  0  0999 V2000
  140.7240   72.0670  222.3640 C   0  0  0  0  0  0  0  0  0  0  0  0
  140.2730   72.3760  223.6580 O   0  0  0  0  0  0  0  0  0  0  0  0
  140.1310   71.4720  224.6930 C   0  0  0  0  0  0  0  0  0  0  0  0
  141.1230   71.4660  225.6570 C   0  0  0  0  0  0  0  0  0  0  0  0
  141.0690   70.5960  226.7290 C   0  0  0  0  0  0  0  0  0  0  0  0
  139.9900   69.7480  226.7870 C   0  0  0  0  0  0  0  0  0  0  0  0
  139.0030   69.7550  225.8270 C   0  0  0  0  0  0  0  0  0  0  0  0
  139.0390   70.6290  224.7300 C   0  0  0  0  0  0  0  0  0  0  0  0
  137.9690   70.6050  223.7320 C   0  0  2  0  0  0  0  0  0  0  0  0
  138.2470   69.6750  222.5570 C   0  0  0  0  0  0  0  0  0  0  0  0
  137.6020   71.8840  223.1840 N   0  0  0  0  0  0  0  0  0  0  0  0
  136.2140   72.1490  223.0120 C   0  0  0  0  0  0  0  0  0  0  0  0
  135.3520   71.2640  223.3410 O   0  0  0  0  0  0  0  0  0  0  0  0
  135.7820   73.4520  222.4500 C   0  0  0  0  0  0  0  0  0  0  0  0
  136.6870   74.5210  222.7590 N   0  0  0  0  0  0  0  0  0  0  0  0
  137.8780   74.6200  221.9690 C   0  0  0  0  0  0  0  0  0  0  0  0
  138.0670   73.7760  221.0560 O   0  0  0  0  0  0  0  0  0  0  0  0
  138.8390   75.6800  222.2310 C   0  0  0  0  0  0  0  0  0  0  0  0
  140.1760   75.4450  221.9710 C   0  0  0  0  0  0  0  0  0  0  0  0
  141.0760   76.4510  222.2220 C   0  0  0  0  0  0  0  0  0  0  0  0
  140.7110   77.6830  222.7170 C   0  0  0  0  0  0  0  0  0  0  0  0
  141.6020   78.7000  222.9720 C   0  0  0  0  0  0  0  0  0  0  0  0
  141.1960   79.9080  223.4640 C   0  0  0  0  0  0  0  0  0  0  0  0
  142.3940   81.1440  223.7600 Cl  0  0  0  0  0  0  0  0  0  0  0  0
  139.8550   80.1130  223.7130 C   0  0  0  0  0  0  0  0  0  0  0  0
  138.9480   79.0960  223.4600 C   0  0  0  0  0  0  0  0  0  0  0  0
  139.3480   77.8730  222.9630 C   0  0  0  0  0  0  0  0  0  0  0  0
  138.4730   76.8810  222.7150 N   0  0  0  0  0  0  0  0  0  0  0  0
  141.6298   71.4464  222.4299 H   0  0  0  0  0  0  0  0  0  0  0  0
  139.9400   71.5154  221.8244 H   0  0  0  0  0  0  0  0  0  0  0  0
  140.9553   72.9973  221.8244 H   0  0  0  0  0  0  0  0  0  0  0  0
  141.9680   72.1647  225.5688 H   0  0  0  0  0  0  0  0  0  0  0  0
  141.8535   70.5831  227.5000 H   0  0  0  0  0  0  0  0  0  0  0  0
  139.9120   69.0414  227.6264 H   0  0  0  0  0  0  0  0  0  0  0  0
  138.1607   69.0541  225.9230 H   0  0  0  0  0  0  0  0  0  0  0  0
  137.1277   70.2282  224.3321 H   0  0  0  0  0  0  0  0  0  0  0  0
  138.5429   68.6852  222.9348 H   0  0  0  0  0  0  0  0  0  0  0  0
  137.3389   69.5771  221.9441 H   0  0  0  0  0  0  0  0  0  0  0  0
  139.0599   70.0915  221.9441 H   0  0  0  0  0  0  0  0  0  0  0  0
  138.2580   72.6310  222.8990 H   0  0  0  0  0  0  0  0  0  0  0  0
  135.7119   73.3566  221.3564 H   0  0  0  0  0  0  0  0  0  0  0  0
  134.8107   73.7008  222.9024 H   0  0  0  0  0  0  0  0  0  0  0  0
  136.4990   75.2200  223.5390 H   0  0  0  0  0  0  0  0  0  0  0  0
  140.5107   74.4758  221.5727 H   0  0  0  0  0  0  0  0  0  0  0  0
  142.1405   76.2637  222.0177 H   0  0  0  0  0  0  0  0  0  0  0  0
  142.6715   78.5357  222.7741 H   0  0  0  0  0  0  0  0  0  0  0  0
  139.5073   81.0781  224.1101 H   0  0  0  0  0  0  0  0  0  0  0  0
  137.8804   79.2688  223.6610 H   0  0  0  0  0  0  0  0  0  0  0  0
  1  2  1  0
  2  3  1  0
  3  4  2  0
  4  5  1  0
  5  6  2  0
  6  7  1  0
  7  8  2  0
  8  9  1  0
  9 10  1  0
  9 11  1  0
 11 12  1  0
 12 13  2  0
 12 14  1  0
 14 15  1  0
 15 16  1  0
 16 17  2  0
 16 18  1  0
 18 19  2  0
 19 20  1  0
 20 21  2  0
 21 22  1  0
 22 23  2  0
 23 24  1  0
 23 25  1  0
 25 26  2  0
 26 27  1  0
 27 28  2  0
  8  3  1  0
 28 18  1  0
 27 21  1  0
  1 29  1  0
  1 30  1  0
  1 31  1  0
  4 32  1  0
  5 33  1  0
  6 34  1  0
  7 35  1  0
  9 36  1  1
 10 37  1  0
 10 38  1  0
 10 39  1  0
 11 40  1  0
 14 41  1  0
 14 42  1  0
 15 43  1  0
 19 44  1  0
 20 45  1  0
 22 46  1  0
 25 47  1  0
 26 48  1  0
M  END
>  <smiles>  (18) 
COc1ccccc1[C@H](C)NC(=O)CNC(=O)c1ccc2cc(Cl)ccc2n1

>  <score_type>  (18) 
oracle

>  <origin>  (18) 
autodockgpu

>  <m_score__min__energy>  (18) 
-8.4199999999999999

>  <m_primary>  (18) 
energy

>  <rmsd>  (18) 
9.668160734443987

>  <m_score__min__rmsd>  (18) 
9.668160734443987

>  <meeko>  (18) 
{"free_energy": -7.08, "intermolecular_energy": -8.86, "internal_energy": -2.79, "cluster_size": 17, "cluster_id": 3, "rank_in_cluster": 7}

>  <energy>  (18) 
-7.78

>  <cluster_rmsd>  (18) 
0.0

>  <cluster>  (18) 
2

$$$$

     RDKit          3D

 48 50  0  0  0  0  0  0  0  0999 V2000
  142.0900   70.7960  219.8200 C   0  0  0  0  0  0  0  0  0  0  0  0
  142.2050   72.0380  220.4670 O   0  0  0  0  0  0  0  0  0  0  0  0
  143.3370   72.8310  220.4820 C   0  0  0  0  0  0  0  0  0  0  0  0
  144.5410   72.1940  220.7220 C   0  0  0  0  0  0  0  0  0  0  0  0
  145.7260   72.9040  220.7580 C   0  0  0  0  0  0  0  0  0  0  0  0
  145.6460   74.2590  220.5450 C   0  0  0  0  0  0  0  0  0  0  0  0
  144.4470   74.8900  220.3060 C   0  0  0  0  0  0  0  0  0  0  0  0
  143.2320   74.1900  220.2660 C   0  0  0  0  0  0  0  0  0  0  0  0
  141.9790   74.9000  220.0080 C   0  0  2  0  0  0  0  0  0  0  0  0
  142.0030   76.3630  220.4330 C   0  0  0  0  0  0  0  0  0  0  0  0
  140.8000   74.3100  220.5860 N   0  0  0  0  0  0  0  0  0  0  0  0
  139.5500   74.9290  220.2990 C   0  0  0  0  0  0  0  0  0  0  0  0
  139.5100   75.9670  219.5540 O   0  0  0  0  0  0  0  0  0  0  0  0
  138.3040   74.3610  220.8700 C   0  0  0  0  0  0  0  0  0  0  0  0
  138.5400   73.5650  222.0400 N   0  0  0  0  0  0  0  0  0  0  0  0
  139.1130   72.2660  221.8440 C   0  0  0  0  0  0  0  0  0  0  0  0
  139.3770   71.8950  220.6720 O   0  0  0  0  0  0  0  0  0  0  0  0
  139.3770   71.4080  222.9890 C   0  0  0  0  0  0  0  0  0  0  0  0
  139.0150   70.0750  222.9180 C   0  0  0  0  0  0  0  0  0  0  0  0
  139.2680   69.2730  224.0020 C   0  0  0  0  0  0  0  0  0  0  0  0
  139.8650   69.7300  225.1550 C   0  0  0  0  0  0  0  0  0  0  0  0
  140.1240   68.9360  226.2490 C   0  0  0  0  0  0  0  0  0  0  0  0
  140.7190   69.4310  227.3750 C   0  0  0  0  0  0  0  0  0  0  0  0
  141.0110   68.3540  228.7180 Cl  0  0  0  0  0  0  0  0  0  0  0  0
  141.0690   70.7640  227.4160 C   0  0  0  0  0  0  0  0  0  0  0  0
  140.8120   71.5740  226.3200 C   0  0  0  0  0  0  0  0  0  0  0  0
  140.2130   71.0830  225.1790 C   0  0  0  0  0  0  0  0  0  0  0  0
  139.9610   71.8630  224.1120 N   0  0  0  0  0  0  0  0  0  0  0  0
  142.0160   69.9964  220.5718 H   0  0  0  0  0  0  0  0  0  0  0  0
  141.1877   70.7925  219.1909 H   0  0  0  0  0  0  0  0  0  0  0  0
  142.9763   70.6268  219.1909 H   0  0  0  0  0  0  0  0  0  0  0  0
  144.5555   71.1065  220.8866 H   0  0  0  0  0  0  0  0  0  0  0  0
  146.6888   72.4073  220.9484 H   0  0  0  0  0  0  0  0  0  0  0  0
  146.5687   74.8575  220.5662 H   0  0  0  0  0  0  0  0  0  0  0  0
  144.4409   75.9776  220.1411 H   0  0  0  0  0  0  0  0  0  0  0  0
  141.9111   74.8169  218.9132 H   0  0  0  0  0  0  0  0  0  0  0  0
  142.0040   76.4258  221.5312 H   0  0  0  0  0  0  0  0  0  0  0  0
  142.9092   76.8450  220.0373 H   0  0  0  0  0  0  0  0  0  0  0  0
  141.1131   76.8744  220.0373 H   0  0  0  0  0  0  0  0  0  0  0  0
  140.7780   73.4750  221.1960 H   0  0  0  0  0  0  0  0  0  0  0  0
  137.6312   75.1889  221.1382 H   0  0  0  0  0  0  0  0  0  0  0  0
  137.8599   73.7044  220.1073 H   0  0  0  0  0  0  0  0  0  0  0  0
  138.3060   73.9080  223.0190 H   0  0  0  0  0  0  0  0  0  0  0  0
  138.5363   69.6681  222.0151 H   0  0  0  0  0  0  0  0  0  0  0  0
  138.9797   68.2129  223.9470 H   0  0  0  0  0  0  0  0  0  0  0  0
  139.8440   67.8727  226.2159 H   0  0  0  0  0  0  0  0  0  0  0  0
  141.5493   71.1825  228.3128 H   0  0  0  0  0  0  0  0  0  0  0  0
  141.0935   72.6365  226.3620 H   0  0  0  0  0  0  0  0  0  0  0  0
  1  2  1  0
  2  3  1  0
  3  4  2  0
  4  5  1  0
  5  6  2  0
  6  7  1  0
  7  8  2  0
  8  9  1  0
  9 10  1  0
  9 11  1  0
 11 12  1  0
 12 13  2  0
 12 14  1  0
 14 15  1  0
 15 16  1  0
 16 17  2  0
 16 18  1  0
 18 19  2  0
 19 20  1  0
 20 21  2  0
 21 22  1  0
 22 23  2  0
 23 24  1  0
 23 25  1  0
 25 26  2  0
 26 27  1  0
 27 28  2  0
  8  3  1  0
 28 18  1  0
 27 21  1  0
  1 29  1  0
  1 30  1  0
  1 31  1  0
  4 32  1  0
  5 33  1  0
  6 34  1  0
  7 35  1  0
  9 36  1  6
 10 37  1  0
 10 38  1  0
 10 39  1  0
 11 40  1  0
 14 41  1  0
 14 42  1  0
 15 43  1  0
 19 44  1  0
 20 45  1  0
 22 46  1  0
 25 47  1  0
 26 48  1  0
M  END
>  <smiles>  (19) 
COc1ccccc1[C@H](C)NC(=O)CNC(=O)c1ccc2cc(Cl)ccc2n1

>  <score_type>  (19) 
oracle

>  <origin>  (19) 
autodockgpu

>  <m_score__min__energy>  (19) 
-8.4199999999999999

>  <m_primary>  (19) 
energy

>  <rmsd>  (19) 
6.128816168592604

>  <m_score__min__rmsd>  (19) 
6.128816168592604

>  <meeko>  (19) 
{"free_energy": -7.21, "intermolecular_energy": -9.0, "internal_energy": -2.44, "cluster_size": 8, "cluster_id": 2, "rank_in_cluster": 5}

>  <energy>  (19) 
-7.51

>  <cluster_rmsd>  (19) 
0.54

>  <cluster>  (19) 
2

$$$$

     RDKit          3D

 48 50  0  0  0  0  0  0  0  0999 V2000
  140.6790   71.7860  223.1030 C   0  0  0  0  0  0  0  0  0  0  0  0
  140.2710   72.0050  224.4290 O   0  0  0  0  0  0  0  0  0  0  0  0
  140.1750   71.0340  225.4080 C   0  0  0  0  0  0  0  0  0  0  0  0
  141.1050   71.0840  226.4310 C   0  0  0  0  0  0  0  0  0  0  0  0
  141.0890   70.1550  227.4530 C   0  0  0  0  0  0  0  0  0  0  0  0
  140.1120   69.1900  227.4010 C   0  0  0  0  0  0  0  0  0  0  0  0
  139.1880   69.1420  226.3820 C   0  0  0  0  0  0  0  0  0  0  0  0
  139.1860   70.0740  225.3340 C   0  0  0  0  0  0  0  0  0  0  0  0
  138.1850   69.9880  224.2710 C   0  0  2  0  0  0  0  0  0  0  0  0
  138.6180   69.1290  223.0880 C   0  0  0  0  0  0  0  0  0  0  0  0
  137.7340   71.2460  223.7380 N   0  0  0  0  0  0  0  0  0  0  0  0
  136.6180   71.2210  222.8530 C   0  0  0  0  0  0  0  0  0  0  0  0
  136.0620   70.1080  222.5630 O   0  0  0  0  0  0  0  0  0  0  0  0
  136.1130   72.4910  222.2760 C   0  0  0  0  0  0  0  0  0  0  0  0
  136.9540   73.6140  222.5780 N   0  0  0  0  0  0  0  0  0  0  0  0
  138.0070   73.9110  221.6530 C   0  0  0  0  0  0  0  0  0  0  0  0
  138.1400   73.1820  220.6370 O   0  0  0  0  0  0  0  0  0  0  0  0
  138.8960   75.0360  221.9000 C   0  0  0  0  0  0  0  0  0  0  0  0
  140.2440   74.8910  221.6310 C   0  0  0  0  0  0  0  0  0  0  0  0
  141.0750   75.9560  221.8670 C   0  0  0  0  0  0  0  0  0  0  0  0
  140.6310   77.1640  222.3570 C   0  0  0  0  0  0  0  0  0  0  0  0
  141.4530   78.2410  222.5990 C   0  0  0  0  0  0  0  0  0  0  0  0
  140.9700   79.4220  223.0870 C   0  0  0  0  0  0  0  0  0  0  0  0
  142.0840   80.7390  223.3640 Cl  0  0  0  0  0  0  0  0  0  0  0  0
  139.6210   79.5380  223.3460 C   0  0  0  0  0  0  0  0  0  0  0  0
  138.7830   78.4590  223.1080 C   0  0  0  0  0  0  0  0  0  0  0  0
  139.2600   77.2640  222.6140 C   0  0  0  0  0  0  0  0  0  0  0  0
  138.4530   76.2130  222.3810 N   0  0  0  0  0  0  0  0  0  0  0  0
  141.6482   71.2658  223.0988 H   0  0  0  0  0  0  0  0  0  0  0  0
  139.9294   71.1690  222.5859 H   0  0  0  0  0  0  0  0  0  0  0  0
  140.7789   72.7517  222.5859 H   0  0  0  0  0  0  0  0  0  0  0  0
  141.8688   71.8756  226.4305 H   0  0  0  0  0  0  0  0  0  0  0  0
  141.8242   70.1861  228.2706 H   0  0  0  0  0  0  0  0  0  0  0  0
  140.0670   68.4330  228.1979 H   0  0  0  0  0  0  0  0  0  0  0  0
  138.4271   68.3476  226.3898 H   0  0  0  0  0  0  0  0  0  0  0  0
  137.3485   69.5157  224.8069 H   0  0  0  0  0  0  0  0  0  0  0  0
  139.0843   68.2039  223.4578 H   0  0  0  0  0  0  0  0  0  0  0  0
  137.7390   68.8774  222.4764 H   0  0  0  0  0  0  0  0  0  0  0  0
  139.3430   69.6860  222.4764 H   0  0  0  0  0  0  0  0  0  0  0  0
  138.1500   72.1720  223.9370 H   0  0  0  0  0  0  0  0  0  0  0  0
  136.0532   72.3809  221.1832 H   0  0  0  0  0  0  0  0  0  0  0  0
  135.1267   72.6874  222.7217 H   0  0  0  0  0  0  0  0  0  0  0  0
  136.8150   74.2120  223.4470 H   0  0  0  0  0  0  0  0  0  0  0  0
  140.6408   73.9438  221.2369 H   0  0  0  0  0  0  0  0  0  0  0  0
  142.1480   75.8398  221.6547 H   0  0  0  0  0  0  0  0  0  0  0  0
  142.5297   78.1482  222.3936 H   0  0  0  0  0  0  0  0  0  0  0  0
  139.2119   80.4805  223.7389 H   0  0  0  0  0  0  0  0  0  0  0  0
  137.7082   78.5596  223.3193 H   0  0  0  0  0  0  0  0  0  0  0  0
  1  2  1  0
  2  3  1  0
  3  4  2  0
  4  5  1  0
  5  6  2  0
  6  7  1  0
  7  8  2  0
  8  9  1  0
  9 10  1  0
  9 11  1  0
 11 12  1  0
 12 13  2  0
 12 14  1  0
 14 15  1  0
 15 16  1  0
 16 17  2  0
 16 18  1  0
 18 19  2  0
 19 20  1  0
 20 21  2  0
 21 22  1  0
 22 23  2  0
 23 24  1  0
 23 25  1  0
 25 26  2  0
 26 27  1  0
 27 28  2  0
  8  3  1  0
 28 18  1  0
 27 21  1  0
  1 29  1  0
  1 30  1  0
  1 31  1  0
  4 32  1  0
  5 33  1  0
  6 34  1  0
  7 35  1  0
  9 36  1  1
 10 37  1  0
 10 38  1  0
 10 39  1  0
 11 40  1  0
 14 41  1  0
 14 42  1  0
 15 43  1  0
 19 44  1  0
 20 45  1  0
 22 46  1  0
 25 47  1  0
 26 48  1  0
M  END
>  <smiles>  (20) 
COc1ccccc1[C@H](C)NC(=O)CNC(=O)c1ccc2cc(Cl)ccc2n1

>  <score_type>  (20) 
oracle

>  <origin>  (20) 
autodockgpu

>  <m_score__min__energy>  (20) 
-8.4199999999999999

>  <m_primary>  (20) 
energy

>  <rmsd>  (20) 
9.921880540664018

>  <m_score__min__rmsd>  (20) 
9.921880540664018

>  <meeko>  (20) 
{"free_energy": -7.61, "intermolecular_energy": -9.4, "internal_energy": -1.98, "cluster_size": 17, "cluster_id": 3, "rank_in_cluster": 1}

>  <energy>  (20) 
-7.26

>  <cluster_rmsd>  (20) 
1.68

>  <cluster>  (20) 
2

$$$$

     RDKit          3D

 48 50  0  0  0  0  0  0  0  0999 V2000
  137.3120   79.4080  222.7690 C   0  0  0  0  0  0  0  0  0  0  0  0
  138.5090   78.7260  222.4930 O   0  0  0  0  0  0  0  0  0  0  0  0
  139.7740   79.1510  222.8530 C   0  0  0  0  0  0  0  0  0  0  0  0
  139.8680   80.3970  223.4470 C   0  0  0  0  0  0  0  0  0  0  0  0
  141.0900   80.9080  223.8400 C   0  0  0  0  0  0  0  0  0  0  0  0
  142.1940   80.1220  223.6110 C   0  0  0  0  0  0  0  0  0  0  0  0
  142.0990   78.8830  223.0200 C   0  0  0  0  0  0  0  0  0  0  0  0
  140.8690   78.3460  222.6130 C   0  0  0  0  0  0  0  0  0  0  0  0
  140.8110   77.0230  221.9890 C   0  0  2  0  0  0  0  0  0  0  0  0
  141.5840   76.9290  220.6790 C   0  0  0  0  0  0  0  0  0  0  0  0
  139.4890   76.5110  221.7390 N   0  0  0  0  0  0  0  0  0  0  0  0
  139.3020   75.1030  221.8410 C   0  0  0  0  0  0  0  0  0  0  0  0
  140.2900   74.3510  222.1440 O   0  0  0  0  0  0  0  0  0  0  0  0
  137.9590   74.5240  221.5920 C   0  0  0  0  0  0  0  0  0  0  0  0
  137.0840   74.6400  222.7230 N   0  0  0  0  0  0  0  0  0  0  0  0
  136.3860   75.8800  222.8860 C   0  0  0  0  0  0  0  0  0  0  0  0
  136.5740   76.7930  222.0420 O   0  0  0  0  0  0  0  0  0  0  0  0
  135.4830   76.0640  224.0120 C   0  0  0  0  0  0  0  0  0  0  0  0
  135.4060   75.0710  224.9710 C   0  0  0  0  0  0  0  0  0  0  0  0
  134.5520   75.2520  226.0300 C   0  0  0  0  0  0  0  0  0  0  0  0
  133.7690   76.3750  226.1830 C   0  0  0  0  0  0  0  0  0  0  0  0
  132.9080   76.5690  227.2390 C   0  0  0  0  0  0  0  0  0  0  0  0
  132.1490   77.6990  227.3520 C   0  0  0  0  0  0  0  0  0  0  0  0
  131.0820   77.8650  228.7250 Cl  0  0  0  0  0  0  0  0  0  0  0  0
  132.2470   78.6720  226.3800 C   0  0  0  0  0  0  0  0  0  0  0  0
  133.1110   78.4870  225.3110 C   0  0  0  0  0  0  0  0  0  0  0  0
  133.8820   77.3510  225.1880 C   0  0  0  0  0  0  0  0  0  0  0  0
  134.7210   77.1640  224.1540 N   0  0  0  0  0  0  0  0  0  0  0  0
  137.1766   79.4851  223.8579 H   0  0  0  0  0  0  0  0  0  0  0  0
  137.3557   80.4168  222.3326 H   0  0  0  0  0  0  0  0  0  0  0  0
  136.4665   78.8560  222.3326 H   0  0  0  0  0  0  0  0  0  0  0  0
  138.9557   80.9899  223.6089 H   0  0  0  0  0  0  0  0  0  0  0  0
  141.1753   81.8971  224.3137 H   0  0  0  0  0  0  0  0  0  0  0  0
  143.1848   80.4952  223.9096 H   0  0  0  0  0  0  0  0  0  0  0  0
  143.0157   78.2959  222.8620 H   0  0  0  0  0  0  0  0  0  0  0  0
  141.2851   76.4023  222.7636 H   0  0  0  0  0  0  0  0  0  0  0  0
  142.6549   76.7988  220.8937 H   0  0  0  0  0  0  0  0  0  0  0  0
  141.2191   76.0686  220.0989 H   0  0  0  0  0  0  0  0  0  0  0  0
  141.4359   77.8518  220.0989 H   0  0  0  0  0  0  0  0  0  0  0  0
  138.6590   77.0750  221.4870 H   0  0  0  0  0  0  0  0  0  0  0  0
  137.5028   75.0488  220.7397 H   0  0  0  0  0  0  0  0  0  0  0  0
  138.0940   73.4518  221.3869 H   0  0  0  0  0  0  0  0  0  0  0  0
  136.9460   73.8490  223.4200 H   0  0  0  0  0  0  0  0  0  0  0  0
  136.0143   74.1583  224.8872 H   0  0  0  0  0  0  0  0  0  0  0  0
  134.4898   74.4624  226.7933 H   0  0  0  0  0  0  0  0  0  0  0  0
  132.8288   75.7922  228.0138 H   0  0  0  0  0  0  0  0  0  0  0  0
  131.6438   79.5890  226.4520 H   0  0  0  0  0  0  0  0  0  0  0  0
  133.1830   79.2683  224.5401 H   0  0  0  0  0  0  0  0  0  0  0  0
  1  2  1  0
  2  3  1  0
  3  4  2  0
  4  5  1  0
  5  6  2  0
  6  7  1  0
  7  8  2  0
  8  9  1  0
  9 10  1  0
  9 11  1  0
 11 12  1  0
 12 13  2  0
 12 14  1  0
 14 15  1  0
 15 16  1  0
 16 17  2  0
 16 18  1  0
 18 19  2  0
 19 20  1  0
 20 21  2  0
 21 22  1  0
 22 23  2  0
 23 24  1  0
 23 25  1  0
 25 26  2  0
 26 27  1  0
 27 28  2  0
  8  3  1  0
 28 18  1  0
 27 21  1  0
  1 29  1  0
  1 30  1  0
  1 31  1  0
  4 32  1  0
  5 33  1  0
  6 34  1  0
  7 35  1  0
  9 36  1  1
 10 37  1  0
 10 38  1  0
 10 39  1  0
 11 40  1  0
 14 41  1  0
 14 42  1  0
 15 43  1  0
 19 44  1  0
 20 45  1  0
 22 46  1  0
 25 47  1  0
 26 48  1  0
M  END
>  <smiles>  (21) 
COc1ccccc1[C@H](C)NC(=O)CNC(=O)c1ccc2cc(Cl)ccc2n1

>  <score_type>  (21) 
oracle

>  <origin>  (21) 
autodockgpu

>  <m_score__min__energy>  (21) 
-8.4199999999999999

>  <m_primary>  (21) 
energy

>  <rmsd>  (21) 
6.222654986161782

>  <m_score__min__rmsd>  (21) 
6.222654986161782

>  <meeko>  (21) 
{"free_energy": -6.7, "intermolecular_energy": -8.49, "internal_energy": -2.4, "cluster_size": 5, "cluster_id": 7, "rank_in_cluster": 1}

>  <energy>  (21) 
-7.26

>  <cluster_rmsd>  (21) 
1.84

>  <cluster>  (21) 
2

$$$$

     RDKit          3D

 48 50  0  0  0  0  0  0  0  0999 V2000
  140.9800   73.8580  221.5630 C   0  0  0  0  0  0  0  0  0  0  0  0
  139.8900   74.5460  222.1210 O   0  0  0  0  0  0  0  0  0  0  0  0
  139.8310   75.9090  222.3400 C   0  0  0  0  0  0  0  0  0  0  0  0
  141.0370   76.5750  222.4550 C   0  0  0  0  0  0  0  0  0  0  0  0
  141.0800   77.9390  222.6760 C   0  0  0  0  0  0  0  0  0  0  0  0
  139.8740   78.5900  222.7740 C   0  0  0  0  0  0  0  0  0  0  0  0
  138.6740   77.9250  222.6580 C   0  0  0  0  0  0  0  0  0  0  0  0
  138.6080   76.5420  222.4350 C   0  0  0  0  0  0  0  0  0  0  0  0
  137.3120   75.8740  222.3170 C   0  0  2  0  0  0  0  0  0  0  0  0
  136.3670   76.1570  223.4800 C   0  0  0  0  0  0  0  0  0  0  0  0
  137.3610   74.4460  222.1500 N   0  0  0  0  0  0  0  0  0  0  0  0
  136.5980   73.8840  221.0870 C   0  0  0  0  0  0  0  0  0  0  0  0
  135.9060   74.6450  220.3290 O   0  0  0  0  0  0  0  0  0  0  0  0
  136.6140   72.4160  220.8710 C   0  0  0  0  0  0  0  0  0  0  0  0
  137.0020   71.6840  222.0430 N   0  0  0  0  0  0  0  0  0  0  0  0
  138.3900   71.3590  222.1820 C   0  0  0  0  0  0  0  0  0  0  0  0
  139.1880   71.7270  221.2820 O   0  0  0  0  0  0  0  0  0  0  0  0
  138.8500   70.6190  223.3470 C   0  0  0  0  0  0  0  0  0  0  0  0
  138.6130   69.2580  223.4050 C   0  0  0  0  0  0  0  0  0  0  0  0
  139.0500   68.5670  224.5070 C   0  0  0  0  0  0  0  0  0  0  0  0
  139.7140   69.1620  225.5560 C   0  0  0  0  0  0  0  0  0  0  0  0
  140.1570   68.4810  226.6670 C   0  0  0  0  0  0  0  0  0  0  0  0
  140.8130   69.1130  227.6860 C   0  0  0  0  0  0  0  0  0  0  0  0
  141.3410   68.1720  229.0590 Cl  0  0  0  0  0  0  0  0  0  0  0  0
  141.0350   70.4710  227.5990 C   0  0  0  0  0  0  0  0  0  0  0  0
  140.5920   71.1680  226.4850 C   0  0  0  0  0  0  0  0  0  0  0  0
  139.9310   70.5400  225.4510 C   0  0  0  0  0  0  0  0  0  0  0  0
  139.4980   71.2090  224.3680 N   0  0  0  0  0  0  0  0  0  0  0  0
  141.6130   73.4585  222.3691 H   0  0  0  0  0  0  0  0  0  0  0  0
  140.6109   73.0288  220.9415 H   0  0  0  0  0  0  0  0  0  0  0  0
  141.5697   74.5479  220.9415 H   0  0  0  0  0  0  0  0  0  0  0  0
  141.9773   76.0106  222.3693 H   0  0  0  0  0  0  0  0  0  0  0  0
  142.0346   78.4777  222.7690 H   0  0  0  0  0  0  0  0  0  0  0  0
  139.8670   79.6757  222.9505 H   0  0  0  0  0  0  0  0  0  0  0  0
  137.7378   78.4963  222.7429 H   0  0  0  0  0  0  0  0  0  0  0  0
  136.9284   76.3215  221.3883 H   0  0  0  0  0  0  0  0  0  0  0  0
  136.8975   75.9981  224.4305 H   0  0  0  0  0  0  0  0  0  0  0  0
  136.0186   77.1989  223.4242 H   0  0  0  0  0  0  0  0  0  0  0  0
  135.5033   75.4781  223.4242 H   0  0  0  0  0  0  0  0  0  0  0  0
  137.9010   73.7860  222.7360 H   0  0  0  0  0  0  0  0  0  0  0  0
  135.6051   72.0938  220.5738 H   0  0  0  0  0  0  0  0  0  0  0  0
  137.3577   72.2052  220.0884 H   0  0  0  0  0  0  0  0  0  0  0  0
  136.3020   71.3880  222.7870 H   0  0  0  0  0  0  0  0  0  0  0  0
  138.0872   68.7421  222.5881 H   0  0  0  0  0  0  0  0  0  0  0  0
  138.8605   67.4845  224.5546 H   0  0  0  0  0  0  0  0  0  0  0  0
  139.9781   67.3979  226.7368 H   0  0  0  0  0  0  0  0  0  0  0  0
  141.5605   70.9986  228.4086 H   0  0  0  0  0  0  0  0  0  0  0  0
  140.7729   72.2513  226.4248 H   0  0  0  0  0  0  0  0  0  0  0  0
  1  2  1  0
  2  3  1  0
  3  4  2  0
  4  5  1  0
  5  6  2  0
  6  7  1  0
  7  8  2  0
  8  9  1  0
  9 10  1  0
  9 11  1  0
 11 12  1  0
 12 13  2  0
 12 14  1  0
 14 15  1  0
 15 16  1  0
 16 17  2  0
 16 18  1  0
 18 19  2  0
 19 20  1  0
 20 21  2  0
 21 22  1  0
 22 23  2  0
 23 24  1  0
 23 25  1  0
 25 26  2  0
 26 27  1  0
 27 28  2  0
  8  3  1  0
 28 18  1  0
 27 21  1  0
  1 29  1  0
  1 30  1  0
  1 31  1  0
  4 32  1  0
  5 33  1  0
  6 34  1  0
  7 35  1  0
  9 36  1  6
 10 37  1  0
 10 38  1  0
 10 39  1  0
 11 40  1  0
 14 41  1  0
 14 42  1  0
 15 43  1  0
 19 44  1  0
 20 45  1  0
 22 46  1  0
 25 47  1  0
 26 48  1  0
M  END
>  <smiles>  (22) 
COc1ccccc1[C@H](C)NC(=O)CNC(=O)c1ccc2cc(Cl)ccc2n1

>  <score_type>  (22) 
oracle

>  <origin>  (22) 
autodockgpu

>  <m_score__min__energy>  (22) 
-8.4199999999999999

>  <m_primary>  (22) 
energy

>  <rmsd>  (22) 
5.452643125048852

>  <m_score__min__rmsd>  (22) 
5.452643125048852

>  <meeko>  (22) 
{"free_energy": -7.26, "intermolecular_energy": -9.05, "internal_energy": -1.91, "cluster_size": 8, "cluster_id": 2, "rank_in_cluster": 3}

>  <energy>  (22) 
-7.21

>  <cluster_rmsd>  (22) 
1.77

>  <cluster>  (22) 
2

$$$$

     RDKit          3D

 48 50  0  0  0  0  0  0  0  0999 V2000
  141.7150   76.4660  220.4630 C   0  0  0  0  0  0  0  0  0  0  0  0
  141.0840   76.4610  221.7180 O   0  0  0  0  0  0  0  0  0  0  0  0
  140.5690   77.5720  222.3590 C   0  0  0  0  0  0  0  0  0  0  0  0
  141.4780   78.5130  222.8050 C   0  0  0  0  0  0  0  0  0  0  0  0
  141.0580   79.6560  223.4590 C   0  0  0  0  0  0  0  0  0  0  0  0
  139.7040   79.8050  223.6400 C   0  0  0  0  0  0  0  0  0  0  0  0
  138.8000   78.8670  223.1950 C   0  0  0  0  0  0  0  0  0  0  0  0
  139.2050   77.7000  222.5310 C   0  0  0  0  0  0  0  0  0  0  0  0
  138.2120   76.7280  222.0730 C   0  0  2  0  0  0  0  0  0  0  0  0
  137.1110   76.4510  223.0900 C   0  0  0  0  0  0  0  0  0  0  0  0
  138.7340   75.4540  221.6570 N   0  0  0  0  0  0  0  0  0  0  0  0
  137.9370   74.6760  220.7700 C   0  0  0  0  0  0  0  0  0  0  0  0
  136.8050   75.1210  220.3770 O   0  0  0  0  0  0  0  0  0  0  0  0
  138.4290   73.3540  220.3110 C   0  0  0  0  0  0  0  0  0  0  0  0
  138.5270   72.3960  221.3740 N   0  0  0  0  0  0  0  0  0  0  0  0
  139.6130   72.5500  222.2960 C   0  0  0  0  0  0  0  0  0  0  0  0
  140.4140   73.5050  222.1300 O   0  0  0  0  0  0  0  0  0  0  0  0
  139.7700   71.6120  223.3970 C   0  0  0  0  0  0  0  0  0  0  0  0
  139.3700   70.3010  223.2160 C   0  0  0  0  0  0  0  0  0  0  0  0
  139.5220   69.4230  224.2600 C   0  0  0  0  0  0  0  0  0  0  0  0
  140.0540   69.7840  225.4770 C   0  0  0  0  0  0  0  0  0  0  0  0
  140.2110   68.9140  226.5320 C   0  0  0  0  0  0  0  0  0  0  0  0
  140.7440   69.3150  227.7240 C   0  0  0  0  0  0  0  0  0  0  0  0
  140.9090   68.1450  229.0110 Cl  0  0  0  0  0  0  0  0  0  0  0  0
  141.1340   70.6290  227.8750 C   0  0  0  0  0  0  0  0  0  0  0  0
  140.9790   71.5150  226.8200 C   0  0  0  0  0  0  0  0  0  0  0  0
  140.4440   71.1200  225.6130 C   0  0  0  0  0  0  0  0  0  0  0  0
  140.2910   71.9740  224.5840 N   0  0  0  0  0  0  0  0  0  0  0  0
  142.8062   76.4747  220.6013 H   0  0  0  0  0  0  0  0  0  0  0  0
  141.4236   75.5655  219.9025 H   0  0  0  0  0  0  0  0  0  0  0  0
  141.4093   77.3618  219.9025 H   0  0  0  0  0  0  0  0  0  0  0  0
  142.5527   78.3496  222.6368 H   0  0  0  0  0  0  0  0  0  0  0  0
  141.7736   80.4105  223.8176 H   0  0  0  0  0  0  0  0  0  0  0  0
  139.3309   80.7017  224.1565 H   0  0  0  0  0  0  0  0  0  0  0  0
  137.7269   79.0381  223.3655 H   0  0  0  0  0  0  0  0  0  0  0  0
  137.8043   77.2428  221.1906 H   0  0  0  0  0  0  0  0  0  0  0  0
  137.5172   76.5532  224.1071 H   0  0  0  0  0  0  0  0  0  0  0  0
  136.2915   77.1709  222.9484 H   0  0  0  0  0  0  0  0  0  0  0  0
  136.7297   75.4289  222.9484 H   0  0  0  0  0  0  0  0  0  0  0  0
  139.6400   75.0460  221.9480 H   0  0  0  0  0  0  0  0  0  0  0  0
  137.7350   72.9655  219.5511 H   0  0  0  0  0  0  0  0  0  0  0  0
  139.4404   73.5008  219.9042 H   0  0  0  0  0  0  0  0  0  0  0  0
  137.8320   71.5990  221.4890 H   0  0  0  0  0  0  0  0  0  0  0  0
  138.9405   69.9698  222.2590 H   0  0  0  0  0  0  0  0  0  0  0  0
  139.2031   68.3800  224.1171 H   0  0  0  0  0  0  0  0  0  0  0  0
  139.8984   67.8662  226.4118 H   0  0  0  0  0  0  0  0  0  0  0  0
  141.5655   70.9722  228.8269 H   0  0  0  0  0  0  0  0  0  0  0  0
  141.2915   72.5616  226.9499 H   0  0  0  0  0  0  0  0  0  0  0  0
  1  2  1  0
  2  3  1  0
  3  4  2  0
  4  5  1  0
  5  6  2  0
  6  7  1  0
  7  8  2  0
  8  9  1  0
  9 10  1  0
  9 11  1  0
 11 12  1  0
 12 13  2  0
 12 14  1  0
 14 15  1  0
 15 16  1  0
 16 17  2  0
 16 18  1  0
 18 19  2  0
 19 20  1  0
 20 21  2  0
 21 22  1  0
 22 23  2  0
 23 24  1  0
 23 25  1  0
 25 26  2  0
 26 27  1  0
 27 28  2  0
  8  3  1  0
 28 18  1  0
 27 21  1  0
  1 29  1  0
  1 30  1  0
  1 31  1  0
  4 32  1  0
  5 33  1  0
  6 34  1  0
  7 35  1  0
  9 36  1  6
 10 37  1  0
 10 38  1  0
 10 39  1  0
 11 40  1  0
 14 41  1  0
 14 42  1  0
 15 43  1  0
 19 44  1  0
 20 45  1  0
 22 46  1  0
 25 47  1  0
 26 48  1  0
M  END
>  <smiles>  (23) 
COc1ccccc1[C@H](C)NC(=O)CNC(=O)c1ccc2cc(Cl)ccc2n1

>  <score_type>  (23) 
oracle

>  <origin>  (23) 
autodockgpu

>  <m_score__min__energy>  (23) 
-8.4199999999999999

>  <m_primary>  (23) 
energy

>  <rmsd>  (23) 
4.712423367486351

>  <m_score__min__rmsd>  (23) 
4.712423367486351

>  <meeko>  (23) 
{"free_energy": -7.56, "intermolecular_energy": -9.35, "internal_energy": -2.32, "cluster_size": 17, "cluster_id": 1, "rank_in_cluster": 14}

>  <energy>  (23) 
-7.2

>  <cluster_rmsd>  (23) 
1.75

>  <cluster>  (23) 
2

$$$$

     RDKit          3D

 48 50  0  0  0  0  0  0  0  0999 V2000
  137.6660   79.5930  222.0170 C   0  0  0  0  0  0  0  0  0  0  0  0
  138.7300   78.7800  222.4420 O   0  0  0  0  0  0  0  0  0  0  0  0
  139.9860   79.2300  222.8040 C   0  0  0  0  0  0  0  0  0  0  0  0
  140.0500   80.4590  223.4360 C   0  0  0  0  0  0  0  0  0  0  0  0
  141.2610   80.9920  223.8350 C   0  0  0  0  0  0  0  0  0  0  0  0
  142.3840   80.2450  223.5730 C   0  0  0  0  0  0  0  0  0  0  0  0
  142.3180   79.0230  222.9440 C   0  0  0  0  0  0  0  0  0  0  0  0
  141.1000   78.4640  222.5310 C   0  0  0  0  0  0  0  0  0  0  0  0
  141.0740   77.1600  221.8660 C   0  0  2  0  0  0  0  0  0  0  0  0
  141.7930   77.1420  220.5230 C   0  0  0  0  0  0  0  0  0  0  0  0
  139.7670   76.5960  221.6550 N   0  0  0  0  0  0  0  0  0  0  0  0
  139.6440   75.1800  221.7330 C   0  0  0  0  0  0  0  0  0  0  0  0
  140.6740   74.4650  221.9820 O   0  0  0  0  0  0  0  0  0  0  0  0
  138.3190   74.5470  221.5230 C   0  0  0  0  0  0  0  0  0  0  0  0
  137.3800   74.8630  222.5610 N   0  0  0  0  0  0  0  0  0  0  0  0
  136.6500   76.0890  222.4330 C   0  0  0  0  0  0  0  0  0  0  0  0
  136.8660   76.8170  221.4310 O   0  0  0  0  0  0  0  0  0  0  0  0
  135.6820   76.4680  223.4510 C   0  0  0  0  0  0  0  0  0  0  0  0
  135.2170   77.7700  223.4730 C   0  0  0  0  0  0  0  0  0  0  0  0
  134.3050   78.1200  224.4360 C   0  0  0  0  0  0  0  0  0  0  0  0
  133.8290   77.2370  225.3800 C   0  0  0  0  0  0  0  0  0  0  0  0
  132.9140   77.5750  226.3510 C   0  0  0  0  0  0  0  0  0  0  0  0
  132.4680   76.6660  227.2690 C   0  0  0  0  0  0  0  0  0  0  0  0
  131.3060   77.1790  228.4680 Cl  0  0  0  0  0  0  0  0  0  0  0  0
  132.9500   75.3750  227.2210 C   0  0  0  0  0  0  0  0  0  0  0  0
  133.8730   75.0230  226.2480 C   0  0  0  0  0  0  0  0  0  0  0  0
  134.3270   75.9330  225.3160 C   0  0  0  0  0  0  0  0  0  0  0  0
  135.2220   75.5990  224.3690 N   0  0  0  0  0  0  0  0  0  0  0  0
  137.1390   79.9957  222.8946 H   0  0  0  0  0  0  0  0  0  0  0  0
  138.0583   80.4236  221.4118 H   0  0  0  0  0  0  0  0  0  0  0  0
  136.9676   78.9963  221.4118 H   0  0  0  0  0  0  0  0  0  0  0  0
  139.1229   81.0205  223.6238 H   0  0  0  0  0  0  0  0  0  0  0  0
  141.3229   81.9680  224.3385 H   0  0  0  0  0  0  0  0  0  0  0  0
  143.3666   80.6361  223.8755 H   0  0  0  0  0  0  0  0  0  0  0  0
  143.2493   78.4675  222.7594 H   0  0  0  0  0  0  0  0  0  0  0  0
  141.6086   76.5380  222.5991 H   0  0  0  0  0  0  0  0  0  0  0  0
  142.8800   77.1148  220.6894 H   0  0  0  0  0  0  0  0  0  0  0  0
  141.4866   76.2512  219.9550 H   0  0  0  0  0  0  0  0  0  0  0  0
  141.5316   78.0470  219.9550 H   0  0  0  0  0  0  0  0  0  0  0  0
  138.9040   77.1280  221.4480 H   0  0  0  0  0  0  0  0  0  0  0  0
  137.9114   74.8956  220.5626 H   0  0  0  0  0  0  0  0  0  0  0  0
  138.4679   73.4572  221.5322 H   0  0  0  0  0  0  0  0  0  0  0  0
  137.2190   74.2250  223.3970 H   0  0  0  0  0  0  0  0  0  0  0  0
  135.5697   78.5069  222.7364 H   0  0  0  0  0  0  0  0  0  0  0  0
  133.9359   79.1560  224.4553 H   0  0  0  0  0  0  0  0  0  0  0  0
  132.5310   78.6055  226.3893 H   0  0  0  0  0  0  0  0  0  0  0  0
  132.6041   74.6282  227.9508 H   0  0  0  0  0  0  0  0  0  0  0  0
  134.2531   73.9912  226.2185 H   0  0  0  0  0  0  0  0  0  0  0  0
  1  2  1  0
  2  3  1  0
  3  4  2  0
  4  5  1  0
  5  6  2  0
  6  7  1  0
  7  8  2  0
  8  9  1  0
  9 10  1  0
  9 11  1  0
 11 12  1  0
 12 13  2  0
 12 14  1  0
 14 15  1  0
 15 16  1  0
 16 17  2  0
 16 18  1  0
 18 19  2  0
 19 20  1  0
 20 21  2  0
 21 22  1  0
 22 23  2  0
 23 24  1  0
 23 25  1  0
 25 26  2  0
 26 27  1  0
 27 28  2  0
  8  3  1  0
 28 18  1  0
 27 21  1  0
  1 29  1  0
  1 30  1  0
  1 31  1  0
  4 32  1  0
  5 33  1  0
  6 34  1  0
  7 35  1  0
  9 36  1  1
 10 37  1  0
 10 38  1  0
 10 39  1  0
 11 40  1  0
 14 41  1  0
 14 42  1  0
 15 43  1  0
 19 44  1  0
 20 45  1  0
 22 46  1  0
 25 47  1  0
 26 48  1  0
M  END
>  <smiles>  (24) 
COc1ccccc1[C@H](C)NC(=O)CNC(=O)c1ccc2cc(Cl)ccc2n1

>  <score_type>  (24) 
oracle

>  <origin>  (24) 
autodockgpu

>  <m_score__min__energy>  (24) 
-8.4199999999999999

>  <m_primary>  (24) 
energy

>  <rmsd>  (24) 
6.161630520515516

>  <m_score__min__rmsd>  (24) 
6.161630520515516

>  <meeko>  (24) 
{"free_energy": -6.57, "intermolecular_energy": -8.36, "internal_energy": -2.74, "cluster_size": 5, "cluster_id": 7, "rank_in_cluster": 2}

>  <energy>  (24) 
-7.04

>  <cluster_rmsd>  (24) 
1.37

>  <cluster>  (24) 
2

$$$$

     RDKit          3D

 48 50  0  0  0  0  0  0  0  0999 V2000
  140.7260   71.6300  222.7960 C   0  0  0  0  0  0  0  0  0  0  0  0
  140.2780   72.0610  224.0560 O   0  0  0  0  0  0  0  0  0  0  0  0
  140.1730   71.2660  225.1820 C   0  0  0  0  0  0  0  0  0  0  0  0
  141.0830   71.4980  226.1970 C   0  0  0  0  0  0  0  0  0  0  0  0
  141.0570   70.7530  227.3600 C   0  0  0  0  0  0  0  0  0  0  0  0
  140.0900   69.7810  227.4540 C   0  0  0  0  0  0  0  0  0  0  0  0
  139.1840   69.5520  226.4430 C   0  0  0  0  0  0  0  0  0  0  0  0
  139.1940   70.2960  225.2540 C   0  0  0  0  0  0  0  0  0  0  0  0
  138.2130   70.0210  224.2030 C   0  0  2  0  0  0  0  0  0  0  0  0
  138.6280   68.9040  223.2530 C   0  0  0  0  0  0  0  0  0  0  0  0
  137.8370   71.1490  223.3930 N   0  0  0  0  0  0  0  0  0  0  0  0
  136.4550   71.4880  223.3410 C   0  0  0  0  0  0  0  0  0  0  0  0
  135.6060   70.7960  224.0000 O   0  0  0  0  0  0  0  0  0  0  0  0
  136.0140   72.6410  222.5200 C   0  0  0  0  0  0  0  0  0  0  0  0
  136.8440   73.7990  222.6950 N   0  0  0  0  0  0  0  0  0  0  0  0
  138.0230   73.8880  221.8850 C   0  0  0  0  0  0  0  0  0  0  0  0
  138.2670   72.9590  221.0740 O   0  0  0  0  0  0  0  0  0  0  0  0
  138.9070   75.0360  222.0120 C   0  0  0  0  0  0  0  0  0  0  0  0
  140.2320   74.8990  221.6390 C   0  0  0  0  0  0  0  0  0  0  0  0
  141.0590   75.9860  221.7620 C   0  0  0  0  0  0  0  0  0  0  0  0
  140.6350   77.2070  222.2380 C   0  0  0  0  0  0  0  0  0  0  0  0
  141.4540   78.3050  222.3670 C   0  0  0  0  0  0  0  0  0  0  0  0
  140.9900   79.4980  222.8440 C   0  0  0  0  0  0  0  0  0  0  0  0
  142.0990   80.8420  222.9750 Cl  0  0  0  0  0  0  0  0  0  0  0  0
  139.6650   79.6050  223.2080 C   0  0  0  0  0  0  0  0  0  0  0  0
  138.8300   78.5040  223.0840 C   0  0  0  0  0  0  0  0  0  0  0  0
  139.2880   77.2960  222.6020 C   0  0  0  0  0  0  0  0  0  0  0  0
  138.4840   76.2250  222.4780 N   0  0  0  0  0  0  0  0  0  0  0  0
  141.5131   70.8727  222.9261 H   0  0  0  0  0  0  0  0  0  0  0  0
  139.8851   71.1927  222.2377 H   0  0  0  0  0  0  0  0  0  0  0  0
  141.1305   72.4872  222.2377 H   0  0  0  0  0  0  0  0  0  0  0  0
  141.8391   72.2878  226.0765 H   0  0  0  0  0  0  0  0  0  0  0  0
  141.7767   70.9295  228.1729 H   0  0  0  0  0  0  0  0  0  0  0  0
  140.0383   69.1670  228.3652 H   0  0  0  0  0  0  0  0  0  0  0  0
  138.4296   68.7618  226.5715 H   0  0  0  0  0  0  0  0  0  0  0  0
  137.3422   69.7156  224.8017 H   0  0  0  0  0  0  0  0  0  0  0  0
  138.9530   68.0292  223.8354 H   0  0  0  0  0  0  0  0  0  0  0  0
  137.7734   68.6255  222.6190 H   0  0  0  0  0  0  0  0  0  0  0  0
  139.4572   69.2511  222.6190 H   0  0  0  0  0  0  0  0  0  0  0  0
  138.4820   71.7380  222.8390 H   0  0  0  0  0  0  0  0  0  0  0  0
  136.0391   72.3477  221.4601 H   0  0  0  0  0  0  0  0  0  0  0  0
  134.9982   72.9097  222.8454 H   0  0  0  0  0  0  0  0  0  0  0  0
  136.6090   74.5690  223.3900 H   0  0  0  0  0  0  0  0  0  0  0  0
  140.6129   73.9418  221.2533 H   0  0  0  0  0  0  0  0  0  0  0  0
  142.1128   75.8775  221.4659 H   0  0  0  0  0  0  0  0  0  0  0  0
  142.5119   78.2198  222.0780 H   0  0  0  0  0  0  0  0  0  0  0  0
  139.2721   80.5571  223.5943 H   0  0  0  0  0  0  0  0  0  0  0  0
  137.7742   78.5972  223.3781 H   0  0  0  0  0  0  0  0  0  0  0  0
  1  2  1  0
  2  3  1  0
  3  4  2  0
  4  5  1  0
  5  6  2  0
  6  7  1  0
  7  8  2  0
  8  9  1  0
  9 10  1  0
  9 11  1  0
 11 12  1  0
 12 13  2  0
 12 14  1  0
 14 15  1  0
 15 16  1  0
 16 17  2  0
 16 18  1  0
 18 19  2  0
 19 20  1  0
 20 21  2  0
 21 22  1  0
 22 23  2  0
 23 24  1  0
 23 25  1  0
 25 26  2  0
 26 27  1  0
 27 28  2  0
  8  3  1  0
 28 18  1  0
 27 21  1  0
  1 29  1  0
  1 30  1  0
  1 31  1  0
  4 32  1  0
  5 33  1  0
  6 34  1  0
  7 35  1  0
  9 36  1  1
 10 37  1  0
 10 38  1  0
 10 39  1  0
 11 40  1  0
 14 41  1  0
 14 42  1  0
 15 43  1  0
 19 44  1  0
 20 45  1  0
 22 46  1  0
 25 47  1  0
 26 48  1  0
M  END
>  <smiles>  (25) 
COc1ccccc1[C@H](C)NC(=O)CNC(=O)c1ccc2cc(Cl)ccc2n1

>  <score_type>  (25) 
oracle

>  <origin>  (25) 
autodockgpu

>  <m_score__min__energy>  (25) 
-8.4199999999999999

>  <m_primary>  (25) 
energy

>  <rmsd>  (25) 
9.828631773343778

>  <m_score__min__rmsd>  (25) 
9.828631773343778

>  <meeko>  (25) 
{"free_energy": -7.1, "intermolecular_energy": -8.89, "internal_energy": -2.73, "cluster_size": 17, "cluster_id": 3, "rank_in_cluster": 6}

>  <energy>  (25) 
-6.88

>  <cluster_rmsd>  (25) 
0.56

>  <cluster>  (25) 
2

$$$$

     RDKit          3D

 48 50  0  0  0  0  0  0  0  0999 V2000
  141.4000   72.2830  227.0550 C   0  0  0  0  0  0  0  0  0  0  0  0
  140.6870   71.4790  226.1500 O   0  0  0  0  0  0  0  0  0  0  0  0
  140.3890   70.1420  226.3320 C   0  0  0  0  0  0  0  0  0  0  0  0
  140.8400   69.5550  227.5000 C   0  0  0  0  0  0  0  0  0  0  0  0
  140.5920   68.2220  227.7690 C   0  0  0  0  0  0  0  0  0  0  0  0
  139.8820   67.5200  226.8260 C   0  0  0  0  0  0  0  0  0  0  0  0
  139.4340   68.1060  225.6640 C   0  0  0  0  0  0  0  0  0  0  0  0
  139.6750   69.4560  225.3700 C   0  0  0  0  0  0  0  0  0  0  0  0
  139.1800   70.0400  224.1240 C   0  0  2  0  0  0  0  0  0  0  0  0
  139.0130   69.0290  222.9960 C   0  0  0  0  0  0  0  0  0  0  0  0
  139.9540   71.1350  223.6000 N   0  0  0  0  0  0  0  0  0  0  0  0
  139.4470   71.8050  222.4510 C   0  0  0  0  0  0  0  0  0  0  0  0
  138.3440   71.4250  221.9280 O   0  0  0  0  0  0  0  0  0  0  0  0
  140.2060   72.9400  221.8710 C   0  0  0  0  0  0  0  0  0  0  0  0
  139.7080   74.2180  222.2920 N   0  0  0  0  0  0  0  0  0  0  0  0
  140.4970   75.3680  221.9650 C   0  0  0  0  0  0  0  0  0  0  0  0
  141.5720   75.2020  221.3340 O   0  0  0  0  0  0  0  0  0  0  0  0
  140.0480   76.6940  222.3630 C   0  0  0  0  0  0  0  0  0  0  0  0
  140.9960   77.6750  222.5920 C   0  0  0  0  0  0  0  0  0  0  0  0
  140.5640   78.9220  222.9670 C   0  0  0  0  0  0  0  0  0  0  0  0
  139.2350   79.2440  223.1250 C   0  0  0  0  0  0  0  0  0  0  0  0
  138.7890   80.4910  223.5000 C   0  0  0  0  0  0  0  0  0  0  0  0
  137.4590   80.7680  223.6450 C   0  0  0  0  0  0  0  0  0  0  0  0
  136.9800   82.3770  224.1260 Cl  0  0  0  0  0  0  0  0  0  0  0  0
  136.5380   79.7690  223.4100 C   0  0  0  0  0  0  0  0  0  0  0  0
  136.9750   78.5090  223.0320 C   0  0  0  0  0  0  0  0  0  0  0  0
  138.3150   78.2200  222.8820 C   0  0  0  0  0  0  0  0  0  0  0  0
  138.7470   77.0000  222.5150 N   0  0  0  0  0  0  0  0  0  0  0  0
  141.1428   71.9930  228.0844 H   0  0  0  0  0  0  0  0  0  0  0  0
  142.4797   72.1468  226.8946 H   0  0  0  0  0  0  0  0  0  0  0  0
  141.1357   73.3387  226.8946 H   0  0  0  0  0  0  0  0  0  0  0  0
  141.4048   70.1581  228.2262 H   0  0  0  0  0  0  0  0  0  0  0  0
  140.9467   67.7458  228.6950 H   0  0  0  0  0  0  0  0  0  0  0  0
  139.6647   66.4566  227.0049 H   0  0  0  0  0  0  0  0  0  0  0  0
  138.8692   67.4964  224.9433 H   0  0  0  0  0  0  0  0  0  0  0  0
  138.2014   70.4258  224.4459 H   0  0  0  0  0  0  0  0  0  0  0  0
  138.8477   68.0284  223.4219 H   0  0  0  0  0  0  0  0  0  0  0  0
  138.1492   69.3108  222.3759 H   0  0  0  0  0  0  0  0  0  0  0  0
  139.9215   69.0181  222.3759 H   0  0  0  0  0  0  0  0  0  0  0  0
  140.8520   71.4790  223.9820 H   0  0  0  0  0  0  0  0  0  0  0  0
  141.2579   72.8537  222.1810 H   0  0  0  0  0  0  0  0  0  0  0  0
  140.0957   72.8866  220.7779 H   0  0  0  0  0  0  0  0  0  0  0  0
  138.7930   74.3250  222.8240 H   0  0  0  0  0  0  0  0  0  0  0  0
  142.0687   77.4608  222.4764 H   0  0  0  0  0  0  0  0  0  0  0  0
  141.3167   79.7029  223.1504 H   0  0  0  0  0  0  0  0  0  0  0  0
  139.5243   81.2872  223.6883 H   0  0  0  0  0  0  0  0  0  0  0  0
  135.4625   79.9708  223.5219 H   0  0  0  0  0  0  0  0  0  0  0  0
  136.2330   77.7184  222.8467 H   0  0  0  0  0  0  0  0  0  0  0  0
  1  2  1  0
  2  3  1  0
  3  4  2  0
  4  5  1  0
  5  6  2  0
  6  7  1  0
  7  8  2  0
  8  9  1  0
  9 10  1  0
  9 11  1  0
 11 12  1  0
 12 13  2  0
 12 14  1  0
 14 15  1  0
 15 16  1  0
 16 17  2  0
 16 18  1  0
 18 19  2  0
 19 20  1  0
 20 21  2  0
 21 22  1  0
 22 23  2  0
 23 24  1  0
 23 25  1  0
 25 26  2  0
 26 27  1  0
 27 28  2  0
  8  3  1  0
 28 18  1  0
 27 21  1  0
  1 29  1  0
  1 30  1  0
  1 31  1  0
  4 32  1  0
  5 33  1  0
  6 34  1  0
  7 35  1  0
  9 36  1  1
 10 37  1  0
 10 38  1  0
 10 39  1  0
 11 40  1  0
 14 41  1  0
 14 42  1  0
 15 43  1  0
 19 44  1  0
 20 45  1  0
 22 46  1  0
 25 47  1  0
 26 48  1  0
M  END
>  <smiles>  (26) 
COc1ccccc1[C@H](C)NC(=O)CNC(=O)c1ccc2cc(Cl)ccc2n1

>  <score_type>  (26) 
oracle

>  <origin>  (26) 
autodockgpu

>  <m_score__min__energy>  (26) 
-8.4199999999999999

>  <m_primary>  (26) 
energy

>  <rmsd>  (26) 
10.391744211650959

>  <m_score__min__rmsd>  (26) 
10.391744211650959

>  <meeko>  (26) 
{"free_energy": -7.54, "intermolecular_energy": -9.33, "internal_energy": -1.5, "cluster_size": 1, "cluster_id": 4, "rank_in_cluster": 1}

>  <energy>  (26) 
-7.61

>  <cluster_rmsd>  (26) 
0.0

>  <cluster>  (26) 
3

$$$$

     RDKit          3D

 48 50  0  0  0  0  0  0  0  0999 V2000
  142.3900   78.1700  218.6190 C   0  0  0  0  0  0  0  0  0  0  0  0
  142.0500   77.4520  219.7770 O   0  0  0  0  0  0  0  0  0  0  0  0
  142.4410   76.1560  220.0590 C   0  0  0  0  0  0  0  0  0  0  0  0
  143.7120   75.7860  219.6590 C   0  0  0  0  0  0  0  0  0  0  0  0
  144.1900   74.5120  219.8960 C   0  0  0  0  0  0  0  0  0  0  0  0
  143.3450   73.6420  220.5430 C   0  0  0  0  0  0  0  0  0  0  0  0
  142.0800   74.0120  220.9400 C   0  0  0  0  0  0  0  0  0  0  0  0
  141.5750   75.3000  220.7090 C   0  0  0  0  0  0  0  0  0  0  0  0
  140.2250   75.6530  221.1490 C   0  0  2  0  0  0  0  0  0  0  0  0
  140.1970   76.5900  222.3510 C   0  0  0  0  0  0  0  0  0  0  0  0
  139.3610   74.5440  221.4560 N   0  0  0  0  0  0  0  0  0  0  0  0
  137.9620   74.7300  221.2650 C   0  0  0  0  0  0  0  0  0  0  0  0
  137.5230   75.8510  220.8370 O   0  0  0  0  0  0  0  0  0  0  0  0
  137.0280   73.6180  221.5670 C   0  0  0  0  0  0  0  0  0  0  0  0
  137.4370   72.8390  222.7010 N   0  0  0  0  0  0  0  0  0  0  0  0
  138.4290   71.8300  222.4780 C   0  0  0  0  0  0  0  0  0  0  0  0
  138.8850   71.6790  221.3160 O   0  0  0  0  0  0  0  0  0  0  0  0
  138.8870   71.0040  223.5850 C   0  0  0  0  0  0  0  0  0  0  0  0
  138.6400   69.6440  223.5460 C   0  0  0  0  0  0  0  0  0  0  0  0
  139.0760   68.8730  224.5940 C   0  0  0  0  0  0  0  0  0  0  0  0
  139.7480   69.3870  225.6800 C   0  0  0  0  0  0  0  0  0  0  0  0
  140.1900   68.6250  226.7380 C   0  0  0  0  0  0  0  0  0  0  0  0
  140.8530   69.1770  227.7970 C   0  0  0  0  0  0  0  0  0  0  0  0
  141.3800   68.1370  229.0970 Cl  0  0  0  0  0  0  0  0  0  0  0  0
  141.0850   70.5360  227.8070 C   0  0  0  0  0  0  0  0  0  0  0  0
  140.6430   71.3140  226.7480 C   0  0  0  0  0  0  0  0  0  0  0  0
  139.9740   70.7670  225.6740 C   0  0  0  0  0  0  0  0  0  0  0  0
  139.5430   71.5150  224.6430 N   0  0  0  0  0  0  0  0  0  0  0  0
  142.8448   79.1304  218.9033 H   0  0  0  0  0  0  0  0  0  0  0  0
  143.1075   77.5866  218.0233 H   0  0  0  0  0  0  0  0  0  0  0  0
  141.4840   78.3554  218.0233 H   0  0  0  0  0  0  0  0  0  0  0  0
  144.3522   76.5175  219.1442 H   0  0  0  0  0  0  0  0  0  0  0  0
  145.1994   74.2079  219.5818 H   0  0  0  0  0  0  0  0  0  0  0  0
  143.6904   72.6183  220.7499 H   0  0  0  0  0  0  0  0  0  0  0  0
  141.4457   73.2750  221.4542 H   0  0  0  0  0  0  0  0  0  0  0  0
  139.8369   76.1604  220.2535 H   0  0  0  0  0  0  0  0  0  0  0  0
  140.2147   75.9980  223.2779 H   0  0  0  0  0  0  0  0  0  0  0  0
  141.0758   77.2509  222.3212 H   0  0  0  0  0  0  0  0  0  0  0  0
  139.2803   77.1973  222.3212 H   0  0  0  0  0  0  0  0  0  0  0  0
  139.6640   73.6190  221.8080 H   0  0  0  0  0  0  0  0  0  0  0  0
  136.0332   74.0406  221.7715 H   0  0  0  0  0  0  0  0  0  0  0  0
  137.0163   72.9495  220.6935 H   0  0  0  0  0  0  0  0  0  0  0  0
  137.0320   72.9910  223.6730 H   0  0  0  0  0  0  0  0  0  0  0  0
  138.1075   69.1917  222.6964 H   0  0  0  0  0  0  0  0  0  0  0  0
  138.8789   67.7912  224.5649 H   0  0  0  0  0  0  0  0  0  0  0  0
  140.0040   67.5409  226.7303 H   0  0  0  0  0  0  0  0  0  0  0  0
  141.6176   71.0002  228.6501 H   0  0  0  0  0  0  0  0  0  0  0  0
  140.8313   72.3976  226.7653 H   0  0  0  0  0  0  0  0  0  0  0  0
  1  2  1  0
  2  3  1  0
  3  4  2  0
  4  5  1  0
  5  6  2  0
  6  7  1  0
  7  8  2  0
  8  9  1  0
  9 10  1  0
  9 11  1  0
 11 12  1  0
 12 13  2  0
 12 14  1  0
 14 15  1  0
 15 16  1  0
 16 17  2  0
 16 18  1  0
 18 19  2  0
 19 20  1  0
 20 21  2  0
 21 22  1  0
 22 23  2  0
 23 24  1  0
 23 25  1  0
 25 26  2  0
 26 27  1  0
 27 28  2  0
  8  3  1  0
 28 18  1  0
 27 21  1  0
  1 29  1  0
  1 30  1  0
  1 31  1  0
  4 32  1  0
  5 33  1  0
  6 34  1  0
  7 35  1  0
  9 36  1  6
 10 37  1  0
 10 38  1  0
 10 39  1  0
 11 40  1  0
 14 41  1  0
 14 42  1  0
 15 43  1  0
 19 44  1  0
 20 45  1  0
 22 46  1  0
 25 47  1  0
 26 48  1  0
M  END
>  <smiles>  (27) 
COc1ccccc1[C@H](C)NC(=O)CNC(=O)c1ccc2cc(Cl)ccc2n1

>  <score_type>  (27) 
oracle

>  <origin>  (27) 
autodockgpu

>  <m_score__min__energy>  (27) 
-8.4199999999999999

>  <m_primary>  (27) 
energy

>  <rmsd>  (27) 
5.690771415384003

>  <m_score__min__rmsd>  (27) 
5.690771415384003

>  <meeko>  (27) 
{"free_energy": -7.04, "intermolecular_energy": -8.83, "internal_energy": -1.85, "cluster_size": 8, "cluster_id": 2, "rank_in_cluster": 7}

>  <energy>  (27) 
-7.3

>  <cluster_rmsd>  (27) 
1.79

>  <cluster>  (27) 
3

$$$$

     RDKit          3D

 48 50  0  0  0  0  0  0  0  0999 V2000
  140.7280   71.6390  222.8880 C   0  0  0  0  0  0  0  0  0  0  0  0
  140.0910   71.9590  224.0980 O   0  0  0  0  0  0  0  0  0  0  0  0
  140.0820   71.1670  225.2310 C   0  0  0  0  0  0  0  0  0  0  0  0
  141.0240   71.4550  226.2020 C   0  0  0  0  0  0  0  0  0  0  0  0
  141.0930   70.7180  227.3680 C   0  0  0  0  0  0  0  0  0  0  0  0
  140.1860   69.6950  227.5110 C   0  0  0  0  0  0  0  0  0  0  0  0
  139.2490   69.4100  226.5440 C   0  0  0  0  0  0  0  0  0  0  0  0
  139.1620   70.1450  225.3530 C   0  0  0  0  0  0  0  0  0  0  0  0
  138.1500   69.8090  224.3510 C   0  0  2  0  0  0  0  0  0  0  0  0
  138.4980   68.5850  223.5130 C   0  0  0  0  0  0  0  0  0  0  0  0
  137.8080   70.8660  223.4350 N   0  0  0  0  0  0  0  0  0  0  0  0
  136.4790   71.3760  223.4900 C   0  0  0  0  0  0  0  0  0  0  0  0
  135.6470   70.8920  224.3310 O   0  0  0  0  0  0  0  0  0  0  0  0
  136.0750   72.4640  222.5680 C   0  0  0  0  0  0  0  0  0  0  0  0
  136.8690   73.6490  222.7210 N   0  0  0  0  0  0  0  0  0  0  0  0
  138.0670   73.7400  221.9400 C   0  0  0  0  0  0  0  0  0  0  0  0
  138.3580   72.7890  221.1700 O   0  0  0  0  0  0  0  0  0  0  0  0
  138.9180   74.9150  222.0480 C   0  0  0  0  0  0  0  0  0  0  0  0
  140.2390   74.8180  221.6520 C   0  0  0  0  0  0  0  0  0  0  0  0
  141.0350   75.9300  221.7580 C   0  0  0  0  0  0  0  0  0  0  0  0
  140.5820   77.1390  222.2370 C   0  0  0  0  0  0  0  0  0  0  0  0
  141.3690   78.2620  222.3480 C   0  0  0  0  0  0  0  0  0  0  0  0
  140.8770   79.4420  222.8300 C   0  0  0  0  0  0  0  0  0  0  0  0
  141.9460   80.8200  222.9380 Cl  0  0  0  0  0  0  0  0  0  0  0  0
  139.5560   79.5090  223.2180 C   0  0  0  0  0  0  0  0  0  0  0  0
  138.7530   78.3830  223.1110 C   0  0  0  0  0  0  0  0  0  0  0  0
  139.2390   77.1880  222.6250 C   0  0  0  0  0  0  0  0  0  0  0  0
  138.4670   76.0920  222.5190 N   0  0  0  0  0  0  0  0  0  0  0  0
  141.6928   71.1543  223.0985 H   0  0  0  0  0  0  0  0  0  0  0  0
  140.0919   70.9534  222.3089 H   0  0  0  0  0  0  0  0  0  0  0  0
  140.8983   72.5586  222.3089 H   0  0  0  0  0  0  0  0  0  0  0  0
  141.7293   72.2841  226.0430 H   0  0  0  0  0  0  0  0  0  0  0  0
  141.8388   70.9393  228.1457 H   0  0  0  0  0  0  0  0  0  0  0  0
  140.2098   69.0855  228.4264 H   0  0  0  0  0  0  0  0  0  0  0  0
  138.5466   68.5800  226.7106 H   0  0  0  0  0  0  0  0  0  0  0  0
  137.2790   69.6043  224.9909 H   0  0  0  0  0  0  0  0  0  0  0  0
  138.7377   67.7418  224.1775 H   0  0  0  0  0  0  0  0  0  0  0  0
  137.6398   68.3191  222.8783 H   0  0  0  0  0  0  0  0  0  0  0  0
  139.3677   68.8104  222.8783 H   0  0  0  0  0  0  0  0  0  0  0  0
  138.4410   71.2890  222.7350 H   0  0  0  0  0  0  0  0  0  0  0  0
  136.1777   72.1038  221.5337 H   0  0  0  0  0  0  0  0  0  0  0  0
  135.0349   72.7303  222.8073 H   0  0  0  0  0  0  0  0  0  0  0  0
  136.5960   74.4370  223.3810 H   0  0  0  0  0  0  0  0  0  0  0  0
  140.6420   73.8719  221.2613 H   0  0  0  0  0  0  0  0  0  0  0  0
  142.0867   75.8522  221.4451 H   0  0  0  0  0  0  0  0  0  0  0  0
  142.4237   78.2084  222.0401 H   0  0  0  0  0  0  0  0  0  0  0  0
  139.1413   80.4494  223.6100 H   0  0  0  0  0  0  0  0  0  0  0  0
  137.6998   78.4453  223.4224 H   0  0  0  0  0  0  0  0  0  0  0  0
  1  2  1  0
  2  3  1  0
  3  4  2  0
  4  5  1  0
  5  6  2  0
  6  7  1  0
  7  8  2  0
  8  9  1  0
  9 10  1  0
  9 11  1  0
 11 12  1  0
 12 13  2  0
 12 14  1  0
 14 15  1  0
 15 16  1  0
 16 17  2  0
 16 18  1  0
 18 19  2  0
 19 20  1  0
 20 21  2  0
 21 22  1  0
 22 23  2  0
 23 24  1  0
 23 25  1  0
 25 26  2  0
 26 27  1  0
 27 28  2  0
  8  3  1  0
 28 18  1  0
 27 21  1  0
  1 29  1  0
  1 30  1  0
  1 31  1  0
  4 32  1  0
  5 33  1  0
  6 34  1  0
  7 35  1  0
  9 36  1  1
 10 37  1  0
 10 38  1  0
 10 39  1  0
 11 40  1  0
 14 41  1  0
 14 42  1  0
 15 43  1  0
 19 44  1  0
 20 45  1  0
 22 46  1  0
 25 47  1  0
 26 48  1  0
M  END
>  <smiles>  (28) 
COc1ccccc1[C@H](C)NC(=O)CNC(=O)c1ccc2cc(Cl)ccc2n1

>  <score_type>  (28) 
oracle

>  <origin>  (28) 
autodockgpu

>  <m_score__min__energy>  (28) 
-8.4199999999999999

>  <m_primary>  (28) 
energy

>  <rmsd>  (28) 
9.921267274527686

>  <m_score__min__rmsd>  (28) 
9.921267274527686

>  <meeko>  (28) 
{"free_energy": -7.03, "intermolecular_energy": -8.81, "internal_energy": -2.74, "cluster_size": 17, "cluster_id": 3, "rank_in_cluster": 13}

>  <energy>  (28) 
-7.18

>  <cluster_rmsd>  (28) 
0.47

>  <cluster>  (28) 
3

$$$$

     RDKit          3D

 48 50  0  0  0  0  0  0  0  0999 V2000
  140.7200   71.5560  222.8680 C   0  0  0  0  0  0  0  0  0  0  0  0
  140.1250   71.9310  224.0840 O   0  0  0  0  0  0  0  0  0  0  0  0
  140.0880   71.1580  225.2290 C   0  0  0  0  0  0  0  0  0  0  0  0
  141.0390   71.4290  226.1960 C   0  0  0  0  0  0  0  0  0  0  0  0
  141.0820   70.7080  227.3740 C   0  0  0  0  0  0  0  0  0  0  0  0
  140.1410   69.7190  227.5320 C   0  0  0  0  0  0  0  0  0  0  0  0
  139.1950   69.4510  226.5680 C   0  0  0  0  0  0  0  0  0  0  0  0
  139.1340   70.1700  225.3650 C   0  0  0  0  0  0  0  0  0  0  0  0
  138.1120   69.8530  224.3670 C   0  0  2  0  0  0  0  0  0  0  0  0
  138.4320   68.6200  223.5310 C   0  0  0  0  0  0  0  0  0  0  0  0
  137.7890   70.9150  223.4510 N   0  0  0  0  0  0  0  0  0  0  0  0
  136.4500   71.4010  223.4560 C   0  0  0  0  0  0  0  0  0  0  0  0
  135.5920   70.8920  224.2560 O   0  0  0  0  0  0  0  0  0  0  0  0
  136.0640   72.4930  222.5310 C   0  0  0  0  0  0  0  0  0  0  0  0
  136.8730   73.6680  222.6860 N   0  0  0  0  0  0  0  0  0  0  0  0
  138.0790   73.7390  221.9150 C   0  0  0  0  0  0  0  0  0  0  0  0
  138.3640   72.7810  221.1520 O   0  0  0  0  0  0  0  0  0  0  0  0
  138.9450   74.9020  222.0260 C   0  0  0  0  0  0  0  0  0  0  0  0
  140.2660   74.7880  221.6320 C   0  0  0  0  0  0  0  0  0  0  0  0
  141.0760   75.8900  221.7390 C   0  0  0  0  0  0  0  0  0  0  0  0
  140.6370   77.1040  222.2200 C   0  0  0  0  0  0  0  0  0  0  0  0
  141.4390   78.2170  222.3340 C   0  0  0  0  0  0  0  0  0  0  0  0
  140.9620   79.4030  222.8160 C   0  0  0  0  0  0  0  0  0  0  0  0
  142.0490   80.7660  222.9270 Cl  0  0  0  0  0  0  0  0  0  0  0  0
  139.6410   79.4860  223.2020 C   0  0  0  0  0  0  0  0  0  0  0  0
  138.8240   78.3710  223.0930 C   0  0  0  0  0  0  0  0  0  0  0  0
  139.2950   77.1710  222.6060 C   0  0  0  0  0  0  0  0  0  0  0  0
  138.5090   76.0850  222.4970 N   0  0  0  0  0  0  0  0  0  0  0  0
  141.6348   70.9794  223.0698 H   0  0  0  0  0  0  0  0  0  0  0  0
  140.0167   70.9376  222.2910 H   0  0  0  0  0  0  0  0  0  0  0  0
  140.9744   72.4573  222.2910 H   0  0  0  0  0  0  0  0  0  0  0  0
  141.7724   72.2308  226.0247 H   0  0  0  0  0  0  0  0  0  0  0  0
  141.8343   70.9160  228.1491 H   0  0  0  0  0  0  0  0  0  0  0  0
  140.1436   69.1233  228.4567 H   0  0  0  0  0  0  0  0  0  0  0  0
  138.4645   68.6482  226.7467 H   0  0  0  0  0  0  0  0  0  0  0  0
  137.2385   69.6674  225.0094 H   0  0  0  0  0  0  0  0  0  0  0  0
  138.6520   67.7725  224.1969 H   0  0  0  0  0  0  0  0  0  0  0  0
  137.5682   68.3730  222.8963 H   0  0  0  0  0  0  0  0  0  0  0  0
  139.3069   68.8243  222.8963 H   0  0  0  0  0  0  0  0  0  0  0  0
  138.4420   71.3580  222.7820 H   0  0  0  0  0  0  0  0  0  0  0  0
  136.1662   72.1302  221.4976 H   0  0  0  0  0  0  0  0  0  0  0  0
  135.0265   72.7732  222.7656 H   0  0  0  0  0  0  0  0  0  0  0  0
  136.6050   74.4620  223.3400 H   0  0  0  0  0  0  0  0  0  0  0  0
  140.6576   73.8368  221.2423 H   0  0  0  0  0  0  0  0  0  0  0  0
  142.1266   75.8000  221.4256 H   0  0  0  0  0  0  0  0  0  0  0  0
  142.4935   78.1496  222.0284 H   0  0  0  0  0  0  0  0  0  0  0  0
  139.2376   80.4312  223.5941 H   0  0  0  0  0  0  0  0  0  0  0  0
  137.7715   78.4464  223.4037 H   0  0  0  0  0  0  0  0  0  0  0  0
  1  2  1  0
  2  3  1  0
  3  4  2  0
  4  5  1  0
  5  6  2  0
  6  7  1  0
  7  8  2  0
  8  9  1  0
  9 10  1  0
  9 11  1  0
 11 12  1  0
 12 13  2  0
 12 14  1  0
 14 15  1  0
 15 16  1  0
 16 17  2  0
 16 18  1  0
 18 19  2  0
 19 20  1  0
 20 21  2  0
 21 22  1  0
 22 23  2  0
 23 24  1  0
 23 25  1  0
 25 26  2  0
 26 27  1  0
 27 28  2  0
  8  3  1  0
 28 18  1  0
 27 21  1  0
  1 29  1  0
  1 30  1  0
  1 31  1  0
  4 32  1  0
  5 33  1  0
  6 34  1  0
  7 35  1  0
  9 36  1  1
 10 37  1  0
 10 38  1  0
 10 39  1  0
 11 40  1  0
 14 41  1  0
 14 42  1  0
 15 43  1  0
 19 44  1  0
 20 45  1  0
 22 46  1  0
 25 47  1  0
 26 48  1  0
M  END
>  <smiles>  (29) 
COc1ccccc1[C@H](C)NC(=O)CNC(=O)c1ccc2cc(Cl)ccc2n1

>  <score_type>  (29) 
oracle

>  <origin>  (29) 
autodockgpu

>  <m_score__min__energy>  (29) 
-8.4199999999999999

>  <m_primary>  (29) 
energy

>  <rmsd>  (29) 
9.911586380839536

>  <m_score__min__rmsd>  (29) 
9.911586380839536

>  <meeko>  (29) 
{"free_energy": -7.04, "intermolecular_energy": -8.83, "internal_energy": -2.77, "cluster_size": 17, "cluster_id": 3, "rank_in_cluster": 11}

>  <energy>  (29) 
-7.14

>  <cluster_rmsd>  (29) 
0.73

>  <cluster>  (29) 
3

$$$$

     RDKit          3D

 48 50  0  0  0  0  0  0  0  0999 V2000
  140.4880   71.8670  223.0580 C   0  0  0  0  0  0  0  0  0  0  0  0
  139.5310   71.5030  224.0190 O   0  0  0  0  0  0  0  0  0  0  0  0
  139.8070   71.1180  225.3180 C   0  0  0  0  0  0  0  0  0  0  0  0
  140.7070   71.8970  226.0220 C   0  0  0  0  0  0  0  0  0  0  0  0
  141.0460   71.5900  227.3260 C   0  0  0  0  0  0  0  0  0  0  0  0
  140.4500   70.4830  227.8790 C   0  0  0  0  0  0  0  0  0  0  0  0
  139.5540   69.7080  227.1760 C   0  0  0  0  0  0  0  0  0  0  0  0
  139.1960   70.0010  225.8520 C   0  0  0  0  0  0  0  0  0  0  0  0
  138.2390   69.1530  225.1410 C   0  0  2  0  0  0  0  0  0  0  0  0
  138.8940   68.0940  224.2620 C   0  0  0  0  0  0  0  0  0  0  0  0
  137.2790   69.8480  224.3250 N   0  0  0  0  0  0  0  0  0  0  0  0
  135.9130   69.4690  224.4550 C   0  0  0  0  0  0  0  0  0  0  0  0
  135.5840   68.5430  225.2730 O   0  0  0  0  0  0  0  0  0  0  0  0
  134.8830   70.1530  223.6360 C   0  0  0  0  0  0  0  0  0  0  0  0
  134.3320   71.3090  224.2840 N   0  0  0  0  0  0  0  0  0  0  0  0
  135.1660   72.4710  224.3690 C   0  0  0  0  0  0  0  0  0  0  0  0
  136.3230   72.4200  223.8790 O   0  0  0  0  0  0  0  0  0  0  0  0
  134.6690   73.6770  225.0140 C   0  0  0  0  0  0  0  0  0  0  0  0
  135.2850   74.8820  224.7340 C   0  0  0  0  0  0  0  0  0  0  0  0
  134.8100   76.0150  225.3470 C   0  0  0  0  0  0  0  0  0  0  0  0
  133.7500   76.0080  226.2250 C   0  0  0  0  0  0  0  0  0  0  0  0
  133.2630   77.1360  226.8460 C   0  0  0  0  0  0  0  0  0  0  0  0
  132.2070   77.0840  227.7120 C   0  0  0  0  0  0  0  0  0  0  0  0
  131.6540   78.5640  228.4560 Cl  0  0  0  0  0  0  0  0  0  0  0  0
  131.6130   75.8670  227.9710 C   0  0  0  0  0  0  0  0  0  0  0  0
  132.0950   74.7240  227.3520 C   0  0  0  0  0  0  0  0  0  0  0  0
  133.1590   74.7660  226.4760 C   0  0  0  0  0  0  0  0  0  0  0  0
  133.6320   73.6610  225.8710 N   0  0  0  0  0  0  0  0  0  0  0  0
  141.4013   72.2144  223.5633 H   0  0  0  0  0  0  0  0  0  0  0  0
  140.7255   70.9964  222.4290 H   0  0  0  0  0  0  0  0  0  0  0  0
  140.0869   72.6754  222.4290 H   0  0  0  0  0  0  0  0  0  0  0  0
  141.1598   72.7742  225.5367 H   0  0  0  0  0  0  0  0  0  0  0  0
  141.7601   72.2037  227.8947 H   0  0  0  0  0  0  0  0  0  0  0  0
  140.6957   70.2068  228.9150 H   0  0  0  0  0  0  0  0  0  0  0  0
  139.1055   68.8324  227.6682 H   0  0  0  0  0  0  0  0  0  0  0  0
  137.7068   68.6832  225.9812 H   0  0  0  0  0  0  0  0  0  0  0  0
  139.3662   67.3306  224.8978 H   0  0  0  0  0  0  0  0  0  0  0  0
  138.1304   67.6211  223.6269 H   0  0  0  0  0  0  0  0  0  0  0  0
  139.6581   68.5660  223.6269 H   0  0  0  0  0  0  0  0  0  0  0  0
  137.4920   70.5990  223.6470 H   0  0  0  0  0  0  0  0  0  0  0  0
  135.3412   70.4676  222.6867 H   0  0  0  0  0  0  0  0  0  0  0  0
  134.0605   69.4401  223.4768 H   0  0  0  0  0  0  0  0  0  0  0  0
  133.3490   71.3210  224.6890 H   0  0  0  0  0  0  0  0  0  0  0  0
  136.1348   74.9322  224.0373 H   0  0  0  0  0  0  0  0  0  0  0  0
  135.3002   76.9746  225.1258 H   0  0  0  0  0  0  0  0  0  0  0  0
  133.7373   78.1067  226.6393 H   0  0  0  0  0  0  0  0  0  0  0  0
  130.7617   75.8034  228.6647 H   0  0  0  0  0  0  0  0  0  0  0  0
  131.6156   73.7573  227.5655 H   0  0  0  0  0  0  0  0  0  0  0  0
  1  2  1  0
  2  3  1  0
  3  4  2  0
  4  5  1  0
  5  6  2  0
  6  7  1  0
  7  8  2  0
  8  9  1  0
  9 10  1  0
  9 11  1  0
 11 12  1  0
 12 13  2  0
 12 14  1  0
 14 15  1  0
 15 16  1  0
 16 17  2  0
 16 18  1  0
 18 19  2  0
 19 20  1  0
 20 21  2  0
 21 22  1  0
 22 23  2  0
 23 24  1  0
 23 25  1  0
 25 26  2  0
 26 27  1  0
 27 28  2  0
  8  3  1  0
 28 18  1  0
 27 21  1  0
  1 29  1  0
  1 30  1  0
  1 31  1  0
  4 32  1  0
  5 33  1  0
  6 34  1  0
  7 35  1  0
  9 36  1  1
 10 37  1  0
 10 38  1  0
 10 39  1  0
 11 40  1  0
 14 41  1  0
 14 42  1  0
 15 43  1  0
 19 44  1  0
 20 45  1  0
 22 46  1  0
 25 47  1  0
 26 48  1  0
M  END
>  <smiles>  (30) 
COc1ccccc1[C@H](C)NC(=O)CNC(=O)c1ccc2cc(Cl)ccc2n1

>  <score_type>  (30) 
oracle

>  <origin>  (30) 
autodockgpu

>  <m_score__min__energy>  (30) 
-8.4199999999999999

>  <m_primary>  (30) 
energy

>  <rmsd>  (30) 
10.575997477301804

>  <m_score__min__rmsd>  (30) 
10.575997477301804

>  <meeko>  (30) 
{"free_energy": -6.88, "intermolecular_energy": -8.67, "internal_energy": -2.56, "cluster_size": 1, "cluster_id": 6, "rank_in_cluster": 1}

>  <energy>  (30) 
-7.13

>  <cluster_rmsd>  (30) 
0.75

>  <cluster>  (30) 
3

$$$$

     RDKit          3D

 48 50  0  0  0  0  0  0  0  0999 V2000
  137.4190   79.4910  222.1080 C   0  0  0  0  0  0  0  0  0  0  0  0
  138.4280   78.6750  222.6450 O   0  0  0  0  0  0  0  0  0  0  0  0
  139.7020   79.0940  222.9810 C   0  0  0  0  0  0  0  0  0  0  0  0
  139.8250   80.3790  223.4790 C   0  0  0  0  0  0  0  0  0  0  0  0
  141.0580   80.8860  223.8410 C   0  0  0  0  0  0  0  0  0  0  0  0
  142.1420   80.0570  223.6820 C   0  0  0  0  0  0  0  0  0  0  0  0
  142.0170   78.7790  223.1860 C   0  0  0  0  0  0  0  0  0  0  0  0
  140.7760   78.2450  222.8120 C   0  0  0  0  0  0  0  0  0  0  0  0
  140.6870   76.8810  222.2900 C   0  0  2  0  0  0  0  0  0  0  0  0
  141.4240   76.6790  220.9710 C   0  0  0  0  0  0  0  0  0  0  0  0
  139.3540   76.3680  222.1130 N   0  0  0  0  0  0  0  0  0  0  0  0
  139.2080   74.9610  221.9550 C   0  0  0  0  0  0  0  0  0  0  0  0
  140.2410   74.2080  221.9730 O   0  0  0  0  0  0  0  0  0  0  0  0
  137.8560   74.3810  221.7690 C   0  0  0  0  0  0  0  0  0  0  0  0
  136.9380   74.7640  222.8040 N   0  0  0  0  0  0  0  0  0  0  0  0
  136.2820   76.0290  222.6620 C   0  0  0  0  0  0  0  0  0  0  0  0
  136.5400   76.7320  221.6510 O   0  0  0  0  0  0  0  0  0  0  0  0
  135.3400   76.4780  223.6760 C   0  0  0  0  0  0  0  0  0  0  0  0
  134.9360   77.8000  223.6700 C   0  0  0  0  0  0  0  0  0  0  0  0
  134.0470   78.2150  224.6300 C   0  0  0  0  0  0  0  0  0  0  0  0
  133.5370   77.3770  225.5960 C   0  0  0  0  0  0  0  0  0  0  0  0
  132.6450   77.7800  226.5650 C   0  0  0  0  0  0  0  0  0  0  0  0
  132.1640   76.9140  227.5060 C   0  0  0  0  0  0  0  0  0  0  0  0
  131.0340   77.5090  228.6980 Cl  0  0  0  0  0  0  0  0  0  0  0  0
  132.5840   75.6020  227.4860 C   0  0  0  0  0  0  0  0  0  0  0  0
  133.4830   75.1840  226.5160 C   0  0  0  0  0  0  0  0  0  0  0  0
  133.9740   76.0500  225.5610 C   0  0  0  0  0  0  0  0  0  0  0  0
  134.8460   75.6530  224.6170 N   0  0  0  0  0  0  0  0  0  0  0  0
  136.8472   79.9534  222.9261 H   0  0  0  0  0  0  0  0  0  0  0  0
  137.8745   80.2777  221.4887 H   0  0  0  0  0  0  0  0  0  0  0  0
  136.7450   78.8810  221.4887 H   0  0  0  0  0  0  0  0  0  0  0  0
  138.9279   81.0061  223.5883 H   0  0  0  0  0  0  0  0  0  0  0  0
  141.1668   81.9060  224.2381 H   0  0  0  0  0  0  0  0  0  0  0  0
  143.1405   80.4258  223.9596 H   0  0  0  0  0  0  0  0  0  0  0  0
  142.9185   78.1577  223.0799 H   0  0  0  0  0  0  0  0  0  0  0  0
  141.1750   76.3146  223.0969 H   0  0  0  0  0  0  0  0  0  0  0  0
  142.4667   76.3932  221.1736 H   0  0  0  0  0  0  0  0  0  0  0  0
  140.9311   75.8828  220.3938 H   0  0  0  0  0  0  0  0  0  0  0  0
  141.4060   77.6152  220.3938 H   0  0  0  0  0  0  0  0  0  0  0  0
  138.4870   76.9320  222.0870 H   0  0  0  0  0  0  0  0  0  0  0  0
  137.4575   74.7221  220.8021 H   0  0  0  0  0  0  0  0  0  0  0  0
  137.9579   73.2863  221.8058 H   0  0  0  0  0  0  0  0  0  0  0  0
  136.7400   74.1460  223.6470 H   0  0  0  0  0  0  0  0  0  0  0  0
  135.3177   78.5023  222.9143 H   0  0  0  0  0  0  0  0  0  0  0  0
  133.7268   79.2673  224.6274 H   0  0  0  0  0  0  0  0  0  0  0  0
  132.3107   78.8278  226.5818 H   0  0  0  0  0  0  0  0  0  0  0  0
  132.2083   74.8897  228.2354 H   0  0  0  0  0  0  0  0  0  0  0  0
  133.8130   74.1347  226.5080 H   0  0  0  0  0  0  0  0  0  0  0  0
  1  2  1  0
  2  3  1  0
  3  4  2  0
  4  5  1  0
  5  6  2  0
  6  7  1  0
  7  8  2  0
  8  9  1  0
  9 10  1  0
  9 11  1  0
 11 12  1  0
 12 13  2  0
 12 14  1  0
 14 15  1  0
 15 16  1  0
 16 17  2  0
 16 18  1  0
 18 19  2  0
 19 20  1  0
 20 21  2  0
 21 22  1  0
 22 23  2  0
 23 24  1  0
 23 25  1  0
 25 26  2  0
 26 27  1  0
 27 28  2  0
  8  3  1  0
 28 18  1  0
 27 21  1  0
  1 29  1  0
  1 30  1  0
  1 31  1  0
  4 32  1  0
  5 33  1  0
  6 34  1  0
  7 35  1  0
  9 36  1  1
 10 37  1  0
 10 38  1  0
 10 39  1  0
 11 40  1  0
 14 41  1  0
 14 42  1  0
 15 43  1  0
 19 44  1  0
 20 45  1  0
 22 46  1  0
 25 47  1  0
 26 48  1  0
M  END
>  <smiles>  (31) 
COc1ccccc1[C@H](C)NC(=O)CNC(=O)c1ccc2cc(Cl)ccc2n1

>  <score_type>  (31) 
oracle

>  <origin>  (31) 
autodockgpu

>  <m_score__min__energy>  (31) 
-8.4199999999999999

>  <m_primary>  (31) 
energy

>  <rmsd>  (31) 
6.4110268552582585

>  <m_score__min__rmsd>  (31) 
6.4110268552582585

>  <meeko>  (31) 
{"free_energy": -6.54, "intermolecular_energy": -8.33, "internal_energy": -2.72, "cluster_size": 5, "cluster_id": 7, "rank_in_cluster": 3}

>  <energy>  (31) 
-7.1

>  <cluster_rmsd>  (31) 
0.5

>  <cluster>  (31) 
3

$$$$

     RDKit          3D

 48 50  0  0  0  0  0  0  0  0999 V2000
  137.6400   76.5010  222.6990 C   0  0  0  0  0  0  0  0  0  0  0  0
  138.6900   77.0730  221.9610 O   0  0  0  0  0  0  0  0  0  0  0  0
  139.6060   77.9860  222.4490 C   0  0  0  0  0  0  0  0  0  0  0  0
  139.1310   78.9300  223.3420 C   0  0  0  0  0  0  0  0  0  0  0  0
  139.9720   79.8840  223.8820 C   0  0  0  0  0  0  0  0  0  0  0  0
  141.2880   79.8470  223.4900 C   0  0  0  0  0  0  0  0  0  0  0  0
  141.7580   78.9070  222.6010 C   0  0  0  0  0  0  0  0  0  0  0  0
  140.9230   77.9300  222.0400 C   0  0  0  0  0  0  0  0  0  0  0  0
  141.4630   76.9480  221.1000 C   0  0  2  0  0  0  0  0  0  0  0  0
  141.8500   77.5390  219.7500 C   0  0  0  0  0  0  0  0  0  0  0  0
  140.6230   75.8090  220.8390 N   0  0  0  0  0  0  0  0  0  0  0  0
  141.2110   74.7020  220.1640 C   0  0  0  0  0  0  0  0  0  0  0  0
  142.4400   74.7490  219.8160 O   0  0  0  0  0  0  0  0  0  0  0  0
  140.3890   73.5030  219.8690 C   0  0  0  0  0  0  0  0  0  0  0  0
  140.4770   72.5010  220.8920 N   0  0  0  0  0  0  0  0  0  0  0  0
  139.9180   72.8210  222.1720 C   0  0  0  0  0  0  0  0  0  0  0  0
  139.3850   73.9480  222.3320 O   0  0  0  0  0  0  0  0  0  0  0  0
  139.9750   71.8490  223.2540 C   0  0  0  0  0  0  0  0  0  0  0  0
  139.5190   70.5650  223.0180 C   0  0  0  0  0  0  0  0  0  0  0  0
  139.5760   69.6550  224.0440 C   0  0  0  0  0  0  0  0  0  0  0  0
  140.0660   69.9580  225.2940 C   0  0  0  0  0  0  0  0  0  0  0  0
  140.1300   69.0550  226.3310 C   0  0  0  0  0  0  0  0  0  0  0  0
  140.6240   69.3990  227.5570 C   0  0  0  0  0  0  0  0  0  0  0  0
  140.6680   68.1900  228.8180 Cl  0  0  0  0  0  0  0  0  0  0  0  0
  141.0720   70.6860  227.7620 C   0  0  0  0  0  0  0  0  0  0  0  0
  141.0130   71.6050  226.7250 C   0  0  0  0  0  0  0  0  0  0  0  0
  140.5170   71.2680  225.4840 C   0  0  0  0  0  0  0  0  0  0  0  0
  140.4560   72.1530  224.4730 N   0  0  0  0  0  0  0  0  0  0  0  0
  137.8443   76.6123  223.7741 H   0  0  0  0  0  0  0  0  0  0  0  0
  136.6972   77.0102  222.4503 H   0  0  0  0  0  0  0  0  0  0  0  0
  137.5565   75.4327  222.4503 H   0  0  0  0  0  0  0  0  0  0  0  0
  138.0684   78.9209  223.6262 H   0  0  0  0  0  0  0  0  0  0  0  0
  139.6046   80.6385  224.5932 H   0  0  0  0  0  0  0  0  0  0  0  0
  141.9874   80.5911  223.8989 H   0  0  0  0  0  0  0  0  0  0  0  0
  142.8219   78.9227  222.3219 H   0  0  0  0  0  0  0  0  0  0  0  0
  142.3563   76.6057  221.6429 H   0  0  0  0  0  0  0  0  0  0  0  0
  142.4465   78.4500  219.9060 H   0  0  0  0  0  0  0  0  0  0  0  0
  142.4428   76.8048  219.1847 H   0  0  0  0  0  0  0  0  0  0  0  0
  140.9401   77.7889  219.1847 H   0  0  0  0  0  0  0  0  0  0  0  0
  139.6250   75.7220  221.0950 H   0  0  0  0  0  0  0  0  0  0  0  0
  139.3382   73.8132  219.7708 H   0  0  0  0  0  0  0  0  0  0  0  0
  140.7733   73.0598  218.9385 H   0  0  0  0  0  0  0  0  0  0  0  0
  140.9350   71.5550  220.7260 H   0  0  0  0  0  0  0  0  0  0  0  0
  139.1207   70.2801  222.0330 H   0  0  0  0  0  0  0  0  0  0  0  0
  139.2123   68.6336  223.8582 H   0  0  0  0  0  0  0  0  0  0  0  0
  139.7732   68.0274  226.1676 H   0  0  0  0  0  0  0  0  0  0  0  0
  141.4739   70.9825  228.7421 H   0  0  0  0  0  0  0  0  0  0  0  0
  141.3717   72.6305  226.8976 H   0  0  0  0  0  0  0  0  0  0  0  0
  1  2  1  0
  2  3  1  0
  3  4  2  0
  4  5  1  0
  5  6  2  0
  6  7  1  0
  7  8  2  0
  8  9  1  0
  9 10  1  0
  9 11  1  0
 11 12  1  0
 12 13  2  0
 12 14  1  0
 14 15  1  0
 15 16  1  0
 16 17  2  0
 16 18  1  0
 18 19  2  0
 19 20  1  0
 20 21  2  0
 21 22  1  0
 22 23  2  0
 23 24  1  0
 23 25  1  0
 25 26  2  0
 26 27  1  0
 27 28  2  0
  8  3  1  0
 28 18  1  0
 27 21  1  0
  1 29  1  0
  1 30  1  0
  1 31  1  0
  4 32  1  0
  5 33  1  0
  6 34  1  0
  7 35  1  0
  9 36  1  1
 10 37  1  0
 10 38  1  0
 10 39  1  0
 11 40  1  0
 14 41  1  0
 14 42  1  0
 15 43  1  0
 19 44  1  0
 20 45  1  0
 22 46  1  0
 25 47  1  0
 26 48  1  0
M  END
>  <smiles>  (32) 
COc1ccccc1[C@H](C)NC(=O)CNC(=O)c1ccc2cc(Cl)ccc2n1

>  <score_type>  (32) 
oracle

>  <origin>  (32) 
autodockgpu

>  <m_score__min__energy>  (32) 
-8.4199999999999999

>  <m_primary>  (32) 
energy

>  <rmsd>  (32) 
3.940214450948294

>  <m_score__min__rmsd>  (32) 
3.940214450948294

>  <meeko>  (32) 
{"free_energy": -7.59, "intermolecular_energy": -9.38, "internal_energy": -2.26, "cluster_size": 17, "cluster_id": 1, "rank_in_cluster": 11}

>  <energy>  (32) 
-7.08

>  <cluster_rmsd>  (32) 
0.83

>  <cluster>  (32) 
3

$$$$

     RDKit          3D

 48 50  0  0  0  0  0  0  0  0999 V2000
  141.0850   72.2550  227.2810 C   0  0  0  0  0  0  0  0  0  0  0  0
  140.4600   71.5240  226.2580 O   0  0  0  0  0  0  0  0  0  0  0  0
  140.2300   70.1610  226.2750 C   0  0  0  0  0  0  0  0  0  0  0  0
  141.0670   69.3960  227.0660 C   0  0  0  0  0  0  0  0  0  0  0  0
  140.9150   68.0250  227.1460 C   0  0  0  0  0  0  0  0  0  0  0  0
  139.9010   67.4680  226.4050 C   0  0  0  0  0  0  0  0  0  0  0  0
  139.0680   68.2310  225.6170 C   0  0  0  0  0  0  0  0  0  0  0  0
  139.2050   69.6240  225.5220 C   0  0  0  0  0  0  0  0  0  0  0  0
  138.2980   70.3980  224.6740 C   0  0  2  0  0  0  0  0  0  0  0  0
  137.2040   69.5620  224.0220 C   0  0  0  0  0  0  0  0  0  0  0  0
  138.9260   71.1630  223.6290 N   0  0  0  0  0  0  0  0  0  0  0  0
  139.5570   70.4410  222.5760 C   0  0  0  0  0  0  0  0  0  0  0  0
  139.5500   69.1630  222.5880 O   0  0  0  0  0  0  0  0  0  0  0  0
  140.2190   71.1820  221.4750 C   0  0  0  0  0  0  0  0  0  0  0  0
  140.2810   72.5960  221.7120 N   0  0  0  0  0  0  0  0  0  0  0  0
  139.0380   73.3070  221.7640 C   0  0  0  0  0  0  0  0  0  0  0  0
  137.9690   72.6640  221.6010 O   0  0  0  0  0  0  0  0  0  0  0  0
  139.0300   74.7420  222.0020 C   0  0  0  0  0  0  0  0  0  0  0  0
  137.8140   75.3940  222.0960 C   0  0  0  0  0  0  0  0  0  0  0  0
  137.8160   76.7470  222.3200 C   0  0  0  0  0  0  0  0  0  0  0  0
  138.9690   77.4870  222.4560 C   0  0  0  0  0  0  0  0  0  0  0  0
  138.9860   78.8450  222.6810 C   0  0  0  0  0  0  0  0  0  0  0  0
  140.1540   79.5410  222.8100 C   0  0  0  0  0  0  0  0  0  0  0  0
  140.0840   81.2630  223.0940 Cl  0  0  0  0  0  0  0  0  0  0  0  0
  141.3510   78.8640  222.7120 C   0  0  0  0  0  0  0  0  0  0  0  0
  141.3480   77.4960  222.4850 C   0  0  0  0  0  0  0  0  0  0  0  0
  140.1740   76.7840  222.3540 C   0  0  0  0  0  0  0  0  0  0  0  0
  140.1620   75.4570  222.1340 N   0  0  0  0  0  0  0  0  0  0  0  0
  140.7572   71.8716  228.2585 H   0  0  0  0  0  0  0  0  0  0  0  0
  142.1764   72.1494  227.1930 H   0  0  0  0  0  0  0  0  0  0  0  0
  140.8111   73.3167  227.1930 H   0  0  0  0  0  0  0  0  0  0  0  0
  141.8665   69.8865  227.6406 H   0  0  0  0  0  0  0  0  0  0  0  0
  141.5750   67.4083  227.7737 H   0  0  0  0  0  0  0  0  0  0  0  0
  139.7498   66.3791  226.4422 H   0  0  0  0  0  0  0  0  0  0  0  0
  138.2712   67.7331  225.0449 H   0  0  0  0  0  0  0  0  0  0  0  0
  137.8665   71.0952  225.4072 H   0  0  0  0  0  0  0  0  0  0  0  0
  136.5880   69.0913  224.8024 H   0  0  0  0  0  0  0  0  0  0  0  0
  136.5717   70.2092  223.3964 H   0  0  0  0  0  0  0  0  0  0  0  0
  137.6624   68.7819  223.3964 H   0  0  0  0  0  0  0  0  0  0  0  0
  138.9630   72.1960  223.5740 H   0  0  0  0  0  0  0  0  0  0  0  0
  141.2442   70.7998  221.3614 H   0  0  0  0  0  0  0  0  0  0  0  0
  139.6207   71.0256  220.5653 H   0  0  0  0  0  0  0  0  0  0  0  0
  141.2020   73.1110  221.8470 H   0  0  0  0  0  0  0  0  0  0  0  0
  136.8686   74.8411  221.9936 H   0  0  0  0  0  0  0  0  0  0  0  0
  136.8492   77.2663  222.3947 H   0  0  0  0  0  0  0  0  0  0  0  0
  138.0310   79.3853  222.7592 H   0  0  0  0  0  0  0  0  0  0  0  0
  142.3029   79.4059  222.8133 H   0  0  0  0  0  0  0  0  0  0  0  0
  142.3078   76.9643  222.4073 H   0  0  0  0  0  0  0  0  0  0  0  0
  1  2  1  0
  2  3  1  0
  3  4  2  0
  4  5  1  0
  5  6  2  0
  6  7  1  0
  7  8  2  0
  8  9  1  0
  9 10  1  0
  9 11  1  0
 11 12  1  0
 12 13  2  0
 12 14  1  0
 14 15  1  0
 15 16  1  0
 16 17  2  0
 16 18  1  0
 18 19  2  0
 19 20  1  0
 20 21  2  0
 21 22  1  0
 22 23  2  0
 23 24  1  0
 23 25  1  0
 25 26  2  0
 26 27  1  0
 27 28  2  0
  8  3  1  0
 28 18  1  0
 27 21  1  0
  1 29  1  0
  1 30  1  0
  1 31  1  0
  4 32  1  0
  5 33  1  0
  6 34  1  0
  7 35  1  0
  9 36  1  1
 10 37  1  0
 10 38  1  0
 10 39  1  0
 11 40  1  0
 14 41  1  0
 14 42  1  0
 15 43  1  0
 19 44  1  0
 20 45  1  0
 22 46  1  0
 25 47  1  0
 26 48  1  0
M  END
>  <smiles>  (33) 
COc1ccccc1[C@H](C)NC(=O)CNC(=O)c1ccc2cc(Cl)ccc2n1

>  <score_type>  (33) 
oracle

>  <origin>  (33) 
autodockgpu

>  <m_score__min__energy>  (33) 
-8.4199999999999999

>  <m_primary>  (33) 
energy

>  <rmsd>  (33) 
10.268486184973115

>  <m_score__min__rmsd>  (33) 
10.268486184973115

>  <meeko>  (33) 
{"free_energy": -7.3, "intermolecular_energy": -9.09, "internal_energy": -1.72, "cluster_size": 17, "cluster_id": 3, "rank_in_cluster": 2}

>  <energy>  (33) 
-7.06

>  <cluster_rmsd>  (33) 
0.66

>  <cluster>  (33) 
3

$$$$

     RDKit          3D

 48 50  0  0  0  0  0  0  0  0999 V2000
  138.1600   79.9330  223.1160 C   0  0  0  0  0  0  0  0  0  0  0  0
  139.3300   79.3840  222.5650 O   0  0  0  0  0  0  0  0  0  0  0  0
  140.6200   79.7580  222.8900 C   0  0  0  0  0  0  0  0  0  0  0  0
  140.7600   80.7940  223.7950 C   0  0  0  0  0  0  0  0  0  0  0  0
  142.0100   81.2390  224.1800 C   0  0  0  0  0  0  0  0  0  0  0  0
  143.0940   80.6050  223.6230 C   0  0  0  0  0  0  0  0  0  0  0  0
  142.9530   79.5740  222.7220 C   0  0  0  0  0  0  0  0  0  0  0  0
  141.6940   79.1070  222.3170 C   0  0  0  0  0  0  0  0  0  0  0  0
  141.5870   78.0080  221.3570 C   0  0  2  0  0  0  0  0  0  0  0  0
  141.6870   78.4510  219.9030 C   0  0  0  0  0  0  0  0  0  0  0  0
  140.4060   77.1940  221.4730 N   0  0  0  0  0  0  0  0  0  0  0  0
  140.4450   75.8960  220.8890 C   0  0  0  0  0  0  0  0  0  0  0  0
  141.5030   75.4980  220.2920 O   0  0  0  0  0  0  0  0  0  0  0  0
  139.2540   75.0170  220.9790 C   0  0  0  0  0  0  0  0  0  0  0  0
  139.2920   74.1410  222.1150 N   0  0  0  0  0  0  0  0  0  0  0  0
  139.8870   72.8510  221.9280 C   0  0  0  0  0  0  0  0  0  0  0  0
  140.3400   72.5560  220.7920 O   0  0  0  0  0  0  0  0  0  0  0  0
  139.9580   71.9150  223.0390 C   0  0  0  0  0  0  0  0  0  0  0  0
  139.5030   70.6230  222.8490 C   0  0  0  0  0  0  0  0  0  0  0  0
  139.5730   69.7460  223.9020 C   0  0  0  0  0  0  0  0  0  0  0  0
  140.0750   70.0900  225.1380 C   0  0  0  0  0  0  0  0  0  0  0  0
  140.1510   69.2210  226.2020 C   0  0  0  0  0  0  0  0  0  0  0  0
  140.6570   69.6050  227.4120 C   0  0  0  0  0  0  0  0  0  0  0  0
  140.7160   68.4370  228.7100 Cl  0  0  0  0  0  0  0  0  0  0  0  0
  141.1020   70.9000  227.5710 C   0  0  0  0  0  0  0  0  0  0  0  0
  141.0300   71.7850  226.5060 C   0  0  0  0  0  0  0  0  0  0  0  0
  140.5230   71.4070  225.2810 C   0  0  0  0  0  0  0  0  0  0  0  0
  140.4490   72.2590  224.2430 N   0  0  0  0  0  0  0  0  0  0  0  0
  138.2229   79.9035  224.2138 H   0  0  0  0  0  0  0  0  0  0  0  0
  138.0521   80.9757  222.7828 H   0  0  0  0  0  0  0  0  0  0  0  0
  137.2890   79.3496  222.7828 H   0  0  0  0  0  0  0  0  0  0  0  0
  139.8623   81.2712  224.2149 H   0  0  0  0  0  0  0  0  0  0  0  0
  142.1316   82.0626  224.8990 H   0  0  0  0  0  0  0  0  0  0  0  0
  144.1057   80.9313  223.9057 H   0  0  0  0  0  0  0  0  0  0  0  0
  143.8556   79.1018  222.3068 H   0  0  0  0  0  0  0  0  0  0  0  0
  142.4594   77.3987  221.6356 H   0  0  0  0  0  0  0  0  0  0  0  0
  141.9290   79.5233  219.8622 H   0  0  0  0  0  0  0  0  0  0  0  0
  142.4782   77.8771  219.3984 H   0  0  0  0  0  0  0  0  0  0  0  0
  140.7260   78.2726  219.3984 H   0  0  0  0  0  0  0  0  0  0  0  0
  139.5250   77.4680  221.9410 H   0  0  0  0  0  0  0  0  0  0  0  0
  138.3563   75.6484  221.0524 H   0  0  0  0  0  0  0  0  0  0  0  0
  139.2387   74.3878  220.0769 H   0  0  0  0  0  0  0  0  0  0  0  0
  138.9000   74.4200  223.0640 H   0  0  0  0  0  0  0  0  0  0  0  0
  139.0951   70.3062  221.8778 H   0  0  0  0  0  0  0  0  0  0  0  0
  139.2107   68.7183  223.7520 H   0  0  0  0  0  0  0  0  0  0  0  0
  139.7945   68.1881  226.0751 H   0  0  0  0  0  0  0  0  0  0  0  0
  141.5119   71.2294  228.5372 H   0  0  0  0  0  0  0  0  0  0  0  0
  141.3870   72.8165  226.6422 H   0  0  0  0  0  0  0  0  0  0  0  0
  1  2  1  0
  2  3  1  0
  3  4  2  0
  4  5  1  0
  5  6  2  0
  6  7  1  0
  7  8  2  0
  8  9  1  0
  9 10  1  0
  9 11  1  0
 11 12  1  0
 12 13  2  0
 12 14  1  0
 14 15  1  0
 15 16  1  0
 16 17  2  0
 16 18  1  0
 18 19  2  0
 19 20  1  0
 20 21  2  0
 21 22  1  0
 22 23  2  0
 23 24  1  0
 23 25  1  0
 25 26  2  0
 26 27  1  0
 27 28  2  0
  8  3  1  0
 28 18  1  0
 27 21  1  0
  1 29  1  0
  1 30  1  0
  1 31  1  0
  4 32  1  0
  5 33  1  0
  6 34  1  0
  7 35  1  0
  9 36  1  1
 10 37  1  0
 10 38  1  0
 10 39  1  0
 11 40  1  0
 14 41  1  0
 14 42  1  0
 15 43  1  0
 19 44  1  0
 20 45  1  0
 22 46  1  0
 25 47  1  0
 26 48  1  0
M  END
>  <smiles>  (34) 
COc1ccccc1[C@H](C)NC(=O)CNC(=O)c1ccc2cc(Cl)ccc2n1

>  <score_type>  (34) 
oracle

>  <origin>  (34) 
autodockgpu

>  <m_score__min__energy>  (34) 
-8.4199999999999999

>  <m_primary>  (34) 
energy

>  <rmsd>  (34) 
3.777181835223033

>  <m_score__min__rmsd>  (34) 
3.777181835223033

>  <meeko>  (34) 
{"free_energy": -8.42, "intermolecular_energy": -10.21, "internal_energy": -1.59, "cluster_size": 17, "cluster_id": 1, "rank_in_cluster": 1}

>  <energy>  (34) 
-7.06

>  <cluster_rmsd>  (34) 
0.57

>  <cluster>  (34) 
3

$$$$

     RDKit          3D

 48 50  0  0  0  0  0  0  0  0999 V2000
  140.8240   71.8760  222.7080 C   0  0  0  0  0  0  0  0  0  0  0  0
  140.1140   72.1660  223.8840 O   0  0  0  0  0  0  0  0  0  0  0  0
  140.0640   71.3640  225.0080 C   0  0  0  0  0  0  0  0  0  0  0  0
  141.0330   71.5780  225.9720 C   0  0  0  0  0  0  0  0  0  0  0  0
  141.0650   70.8240  227.1290 C   0  0  0  0  0  0  0  0  0  0  0  0
  140.0960   69.8600  227.2700 C   0  0  0  0  0  0  0  0  0  0  0  0
  139.1320   69.6480  226.3100 C   0  0  0  0  0  0  0  0  0  0  0  0
  139.0810   70.4020  225.1280 C   0  0  0  0  0  0  0  0  0  0  0  0
  138.0400   70.1450  224.1330 C   0  0  2  0  0  0  0  0  0  0  0  0
  138.2570   68.8660  223.3330 C   0  0  0  0  0  0  0  0  0  0  0  0
  137.8110   71.2030  223.1850 N   0  0  0  0  0  0  0  0  0  0  0  0
  136.4830   71.7030  223.0680 C   0  0  0  0  0  0  0  0  0  0  0  0
  135.5520   71.2090  223.7920 O   0  0  0  0  0  0  0  0  0  0  0  0
  136.1930   72.7930  222.1060 C   0  0  0  0  0  0  0  0  0  0  0  0
  136.9630   73.9780  222.3560 N   0  0  0  0  0  0  0  0  0  0  0  0
  138.2490   74.0670  221.7320 C   0  0  0  0  0  0  0  0  0  0  0  0
  138.6340   73.1140  221.0060 O   0  0  0  0  0  0  0  0  0  0  0  0
  139.0810   75.2410  221.9450 C   0  0  0  0  0  0  0  0  0  0  0  0
  140.4070   75.1970  221.5530 C   0  0  0  0  0  0  0  0  0  0  0  0
  141.1840   76.3090  221.7580 C   0  0  0  0  0  0  0  0  0  0  0  0
  140.7080   77.4660  222.3330 C   0  0  0  0  0  0  0  0  0  0  0  0
  141.4770   78.5880  222.5430 C   0  0  0  0  0  0  0  0  0  0  0  0
  140.9630   79.7160  223.1180 C   0  0  0  0  0  0  0  0  0  0  0  0
  142.0100   81.0960  223.3490 Cl  0  0  0  0  0  0  0  0  0  0  0  0
  139.6380   79.7310  223.4980 C   0  0  0  0  0  0  0  0  0  0  0  0
  138.8540   78.6060  223.2920 C   0  0  0  0  0  0  0  0  0  0  0  0
  139.3620   77.4630  222.7120 C   0  0  0  0  0  0  0  0  0  0  0  0
  138.6080   76.3680  222.5080 N   0  0  0  0  0  0  0  0  0  0  0  0
  141.8136   71.4718  222.9674 H   0  0  0  0  0  0  0  0  0  0  0  0
  140.2677   71.1330  222.1176 H   0  0  0  0  0  0  0  0  0  0  0  0
  140.9469   72.7960  222.1176 H   0  0  0  0  0  0  0  0  0  0  0  0
  141.7897   72.3607  225.8147 H   0  0  0  0  0  0  0  0  0  0  0  0
  141.8307   70.9877  227.9016 H   0  0  0  0  0  0  0  0  0  0  0  0
  140.0902   69.2386  228.1777 H   0  0  0  0  0  0  0  0  0  0  0  0
  138.3788   68.8634  226.4749 H   0  0  0  0  0  0  0  0  0  0  0  0
  137.1523   70.0533  224.7762 H   0  0  0  0  0  0  0  0  0  0  0  0
  138.4003   68.0216  224.0233 H   0  0  0  0  0  0  0  0  0  0  0  0
  137.3782   68.6764  222.6992 H   0  0  0  0  0  0  0  0  0  0  0  0
  139.1492   68.9769  222.6992 H   0  0  0  0  0  0  0  0  0  0  0  0
  138.5260   71.6350  222.5740 H   0  0  0  0  0  0  0  0  0  0  0  0
  136.4196   72.4348  221.0909 H   0  0  0  0  0  0  0  0  0  0  0  0
  135.1316   73.0591  222.2187 H   0  0  0  0  0  0  0  0  0  0  0  0
  136.6090   74.7670  222.9760 H   0  0  0  0  0  0  0  0  0  0  0  0
  140.8278   74.2930  221.0885 H   0  0  0  0  0  0  0  0  0  0  0  0
  142.2388   76.2746  221.4478 H   0  0  0  0  0  0  0  0  0  0  0  0
  142.5343   78.5763  222.2397 H   0  0  0  0  0  0  0  0  0  0  0  0
  139.2054   80.6298  223.9617 H   0  0  0  0  0  0  0  0  0  0  0  0
  137.7981   78.6260  223.5997 H   0  0  0  0  0  0  0  0  0  0  0  0
  1  2  1  0
  2  3  1  0
  3  4  2  0
  4  5  1  0
  5  6  2  0
  6  7  1  0
  7  8  2  0
  8  9  1  0
  9 10  1  0
  9 11  1  0
 11 12  1  0
 12 13  2  0
 12 14  1  0
 14 15  1  0
 15 16  1  0
 16 17  2  0
 16 18  1  0
 18 19  2  0
 19 20  1  0
 20 21  2  0
 21 22  1  0
 22 23  2  0
 23 24  1  0
 23 25  1  0
 25 26  2  0
 26 27  1  0
 27 28  2  0
  8  3  1  0
 28 18  1  0
 27 21  1  0
  1 29  1  0
  1 30  1  0
  1 31  1  0
  4 32  1  0
  5 33  1  0
  6 34  1  0
  7 35  1  0
  9 36  1  1
 10 37  1  0
 10 38  1  0
 10 39  1  0
 11 40  1  0
 14 41  1  0
 14 42  1  0
 15 43  1  0
 19 44  1  0
 20 45  1  0
 22 46  1  0
 25 47  1  0
 26 48  1  0
M  END
>  <smiles>  (35) 
COc1ccccc1[C@H](C)NC(=O)CNC(=O)c1ccc2cc(Cl)ccc2n1

>  <score_type>  (35) 
oracle

>  <origin>  (35) 
autodockgpu

>  <m_score__min__energy>  (35) 
-8.4199999999999999

>  <m_primary>  (35) 
energy

>  <rmsd>  (35) 
9.8099868727982

>  <m_score__min__rmsd>  (35) 
9.8099868727982

>  <meeko>  (35) 
{"free_energy": -6.76, "intermolecular_energy": -8.55, "internal_energy": -2.8, "cluster_size": 17, "cluster_id": 3, "rank_in_cluster": 17}

>  <energy>  (35) 
-7.04

>  <cluster_rmsd>  (35) 
0.6

>  <cluster>  (35) 
3

$$$$

     RDKit          3D

 48 50  0  0  0  0  0  0  0  0999 V2000
  140.7330   71.5440  222.8600 C   0  0  0  0  0  0  0  0  0  0  0  0
  140.0970   71.8880  224.0640 O   0  0  0  0  0  0  0  0  0  0  0  0
  140.0810   71.1140  225.2090 C   0  0  0  0  0  0  0  0  0  0  0  0
  141.0300   71.4040  226.1720 C   0  0  0  0  0  0  0  0  0  0  0  0
  141.0920   70.6840  227.3500 C   0  0  0  0  0  0  0  0  0  0  0  0
  140.1720   69.6760  227.5110 C   0  0  0  0  0  0  0  0  0  0  0  0
  139.2280   69.3900  226.5520 C   0  0  0  0  0  0  0  0  0  0  0  0
  139.1470   70.1070  225.3500 C   0  0  0  0  0  0  0  0  0  0  0  0
  138.1270   69.7710  224.3560 C   0  0  2  0  0  0  0  0  0  0  0  0
  138.4510   68.5230  223.5420 C   0  0  0  0  0  0  0  0  0  0  0  0
  137.8030   70.8150  223.4200 N   0  0  0  0  0  0  0  0  0  0  0  0
  136.4920   71.3670  223.4830 C   0  0  0  0  0  0  0  0  0  0  0  0
  135.6580   70.9310  224.3480 O   0  0  0  0  0  0  0  0  0  0  0  0
  136.1060   72.4460  222.5400 C   0  0  0  0  0  0  0  0  0  0  0  0
  136.9080   73.6260  222.6850 N   0  0  0  0  0  0  0  0  0  0  0  0
  138.1190   73.6930  221.9210 C   0  0  0  0  0  0  0  0  0  0  0  0
  138.4130   72.7250  221.1730 O   0  0  0  0  0  0  0  0  0  0  0  0
  138.9790   74.8620  222.0220 C   0  0  0  0  0  0  0  0  0  0  0  0
  140.2950   74.7570  221.6110 C   0  0  0  0  0  0  0  0  0  0  0  0
  141.0990   75.8640  221.7090 C   0  0  0  0  0  0  0  0  0  0  0  0
  140.6580   77.0750  222.1950 C   0  0  0  0  0  0  0  0  0  0  0  0
  141.4540   78.1930  222.2990 C   0  0  0  0  0  0  0  0  0  0  0  0
  140.9750   79.3760  222.7870 C   0  0  0  0  0  0  0  0  0  0  0  0
  142.0540   80.7460  222.8850 Cl  0  0  0  0  0  0  0  0  0  0  0  0
  139.6580   79.4500  223.1890 C   0  0  0  0  0  0  0  0  0  0  0  0
  138.8470   78.3300  223.0900 C   0  0  0  0  0  0  0  0  0  0  0  0
  139.3210   77.1320  222.5970 C   0  0  0  0  0  0  0  0  0  0  0  0
  138.5400   76.0410  222.4980 N   0  0  0  0  0  0  0  0  0  0  0  0
  141.6811   71.0312  223.0796 H   0  0  0  0  0  0  0  0  0  0  0  0
  140.0807   70.8757  222.2787 H   0  0  0  0  0  0  0  0  0  0  0  0
  140.9353   72.4557  222.2787 H   0  0  0  0  0  0  0  0  0  0  0  0
  141.7465   72.2202  225.9978 H   0  0  0  0  0  0  0  0  0  0  0  0
  141.8426   70.9073  228.1225 H   0  0  0  0  0  0  0  0  0  0  0  0
  140.1909   69.0795  228.4350 H   0  0  0  0  0  0  0  0  0  0  0  0
  138.5143   68.5730  226.7341 H   0  0  0  0  0  0  0  0  0  0  0  0
  137.2531   69.5966  225.0008 H   0  0  0  0  0  0  0  0  0  0  0  0
  138.6680   67.6870  224.2232 H   0  0  0  0  0  0  0  0  0  0  0  0
  137.5900   68.2651  222.9078 H   0  0  0  0  0  0  0  0  0  0  0  0
  139.3287   68.7165  222.9078 H   0  0  0  0  0  0  0  0  0  0  0  0
  138.4370   71.2010  222.7000 H   0  0  0  0  0  0  0  0  0  0  0  0
  136.2167   72.0703  221.5121 H   0  0  0  0  0  0  0  0  0  0  0  0
  135.0655   72.7240  222.7638 H   0  0  0  0  0  0  0  0  0  0  0  0
  136.6320   74.4280  223.3260 H   0  0  0  0  0  0  0  0  0  0  0  0
  140.6876   73.8088  221.2151 H   0  0  0  0  0  0  0  0  0  0  0  0
  142.1465   75.7806  221.3838 H   0  0  0  0  0  0  0  0  0  0  0  0
  142.5051   78.1325  221.9804 H   0  0  0  0  0  0  0  0  0  0  0  0
  139.2531   80.3926  223.5861 H   0  0  0  0  0  0  0  0  0  0  0  0
  137.7978   78.3984  223.4131 H   0  0  0  0  0  0  0  0  0  0  0  0
  1  2  1  0
  2  3  1  0
  3  4  2  0
  4  5  1  0
  5  6  2  0
  6  7  1  0
  7  8  2  0
  8  9  1  0
  9 10  1  0
  9 11  1  0
 11 12  1  0
 12 13  2  0
 12 14  1  0
 14 15  1  0
 15 16  1  0
 16 17  2  0
 16 18  1  0
 18 19  2  0
 19 20  1  0
 20 21  2  0
 21 22  1  0
 22 23  2  0
 23 24  1  0
 23 25  1  0
 25 26  2  0
 26 27  1  0
 27 28  2  0
  8  3  1  0
 28 18  1  0
 27 21  1  0
  1 29  1  0
  1 30  1  0
  1 31  1  0
  4 32  1  0
  5 33  1  0
  6 34  1  0
  7 35  1  0
  9 36  1  1
 10 37  1  0
 10 38  1  0
 10 39  1  0
 11 40  1  0
 14 41  1  0
 14 42  1  0
 15 43  1  0
 19 44  1  0
 20 45  1  0
 22 46  1  0
 25 47  1  0
 26 48  1  0
M  END
>  <smiles>  (36) 
COc1ccccc1[C@H](C)NC(=O)CNC(=O)c1ccc2cc(Cl)ccc2n1

>  <score_type>  (36) 
oracle

>  <origin>  (36) 
autodockgpu

>  <m_score__min__energy>  (36) 
-8.4199999999999999

>  <m_primary>  (36) 
energy

>  <rmsd>  (36) 
9.935016037424054

>  <m_score__min__rmsd>  (36) 
9.935016037424054

>  <meeko>  (36) 
{"free_energy": -7.04, "intermolecular_energy": -8.83, "internal_energy": -2.72, "cluster_size": 17, "cluster_id": 3, "rank_in_cluster": 10}

>  <energy>  (36) 
-7.04

>  <cluster_rmsd>  (36) 
0.56

>  <cluster>  (36) 
3

$$$$

     RDKit          3D

 48 50  0  0  0  0  0  0  0  0999 V2000
  140.7040   71.9940  222.3850 C   0  0  0  0  0  0  0  0  0  0  0  0
  140.3290   72.3550  223.6890 O   0  0  0  0  0  0  0  0  0  0  0  0
  140.2180   71.4870  224.7590 C   0  0  0  0  0  0  0  0  0  0  0  0
  141.2310   71.5230  225.7000 C   0  0  0  0  0  0  0  0  0  0  0  0
  141.2080   70.6910  226.8030 C   0  0  0  0  0  0  0  0  0  0  0  0
  140.1380   69.8370  226.9150 C   0  0  0  0  0  0  0  0  0  0  0  0
  139.1300   69.8030  225.9780 C   0  0  0  0  0  0  0  0  0  0  0  0
  139.1340   70.6380  224.8510 C   0  0  0  0  0  0  0  0  0  0  0  0
  138.0420   70.5710  223.8790 C   0  0  2  0  0  0  0  0  0  0  0  0
  138.3100   69.6190  222.7190 C   0  0  0  0  0  0  0  0  0  0  0  0
  137.6380   71.8290  223.3100 N   0  0  0  0  0  0  0  0  0  0  0  0
  136.2560   72.0010  223.0130 C   0  0  0  0  0  0  0  0  0  0  0  0
  135.4310   71.0550  223.2540 O   0  0  0  0  0  0  0  0  0  0  0  0
  135.7880   73.2790  222.4240 C   0  0  0  0  0  0  0  0  0  0  0  0
  136.6660   74.3780  222.7060 N   0  0  0  0  0  0  0  0  0  0  0  0
  137.8850   74.4500  221.9570 C   0  0  0  0  0  0  0  0  0  0  0  0
  138.1210   73.5580  221.1020 O   0  0  0  0  0  0  0  0  0  0  0  0
  138.8210   75.5390  222.1930 C   0  0  0  0  0  0  0  0  0  0  0  0
  140.1650   75.3250  221.9500 C   0  0  0  0  0  0  0  0  0  0  0  0
  141.0410   76.3570  222.1760 C   0  0  0  0  0  0  0  0  0  0  0  0
  140.6450   77.5950  222.6310 C   0  0  0  0  0  0  0  0  0  0  0  0
  141.5130   78.6390  222.8610 C   0  0  0  0  0  0  0  0  0  0  0  0
  141.0770   79.8520  223.3130 C   0  0  0  0  0  0  0  0  0  0  0  0
  142.2460   81.1220  223.5790 Cl  0  0  0  0  0  0  0  0  0  0  0  0
  139.7310   80.0360  223.5460 C   0  0  0  0  0  0  0  0  0  0  0  0
  138.8470   78.9910  223.3180 C   0  0  0  0  0  0  0  0  0  0  0  0
  139.2770   77.7640  222.8610 C   0  0  0  0  0  0  0  0  0  0  0  0
  138.4260   76.7460  222.6380 N   0  0  0  0  0  0  0  0  0  0  0  0
  141.4958   71.2317  222.4289 H   0  0  0  0  0  0  0  0  0  0  0  0
  139.8321   71.5867  221.8522 H   0  0  0  0  0  0  0  0  0  0  0  0
  141.0779   72.8808  221.8522 H   0  0  0  0  0  0  0  0  0  0  0  0
  142.0678   72.2247  225.5683 H   0  0  0  0  0  0  0  0  0  0  0  0
  142.0093   70.7116  227.5563 H   0  0  0  0  0  0  0  0  0  0  0  0
  140.0849   69.1595  227.7799 H   0  0  0  0  0  0  0  0  0  0  0  0
  138.2960   69.0995  226.1174 H   0  0  0  0  0  0  0  0  0  0  0  0
  137.2227   70.1931  224.5082 H   0  0  0  0  0  0  0  0  0  0  0  0
  138.5883   68.6303  223.1128 H   0  0  0  0  0  0  0  0  0  0  0  0
  137.4030   69.5265  222.1035 H   0  0  0  0  0  0  0  0  0  0  0  0
  139.1321   70.0132  222.1035 H   0  0  0  0  0  0  0  0  0  0  0  0
  138.2640   72.6240  223.0920 H   0  0  0  0  0  0  0  0  0  0  0  0
  135.7169   73.1575  221.3330 H   0  0  0  0  0  0  0  0  0  0  0  0
  134.8118   73.5122  222.8743 H   0  0  0  0  0  0  0  0  0  0  0  0
  136.4390   75.1180  223.4360 H   0  0  0  0  0  0  0  0  0  0  0  0
  140.5235   74.3514  221.5845 H   0  0  0  0  0  0  0  0  0  0  0  0
  142.1108   76.1871  221.9845 H   0  0  0  0  0  0  0  0  0  0  0  0
  142.5873   78.4920  222.6756 H   0  0  0  0  0  0  0  0  0  0  0  0
  139.3599   81.0053  223.9105 H   0  0  0  0  0  0  0  0  0  0  0  0
  137.7745   79.1461  223.5070 H   0  0  0  0  0  0  0  0  0  0  0  0
  1  2  1  0
  2  3  1  0
  3  4  2  0
  4  5  1  0
  5  6  2  0
  6  7  1  0
  7  8  2  0
  8  9  1  0
  9 10  1  0
  9 11  1  0
 11 12  1  0
 12 13  2  0
 12 14  1  0
 14 15  1  0
 15 16  1  0
 16 17  2  0
 16 18  1  0
 18 19  2  0
 19 20  1  0
 20 21  2  0
 21 22  1  0
 22 23  2  0
 23 24  1  0
 23 25  1  0
 25 26  2  0
 26 27  1  0
 27 28  2  0
  8  3  1  0
 28 18  1  0
 27 21  1  0
  1 29  1  0
  1 30  1  0
  1 31  1  0
  4 32  1  0
  5 33  1  0
  6 34  1  0
  7 35  1  0
  9 36  1  1
 10 37  1  0
 10 38  1  0
 10 39  1  0
 11 40  1  0
 14 41  1  0
 14 42  1  0
 15 43  1  0
 19 44  1  0
 20 45  1  0
 22 46  1  0
 25 47  1  0
 26 48  1  0
M  END
>  <smiles>  (37) 
COc1ccccc1[C@H](C)NC(=O)CNC(=O)c1ccc2cc(Cl)ccc2n1

>  <score_type>  (37) 
oracle

>  <origin>  (37) 
autodockgpu

>  <m_score__min__energy>  (37) 
-8.4199999999999999

>  <m_primary>  (37) 
energy

>  <rmsd>  (37) 
9.656958000827817

>  <m_score__min__rmsd>  (37) 
9.656958000827817

>  <meeko>  (37) 
{"free_energy": -7.14, "intermolecular_energy": -8.93, "internal_energy": -2.76, "cluster_size": 17, "cluster_id": 3, "rank_in_cluster": 4}

>  <energy>  (37) 
-7.04

>  <cluster_rmsd>  (37) 
0.63

>  <cluster>  (37) 
3

$$$$

     RDKit          3D

 48 50  0  0  0  0  0  0  0  0999 V2000
  140.7550   71.7760  222.7010 C   0  0  0  0  0  0  0  0  0  0  0  0
  140.1620   72.0930  223.9340 O   0  0  0  0  0  0  0  0  0  0  0  0
  140.1220   71.2640  225.0400 C   0  0  0  0  0  0  0  0  0  0  0  0
  141.0790   71.4790  226.0150 C   0  0  0  0  0  0  0  0  0  0  0  0
  141.1200   70.7000  227.1560 C   0  0  0  0  0  0  0  0  0  0  0  0
  140.1710   69.7130  227.2680 C   0  0  0  0  0  0  0  0  0  0  0  0
  139.2200   69.5000  226.2960 C   0  0  0  0  0  0  0  0  0  0  0  0
  139.1610   70.2780  225.1310 C   0  0  0  0  0  0  0  0  0  0  0  0
  138.1320   70.0210  224.1230 C   0  0  2  0  0  0  0  0  0  0  0  0
  138.4620   68.8590  223.1930 C   0  0  0  0  0  0  0  0  0  0  0  0
  137.7810   71.1420  223.2920 N   0  0  0  0  0  0  0  0  0  0  0  0
  136.4390   71.6140  223.3600 C   0  0  0  0  0  0  0  0  0  0  0  0
  135.6030   71.0410  224.1390 O   0  0  0  0  0  0  0  0  0  0  0  0
  136.0250   72.7660  222.5240 C   0  0  0  0  0  0  0  0  0  0  0  0
  136.8530   73.9220  222.7180 N   0  0  0  0  0  0  0  0  0  0  0  0
  138.0290   74.0280  221.9070 C   0  0  0  0  0  0  0  0  0  0  0  0
  138.2730   73.1150  221.0770 O   0  0  0  0  0  0  0  0  0  0  0  0
  138.9120   75.1750  222.0540 C   0  0  0  0  0  0  0  0  0  0  0  0
  140.2330   75.0520  221.6640 C   0  0  0  0  0  0  0  0  0  0  0  0
  141.0590   76.1380  221.8050 C   0  0  0  0  0  0  0  0  0  0  0  0
  140.6360   77.3450  222.3150 C   0  0  0  0  0  0  0  0  0  0  0  0
  141.4540   78.4420  222.4630 C   0  0  0  0  0  0  0  0  0  0  0  0
  140.9920   79.6220  222.9740 C   0  0  0  0  0  0  0  0  0  0  0  0
  142.0980   80.9650  223.1270 Cl  0  0  0  0  0  0  0  0  0  0  0  0
  139.6700   79.7150  223.3540 C   0  0  0  0  0  0  0  0  0  0  0  0
  138.8370   78.6160  223.2110 C   0  0  0  0  0  0  0  0  0  0  0  0
  139.2930   77.4220  222.6950 C   0  0  0  0  0  0  0  0  0  0  0  0
  138.4910   76.3510  222.5530 N   0  0  0  0  0  0  0  0  0  0  0  0
  141.7128   71.2640  222.8756 H   0  0  0  0  0  0  0  0  0  0  0  0
  140.0849   71.1158  222.1308 H   0  0  0  0  0  0  0  0  0  0  0  0
  140.9318   72.6999  222.1308 H   0  0  0  0  0  0  0  0  0  0  0  0
  141.8186   72.2820  225.8804 H   0  0  0  0  0  0  0  0  0  0  0  0
  141.8768   70.8627  227.9375 H   0  0  0  0  0  0  0  0  0  0  0  0
  140.1712   69.0728  228.1625 H   0  0  0  0  0  0  0  0  0  0  0  0
  138.4839   68.6949  226.4375 H   0  0  0  0  0  0  0  0  0  0  0  0
  137.2693   69.7753  224.7596 H   0  0  0  0  0  0  0  0  0  0  0  0
  138.7142   67.9709  223.7911 H   0  0  0  0  0  0  0  0  0  0  0  0
  137.5910   68.6385  222.5584 H   0  0  0  0  0  0  0  0  0  0  0  0
  139.3189   69.1292  222.5584 H   0  0  0  0  0  0  0  0  0  0  0  0
  138.4160   71.6380  222.6430 H   0  0  0  0  0  0  0  0  0  0  0  0
  136.0784   72.4693  221.4661 H   0  0  0  0  0  0  0  0  0  0  0  0
  135.0016   73.0389  222.8210 H   0  0  0  0  0  0  0  0  0  0  0  0
  136.6190   74.6780  223.4290 H   0  0  0  0  0  0  0  0  0  0  0  0
  140.6124   74.1059  221.2506 H   0  0  0  0  0  0  0  0  0  0  0  0
  142.1101   76.0399  221.4957 H   0  0  0  0  0  0  0  0  0  0  0  0
  142.5092   78.3666  222.1615 H   0  0  0  0  0  0  0  0  0  0  0  0
  139.2784   80.6557  223.7683 H   0  0  0  0  0  0  0  0  0  0  0  0
  137.7839   78.6992  223.5176 H   0  0  0  0  0  0  0  0  0  0  0  0
  1  2  1  0
  2  3  1  0
  3  4  2  0
  4  5  1  0
  5  6  2  0
  6  7  1  0
  7  8  2  0
  8  9  1  0
  9 10  1  0
  9 11  1  0
 11 12  1  0
 12 13  2  0
 12 14  1  0
 14 15  1  0
 15 16  1  0
 16 17  2  0
 16 18  1  0
 18 19  2  0
 19 20  1  0
 20 21  2  0
 21 22  1  0
 22 23  2  0
 23 24  1  0
 23 25  1  0
 25 26  2  0
 26 27  1  0
 27 28  2  0
  8  3  1  0
 28 18  1  0
 27 21  1  0
  1 29  1  0
  1 30  1  0
  1 31  1  0
  4 32  1  0
  5 33  1  0
  6 34  1  0
  7 35  1  0
  9 36  1  1
 10 37  1  0
 10 38  1  0
 10 39  1  0
 11 40  1  0
 14 41  1  0
 14 42  1  0
 15 43  1  0
 19 44  1  0
 20 45  1  0
 22 46  1  0
 25 47  1  0
 26 48  1  0
M  END
>  <smiles>  (38) 
COc1ccccc1[C@H](C)NC(=O)CNC(=O)c1ccc2cc(Cl)ccc2n1

>  <score_type>  (38) 
oracle

>  <origin>  (38) 
autodockgpu

>  <m_score__min__energy>  (38) 
-8.4199999999999999

>  <m_primary>  (38) 
energy

>  <rmsd>  (38) 
9.849694278456678

>  <m_score__min__rmsd>  (38) 
9.849694278456678

>  <meeko>  (38) 
{"free_energy": -7.01, "intermolecular_energy": -8.8, "internal_energy": -2.77, "cluster_size": 17, "cluster_id": 3, "rank_in_cluster": 14}

>  <energy>  (38) 
-7.03

>  <cluster_rmsd>  (38) 
0.58

>  <cluster>  (38) 
3

$$$$

     RDKit          3D

 48 50  0  0  0  0  0  0  0  0999 V2000
  140.7000   71.7390  222.6370 C   0  0  0  0  0  0  0  0  0  0  0  0
  140.0320   71.9950  223.8460 O   0  0  0  0  0  0  0  0  0  0  0  0
  140.0250   71.1610  224.9480 C   0  0  0  0  0  0  0  0  0  0  0  0
  141.0090   71.3720  225.8960 C   0  0  0  0  0  0  0  0  0  0  0  0
  141.0820   70.5870  227.0320 C   0  0  0  0  0  0  0  0  0  0  0  0
  140.1370   69.5990  227.1660 C   0  0  0  0  0  0  0  0  0  0  0  0
  139.1580   69.3910  226.2210 C   0  0  0  0  0  0  0  0  0  0  0  0
  139.0660   70.1750  225.0610 C   0  0  0  0  0  0  0  0  0  0  0  0
  138.0090   69.9220  224.0810 C   0  0  2  0  0  0  0  0  0  0  0  0
  138.2790   68.7200  223.1840 C   0  0  0  0  0  0  0  0  0  0  0  0
  137.6810   71.0280  223.2210 N   0  0  0  0  0  0  0  0  0  0  0  0
  136.3990   71.6260  223.3830 C   0  0  0  0  0  0  0  0  0  0  0  0
  135.5930   71.1740  224.2670 O   0  0  0  0  0  0  0  0  0  0  0  0
  136.0100   72.7690  222.5210 C   0  0  0  0  0  0  0  0  0  0  0  0
  136.8430   73.9210  222.7140 N   0  0  0  0  0  0  0  0  0  0  0  0
  138.0310   74.0110  221.9180 C   0  0  0  0  0  0  0  0  0  0  0  0
  138.2800   73.0880  221.1010 O   0  0  0  0  0  0  0  0  0  0  0  0
  138.9190   75.1540  222.0650 C   0  0  0  0  0  0  0  0  0  0  0  0
  140.2380   75.0250  221.6720 C   0  0  0  0  0  0  0  0  0  0  0  0
  141.0700   76.1080  221.8140 C   0  0  0  0  0  0  0  0  0  0  0  0
  140.6530   77.3150  222.3270 C   0  0  0  0  0  0  0  0  0  0  0  0
  141.4760   78.4090  222.4740 C   0  0  0  0  0  0  0  0  0  0  0  0
  141.0200   79.5900  222.9890 C   0  0  0  0  0  0  0  0  0  0  0  0
  142.1330   80.9280  223.1410 Cl  0  0  0  0  0  0  0  0  0  0  0  0
  139.7000   79.6890  223.3720 C   0  0  0  0  0  0  0  0  0  0  0  0
  138.8610   78.5930  223.2280 C   0  0  0  0  0  0  0  0  0  0  0  0
  139.3110   77.3980  222.7090 C   0  0  0  0  0  0  0  0  0  0  0  0
  138.5040   76.3310  222.5670 N   0  0  0  0  0  0  0  0  0  0  0  0
  141.7078   71.3528  222.8496 H   0  0  0  0  0  0  0  0  0  0  0  0
  140.1362   70.9932  222.0574 H   0  0  0  0  0  0  0  0  0  0  0  0
  140.7790   72.6705  222.0574 H   0  0  0  0  0  0  0  0  0  0  0  0
  141.7444   72.1759  225.7444 H   0  0  0  0  0  0  0  0  0  0  0  0
  141.8604   70.7462  227.7928 H   0  0  0  0  0  0  0  0  0  0  0  0
  140.1635   68.9538  228.0565 H   0  0  0  0  0  0  0  0  0  0  0  0
  138.4256   68.5858  226.3800 H   0  0  0  0  0  0  0  0  0  0  0  0
  137.1510   69.7268  224.7411 H   0  0  0  0  0  0  0  0  0  0  0  0
  138.4778   67.8352  223.8066 H   0  0  0  0  0  0  0  0  0  0  0  0
  137.4008   68.5317  222.5490 H   0  0  0  0  0  0  0  0  0  0  0  0
  139.1534   68.9254  222.5490 H   0  0  0  0  0  0  0  0  0  0  0  0
  138.2930   71.4290  222.4900 H   0  0  0  0  0  0  0  0  0  0  0  0
  136.0818   72.4559  221.4689 H   0  0  0  0  0  0  0  0  0  0  0  0
  134.9831   73.0541  222.7933 H   0  0  0  0  0  0  0  0  0  0  0  0
  136.6040   74.6860  223.4140 H   0  0  0  0  0  0  0  0  0  0  0  0
  140.6119   74.0779  221.2557 H   0  0  0  0  0  0  0  0  0  0  0  0
  142.1201   76.0060  221.5028 H   0  0  0  0  0  0  0  0  0  0  0  0
  142.5298   78.3303  222.1685 H   0  0  0  0  0  0  0  0  0  0  0  0
  139.3138   80.6307  223.7892 H   0  0  0  0  0  0  0  0  0  0  0  0
  137.8087   78.6803  223.5363 H   0  0  0  0  0  0  0  0  0  0  0  0
  1  2  1  0
  2  3  1  0
  3  4  2  0
  4  5  1  0
  5  6  2  0
  6  7  1  0
  7  8  2  0
  8  9  1  0
  9 10  1  0
  9 11  1  0
 11 12  1  0
 12 13  2  0
 12 14  1  0
 14 15  1  0
 15 16  1  0
 16 17  2  0
 16 18  1  0
 18 19  2  0
 19 20  1  0
 20 21  2  0
 21 22  1  0
 22 23  2  0
 23 24  1  0
 23 25  1  0
 25 26  2  0
 26 27  1  0
 27 28  2  0
  8  3  1  0
 28 18  1  0
 27 21  1  0
  1 29  1  0
  1 30  1  0
  1 31  1  0
  4 32  1  0
  5 33  1  0
  6 34  1  0
  7 35  1  0
  9 36  1  1
 10 37  1  0
 10 38  1  0
 10 39  1  0
 11 40  1  0
 14 41  1  0
 14 42  1  0
 15 43  1  0
 19 44  1  0
 20 45  1  0
 22 46  1  0
 25 47  1  0
 26 48  1  0
M  END
>  <smiles>  (39) 
COc1ccccc1[C@H](C)NC(=O)CNC(=O)c1ccc2cc(Cl)ccc2n1

>  <score_type>  (39) 
oracle

>  <origin>  (39) 
autodockgpu

>  <m_score__min__energy>  (39) 
-8.4199999999999999

>  <m_primary>  (39) 
energy

>  <rmsd>  (39) 
9.900864207927649

>  <m_score__min__rmsd>  (39) 
9.900864207927649

>  <meeko>  (39) 
{"free_energy": -6.98, "intermolecular_energy": -8.77, "internal_energy": -2.73, "cluster_size": 17, "cluster_id": 3, "rank_in_cluster": 16}

>  <energy>  (39) 
-7.01

>  <cluster_rmsd>  (39) 
0.57

>  <cluster>  (39) 
3

$$$$

     RDKit          3D

 48 50  0  0  0  0  0  0  0  0999 V2000
  138.3020   79.3070  223.1040 C   0  0  0  0  0  0  0  0  0  0  0  0
  139.3880   79.6580  222.2850 O   0  0  0  0  0  0  0  0  0  0  0  0
  140.6670   79.9380  222.7290 C   0  0  0  0  0  0  0  0  0  0  0  0
  140.7900   80.9080  223.7070 C   0  0  0  0  0  0  0  0  0  0  0  0
  142.0280   81.2570  224.2120 C   0  0  0  0  0  0  0  0  0  0  0  0
  143.1170   80.5980  223.6960 C   0  0  0  0  0  0  0  0  0  0  0  0
  142.9930   79.6330  222.7230 C   0  0  0  0  0  0  0  0  0  0  0  0
  141.7470   79.2640  222.1960 C   0  0  0  0  0  0  0  0  0  0  0  0
  141.6580   78.2320  221.1620 C   0  0  2  0  0  0  0  0  0  0  0  0
  141.7580   78.7760  219.7420 C   0  0  0  0  0  0  0  0  0  0  0  0
  140.4870   77.3970  221.2150 N   0  0  0  0  0  0  0  0  0  0  0  0
  140.6820   75.9880  221.1430 C   0  0  0  0  0  0  0  0  0  0  0  0
  141.8650   75.5150  221.0350 O   0  0  0  0  0  0  0  0  0  0  0  0
  139.5080   75.0840  221.1930 C   0  0  0  0  0  0  0  0  0  0  0  0
  139.5470   74.1800  222.3070 N   0  0  0  0  0  0  0  0  0  0  0  0
  139.9340   72.8270  222.0400 C   0  0  0  0  0  0  0  0  0  0  0  0
  140.2160   72.5040  220.8570 O   0  0  0  0  0  0  0  0  0  0  0  0
  139.9940   71.8600  223.1250 C   0  0  0  0  0  0  0  0  0  0  0  0
  139.5380   70.5750  222.8960 C   0  0  0  0  0  0  0  0  0  0  0  0
  139.5980   69.6690  223.9250 C   0  0  0  0  0  0  0  0  0  0  0  0
  140.0910   69.9780  225.1730 C   0  0  0  0  0  0  0  0  0  0  0  0
  140.1570   69.0790  226.2130 C   0  0  0  0  0  0  0  0  0  0  0  0
  140.6550   69.4280  227.4370 C   0  0  0  0  0  0  0  0  0  0  0  0
  140.7010   68.2250  228.7020 Cl  0  0  0  0  0  0  0  0  0  0  0  0
  141.1020   70.7170  227.6350 C   0  0  0  0  0  0  0  0  0  0  0  0
  141.0400   71.6310  226.5950 C   0  0  0  0  0  0  0  0  0  0  0  0
  140.5410   71.2890  225.3560 C   0  0  0  0  0  0  0  0  0  0  0  0
  140.4780   72.1700  224.3420 N   0  0  0  0  0  0  0  0  0  0  0  0
  138.5939   79.4013  224.1604 H   0  0  0  0  0  0  0  0  0  0  0  0
  137.4547   79.9770  222.8965 H   0  0  0  0  0  0  0  0  0  0  0  0
  138.0071   78.2678  222.8965 H   0  0  0  0  0  0  0  0  0  0  0  0
  139.8884   81.4094  224.0888 H   0  0  0  0  0  0  0  0  0  0  0  0
  142.1362   82.0264  224.9906 H   0  0  0  0  0  0  0  0  0  0  0  0
  144.1196   80.8495  224.0723 H   0  0  0  0  0  0  0  0  0  0  0  0
  143.8992   79.1357  222.3470 H   0  0  0  0  0  0  0  0  0  0  0  0
  142.5368   77.6158  221.4030 H   0  0  0  0  0  0  0  0  0  0  0  0
  141.9568   79.8573  219.7768 H   0  0  0  0  0  0  0  0  0  0  0  0
  142.5781   78.2693  219.2121 H   0  0  0  0  0  0  0  0  0  0  0  0
  140.8114   78.5940  219.2121 H   0  0  0  0  0  0  0  0  0  0  0  0
  139.5110   77.7290  221.2980 H   0  0  0  0  0  0  0  0  0  0  0  0
  138.5969   75.6956  221.2689 H   0  0  0  0  0  0  0  0  0  0  0  0
  139.5184   74.4779  220.2751 H   0  0  0  0  0  0  0  0  0  0  0  0
  139.3030   74.4850  223.2960 H   0  0  0  0  0  0  0  0  0  0  0  0
  139.1370   70.2860  221.9133 H   0  0  0  0  0  0  0  0  0  0  0  0
  139.2347   68.6466  223.7441 H   0  0  0  0  0  0  0  0  0  0  0  0
  139.7990   68.0510  226.0547 H   0  0  0  0  0  0  0  0  0  0  0  0
  141.5056   71.0184  228.6129 H   0  0  0  0  0  0  0  0  0  0  0  0
  141.3987   72.6573  226.7626 H   0  0  0  0  0  0  0  0  0  0  0  0
  1  2  1  0
  2  3  1  0
  3  4  2  0
  4  5  1  0
  5  6  2  0
  6  7  1  0
  7  8  2  0
  8  9  1  0
  9 10  1  0
  9 11  1  0
 11 12  1  0
 12 13  2  0
 12 14  1  0
 14 15  1  0
 15 16  1  0
 16 17  2  0
 16 18  1  0
 18 19  2  0
 19 20  1  0
 20 21  2  0
 21 22  1  0
 22 23  2  0
 23 24  1  0
 23 25  1  0
 25 26  2  0
 26 27  1  0
 27 28  2  0
  8  3  1  0
 28 18  1  0
 27 21  1  0
  1 29  1  0
  1 30  1  0
  1 31  1  0
  4 32  1  0
  5 33  1  0
  6 34  1  0
  7 35  1  0
  9 36  1  1
 10 37  1  0
 10 38  1  0
 10 39  1  0
 11 40  1  0
 14 41  1  0
 14 42  1  0
 15 43  1  0
 19 44  1  0
 20 45  1  0
 22 46  1  0
 25 47  1  0
 26 48  1  0
M  END
>  <smiles>  (40) 
COc1ccccc1[C@H](C)NC(=O)CNC(=O)c1ccc2cc(Cl)ccc2n1

>  <score_type>  (40) 
oracle

>  <origin>  (40) 
autodockgpu

>  <m_score__min__energy>  (40) 
-8.4199999999999999

>  <m_primary>  (40) 
energy

>  <rmsd>  (40) 
3.7829050515683553

>  <m_score__min__rmsd>  (40) 
3.7829050515683553

>  <meeko>  (40) 
{"free_energy": -8.39, "intermolecular_energy": -10.18, "internal_energy": -1.66, "cluster_size": 17, "cluster_id": 1, "rank_in_cluster": 4}

>  <energy>  (40) 
-6.98

>  <cluster_rmsd>  (40) 
0.52

>  <cluster>  (40) 
3

$$$$

     RDKit          3D

 48 50  0  0  0  0  0  0  0  0999 V2000
  138.2540   80.3420  222.4830 C   0  0  0  0  0  0  0  0  0  0  0  0
  139.3520   79.4660  222.4780 O   0  0  0  0  0  0  0  0  0  0  0  0
  140.6450   79.8010  222.8340 C   0  0  0  0  0  0  0  0  0  0  0  0
  140.7930   80.8060  223.7720 C   0  0  0  0  0  0  0  0  0  0  0  0
  142.0460   81.2110  224.1900 C   0  0  0  0  0  0  0  0  0  0  0  0
  143.1250   80.5700  223.6310 C   0  0  0  0  0  0  0  0  0  0  0  0
  142.9750   79.5690  222.6970 C   0  0  0  0  0  0  0  0  0  0  0  0
  141.7130   79.1440  222.2580 C   0  0  0  0  0  0  0  0  0  0  0  0
  141.5980   78.0760  221.2640 C   0  0  2  0  0  0  0  0  0  0  0  0
  141.6120   78.5740  219.8240 C   0  0  0  0  0  0  0  0  0  0  0  0
  140.4520   77.2170  221.4040 N   0  0  0  0  0  0  0  0  0  0  0  0
  140.6040   75.8540  221.0200 C   0  0  0  0  0  0  0  0  0  0  0  0
  141.7270   75.4410  220.5700 O   0  0  0  0  0  0  0  0  0  0  0  0
  139.4540   74.9260  221.1440 C   0  0  0  0  0  0  0  0  0  0  0  0
  139.5670   74.0440  222.2700 N   0  0  0  0  0  0  0  0  0  0  0  0
  139.7260   72.6470  221.9950 C   0  0  0  0  0  0  0  0  0  0  0  0
  139.7560   72.2700  220.7950 O   0  0  0  0  0  0  0  0  0  0  0  0
  139.8470   71.6990  223.0910 C   0  0  0  0  0  0  0  0  0  0  0  0
  139.4440   70.3920  222.8870 C   0  0  0  0  0  0  0  0  0  0  0  0
  139.5620   69.5040  223.9270 C   0  0  0  0  0  0  0  0  0  0  0  0
  140.0620   69.8510  225.1620 C   0  0  0  0  0  0  0  0  0  0  0  0
  140.1850   68.9710  226.2130 C   0  0  0  0  0  0  0  0  0  0  0  0
  140.6870   69.3590  227.4230 C   0  0  0  0  0  0  0  0  0  0  0  0
  140.8090   68.1770  228.7030 Cl  0  0  0  0  0  0  0  0  0  0  0  0
  141.0810   70.6690  227.5960 C   0  0  0  0  0  0  0  0  0  0  0  0
  140.9610   71.5650  226.5450 C   0  0  0  0  0  0  0  0  0  0  0  0
  140.4560   71.1830  225.3200 C   0  0  0  0  0  0  0  0  0  0  0  0
  140.3370   72.0470  224.2950 N   0  0  0  0  0  0  0  0  0  0  0  0
  137.9703   80.5684  223.5214 H   0  0  0  0  0  0  0  0  0  0  0  0
  138.5261   81.2739  221.9658 H   0  0  0  0  0  0  0  0  0  0  0  0
  137.4058   79.8697  221.9658 H   0  0  0  0  0  0  0  0  0  0  0  0
  139.8992   81.2906  224.1920 H   0  0  0  0  0  0  0  0  0  0  0  0
  142.1738   82.0095  224.9357 H   0  0  0  0  0  0  0  0  0  0  0  0
  144.1390   80.8651  223.9386 H   0  0  0  0  0  0  0  0  0  0  0  0
  143.8732   79.0880  222.2825 H   0  0  0  0  0  0  0  0  0  0  0  0
  142.5030   77.4890  221.4793 H   0  0  0  0  0  0  0  0  0  0  0  0
  141.6429   79.6735  219.8166 H   0  0  0  0  0  0  0  0  0  0  0  0
  142.4994   78.1788  219.3079 H   0  0  0  0  0  0  0  0  0  0  0  0
  140.7038   78.2292  219.3079 H   0  0  0  0  0  0  0  0  0  0  0  0
  139.5220   77.5000  221.7580 H   0  0  0  0  0  0  0  0  0  0  0  0
  138.5344   75.5195  221.2540 H   0  0  0  0  0  0  0  0  0  0  0  0
  139.4333   74.3031  220.2376 H   0  0  0  0  0  0  0  0  0  0  0  0
  139.5380   74.3950  223.2740 H   0  0  0  0  0  0  0  0  0  0  0  0
  139.0390   70.0720  221.9156 H   0  0  0  0  0  0  0  0  0  0  0  0
  139.2414   68.4642  223.7659 H   0  0  0  0  0  0  0  0  0  0  0  0
  139.8703   67.9260  226.0750 H   0  0  0  0  0  0  0  0  0  0  0  0
  141.4882   71.0012  228.5624 H   0  0  0  0  0  0  0  0  0  0  0  0
  141.2770   72.6083  226.6921 H   0  0  0  0  0  0  0  0  0  0  0  0
  1  2  1  0
  2  3  1  0
  3  4  2  0
  4  5  1  0
  5  6  2  0
  6  7  1  0
  7  8  2  0
  8  9  1  0
  9 10  1  0
  9 11  1  0
 11 12  1  0
 12 13  2  0
 12 14  1  0
 14 15  1  0
 15 16  1  0
 16 17  2  0
 16 18  1  0
 18 19  2  0
 19 20  1  0
 20 21  2  0
 21 22  1  0
 22 23  2  0
 23 24  1  0
 23 25  1  0
 25 26  2  0
 26 27  1  0
 27 28  2  0
  8  3  1  0
 28 18  1  0
 27 21  1  0
  1 29  1  0
  1 30  1  0
  1 31  1  0
  4 32  1  0
  5 33  1  0
  6 34  1  0
  7 35  1  0
  9 36  1  6
 10 37  1  0
 10 38  1  0
 10 39  1  0
 11 40  1  0
 14 41  1  0
 14 42  1  0
 15 43  1  0
 19 44  1  0
 20 45  1  0
 22 46  1  0
 25 47  1  0
 26 48  1  0
M  END
>  <smiles>  (41) 
COc1ccccc1[C@H](C)NC(=O)CNC(=O)c1ccc2cc(Cl)ccc2n1

>  <score_type>  (41) 
oracle

>  <origin>  (41) 
autodockgpu

>  <m_score__min__energy>  (41) 
-8.4199999999999999

>  <m_primary>  (41) 
energy

>  <rmsd>  (41) 
3.804992395671966

>  <m_score__min__rmsd>  (41) 
3.804992395671966

>  <meeko>  (41) 
{"free_energy": -8.29, "intermolecular_energy": -10.08, "internal_energy": -1.69, "cluster_size": 17, "cluster_id": 1, "rank_in_cluster": 5}

>  <energy>  (41) 
-6.98

>  <cluster_rmsd>  (41) 
0.62

>  <cluster>  (41) 
3

$$$$

     RDKit          3D

 48 50  0  0  0  0  0  0  0  0999 V2000
  138.0750   79.6550  222.7380 C   0  0  0  0  0  0  0  0  0  0  0  0
  139.2920   78.9550  222.6940 O   0  0  0  0  0  0  0  0  0  0  0  0
  140.5420   79.5110  222.8900 C   0  0  0  0  0  0  0  0  0  0  0  0
  140.6310   80.5390  223.8100 C   0  0  0  0  0  0  0  0  0  0  0  0
  141.8380   81.1580  224.0720 C   0  0  0  0  0  0  0  0  0  0  0  0
  142.9330   80.7030  223.3780 C   0  0  0  0  0  0  0  0  0  0  0  0
  142.8430   79.6790  222.4620 C   0  0  0  0  0  0  0  0  0  0  0  0
  141.6280   79.0380  222.1810 C   0  0  0  0  0  0  0  0  0  0  0  0
  141.5750   77.9520  221.2010 C   0  0  2  0  0  0  0  0  0  0  0  0
  141.6350   78.4280  219.7540 C   0  0  0  0  0  0  0  0  0  0  0  0
  140.4440   77.0700  221.3110 N   0  0  0  0  0  0  0  0  0  0  0  0
  140.6650   75.6860  221.0560 C   0  0  0  0  0  0  0  0  0  0  0  0
  141.8340   75.2760  220.7430 O   0  0  0  0  0  0  0  0  0  0  0  0
  139.5320   74.7340  221.1550 C   0  0  0  0  0  0  0  0  0  0  0  0
  139.6220   73.8780  222.3030 N   0  0  0  0  0  0  0  0  0  0  0  0
  139.8040   72.4780  222.0640 C   0  0  0  0  0  0  0  0  0  0  0  0
  139.8750   72.0740  220.8750 O   0  0  0  0  0  0  0  0  0  0  0  0
  139.9020   71.5550  223.1840 C   0  0  0  0  0  0  0  0  0  0  0  0
  139.4800   70.2500  223.0100 C   0  0  0  0  0  0  0  0  0  0  0  0
  139.5770   69.3860  224.0720 C   0  0  0  0  0  0  0  0  0  0  0  0
  140.0740   69.7560  225.3020 C   0  0  0  0  0  0  0  0  0  0  0  0
  140.1760   68.9010  226.3750 C   0  0  0  0  0  0  0  0  0  0  0  0
  140.6760   69.3100  227.5790 C   0  0  0  0  0  0  0  0  0  0  0  0
  140.7700   68.1590  228.8890 Cl  0  0  0  0  0  0  0  0  0  0  0  0
  141.0890   70.6180  227.7230 C   0  0  0  0  0  0  0  0  0  0  0  0
  140.9900   71.4890  226.6480 C   0  0  0  0  0  0  0  0  0  0  0  0
  140.4880   71.0850  225.4290 C   0  0  0  0  0  0  0  0  0  0  0  0
  140.3890   71.9250  224.3830 N   0  0  0  0  0  0  0  0  0  0  0  0
  137.7855   79.8215  223.7861 H   0  0  0  0  0  0  0  0  0  0  0  0
  138.1910   80.6244  222.2312 H   0  0  0  0  0  0  0  0  0  0  0  0
  137.2954   79.0673  222.2312 H   0  0  0  0  0  0  0  0  0  0  0  0
  139.7265   80.8693  224.3418 H   0  0  0  0  0  0  0  0  0  0  0  0
  141.9186   81.9768  224.8021 H   0  0  0  0  0  0  0  0  0  0  0  0
  143.9116   81.1712  223.5598 H   0  0  0  0  0  0  0  0  0  0  0  0
  143.7519   79.3539  221.9346 H   0  0  0  0  0  0  0  0  0  0  0  0
  142.4832   77.3884  221.4607 H   0  0  0  0  0  0  0  0  0  0  0  0
  141.7725   79.5192  219.7323 H   0  0  0  0  0  0  0  0  0  0  0  0
  142.4790   77.9418  219.2428 H   0  0  0  0  0  0  0  0  0  0  0  0
  140.6968   78.1665  219.2428 H   0  0  0  0  0  0  0  0  0  0  0  0
  139.4790   77.3500  221.5560 H   0  0  0  0  0  0  0  0  0  0  0  0
  138.5956   75.3078  221.2173 H   0  0  0  0  0  0  0  0  0  0  0  0
  139.5599   74.0929  220.2616 H   0  0  0  0  0  0  0  0  0  0  0  0
  139.5580   74.2510  223.2980 H   0  0  0  0  0  0  0  0  0  0  0  0
  139.0764   69.9124  222.0440 H   0  0  0  0  0  0  0  0  0  0  0  0
  139.2415   68.3475  223.9341 H   0  0  0  0  0  0  0  0  0  0  0  0
  139.8455   67.8581  226.2603 H   0  0  0  0  0  0  0  0  0  0  0  0
  141.4942   70.9681  228.6839 H   0  0  0  0  0  0  0  0  0  0  0  0
  141.3211   72.5307  226.7714 H   0  0  0  0  0  0  0  0  0  0  0  0
  1  2  1  0
  2  3  1  0
  3  4  2  0
  4  5  1  0
  5  6  2  0
  6  7  1  0
  7  8  2  0
  8  9  1  0
  9 10  1  0
  9 11  1  0
 11 12  1  0
 12 13  2  0
 12 14  1  0
 14 15  1  0
 15 16  1  0
 16 17  2  0
 16 18  1  0
 18 19  2  0
 19 20  1  0
 20 21  2  0
 21 22  1  0
 22 23  2  0
 23 24  1  0
 23 25  1  0
 25 26  2  0
 26 27  1  0
 27 28  2  0
  8  3  1  0
 28 18  1  0
 27 21  1  0
  1 29  1  0
  1 30  1  0
  1 31  1  0
  4 32  1  0
  5 33  1  0
  6 34  1  0
  7 35  1  0
  9 36  1  1
 10 37  1  0
 10 38  1  0
 10 39  1  0
 11 40  1  0
 14 41  1  0
 14 42  1  0
 15 43  1  0
 19 44  1  0
 20 45  1  0
 22 46  1  0
 25 47  1  0
 26 48  1  0
M  END
>  <smiles>  (42) 
COc1ccccc1[C@H](C)NC(=O)CNC(=O)c1ccc2cc(Cl)ccc2n1

>  <score_type>  (42) 
oracle

>  <origin>  (42) 
autodockgpu

>  <m_score__min__energy>  (42) 
-8.4199999999999999

>  <m_primary>  (42) 
energy

>  <rmsd>  (42) 
3.802481787875006

>  <m_score__min__rmsd>  (42) 
3.802481787875006

>  <meeko>  (42) 
{"free_energy": -8.23, "intermolecular_energy": -10.02, "internal_energy": -1.66, "cluster_size": 17, "cluster_id": 1, "rank_in_cluster": 6}

>  <energy>  (42) 
-6.76

>  <cluster_rmsd>  (42) 
0.61

>  <cluster>  (42) 
3

$$$$

     RDKit          3D

 48 50  0  0  0  0  0  0  0  0999 V2000
  142.2090   80.0940  218.9330 C   0  0  0  0  0  0  0  0  0  0  0  0
  141.5830   79.2910  219.9010 O   0  0  0  0  0  0  0  0  0  0  0  0
  141.4060   79.6300  221.2290 C   0  0  0  0  0  0  0  0  0  0  0  0
  142.5110   80.1220  221.9010 C   0  0  0  0  0  0  0  0  0  0  0  0
  142.4310   80.4860  223.2310 C   0  0  0  0  0  0  0  0  0  0  0  0
  141.2110   80.3370  223.8440 C   0  0  0  0  0  0  0  0  0  0  0  0
  140.1120   79.8480  223.1740 C   0  0  0  0  0  0  0  0  0  0  0  0
  140.1710   79.4710  221.8250 C   0  0  0  0  0  0  0  0  0  0  0  0
  138.9790   78.9570  221.1490 C   0  0  2  0  0  0  0  0  0  0  0  0
  137.7090   79.0540  221.9860 C   0  0  0  0  0  0  0  0  0  0  0  0
  139.0710   77.6020  220.6730 N   0  0  0  0  0  0  0  0  0  0  0  0
  139.3460   76.5870  221.6320 C   0  0  0  0  0  0  0  0  0  0  0  0
  139.5030   76.9000  222.8620 O   0  0  0  0  0  0  0  0  0  0  0  0
  139.4510   75.1740  221.1940 C   0  0  0  0  0  0  0  0  0  0  0  0
  139.5260   74.2530  222.2920 N   0  0  0  0  0  0  0  0  0  0  0  0
  139.7730   72.8780  221.9770 C   0  0  0  0  0  0  0  0  0  0  0  0
  139.9110   72.5510  220.7700 O   0  0  0  0  0  0  0  0  0  0  0  0
  139.8600   71.8920  223.0440 C   0  0  0  0  0  0  0  0  0  0  0  0
  139.4480   70.5970  222.7880 C   0  0  0  0  0  0  0  0  0  0  0  0
  139.5330   69.6740  223.7990 C   0  0  0  0  0  0  0  0  0  0  0  0
  140.0100   69.9740  225.0550 C   0  0  0  0  0  0  0  0  0  0  0  0
  140.1020   69.0580  226.0790 C   0  0  0  0  0  0  0  0  0  0  0  0
  140.5820   69.4000  227.3110 C   0  0  0  0  0  0  0  0  0  0  0  0
  140.6630   68.1740  228.5540 Cl  0  0  0  0  0  0  0  0  0  0  0  0
  140.9860   70.6980  227.5370 C   0  0  0  0  0  0  0  0  0  0  0  0
  140.8980   71.6300  226.5140 C   0  0  0  0  0  0  0  0  0  0  0  0
  140.4160   71.2960  225.2660 C   0  0  0  0  0  0  0  0  0  0  0  0
  140.3280   72.1940  224.2690 N   0  0  0  0  0  0  0  0  0  0  0  0
  142.8117   80.8671  219.4320 H   0  0  0  0  0  0  0  0  0  0  0  0
  142.8610   79.4696  218.3045 H   0  0  0  0  0  0  0  0  0  0  0  0
  141.4444   80.5740  218.3045 H   0  0  0  0  0  0  0  0  0  0  0  0
  143.4677   80.2248  221.3679 H   0  0  0  0  0  0  0  0  0  0  0  0
  143.3040   80.8771  223.7741 H   0  0  0  0  0  0  0  0  0  0  0  0
  141.1087   80.6170  224.9028 H   0  0  0  0  0  0  0  0  0  0  0  0
  139.1585   79.7501  223.7137 H   0  0  0  0  0  0  0  0  0  0  0  0
  138.9214   79.6295  220.2804 H   0  0  0  0  0  0  0  0  0  0  0  0
  137.9714   79.0340  223.0541 H   0  0  0  0  0  0  0  0  0  0  0  0
  137.1879   79.9946  221.7540 H   0  0  0  0  0  0  0  0  0  0  0  0
  137.0511   78.2035  221.7540 H   0  0  0  0  0  0  0  0  0  0  0  0
  138.9560   77.2960  219.6910 H   0  0  0  0  0  0  0  0  0  0  0  0
  138.5661   74.9274  220.5889 H   0  0  0  0  0  0  0  0  0  0  0  0
  140.3821   75.0758  220.6166 H   0  0  0  0  0  0  0  0  0  0  0  0
  139.4050   74.5610  223.3030 H   0  0  0  0  0  0  0  0  0  0  0  0
  139.0615   70.3140  221.7977 H   0  0  0  0  0  0  0  0  0  0  0  0
  139.2041   68.6441  223.5963 H   0  0  0  0  0  0  0  0  0  0  0  0
  139.7798   68.0216  225.8997 H   0  0  0  0  0  0  0  0  0  0  0  0
  141.3757   70.9928  228.5225 H   0  0  0  0  0  0  0  0  0  0  0  0
  141.2216   72.6642  226.7033 H   0  0  0  0  0  0  0  0  0  0  0  0
  1  2  1  0
  2  3  1  0
  3  4  2  0
  4  5  1  0
  5  6  2  0
  6  7  1  0
  7  8  2  0
  8  9  1  0
  9 10  1  0
  9 11  1  0
 11 12  1  0
 12 13  2  0
 12 14  1  0
 14 15  1  0
 15 16  1  0
 16 17  2  0
 16 18  1  0
 18 19  2  0
 19 20  1  0
 20 21  2  0
 21 22  1  0
 22 23  2  0
 23 24  1  0
 23 25  1  0
 25 26  2  0
 26 27  1  0
 27 28  2  0
  8  3  1  0
 28 18  1  0
 27 21  1  0
  1 29  1  0
  1 30  1  0
  1 31  1  0
  4 32  1  0
  5 33  1  0
  6 34  1  0
  7 35  1  0
  9 36  1  6
 10 37  1  0
 10 38  1  0
 10 39  1  0
 11 40  1  0
 14 41  1  0
 14 42  1  0
 15 43  1  0
 19 44  1  0
 20 45  1  0
 22 46  1  0
 25 47  1  0
 26 48  1  0
M  END
>  <smiles>  (43) 
COc1ccccc1[C@H](C)NC(=O)CNC(=O)c1ccc2cc(Cl)ccc2n1

>  <score_type>  (43) 
oracle

>  <origin>  (43) 
autodockgpu

>  <m_score__min__energy>  (43) 
-8.4199999999999999

>  <m_primary>  (43) 
energy

>  <rmsd>  (43) 
4.149469523973407

>  <m_score__min__rmsd>  (43) 
4.149469523973407

>  <meeko>  (43) 
{"free_energy": -7.57, "intermolecular_energy": -9.36, "internal_energy": -1.48, "cluster_size": 17, "cluster_id": 1, "rank_in_cluster": 13}

>  <energy>  (43) 
-7.54

>  <cluster_rmsd>  (43) 
0.0

>  <cluster>  (43) 
4

$$$$

     RDKit          3D

 48 50  0  0  0  0  0  0  0  0999 V2000
  140.8130   71.5250  223.2060 C   0  0  0  0  0  0  0  0  0  0  0  0
  140.2030   71.9110  224.4120 O   0  0  0  0  0  0  0  0  0  0  0  0
  140.1550   71.1500  225.5640 C   0  0  0  0  0  0  0  0  0  0  0  0
  141.0300   71.4960  226.5780 C   0  0  0  0  0  0  0  0  0  0  0  0
  141.0560   70.7920  227.7670 C   0  0  0  0  0  0  0  0  0  0  0  0
  140.1770   69.7420  227.8870 C   0  0  0  0  0  0  0  0  0  0  0  0
  139.3070   69.3990  226.8770 C   0  0  0  0  0  0  0  0  0  0  0  0
  139.2650   70.1000  225.6620 C   0  0  0  0  0  0  0  0  0  0  0  0
  138.3240   69.7030  224.6140 C   0  0  2  0  0  0  0  0  0  0  0  0
  138.7870   68.5040  223.7950 C   0  0  0  0  0  0  0  0  0  0  0  0
  137.9590   70.7370  223.6820 N   0  0  0  0  0  0  0  0  0  0  0  0
  136.5750   71.0480  223.5560 C   0  0  0  0  0  0  0  0  0  0  0  0
  135.7150   70.4140  224.2570 O   0  0  0  0  0  0  0  0  0  0  0  0
  136.1460   72.1060  222.6090 C   0  0  0  0  0  0  0  0  0  0  0  0
  136.9290   73.3030  222.7180 N   0  0  0  0  0  0  0  0  0  0  0  0
  138.1400   73.3650  221.9540 C   0  0  0  0  0  0  0  0  0  0  0  0
  138.4510   72.3800  221.2370 O   0  0  0  0  0  0  0  0  0  0  0  0
  138.9800   74.5510  222.0190 C   0  0  0  0  0  0  0  0  0  0  0  0
  140.2850   74.4660  221.5690 C   0  0  0  0  0  0  0  0  0  0  0  0
  141.0710   75.5890  221.6340 C   0  0  0  0  0  0  0  0  0  0  0  0
  140.6230   76.7950  222.1240 C   0  0  0  0  0  0  0  0  0  0  0  0
  141.4010   77.9290  222.1950 C   0  0  0  0  0  0  0  0  0  0  0  0
  140.9150   79.1060  222.6890 C   0  0  0  0  0  0  0  0  0  0  0  0
  141.9710   80.4970  222.7430 Cl  0  0  0  0  0  0  0  0  0  0  0  0
  139.6100   79.1600  223.1300 C   0  0  0  0  0  0  0  0  0  0  0  0
  138.8170   78.0240  223.0640 C   0  0  0  0  0  0  0  0  0  0  0  0
  139.2980   76.8320  222.5670 C   0  0  0  0  0  0  0  0  0  0  0  0
  138.5350   75.7260  222.5000 N   0  0  0  0  0  0  0  0  0  0  0  0
  141.7241   70.9485  223.4240 H   0  0  0  0  0  0  0  0  0  0  0  0
  140.1159   70.9033  222.6251 H   0  0  0  0  0  0  0  0  0  0  0  0
  141.0764   72.4212  222.6251 H   0  0  0  0  0  0  0  0  0  0  0  0
  141.7156   72.3444  226.4358 H   0  0  0  0  0  0  0  0  0  0  0  0
  141.7478   71.0594  228.5794 H   0  0  0  0  0  0  0  0  0  0  0  0
  140.1686   69.1578  228.8190 H   0  0  0  0  0  0  0  0  0  0  0  0
  138.6241   68.5498  227.0267 H   0  0  0  0  0  0  0  0  0  0  0  0
  137.4385   69.4436  225.2129 H   0  0  0  0  0  0  0  0  0  0  0  0
  139.0992   67.6956  224.4726 H   0  0  0  0  0  0  0  0  0  0  0  0
  137.9602   68.1519  223.1606 H   0  0  0  0  0  0  0  0  0  0  0  0
  139.6359   68.7990  223.1606 H   0  0  0  0  0  0  0  0  0  0  0  0
  138.6140   71.2770  223.0890 H   0  0  0  0  0  0  0  0  0  0  0  0
  136.2385   71.7181  221.5838 H   0  0  0  0  0  0  0  0  0  0  0  0
  135.1063   72.3678  222.8551 H   0  0  0  0  0  0  0  0  0  0  0  0
  136.6380   74.1200  223.3330 H   0  0  0  0  0  0  0  0  0  0  0  0
  140.6830   73.5218  221.1690 H   0  0  0  0  0  0  0  0  0  0  0  0
  142.1094   75.5223  221.2773 H   0  0  0  0  0  0  0  0  0  0  0  0
  142.4427   77.8857  221.8442 H   0  0  0  0  0  0  0  0  0  0  0  0
  139.2001   80.0984  223.5318 H   0  0  0  0  0  0  0  0  0  0  0  0
  137.7767   78.0759  223.4177 H   0  0  0  0  0  0  0  0  0  0  0  0
  1  2  1  0
  2  3  1  0
  3  4  2  0
  4  5  1  0
  5  6  2  0
  6  7  1  0
  7  8  2  0
  8  9  1  0
  9 10  1  0
  9 11  1  0
 11 12  1  0
 12 13  2  0
 12 14  1  0
 14 15  1  0
 15 16  1  0
 16 17  2  0
 16 18  1  0
 18 19  2  0
 19 20  1  0
 20 21  2  0
 21 22  1  0
 22 23  2  0
 23 24  1  0
 23 25  1  0
 25 26  2  0
 26 27  1  0
 27 28  2  0
  8  3  1  0
 28 18  1  0
 27 21  1  0
  1 29  1  0
  1 30  1  0
  1 31  1  0
  4 32  1  0
  5 33  1  0
  6 34  1  0
  7 35  1  0
  9 36  1  1
 10 37  1  0
 10 38  1  0
 10 39  1  0
 11 40  1  0
 14 41  1  0
 14 42  1  0
 15 43  1  0
 19 44  1  0
 20 45  1  0
 22 46  1  0
 25 47  1  0
 26 48  1  0
M  END
>  <smiles>  (44) 
COc1ccccc1[C@H](C)NC(=O)CNC(=O)c1ccc2cc(Cl)ccc2n1

>  <score_type>  (44) 
oracle

>  <origin>  (44) 
autodockgpu

>  <m_score__min__energy>  (44) 
-8.4199999999999999

>  <m_primary>  (44) 
energy

>  <rmsd>  (44) 
9.932221707076156

>  <m_score__min__rmsd>  (44) 
9.932221707076156

>  <meeko>  (44) 
{"free_energy": -7.06, "intermolecular_energy": -8.85, "internal_energy": -2.76, "cluster_size": 17, "cluster_id": 3, "rank_in_cluster": 8}

>  <energy>  (44) 
-7.53

>  <cluster_rmsd>  (44) 
0.0

>  <cluster>  (44) 
5

$$$$

     RDKit          3D

 48 50  0  0  0  0  0  0  0  0999 V2000
  142.9010   77.1560  219.0000 C   0  0  0  0  0  0  0  0  0  0  0  0
  142.0130   77.6310  219.9790 O   0  0  0  0  0  0  0  0  0  0  0  0
  141.7580   78.9620  220.2490 C   0  0  0  0  0  0  0  0  0  0  0  0
  142.0480   79.8690  219.2470 C   0  0  0  0  0  0  0  0  0  0  0  0
  141.8280   81.2220  219.4260 C   0  0  0  0  0  0  0  0  0  0  0  0
  141.3120   81.6120  220.6380 C   0  0  0  0  0  0  0  0  0  0  0  0
  141.0230   80.7070  221.6340 C   0  0  0  0  0  0  0  0  0  0  0  0
  141.2390   79.3310  221.4740 C   0  0  0  0  0  0  0  0  0  0  0  0
  140.9180   78.4020  222.5580 C   0  0  2  0  0  0  0  0  0  0  0  0
  141.8360   78.5290  223.7680 C   0  0  0  0  0  0  0  0  0  0  0  0
  140.8860   77.0100  222.1950 N   0  0  0  0  0  0  0  0  0  0  0  0
  139.7310   76.5380  221.5080 C   0  0  0  0  0  0  0  0  0  0  0  0
  138.7770   77.3450  221.2400 O   0  0  0  0  0  0  0  0  0  0  0  0
  139.6480   75.1110  221.1120 C   0  0  0  0  0  0  0  0  0  0  0  0
  139.6780   74.2180  222.2340 N   0  0  0  0  0  0  0  0  0  0  0  0
  139.9790   72.8430  221.9680 C   0  0  0  0  0  0  0  0  0  0  0  0
  140.1980   72.4930  220.7800 O   0  0  0  0  0  0  0  0  0  0  0  0
  140.0260   71.8840  223.0620 C   0  0  0  0  0  0  0  0  0  0  0  0
  139.5580   70.6020  222.8420 C   0  0  0  0  0  0  0  0  0  0  0  0
  139.6060   69.7040  223.8790 C   0  0  0  0  0  0  0  0  0  0  0  0
  140.0980   70.0180  225.1260 C   0  0  0  0  0  0  0  0  0  0  0  0
  140.1520   69.1280  226.1740 C   0  0  0  0  0  0  0  0  0  0  0  0
  140.6490   69.4820  227.3960 C   0  0  0  0  0  0  0  0  0  0  0  0
  140.6800   68.2890  228.6720 Cl  0  0  0  0  0  0  0  0  0  0  0  0
  141.1080   70.7680  227.5850 C   0  0  0  0  0  0  0  0  0  0  0  0
  141.0580   71.6740  226.5370 C   0  0  0  0  0  0  0  0  0  0  0  0
  140.5600   71.3260  225.2990 C   0  0  0  0  0  0  0  0  0  0  0  0
  140.5090   72.2000  224.2780 N   0  0  0  0  0  0  0  0  0  0  0  0
  143.7703   76.6910  219.4880 H   0  0  0  0  0  0  0  0  0  0  0  0
  142.3905   76.4105  218.3726 H   0  0  0  0  0  0  0  0  0  0  0  0
  143.2377   77.9944  218.3726 H   0  0  0  0  0  0  0  0  0  0  0  0
  142.4600   79.5087  218.2928 H   0  0  0  0  0  0  0  0  0  0  0  0
  142.0554   81.9520  218.6352 H   0  0  0  0  0  0  0  0  0  0  0  0
  141.1239   82.6807  220.8181 H   0  0  0  0  0  0  0  0  0  0  0  0
  140.6098   81.0747  222.5848 H   0  0  0  0  0  0  0  0  0  0  0  0
  139.8963   78.7205  222.8125 H   0  0  0  0  0  0  0  0  0  0  0  0
  141.2413   78.4467  224.6897 H   0  0  0  0  0  0  0  0  0  0  0  0
  142.5877   77.7263  223.7438 H   0  0  0  0  0  0  0  0  0  0  0  0
  142.3416   79.5056  223.7438 H   0  0  0  0  0  0  0  0  0  0  0  0
  141.6270   76.3160  222.3910 H   0  0  0  0  0  0  0  0  0  0  0  0
  138.7081   74.9532  220.5628 H   0  0  0  0  0  0  0  0  0  0  0  0
  140.5276   74.8892  220.4899 H   0  0  0  0  0  0  0  0  0  0  0  0
  139.4890   74.5450  223.2280 H   0  0  0  0  0  0  0  0  0  0  0  0
  139.1572   70.3089  221.8605 H   0  0  0  0  0  0  0  0  0  0  0  0
  139.2332   68.6838  223.7053 H   0  0  0  0  0  0  0  0  0  0  0  0
  139.7844   68.1022  226.0234 H   0  0  0  0  0  0  0  0  0  0  0  0
  141.5116   71.0735  228.5616 H   0  0  0  0  0  0  0  0  0  0  0  0
  141.4255   72.6983  226.6972 H   0  0  0  0  0  0  0  0  0  0  0  0
  1  2  1  0
  2  3  1  0
  3  4  2  0
  4  5  1  0
  5  6  2  0
  6  7  1  0
  7  8  2  0
  8  9  1  0
  9 10  1  0
  9 11  1  0
 11 12  1  0
 12 13  2  0
 12 14  1  0
 14 15  1  0
 15 16  1  0
 16 17  2  0
 16 18  1  0
 18 19  2  0
 19 20  1  0
 20 21  2  0
 21 22  1  0
 22 23  2  0
 23 24  1  0
 23 25  1  0
 25 26  2  0
 26 27  1  0
 27 28  2  0
  8  3  1  0
 28 18  1  0
 27 21  1  0
  1 29  1  0
  1 30  1  0
  1 31  1  0
  4 32  1  0
  5 33  1  0
  6 34  1  0
  7 35  1  0
  9 36  1  1
 10 37  1  0
 10 38  1  0
 10 39  1  0
 11 40  1  0
 14 41  1  0
 14 42  1  0
 15 43  1  0
 19 44  1  0
 20 45  1  0
 22 46  1  0
 25 47  1  0
 26 48  1  0
M  END
>  <smiles>  (45) 
COc1ccccc1[C@H](C)NC(=O)CNC(=O)c1ccc2cc(Cl)ccc2n1

>  <score_type>  (45) 
oracle

>  <origin>  (45) 
autodockgpu

>  <m_score__min__energy>  (45) 
-8.4199999999999999

>  <m_primary>  (45) 
energy

>  <rmsd>  (45) 
3.4036047723081335

>  <m_score__min__rmsd>  (45) 
3.4036047723081335

>  <meeko>  (45) 
{"free_energy": -8.09, "intermolecular_energy": -9.88, "internal_energy": -1.17, "cluster_size": 17, "cluster_id": 1, "rank_in_cluster": 7}

>  <energy>  (45) 
-6.88

>  <cluster_rmsd>  (45) 
0.0

>  <cluster>  (45) 
6

$$$$

     RDKit          3D

 48 50  0  0  0  0  0  0  0  0999 V2000
  140.7740   71.6000  222.8110 C   0  0  0  0  0  0  0  0  0  0  0  0
  140.1050   71.9150  224.0050 O   0  0  0  0  0  0  0  0  0  0  0  0
  140.1010   71.1400  225.1500 C   0  0  0  0  0  0  0  0  0  0  0  0
  141.0380   71.4530  226.1180 C   0  0  0  0  0  0  0  0  0  0  0  0
  141.1120   70.7330  227.2950 C   0  0  0  0  0  0  0  0  0  0  0  0
  140.2170   69.7030  227.4510 C   0  0  0  0  0  0  0  0  0  0  0  0
  139.2850   69.3930  226.4860 C   0  0  0  0  0  0  0  0  0  0  0  0
  139.1930   70.1100  225.2840 C   0  0  0  0  0  0  0  0  0  0  0  0
  138.1870   69.7490  224.2840 C   0  0  2  0  0  0  0  0  0  0  0  0
  138.5510   68.5160  223.4650 C   0  0  0  0  0  0  0  0  0  0  0  0
  137.8360   70.7880  223.3520 N   0  0  0  0  0  0  0  0  0  0  0  0
  136.5650   71.4110  223.5140 C   0  0  0  0  0  0  0  0  0  0  0  0
  135.7900   71.0380  224.4600 O   0  0  0  0  0  0  0  0  0  0  0  0
  136.1540   72.4870  222.5800 C   0  0  0  0  0  0  0  0  0  0  0  0
  136.9490   73.6740  222.7120 N   0  0  0  0  0  0  0  0  0  0  0  0
  138.1500   73.7480  221.9340 C   0  0  0  0  0  0  0  0  0  0  0  0
  138.4420   72.7810  221.1850 O   0  0  0  0  0  0  0  0  0  0  0  0
  139.0010   74.9240  222.0220 C   0  0  0  0  0  0  0  0  0  0  0  0
  140.3110   74.8310  221.5880 C   0  0  0  0  0  0  0  0  0  0  0  0
  141.1070   75.9450  221.6740 C   0  0  0  0  0  0  0  0  0  0  0  0
  140.6650   77.1510  222.1700 C   0  0  0  0  0  0  0  0  0  0  0  0
  141.4530   78.2760  222.2620 C   0  0  0  0  0  0  0  0  0  0  0  0
  140.9730   79.4530  222.7610 C   0  0  0  0  0  0  0  0  0  0  0  0
  142.0420   80.8320  222.8430 Cl  0  0  0  0  0  0  0  0  0  0  0  0
  139.6630   79.5160  223.1860 C   0  0  0  0  0  0  0  0  0  0  0  0
  138.8600   78.3890  223.0990 C   0  0  0  0  0  0  0  0  0  0  0  0
  139.3340   77.1970  222.5960 C   0  0  0  0  0  0  0  0  0  0  0  0
  138.5610   76.0990  222.5080 N   0  0  0  0  0  0  0  0  0  0  0  0
  141.7464   71.1422  223.0453 H   0  0  0  0  0  0  0  0  0  0  0  0
  140.1672   70.8930  222.2263 H   0  0  0  0  0  0  0  0  0  0  0  0
  140.9324   72.5181  222.2263 H   0  0  0  0  0  0  0  0  0  0  0  0
  141.7345   72.2873  225.9484 H   0  0  0  0  0  0  0  0  0  0  0  0
  141.8534   70.9736  228.0711 H   0  0  0  0  0  0  0  0  0  0  0  0
  140.2456   69.1074  228.3753 H   0  0  0  0  0  0  0  0  0  0  0  0
  138.5916   68.5577  226.6631 H   0  0  0  0  0  0  0  0  0  0  0  0
  137.3161   69.5452  224.9244 H   0  0  0  0  0  0  0  0  0  0  0  0
  138.7963   67.6850  224.1427 H   0  0  0  0  0  0  0  0  0  0  0  0
  137.6983   68.2323  222.8306 H   0  0  0  0  0  0  0  0  0  0  0  0
  139.4211   68.7409  222.8306 H   0  0  0  0  0  0  0  0  0  0  0  0
  138.4230   71.1230  222.5700 H   0  0  0  0  0  0  0  0  0  0  0  0
  136.2496   72.1132  221.5499 H   0  0  0  0  0  0  0  0  0  0  0  0
  135.1155   72.7563  222.8228 H   0  0  0  0  0  0  0  0  0  0  0  0
  136.6740   74.4750  223.3550 H   0  0  0  0  0  0  0  0  0  0  0  0
  140.7050   73.8869  221.1838 H   0  0  0  0  0  0  0  0  0  0  0  0
  142.1492   75.8712  221.3299 H   0  0  0  0  0  0  0  0  0  0  0  0
  142.4986   78.2254  221.9241 H   0  0  0  0  0  0  0  0  0  0  0  0
  139.2573   80.4546  223.5916 H   0  0  0  0  0  0  0  0  0  0  0  0
  137.8161   78.4481  223.4408 H   0  0  0  0  0  0  0  0  0  0  0  0
  1  2  1  0
  2  3  1  0
  3  4  2  0
  4  5  1  0
  5  6  2  0
  6  7  1  0
  7  8  2  0
  8  9  1  0
  9 10  1  0
  9 11  1  0
 11 12  1  0
 12 13  2  0
 12 14  1  0
 14 15  1  0
 15 16  1  0
 16 17  2  0
 16 18  1  0
 18 19  2  0
 19 20  1  0
 20 21  2  0
 21 22  1  0
 22 23  2  0
 23 24  1  0
 23 25  1  0
 25 26  2  0
 26 27  1  0
 27 28  2  0
  8  3  1  0
 28 18  1  0
 27 21  1  0
  1 29  1  0
  1 30  1  0
  1 31  1  0
  4 32  1  0
  5 33  1  0
  6 34  1  0
  7 35  1  0
  9 36  1  1
 10 37  1  0
 10 38  1  0
 10 39  1  0
 11 40  1  0
 14 41  1  0
 14 42  1  0
 15 43  1  0
 19 44  1  0
 20 45  1  0
 22 46  1  0
 25 47  1  0
 26 48  1  0
M  END
>  <smiles>  (46) 
COc1ccccc1[C@H](C)NC(=O)CNC(=O)c1ccc2cc(Cl)ccc2n1

>  <score_type>  (46) 
oracle

>  <origin>  (46) 
autodockgpu

>  <m_score__min__energy>  (46) 
-8.4199999999999999

>  <m_primary>  (46) 
energy

>  <rmsd>  (46) 
9.927234877817614

>  <m_score__min__rmsd>  (46) 
9.927234877817614

>  <meeko>  (46) 
{"free_energy": -7.04, "intermolecular_energy": -8.83, "internal_energy": -2.65, "cluster_size": 17, "cluster_id": 3, "rank_in_cluster": 12}

>  <energy>  (46) 
-6.7

>  <cluster_rmsd>  (46) 
0.0

>  <cluster>  (46) 
7

$$$$

     RDKit          3D

 48 50  0  0  0  0  0  0  0  0999 V2000
  138.3870   77.7360  222.6090 C   0  0  0  0  0  0  0  0  0  0  0  0
  139.2180   78.5840  221.8580 O   0  0  0  0  0  0  0  0  0  0  0  0
  140.3630   79.2020  222.3250 C   0  0  0  0  0  0  0  0  0  0  0  0
  140.2010   80.1410  223.3260 C   0  0  0  0  0  0  0  0  0  0  0  0
  141.2880   80.8120  223.8550 C   0  0  0  0  0  0  0  0  0  0  0  0
  142.5220   80.4990  223.3400 C   0  0  0  0  0  0  0  0  0  0  0  0
  142.6810   79.5630  222.3430 C   0  0  0  0  0  0  0  0  0  0  0  0
  141.5930   78.8720  221.7910 C   0  0  0  0  0  0  0  0  0  0  0  0
  141.8050   77.8830  220.7340 C   0  0  2  0  0  0  0  0  0  0  0  0
  141.8370   78.4820  219.3320 C   0  0  0  0  0  0  0  0  0  0  0  0
  140.8700   76.7900  220.7070 N   0  0  0  0  0  0  0  0  0  0  0  0
  141.4030   75.4730  220.6100 C   0  0  0  0  0  0  0  0  0  0  0  0
  142.6680   75.3020  220.5500 O   0  0  0  0  0  0  0  0  0  0  0  0
  140.4810   74.3110  220.5780 C   0  0  0  0  0  0  0  0  0  0  0  0
  140.6580   73.4290  221.6950 N   0  0  0  0  0  0  0  0  0  0  0  0
  139.6070   72.4940  221.9640 C   0  0  0  0  0  0  0  0  0  0  0  0
  138.5950   72.4940  221.2170 O   0  0  0  0  0  0  0  0  0  0  0  0
  139.7230   71.5700  223.0820 C   0  0  0  0  0  0  0  0  0  0  0  0
  139.2470   70.2800  222.9310 C   0  0  0  0  0  0  0  0  0  0  0  0
  139.3600   69.4160  223.9910 C   0  0  0  0  0  0  0  0  0  0  0  0
  139.9260   69.7700  225.1950 C   0  0  0  0  0  0  0  0  0  0  0  0
  140.0460   68.9130  226.2650 C   0  0  0  0  0  0  0  0  0  0  0  0
  140.6150   69.3060  227.4440 C   0  0  0  0  0  0  0  0  0  0  0  0
  140.7280   68.1540  228.7520 Cl  0  0  0  0  0  0  0  0  0  0  0  0
  141.0810   70.5980  227.5640 C   0  0  0  0  0  0  0  0  0  0  0  0
  140.9650   71.4710  226.4930 C   0  0  0  0  0  0  0  0  0  0  0  0
  140.3930   71.0830  225.2990 C   0  0  0  0  0  0  0  0  0  0  0  0
  140.2770   71.9240  224.2560 N   0  0  0  0  0  0  0  0  0  0  0  0
  138.5581   77.9106  223.6815 H   0  0  0  0  0  0  0  0  0  0  0  0
  137.3346   77.9453  222.3668 H   0  0  0  0  0  0  0  0  0  0  0  0
  138.6176   76.6881  222.3668 H   0  0  0  0  0  0  0  0  0  0  0  0
  139.1923   80.3577  223.7075 H   0  0  0  0  0  0  0  0  0  0  0  0
  141.1699   81.5616  224.6513 H   0  0  0  0  0  0  0  0  0  0  0  0
  143.4107   81.0119  223.7363 H   0  0  0  0  0  0  0  0  0  0  0  0
  143.6930   79.3507  221.9678 H   0  0  0  0  0  0  0  0  0  0  0  0
  142.7940   77.4880  221.0096 H   0  0  0  0  0  0  0  0  0  0  0  0
  141.8956   79.5782  219.4029 H   0  0  0  0  0  0  0  0  0  0  0  0
  142.7161   78.1020  218.7909 H   0  0  0  0  0  0  0  0  0  0  0  0
  140.9224   78.1979  218.7909 H   0  0  0  0  0  0  0  0  0  0  0  0
  139.8390   76.8740  220.7480 H   0  0  0  0  0  0  0  0  0  0  0  0
  139.4460   74.6835  220.5851 H   0  0  0  0  0  0  0  0  0  0  0  0
  140.7027   73.7379  219.6656 H   0  0  0  0  0  0  0  0  0  0  0  0
  141.5270   73.4520  222.3080 H   0  0  0  0  0  0  0  0  0  0  0  0
  138.7894   69.9550  221.9850 H   0  0  0  0  0  0  0  0  0  0  0  0
  138.9798   68.3906  223.8730 H   0  0  0  0  0  0  0  0  0  0  0  0
  139.6735   67.8825  226.1687 H   0  0  0  0  0  0  0  0  0  0  0  0
  141.5423   70.9344  228.5042 H   0  0  0  0  0  0  0  0  0  0  0  0
  141.3389   72.5001  226.5981 H   0  0  0  0  0  0  0  0  0  0  0  0
  1  2  1  0
  2  3  1  0
  3  4  2  0
  4  5  1  0
  5  6  2  0
  6  7  1  0
  7  8  2  0
  8  9  1  0
  9 10  1  0
  9 11  1  0
 11 12  1  0
 12 13  2  0
 12 14  1  0
 14 15  1  0
 15 16  1  0
 16 17  2  0
 16 18  1  0
 18 19  2  0
 19 20  1  0
 20 21  2  0
 21 22  1  0
 22 23  2  0
 23 24  1  0
 23 25  1  0
 25 26  2  0
 26 27  1  0
 27 28  2  0
  8  3  1  0
 28 18  1  0
 27 21  1  0
  1 29  1  0
  1 30  1  0
  1 31  1  0
  4 32  1  0
  5 33  1  0
  6 34  1  0
  7 35  1  0
  9 36  1  1
 10 37  1  0
 10 38  1  0
 10 39  1  0
 11 40  1  0
 14 41  1  0
 14 42  1  0
 15 43  1  0
 19 44  1  0
 20 45  1  0
 22 46  1  0
 25 47  1  0
 26 48  1  0
M  END
>  <smiles>  (47) 
COc1ccccc1[C@H](C)NC(=O)CNC(=O)c1ccc2cc(Cl)ccc2n1

>  <score_type>  (47) 
oracle

>  <origin>  (47) 
autodockgpu

>  <m_score__min__energy>  (47) 
-8.4199999999999999

>  <m_primary>  (47) 
energy

>  <rmsd>  (47) 
3.803548502134391

>  <m_score__min__rmsd>  (47) 
3.803548502134391

>  <meeko>  (47) 
{"free_energy": -7.51, "intermolecular_energy": -9.3, "internal_energy": -1.73, "cluster_size": 17, "cluster_id": 1, "rank_in_cluster": 16}

>  <energy>  (47) 
-6.57

>  <cluster_rmsd>  (47) 
0.74

>  <cluster>  (47) 
7

$$$$

     RDKit          3D

 48 50  0  0  0  0  0  0  0  0999 V2000
  137.6090   79.6860  222.0750 C   0  0  0  0  0  0  0  0  0  0  0  0
  138.7440   78.8670  222.2000 O   0  0  0  0  0  0  0  0  0  0  0  0
  139.9710   79.2710  222.6900 C   0  0  0  0  0  0  0  0  0  0  0  0
  140.0150   80.4960  223.3310 C   0  0  0  0  0  0  0  0  0  0  0  0
  141.1980   80.9840  223.8530 C   0  0  0  0  0  0  0  0  0  0  0  0
  142.3140   80.1970  223.7040 C   0  0  0  0  0  0  0  0  0  0  0  0
  142.2680   78.9780  223.0670 C   0  0  0  0  0  0  0  0  0  0  0  0
  141.0790   78.4640  222.5290 C   0  0  0  0  0  0  0  0  0  0  0  0
  141.0730   77.1630  221.8600 C   0  0  2  0  0  0  0  0  0  0  0  0
  141.7950   77.1590  220.5180 C   0  0  0  0  0  0  0  0  0  0  0  0
  139.7750   76.5810  221.6440 N   0  0  0  0  0  0  0  0  0  0  0  0
  139.6700   75.1630  221.7320 C   0  0  0  0  0  0  0  0  0  0  0  0
  140.7070   74.4630  221.9930 O   0  0  0  0  0  0  0  0  0  0  0  0
  138.3540   74.5120  221.5170 C   0  0  0  0  0  0  0  0  0  0  0  0
  137.4040   74.8240  222.5450 N   0  0  0  0  0  0  0  0  0  0  0  0
  136.7000   76.0670  222.4320 C   0  0  0  0  0  0  0  0  0  0  0  0
  136.9480   76.8120  221.4500 O   0  0  0  0  0  0  0  0  0  0  0  0
  135.7220   76.4440  223.4410 C   0  0  0  0  0  0  0  0  0  0  0  0
  135.2360   77.7380  223.4450 C   0  0  0  0  0  0  0  0  0  0  0  0
  134.3150   78.0860  224.4010 C   0  0  0  0  0  0  0  0  0  0  0  0
  133.8500   77.2070  225.3540 C   0  0  0  0  0  0  0  0  0  0  0  0
  132.9250   77.5420  226.3170 C   0  0  0  0  0  0  0  0  0  0  0  0
  132.4910   76.6380  227.2450 C   0  0  0  0  0  0  0  0  0  0  0  0
  131.3160   77.1480  228.4330 Cl  0  0  0  0  0  0  0  0  0  0  0  0
  132.9940   75.3550  227.2160 C   0  0  0  0  0  0  0  0  0  0  0  0
  133.9260   75.0060  226.2500 C   0  0  0  0  0  0  0  0  0  0  0  0
  134.3690   75.9100  225.3090 C   0  0  0  0  0  0  0  0  0  0  0  0
  135.2730   75.5790  224.3690 N   0  0  0  0  0  0  0  0  0  0  0  0
  137.2380   79.9537  223.0754 H   0  0  0  0  0  0  0  0  0  0  0  0
  137.8758   80.6010  221.5259 H   0  0  0  0  0  0  0  0  0  0  0  0
  136.8247   79.1444  221.5259 H   0  0  0  0  0  0  0  0  0  0  0  0
  139.0946   81.0907  223.4267 H   0  0  0  0  0  0  0  0  0  0  0  0
  141.2438   81.9571  224.3639 H   0  0  0  0  0  0  0  0  0  0  0  0
  143.2742   80.5522  224.1063 H   0  0  0  0  0  0  0  0  0  0  0  0
  143.1923   78.3885  222.9770 H   0  0  0  0  0  0  0  0  0  0  0  0
  141.6150   76.5470  222.5926 H   0  0  0  0  0  0  0  0  0  0  0  0
  142.8820   77.1530  220.6865 H   0  0  0  0  0  0  0  0  0  0  0  0
  141.5071   76.2624  219.9494 H   0  0  0  0  0  0  0  0  0  0  0  0
  141.5171   78.0587  219.9494 H   0  0  0  0  0  0  0  0  0  0  0  0
  138.9070   77.1000  221.4270 H   0  0  0  0  0  0  0  0  0  0  0  0
  137.9494   74.8483  220.5510 H   0  0  0  0  0  0  0  0  0  0  0  0
  138.5162   73.4242  221.5356 H   0  0  0  0  0  0  0  0  0  0  0  0
  137.2150   74.1720  223.3640 H   0  0  0  0  0  0  0  0  0  0  0  0
  135.5791   78.4710  222.7000 H   0  0  0  0  0  0  0  0  0  0  0  0
  133.9297   79.1163  224.4064 H   0  0  0  0  0  0  0  0  0  0  0  0
  132.5241   78.5661  226.3400 H   0  0  0  0  0  0  0  0  0  0  0  0
  132.6582   74.6123  227.9547 H   0  0  0  0  0  0  0  0  0  0  0  0
  134.3222   73.9799  226.2346 H   0  0  0  0  0  0  0  0  0  0  0  0
  1  2  1  0
  2  3  1  0
  3  4  2  0
  4  5  1  0
  5  6  2  0
  6  7  1  0
  7  8  2  0
  8  9  1  0
  9 10  1  0
  9 11  1  0
 11 12  1  0
 12 13  2  0
 12 14  1  0
 14 15  1  0
 15 16  1  0
 16 17  2  0
 16 18  1  0
 18 19  2  0
 19 20  1  0
 20 21  2  0
 21 22  1  0
 22 23  2  0
 23 24  1  0
 23 25  1  0
 25 26  2  0
 26 27  1  0
 27 28  2  0
  8  3  1  0
 28 18  1  0
 27 21  1  0
  1 29  1  0
  1 30  1  0
  1 31  1  0
  4 32  1  0
  5 33  1  0
  6 34  1  0
  7 35  1  0
  9 36  1  1
 10 37  1  0
 10 38  1  0
 10 39  1  0
 11 40  1  0
 14 41  1  0
 14 42  1  0
 15 43  1  0
 19 44  1  0
 20 45  1  0
 22 46  1  0
 25 47  1  0
 26 48  1  0
M  END
>  <smiles>  (48) 
COc1ccccc1[C@H](C)NC(=O)CNC(=O)c1ccc2cc(Cl)ccc2n1

>  <score_type>  (48) 
oracle

>  <origin>  (48) 
autodockgpu

>  <m_score__min__energy>  (48) 
-8.4199999999999999

>  <m_primary>  (48) 
energy

>  <rmsd>  (48) 
6.14887352815365

>  <m_score__min__rmsd>  (48) 
6.14887352815365

>  <meeko>  (48) 
{"free_energy": -6.5, "intermolecular_energy": -8.29, "internal_energy": -2.77, "cluster_size": 5, "cluster_id": 7, "rank_in_cluster": 5}

>  <energy>  (48) 
-6.54

>  <cluster_rmsd>  (48) 
0.69

>  <cluster>  (48) 
7

$$$$

     RDKit          3D

 48 50  0  0  0  0  0  0  0  0999 V2000
  141.1560   74.4560  221.1890 C   0  0  0  0  0  0  0  0  0  0  0  0
  140.1050   74.9410  221.9850 O   0  0  0  0  0  0  0  0  0  0  0  0
  139.9320   76.2580  222.3660 C   0  0  0  0  0  0  0  0  0  0  0  0
  141.0790   77.0070  222.5630 C   0  0  0  0  0  0  0  0  0  0  0  0
  141.0060   78.3320  222.9470 C   0  0  0  0  0  0  0  0  0  0  0  0
  139.7500   78.8610  223.1200 C   0  0  0  0  0  0  0  0  0  0  0  0
  138.6100   78.1150  222.9240 C   0  0  0  0  0  0  0  0  0  0  0  0
  138.6610   76.7680  222.5350 C   0  0  0  0  0  0  0  0  0  0  0  0
  137.4250   76.0100  222.3360 C   0  0  2  0  0  0  0  0  0  0  0  0
  136.4470   76.1140  223.5000 C   0  0  0  0  0  0  0  0  0  0  0  0
  137.5930   74.6110  222.0480 N   0  0  0  0  0  0  0  0  0  0  0  0
  136.6810   74.0160  221.1300 C   0  0  0  0  0  0  0  0  0  0  0  0
  135.7590   74.7250  220.6010 O   0  0  0  0  0  0  0  0  0  0  0  0
  136.8110   72.5760  220.7990 C   0  0  0  0  0  0  0  0  0  0  0  0
  137.1570   71.7710  221.9350 N   0  0  0  0  0  0  0  0  0  0  0  0
  138.5460   71.6870  222.2790 C   0  0  0  0  0  0  0  0  0  0  0  0
  139.3790   72.3140  221.5770 O   0  0  0  0  0  0  0  0  0  0  0  0
  138.9650   70.8880  223.4200 C   0  0  0  0  0  0  0  0  0  0  0  0
  138.6930   69.5320  223.4190 C   0  0  0  0  0  0  0  0  0  0  0  0
  139.0910   68.7860  224.4990 C   0  0  0  0  0  0  0  0  0  0  0  0
  139.7500   69.3210  225.5830 C   0  0  0  0  0  0  0  0  0  0  0  0
  140.1560   68.5840  226.6720 C   0  0  0  0  0  0  0  0  0  0  0  0
  140.8080   69.1570  227.7280 C   0  0  0  0  0  0  0  0  0  0  0  0
  141.2870   68.1480  229.0710 Cl  0  0  0  0  0  0  0  0  0  0  0  0
  141.0650   70.5110  227.7010 C   0  0  0  0  0  0  0  0  0  0  0  0
  140.6610   71.2640  226.6090 C   0  0  0  0  0  0  0  0  0  0  0  0
  140.0040   70.6950  225.5390 C   0  0  0  0  0  0  0  0  0  0  0  0
  139.6080   71.4190  224.4760 N   0  0  0  0  0  0  0  0  0  0  0  0
  141.9639   74.0832  221.8358 H   0  0  0  0  0  0  0  0  0  0  0  0
  140.7872   73.6370  220.5540 H   0  0  0  0  0  0  0  0  0  0  0  0
  141.5399   75.2680  220.5540 H   0  0  0  0  0  0  0  0  0  0  0  0
  142.0635   76.5403  222.4116 H   0  0  0  0  0  0  0  0  0  0  0  0
  141.9116   78.9355  223.1069 H   0  0  0  0  0  0  0  0  0  0  0  0
  139.6523   79.9135  223.4246 H   0  0  0  0  0  0  0  0  0  0  0  0
  137.6293   78.5893  223.0770 H   0  0  0  0  0  0  0  0  0  0  0  0
  137.0166   76.5040  221.4420 H   0  0  0  0  0  0  0  0  0  0  0  0
  136.9994   76.0553  224.4494 H   0  0  0  0  0  0  0  0  0  0  0  0
  135.9128   77.0740  223.4454 H   0  0  0  0  0  0  0  0  0  0  0  0
  135.7228   75.2878  223.4454 H   0  0  0  0  0  0  0  0  0  0  0  0
  138.3180   73.9920  222.4510 H   0  0  0  0  0  0  0  0  0  0  0  0
  135.8512   72.2204  220.3961 H   0  0  0  0  0  0  0  0  0  0  0  0
  137.6245   72.4782  220.0651 H   0  0  0  0  0  0  0  0  0  0  0  0
  136.4280   71.2530  222.5110 H   0  0  0  0  0  0  0  0  0  0  0  0
  138.1700   69.0630  222.5725 H   0  0  0  0  0  0  0  0  0  0  0  0
  138.8731   67.7078  224.4991 H   0  0  0  0  0  0  0  0  0  0  0  0
  139.9501   67.5036  226.6933 H   0  0  0  0  0  0  0  0  0  0  0  0
  141.5877   70.9915  228.5412 H   0  0  0  0  0  0  0  0  0  0  0  0
  140.8703   72.3438  226.5962 H   0  0  0  0  0  0  0  0  0  0  0  0
  1  2  1  0
  2  3  1  0
  3  4  2  0
  4  5  1  0
  5  6  2  0
  6  7  1  0
  7  8  2  0
  8  9  1  0
  9 10  1  0
  9 11  1  0
 11 12  1  0
 12 13  2  0
 12 14  1  0
 14 15  1  0
 15 16  1  0
 16 17  2  0
 16 18  1  0
 18 19  2  0
 19 20  1  0
 20 21  2  0
 21 22  1  0
 22 23  2  0
 23 24  1  0
 23 25  1  0
 25 26  2  0
 26 27  1  0
 27 28  2  0
  8  3  1  0
 28 18  1  0
 27 21  1  0
  1 29  1  0
  1 30  1  0
  1 31  1  0
  4 32  1  0
  5 33  1  0
  6 34  1  0
  7 35  1  0
  9 36  1  6
 10 37  1  0
 10 38  1  0
 10 39  1  0
 11 40  1  0
 14 41  1  0
 14 42  1  0
 15 43  1  0
 19 44  1  0
 20 45  1  0
 22 46  1  0
 25 47  1  0
 26 48  1  0
M  END
>  <smiles>  (49) 
COc1ccccc1[C@H](C)NC(=O)CNC(=O)c1ccc2cc(Cl)ccc2n1

>  <score_type>  (49) 
oracle

>  <origin>  (49) 
autodockgpu

>  <m_score__min__energy>  (49) 
-8.4199999999999999

>  <m_primary>  (49) 
energy

>  <rmsd>  (49) 
5.335984274507398

>  <m_score__min__rmsd>  (49) 
5.335984274507398

>  <meeko>  (49) 
{"free_energy": -7.26, "intermolecular_energy": -9.05, "internal_energy": -2.35, "cluster_size": 8, "cluster_id": 2, "rank_in_cluster": 4}

>  <energy>  (49) 
-6.51

>  <cluster_rmsd>  (49) 
0.73

>  <cluster>  (49) 
7

$$$$

     RDKit          3D

 48 50  0  0  0  0  0  0  0  0999 V2000
  140.9700   72.0880  222.0610 C   0  0  0  0  0  0  0  0  0  0  0  0
  140.7720   73.4770  222.1390 O   0  0  0  0  0  0  0  0  0  0  0  0
  141.3900   74.4190  221.3380 C   0  0  0  0  0  0  0  0  0  0  0  0
  142.6390   74.0940  220.8410 C   0  0  0  0  0  0  0  0  0  0  0  0
  143.3340   74.9730  220.0330 C   0  0  0  0  0  0  0  0  0  0  0  0
  142.7260   76.1720  219.7520 C   0  0  0  0  0  0  0  0  0  0  0  0
  141.4820   76.4940  220.2480 C   0  0  0  0  0  0  0  0  0  0  0  0
  140.7600   75.6170  221.0700 C   0  0  0  0  0  0  0  0  0  0  0  0
  139.4400   75.9980  221.5750 C   0  0  2  0  0  0  0  0  0  0  0  0
  139.4870   77.0090  222.7140 C   0  0  0  0  0  0  0  0  0  0  0  0
  138.6030   74.9100  222.0090 N   0  0  0  0  0  0  0  0  0  0  0  0
  137.3130   74.7990  221.4160 C   0  0  0  0  0  0  0  0  0  0  0  0
  136.9420   75.6490  220.5370 O   0  0  0  0  0  0  0  0  0  0  0  0
  136.4110   73.6960  221.8280 C   0  0  0  0  0  0  0  0  0  0  0  0
  136.9210   72.9440  222.9380 N   0  0  0  0  0  0  0  0  0  0  0  0
  137.7300   71.8000  222.6370 C   0  0  0  0  0  0  0  0  0  0  0  0
  137.9480   71.5170  221.4310 O   0  0  0  0  0  0  0  0  0  0  0  0
  138.2780   70.9930  223.7160 C   0  0  0  0  0  0  0  0  0  0  0  0
  137.8840   69.6720  223.8250 C   0  0  0  0  0  0  0  0  0  0  0  0
  138.4060   68.9180  224.8450 C   0  0  0  0  0  0  0  0  0  0  0  0
  139.3040   69.4120  225.7640 C   0  0  0  0  0  0  0  0  0  0  0  0
  139.8360   68.6670  226.7920 C   0  0  0  0  0  0  0  0  0  0  0  0
  140.7250   69.1980  227.6830 C   0  0  0  0  0  0  0  0  0  0  0  0
  141.3510   68.1820  228.9580 Cl  0  0  0  0  0  0  0  0  0  0  0  0
  141.1000   70.5180  227.5480 C   0  0  0  0  0  0  0  0  0  0  0  0
  140.5710   71.2790  226.5170 C   0  0  0  0  0  0  0  0  0  0  0  0
  139.6740   70.7520  225.6130 C   0  0  0  0  0  0  0  0  0  0  0  0
  139.1560   71.4840  224.6090 N   0  0  0  0  0  0  0  0  0  0  0  0
  141.0298   71.6686  223.0761 H   0  0  0  0  0  0  0  0  0  0  0  0
  140.1284   71.6273  221.5229 H   0  0  0  0  0  0  0  0  0  0  0  0
  141.9068   71.8808  221.5229 H   0  0  0  0  0  0  0  0  0  0  0  0
  143.0858   73.1209  221.0929 H   0  0  0  0  0  0  0  0  0  0  0  0
  144.3281   74.7241  219.6333 H   0  0  0  0  0  0  0  0  0  0  0  0
  143.2485   76.8974  219.1111 H   0  0  0  0  0  0  0  0  0  0  0  0
  141.0415   77.4688  219.9915 H   0  0  0  0  0  0  0  0  0  0  0  0
  138.9918   76.4478  220.6767 H   0  0  0  0  0  0  0  0  0  0  0  0
  139.4623   76.4779  223.6770 H   0  0  0  0  0  0  0  0  0  0  0  0
  140.4135   77.5978  222.6437 H   0  0  0  0  0  0  0  0  0  0  0  0
  138.6191   77.6812  222.6437 H   0  0  0  0  0  0  0  0  0  0  0  0
  138.8530   74.1990  222.7170 H   0  0  0  0  0  0  0  0  0  0  0  0
  135.4386   74.1249  222.1116 H   0  0  0  0  0  0  0  0  0  0  0  0
  136.3209   73.0068  220.9754 H   0  0  0  0  0  0  0  0  0  0  0  0
  136.7190   73.2090  223.9480 H   0  0  0  0  0  0  0  0  0  0  0  0
  137.1694   69.2365  223.1111 H   0  0  0  0  0  0  0  0  0  0  0  0
  138.0918   67.8675  224.9329 H   0  0  0  0  0  0  0  0  0  0  0  0
  139.5367   67.6139  226.8991 H   0  0  0  0  0  0  0  0  0  0  0  0
  141.8150   70.9648  228.2545 H   0  0  0  0  0  0  0  0  0  0  0  0
  140.8753   72.3314  226.4178 H   0  0  0  0  0  0  0  0  0  0  0  0
  1  2  1  0
  2  3  1  0
  3  4  2  0
  4  5  1  0
  5  6  2  0
  6  7  1  0
  7  8  2  0
  8  9  1  0
  9 10  1  0
  9 11  1  0
 11 12  1  0
 12 13  2  0
 12 14  1  0
 14 15  1  0
 15 16  1  0
 16 17  2  0
 16 18  1  0
 18 19  2  0
 19 20  1  0
 20 21  2  0
 21 22  1  0
 22 23  2  0
 23 24  1  0
 23 25  1  0
 25 26  2  0
 26 27  1  0
 27 28  2  0
  8  3  1  0
 28 18  1  0
 27 21  1  0
  1 29  1  0
  1 30  1  0
  1 31  1  0
  4 32  1  0
  5 33  1  0
  6 34  1  0
  7 35  1  0
  9 36  1  6
 10 37  1  0
 10 38  1  0
 10 39  1  0
 11 40  1  0
 14 41  1  0
 14 42  1  0
 15 43  1  0
 19 44  1  0
 20 45  1  0
 22 46  1  0
 25 47  1  0
 26 48  1  0
M  END
>  <smiles>  (50) 
COc1ccccc1[C@H](C)NC(=O)CNC(=O)c1ccc2cc(Cl)ccc2n1

>  <score_type>  (50) 
oracle

>  <origin>  (50) 
autodockgpu

>  <m_score__min__energy>  (50) 
-8.4199999999999999

>  <m_primary>  (50) 
energy

>  <rmsd>  (50) 
5.373283793371423

>  <m_score__min__rmsd>  (50) 
5.373283793371423

>  <meeko>  (50) 
{"free_energy": -7.51, "intermolecular_energy": -9.3, "internal_energy": -2.17, "cluster_size": 8, "cluster_id": 2, "rank_in_cluster": 2}

>  <energy>  (50) 
-6.5

>  <cluster_rmsd>  (50) 
0.74

>  <cluster>  (50) 
7

$$$$
