
     RDKit          3D

 53 56  0  0  0  0  0  0  0  0999 V2000
  138.9590   70.9430  221.1830 O   0  0  0  0  0  0  0  0  0  0  0  0
  138.9420   71.6070  222.2510 C   0  0  0  0  0  0  0  0  0  0  0  0
  138.3740   72.9270  222.1880 N   0  0  0  0  0  0  0  0  0  0  0  0
  137.8780   73.3790  220.9280 C   0  0  0  0  0  0  0  0  0  0  0  0
  138.9480   73.7580  219.9760 C   0  0  0  0  0  0  0  0  0  0  0  0
  139.0390   73.1790  218.8450 O   0  0  0  0  0  0  0  0  0  0  0  0
  139.8530   74.7800  220.3790 N   0  0  0  0  0  0  0  0  0  0  0  0
  139.5990   75.9400  221.2240 C   0  0  0  0  0  0  0  0  0  0  0  0
  140.9820   76.1680  221.8310 C   0  0  2  0  0  0  0  0  0  0  0  0
  141.0670   77.4160  222.4290 O   0  0  0  0  0  0  0  0  0  0  0  0
  141.8080   76.0780  220.5470 C   0  0  0  0  0  0  0  0  0  0  0  0
  141.2660   74.8040  219.9670 C   0  0  1  0  0  0  0  0  0  0  0  0
  141.9300   73.5970  220.4920 C   0  0  0  0  0  0  0  0  0  0  0  0
  141.3120   72.6420  221.0520 O   0  0  0  0  0  0  0  0  0  0  0  0
  143.3410   73.4590  220.3840 N   0  0  0  0  0  0  0  0  0  0  0  0
  144.0870   72.3090  220.8700 C   0  0  0  0  0  0  0  0  0  0  0  0
  145.3590   72.2740  220.0270 C   0  0  0  0  0  0  0  0  0  0  0  0
  145.1640   73.3720  218.9950 C   0  0  0  0  0  0  0  0  0  0  0  0
  144.3170   74.3620  219.8060 C   0  0  0  0  0  0  0  0  0  0  0  0
  139.4700   71.0840  223.5170 C   0  0  0  0  0  0  0  0  0  0  0  0
  140.3400   71.8930  224.2150 C   0  0  0  0  0  0  0  0  0  0  0  0
  140.8940   71.4880  225.4230 C   0  0  0  0  0  0  0  0  0  0  0  0
  140.5560   70.2430  225.9250 C   0  0  0  0  0  0  0  0  0  0  0  0
  141.0940   69.8130  227.1280 C   0  0  0  0  0  0  0  0  0  0  0  0
  140.7160   68.5700  227.5660 C   0  0  0  0  0  0  0  0  0  0  0  0
  141.3870   68.0070  229.0890 Cl  0  0  0  0  0  0  0  0  0  0  0  0
  139.8430   67.7600  226.8660 C   0  0  0  0  0  0  0  0  0  0  0  0
  139.3080   68.1960  225.6620 C   0  0  0  0  0  0  0  0  0  0  0  0
  139.6720   69.4460  225.1970 C   0  0  0  0  0  0  0  0  0  0  0  0
  139.1580   69.8940  224.0150 N   0  0  0  0  0  0  0  0  0  0  0  0
  138.3420   73.5080  223.0560 H   0  0  0  0  0  0  0  0  0  0  0  0
  137.2811   72.5718  220.4784 H   0  0  0  0  0  0  0  0  0  0  0  0
  137.2793   74.2817  221.1196 H   0  0  0  0  0  0  0  0  0  0  0  0
  139.2700   76.8067  220.6318 H   0  0  0  0  0  0  0  0  0  0  0  0
  138.7978   75.7950  221.9637 H   0  0  0  0  0  0  0  0  0  0  0  0
  141.2847   75.4789  222.6332 H   0  0  0  0  0  0  0  0  0  0  0  0
  142.0290   77.6560  222.4430 H   0  0  0  0  0  0  0  0  0  0  0  0
  141.6250   76.9368  219.8845 H   0  0  0  0  0  0  0  0  0  0  0  0
  142.8974   76.0873  220.6992 H   0  0  0  0  0  0  0  0  0  0  0  0
  141.4240   74.7894  218.8785 H   0  0  0  0  0  0  0  0  0  0  0  0
  144.3331   72.4306  221.9352 H   0  0  0  0  0  0  0  0  0  0  0  0
  143.5095   71.3768  220.7830 H   0  0  0  0  0  0  0  0  0  0  0  0
  146.2430   72.4780  220.6490 H   0  0  0  0  0  0  0  0  0  0  0  0
  145.5259   71.2904  219.5637 H   0  0  0  0  0  0  0  0  0  0  0  0
  146.1223   73.8145  218.6853 H   0  0  0  0  0  0  0  0  0  0  0  0
  144.7075   73.0409  218.0505 H   0  0  0  0  0  0  0  0  0  0  0  0
  144.9125   74.8670  220.5808 H   0  0  0  0  0  0  0  0  0  0  0  0
  143.8881   75.1878  219.2194 H   0  0  0  0  0  0  0  0  0  0  0  0
  140.6015   72.8805  223.8071 H   0  0  0  0  0  0  0  0  0  0  0  0
  141.5876   72.1437  225.9698 H   0  0  0  0  0  0  0  0  0  0  0  0
  141.7911   70.4394  227.7039 H   0  0  0  0  0  0  0  0  0  0  0  0
  139.5722   66.7704  227.2625 H   0  0  0  0  0  0  0  0  0  0  0  0
  138.6119   67.5630  225.0921 H   0  0  0  0  0  0  0  0  0  0  0  0
  1  2  2  0
  2  3  1  0
  3  4  1  0
  4  5  1  0
  5  6  2  0
  5  7  1  0
  7  8  1  0
  8  9  1  0
  9 10  1  0
  9 11  1  0
 11 12  1  0
 12 13  1  0
 13 14  2  0
 13 15  1  0
 15 16  1  0
 16 17  1  0
 17 18  1  0
 18 19  1  0
  2 20  1  0
 20 21  2  0
 21 22  1  0
 22 23  2  0
 23 24  1  0
 24 25  2  0
 25 26  1  0
 25 27  1  0
 27 28  2  0
 28 29  1  0
 29 30  2  0
 12  7  1  0
 19 15  1  0
 30 20  1  0
 29 23  1  0
  3 31  1  0
  4 32  1  0
  4 33  1  0
  8 34  1  0
  8 35  1  0
  9 36  1  1
 10 37  1  0
 11 38  1  0
 11 39  1  0
 12 40  1  6
 16 41  1  0
 16 42  1  0
 17 43  1  0
 17 44  1  0
 18 45  1  0
 18 46  1  0
 19 47  1  0
 19 48  1  0
 21 49  1  0
 22 50  1  0
 24 51  1  0
 27 52  1  0
 28 53  1  0
M  END
>  <smiles>  (1) 
O=C(NCC(=O)N1C[C@H](O)C[C@H]1C(=O)N1CCCC1)c1ccc2cc(Cl)ccc2n1

>  <score_type>  (1) 
oracle

>  <origin>  (1) 
autodockgpu

>  <m_score__min__energy>  (1) 
-8.0099999999999998

>  <m_primary>  (1) 
energy

>  <rmsd>  (1) 
4.542510285291549

>  <m_score__min__rmsd>  (1) 
4.542510285291549

>  <meeko>  (1) 
{"free_energy": -7.46, "intermolecular_energy": -9.25, "internal_energy": -1.67, "cluster_size": 13, "cluster_id": 1, "rank_in_cluster": 9}

>  <energy>  (1) 
-8.01

>  <cluster_rmsd>  (1) 
0.0

>  <cluster>  (1) 
1

$$$$

     RDKit          3D

 53 56  0  0  0  0  0  0  0  0999 V2000
  139.0990   72.4780  220.7470 O   0  0  0  0  0  0  0  0  0  0  0  0
  140.0460   72.4990  221.5750 C   0  0  0  0  0  0  0  0  0  0  0  0
  141.1360   73.3950  221.2940 N   0  0  0  0  0  0  0  0  0  0  0  0
  141.0600   74.1850  220.1080 C   0  0  0  0  0  0  0  0  0  0  0  0
  140.9680   75.6400  220.3750 C   0  0  0  0  0  0  0  0  0  0  0  0
  141.8860   76.4270  219.9760 O   0  0  0  0  0  0  0  0  0  0  0  0
  139.8250   76.1060  221.0840 N   0  0  0  0  0  0  0  0  0  0  0  0
  138.6260   75.3690  221.4640 C   0  0  0  0  0  0  0  0  0  0  0  0
  138.2010   76.1290  222.7190 C   0  0  2  0  0  0  0  0  0  0  0  0
  136.9030   75.8100  223.0830 O   0  0  0  0  0  0  0  0  0  0  0  0
  138.3220   77.5520  222.1710 C   0  0  0  0  0  0  0  0  0  0  0  0
  139.6920   77.4910  221.5630 C   0  0  1  0  0  0  0  0  0  0  0  0
  140.7720   77.7610  222.5310 C   0  0  0  0  0  0  0  0  0  0  0  0
  141.4420   76.8520  223.1050 O   0  0  0  0  0  0  0  0  0  0  0  0
  141.1070   79.1010  222.8640 N   0  0  0  0  0  0  0  0  0  0  0  0
  142.1540   79.4690  223.8050 C   0  0  0  0  0  0  0  0  0  0  0  0
  142.5850   80.8740  223.3930 C   0  0  0  0  0  0  0  0  0  0  0  0
  141.8130   81.1510  222.1130 C   0  0  0  0  0  0  0  0  0  0  0  0
  140.5350   80.3450  222.3850 C   0  0  0  0  0  0  0  0  0  0  0  0
  140.0650   71.6590  222.7780 C   0  0  0  0  0  0  0  0  0  0  0  0
  139.5190   70.3980  222.6710 C   0  0  0  0  0  0  0  0  0  0  0  0
  139.4890   69.5270  223.7540 C   0  0  0  0  0  0  0  0  0  0  0  0
  140.0220   69.9490  224.9600 C   0  0  0  0  0  0  0  0  0  0  0  0
  140.0050   69.1010  226.0570 C   0  0  0  0  0  0  0  0  0  0  0  0
  140.5490   69.5830  227.2200 C   0  0  0  0  0  0  0  0  0  0  0  0
  140.5380   68.5240  228.6210 Cl  0  0  0  0  0  0  0  0  0  0  0  0
  141.0960   70.8460  227.3260 C   0  0  0  0  0  0  0  0  0  0  0  0
  141.1100   71.6910  226.2240 C   0  0  0  0  0  0  0  0  0  0  0  0
  140.5670   71.2300  225.0380 C   0  0  0  0  0  0  0  0  0  0  0  0
  140.5700   72.0430  223.9440 N   0  0  0  0  0  0  0  0  0  0  0  0
  141.9410   73.4390  221.9600 H   0  0  0  0  0  0  0  0  0  0  0  0
  141.9611   73.9973  219.5056 H   0  0  0  0  0  0  0  0  0  0  0  0
  140.1396   73.8926  219.5814 H   0  0  0  0  0  0  0  0  0  0  0  0
  137.8554   75.4200  220.6807 H   0  0  0  0  0  0  0  0  0  0  0  0
  138.7864   74.2919  221.6192 H   0  0  0  0  0  0  0  0  0  0  0  0
  138.7787   75.9272  223.6331 H   0  0  0  0  0  0  0  0  0  0  0  0
  136.9340   74.8940  223.4640 H   0  0  0  0  0  0  0  0  0  0  0  0
  137.5509   77.7640  221.4157 H   0  0  0  0  0  0  0  0  0  0  0  0
  138.1861   78.3463  222.9198 H   0  0  0  0  0  0  0  0  0  0  0  0
  139.7888   78.2559  220.7784 H   0  0  0  0  0  0  0  0  0  0  0  0
  141.7650   79.4708  224.8339 H   0  0  0  0  0  0  0  0  0  0  0  0
  142.9936   78.7585  223.7851 H   0  0  0  0  0  0  0  0  0  0  0  0
  142.3216   81.6051  224.1715 H   0  0  0  0  0  0  0  0  0  0  0  0
  143.6728   80.9518  223.2497 H   0  0  0  0  0  0  0  0  0  0  0  0
  141.5998   82.2231  221.9900 H   0  0  0  0  0  0  0  0  0  0  0  0
  142.3417   80.8783  221.1877 H   0  0  0  0  0  0  0  0  0  0  0  0
  139.9069   80.8248  223.1500 H   0  0  0  0  0  0  0  0  0  0  0  0
  139.8655   80.2392  221.5186 H   0  0  0  0  0  0  0  0  0  0  0  0
  139.0979   70.0739  221.7079 H   0  0  0  0  0  0  0  0  0  0  0  0
  139.0507   68.5230  223.6548 H   0  0  0  0  0  0  0  0  0  0  0  0
  139.5757   68.0900  225.9973 H   0  0  0  0  0  0  0  0  0  0  0  0
  141.5207   71.1830  228.2831 H   0  0  0  0  0  0  0  0  0  0  0  0
  141.5416   72.7005  226.2923 H   0  0  0  0  0  0  0  0  0  0  0  0
  1  2  2  0
  2  3  1  0
  3  4  1  0
  4  5  1  0
  5  6  2  0
  5  7  1  0
  7  8  1  0
  8  9  1  0
  9 10  1  0
  9 11  1  0
 11 12  1  0
 12 13  1  0
 13 14  2  0
 13 15  1  0
 15 16  1  0
 16 17  1  0
 17 18  1  0
 18 19  1  0
  2 20  1  0
 20 21  2  0
 21 22  1  0
 22 23  2  0
 23 24  1  0
 24 25  2  0
 25 26  1  0
 25 27  1  0
 27 28  2  0
 28 29  1  0
 29 30  2  0
 12  7  1  0
 19 15  1  0
 30 20  1  0
 29 23  1  0
  3 31  1  0
  4 32  1  0
  4 33  1  0
  8 34  1  0
  8 35  1  0
  9 36  1  1
 10 37  1  0
 11 38  1  0
 11 39  1  0
 12 40  1  6
 16 41  1  0
 16 42  1  0
 17 43  1  0
 17 44  1  0
 18 45  1  0
 18 46  1  0
 19 47  1  0
 19 48  1  0
 21 49  1  0
 22 50  1  0
 24 51  1  0
 27 52  1  0
 28 53  1  0
M  END
>  <smiles>  (2) 
O=C(NCC(=O)N1C[C@H](O)C[C@H]1C(=O)N1CCCC1)c1ccc2cc(Cl)ccc2n1

>  <score_type>  (2) 
oracle

>  <origin>  (2) 
autodockgpu

>  <m_score__min__energy>  (2) 
-8.0099999999999998

>  <m_primary>  (2) 
energy

>  <rmsd>  (2) 
2.815064597256304

>  <m_score__min__rmsd>  (2) 
2.815064597256304

>  <meeko>  (2) 
{"free_energy": -7.81, "intermolecular_energy": -9.6, "internal_energy": -1.64, "cluster_size": 14, "cluster_id": 2, "rank_in_cluster": 1}

>  <energy>  (2) 
-7.95

>  <cluster_rmsd>  (2) 
0.12

>  <cluster>  (2) 
1

$$$$

     RDKit          3D

 53 56  0  0  0  0  0  0  0  0999 V2000
  139.9560   73.3490  219.6950 O   0  0  0  0  0  0  0  0  0  0  0  0
  140.3760   73.5170  220.8690 C   0  0  0  0  0  0  0  0  0  0  0  0
  141.1060   74.7280  221.1310 N   0  0  0  0  0  0  0  0  0  0  0  0
  141.2950   75.6400  220.0490 C   0  0  0  0  0  0  0  0  0  0  0  0
  140.1580   76.5710  219.8590 C   0  0  0  0  0  0  0  0  0  0  0  0
  140.0700   77.2720  218.7990 O   0  0  0  0  0  0  0  0  0  0  0  0
  139.1870   76.6420  220.8970 N   0  0  0  0  0  0  0  0  0  0  0  0
  138.1230   75.6970  221.2160 C   0  0  0  0  0  0  0  0  0  0  0  0
  137.9650   75.9300  222.7170 C   0  0  2  0  0  0  0  0  0  0  0  0
  136.7900   75.3700  223.1900 O   0  0  0  0  0  0  0  0  0  0  0  0
  137.9200   77.4590  222.7030 C   0  0  0  0  0  0  0  0  0  0  0  0
  139.1240   77.7560  221.8560 C   0  0  1  0  0  0  0  0  0  0  0  0
  140.3820   77.7900  222.6250 C   0  0  0  0  0  0  0  0  0  0  0  0
  141.0620   76.7570  222.9030 O   0  0  0  0  0  0  0  0  0  0  0  0
  140.8920   79.0300  223.0960 N   0  0  0  0  0  0  0  0  0  0  0  0
  142.1220   79.1660  223.8600 C   0  0  0  0  0  0  0  0  0  0  0  0
  142.5960   80.5940  223.6020 C   0  0  0  0  0  0  0  0  0  0  0  0
  141.6300   81.1340  222.5610 C   0  0  0  0  0  0  0  0  0  0  0  0
  140.3570   80.3690  222.9450 C   0  0  0  0  0  0  0  0  0  0  0  0
  140.1490   72.5380  221.9390 C   0  0  0  0  0  0  0  0  0  0  0  0
  139.3550   71.4530  221.6370 C   0  0  0  0  0  0  0  0  0  0  0  0
  139.0800   70.4720  222.5820 C   0  0  0  0  0  0  0  0  0  0  0  0
  139.6220   70.6000  223.8500 C   0  0  0  0  0  0  0  0  0  0  0  0
  139.3650   69.6370  224.8130 C   0  0  0  0  0  0  0  0  0  0  0  0
  139.9340   69.8260  226.0460 C   0  0  0  0  0  0  0  0  0  0  0  0
  139.6190   68.6160  227.2800 Cl  0  0  0  0  0  0  0  0  0  0  0  0
  140.7300   70.9130  226.3470 C   0  0  0  0  0  0  0  0  0  0  0  0
  140.9840   71.8750  225.3780 C   0  0  0  0  0  0  0  0  0  0  0  0
  140.4220   71.7090  224.1250 C   0  0  0  0  0  0  0  0  0  0  0  0
  140.6590   72.6420  223.1590 N   0  0  0  0  0  0  0  0  0  0  0  0
  141.4720   74.9010  222.0950 H   0  0  0  0  0  0  0  0  0  0  0  0
  142.2011   76.2318  220.2459 H   0  0  0  0  0  0  0  0  0  0  0  0
  141.3813   75.0409  219.1305 H   0  0  0  0  0  0  0  0  0  0  0  0
  137.1969   75.9326  220.6711 H   0  0  0  0  0  0  0  0  0  0  0  0
  138.3445   74.6554  220.9401 H   0  0  0  0  0  0  0  0  0  0  0  0
  138.7366   75.4890  223.3651 H   0  0  0  0  0  0  0  0  0  0  0  0
  137.0140   74.4500  223.4830 H   0  0  0  0  0  0  0  0  0  0  0  0
  136.9950   77.8346  222.2412 H   0  0  0  0  0  0  0  0  0  0  0  0
  137.9300   77.9287  223.6976 H   0  0  0  0  0  0  0  0  0  0  0  0
  139.0237   78.7492  221.3939 H   0  0  0  0  0  0  0  0  0  0  0  0
  141.9297   79.0109  224.9319 H   0  0  0  0  0  0  0  0  0  0  0  0
  142.8757   78.4220  223.5627 H   0  0  0  0  0  0  0  0  0  0  0  0
  142.5480   81.1920  224.5240 H   0  0  0  0  0  0  0  0  0  0  0  0
  143.6414   80.6324  223.2619 H   0  0  0  0  0  0  0  0  0  0  0  0
  141.4955   82.2216  222.6561 H   0  0  0  0  0  0  0  0  0  0  0  0
  141.9528   80.9967  221.5184 H   0  0  0  0  0  0  0  0  0  0  0  0
  139.9260   80.7430  223.8854 H   0  0  0  0  0  0  0  0  0  0  0  0
  139.5330   80.4556  222.2214 H   0  0  0  0  0  0  0  0  0  0  0  0
  138.9299   71.3615  220.6266 H   0  0  0  0  0  0  0  0  0  0  0  0
  138.4444   69.6109  222.3280 H   0  0  0  0  0  0  0  0  0  0  0  0
  138.7340   68.7620  224.5981 H   0  0  0  0  0  0  0  0  0  0  0  0
  141.1625   71.0171  227.3530 H   0  0  0  0  0  0  0  0  0  0  0  0
  141.6162   72.7470  225.6013 H   0  0  0  0  0  0  0  0  0  0  0  0
  1  2  2  0
  2  3  1  0
  3  4  1  0
  4  5  1  0
  5  6  2  0
  5  7  1  0
  7  8  1  0
  8  9  1  0
  9 10  1  0
  9 11  1  0
 11 12  1  0
 12 13  1  0
 13 14  2  0
 13 15  1  0
 15 16  1  0
 16 17  1  0
 17 18  1  0
 18 19  1  0
  2 20  1  0
 20 21  2  0
 21 22  1  0
 22 23  2  0
 23 24  1  0
 24 25  2  0
 25 26  1  0
 25 27  1  0
 27 28  2  0
 28 29  1  0
 29 30  2  0
 12  7  1  0
 19 15  1  0
 30 20  1  0
 29 23  1  0
  3 31  1  0
  4 32  1  0
  4 33  1  0
  8 34  1  0
  8 35  1  0
  9 36  1  1
 10 37  1  0
 11 38  1  0
 11 39  1  0
 12 40  1  6
 16 41  1  0
 16 42  1  0
 17 43  1  0
 17 44  1  0
 18 45  1  0
 18 46  1  0
 19 47  1  0
 19 48  1  0
 21 49  1  0
 22 50  1  0
 24 51  1  0
 27 52  1  0
 28 53  1  0
M  END
>  <smiles>  (3) 
O=C(NCC(=O)N1C[C@H](O)C[C@H]1C(=O)N1CCCC1)c1ccc2cc(Cl)ccc2n1

>  <score_type>  (3) 
oracle

>  <origin>  (3) 
autodockgpu

>  <m_score__min__energy>  (3) 
-8.0099999999999998

>  <m_primary>  (3) 
energy

>  <rmsd>  (3) 
3.3752426084940725

>  <m_score__min__rmsd>  (3) 
3.3752426084940725

>  <meeko>  (3) 
{"free_energy": -7.02, "intermolecular_energy": -8.81, "internal_energy": -2.63, "cluster_size": 14, "cluster_id": 2, "rank_in_cluster": 10}

>  <energy>  (3) 
-7.93

>  <cluster_rmsd>  (3) 
0.4

>  <cluster>  (3) 
1

$$$$

     RDKit          3D

 53 56  0  0  0  0  0  0  0  0999 V2000
  139.5450   72.4840  220.9010 O   0  0  0  0  0  0  0  0  0  0  0  0
  139.0820   73.4400  221.5760 C   0  0  0  0  0  0  0  0  0  0  0  0
  137.8630   73.1940  222.2980 N   0  0  0  0  0  0  0  0  0  0  0  0
  137.2770   71.8960  222.1960 C   0  0  0  0  0  0  0  0  0  0  0  0
  136.9970   71.2720  223.5100 C   0  0  0  0  0  0  0  0  0  0  0  0
  136.2180   71.8420  224.3410 O   0  0  0  0  0  0  0  0  0  0  0  0
  137.6270   70.0270  223.7930 N   0  0  0  0  0  0  0  0  0  0  0  0
  137.6090   68.7980  223.0100 C   0  0  0  0  0  0  0  0  0  0  0  0
  138.9460   68.1770  223.4100 C   0  0  2  0  0  0  0  0  0  0  0  0
  139.0120   66.8440  223.0350 O   0  0  0  0  0  0  0  0  0  0  0  0
  138.8300   68.3520  224.9250 C   0  0  0  0  0  0  0  0  0  0  0  0
  138.4400   69.7990  224.9990 C   0  0  1  0  0  0  0  0  0  0  0  0
  139.5940   70.7160  224.9710 C   0  0  0  0  0  0  0  0  0  0  0  0
  139.9780   71.3290  223.9300 O   0  0  0  0  0  0  0  0  0  0  0  0
  140.3430   70.9520  226.1550 N   0  0  0  0  0  0  0  0  0  0  0  0
  141.4950   71.8370  226.2280 C   0  0  0  0  0  0  0  0  0  0  0  0
  141.5720   72.2730  227.6890 C   0  0  0  0  0  0  0  0  0  0  0  0
  140.3240   71.6850  228.3290 C   0  0  0  0  0  0  0  0  0  0  0  0
  140.1610   70.4110  227.4880 C   0  0  0  0  0  0  0  0  0  0  0  0
  139.7330   74.7530  221.6390 C   0  0  0  0  0  0  0  0  0  0  0  0
  140.9150   74.9010  220.9470 C   0  0  0  0  0  0  0  0  0  0  0  0
  141.6080   76.1060  220.9450 C   0  0  0  0  0  0  0  0  0  0  0  0
  141.0870   77.1730  221.6580 C   0  0  0  0  0  0  0  0  0  0  0  0
  141.7560   78.3870  221.6750 C   0  0  0  0  0  0  0  0  0  0  0  0
  141.1840   79.4000  222.4000 C   0  0  0  0  0  0  0  0  0  0  0  0
  142.0170   80.9450  222.4330 Cl  0  0  0  0  0  0  0  0  0  0  0  0
  139.9990   79.2510  223.0920 C   0  0  0  0  0  0  0  0  0  0  0  0
  139.3330   78.0320  223.0730 C   0  0  0  0  0  0  0  0  0  0  0  0
  139.8880   76.9930  222.3480 C   0  0  0  0  0  0  0  0  0  0  0  0
  139.2500   75.7880  222.3160 N   0  0  0  0  0  0  0  0  0  0  0  0
  137.4470   73.9650  222.8700 H   0  0  0  0  0  0  0  0  0  0  0  0
  136.3303   71.9833  221.6427 H   0  0  0  0  0  0  0  0  0  0  0  0
  138.0031   71.2517  221.6787 H   0  0  0  0  0  0  0  0  0  0  0  0
  136.7638   68.1525  223.2910 H   0  0  0  0  0  0  0  0  0  0  0  0
  137.4866   68.9520  221.9277 H   0  0  0  0  0  0  0  0  0  0  0  0
  139.8457   68.6157  222.9538 H   0  0  0  0  0  0  0  0  0  0  0  0
  139.8020   66.7570  222.4430 H   0  0  0  0  0  0  0  0  0  0  0  0
  138.0544   67.6992  225.3518 H   0  0  0  0  0  0  0  0  0  0  0  0
  139.7372   68.0903  225.4894 H   0  0  0  0  0  0  0  0  0  0  0  0
  137.9168   69.9990  225.9457 H   0  0  0  0  0  0  0  0  0  0  0  0
  142.4111   71.3027  225.9360 H   0  0  0  0  0  0  0  0  0  0  0  0
  141.3981   72.6954  225.5471 H   0  0  0  0  0  0  0  0  0  0  0  0
  142.4788   71.8734  228.1666 H   0  0  0  0  0  0  0  0  0  0  0  0
  141.6213   73.3666  227.7968 H   0  0  0  0  0  0  0  0  0  0  0  0
  140.4823   71.4534  229.3926 H   0  0  0  0  0  0  0  0  0  0  0  0
  139.4489   72.3515  228.3307 H   0  0  0  0  0  0  0  0  0  0  0  0
  140.9293   69.6623  227.7312 H   0  0  0  0  0  0  0  0  0  0  0  0
  139.2112   69.8777  227.6415 H   0  0  0  0  0  0  0  0  0  0  0  0
  141.3192   74.0470  220.3837 H   0  0  0  0  0  0  0  0  0  0  0  0
  142.5511   76.2100  220.3884 H   0  0  0  0  0  0  0  0  0  0  0  0
  142.7018   78.5307  221.1320 H   0  0  0  0  0  0  0  0  0  0  0  0
  139.5822   80.0970  223.6582 H   0  0  0  0  0  0  0  0  0  0  0  0
  138.3886   77.8965  223.6204 H   0  0  0  0  0  0  0  0  0  0  0  0
  1  2  2  0
  2  3  1  0
  3  4  1  0
  4  5  1  0
  5  6  2  0
  5  7  1  0
  7  8  1  0
  8  9  1  0
  9 10  1  0
  9 11  1  0
 11 12  1  0
 12 13  1  0
 13 14  2  0
 13 15  1  0
 15 16  1  0
 16 17  1  0
 17 18  1  0
 18 19  1  0
  2 20  1  0
 20 21  2  0
 21 22  1  0
 22 23  2  0
 23 24  1  0
 24 25  2  0
 25 26  1  0
 25 27  1  0
 27 28  2  0
 28 29  1  0
 29 30  2  0
 12  7  1  0
 19 15  1  0
 30 20  1  0
 29 23  1  0
  3 31  1  0
  4 32  1  0
  4 33  1  0
  8 34  1  0
  8 35  1  0
  9 36  1  6
 10 37  1  0
 11 38  1  0
 11 39  1  0
 12 40  1  1
 16 41  1  0
 16 42  1  0
 17 43  1  0
 17 44  1  0
 18 45  1  0
 18 46  1  0
 19 47  1  0
 19 48  1  0
 21 49  1  0
 22 50  1  0
 24 51  1  0
 27 52  1  0
 28 53  1  0
M  END
>  <smiles>  (4) 
O=C(NCC(=O)N1C[C@H](O)C[C@H]1C(=O)N1CCCC1)c1ccc2cc(Cl)ccc2n1

>  <score_type>  (4) 
oracle

>  <origin>  (4) 
autodockgpu

>  <m_score__min__energy>  (4) 
-8.0099999999999998

>  <m_primary>  (4) 
energy

>  <rmsd>  (4) 
8.80602623707717

>  <m_score__min__rmsd>  (4) 
8.80602623707717

>  <meeko>  (4) 
{"free_energy": -7.5, "intermolecular_energy": -9.29, "internal_energy": -1.83, "cluster_size": 6, "cluster_id": 4, "rank_in_cluster": 2}

>  <energy>  (4) 
-7.93

>  <cluster_rmsd>  (4) 
0.12

>  <cluster>  (4) 
1

$$$$

     RDKit          3D

 53 56  0  0  0  0  0  0  0  0999 V2000
  136.6990   72.0090  221.1780 O   0  0  0  0  0  0  0  0  0  0  0  0
  137.5000   72.4120  222.0600 C   0  0  0  0  0  0  0  0  0  0  0  0
  137.8800   73.7990  222.0100 N   0  0  0  0  0  0  0  0  0  0  0  0
  137.3230   74.6050  220.9710 C   0  0  0  0  0  0  0  0  0  0  0  0
  138.2530   74.8290  219.8390 C   0  0  0  0  0  0  0  0  0  0  0  0
  137.9290   74.4730  218.6590 O   0  0  0  0  0  0  0  0  0  0  0  0
  139.5010   75.4500  220.1270 N   0  0  0  0  0  0  0  0  0  0  0  0
  139.7630   76.8300  220.5160 C   0  0  0  0  0  0  0  0  0  0  0  0
  141.0410   76.6660  221.3360 C   0  0  2  0  0  0  0  0  0  0  0  0
  141.6610   77.8860  221.5480 O   0  0  0  0  0  0  0  0  0  0  0  0
  141.8180   75.7770  220.3630 C   0  0  0  0  0  0  0  0  0  0  0  0
  140.7830   74.7300  220.0690 C   0  0  1  0  0  0  0  0  0  0  0  0
  140.7580   73.6400  221.0620 C   0  0  0  0  0  0  0  0  0  0  0  0
  140.6630   73.8310  222.3120 O   0  0  0  0  0  0  0  0  0  0  0  0
  140.8450   72.2880  220.6340 N   0  0  0  0  0  0  0  0  0  0  0  0
  140.8280   71.1460  221.5340 C   0  0  0  0  0  0  0  0  0  0  0  0
  140.3120   69.9820  220.6930 C   0  0  0  0  0  0  0  0  0  0  0  0
  139.9320   70.6110  219.3630 C   0  0  0  0  0  0  0  0  0  0  0  0
  140.9610   71.7470  219.2940 C   0  0  0  0  0  0  0  0  0  0  0  0
  138.0380   71.5310  223.1030 C   0  0  0  0  0  0  0  0  0  0  0  0
  137.3920   70.3300  223.3040 C   0  0  0  0  0  0  0  0  0  0  0  0
  137.8250   69.4270  224.2680 C   0  0  0  0  0  0  0  0  0  0  0  0
  138.9300   69.7540  225.0350 C   0  0  0  0  0  0  0  0  0  0  0  0
  139.3840   68.8720  226.0040 C   0  0  0  0  0  0  0  0  0  0  0  0
  140.4830   69.2580  226.7270 C   0  0  0  0  0  0  0  0  0  0  0  0
  141.0730   68.1550  227.9600 Cl  0  0  0  0  0  0  0  0  0  0  0  0
  141.1300   70.4610  226.5240 C   0  0  0  0  0  0  0  0  0  0  0  0
  140.6710   71.3400  225.5520 C   0  0  0  0  0  0  0  0  0  0  0  0
  139.5640   70.9750  224.8090 C   0  0  0  0  0  0  0  0  0  0  0  0
  139.0960   71.8240  223.8490 N   0  0  0  0  0  0  0  0  0  0  0  0
  138.5440   74.1690  222.7270 H   0  0  0  0  0  0  0  0  0  0  0  0
  136.4208   74.1058  220.5878 H   0  0  0  0  0  0  0  0  0  0  0  0
  137.0989   75.5894  221.4076 H   0  0  0  0  0  0  0  0  0  0  0  0
  139.9262   77.4727  219.6384 H   0  0  0  0  0  0  0  0  0  0  0  0
  138.9362   77.3124  221.0579 H   0  0  0  0  0  0  0  0  0  0  0  0
  140.9227   76.2604  222.3516 H   0  0  0  0  0  0  0  0  0  0  0  0
  142.5340   77.6890  221.9750 H   0  0  0  0  0  0  0  0  0  0  0  0
  142.1106   76.3258  219.4557 H   0  0  0  0  0  0  0  0  0  0  0  0
  142.7685   75.3866  220.7557 H   0  0  0  0  0  0  0  0  0  0  0  0
  140.9948   74.2530  219.1007 H   0  0  0  0  0  0  0  0  0  0  0  0
  141.8409   70.9334  221.9068 H   0  0  0  0  0  0  0  0  0  0  0  0
  140.1970   71.3272  222.4166 H   0  0  0  0  0  0  0  0  0  0  0  0
  141.0975   69.2246  220.5543 H   0  0  0  0  0  0  0  0  0  0  0  0
  139.4647   69.4664  221.1685 H   0  0  0  0  0  0  0  0  0  0  0  0
  140.0504   69.9032  218.5293 H   0  0  0  0  0  0  0  0  0  0  0  0
  138.8832   70.9343  219.2892 H   0  0  0  0  0  0  0  0  0  0  0  0
  141.9738   71.3664  219.0957 H   0  0  0  0  0  0  0  0  0  0  0  0
  140.7873   72.4754  218.4882 H   0  0  0  0  0  0  0  0  0  0  0  0
  136.5151   70.0809  222.6884 H   0  0  0  0  0  0  0  0  0  0  0  0
  137.3002   68.4720  224.4183 H   0  0  0  0  0  0  0  0  0  0  0  0
  138.8858   67.9080  226.1841 H   0  0  0  0  0  0  0  0  0  0  0  0
  142.0085   70.7228  227.1320 H   0  0  0  0  0  0  0  0  0  0  0  0
  141.1753   72.3019  225.3778 H   0  0  0  0  0  0  0  0  0  0  0  0
  1  2  2  0
  2  3  1  0
  3  4  1  0
  4  5  1  0
  5  6  2  0
  5  7  1  0
  7  8  1  0
  8  9  1  0
  9 10  1  0
  9 11  1  0
 11 12  1  0
 12 13  1  0
 13 14  2  0
 13 15  1  0
 15 16  1  0
 16 17  1  0
 17 18  1  0
 18 19  1  0
  2 20  1  0
 20 21  2  0
 21 22  1  0
 22 23  2  0
 23 24  1  0
 24 25  2  0
 25 26  1  0
 25 27  1  0
 27 28  2  0
 28 29  1  0
 29 30  2  0
 12  7  1  0
 19 15  1  0
 30 20  1  0
 29 23  1  0
  3 31  1  0
  4 32  1  0
  4 33  1  0
  8 34  1  0
  8 35  1  0
  9 36  1  1
 10 37  1  0
 11 38  1  0
 11 39  1  0
 12 40  1  6
 16 41  1  0
 16 42  1  0
 17 43  1  0
 17 44  1  0
 18 45  1  0
 18 46  1  0
 19 47  1  0
 19 48  1  0
 21 49  1  0
 22 50  1  0
 24 51  1  0
 27 52  1  0
 28 53  1  0
M  END
>  <smiles>  (5) 
O=C(NCC(=O)N1C[C@H](O)C[C@H]1C(=O)N1CCCC1)c1ccc2cc(Cl)ccc2n1

>  <score_type>  (5) 
oracle

>  <origin>  (5) 
autodockgpu

>  <m_score__min__energy>  (5) 
-8.0099999999999998

>  <m_primary>  (5) 
energy

>  <rmsd>  (5) 
4.718014063819579

>  <m_score__min__rmsd>  (5) 
4.718014063819579

>  <meeko>  (5) 
{"free_energy": -6.13, "intermolecular_energy": -7.92, "internal_energy": -3.39, "cluster_size": 14, "cluster_id": 2, "rank_in_cluster": 13}

>  <energy>  (5) 
-7.91

>  <cluster_rmsd>  (5) 
2.0

>  <cluster>  (5) 
1

$$$$

     RDKit          3D

 53 56  0  0  0  0  0  0  0  0999 V2000
  137.9680   71.7260  220.7800 O   0  0  0  0  0  0  0  0  0  0  0  0
  138.3900   72.1910  221.8700 C   0  0  0  0  0  0  0  0  0  0  0  0
  138.4540   73.6240  221.9850 N   0  0  0  0  0  0  0  0  0  0  0  0
  138.0380   74.4010  220.8620 C   0  0  0  0  0  0  0  0  0  0  0  0
  138.1560   75.8620  221.0830 C   0  0  0  0  0  0  0  0  0  0  0  0
  137.1570   76.5320  221.5050 O   0  0  0  0  0  0  0  0  0  0  0  0
  139.4130   76.4690  220.8070 N   0  0  0  0  0  0  0  0  0  0  0  0
  139.8380   77.8400  221.0580 C   0  0  0  0  0  0  0  0  0  0  0  0
  141.3430   77.6520  221.2390 C   0  0  2  0  0  0  0  0  0  0  0  0
  142.0110   78.8640  221.1740 O   0  0  0  0  0  0  0  0  0  0  0  0
  141.6070   76.7730  220.0140 C   0  0  0  0  0  0  0  0  0  0  0  0
  140.5320   75.7400  220.1880 C   0  0  1  0  0  0  0  0  0  0  0  0
  140.9260   74.6340  221.0800 C   0  0  0  0  0  0  0  0  0  0  0  0
  140.8210   74.6780  222.3420 O   0  0  0  0  0  0  0  0  0  0  0  0
  141.4580   73.4350  220.5310 N   0  0  0  0  0  0  0  0  0  0  0  0
  141.8740   72.2910  221.3260 C   0  0  0  0  0  0  0  0  0  0  0  0
  141.7590   71.0910  220.3900 C   0  0  0  0  0  0  0  0  0  0  0  0
  141.1310   71.6530  219.1250 C   0  0  0  0  0  0  0  0  0  0  0  0
  141.7000   73.0780  219.1470 C   0  0  0  0  0  0  0  0  0  0  0  0
  138.8040   71.3360  222.9890 C   0  0  0  0  0  0  0  0  0  0  0  0
  138.3630   70.0300  222.9760 C   0  0  0  0  0  0  0  0  0  0  0  0
  138.7010   69.1420  223.9890 C   0  0  0  0  0  0  0  0  0  0  0  0
  139.4980   69.5910  225.0290 C   0  0  0  0  0  0  0  0  0  0  0  0
  139.8500   68.7270  226.0540 C   0  0  0  0  0  0  0  0  0  0  0  0
  140.6410   69.2380  227.0500 C   0  0  0  0  0  0  0  0  0  0  0  0
  141.0990   68.1590  228.3580 Cl  0  0  0  0  0  0  0  0  0  0  0  0
  141.0830   70.5470  227.0620 C   0  0  0  0  0  0  0  0  0  0  0  0
  140.7260   71.4080  226.0320 C   0  0  0  0  0  0  0  0  0  0  0  0
  139.9290   70.9180  225.0140 C   0  0  0  0  0  0  0  0  0  0  0  0
  139.5670   71.7470  223.9930 N   0  0  0  0  0  0  0  0  0  0  0  0
  138.8000   74.0460  222.8760 H   0  0  0  0  0  0  0  0  0  0  0  0
  138.6613   74.1272  219.9980 H   0  0  0  0  0  0  0  0  0  0  0  0
  136.9735   74.1825  220.6914 H   0  0  0  0  0  0  0  0  0  0  0  0
  139.6129   78.4952  220.2036 H   0  0  0  0  0  0  0  0  0  0  0  0
  139.3360   78.3207  221.9106 H   0  0  0  0  0  0  0  0  0  0  0  0
  141.6721   77.2303  222.2002 H   0  0  0  0  0  0  0  0  0  0  0  0
  142.8680   78.6890  220.7060 H   0  0  0  0  0  0  0  0  0  0  0  0
  141.4838   77.3345  219.0761 H   0  0  0  0  0  0  0  0  0  0  0  0
  142.6279   76.3685  219.9491 H   0  0  0  0  0  0  0  0  0  0  0  0
  140.2941   75.2780  219.2185 H   0  0  0  0  0  0  0  0  0  0  0  0
  142.9121   72.4157  221.6678 H   0  0  0  0  0  0  0  0  0  0  0  0
  141.2558   72.1701  222.2278 H   0  0  0  0  0  0  0  0  0  0  0  0
  142.7518   70.6682  220.1764 H   0  0  0  0  0  0  0  0  0  0  0  0
  141.1627   70.2762  220.8263 H   0  0  0  0  0  0  0  0  0  0  0  0
  141.4529   71.0999  218.2303 H   0  0  0  0  0  0  0  0  0  0  0  0
  140.0330   71.5958  219.0911 H   0  0  0  0  0  0  0  0  0  0  0  0
  142.7731   73.0911  218.9055 H   0  0  0  0  0  0  0  0  0  0  0  0
  141.2530   73.7626  218.4111 H   0  0  0  0  0  0  0  0  0  0  0  0
  137.7300   69.6838  222.1457 H   0  0  0  0  0  0  0  0  0  0  0  0
  138.3427   68.1023  223.9658 H   0  0  0  0  0  0  0  0  0  0  0  0
  139.5107   67.6807  226.0675 H   0  0  0  0  0  0  0  0  0  0  0  0
  141.7167   70.9068  227.8860 H   0  0  0  0  0  0  0  0  0  0  0  0
  141.0687   72.4532  226.0264 H   0  0  0  0  0  0  0  0  0  0  0  0
  1  2  2  0
  2  3  1  0
  3  4  1  0
  4  5  1  0
  5  6  2  0
  5  7  1  0
  7  8  1  0
  8  9  1  0
  9 10  1  0
  9 11  1  0
 11 12  1  0
 12 13  1  0
 13 14  2  0
 13 15  1  0
 15 16  1  0
 16 17  1  0
 17 18  1  0
 18 19  1  0
  2 20  1  0
 20 21  2  0
 21 22  1  0
 22 23  2  0
 23 24  1  0
 24 25  2  0
 25 26  1  0
 25 27  1  0
 27 28  2  0
 28 29  1  0
 29 30  2  0
 12  7  1  0
 19 15  1  0
 30 20  1  0
 29 23  1  0
  3 31  1  0
  4 32  1  0
  4 33  1  0
  8 34  1  0
  8 35  1  0
  9 36  1  1
 10 37  1  0
 11 38  1  0
 11 39  1  0
 12 40  1  6
 16 41  1  0
 16 42  1  0
 17 43  1  0
 17 44  1  0
 18 45  1  0
 18 46  1  0
 19 47  1  0
 19 48  1  0
 21 49  1  0
 22 50  1  0
 24 51  1  0
 27 52  1  0
 28 53  1  0
M  END
>  <smiles>  (6) 
O=C(NCC(=O)N1C[C@H](O)C[C@H]1C(=O)N1CCCC1)c1ccc2cc(Cl)ccc2n1

>  <score_type>  (6) 
oracle

>  <origin>  (6) 
autodockgpu

>  <m_score__min__energy>  (6) 
-8.0099999999999998

>  <m_primary>  (6) 
energy

>  <rmsd>  (6) 
4.194986032971616

>  <m_score__min__rmsd>  (6) 
4.194986032971616

>  <meeko>  (6) 
{"free_energy": -6.73, "intermolecular_energy": -8.52, "internal_energy": -2.68, "cluster_size": 13, "cluster_id": 1, "rank_in_cluster": 12}

>  <energy>  (6) 
-7.89

>  <cluster_rmsd>  (6) 
0.14

>  <cluster>  (6) 
1

$$$$

     RDKit          3D

 53 56  0  0  0  0  0  0  0  0999 V2000
  140.8200   72.1780  220.3930 O   0  0  0  0  0  0  0  0  0  0  0  0
  140.3710   72.6690  221.4610 C   0  0  0  0  0  0  0  0  0  0  0  0
  140.0240   74.0640  221.4400 N   0  0  0  0  0  0  0  0  0  0  0  0
  140.2140   74.7800  220.2190 C   0  0  0  0  0  0  0  0  0  0  0  0
  139.1420   75.7650  219.9420 C   0  0  0  0  0  0  0  0  0  0  0  0
  138.9680   76.2120  218.7620 O   0  0  0  0  0  0  0  0  0  0  0  0
  138.3310   76.1780  221.0370 N   0  0  0  0  0  0  0  0  0  0  0  0
  137.2010   75.4880  221.6450 C   0  0  0  0  0  0  0  0  0  0  0  0
  137.2710   76.0170  223.0760 C   0  0  2  0  0  0  0  0  0  0  0  0
  136.1010   75.7460  223.7680 O   0  0  0  0  0  0  0  0  0  0  0  0
  137.4290   77.5050  222.7570 C   0  0  0  0  0  0  0  0  0  0  0  0
  138.5420   77.4470  221.7510 C   0  0  1  0  0  0  0  0  0  0  0  0
  139.8820   77.4260  222.3670 C   0  0  0  0  0  0  0  0  0  0  0  0
  140.5700   76.3710  222.5130 O   0  0  0  0  0  0  0  0  0  0  0  0
  140.4680   78.6330  222.8340 N   0  0  0  0  0  0  0  0  0  0  0  0
  141.7810   78.7150  223.4530 C   0  0  0  0  0  0  0  0  0  0  0  0
  142.2490   80.1470  223.2100 C   0  0  0  0  0  0  0  0  0  0  0  0
  141.1780   80.7520  222.3170 C   0  0  0  0  0  0  0  0  0  0  0  0
  139.9450   79.9850  222.8110 C   0  0  0  0  0  0  0  0  0  0  0  0
  140.2000   71.8780  222.6850 C   0  0  0  0  0  0  0  0  0  0  0  0
  139.4670   70.7150  222.5840 C   0  0  0  0  0  0  0  0  0  0  0  0
  139.2490   69.8980  223.6860 C   0  0  0  0  0  0  0  0  0  0  0  0
  139.7850   70.2710  224.9070 C   0  0  0  0  0  0  0  0  0  0  0  0
  139.5840   69.4750  226.0240 C   0  0  0  0  0  0  0  0  0  0  0  0
  140.1430   69.9040  227.1990 C   0  0  0  0  0  0  0  0  0  0  0  0
  139.8980   68.9090  228.6260 Cl  0  0  0  0  0  0  0  0  0  0  0  0
  140.8780   71.0690  227.3000 C   0  0  0  0  0  0  0  0  0  0  0  0
  141.0770   71.8630  226.1780 C   0  0  0  0  0  0  0  0  0  0  0  0
  140.5230   71.4530  224.9790 C   0  0  0  0  0  0  0  0  0  0  0  0
  140.7060   72.2170  223.8640 N   0  0  0  0  0  0  0  0  0  0  0  0
  139.6480   74.5070  222.3090 H   0  0  0  0  0  0  0  0  0  0  0  0
  141.1735   75.3150  220.2741 H   0  0  0  0  0  0  0  0  0  0  0  0
  140.1960   74.0421  219.4034 H   0  0  0  0  0  0  0  0  0  0  0  0
  136.2524   75.7610  221.1595 H   0  0  0  0  0  0  0  0  0  0  0  0
  137.2430   74.3917  221.5646 H   0  0  0  0  0  0  0  0  0  0  0  0
  138.0538   75.5884  223.7191 H   0  0  0  0  0  0  0  0  0  0  0  0
  135.5650   76.5790  223.7530 H   0  0  0  0  0  0  0  0  0  0  0  0
  136.5106   77.9281  222.3239 H   0  0  0  0  0  0  0  0  0  0  0  0
  137.6298   78.1441  223.6295 H   0  0  0  0  0  0  0  0  0  0  0  0
  138.5167   78.3400  221.1092 H   0  0  0  0  0  0  0  0  0  0  0  0
  141.7126   78.5093  224.5314 H   0  0  0  0  0  0  0  0  0  0  0  0
  142.4804   77.9770  223.0331 H   0  0  0  0  0  0  0  0  0  0  0  0
  142.3210   80.6987  224.1589 H   0  0  0  0  0  0  0  0  0  0  0  0
  143.2479   80.1881  222.7512 H   0  0  0  0  0  0  0  0  0  0  0  0
  141.0760   81.8351  222.4801 H   0  0  0  0  0  0  0  0  0  0  0  0
  141.3738   80.6638  221.2382 H   0  0  0  0  0  0  0  0  0  0  0  0
  139.6340   80.3174  223.8124 H   0  0  0  0  0  0  0  0  0  0  0  0
  139.0442   80.1181  222.1939 H   0  0  0  0  0  0  0  0  0  0  0  0
  139.0455   70.4276  221.6094 H   0  0  0  0  0  0  0  0  0  0  0  0
  138.6619   68.9727  223.5906 H   0  0  0  0  0  0  0  0  0  0  0  0
  139.0029   68.5426  225.9695 H   0  0  0  0  0  0  0  0  0  0  0  0
  141.3055   71.3678  228.2685 H   0  0  0  0  0  0  0  0  0  0  0  0
  141.6600   72.7936  226.2414 H   0  0  0  0  0  0  0  0  0  0  0  0
  1  2  2  0
  2  3  1  0
  3  4  1  0
  4  5  1  0
  5  6  2  0
  5  7  1  0
  7  8  1  0
  8  9  1  0
  9 10  1  0
  9 11  1  0
 11 12  1  0
 12 13  1  0
 13 14  2  0
 13 15  1  0
 15 16  1  0
 16 17  1  0
 17 18  1  0
 18 19  1  0
  2 20  1  0
 20 21  2  0
 21 22  1  0
 22 23  2  0
 23 24  1  0
 24 25  2  0
 25 26  1  0
 25 27  1  0
 27 28  2  0
 28 29  1  0
 29 30  2  0
 12  7  1  0
 19 15  1  0
 30 20  1  0
 29 23  1  0
  3 31  1  0
  4 32  1  0
  4 33  1  0
  8 34  1  0
  8 35  1  0
  9 36  1  1
 10 37  1  0
 11 38  1  0
 11 39  1  0
 12 40  1  6
 16 41  1  0
 16 42  1  0
 17 43  1  0
 17 44  1  0
 18 45  1  0
 18 46  1  0
 19 47  1  0
 19 48  1  0
 21 49  1  0
 22 50  1  0
 24 51  1  0
 27 52  1  0
 28 53  1  0
M  END
>  <smiles>  (7) 
O=C(NCC(=O)N1C[C@H](O)C[C@H]1C(=O)N1CCCC1)c1ccc2cc(Cl)ccc2n1

>  <score_type>  (7) 
oracle

>  <origin>  (7) 
autodockgpu

>  <m_score__min__energy>  (7) 
-8.0099999999999998

>  <m_primary>  (7) 
energy

>  <rmsd>  (7) 
3.1379227584124036

>  <m_score__min__rmsd>  (7) 
3.1379227584124036

>  <meeko>  (7) 
{"free_energy": -7.06, "intermolecular_energy": -8.85, "internal_energy": -2.1, "cluster_size": 14, "cluster_id": 2, "rank_in_cluster": 9}

>  <energy>  (7) 
-7.88

>  <cluster_rmsd>  (7) 
0.12

>  <cluster>  (7) 
1

$$$$

     RDKit          3D

 53 56  0  0  0  0  0  0  0  0999 V2000
  140.1710   72.4120  220.6700 O   0  0  0  0  0  0  0  0  0  0  0  0
  140.0450   72.8270  221.8510 C   0  0  0  0  0  0  0  0  0  0  0  0
  139.8830   74.2450  222.0280 N   0  0  0  0  0  0  0  0  0  0  0  0
  139.8770   75.0660  220.8600 C   0  0  0  0  0  0  0  0  0  0  0  0
  140.7840   76.2340  220.9570 C   0  0  0  0  0  0  0  0  0  0  0  0
  141.0590   76.7420  222.0920 O   0  0  0  0  0  0  0  0  0  0  0  0
  141.3240   76.7490  219.7440 N   0  0  0  0  0  0  0  0  0  0  0  0
  141.1710   78.0810  219.1720 C   0  0  0  0  0  0  0  0  0  0  0  0
  142.4700   78.2090  218.3790 C   0  0  2  0  0  0  0  0  0  0  0  0
  142.4110   79.2680  217.4880 O   0  0  0  0  0  0  0  0  0  0  0  0
  142.4370   76.8510  217.6740 C   0  0  0  0  0  0  0  0  0  0  0  0
  142.1680   75.9480  218.8430 C   0  0  1  0  0  0  0  0  0  0  0  0
  143.3910   75.5540  219.5670 C   0  0  0  0  0  0  0  0  0  0  0  0
  144.2020   76.3830  220.0780 O   0  0  0  0  0  0  0  0  0  0  0  0
  143.7120   74.1780  219.7220 N   0  0  0  0  0  0  0  0  0  0  0  0
  144.8920   73.6900  220.4180 C   0  0  0  0  0  0  0  0  0  0  0  0
  144.5270   72.2830  220.8840 C   0  0  0  0  0  0  0  0  0  0  0  0
  143.0600   72.1290  220.5190 C   0  0  0  0  0  0  0  0  0  0  0  0
  142.9980   73.0040  219.2600 C   0  0  0  0  0  0  0  0  0  0  0  0
  140.0610   71.9290  223.0120 C   0  0  0  0  0  0  0  0  0  0  0  0
  139.5320   70.6690  222.8370 C   0  0  0  0  0  0  0  0  0  0  0  0
  139.5000   69.7460  223.8760 C   0  0  0  0  0  0  0  0  0  0  0  0
  140.0160   70.1140  225.1070 C   0  0  0  0  0  0  0  0  0  0  0  0
  139.9980   69.2140  226.1610 C   0  0  0  0  0  0  0  0  0  0  0  0
  140.5250   69.6440  227.3520 C   0  0  0  0  0  0  0  0  0  0  0  0
  140.5110   68.5180  228.7000 Cl  0  0  0  0  0  0  0  0  0  0  0  0
  141.0560   70.9070  227.5260 C   0  0  0  0  0  0  0  0  0  0  0  0
  141.0710   71.8040  226.4660 C   0  0  0  0  0  0  0  0  0  0  0  0
  140.5460   71.3960  225.2530 C   0  0  0  0  0  0  0  0  0  0  0  0
  140.5510   72.2620  224.2000 N   0  0  0  0  0  0  0  0  0  0  0  0
  139.7770   74.6270  222.9950 H   0  0  0  0  0  0  0  0  0  0  0  0
  140.1884   74.4531  220.0013 H   0  0  0  0  0  0  0  0  0  0  0  0
  138.8555   75.4569  220.7431 H   0  0  0  0  0  0  0  0  0  0  0  0
  140.2899   78.1402  218.5161 H   0  0  0  0  0  0  0  0  0  0  0  0
  141.0125   78.8775  219.9139 H   0  0  0  0  0  0  0  0  0  0  0  0
  143.3805   78.4147  218.9610 H   0  0  0  0  0  0  0  0  0  0  0  0
  143.3360   79.4150  217.1630 H   0  0  0  0  0  0  0  0  0  0  0  0
  141.6315   76.8000  216.9266 H   0  0  0  0  0  0  0  0  0  0  0  0
  143.3448   76.6066  217.1029 H   0  0  0  0  0  0  0  0  0  0  0  0
  141.7047   75.0121  218.4973 H   0  0  0  0  0  0  0  0  0  0  0  0
  145.7561   73.6593  219.7380 H   0  0  0  0  0  0  0  0  0  0  0  0
  145.1733   74.3419  221.2582 H   0  0  0  0  0  0  0  0  0  0  0  0
  145.1380   71.5306  220.3639 H   0  0  0  0  0  0  0  0  0  0  0  0
  144.7074   72.1390  221.9595 H   0  0  0  0  0  0  0  0  0  0  0  0
  142.8027   71.0821  220.3002 H   0  0  0  0  0  0  0  0  0  0  0  0
  142.3551   72.4147  221.3137 H   0  0  0  0  0  0  0  0  0  0  0  0
  143.5063   72.5279  218.4086 H   0  0  0  0  0  0  0  0  0  0  0  0
  141.9821   73.2013  218.8872 H   0  0  0  0  0  0  0  0  0  0  0  0
  139.1263   70.3873  221.8541 H   0  0  0  0  0  0  0  0  0  0  0  0
  139.0734   68.7437  223.7233 H   0  0  0  0  0  0  0  0  0  0  0  0
  139.5807   68.2026  226.0476 H   0  0  0  0  0  0  0  0  0  0  0  0
  141.4665   71.2020  228.5030 H   0  0  0  0  0  0  0  0  0  0  0  0
  141.4899   72.8138  226.5879 H   0  0  0  0  0  0  0  0  0  0  0  0
  1  2  2  0
  2  3  1  0
  3  4  1  0
  4  5  1  0
  5  6  2  0
  5  7  1  0
  7  8  1  0
  8  9  1  0
  9 10  1  0
  9 11  1  0
 11 12  1  0
 12 13  1  0
 13 14  2  0
 13 15  1  0
 15 16  1  0
 16 17  1  0
 17 18  1  0
 18 19  1  0
  2 20  1  0
 20 21  2  0
 21 22  1  0
 22 23  2  0
 23 24  1  0
 24 25  2  0
 25 26  1  0
 25 27  1  0
 27 28  2  0
 28 29  1  0
 29 30  2  0
 12  7  1  0
 19 15  1  0
 30 20  1  0
 29 23  1  0
  3 31  1  0
  4 32  1  0
  4 33  1  0
  8 34  1  0
  8 35  1  0
  9 36  1  1
 10 37  1  0
 11 38  1  0
 11 39  1  0
 12 40  1  6
 16 41  1  0
 16 42  1  0
 17 43  1  0
 17 44  1  0
 18 45  1  0
 18 46  1  0
 19 47  1  0
 19 48  1  0
 21 49  1  0
 22 50  1  0
 24 51  1  0
 27 52  1  0
 28 53  1  0
M  END
>  <smiles>  (8) 
O=C(NCC(=O)N1C[C@H](O)C[C@H]1C(=O)N1CCCC1)c1ccc2cc(Cl)ccc2n1

>  <score_type>  (8) 
oracle

>  <origin>  (8) 
autodockgpu

>  <m_score__min__energy>  (8) 
-8.0099999999999998

>  <m_primary>  (8) 
energy

>  <rmsd>  (8) 
4.311159295663945

>  <m_score__min__rmsd>  (8) 
4.311159295663945

>  <meeko>  (8) 
{"free_energy": -7.88, "intermolecular_energy": -9.67, "internal_energy": -2.11, "cluster_size": 13, "cluster_id": 1, "rank_in_cluster": 7}

>  <energy>  (8) 
-7.6

>  <cluster_rmsd>  (8) 
1.97

>  <cluster>  (8) 
1

$$$$

     RDKit          3D

 53 56  0  0  0  0  0  0  0  0999 V2000
  139.8800   72.7110  219.9800 O   0  0  0  0  0  0  0  0  0  0  0  0
  140.2600   73.0450  221.1310 C   0  0  0  0  0  0  0  0  0  0  0  0
  140.9200   74.3180  221.2550 N   0  0  0  0  0  0  0  0  0  0  0  0
  141.0920   75.0970  220.0710 C   0  0  0  0  0  0  0  0  0  0  0  0
  139.9600   76.0140  219.8010 C   0  0  0  0  0  0  0  0  0  0  0  0
  139.8770   76.6240  218.6860 O   0  0  0  0  0  0  0  0  0  0  0  0
  138.9880   76.1770  220.8290 N   0  0  0  0  0  0  0  0  0  0  0  0
  137.9200   75.2680  221.2250 C   0  0  0  0  0  0  0  0  0  0  0  0
  137.7620   75.6280  222.7000 C   0  0  2  0  0  0  0  0  0  0  0  0
  136.5830   75.1150  223.2180 O   0  0  0  0  0  0  0  0  0  0  0  0
  137.7230   77.1510  222.5560 C   0  0  0  0  0  0  0  0  0  0  0  0
  138.9280   77.3700  221.6890 C   0  0  1  0  0  0  0  0  0  0  0  0
  140.1860   77.4640  222.4530 C   0  0  0  0  0  0  0  0  0  0  0  0
  140.9260   76.4680  222.7110 O   0  0  0  0  0  0  0  0  0  0  0  0
  140.6250   78.7230  222.9450 N   0  0  0  0  0  0  0  0  0  0  0  0
  141.8480   78.9180  223.7080 C   0  0  0  0  0  0  0  0  0  0  0  0
  142.2360   80.3760  223.4730 C   0  0  0  0  0  0  0  0  0  0  0  0
  141.2350   80.8760  222.4450 C   0  0  0  0  0  0  0  0  0  0  0  0
  140.0110   80.0310  222.8200 C   0  0  0  0  0  0  0  0  0  0  0  0
  140.0540   72.1970  222.3110 C   0  0  0  0  0  0  0  0  0  0  0  0
  139.1900   71.1320  222.1740 C   0  0  0  0  0  0  0  0  0  0  0  0
  138.9280   70.2700  223.2320 C   0  0  0  0  0  0  0  0  0  0  0  0
  139.5550   70.4980  224.4450 C   0  0  0  0  0  0  0  0  0  0  0  0
  139.3130   69.6550  225.5180 C   0  0  0  0  0  0  0  0  0  0  0  0
  139.9680   69.9390  226.6890 C   0  0  0  0  0  0  0  0  0  0  0  0
  139.6740   68.8820  228.0610 Cl  0  0  0  0  0  0  0  0  0  0  0  0
  140.8340   71.0060  226.8250 C   0  0  0  0  0  0  0  0  0  0  0  0
  141.0730   71.8470  225.7470 C   0  0  0  0  0  0  0  0  0  0  0  0
  140.4250   71.5830  224.5530 C   0  0  0  0  0  0  0  0  0  0  0  0
  140.6450   72.3970  223.4810 N   0  0  0  0  0  0  0  0  0  0  0  0
  141.2500   74.6290  222.1960 H   0  0  0  0  0  0  0  0  0  0  0  0
  142.0084   75.6961  220.1777 H   0  0  0  0  0  0  0  0  0  0  0  0
  141.1504   74.3952  219.2259 H   0  0  0  0  0  0  0  0  0  0  0  0
  136.9956   75.4610  220.6609 H   0  0  0  0  0  0  0  0  0  0  0  0
  138.1366   74.2058  221.0385 H   0  0  0  0  0  0  0  0  0  0  0  0
  138.5314   75.2402  223.3839 H   0  0  0  0  0  0  0  0  0  0  0  0
  136.8180   74.2600  223.6610 H   0  0  0  0  0  0  0  0  0  0  0  0
  136.7999   77.4895  222.0627 H   0  0  0  0  0  0  0  0  0  0  0  0
  137.7339   77.7036  223.5071 H   0  0  0  0  0  0  0  0  0  0  0  0
  138.8314   78.3207  221.1442 H   0  0  0  0  0  0  0  0  0  0  0  0
  141.6693   78.7336  224.7776 H   0  0  0  0  0  0  0  0  0  0  0  0
  142.6431   78.2248  223.3960 H   0  0  0  0  0  0  0  0  0  0  0  0
  142.1573   80.9543  224.4054 H   0  0  0  0  0  0  0  0  0  0  0  0
  143.2757   80.4817  223.1298 H   0  0  0  0  0  0  0  0  0  0  0  0
  141.0372   81.9520  222.5595 H   0  0  0  0  0  0  0  0  0  0  0  0
  141.5605   80.7758  221.3991 H   0  0  0  0  0  0  0  0  0  0  0  0
  139.5633   80.3624  223.7685 H   0  0  0  0  0  0  0  0  0  0  0  0
  139.1798   80.0818  222.1013 H   0  0  0  0  0  0  0  0  0  0  0  0
  138.6969   70.9606  221.2058 H   0  0  0  0  0  0  0  0  0  0  0  0
  138.2364   69.4236  223.1082 H   0  0  0  0  0  0  0  0  0  0  0  0
  138.6279   68.7985  225.4344 H   0  0  0  0  0  0  0  0  0  0  0  0
  141.3343   71.1894  227.7873 H   0  0  0  0  0  0  0  0  0  0  0  0
  141.7597   72.7013  225.8393 H   0  0  0  0  0  0  0  0  0  0  0  0
  1  2  2  0
  2  3  1  0
  3  4  1  0
  4  5  1  0
  5  6  2  0
  5  7  1  0
  7  8  1  0
  8  9  1  0
  9 10  1  0
  9 11  1  0
 11 12  1  0
 12 13  1  0
 13 14  2  0
 13 15  1  0
 15 16  1  0
 16 17  1  0
 17 18  1  0
 18 19  1  0
  2 20  1  0
 20 21  2  0
 21 22  1  0
 22 23  2  0
 23 24  1  0
 24 25  2  0
 25 26  1  0
 25 27  1  0
 27 28  2  0
 28 29  1  0
 29 30  2  0
 12  7  1  0
 19 15  1  0
 30 20  1  0
 29 23  1  0
  3 31  1  0
  4 32  1  0
  4 33  1  0
  8 34  1  0
  8 35  1  0
  9 36  1  1
 10 37  1  0
 11 38  1  0
 11 39  1  0
 12 40  1  6
 16 41  1  0
 16 42  1  0
 17 43  1  0
 17 44  1  0
 18 45  1  0
 18 46  1  0
 19 47  1  0
 19 48  1  0
 21 49  1  0
 22 50  1  0
 24 51  1  0
 27 52  1  0
 28 53  1  0
M  END
>  <smiles>  (9) 
O=C(NCC(=O)N1C[C@H](O)C[C@H]1C(=O)N1CCCC1)c1ccc2cc(Cl)ccc2n1

>  <score_type>  (9) 
oracle

>  <origin>  (9) 
autodockgpu

>  <m_score__min__energy>  (9) 
-8.0099999999999998

>  <m_primary>  (9) 
energy

>  <rmsd>  (9) 
3.174908056192708

>  <m_score__min__rmsd>  (9) 
3.174908056192708

>  <meeko>  (9) 
{"free_energy": -7.14, "intermolecular_energy": -8.93, "internal_energy": -2.57, "cluster_size": 14, "cluster_id": 2, "rank_in_cluster": 6}

>  <energy>  (9) 
-7.46

>  <cluster_rmsd>  (9) 
1.62

>  <cluster>  (9) 
1

$$$$

     RDKit          3D

 53 56  0  0  0  0  0  0  0  0999 V2000
  138.1800   71.5940  220.1550 O   0  0  0  0  0  0  0  0  0  0  0  0
  139.2840   71.2740  220.6670 C   0  0  0  0  0  0  0  0  0  0  0  0
  140.4560   71.4600  219.8540 N   0  0  0  0  0  0  0  0  0  0  0  0
  140.2780   71.9890  218.5400 C   0  0  0  0  0  0  0  0  0  0  0  0
  140.4890   73.4540  218.4620 C   0  0  0  0  0  0  0  0  0  0  0  0
  140.7130   74.0140  217.3400 O   0  0  0  0  0  0  0  0  0  0  0  0
  140.4280   74.1910  219.6780 N   0  0  0  0  0  0  0  0  0  0  0  0
  139.2540   74.5840  220.4480 C   0  0  0  0  0  0  0  0  0  0  0  0
  139.8380   74.6510  221.8580 C   0  0  2  0  0  0  0  0  0  0  0  0
  138.9830   75.3140  222.7230 O   0  0  0  0  0  0  0  0  0  0  0  0
  141.0950   75.4630  221.5410 C   0  0  0  0  0  0  0  0  0  0  0  0
  141.6270   74.6890  220.3710 C   0  0  1  0  0  0  0  0  0  0  0  0
  142.4590   73.5360  220.7640 C   0  0  0  0  0  0  0  0  0  0  0  0
  142.0880   72.6560  221.5970 O   0  0  0  0  0  0  0  0  0  0  0  0
  143.7520   73.3690  220.2000 N   0  0  0  0  0  0  0  0  0  0  0  0
  144.6450   72.2670  220.5230 C   0  0  0  0  0  0  0  0  0  0  0  0
  145.5590   72.1240  219.3090 C   0  0  0  0  0  0  0  0  0  0  0  0
  145.0000   73.1080  218.2940 C   0  0  0  0  0  0  0  0  0  0  0  0
  144.4540   74.1910  219.2340 C   0  0  0  0  0  0  0  0  0  0  0  0
  139.4000   70.7330  222.0260 C   0  0  0  0  0  0  0  0  0  0  0  0
  138.8370   69.4970  222.2590 C   0  0  0  0  0  0  0  0  0  0  0  0
  138.8930   68.9000  223.5120 C   0  0  0  0  0  0  0  0  0  0  0  0
  139.5310   69.5730  224.5400 C   0  0  0  0  0  0  0  0  0  0  0  0
  139.6030   69.0010  225.8020 C   0  0  0  0  0  0  0  0  0  0  0  0
  140.2490   69.7220  226.7720 C   0  0  0  0  0  0  0  0  0  0  0  0
  140.3500   69.0150  228.3770 Cl  0  0  0  0  0  0  0  0  0  0  0  0
  140.8130   70.9600  226.5380 C   0  0  0  0  0  0  0  0  0  0  0  0
  140.7380   71.5280  225.2730 C   0  0  0  0  0  0  0  0  0  0  0  0
  140.0920   70.8220  224.2750 C   0  0  0  0  0  0  0  0  0  0  0  0
  140.0070   71.3610  223.0250 N   0  0  0  0  0  0  0  0  0  0  0  0
  141.3910   71.2050  220.2450 H   0  0  0  0  0  0  0  0  0  0  0  0
  140.9947   71.4971  217.8660 H   0  0  0  0  0  0  0  0  0  0  0  0
  139.2347   71.7952  218.2503 H   0  0  0  0  0  0  0  0  0  0  0  0
  138.8674   75.5616  220.1242 H   0  0  0  0  0  0  0  0  0  0  0  0
  138.3959   73.9035  220.3449 H   0  0  0  0  0  0  0  0  0  0  0  0
  140.0151   73.6893  222.3617 H   0  0  0  0  0  0  0  0  0  0  0  0
  138.3590   74.6320  223.0810 H   0  0  0  0  0  0  0  0  0  0  0  0
  140.8510   76.4997  221.2660 H   0  0  0  0  0  0  0  0  0  0  0  0
  141.7980   75.5693  222.3804 H   0  0  0  0  0  0  0  0  0  0  0  0
  142.2730   75.3337  219.7570 H   0  0  0  0  0  0  0  0  0  0  0  0
  145.2330   72.4981  221.4235 H   0  0  0  0  0  0  0  0  0  0  0  0
  144.0934   71.3390  220.7341 H   0  0  0  0  0  0  0  0  0  0  0  0
  146.5959   72.3819  219.5704 H   0  0  0  0  0  0  0  0  0  0  0  0
  145.5843   71.0941  218.9233 H   0  0  0  0  0  0  0  0  0  0  0  0
  145.7862   73.5015  217.6329 H   0  0  0  0  0  0  0  0  0  0  0  0
  144.2587   72.6834  217.6010 H   0  0  0  0  0  0  0  0  0  0  0  0
  145.2643   74.7680  219.7036 H   0  0  0  0  0  0  0  0  0  0  0  0
  143.8331   74.9549  218.7432 H   0  0  0  0  0  0  0  0  0  0  0  0
  138.3323   68.9717  221.4348 H   0  0  0  0  0  0  0  0  0  0  0  0
  138.4397   67.9126  223.6840 H   0  0  0  0  0  0  0  0  0  0  0  0
  139.1625   68.0156  226.0139 H   0  0  0  0  0  0  0  0  0  0  0  0
  141.3214   71.4962  227.3529 H   0  0  0  0  0  0  0  0  0  0  0  0
  141.1811   72.5142  225.0702 H   0  0  0  0  0  0  0  0  0  0  0  0
  1  2  2  0
  2  3  1  0
  3  4  1  0
  4  5  1  0
  5  6  2  0
  5  7  1  0
  7  8  1  0
  8  9  1  0
  9 10  1  0
  9 11  1  0
 11 12  1  0
 12 13  1  0
 13 14  2  0
 13 15  1  0
 15 16  1  0
 16 17  1  0
 17 18  1  0
 18 19  1  0
  2 20  1  0
 20 21  2  0
 21 22  1  0
 22 23  2  0
 23 24  1  0
 24 25  2  0
 25 26  1  0
 25 27  1  0
 27 28  2  0
 28 29  1  0
 29 30  2  0
 12  7  1  0
 19 15  1  0
 30 20  1  0
 29 23  1  0
  3 31  1  0
  4 32  1  0
  4 33  1  0
  8 34  1  0
  8 35  1  0
  9 36  1  1
 10 37  1  0
 11 38  1  0
 11 39  1  0
 12 40  1  6
 16 41  1  0
 16 42  1  0
 17 43  1  0
 17 44  1  0
 18 45  1  0
 18 46  1  0
 19 47  1  0
 19 48  1  0
 21 49  1  0
 22 50  1  0
 24 51  1  0
 27 52  1  0
 28 53  1  0
M  END
>  <smiles>  (10) 
O=C(NCC(=O)N1C[C@H](O)C[C@H]1C(=O)N1CCCC1)c1ccc2cc(Cl)ccc2n1

>  <score_type>  (10) 
oracle

>  <origin>  (10) 
autodockgpu

>  <m_score__min__energy>  (10) 
-8.0099999999999998

>  <m_primary>  (10) 
energy

>  <rmsd>  (10) 
4.519069589143978

>  <m_score__min__rmsd>  (10) 
4.519069589143978

>  <meeko>  (10) 
{"free_energy": -5.92, "intermolecular_energy": -7.71, "internal_energy": -2.95, "cluster_size": 13, "cluster_id": 1, "rank_in_cluster": 13}

>  <energy>  (10) 
-7.11

>  <cluster_rmsd>  (10) 
1.89

>  <cluster>  (10) 
1

$$$$

     RDKit          3D

 53 56  0  0  0  0  0  0  0  0999 V2000
  136.6830   71.9490  221.1550 O   0  0  0  0  0  0  0  0  0  0  0  0
  137.4600   72.3660  222.0510 C   0  0  0  0  0  0  0  0  0  0  0  0
  137.8030   73.7630  222.0160 N   0  0  0  0  0  0  0  0  0  0  0  0
  137.2400   74.5610  220.9750 C   0  0  0  0  0  0  0  0  0  0  0  0
  138.1950   74.8610  219.8820 C   0  0  0  0  0  0  0  0  0  0  0  0
  137.9090   74.5610  218.6770 O   0  0  0  0  0  0  0  0  0  0  0  0
  139.4220   75.4880  220.2360 N   0  0  0  0  0  0  0  0  0  0  0  0
  139.6460   76.8470  220.7140 C   0  0  0  0  0  0  0  0  0  0  0  0
  140.9090   76.6580  221.5510 C   0  0  2  0  0  0  0  0  0  0  0  0
  141.4980   77.8760  221.8530 O   0  0  0  0  0  0  0  0  0  0  0  0
  141.7260   75.8480  220.5440 C   0  0  0  0  0  0  0  0  0  0  0  0
  140.7210   74.8010  220.1620 C   0  0  1  0  0  0  0  0  0  0  0  0
  140.6990   73.6510  221.0850 C   0  0  0  0  0  0  0  0  0  0  0  0
  140.5650   73.7610  222.3410 O   0  0  0  0  0  0  0  0  0  0  0  0
  140.8330   72.3300  220.5770 N   0  0  0  0  0  0  0  0  0  0  0  0
  140.8240   71.1340  221.4050 C   0  0  0  0  0  0  0  0  0  0  0  0
  140.3620   70.0120  220.4790 C   0  0  0  0  0  0  0  0  0  0  0  0
  140.0010   70.7130  219.1800 C   0  0  0  0  0  0  0  0  0  0  0  0
  141.0000   71.8770  219.2100 C   0  0  0  0  0  0  0  0  0  0  0  0
  138.0070   71.4920  223.0960 C   0  0  0  0  0  0  0  0  0  0  0  0
  137.3520   70.3010  223.3230 C   0  0  0  0  0  0  0  0  0  0  0  0
  137.7920   69.4050  224.2900 C   0  0  0  0  0  0  0  0  0  0  0  0
  138.9130   69.7290  225.0340 C   0  0  0  0  0  0  0  0  0  0  0  0
  139.3750   68.8540  226.0060 C   0  0  0  0  0  0  0  0  0  0  0  0
  140.4900   69.2370  226.7040 C   0  0  0  0  0  0  0  0  0  0  0  0
  141.0900   68.1430  227.9400 Cl  0  0  0  0  0  0  0  0  0  0  0  0
  141.1470   70.4310  226.4760 C   0  0  0  0  0  0  0  0  0  0  0  0
  140.6800   71.3030  225.5010 C   0  0  0  0  0  0  0  0  0  0  0  0
  139.5560   70.9410  224.7810 C   0  0  0  0  0  0  0  0  0  0  0  0
  139.0810   71.7830  223.8190 N   0  0  0  0  0  0  0  0  0  0  0  0
  138.4470   74.1460  222.7450 H   0  0  0  0  0  0  0  0  0  0  0  0
  136.3804   74.0228  220.5491 H   0  0  0  0  0  0  0  0  0  0  0  0
  136.9478   75.5217  221.4240 H   0  0  0  0  0  0  0  0  0  0  0  0
  139.8143   77.5454  219.8810 H   0  0  0  0  0  0  0  0  0  0  0  0
  138.7977   77.2791  221.2651 H   0  0  0  0  0  0  0  0  0  0  0  0
  140.7774   76.1871  222.5363 H   0  0  0  0  0  0  0  0  0  0  0  0
  142.4760   77.7470  221.7580 H   0  0  0  0  0  0  0  0  0  0  0  0
  142.0265   76.4581  219.6794 H   0  0  0  0  0  0  0  0  0  0  0  0
  142.6759   75.4533  220.9337 H   0  0  0  0  0  0  0  0  0  0  0  0
  140.9640   74.3911  219.1706 H   0  0  0  0  0  0  0  0  0  0  0  0
  141.8322   70.9247  221.7919 H   0  0  0  0  0  0  0  0  0  0  0  0
  140.1659   71.2435  222.2796 H   0  0  0  0  0  0  0  0  0  0  0  0
  141.1710   69.2847  220.3162 H   0  0  0  0  0  0  0  0  0  0  0  0
  139.5163   69.4467  220.8975 H   0  0  0  0  0  0  0  0  0  0  0  0
  140.1609   70.0618  218.3080 H   0  0  0  0  0  0  0  0  0  0  0  0
  138.9461   71.0135  219.0966 H   0  0  0  0  0  0  0  0  0  0  0  0
  142.0278   71.5357  219.0176 H   0  0  0  0  0  0  0  0  0  0  0  0
  140.8284   72.6494  218.4459 H   0  0  0  0  0  0  0  0  0  0  0  0
  136.4617   70.0542  222.7260 H   0  0  0  0  0  0  0  0  0  0  0  0
  137.2600   68.4574  224.4605 H   0  0  0  0  0  0  0  0  0  0  0  0
  138.8700   67.8977  226.2070 H   0  0  0  0  0  0  0  0  0  0  0  0
  142.0385   70.6905  227.0658 H   0  0  0  0  0  0  0  0  0  0  0  0
  141.1912   72.2574  225.3064 H   0  0  0  0  0  0  0  0  0  0  0  0
  1  2  2  0
  2  3  1  0
  3  4  1  0
  4  5  1  0
  5  6  2  0
  5  7  1  0
  7  8  1  0
  8  9  1  0
  9 10  1  0
  9 11  1  0
 11 12  1  0
 12 13  1  0
 13 14  2  0
 13 15  1  0
 15 16  1  0
 16 17  1  0
 17 18  1  0
 18 19  1  0
  2 20  1  0
 20 21  2  0
 21 22  1  0
 22 23  2  0
 23 24  1  0
 24 25  2  0
 25 26  1  0
 25 27  1  0
 27 28  2  0
 28 29  1  0
 29 30  2  0
 12  7  1  0
 19 15  1  0
 30 20  1  0
 29 23  1  0
  3 31  1  0
  4 32  1  0
  4 33  1  0
  8 34  1  0
  8 35  1  0
  9 36  1  1
 10 37  1  0
 11 38  1  0
 11 39  1  0
 12 40  1  6
 16 41  1  0
 16 42  1  0
 17 43  1  0
 17 44  1  0
 18 45  1  0
 18 46  1  0
 19 47  1  0
 19 48  1  0
 21 49  1  0
 22 50  1  0
 24 51  1  0
 27 52  1  0
 28 53  1  0
M  END
>  <smiles>  (11) 
O=C(NCC(=O)N1C[C@H](O)C[C@H]1C(=O)N1CCCC1)c1ccc2cc(Cl)ccc2n1

>  <score_type>  (11) 
oracle

>  <origin>  (11) 
autodockgpu

>  <m_score__min__energy>  (11) 
-8.0099999999999998

>  <m_primary>  (11) 
energy

>  <rmsd>  (11) 
4.70987643945713

>  <m_score__min__rmsd>  (11) 
4.70987643945713

>  <meeko>  (11) 
{"free_energy": -6.23, "intermolecular_energy": -8.02, "internal_energy": -3.38, "cluster_size": 14, "cluster_id": 2, "rank_in_cluster": 12}

>  <energy>  (11) 
-7.06

>  <cluster_rmsd>  (11) 
1.65

>  <cluster>  (11) 
1

$$$$

     RDKit          3D

 53 56  0  0  0  0  0  0  0  0999 V2000
  140.8610   72.5830  220.8040 O   0  0  0  0  0  0  0  0  0  0  0  0
  140.2640   72.8690  221.8730 C   0  0  0  0  0  0  0  0  0  0  0  0
  139.6220   74.1540  221.9360 N   0  0  0  0  0  0  0  0  0  0  0  0
  139.7110   75.0000  220.7900 C   0  0  0  0  0  0  0  0  0  0  0  0
  140.8750   75.9160  220.8240 C   0  0  0  0  0  0  0  0  0  0  0  0
  141.3940   76.2560  221.9360 O   0  0  0  0  0  0  0  0  0  0  0  0
  141.3750   76.3880  219.5770 N   0  0  0  0  0  0  0  0  0  0  0  0
  141.0190   77.6010  218.8530 C   0  0  0  0  0  0  0  0  0  0  0  0
  142.3130   77.8770  218.0900 C   0  0  2  0  0  0  0  0  0  0  0  0
  142.1120   78.8080  217.0830 O   0  0  0  0  0  0  0  0  0  0  0  0
  142.5560   76.4690  217.5440 C   0  0  0  0  0  0  0  0  0  0  0  0
  142.3930   75.6620  218.7990 C   0  0  1  0  0  0  0  0  0  0  0  0
  143.6270   75.5760  219.6010 C   0  0  0  0  0  0  0  0  0  0  0  0
  144.2200   76.5860  220.0870 O   0  0  0  0  0  0  0  0  0  0  0  0
  144.2150   74.3100  219.8650 N   0  0  0  0  0  0  0  0  0  0  0  0
  145.4290   74.1220  220.6440 C   0  0  0  0  0  0  0  0  0  0  0  0
  145.3360   72.7000  221.1920 C   0  0  0  0  0  0  0  0  0  0  0  0
  143.9550   72.2210  220.7760 C   0  0  0  0  0  0  0  0  0  0  0  0
  143.7850   72.9870  219.4570 C   0  0  0  0  0  0  0  0  0  0  0  0
  140.2110   71.9530  223.0190 C   0  0  0  0  0  0  0  0  0  0  0  0
  139.6410   70.7160  222.8080 C   0  0  0  0  0  0  0  0  0  0  0  0
  139.5430   69.7790  223.8290 C   0  0  0  0  0  0  0  0  0  0  0  0
  140.0330   70.1080  225.0810 C   0  0  0  0  0  0  0  0  0  0  0  0
  139.9490   69.1940  226.1200 C   0  0  0  0  0  0  0  0  0  0  0  0
  140.4530   69.5850  227.3330 C   0  0  0  0  0  0  0  0  0  0  0  0
  140.3550   68.4390  228.6610 Cl  0  0  0  0  0  0  0  0  0  0  0  0
  141.0240   70.8240  227.5440 C   0  0  0  0  0  0  0  0  0  0  0  0
  141.1060   71.7370  226.5000 C   0  0  0  0  0  0  0  0  0  0  0  0
  140.6050   71.3670  225.2650 C   0  0  0  0  0  0  0  0  0  0  0  0
  140.6750   72.2490  224.2270 N   0  0  0  0  0  0  0  0  0  0  0  0
  139.1170   74.4260  222.8100 H   0  0  0  0  0  0  0  0  0  0  0  0
  139.7918   74.3665  219.8944 H   0  0  0  0  0  0  0  0  0  0  0  0
  138.8060   75.6252  220.7767 H   0  0  0  0  0  0  0  0  0  0  0  0
  140.1753   77.4296  218.1683 H   0  0  0  0  0  0  0  0  0  0  0  0
  140.6858   78.4301  219.4945 H   0  0  0  0  0  0  0  0  0  0  0  0
  143.1430   78.3048  218.6715 H   0  0  0  0  0  0  0  0  0  0  0  0
  143.0120   79.1160  216.8010 H   0  0  0  0  0  0  0  0  0  0  0  0
  141.8107   76.1934  216.7834 H   0  0  0  0  0  0  0  0  0  0  0  0
  143.5203   76.3340  217.0322 H   0  0  0  0  0  0  0  0  0  0  0  0
  142.1220   74.6260  218.5474 H   0  0  0  0  0  0  0  0  0  0  0  0
  146.3180   74.2321  220.0056 H   0  0  0  0  0  0  0  0  0  0  0  0
  145.5217   74.8674  221.4477 H   0  0  0  0  0  0  0  0  0  0  0  0
  146.1173   72.0623  220.7528 H   0  0  0  0  0  0  0  0  0  0  0  0
  145.4812   72.6615  222.2817 H   0  0  0  0  0  0  0  0  0  0  0  0
  143.9316   71.1323  220.6203 H   0  0  0  0  0  0  0  0  0  0  0  0
  143.1627   72.3999  221.5178 H   0  0  0  0  0  0  0  0  0  0  0  0
  144.4274   72.5775  218.6635 H   0  0  0  0  0  0  0  0  0  0  0  0
  142.7727   72.9449  219.0287 H   0  0  0  0  0  0  0  0  0  0  0  0
  139.2551   70.4651  221.8089 H   0  0  0  0  0  0  0  0  0  0  0  0
  139.0853   68.7956  223.6461 H   0  0  0  0  0  0  0  0  0  0  0  0
  139.4986   68.2006  225.9774 H   0  0  0  0  0  0  0  0  0  0  0  0
  141.4138   71.0882  228.5381 H   0  0  0  0  0  0  0  0  0  0  0  0
  141.5577   72.7285  226.6517 H   0  0  0  0  0  0  0  0  0  0  0  0
  1  2  2  0
  2  3  1  0
  3  4  1  0
  4  5  1  0
  5  6  2  0
  5  7  1  0
  7  8  1  0
  8  9  1  0
  9 10  1  0
  9 11  1  0
 11 12  1  0
 12 13  1  0
 13 14  2  0
 13 15  1  0
 15 16  1  0
 16 17  1  0
 17 18  1  0
 18 19  1  0
  2 20  1  0
 20 21  2  0
 21 22  1  0
 22 23  2  0
 23 24  1  0
 24 25  2  0
 25 26  1  0
 25 27  1  0
 27 28  2  0
 28 29  1  0
 29 30  2  0
 12  7  1  0
 19 15  1  0
 30 20  1  0
 29 23  1  0
  3 31  1  0
  4 32  1  0
  4 33  1  0
  8 34  1  0
  8 35  1  0
  9 36  1  1
 10 37  1  0
 11 38  1  0
 11 39  1  0
 12 40  1  6
 16 41  1  0
 16 42  1  0
 17 43  1  0
 17 44  1  0
 18 45  1  0
 18 46  1  0
 19 47  1  0
 19 48  1  0
 21 49  1  0
 22 50  1  0
 24 51  1  0
 27 52  1  0
 28 53  1  0
M  END
>  <smiles>  (12) 
O=C(NCC(=O)N1C[C@H](O)C[C@H]1C(=O)N1CCCC1)c1ccc2cc(Cl)ccc2n1

>  <score_type>  (12) 
oracle

>  <origin>  (12) 
autodockgpu

>  <m_score__min__energy>  (12) 
-8.0099999999999998

>  <m_primary>  (12) 
energy

>  <rmsd>  (12) 
4.310809671329917

>  <m_score__min__rmsd>  (12) 
4.310809671329917

>  <meeko>  (12) 
{"free_energy": -7.93, "intermolecular_energy": -9.72, "internal_energy": -1.89, "cluster_size": 13, "cluster_id": 1, "rank_in_cluster": 3}

>  <energy>  (12) 
-6.73

>  <cluster_rmsd>  (12) 
1.8

>  <cluster>  (12) 
1

$$$$

     RDKit          3D

 53 56  0  0  0  0  0  0  0  0999 V2000
  134.7100   68.6000  225.0630 O   0  0  0  0  0  0  0  0  0  0  0  0
  135.1550   69.7770  225.0450 C   0  0  0  0  0  0  0  0  0  0  0  0
  136.4220   69.9830  224.3960 N   0  0  0  0  0  0  0  0  0  0  0  0
  137.0720   68.8460  223.8260 C   0  0  0  0  0  0  0  0  0  0  0  0
  138.5430   68.8600  224.0030 C   0  0  0  0  0  0  0  0  0  0  0  0
  139.1400   67.8570  224.5140 O   0  0  0  0  0  0  0  0  0  0  0  0
  139.2430   70.0260  223.5810 N   0  0  0  0  0  0  0  0  0  0  0  0
  138.8280   71.0410  222.6210 C   0  0  0  0  0  0  0  0  0  0  0  0
  139.5780   72.2640  223.1460 C   0  0  2  0  0  0  0  0  0  0  0  0
  139.5910   73.2840  222.2090 O   0  0  0  0  0  0  0  0  0  0  0  0
  140.9540   71.6210  223.3310 C   0  0  0  0  0  0  0  0  0  0  0  0
  140.5740   70.3870  224.0960 C   0  0  1  0  0  0  0  0  0  0  0  0
  140.4730   70.6120  225.5500 C   0  0  0  0  0  0  0  0  0  0  0  0
  140.0060   71.6720  226.0650 O   0  0  0  0  0  0  0  0  0  0  0  0
  140.9120   69.6080  226.4560 N   0  0  0  0  0  0  0  0  0  0  0  0
  140.8530   69.7360  227.9030 C   0  0  0  0  0  0  0  0  0  0  0  0
  140.8030   68.3030  228.4280 C   0  0  0  0  0  0  0  0  0  0  0  0
  140.6950   67.4430  227.1800 C   0  0  0  0  0  0  0  0  0  0  0  0
  141.4850   68.3040  226.1850 C   0  0  0  0  0  0  0  0  0  0  0  0
  134.4370   70.9040  225.6510 C   0  0  0  0  0  0  0  0  0  0  0  0
  133.4170   70.6000  226.5260 C   0  0  0  0  0  0  0  0  0  0  0  0
  132.6780   71.5970  227.1510 C   0  0  0  0  0  0  0  0  0  0  0  0
  132.9830   72.9200  226.8800 C   0  0  0  0  0  0  0  0  0  0  0  0
  132.2620   73.9360  227.4880 C   0  0  0  0  0  0  0  0  0  0  0  0
  132.6180   75.2220  227.1750 C   0  0  0  0  0  0  0  0  0  0  0  0
  131.7160   76.5230  227.9360 Cl  0  0  0  0  0  0  0  0  0  0  0  0
  133.6410   75.5250  226.2980 C   0  0  0  0  0  0  0  0  0  0  0  0
  134.3590   74.5040  225.6910 C   0  0  0  0  0  0  0  0  0  0  0  0
  134.0210   73.1970  225.9900 C   0  0  0  0  0  0  0  0  0  0  0  0
  134.7140   72.1780  225.4050 N   0  0  0  0  0  0  0  0  0  0  0  0
  136.8230   70.9470  224.3620 H   0  0  0  0  0  0  0  0  0  0  0  0
  136.6718   67.9395  224.3037 H   0  0  0  0  0  0  0  0  0  0  0  0
  136.8745   68.8671  222.7441 H   0  0  0  0  0  0  0  0  0  0  0  0
  139.1422   70.7826  221.5990 H   0  0  0  0  0  0  0  0  0  0  0  0
  137.7388   71.1752  222.5458 H   0  0  0  0  0  0  0  0  0  0  0  0
  139.1616   72.7469  224.0423 H   0  0  0  0  0  0  0  0  0  0  0  0
  139.0570   74.0260  222.5920 H   0  0  0  0  0  0  0  0  0  0  0  0
  141.4206   71.3738  222.3660 H   0  0  0  0  0  0  0  0  0  0  0  0
  141.6973   72.2605  223.8295 H   0  0  0  0  0  0  0  0  0  0  0  0
  141.3406   69.6096  223.9614 H   0  0  0  0  0  0  0  0  0  0  0  0
  141.7461   70.2549  228.2814 H   0  0  0  0  0  0  0  0  0  0  0  0
  139.9830   70.3248  228.2293 H   0  0  0  0  0  0  0  0  0  0  0  0
  141.7186   68.0621  228.9879 H   0  0  0  0  0  0  0  0  0  0  0  0
  139.9643   68.1409  229.1210 H   0  0  0  0  0  0  0  0  0  0  0  0
  141.1603   66.4567  227.3238 H   0  0  0  0  0  0  0  0  0  0  0  0
  139.6660   67.2080  226.8702 H   0  0  0  0  0  0  0  0  0  0  0  0
  142.5644   68.2823  226.3959 H   0  0  0  0  0  0  0  0  0  0  0  0
  141.4122   67.9788  225.1367 H   0  0  0  0  0  0  0  0  0  0  0  0
  133.1827   69.5456  226.7342 H   0  0  0  0  0  0  0  0  0  0  0  0
  131.8664   71.3401  227.8476 H   0  0  0  0  0  0  0  0  0  0  0  0
  131.4423   73.7201  228.1891 H   0  0  0  0  0  0  0  0  0  0  0  0
  133.8866   76.5750  226.0807 H   0  0  0  0  0  0  0  0  0  0  0  0
  135.1762   74.7289  224.9898 H   0  0  0  0  0  0  0  0  0  0  0  0
  1  2  2  0
  2  3  1  0
  3  4  1  0
  4  5  1  0
  5  6  2  0
  5  7  1  0
  7  8  1  0
  8  9  1  0
  9 10  1  0
  9 11  1  0
 11 12  1  0
 12 13  1  0
 13 14  2  0
 13 15  1  0
 15 16  1  0
 16 17  1  0
 17 18  1  0
 18 19  1  0
  2 20  1  0
 20 21  2  0
 21 22  1  0
 22 23  2  0
 23 24  1  0
 24 25  2  0
 25 26  1  0
 25 27  1  0
 27 28  2  0
 28 29  1  0
 29 30  2  0
 12  7  1  0
 19 15  1  0
 30 20  1  0
 29 23  1  0
  3 31  1  0
  4 32  1  0
  4 33  1  0
  8 34  1  0
  8 35  1  0
  9 36  1  1
 10 37  1  0
 11 38  1  0
 11 39  1  0
 12 40  1  1
 16 41  1  0
 16 42  1  0
 17 43  1  0
 17 44  1  0
 18 45  1  0
 18 46  1  0
 19 47  1  0
 19 48  1  0
 21 49  1  0
 22 50  1  0
 24 51  1  0
 27 52  1  0
 28 53  1  0
M  END
>  <smiles>  (13) 
O=C(NCC(=O)N1C[C@H](O)C[C@H]1C(=O)N1CCCC1)c1ccc2cc(Cl)ccc2n1

>  <score_type>  (13) 
oracle

>  <origin>  (13) 
autodockgpu

>  <m_score__min__energy>  (13) 
-8.0099999999999998

>  <m_primary>  (13) 
energy

>  <rmsd>  (13) 
8.748680827184842

>  <m_score__min__rmsd>  (13) 
8.748680827184842

>  <meeko>  (13) 
{"free_energy": -7.52, "intermolecular_energy": -9.31, "internal_energy": -1.71, "cluster_size": 3, "cluster_id": 5, "rank_in_cluster": 1}

>  <energy>  (13) 
-5.92

>  <cluster_rmsd>  (13) 
1.95

>  <cluster>  (13) 
1

$$$$

     RDKit          3D

 53 56  0  0  0  0  0  0  0  0999 V2000
  136.1640   71.7500  221.7330 O   0  0  0  0  0  0  0  0  0  0  0  0
  137.0920   72.1330  222.4910 C   0  0  0  0  0  0  0  0  0  0  0  0
  137.5380   73.4920  222.3370 N   0  0  0  0  0  0  0  0  0  0  0  0
  136.8990   74.2950  221.3450 C   0  0  0  0  0  0  0  0  0  0  0  0
  137.8270   74.7860  220.2990 C   0  0  0  0  0  0  0  0  0  0  0  0
  137.5200   74.6870  219.0670 O   0  0  0  0  0  0  0  0  0  0  0  0
  139.0540   75.3650  220.7300 N   0  0  0  0  0  0  0  0  0  0  0  0
  139.2780   76.6550  221.3710 C   0  0  0  0  0  0  0  0  0  0  0  0
  140.5390   76.3640  222.1820 C   0  0  2  0  0  0  0  0  0  0  0  0
  141.1280   77.5350  222.6310 O   0  0  0  0  0  0  0  0  0  0  0  0
  141.3580   75.6810  221.0840 C   0  0  0  0  0  0  0  0  0  0  0  0
  140.3530   74.6900  220.5760 C   0  0  1  0  0  0  0  0  0  0  0  0
  140.3280   73.4360  221.3520 C   0  0  0  0  0  0  0  0  0  0  0  0
  140.3940   73.3920  222.6170 O   0  0  0  0  0  0  0  0  0  0  0  0
  140.2260   72.1880  220.6800 N   0  0  0  0  0  0  0  0  0  0  0  0
  140.1930   70.9000  221.3550 C   0  0  0  0  0  0  0  0  0  0  0  0
  139.4680   69.9630  220.3920 C   0  0  0  0  0  0  0  0  0  0  0  0
  139.0070   70.8630  219.2580 C   0  0  0  0  0  0  0  0  0  0  0  0
  140.1340   71.9050  219.2610 C   0  0  0  0  0  0  0  0  0  0  0  0
  137.7100   71.2560  223.4930 C   0  0  0  0  0  0  0  0  0  0  0  0
  137.0530   70.0810  223.7880 C   0  0  0  0  0  0  0  0  0  0  0  0
  137.5560   69.1850  224.7230 C   0  0  0  0  0  0  0  0  0  0  0  0
  138.7440   69.4910  225.3640 C   0  0  0  0  0  0  0  0  0  0  0  0
  139.2710   68.6150  226.3010 C   0  0  0  0  0  0  0  0  0  0  0  0
  140.4500   68.9800  226.8970 C   0  0  0  0  0  0  0  0  0  0  0  0
  141.1320   67.8840  228.0870 Cl  0  0  0  0  0  0  0  0  0  0  0  0
  141.1080   70.1580  226.6000 C   0  0  0  0  0  0  0  0  0  0  0  0
  140.5760   71.0310  225.6610 C   0  0  0  0  0  0  0  0  0  0  0  0
  139.3870   70.6870  225.0440 C   0  0  0  0  0  0  0  0  0  0  0  0
  138.8480   71.5310  224.1180 N   0  0  0  0  0  0  0  0  0  0  0  0
  138.3080   73.8460  222.9490 H   0  0  0  0  0  0  0  0  0  0  0  0
  136.1150   73.6938  220.8614 H   0  0  0  0  0  0  0  0  0  0  0  0
  136.4889   75.1783  221.8564 H   0  0  0  0  0  0  0  0  0  0  0  0
  139.4490   77.4498  220.6300 H   0  0  0  0  0  0  0  0  0  0  0  0
  138.4286   77.0173  221.9688 H   0  0  0  0  0  0  0  0  0  0  0  0
  140.4050   75.7769  223.1026 H   0  0  0  0  0  0  0  0  0  0  0  0
  142.0690   77.5150  222.3190 H   0  0  0  0  0  0  0  0  0  0  0  0
  141.6606   76.3915  220.3006 H   0  0  0  0  0  0  0  0  0  0  0  0
  142.3069   75.2407  221.4242 H   0  0  0  0  0  0  0  0  0  0  0  0
  140.5976   74.4033  219.5426 H   0  0  0  0  0  0  0  0  0  0  0  0
  141.2140   70.5396  221.5488 H   0  0  0  0  0  0  0  0  0  0  0  0
  139.6876   70.9593  222.3302 H   0  0  0  0  0  0  0  0  0  0  0  0
  140.1508   69.1858  220.0182 H   0  0  0  0  0  0  0  0  0  0  0  0
  138.6312   69.4354  220.8731 H   0  0  0  0  0  0  0  0  0  0  0  0
  138.9566   70.3205  218.3024 H   0  0  0  0  0  0  0  0  0  0  0  0
  137.9956   71.2777  219.3808 H   0  0  0  0  0  0  0  0  0  0  0  0
  141.0733   71.4889  218.8679 H   0  0  0  0  0  0  0  0  0  0  0  0
  139.9470   72.7853  218.6285 H   0  0  0  0  0  0  0  0  0  0  0  0
  136.1100   69.8476  223.2720 H   0  0  0  0  0  0  0  0  0  0  0  0
  137.0208   68.2510  224.9494 H   0  0  0  0  0  0  0  0  0  0  0  0
  138.7662   67.6710  226.5541 H   0  0  0  0  0  0  0  0  0  0  0  0
  142.0526   70.4039  227.1072 H   0  0  0  0  0  0  0  0  0  0  0  0
  141.0874   71.9730  225.4138 H   0  0  0  0  0  0  0  0  0  0  0  0
  1  2  2  0
  2  3  1  0
  3  4  1  0
  4  5  1  0
  5  6  2  0
  5  7  1  0
  7  8  1  0
  8  9  1  0
  9 10  1  0
  9 11  1  0
 11 12  1  0
 12 13  1  0
 13 14  2  0
 13 15  1  0
 15 16  1  0
 16 17  1  0
 17 18  1  0
 18 19  1  0
  2 20  1  0
 20 21  2  0
 21 22  1  0
 22 23  2  0
 23 24  1  0
 24 25  2  0
 25 26  1  0
 25 27  1  0
 27 28  2  0
 28 29  1  0
 29 30  2  0
 12  7  1  0
 19 15  1  0
 30 20  1  0
 29 23  1  0
  3 31  1  0
  4 32  1  0
  4 33  1  0
  8 34  1  0
  8 35  1  0
  9 36  1  1
 10 37  1  0
 11 38  1  0
 11 39  1  0
 12 40  1  6
 16 41  1  0
 16 42  1  0
 17 43  1  0
 17 44  1  0
 18 45  1  0
 18 46  1  0
 19 47  1  0
 19 48  1  0
 21 49  1  0
 22 50  1  0
 24 51  1  0
 27 52  1  0
 28 53  1  0
M  END
>  <smiles>  (14) 
O=C(NCC(=O)N1C[C@H](O)C[C@H]1C(=O)N1CCCC1)c1ccc2cc(Cl)ccc2n1

>  <score_type>  (14) 
oracle

>  <origin>  (14) 
autodockgpu

>  <m_score__min__energy>  (14) 
-8.0099999999999998

>  <m_primary>  (14) 
energy

>  <rmsd>  (14) 
4.834886832674622

>  <m_score__min__rmsd>  (14) 
4.834886832674622

>  <meeko>  (14) 
{"free_energy": -6.19, "intermolecular_energy": -7.98, "internal_energy": -3.43, "cluster_size": 10, "cluster_id": 7, "rank_in_cluster": 7}

>  <energy>  (14) 
-7.81

>  <cluster_rmsd>  (14) 
0.0

>  <cluster>  (14) 
2

$$$$

     RDKit          3D

 53 56  0  0  0  0  0  0  0  0999 V2000
  140.1860   74.0590  221.9860 O   0  0  0  0  0  0  0  0  0  0  0  0
  140.3880   72.8200  221.9020 C   0  0  0  0  0  0  0  0  0  0  0  0
  140.7180   72.3020  220.6010 N   0  0  0  0  0  0  0  0  0  0  0  0
  140.7900   73.2260  219.5150 C   0  0  0  0  0  0  0  0  0  0  0  0
  141.8790   72.9220  218.5560 C   0  0  0  0  0  0  0  0  0  0  0  0
  141.6070   72.5330  217.3750 O   0  0  0  0  0  0  0  0  0  0  0  0
  143.2180   73.0850  219.0110 N   0  0  0  0  0  0  0  0  0  0  0  0
  143.8020   74.2030  219.7430 C   0  0  0  0  0  0  0  0  0  0  0  0
  144.9180   73.4970  220.5110 C   0  0  2  0  0  0  0  0  0  0  0  0
  145.8180   74.4100  221.0370 O   0  0  0  0  0  0  0  0  0  0  0  0
  145.5120   72.6920  219.3540 C   0  0  0  0  0  0  0  0  0  0  0  0
  144.2660   72.0760  218.7880 C   0  0  1  0  0  0  0  0  0  0  0  0
  143.8720   70.8290  219.4680 C   0  0  0  0  0  0  0  0  0  0  0  0
  142.7890   70.6930  220.1130 O   0  0  0  0  0  0  0  0  0  0  0  0
  144.7260   69.6940  219.4210 N   0  0  0  0  0  0  0  0  0  0  0  0
  144.4270   68.4220  220.0590 C   0  0  0  0  0  0  0  0  0  0  0  0
  145.2160   67.3820  219.2670 C   0  0  0  0  0  0  0  0  0  0  0  0
  145.8190   68.1620  218.1100 C   0  0  0  0  0  0  0  0  0  0  0  0
  146.0140   69.5310  218.7750 C   0  0  0  0  0  0  0  0  0  0  0  0
  140.2970   71.9220  223.0590 C   0  0  0  0  0  0  0  0  0  0  0  0
  139.7450   70.6780  222.8450 C   0  0  0  0  0  0  0  0  0  0  0  0
  139.6150   69.7560  223.8770 C   0  0  0  0  0  0  0  0  0  0  0  0
  140.0530   70.1080  225.1420 C   0  0  0  0  0  0  0  0  0  0  0  0
  139.9360   69.2090  226.1900 C   0  0  0  0  0  0  0  0  0  0  0  0
  140.3900   69.6230  227.4150 C   0  0  0  0  0  0  0  0  0  0  0  0
  140.2490   68.4980  228.7570 Cl  0  0  0  0  0  0  0  0  0  0  0  0
  140.9430   70.8700  227.6290 C   0  0  0  0  0  0  0  0  0  0  0  0
  141.0580   71.7670  226.5750 C   0  0  0  0  0  0  0  0  0  0  0  0
  140.6080   71.3740  225.3280 C   0  0  0  0  0  0  0  0  0  0  0  0
  140.7110   72.2400  224.2790 N   0  0  0  0  0  0  0  0  0  0  0  0
  140.8920   71.2770  220.4920 H   0  0  0  0  0  0  0  0  0  0  0  0
  139.8325   73.2039  218.9740 H   0  0  0  0  0  0  0  0  0  0  0  0
  141.0016   74.2165  219.9442 H   0  0  0  0  0  0  0  0  0  0  0  0
  144.2021   74.9676  219.0609 H   0  0  0  0  0  0  0  0  0  0  0  0
  143.0902   74.7505  220.3783 H   0  0  0  0  0  0  0  0  0  0  0  0
  144.6122   72.9052  221.3863 H   0  0  0  0  0  0  0  0  0  0  0  0
  145.7460   75.2290  220.4840 H   0  0  0  0  0  0  0  0  0  0  0  0
  146.0137   73.3416  218.6216 H   0  0  0  0  0  0  0  0  0  0  0  0
  146.2899   71.9713  219.6463 H   0  0  0  0  0  0  0  0  0  0  0  0
  144.4250   71.8095  217.7327 H   0  0  0  0  0  0  0  0  0  0  0  0
  144.7498   68.4325  221.1105 H   0  0  0  0  0  0  0  0  0  0  0  0
  143.3484   68.2062  220.0606 H   0  0  0  0  0  0  0  0  0  0  0  0
  146.0061   66.9366  219.8894 H   0  0  0  0  0  0  0  0  0  0  0  0
  144.5844   66.5486  218.9256 H   0  0  0  0  0  0  0  0  0  0  0  0
  146.7754   67.7290  217.7817 H   0  0  0  0  0  0  0  0  0  0  0  0
  145.2071   68.1769  217.1960 H   0  0  0  0  0  0  0  0  0  0  0  0
  146.8361   69.5146  219.5057 H   0  0  0  0  0  0  0  0  0  0  0  0
  146.2876   70.3424  218.0845 H   0  0  0  0  0  0  0  0  0  0  0  0
  139.3998   70.4087  221.8359 H   0  0  0  0  0  0  0  0  0  0  0  0
  139.1727   68.7660  223.6920 H   0  0  0  0  0  0  0  0  0  0  0  0
  139.4992   68.2099  226.0454 H   0  0  0  0  0  0  0  0  0  0  0  0
  141.2920   71.1526  228.6331 H   0  0  0  0  0  0  0  0  0  0  0  0
  141.4958   72.7644  226.7282 H   0  0  0  0  0  0  0  0  0  0  0  0
  1  2  2  0
  2  3  1  0
  3  4  1  0
  4  5  1  0
  5  6  2  0
  5  7  1  0
  7  8  1  0
  8  9  1  0
  9 10  1  0
  9 11  1  0
 11 12  1  0
 12 13  1  0
 13 14  2  0
 13 15  1  0
 15 16  1  0
 16 17  1  0
 17 18  1  0
 18 19  1  0
  2 20  1  0
 20 21  2  0
 21 22  1  0
 22 23  2  0
 23 24  1  0
 24 25  2  0
 25 26  1  0
 25 27  1  0
 27 28  2  0
 28 29  1  0
 29 30  2  0
 12  7  1  0
 19 15  1  0
 30 20  1  0
 29 23  1  0
  3 31  1  0
  4 32  1  0
  4 33  1  0
  8 34  1  0
  8 35  1  0
  9 36  1  1
 10 37  1  0
 11 38  1  0
 11 39  1  0
 12 40  1  6
 16 41  1  0
 16 42  1  0
 17 43  1  0
 17 44  1  0
 18 45  1  0
 18 46  1  0
 19 47  1  0
 19 48  1  0
 21 49  1  0
 22 50  1  0
 24 51  1  0
 27 52  1  0
 28 53  1  0
M  END
>  <smiles>  (15) 
O=C(NCC(=O)N1C[C@H](O)C[C@H]1C(=O)N1CCCC1)c1ccc2cc(Cl)ccc2n1

>  <score_type>  (15) 
oracle

>  <origin>  (15) 
autodockgpu

>  <m_score__min__energy>  (15) 
-8.0099999999999998

>  <m_primary>  (15) 
energy

>  <rmsd>  (15) 
6.72057028942133

>  <m_score__min__rmsd>  (15) 
6.72057028942133

>  <meeko>  (15) 
{"free_energy": -7.52, "intermolecular_energy": -9.31, "internal_energy": -2.14, "cluster_size": 1, "cluster_id": 6, "rank_in_cluster": 1}

>  <energy>  (15) 
-7.27

>  <cluster_rmsd>  (15) 
0.77

>  <cluster>  (15) 
2

$$$$

     RDKit          3D

 53 56  0  0  0  0  0  0  0  0999 V2000
  139.9810   72.9070  219.9420 O   0  0  0  0  0  0  0  0  0  0  0  0
  140.4030   73.1540  221.1010 C   0  0  0  0  0  0  0  0  0  0  0  0
  141.0990   74.3990  221.2880 N   0  0  0  0  0  0  0  0  0  0  0  0
  141.2560   75.2520  220.1540 C   0  0  0  0  0  0  0  0  0  0  0  0
  140.0120   75.9650  219.7780 C   0  0  0  0  0  0  0  0  0  0  0  0
  139.8300   76.3520  218.5780 O   0  0  0  0  0  0  0  0  0  0  0  0
  139.0500   76.1900  220.8020 N   0  0  0  0  0  0  0  0  0  0  0  0
  137.9700   75.3180  221.2460 C   0  0  0  0  0  0  0  0  0  0  0  0
  137.8270   75.7480  222.7040 C   0  0  2  0  0  0  0  0  0  0  0  0
  136.6430   75.2790  223.2520 O   0  0  0  0  0  0  0  0  0  0  0  0
  137.8110   77.2630  222.4900 C   0  0  0  0  0  0  0  0  0  0  0  0
  139.0140   77.4220  221.6070 C   0  0  1  0  0  0  0  0  0  0  0  0
  140.2780   77.5310  222.3590 C   0  0  0  0  0  0  0  0  0  0  0  0
  140.9760   76.5320  222.7070 O   0  0  0  0  0  0  0  0  0  0  0  0
  140.7730   78.8100  222.7340 N   0  0  0  0  0  0  0  0  0  0  0  0
  142.0070   79.0200  223.4740 C   0  0  0  0  0  0  0  0  0  0  0  0
  142.4570   80.4320  223.1080 C   0  0  0  0  0  0  0  0  0  0  0  0
  141.4740   80.8800  222.0380 C   0  0  0  0  0  0  0  0  0  0  0  0
  140.2160   80.1260  222.4890 C   0  0  0  0  0  0  0  0  0  0  0  0
  140.2100   72.2330  222.2280 C   0  0  0  0  0  0  0  0  0  0  0  0
  139.4620   71.1000  221.9900 C   0  0  0  0  0  0  0  0  0  0  0  0
  139.2230   70.1670  222.9910 C   0  0  0  0  0  0  0  0  0  0  0  0
  139.7520   70.3930  224.2500 C   0  0  0  0  0  0  0  0  0  0  0  0
  139.5290   69.4800  225.2690 C   0  0  0  0  0  0  0  0  0  0  0  0
  140.0830   69.7650  226.4900 C   0  0  0  0  0  0  0  0  0  0  0  0
  139.8120   68.6200  227.7930 Cl  0  0  0  0  0  0  0  0  0  0  0  0
  140.8330   70.9010  226.7270 C   0  0  0  0  0  0  0  0  0  0  0  0
  141.0530   71.8120  225.7030 C   0  0  0  0  0  0  0  0  0  0  0  0
  140.5050   71.5480  224.4610 C   0  0  0  0  0  0  0  0  0  0  0  0
  140.7090   72.4310  223.4410 N   0  0  0  0  0  0  0  0  0  0  0  0
  141.4650   74.6380  222.2380 H   0  0  0  0  0  0  0  0  0  0  0  0
  142.0303   75.9988  220.3838 H   0  0  0  0  0  0  0  0  0  0  0  0
  141.5346   74.6133  219.3029 H   0  0  0  0  0  0  0  0  0  0  0  0
  137.0452   75.4999  220.6789 H   0  0  0  0  0  0  0  0  0  0  0  0
  138.1685   74.2449  221.1077 H   0  0  0  0  0  0  0  0  0  0  0  0
  138.5945   75.3794  223.4005 H   0  0  0  0  0  0  0  0  0  0  0  0
  136.8680   74.4420  223.7340 H   0  0  0  0  0  0  0  0  0  0  0  0
  136.8903   77.5932  221.9867 H   0  0  0  0  0  0  0  0  0  0  0  0
  137.8365   77.8588  223.4143 H   0  0  0  0  0  0  0  0  0  0  0  0
  138.9289   78.3480  221.0193 H   0  0  0  0  0  0  0  0  0  0  0  0
  141.8262   78.9410  224.5562 H   0  0  0  0  0  0  0  0  0  0  0  0
  142.7695   78.2675  223.2244 H   0  0  0  0  0  0  0  0  0  0  0  0
  142.4069   81.0953  223.9841 H   0  0  0  0  0  0  0  0  0  0  0  0
  143.4991   80.4609  222.7569 H   0  0  0  0  0  0  0  0  0  0  0  0
  141.3233   81.9695  222.0542 H   0  0  0  0  0  0  0  0  0  0  0  0
  141.7906   80.6715  221.0054 H   0  0  0  0  0  0  0  0  0  0  0  0
  139.7864   80.5622  223.4029 H   0  0  0  0  0  0  0  0  0  0  0  0
  139.3853   80.1462  221.7682 H   0  0  0  0  0  0  0  0  0  0  0  0
  139.0455   70.9310  220.9860 H   0  0  0  0  0  0  0  0  0  0  0  0
  138.6252   69.2664  222.7872 H   0  0  0  0  0  0  0  0  0  0  0  0
  138.9349   68.5688  225.1053 H   0  0  0  0  0  0  0  0  0  0  0  0
  141.2553   71.0833  227.7262 H   0  0  0  0  0  0  0  0  0  0  0  0
  141.6482   72.7209  225.8751 H   0  0  0  0  0  0  0  0  0  0  0  0
  1  2  2  0
  2  3  1  0
  3  4  1  0
  4  5  1  0
  5  6  2  0
  5  7  1  0
  7  8  1  0
  8  9  1  0
  9 10  1  0
  9 11  1  0
 11 12  1  0
 12 13  1  0
 13 14  2  0
 13 15  1  0
 15 16  1  0
 16 17  1  0
 17 18  1  0
 18 19  1  0
  2 20  1  0
 20 21  2  0
 21 22  1  0
 22 23  2  0
 23 24  1  0
 24 25  2  0
 25 26  1  0
 25 27  1  0
 27 28  2  0
 28 29  1  0
 29 30  2  0
 12  7  1  0
 19 15  1  0
 30 20  1  0
 29 23  1  0
  3 31  1  0
  4 32  1  0
  4 33  1  0
  8 34  1  0
  8 35  1  0
  9 36  1  1
 10 37  1  0
 11 38  1  0
 11 39  1  0
 12 40  1  6
 16 41  1  0
 16 42  1  0
 17 43  1  0
 17 44  1  0
 18 45  1  0
 18 46  1  0
 19 47  1  0
 19 48  1  0
 21 49  1  0
 22 50  1  0
 24 51  1  0
 27 52  1  0
 28 53  1  0
M  END
>  <smiles>  (16) 
O=C(NCC(=O)N1C[C@H](O)C[C@H]1C(=O)N1CCCC1)c1ccc2cc(Cl)ccc2n1

>  <score_type>  (16) 
oracle

>  <origin>  (16) 
autodockgpu

>  <m_score__min__energy>  (16) 
-8.0099999999999998

>  <m_primary>  (16) 
energy

>  <rmsd>  (16) 
3.1537718465059625

>  <m_score__min__rmsd>  (16) 
3.1537718465059625

>  <meeko>  (16) 
{"free_energy": -7.12, "intermolecular_energy": -8.91, "internal_energy": -2.5, "cluster_size": 14, "cluster_id": 2, "rank_in_cluster": 7}

>  <energy>  (16) 
-7.23

>  <cluster_rmsd>  (16) 
0.78

>  <cluster>  (16) 
2

$$$$

     RDKit          3D

 53 56  0  0  0  0  0  0  0  0999 V2000
  136.3990   71.2890  221.8620 O   0  0  0  0  0  0  0  0  0  0  0  0
  137.3020   71.7690  222.5950 C   0  0  0  0  0  0  0  0  0  0  0  0
  137.6970   73.1270  222.3340 N   0  0  0  0  0  0  0  0  0  0  0  0
  137.0400   73.8200  221.2720 C   0  0  0  0  0  0  0  0  0  0  0  0
  137.9710   74.3280  220.2370 C   0  0  0  0  0  0  0  0  0  0  0  0
  137.6990   74.1870  219.0010 O   0  0  0  0  0  0  0  0  0  0  0  0
  139.1610   74.9710  220.6830 N   0  0  0  0  0  0  0  0  0  0  0  0
  139.3160   76.3000  221.2610 C   0  0  0  0  0  0  0  0  0  0  0  0
  140.5530   76.0960  222.1340 C   0  0  2  0  0  0  0  0  0  0  0  0
  141.0840   77.3100  222.5410 O   0  0  0  0  0  0  0  0  0  0  0  0
  141.4370   75.3860  221.1070 C   0  0  0  0  0  0  0  0  0  0  0  0
  140.4860   74.3340  220.6150 C   0  0  1  0  0  0  0  0  0  0  0  0
  140.4710   73.1230  221.4560 C   0  0  0  0  0  0  0  0  0  0  0  0
  140.5670   73.1450  222.7200 O   0  0  0  0  0  0  0  0  0  0  0  0
  140.3430   71.8420  220.8540 N   0  0  0  0  0  0  0  0  0  0  0  0
  140.3180   70.5920  221.5960 C   0  0  0  0  0  0  0  0  0  0  0  0
  139.5630   69.6120  220.7020 C   0  0  0  0  0  0  0  0  0  0  0  0
  139.0810   70.4560  219.5330 C   0  0  0  0  0  0  0  0  0  0  0  0
  140.2140   71.4870  219.4540 C   0  0  0  0  0  0  0  0  0  0  0  0
  137.9400   71.0020  223.6710 C   0  0  0  0  0  0  0  0  0  0  0  0
  137.4600   69.7320  223.9050 C   0  0  0  0  0  0  0  0  0  0  0  0
  137.9980   68.9270  224.9020 C   0  0  0  0  0  0  0  0  0  0  0  0
  139.0370   69.4240  225.6700 C   0  0  0  0  0  0  0  0  0  0  0  0
  139.5920   68.6440  226.6720 C   0  0  0  0  0  0  0  0  0  0  0  0
  140.6180   69.1990  227.3930 C   0  0  0  0  0  0  0  0  0  0  0  0
  141.3340   68.2250  228.6670 Cl  0  0  0  0  0  0  0  0  0  0  0  0
  141.0980   70.4720  227.1580 C   0  0  0  0  0  0  0  0  0  0  0  0
  140.5370   71.2490  226.1530 C   0  0  0  0  0  0  0  0  0  0  0  0
  139.5010   70.7130  225.4100 C   0  0  0  0  0  0  0  0  0  0  0  0
  138.9370   71.4600  224.4180 N   0  0  0  0  0  0  0  0  0  0  0  0
  138.4450   73.5600  222.9220 H   0  0  0  0  0  0  0  0  0  0  0  0
  136.3286   73.1309  220.7933 H   0  0  0  0  0  0  0  0  0  0  0  0
  136.5385   74.6931  221.7149 H   0  0  0  0  0  0  0  0  0  0  0  0
  139.4900   77.0601  220.4852 H   0  0  0  0  0  0  0  0  0  0  0  0
  138.4319   76.6636  221.8053 H   0  0  0  0  0  0  0  0  0  0  0  0
  140.4025   75.5532  223.0789 H   0  0  0  0  0  0  0  0  0  0  0  0
  142.0550   77.2720  222.3440 H   0  0  0  0  0  0  0  0  0  0  0  0
  141.7468   76.0645  220.2985 H   0  0  0  0  0  0  0  0  0  0  0  0
  142.3857   74.9981  221.5064 H   0  0  0  0  0  0  0  0  0  0  0  0
  140.7810   74.0012  219.6089 H   0  0  0  0  0  0  0  0  0  0  0  0
  141.3411   70.2339  221.7833 H   0  0  0  0  0  0  0  0  0  0  0  0
  139.8375   70.7065  222.5788 H   0  0  0  0  0  0  0  0  0  0  0  0
  140.2306   68.8103  220.3534 H   0  0  0  0  0  0  0  0  0  0  0  0
  138.7345   69.1174  221.2301 H   0  0  0  0  0  0  0  0  0  0  0  0
  139.0036   69.8647  218.6087 H   0  0  0  0  0  0  0  0  0  0  0  0
  138.0759   70.8850  219.6583 H   0  0  0  0  0  0  0  0  0  0  0  0
  141.1404   71.0436  219.0600 H   0  0  0  0  0  0  0  0  0  0  0  0
  140.0175   72.3349  218.7813 H   0  0  0  0  0  0  0  0  0  0  0  0
  136.6335   69.3470  223.2897 H   0  0  0  0  0  0  0  0  0  0  0  0
  137.6058   67.9144  225.0775 H   0  0  0  0  0  0  0  0  0  0  0  0
  139.2267   67.6274  226.8793 H   0  0  0  0  0  0  0  0  0  0  0  0
  141.9237   70.8702  227.7660 H   0  0  0  0  0  0  0  0  0  0  0  0
  140.9073   72.2653  225.9529 H   0  0  0  0  0  0  0  0  0  0  0  0
  1  2  2  0
  2  3  1  0
  3  4  1  0
  4  5  1  0
  5  6  2  0
  5  7  1  0
  7  8  1  0
  8  9  1  0
  9 10  1  0
  9 11  1  0
 11 12  1  0
 12 13  1  0
 13 14  2  0
 13 15  1  0
 15 16  1  0
 16 17  1  0
 17 18  1  0
 18 19  1  0
  2 20  1  0
 20 21  2  0
 21 22  1  0
 22 23  2  0
 23 24  1  0
 24 25  2  0
 25 26  1  0
 25 27  1  0
 27 28  2  0
 28 29  1  0
 29 30  2  0
 12  7  1  0
 19 15  1  0
 30 20  1  0
 29 23  1  0
  3 31  1  0
  4 32  1  0
  4 33  1  0
  8 34  1  0
  8 35  1  0
  9 36  1  1
 10 37  1  0
 11 38  1  0
 11 39  1  0
 12 40  1  6
 16 41  1  0
 16 42  1  0
 17 43  1  0
 17 44  1  0
 18 45  1  0
 18 46  1  0
 19 47  1  0
 19 48  1  0
 21 49  1  0
 22 50  1  0
 24 51  1  0
 27 52  1  0
 28 53  1  0
M  END
>  <smiles>  (17) 
O=C(NCC(=O)N1C[C@H](O)C[C@H]1C(=O)N1CCCC1)c1ccc2cc(Cl)ccc2n1

>  <score_type>  (17) 
oracle

>  <origin>  (17) 
autodockgpu

>  <m_score__min__energy>  (17) 
-8.0099999999999998

>  <m_primary>  (17) 
energy

>  <rmsd>  (17) 
4.917198748701285

>  <m_score__min__rmsd>  (17) 
4.917198748701285

>  <meeko>  (17) 
{"free_energy": -6.51, "intermolecular_energy": -8.3, "internal_energy": -3.44, "cluster_size": 10, "cluster_id": 7, "rank_in_cluster": 1}

>  <energy>  (17) 
-7.21

>  <cluster_rmsd>  (17) 
0.87

>  <cluster>  (17) 
2

$$$$

     RDKit          3D

 53 56  0  0  0  0  0  0  0  0999 V2000
  139.8010   72.3620  219.9920 O   0  0  0  0  0  0  0  0  0  0  0  0
  140.2300   72.7510  221.1090 C   0  0  0  0  0  0  0  0  0  0  0  0
  140.9650   73.9880  221.1280 N   0  0  0  0  0  0  0  0  0  0  0  0
  141.1490   74.6730  219.8890 C   0  0  0  0  0  0  0  0  0  0  0  0
  140.1670   75.7600  219.6670 C   0  0  0  0  0  0  0  0  0  0  0  0
  140.2710   76.5240  218.6530 O   0  0  0  0  0  0  0  0  0  0  0  0
  139.1220   75.9060  220.6220 N   0  0  0  0  0  0  0  0  0  0  0  0
  138.0290   74.9900  220.9230 C   0  0  0  0  0  0  0  0  0  0  0  0
  137.7610   75.3250  222.3890 C   0  0  2  0  0  0  0  0  0  0  0  0
  136.5480   74.8040  222.8090 O   0  0  0  0  0  0  0  0  0  0  0  0
  137.7320   76.8500  222.2680 C   0  0  0  0  0  0  0  0  0  0  0  0
  138.9980   77.0830  221.4960 C   0  0  1  0  0  0  0  0  0  0  0  0
  140.1960   77.1640  222.3530 C   0  0  0  0  0  0  0  0  0  0  0  0
  140.9120   76.1620  222.6540 O   0  0  0  0  0  0  0  0  0  0  0  0
  140.6010   78.4160  222.8900 N   0  0  0  0  0  0  0  0  0  0  0  0
  141.7650   78.5970  223.7430 C   0  0  0  0  0  0  0  0  0  0  0  0
  142.1750   80.0560  223.5540 C   0  0  0  0  0  0  0  0  0  0  0  0
  141.2550   80.5720  222.4600 C   0  0  0  0  0  0  0  0  0  0  0  0
  140.0030   79.7270  222.7330 C   0  0  0  0  0  0  0  0  0  0  0  0
  140.0080   71.9980  222.3490 C   0  0  0  0  0  0  0  0  0  0  0  0
  139.1070   70.9570  222.2970 C   0  0  0  0  0  0  0  0  0  0  0  0
  138.8280   70.1840  223.4180 C   0  0  0  0  0  0  0  0  0  0  0  0
  139.4750   70.4780  224.6060 C   0  0  0  0  0  0  0  0  0  0  0  0
  139.2170   69.7250  225.7400 C   0  0  0  0  0  0  0  0  0  0  0  0
  139.8930   70.0700  226.8810 C   0  0  0  0  0  0  0  0  0  0  0  0
  139.5780   69.1270  228.3290 Cl  0  0  0  0  0  0  0  0  0  0  0  0
  140.7960   71.1140  226.9320 C   0  0  0  0  0  0  0  0  0  0  0  0
  141.0510   71.8660  225.7930 C   0  0  0  0  0  0  0  0  0  0  0  0
  140.3820   71.5380  224.6280 C   0  0  0  0  0  0  0  0  0  0  0  0
  140.6190   72.2640  223.4970 N   0  0  0  0  0  0  0  0  0  0  0  0
  141.3390   74.3420  222.0380 H   0  0  0  0  0  0  0  0  0  0  0  0
  142.1593   75.1079  219.8776 H   0  0  0  0  0  0  0  0  0  0  0  0
  141.0050   73.9357  219.0854 H   0  0  0  0  0  0  0  0  0  0  0  0
  137.1486   75.1920  220.2953 H   0  0  0  0  0  0  0  0  0  0  0  0
  138.2610   73.9312  220.7356 H   0  0  0  0  0  0  0  0  0  0  0  0
  138.4773   74.9252  223.1218 H   0  0  0  0  0  0  0  0  0  0  0  0
  136.7580   74.1160  223.4920 H   0  0  0  0  0  0  0  0  0  0  0  0
  136.8477   77.1973  221.7136 H   0  0  0  0  0  0  0  0  0  0  0  0
  137.6723   77.3865  223.2265 H   0  0  0  0  0  0  0  0  0  0  0  0
  138.9416   78.0428  220.9617 H   0  0  0  0  0  0  0  0  0  0  0  0
  141.5072   78.4016  224.7944 H   0  0  0  0  0  0  0  0  0  0  0  0
  142.5783   77.9037  223.4824 H   0  0  0  0  0  0  0  0  0  0  0  0
  142.0293   80.6243  224.4845 H   0  0  0  0  0  0  0  0  0  0  0  0
  143.2378   80.1607  223.2902 H   0  0  0  0  0  0  0  0  0  0  0  0
  141.0526   81.6474  222.5722 H   0  0  0  0  0  0  0  0  0  0  0  0
  141.6573   80.4827  221.4401 H   0  0  0  0  0  0  0  0  0  0  0  0
  139.4861   80.0503  223.6486 H   0  0  0  0  0  0  0  0  0  0  0  0
  139.2287   79.7883  221.9541 H   0  0  0  0  0  0  0  0  0  0  0  0
  138.5976   70.7328  221.3482 H   0  0  0  0  0  0  0  0  0  0  0  0
  138.1072   69.3549  223.3622 H   0  0  0  0  0  0  0  0  0  0  0  0
  138.5025   68.8888  225.7251 H   0  0  0  0  0  0  0  0  0  0  0  0
  141.3126   71.3494  227.8742 H   0  0  0  0  0  0  0  0  0  0  0  0
  141.7666   72.7010  225.8167 H   0  0  0  0  0  0  0  0  0  0  0  0
  1  2  2  0
  2  3  1  0
  3  4  1  0
  4  5  1  0
  5  6  2  0
  5  7  1  0
  7  8  1  0
  8  9  1  0
  9 10  1  0
  9 11  1  0
 11 12  1  0
 12 13  1  0
 13 14  2  0
 13 15  1  0
 15 16  1  0
 16 17  1  0
 17 18  1  0
 18 19  1  0
  2 20  1  0
 20 21  2  0
 21 22  1  0
 22 23  2  0
 23 24  1  0
 24 25  2  0
 25 26  1  0
 25 27  1  0
 27 28  2  0
 28 29  1  0
 29 30  2  0
 12  7  1  0
 19 15  1  0
 30 20  1  0
 29 23  1  0
  3 31  1  0
  4 32  1  0
  4 33  1  0
  8 34  1  0
  8 35  1  0
  9 36  1  1
 10 37  1  0
 11 38  1  0
 11 39  1  0
 12 40  1  6
 16 41  1  0
 16 42  1  0
 17 43  1  0
 17 44  1  0
 18 45  1  0
 18 46  1  0
 19 47  1  0
 19 48  1  0
 21 49  1  0
 22 50  1  0
 24 51  1  0
 27 52  1  0
 28 53  1  0
M  END
>  <smiles>  (18) 
O=C(NCC(=O)N1C[C@H](O)C[C@H]1C(=O)N1CCCC1)c1ccc2cc(Cl)ccc2n1

>  <score_type>  (18) 
oracle

>  <origin>  (18) 
autodockgpu

>  <m_score__min__energy>  (18) 
-8.0099999999999998

>  <m_primary>  (18) 
energy

>  <rmsd>  (18) 
3.062563855105071

>  <m_score__min__rmsd>  (18) 
3.062563855105071

>  <meeko>  (18) 
{"free_energy": -7.11, "intermolecular_energy": -8.9, "internal_energy": -2.63, "cluster_size": 14, "cluster_id": 2, "rank_in_cluster": 8}

>  <energy>  (18) 
-7.21

>  <cluster_rmsd>  (18) 
0.86

>  <cluster>  (18) 
2

$$$$

     RDKit          3D

 53 56  0  0  0  0  0  0  0  0999 V2000
  136.5260   71.1430  221.5400 O   0  0  0  0  0  0  0  0  0  0  0  0
  137.3070   71.7100  222.3460 C   0  0  0  0  0  0  0  0  0  0  0  0
  137.5660   73.1080  222.1250 N   0  0  0  0  0  0  0  0  0  0  0  0
  136.9210   73.7390  221.0190 C   0  0  0  0  0  0  0  0  0  0  0  0
  137.8640   74.4160  220.0970 C   0  0  0  0  0  0  0  0  0  0  0  0
  137.7070   74.3280  218.8360 O   0  0  0  0  0  0  0  0  0  0  0  0
  138.9320   75.1570  220.6790 N   0  0  0  0  0  0  0  0  0  0  0  0
  138.8860   76.4540  221.3410 C   0  0  0  0  0  0  0  0  0  0  0  0
  140.0650   76.3330  222.3040 C   0  0  2  0  0  0  0  0  0  0  0  0
  140.4180   77.5680  222.8230 O   0  0  0  0  0  0  0  0  0  0  0  0
  141.1040   75.7930  221.3200 C   0  0  0  0  0  0  0  0  0  0  0  0
  140.3230   74.6770  220.6900 C   0  0  1  0  0  0  0  0  0  0  0  0
  140.3820   73.4190  221.4580 C   0  0  0  0  0  0  0  0  0  0  0  0
  140.3650   73.3680  222.7240 O   0  0  0  0  0  0  0  0  0  0  0  0
  140.4640   72.1740  220.7760 N   0  0  0  0  0  0  0  0  0  0  0  0
  140.5270   70.8830  221.4430 C   0  0  0  0  0  0  0  0  0  0  0  0
  139.9770   69.8830  220.4290 C   0  0  0  0  0  0  0  0  0  0  0  0
  139.4990   70.7410  219.2680 C   0  0  0  0  0  0  0  0  0  0  0  0
  140.5010   71.8990  219.3530 C   0  0  0  0  0  0  0  0  0  0  0  0
  137.9400   71.0040  223.4660 C   0  0  0  0  0  0  0  0  0  0  0  0
  137.4700   69.7410  223.7570 C   0  0  0  0  0  0  0  0  0  0  0  0
  138.0040   68.9920  224.7980 C   0  0  0  0  0  0  0  0  0  0  0  0
  139.0290   69.5370  225.5510 C   0  0  0  0  0  0  0  0  0  0  0  0
  139.5810   68.8120  226.5970 C   0  0  0  0  0  0  0  0  0  0  0  0
  140.5930   69.4120  227.3000 C   0  0  0  0  0  0  0  0  0  0  0  0
  141.3040   68.5100  228.6290 Cl  0  0  0  0  0  0  0  0  0  0  0  0
  141.0640   70.6770  227.0080 C   0  0  0  0  0  0  0  0  0  0  0  0
  140.5070   71.3990  225.9600 C   0  0  0  0  0  0  0  0  0  0  0  0
  139.4850   70.8160  225.2330 C   0  0  0  0  0  0  0  0  0  0  0  0
  138.9240   71.5080  224.1990 N   0  0  0  0  0  0  0  0  0  0  0  0
  138.2110   73.6130  222.7750 H   0  0  0  0  0  0  0  0  0  0  0  0
  136.3694   72.9734  220.4537 H   0  0  0  0  0  0  0  0  0  0  0  0
  136.2551   74.5126  221.4289 H   0  0  0  0  0  0  0  0  0  0  0  0
  139.0313   77.2775  220.6263 H   0  0  0  0  0  0  0  0  0  0  0  0
  137.9256   76.6807  221.8270 H   0  0  0  0  0  0  0  0  0  0  0  0
  139.9034   75.7170  223.2009 H   0  0  0  0  0  0  0  0  0  0  0  0
  139.5810   77.9860  223.1520 H   0  0  0  0  0  0  0  0  0  0  0  0
  141.3972   76.5525  220.5803 H   0  0  0  0  0  0  0  0  0  0  0  0
  142.0561   75.4870  221.7780 H   0  0  0  0  0  0  0  0  0  0  0  0
  140.7331   74.4458  219.6958 H   0  0  0  0  0  0  0  0  0  0  0  0
  141.5659   70.6345  221.7057 H   0  0  0  0  0  0  0  0  0  0  0  0
  139.9529   70.8759  222.3813 H   0  0  0  0  0  0  0  0  0  0  0  0
  140.7648   69.1890  220.1009 H   0  0  0  0  0  0  0  0  0  0  0  0
  139.1722   69.2617  220.8488 H   0  0  0  0  0  0  0  0  0  0  0  0
  139.5743   70.2071  218.3092 H   0  0  0  0  0  0  0  0  0  0  0  0
  138.4422   71.0414  219.3218 H   0  0  0  0  0  0  0  0  0  0  0  0
  141.5050   71.5926  219.0242 H   0  0  0  0  0  0  0  0  0  0  0  0
  140.2622   72.7608  218.7125 H   0  0  0  0  0  0  0  0  0  0  0  0
  136.6548   69.3174  223.1520 H   0  0  0  0  0  0  0  0  0  0  0  0
  137.6195   67.9854  225.0194 H   0  0  0  0  0  0  0  0  0  0  0  0
  139.2233   67.8031  226.8503 H   0  0  0  0  0  0  0  0  0  0  0  0
  141.8792   71.1123  227.6046 H   0  0  0  0  0  0  0  0  0  0  0  0
  140.8694   72.4082  225.7147 H   0  0  0  0  0  0  0  0  0  0  0  0
  1  2  2  0
  2  3  1  0
  3  4  1  0
  4  5  1  0
  5  6  2  0
  5  7  1  0
  7  8  1  0
  8  9  1  0
  9 10  1  0
  9 11  1  0
 11 12  1  0
 12 13  1  0
 13 14  2  0
 13 15  1  0
 15 16  1  0
 16 17  1  0
 17 18  1  0
 18 19  1  0
  2 20  1  0
 20 21  2  0
 21 22  1  0
 22 23  2  0
 23 24  1  0
 24 25  2  0
 25 26  1  0
 25 27  1  0
 27 28  2  0
 28 29  1  0
 29 30  2  0
 12  7  1  0
 19 15  1  0
 30 20  1  0
 29 23  1  0
  3 31  1  0
  4 32  1  0
  4 33  1  0
  8 34  1  0
  8 35  1  0
  9 36  1  1
 10 37  1  0
 11 38  1  0
 11 39  1  0
 12 40  1  6
 16 41  1  0
 16 42  1  0
 17 43  1  0
 17 44  1  0
 18 45  1  0
 18 46  1  0
 19 47  1  0
 19 48  1  0
 21 49  1  0
 22 50  1  0
 24 51  1  0
 27 52  1  0
 28 53  1  0
M  END
>  <smiles>  (19) 
O=C(NCC(=O)N1C[C@H](O)C[C@H]1C(=O)N1CCCC1)c1ccc2cc(Cl)ccc2n1

>  <score_type>  (19) 
oracle

>  <origin>  (19) 
autodockgpu

>  <m_score__min__energy>  (19) 
-8.0099999999999998

>  <m_primary>  (19) 
energy

>  <rmsd>  (19) 
4.77863875375027

>  <m_score__min__rmsd>  (19) 
4.77863875375027

>  <meeko>  (19) 
{"free_energy": -5.89, "intermolecular_energy": -7.68, "internal_energy": -3.41, "cluster_size": 10, "cluster_id": 7, "rank_in_cluster": 9}

>  <energy>  (19) 
-7.14

>  <cluster_rmsd>  (19) 
0.91

>  <cluster>  (19) 
2

$$$$

     RDKit          3D

 53 56  0  0  0  0  0  0  0  0999 V2000
  135.1000   68.4110  225.2190 O   0  0  0  0  0  0  0  0  0  0  0  0
  135.3390   69.5940  224.8630 C   0  0  0  0  0  0  0  0  0  0  0  0
  136.3360   69.7760  223.8410 N   0  0  0  0  0  0  0  0  0  0  0  0
  136.9710   68.6110  223.3150 C   0  0  0  0  0  0  0  0  0  0  0  0
  138.4450   68.6260  223.4650 C   0  0  0  0  0  0  0  0  0  0  0  0
  139.1980   68.5150  222.4440 O   0  0  0  0  0  0  0  0  0  0  0  0
  138.9690   68.7700  224.7810 N   0  0  0  0  0  0  0  0  0  0  0  0
  139.3560   67.7290  225.7260 C   0  0  0  0  0  0  0  0  0  0  0  0
  140.4330   68.4530  226.5320 C   0  0  2  0  0  0  0  0  0  0  0  0
  140.7290   67.7680  227.7000 O   0  0  0  0  0  0  0  0  0  0  0  0
  139.6770   69.7570  226.7950 C   0  0  0  0  0  0  0  0  0  0  0  0
  139.2080   70.0800  225.4070 C   0  0  1  0  0  0  0  0  0  0  0  0
  140.2100   70.8090  224.6080 C   0  0  0  0  0  0  0  0  0  0  0  0
  141.4520   70.7980  224.8600 O   0  0  0  0  0  0  0  0  0  0  0  0
  139.7990   71.5790  223.4860 N   0  0  0  0  0  0  0  0  0  0  0  0
  140.7100   72.3320  222.6370 C   0  0  0  0  0  0  0  0  0  0  0  0
  139.9980   72.4470  221.2920 C   0  0  0  0  0  0  0  0  0  0  0  0
  138.7470   71.5980  221.4480 C   0  0  0  0  0  0  0  0  0  0  0  0
  138.4710   71.7910  222.9450 C   0  0  0  0  0  0  0  0  0  0  0  0
  134.6500   70.7510  225.4460 C   0  0  0  0  0  0  0  0  0  0  0  0
  133.6550   70.4920  226.3630 C   0  0  0  0  0  0  0  0  0  0  0  0
  132.9450   71.5200  226.9700 C   0  0  0  0  0  0  0  0  0  0  0  0
  133.2530   72.8280  226.6380 C   0  0  0  0  0  0  0  0  0  0  0  0
  132.5610   73.8740  227.2280 C   0  0  0  0  0  0  0  0  0  0  0  0
  132.9180   75.1430  226.8530 C   0  0  0  0  0  0  0  0  0  0  0  0
  132.0520   76.4820  227.5900 Cl  0  0  0  0  0  0  0  0  0  0  0  0
  133.9160   75.4020  225.9340 C   0  0  0  0  0  0  0  0  0  0  0  0
  134.6070   74.3500  225.3460 C   0  0  0  0  0  0  0  0  0  0  0  0
  134.2660   73.0590  225.7070 C   0  0  0  0  0  0  0  0  0  0  0  0
  134.9310   72.0120  225.1410 N   0  0  0  0  0  0  0  0  0  0  0  0
  136.5620   70.7450  223.5200 H   0  0  0  0  0  0  0  0  0  0  0  0
  136.5758   67.7303  223.8423 H   0  0  0  0  0  0  0  0  0  0  0  0
  136.7545   68.5818  222.2369 H   0  0  0  0  0  0  0  0  0  0  0  0
  138.5110   67.4260  226.3617 H   0  0  0  0  0  0  0  0  0  0  0  0
  139.6931   66.7930  225.2567 H   0  0  0  0  0  0  0  0  0  0  0  0
  141.4137   68.5683  226.0474 H   0  0  0  0  0  0  0  0  0  0  0  0
  140.3920   66.8440  227.5780 H   0  0  0  0  0  0  0  0  0  0  0  0
  138.8335   69.6063  227.4848 H   0  0  0  0  0  0  0  0  0  0  0  0
  140.2742   70.5466  227.2745 H   0  0  0  0  0  0  0  0  0  0  0  0
  138.3230   70.7318  225.4520 H   0  0  0  0  0  0  0  0  0  0  0  0
  140.8974   73.3295  223.0611 H   0  0  0  0  0  0  0  0  0  0  0  0
  141.6888   71.8387  222.5439 H   0  0  0  0  0  0  0  0  0  0  0  0
  139.7334   73.4936  221.0807 H   0  0  0  0  0  0  0  0  0  0  0  0
  140.6287   72.1116  220.4555 H   0  0  0  0  0  0  0  0  0  0  0  0
  137.9192   71.9751  220.8294 H   0  0  0  0  0  0  0  0  0  0  0  0
  138.8584   70.5505  221.1312 H   0  0  0  0  0  0  0  0  0  0  0  0
  138.1003   72.8035  223.1627 H   0  0  0  0  0  0  0  0  0  0  0  0
  137.6958   71.1288  223.3581 H   0  0  0  0  0  0  0  0  0  0  0  0
  133.4178   69.4490  226.6199 H   0  0  0  0  0  0  0  0  0  0  0  0
  132.1530   71.2988  227.7007 H   0  0  0  0  0  0  0  0  0  0  0  0
  131.7626   73.6941  227.9629 H   0  0  0  0  0  0  0  0  0  0  0  0
  134.1635   76.4403  225.6679 H   0  0  0  0  0  0  0  0  0  0  0  0
  135.4046   74.5388  224.6124 H   0  0  0  0  0  0  0  0  0  0  0  0
  1  2  2  0
  2  3  1  0
  3  4  1  0
  4  5  1  0
  5  6  2  0
  5  7  1  0
  7  8  1  0
  8  9  1  0
  9 10  1  0
  9 11  1  0
 11 12  1  0
 12 13  1  0
 13 14  2  0
 13 15  1  0
 15 16  1  0
 16 17  1  0
 17 18  1  0
 18 19  1  0
  2 20  1  0
 20 21  2  0
 21 22  1  0
 22 23  2  0
 23 24  1  0
 24 25  2  0
 25 26  1  0
 25 27  1  0
 27 28  2  0
 28 29  1  0
 29 30  2  0
 12  7  1  0
 19 15  1  0
 30 20  1  0
 29 23  1  0
  3 31  1  0
  4 32  1  0
  4 33  1  0
  8 34  1  0
  8 35  1  0
  9 36  1  6
 10 37  1  0
 11 38  1  0
 11 39  1  0
 12 40  1  1
 16 41  1  0
 16 42  1  0
 17 43  1  0
 17 44  1  0
 18 45  1  0
 18 46  1  0
 19 47  1  0
 19 48  1  0
 21 49  1  0
 22 50  1  0
 24 51  1  0
 27 52  1  0
 28 53  1  0
M  END
>  <smiles>  (20) 
O=C(NCC(=O)N1C[C@H](O)C[C@H]1C(=O)N1CCCC1)c1ccc2cc(Cl)ccc2n1

>  <score_type>  (20) 
oracle

>  <origin>  (20) 
autodockgpu

>  <m_score__min__energy>  (20) 
-8.0099999999999998

>  <m_primary>  (20) 
energy

>  <rmsd>  (20) 
8.412050518349071

>  <m_score__min__rmsd>  (20) 
8.412050518349071

>  <meeko>  (20) 
{"free_energy": -6.96, "intermolecular_energy": -8.75, "internal_energy": -2.08, "cluster_size": 3, "cluster_id": 5, "rank_in_cluster": 3}

>  <energy>  (20) 
-7.12

>  <cluster_rmsd>  (20) 
0.88

>  <cluster>  (20) 
2

$$$$

     RDKit          3D

 53 56  0  0  0  0  0  0  0  0999 V2000
  139.8200   74.0410  222.2990 O   0  0  0  0  0  0  0  0  0  0  0  0
  139.9600   72.8040  222.1200 C   0  0  0  0  0  0  0  0  0  0  0  0
  140.0540   72.3510  220.7580 N   0  0  0  0  0  0  0  0  0  0  0  0
  139.9830   73.3320  219.7230 C   0  0  0  0  0  0  0  0  0  0  0  0
  141.0880   73.2330  218.7410 C   0  0  0  0  0  0  0  0  0  0  0  0
  140.8390   73.0160  217.5110 O   0  0  0  0  0  0  0  0  0  0  0  0
  142.4160   73.3900  219.2300 N   0  0  0  0  0  0  0  0  0  0  0  0
  143.6160   72.6490  218.8610 C   0  0  0  0  0  0  0  0  0  0  0  0
  144.6980   73.6940  219.1240 C   0  0  2  0  0  0  0  0  0  0  0  0
  145.9570   73.1170  219.1480 O   0  0  0  0  0  0  0  0  0  0  0  0
  144.2370   74.1490  220.5100 C   0  0  0  0  0  0  0  0  0  0  0  0
  142.7810   74.3930  220.2430 C   0  0  1  0  0  0  0  0  0  0  0  0
  142.5050   75.7350  219.6990 C   0  0  0  0  0  0  0  0  0  0  0  0
  142.9440   76.1440  218.5820 O   0  0  0  0  0  0  0  0  0  0  0  0
  141.7060   76.6500  220.4370 N   0  0  0  0  0  0  0  0  0  0  0  0
  141.3790   77.9940  219.9860 C   0  0  0  0  0  0  0  0  0  0  0  0
  140.0770   78.3480  220.7000 C   0  0  0  0  0  0  0  0  0  0  0  0
  139.6800   77.0720  221.4250 C   0  0  0  0  0  0  0  0  0  0  0  0
  141.0650   76.4870  221.7280 C   0  0  0  0  0  0  0  0  0  0  0  0
  140.0250   71.8450  223.2290 C   0  0  0  0  0  0  0  0  0  0  0  0
  139.5710   70.5670  222.9810 C   0  0  0  0  0  0  0  0  0  0  0  0
  139.5910   69.5870  223.9660 C   0  0  0  0  0  0  0  0  0  0  0  0
  140.0810   69.9150  225.2190 C   0  0  0  0  0  0  0  0  0  0  0  0
  140.1130   68.9580  226.2210 C   0  0  0  0  0  0  0  0  0  0  0  0
  140.6110   69.3500  227.4370 C   0  0  0  0  0  0  0  0  0  0  0  0
  140.6600   68.1510  228.7190 Cl  0  0  0  0  0  0  0  0  0  0  0  0
  141.0670   70.6300  227.6840 C   0  0  0  0  0  0  0  0  0  0  0  0
  141.0320   71.5840  226.6760 C   0  0  0  0  0  0  0  0  0  0  0  0
  140.5350   71.2150  225.4400 C   0  0  0  0  0  0  0  0  0  0  0  0
  140.4920   72.1380  224.4360 N   0  0  0  0  0  0  0  0  0  0  0  0
  140.1710   71.3290  220.5690 H   0  0  0  0  0  0  0  0  0  0  0  0
  139.0296   73.2067  219.1888 H   0  0  0  0  0  0  0  0  0  0  0  0
  140.0639   74.3179  220.2042 H   0  0  0  0  0  0  0  0  0  0  0  0
  143.7516   71.7594  219.4936 H   0  0  0  0  0  0  0  0  0  0  0  0
  143.6070   72.2550  217.8340 H   0  0  0  0  0  0  0  0  0  0  0  0
  144.7985   74.4942  218.3760 H   0  0  0  0  0  0  0  0  0  0  0  0
  146.6030   73.8410  218.9410 H   0  0  0  0  0  0  0  0  0  0  0  0
  144.3859   73.3641  221.2662 H   0  0  0  0  0  0  0  0  0  0  0  0
  144.7818   75.0147  220.9146 H   0  0  0  0  0  0  0  0  0  0  0  0
  142.2103   74.3225  221.1807 H   0  0  0  0  0  0  0  0  0  0  0  0
  142.1760   78.6992  220.2643 H   0  0  0  0  0  0  0  0  0  0  0  0
  141.2767   78.0479  218.8921 H   0  0  0  0  0  0  0  0  0  0  0  0
  140.2368   79.1679  221.4157 H   0  0  0  0  0  0  0  0  0  0  0  0
  139.2985   78.6921  220.0032 H   0  0  0  0  0  0  0  0  0  0  0  0
  139.1179   77.2853  222.3461 H   0  0  0  0  0  0  0  0  0  0  0  0
  139.0138   76.4071  220.8557 H   0  0  0  0  0  0  0  0  0  0  0  0
  141.5835   77.0557  222.5140 H   0  0  0  0  0  0  0  0  0  0  0  0
  141.0546   75.4551  222.1088 H   0  0  0  0  0  0  0  0  0  0  0  0
  139.1846   70.3177  221.9817 H   0  0  0  0  0  0  0  0  0  0  0  0
  139.2251   68.5714  223.7547 H   0  0  0  0  0  0  0  0  0  0  0  0
  139.7557   67.9320  226.0488 H   0  0  0  0  0  0  0  0  0  0  0  0
  141.4574   70.8933  228.6781 H   0  0  0  0  0  0  0  0  0  0  0  0
  141.3908   72.6081  226.8564 H   0  0  0  0  0  0  0  0  0  0  0  0
  1  2  2  0
  2  3  1  0
  3  4  1  0
  4  5  1  0
  5  6  2  0
  5  7  1  0
  7  8  1  0
  8  9  1  0
  9 10  1  0
  9 11  1  0
 11 12  1  0
 12 13  1  0
 13 14  2  0
 13 15  1  0
 15 16  1  0
 16 17  1  0
 17 18  1  0
 18 19  1  0
  2 20  1  0
 20 21  2  0
 21 22  1  0
 22 23  2  0
 23 24  1  0
 24 25  2  0
 25 26  1  0
 25 27  1  0
 27 28  2  0
 28 29  1  0
 29 30  2  0
 12  7  1  0
 19 15  1  0
 30 20  1  0
 29 23  1  0
  3 31  1  0
  4 32  1  0
  4 33  1  0
  8 34  1  0
  8 35  1  0
  9 36  1  6
 10 37  1  0
 11 38  1  0
 11 39  1  0
 12 40  1  1
 16 41  1  0
 16 42  1  0
 17 43  1  0
 17 44  1  0
 18 45  1  0
 18 46  1  0
 19 47  1  0
 19 48  1  0
 21 49  1  0
 22 50  1  0
 24 51  1  0
 27 52  1  0
 28 53  1  0
M  END
>  <smiles>  (21) 
O=C(NCC(=O)N1C[C@H](O)C[C@H]1C(=O)N1CCCC1)c1ccc2cc(Cl)ccc2n1

>  <score_type>  (21) 
oracle

>  <origin>  (21) 
autodockgpu

>  <m_score__min__energy>  (21) 
-8.0099999999999998

>  <m_primary>  (21) 
energy

>  <rmsd>  (21) 
3.47461832763943

>  <m_score__min__rmsd>  (21) 
3.47461832763943

>  <meeko>  (21) 
{"free_energy": -7.91, "intermolecular_energy": -9.7, "internal_energy": -1.75, "cluster_size": 13, "cluster_id": 1, "rank_in_cluster": 5}

>  <energy>  (21) 
-7.11

>  <cluster_rmsd>  (21) 
0.91

>  <cluster>  (21) 
2

$$$$

     RDKit          3D

 53 56  0  0  0  0  0  0  0  0999 V2000
  137.1330   74.6750  220.5330 O   0  0  0  0  0  0  0  0  0  0  0  0
  137.9550   74.6240  221.4850 C   0  0  0  0  0  0  0  0  0  0  0  0
  137.9350   73.4380  222.2980 N   0  0  0  0  0  0  0  0  0  0  0  0
  136.9930   72.4180  221.9660 C   0  0  0  0  0  0  0  0  0  0  0  0
  136.7340   71.4730  223.0770 C   0  0  0  0  0  0  0  0  0  0  0  0
  135.8820   71.7600  223.9800 O   0  0  0  0  0  0  0  0  0  0  0  0
  137.4670   70.2530  223.0860 N   0  0  0  0  0  0  0  0  0  0  0  0
  137.6160   69.2720  222.0190 C   0  0  0  0  0  0  0  0  0  0  0  0
  138.9820   68.6780  222.3560 C   0  0  2  0  0  0  0  0  0  0  0  0
  139.2010   67.4980  221.6620 O   0  0  0  0  0  0  0  0  0  0  0  0
  138.7620   68.4440  223.8510 C   0  0  0  0  0  0  0  0  0  0  0  0
  138.2260   69.7860  224.2570 C   0  0  1  0  0  0  0  0  0  0  0  0
  139.2840   70.7690  224.5560 C   0  0  0  0  0  0  0  0  0  0  0  0
  139.6060   71.7130  223.7740 O   0  0  0  0  0  0  0  0  0  0  0  0
  140.0050   70.6870  225.7780 N   0  0  0  0  0  0  0  0  0  0  0  0
  141.0640   71.6070  226.1620 C   0  0  0  0  0  0  0  0  0  0  0  0
  141.0960   71.5640  227.6880 C   0  0  0  0  0  0  0  0  0  0  0  0
  139.9130   70.6890  228.0690 C   0  0  0  0  0  0  0  0  0  0  0  0
  139.8770   69.7370  226.8660 C   0  0  0  0  0  0  0  0  0  0  0  0
  138.8990   75.7100  221.7750 C   0  0  0  0  0  0  0  0  0  0  0  0
  140.1800   75.5750  221.2850 C   0  0  0  0  0  0  0  0  0  0  0  0
  141.1470   76.5480  221.5060 C   0  0  0  0  0  0  0  0  0  0  0  0
  140.8020   77.6720  222.2360 C   0  0  0  0  0  0  0  0  0  0  0  0
  141.7460   78.6600  222.4730 C   0  0  0  0  0  0  0  0  0  0  0  0
  141.3370   79.7460  223.2020 C   0  0  0  0  0  0  0  0  0  0  0  0
  142.5190   81.0070  223.5130 Cl  0  0  0  0  0  0  0  0  0  0  0  0
  140.0540   79.8810  223.6930 C   0  0  0  0  0  0  0  0  0  0  0  0
  139.1120   78.8890  223.4530 C   0  0  0  0  0  0  0  0  0  0  0  0
  139.4980   77.7820  222.7190 C   0  0  0  0  0  0  0  0  0  0  0  0
  138.5890   76.7960  222.4720 N   0  0  0  0  0  0  0  0  0  0  0  0
  138.6040   73.3600  223.0980 H   0  0  0  0  0  0  0  0  0  0  0  0
  136.0431   72.8977  221.6875 H   0  0  0  0  0  0  0  0  0  0  0  0
  137.4229   71.8358  221.1376 H   0  0  0  0  0  0  0  0  0  0  0  0
  136.8237   68.5099  222.0577 H   0  0  0  0  0  0  0  0  0  0  0  0
  137.5422   69.6913  221.0047 H   0  0  0  0  0  0  0  0  0  0  0  0
  139.8590   69.2909  222.1005 H   0  0  0  0  0  0  0  0  0  0  0  0
  138.4260   67.3800  221.0550 H   0  0  0  0  0  0  0  0  0  0  0  0
  138.0319   67.6419  224.0342 H   0  0  0  0  0  0  0  0  0  0  0  0
  139.6567   68.1197  224.4026 H   0  0  0  0  0  0  0  0  0  0  0  0
  137.6307   69.6903  225.1771 H   0  0  0  0  0  0  0  0  0  0  0  0
  142.0286   71.2803  225.7464 H   0  0  0  0  0  0  0  0  0  0  0  0
  140.8838   72.6236  225.7825 H   0  0  0  0  0  0  0  0  0  0  0  0
  142.0377   71.1215  228.0448 H   0  0  0  0  0  0  0  0  0  0  0  0
  141.0359   72.5668  228.1360 H   0  0  0  0  0  0  0  0  0  0  0  0
  140.0928   70.1488  229.0102 H   0  0  0  0  0  0  0  0  0  0  0  0
  138.9761   71.2356  228.2516 H   0  0  0  0  0  0  0  0  0  0  0  0
  140.7155   69.0253  226.8853 H   0  0  0  0  0  0  0  0  0  0  0  0
  138.9849   69.0955  226.8138 H   0  0  0  0  0  0  0  0  0  0  0  0
  140.4427   74.6772  220.7062 H   0  0  0  0  0  0  0  0  0  0  0  0
  142.1657   76.4274  221.1089 H   0  0  0  0  0  0  0  0  0  0  0  0
  142.7750   78.5759  222.0935 H   0  0  0  0  0  0  0  0  0  0  0  0
  139.7779   80.7734  224.2738 H   0  0  0  0  0  0  0  0  0  0  0  0
  138.0853   78.9813  223.8368 H   0  0  0  0  0  0  0  0  0  0  0  0
  1  2  2  0
  2  3  1  0
  3  4  1  0
  4  5  1  0
  5  6  2  0
  5  7  1  0
  7  8  1  0
  8  9  1  0
  9 10  1  0
  9 11  1  0
 11 12  1  0
 12 13  1  0
 13 14  2  0
 13 15  1  0
 15 16  1  0
 16 17  1  0
 17 18  1  0
 18 19  1  0
  2 20  1  0
 20 21  2  0
 21 22  1  0
 22 23  2  0
 23 24  1  0
 24 25  2  0
 25 26  1  0
 25 27  1  0
 27 28  2  0
 28 29  1  0
 29 30  2  0
 12  7  1  0
 19 15  1  0
 30 20  1  0
 29 23  1  0
  3 31  1  0
  4 32  1  0
  4 33  1  0
  8 34  1  0
  8 35  1  0
  9 36  1  1
 10 37  1  0
 11 38  1  0
 11 39  1  0
 12 40  1  1
 16 41  1  0
 16 42  1  0
 17 43  1  0
 17 44  1  0
 18 45  1  0
 18 46  1  0
 19 47  1  0
 19 48  1  0
 21 49  1  0
 22 50  1  0
 24 51  1  0
 27 52  1  0
 28 53  1  0
M  END
>  <smiles>  (22) 
O=C(NCC(=O)N1C[C@H](O)C[C@H]1C(=O)N1CCCC1)c1ccc2cc(Cl)ccc2n1

>  <score_type>  (22) 
oracle

>  <origin>  (22) 
autodockgpu

>  <m_score__min__energy>  (22) 
-8.0099999999999998

>  <m_primary>  (22) 
energy

>  <rmsd>  (22) 
8.791603914502467

>  <m_score__min__rmsd>  (22) 
8.791603914502467

>  <meeko>  (22) 
{"free_energy": -7.42, "intermolecular_energy": -9.21, "internal_energy": -2.03, "cluster_size": 6, "cluster_id": 4, "rank_in_cluster": 5}

>  <energy>  (22) 
-7.06

>  <cluster_rmsd>  (22) 
1.19

>  <cluster>  (22) 
2

$$$$

     RDKit          3D

 53 56  0  0  0  0  0  0  0  0999 V2000
  136.3610   71.2910  221.8850 O   0  0  0  0  0  0  0  0  0  0  0  0
  137.2870   71.7620  222.5950 C   0  0  0  0  0  0  0  0  0  0  0  0
  137.7050   73.1080  222.3090 N   0  0  0  0  0  0  0  0  0  0  0  0
  137.0450   73.8010  221.2500 C   0  0  0  0  0  0  0  0  0  0  0  0
  137.9740   74.3380  220.2290 C   0  0  0  0  0  0  0  0  0  0  0  0
  137.7050   74.2240  218.9890 O   0  0  0  0  0  0  0  0  0  0  0  0
  139.1590   74.9780  220.6920 N   0  0  0  0  0  0  0  0  0  0  0  0
  139.3050   76.2960  221.2960 C   0  0  0  0  0  0  0  0  0  0  0  0
  140.5390   76.0820  222.1700 C   0  0  2  0  0  0  0  0  0  0  0  0
  141.0640   77.2890  222.6030 O   0  0  0  0  0  0  0  0  0  0  0  0
  141.4310   75.3950  221.1340 C   0  0  0  0  0  0  0  0  0  0  0  0
  140.4870   74.3490  220.6180 C   0  0  1  0  0  0  0  0  0  0  0  0
  140.4740   73.1220  221.4360 C   0  0  0  0  0  0  0  0  0  0  0  0
  140.5910   73.1180  222.6980 O   0  0  0  0  0  0  0  0  0  0  0  0
  140.3250   71.8540  220.8100 N   0  0  0  0  0  0  0  0  0  0  0  0
  140.3010   70.5900  221.5290 C   0  0  0  0  0  0  0  0  0  0  0  0
  139.5230   69.6340  220.6280 C   0  0  0  0  0  0  0  0  0  0  0  0
  139.0310   70.5040  219.4830 C   0  0  0  0  0  0  0  0  0  0  0  0
  140.1720   71.5270  219.4060 C   0  0  0  0  0  0  0  0  0  0  0  0
  137.9270   70.9960  223.6710 C   0  0  0  0  0  0  0  0  0  0  0  0
  137.4620   69.7190  223.8940 C   0  0  0  0  0  0  0  0  0  0  0  0
  138.0030   68.9140  224.8900 C   0  0  0  0  0  0  0  0  0  0  0  0
  139.0310   69.4190  225.6660 C   0  0  0  0  0  0  0  0  0  0  0  0
  139.5900   68.6390  226.6670 C   0  0  0  0  0  0  0  0  0  0  0  0
  140.6050   69.2020  227.3970 C   0  0  0  0  0  0  0  0  0  0  0  0
  141.3250   68.2290  228.6700 Cl  0  0  0  0  0  0  0  0  0  0  0  0
  141.0710   70.4820  227.1720 C   0  0  0  0  0  0  0  0  0  0  0  0
  140.5070   71.2590  226.1690 C   0  0  0  0  0  0  0  0  0  0  0  0
  139.4820   70.7150  225.4170 C   0  0  0  0  0  0  0  0  0  0  0  0
  138.9140   71.4610  224.4260 N   0  0  0  0  0  0  0  0  0  0  0  0
  138.4720   73.5330  222.8790 H   0  0  0  0  0  0  0  0  0  0  0  0
  136.3504   73.1047  220.7574 H   0  0  0  0  0  0  0  0  0  0  0  0
  136.5246   74.6598  221.6990 H   0  0  0  0  0  0  0  0  0  0  0  0
  139.4783   77.0717  220.5356 H   0  0  0  0  0  0  0  0  0  0  0  0
  138.4168   76.6444  221.8436 H   0  0  0  0  0  0  0  0  0  0  0  0
  140.3856   75.5215  223.1040 H   0  0  0  0  0  0  0  0  0  0  0  0
  142.0230   77.2860  222.3530 H   0  0  0  0  0  0  0  0  0  0  0  0
  141.7418   76.0899  220.3399 H   0  0  0  0  0  0  0  0  0  0  0  0
  142.3794   75.0036  221.5305 H   0  0  0  0  0  0  0  0  0  0  0  0
  140.7878   74.0372  219.6069 H   0  0  0  0  0  0  0  0  0  0  0  0
  141.3237   70.2197  221.6931 H   0  0  0  0  0  0  0  0  0  0  0  0
  139.8376   70.6895  222.5217 H   0  0  0  0  0  0  0  0  0  0  0  0
  140.1777   68.8331  220.2540 H   0  0  0  0  0  0  0  0  0  0  0  0
  138.6980   69.1371  221.1595 H   0  0  0  0  0  0  0  0  0  0  0  0
  138.9344   69.9311  218.5490 H   0  0  0  0  0  0  0  0  0  0  0  0
  138.0318   70.9392  219.6319 H   0  0  0  0  0  0  0  0  0  0  0  0
  141.0884   71.0834  218.9896 H   0  0  0  0  0  0  0  0  0  0  0  0
  139.9729   72.3891  218.7525 H   0  0  0  0  0  0  0  0  0  0  0  0
  136.6448   69.3275  223.2705 H   0  0  0  0  0  0  0  0  0  0  0  0
  137.6214   67.8960  225.0577 H   0  0  0  0  0  0  0  0  0  0  0  0
  139.2358   67.6168  226.8661 H   0  0  0  0  0  0  0  0  0  0  0  0
  141.8886   70.8860  227.7870 H   0  0  0  0  0  0  0  0  0  0  0  0
  140.8663   72.2809  225.9776 H   0  0  0  0  0  0  0  0  0  0  0  0
  1  2  2  0
  2  3  1  0
  3  4  1  0
  4  5  1  0
  5  6  2  0
  5  7  1  0
  7  8  1  0
  8  9  1  0
  9 10  1  0
  9 11  1  0
 11 12  1  0
 12 13  1  0
 13 14  2  0
 13 15  1  0
 15 16  1  0
 16 17  1  0
 17 18  1  0
 18 19  1  0
  2 20  1  0
 20 21  2  0
 21 22  1  0
 22 23  2  0
 23 24  1  0
 24 25  2  0
 25 26  1  0
 25 27  1  0
 27 28  2  0
 28 29  1  0
 29 30  2  0
 12  7  1  0
 19 15  1  0
 30 20  1  0
 29 23  1  0
  3 31  1  0
  4 32  1  0
  4 33  1  0
  8 34  1  0
  8 35  1  0
  9 36  1  1
 10 37  1  0
 11 38  1  0
 11 39  1  0
 12 40  1  6
 16 41  1  0
 16 42  1  0
 17 43  1  0
 17 44  1  0
 18 45  1  0
 18 46  1  0
 19 47  1  0
 19 48  1  0
 21 49  1  0
 22 50  1  0
 24 51  1  0
 27 52  1  0
 28 53  1  0
M  END
>  <smiles>  (23) 
O=C(NCC(=O)N1C[C@H](O)C[C@H]1C(=O)N1CCCC1)c1ccc2cc(Cl)ccc2n1

>  <score_type>  (23) 
oracle

>  <origin>  (23) 
autodockgpu

>  <m_score__min__energy>  (23) 
-8.0099999999999998

>  <m_primary>  (23) 
energy

>  <rmsd>  (23) 
4.913285931437856

>  <m_score__min__rmsd>  (23) 
4.913285931437856

>  <meeko>  (23) 
{"free_energy": -6.5, "intermolecular_energy": -8.29, "internal_energy": -3.44, "cluster_size": 10, "cluster_id": 7, "rank_in_cluster": 5}

>  <energy>  (23) 
-7.02

>  <cluster_rmsd>  (23) 
0.99

>  <cluster>  (23) 
2

$$$$

     RDKit          3D

 53 56  0  0  0  0  0  0  0  0999 V2000
  139.4100   73.6030  220.9460 O   0  0  0  0  0  0  0  0  0  0  0  0
  140.4100   73.0750  221.4950 C   0  0  0  0  0  0  0  0  0  0  0  0
  141.7050   73.4920  221.0270 N   0  0  0  0  0  0  0  0  0  0  0  0
  141.7550   74.4660  219.9840 C   0  0  0  0  0  0  0  0  0  0  0  0
  142.9330   74.3190  219.0990 C   0  0  0  0  0  0  0  0  0  0  0  0
  142.8570   74.6370  217.8670 O   0  0  0  0  0  0  0  0  0  0  0  0
  144.1320   73.8160  219.6790 N   0  0  0  0  0  0  0  0  0  0  0  0
  145.0850   74.5040  220.5420 C   0  0  0  0  0  0  0  0  0  0  0  0
  145.6460   73.3350  221.3480 C   0  0  2  0  0  0  0  0  0  0  0  0
  146.8030   73.6980  222.0180 O   0  0  0  0  0  0  0  0  0  0  0  0
  145.9190   72.3740  220.1880 C   0  0  0  0  0  0  0  0  0  0  0  0
  144.6020   72.4370  219.4710 C   0  0  1  0  0  0  0  0  0  0  0  0
  143.5960   71.5080  220.0180 C   0  0  0  0  0  0  0  0  0  0  0  0
  143.5460   71.1660  221.2370 O   0  0  0  0  0  0  0  0  0  0  0  0
  142.6120   70.9440  219.1620 N   0  0  0  0  0  0  0  0  0  0  0  0
  141.5800   70.0200  219.6050 C   0  0  0  0  0  0  0  0  0  0  0  0
  140.4430   70.1780  218.5990 C   0  0  0  0  0  0  0  0  0  0  0  0
  140.8830   71.3260  217.7040 C   0  0  0  0  0  0  0  0  0  0  0  0
  142.4050   71.1330  217.7390 C   0  0  0  0  0  0  0  0  0  0  0  0
  140.2920   72.0760  222.5640 C   0  0  0  0  0  0  0  0  0  0  0  0
  139.7080   70.8720  222.2360 C   0  0  0  0  0  0  0  0  0  0  0  0
  139.5500   69.8630  223.1770 C   0  0  0  0  0  0  0  0  0  0  0  0
  139.9930   70.0850  224.4700 C   0  0  0  0  0  0  0  0  0  0  0  0
  139.8490   69.0960  225.4300 C   0  0  0  0  0  0  0  0  0  0  0  0
  140.3100   69.3820  226.6890 C   0  0  0  0  0  0  0  0  0  0  0  0
  140.1360   68.1420  227.9200 Cl  0  0  0  0  0  0  0  0  0  0  0  0
  140.8960   70.5890  227.0180 C   0  0  0  0  0  0  0  0  0  0  0  0
  141.0380   71.5760  226.0510 C   0  0  0  0  0  0  0  0  0  0  0  0
  140.5810   71.3130  224.7730 C   0  0  0  0  0  0  0  0  0  0  0  0
  140.7110   72.2690  223.8090 N   0  0  0  0  0  0  0  0  0  0  0  0
  142.5600   73.0740  221.4600 H   0  0  0  0  0  0  0  0  0  0  0  0
  140.8454   74.3697  219.3729 H   0  0  0  0  0  0  0  0  0  0  0  0
  141.8303   75.4528  220.4641 H   0  0  0  0  0  0  0  0  0  0  0  0
  145.8705   75.0053  219.9574 H   0  0  0  0  0  0  0  0  0  0  0  0
  144.6458   75.3063  221.1530 H   0  0  0  0  0  0  0  0  0  0  0  0
  145.0028   72.9368  222.1466 H   0  0  0  0  0  0  0  0  0  0  0  0
  146.5590   73.7840  222.9750 H   0  0  0  0  0  0  0  0  0  0  0  0
  146.7452   72.7268  219.5532 H   0  0  0  0  0  0  0  0  0  0  0  0
  146.2300   71.3634  220.4912 H   0  0  0  0  0  0  0  0  0  0  0  0
  144.7342   72.1546  218.4161 H   0  0  0  0  0  0  0  0  0  0  0  0
  141.9588   68.9873  219.5999 H   0  0  0  0  0  0  0  0  0  0  0  0
  141.2518   70.2323  220.6332 H   0  0  0  0  0  0  0  0  0  0  0  0
  140.3116   69.2565  218.0129 H   0  0  0  0  0  0  0  0  0  0  0  0
  139.4771   70.3748  219.0871 H   0  0  0  0  0  0  0  0  0  0  0  0
  140.4831   71.2235  216.6844 H   0  0  0  0  0  0  0  0  0  0  0  0
  140.5373   72.3194  218.0259 H   0  0  0  0  0  0  0  0  0  0  0  0
  142.7162   70.2497  217.1620 H   0  0  0  0  0  0  0  0  0  0  0  0
  142.9830   71.9575  217.2961 H   0  0  0  0  0  0  0  0  0  0  0  0
  139.3592   70.7063  221.2060 H   0  0  0  0  0  0  0  0  0  0  0  0
  139.0823   68.9065  222.9007 H   0  0  0  0  0  0  0  0  0  0  0  0
  139.3863   68.1266  225.1928 H   0  0  0  0  0  0  0  0  0  0  0  0
  141.2496   70.7682  228.0441 H   0  0  0  0  0  0  0  0  0  0  0  0
  141.5024   72.5426  226.2959 H   0  0  0  0  0  0  0  0  0  0  0  0
  1  2  2  0
  2  3  1  0
  3  4  1  0
  4  5  1  0
  5  6  2  0
  5  7  1  0
  7  8  1  0
  8  9  1  0
  9 10  1  0
  9 11  1  0
 11 12  1  0
 12 13  1  0
 13 14  2  0
 13 15  1  0
 15 16  1  0
 16 17  1  0
 17 18  1  0
 18 19  1  0
  2 20  1  0
 20 21  2  0
 21 22  1  0
 22 23  2  0
 23 24  1  0
 24 25  2  0
 25 26  1  0
 25 27  1  0
 27 28  2  0
 28 29  1  0
 29 30  2  0
 12  7  1  0
 19 15  1  0
 30 20  1  0
 29 23  1  0
  3 31  1  0
  4 32  1  0
  4 33  1  0
  8 34  1  0
  8 35  1  0
  9 36  1  1
 10 37  1  0
 11 38  1  0
 11 39  1  0
 12 40  1  6
 16 41  1  0
 16 42  1  0
 17 43  1  0
 17 44  1  0
 18 45  1  0
 18 46  1  0
 19 47  1  0
 19 48  1  0
 21 49  1  0
 22 50  1  0
 24 51  1  0
 27 52  1  0
 28 53  1  0
M  END
>  <smiles>  (24) 
O=C(NCC(=O)N1C[C@H](O)C[C@H]1C(=O)N1CCCC1)c1ccc2cc(Cl)ccc2n1

>  <score_type>  (24) 
oracle

>  <origin>  (24) 
autodockgpu

>  <m_score__min__energy>  (24) 
-8.0099999999999998

>  <m_primary>  (24) 
energy

>  <rmsd>  (24) 
6.115478415677675

>  <m_score__min__rmsd>  (24) 
6.115478415677675

>  <meeko>  (24) 
{"free_energy": -5.98, "intermolecular_energy": -7.77, "internal_energy": -3.05, "cluster_size": 3, "cluster_id": 3, "rank_in_cluster": 2}

>  <energy>  (24) 
-6.86

>  <cluster_rmsd>  (24) 
0.83

>  <cluster>  (24) 
2

$$$$

     RDKit          3D

 53 56  0  0  0  0  0  0  0  0999 V2000
  138.5940   73.1950  222.3000 O   0  0  0  0  0  0  0  0  0  0  0  0
  139.5980   72.4420  222.3890 C   0  0  0  0  0  0  0  0  0  0  0  0
  140.5480   72.4950  221.3100 N   0  0  0  0  0  0  0  0  0  0  0  0
  140.2830   73.3910  220.2320 C   0  0  0  0  0  0  0  0  0  0  0  0
  141.2320   73.2500  219.1020 C   0  0  0  0  0  0  0  0  0  0  0  0
  140.8030   73.0210  217.9250 O   0  0  0  0  0  0  0  0  0  0  0  0
  142.6200   73.3800  219.3910 N   0  0  0  0  0  0  0  0  0  0  0  0
  143.7460   72.6810  218.7860 C   0  0  0  0  0  0  0  0  0  0  0  0
  144.8590   73.7130  218.9600 C   0  0  2  0  0  0  0  0  0  0  0  0
  146.1050   73.1470  218.7440 O   0  0  0  0  0  0  0  0  0  0  0  0
  144.6190   74.0550  220.4310 C   0  0  0  0  0  0  0  0  0  0  0  0
  143.1390   74.3050  220.4120 C   0  0  1  0  0  0  0  0  0  0  0  0
  142.7870   75.6830  220.0230 C   0  0  0  0  0  0  0  0  0  0  0  0
  143.3040   76.2880  219.0370 O   0  0  0  0  0  0  0  0  0  0  0  0
  141.8180   76.4060  220.7710 N   0  0  0  0  0  0  0  0  0  0  0  0
  141.4030   77.7660  220.4670 C   0  0  0  0  0  0  0  0  0  0  0  0
  139.9990   77.8950  221.0500 C   0  0  0  0  0  0  0  0  0  0  0  0
  139.6590   76.4970  221.5400 C   0  0  0  0  0  0  0  0  0  0  0  0
  141.0560   75.9990  221.9350 C   0  0  0  0  0  0  0  0  0  0  0  0
  139.8130   71.5400  223.5270 C   0  0  0  0  0  0  0  0  0  0  0  0
  139.4380   70.2240  223.3630 C   0  0  0  0  0  0  0  0  0  0  0  0
  139.6010   69.2920  224.3810 C   0  0  0  0  0  0  0  0  0  0  0  0
  140.1520   69.7090  225.5810 C   0  0  0  0  0  0  0  0  0  0  0  0
  140.3260   68.8020  226.6150 C   0  0  0  0  0  0  0  0  0  0  0  0
  140.8780   69.2820  227.7740 C   0  0  0  0  0  0  0  0  0  0  0  0
  141.1060   68.1480  229.0950 Cl  0  0  0  0  0  0  0  0  0  0  0  0
  141.2540   70.6010  227.9370 C   0  0  0  0  0  0  0  0  0  0  0  0
  141.0770   71.5050  226.8980 C   0  0  0  0  0  0  0  0  0  0  0  0
  140.5220   71.0470  225.7170 C   0  0  0  0  0  0  0  0  0  0  0  0
  140.3400   71.9190  224.6840 N   0  0  0  0  0  0  0  0  0  0  0  0
  141.3940   71.8820  221.3490 H   0  0  0  0  0  0  0  0  0  0  0  0
  139.2663   73.1973  219.8596 H   0  0  0  0  0  0  0  0  0  0  0  0
  140.3948   74.4126  220.6241 H   0  0  0  0  0  0  0  0  0  0  0  0
  143.9749   71.7465  219.3193 H   0  0  0  0  0  0  0  0  0  0  0  0
  143.5780   72.3671  217.7452 H   0  0  0  0  0  0  0  0  0  0  0  0
  144.8452   74.5700  218.2706 H   0  0  0  0  0  0  0  0  0  0  0  0
  146.7360   73.8990  218.6040 H   0  0  0  0  0  0  0  0  0  0  0  0
  144.8812   73.2156  221.0917 H   0  0  0  0  0  0  0  0  0  0  0  0
  145.2219   74.8922  220.8127 H   0  0  0  0  0  0  0  0  0  0  0  0
  142.7188   74.1563  221.4177 H   0  0  0  0  0  0  0  0  0  0  0  0
  142.0839   78.4912  220.9365 H   0  0  0  0  0  0  0  0  0  0  0  0
  141.4198   77.9693  219.3861 H   0  0  0  0  0  0  0  0  0  0  0  0
  139.9889   78.6122  221.8840 H   0  0  0  0  0  0  0  0  0  0  0  0
  139.2729   78.2672  220.3123 H   0  0  0  0  0  0  0  0  0  0  0  0
  138.9768   76.5225  222.4026 H   0  0  0  0  0  0  0  0  0  0  0  0
  139.1351   75.8663  220.8067 H   0  0  0  0  0  0  0  0  0  0  0  0
  141.4187   76.4897  222.8502 H   0  0  0  0  0  0  0  0  0  0  0  0
  141.1119   74.9255  222.1682 H   0  0  0  0  0  0  0  0  0  0  0  0
  139.0003   69.9044  222.4058 H   0  0  0  0  0  0  0  0  0  0  0  0
  139.2985   68.2444  224.2364 H   0  0  0  0  0  0  0  0  0  0  0  0
  140.0347   67.7465  226.5101 H   0  0  0  0  0  0  0  0  0  0  0  0
  141.6931   70.9349  228.8887 H   0  0  0  0  0  0  0  0  0  0  0  0
  141.3708   72.5589  227.0114 H   0  0  0  0  0  0  0  0  0  0  0  0
  1  2  2  0
  2  3  1  0
  3  4  1  0
  4  5  1  0
  5  6  2  0
  5  7  1  0
  7  8  1  0
  8  9  1  0
  9 10  1  0
  9 11  1  0
 11 12  1  0
 12 13  1  0
 13 14  2  0
 13 15  1  0
 15 16  1  0
 16 17  1  0
 17 18  1  0
 18 19  1  0
  2 20  1  0
 20 21  2  0
 21 22  1  0
 22 23  2  0
 23 24  1  0
 24 25  2  0
 25 26  1  0
 25 27  1  0
 27 28  2  0
 28 29  1  0
 29 30  2  0
 12  7  1  0
 19 15  1  0
 30 20  1  0
 29 23  1  0
  3 31  1  0
  4 32  1  0
  4 33  1  0
  8 34  1  0
  8 35  1  0
  9 36  1  6
 10 37  1  0
 11 38  1  0
 11 39  1  0
 12 40  1  1
 16 41  1  0
 16 42  1  0
 17 43  1  0
 17 44  1  0
 18 45  1  0
 18 46  1  0
 19 47  1  0
 19 48  1  0
 21 49  1  0
 22 50  1  0
 24 51  1  0
 27 52  1  0
 28 53  1  0
M  END
>  <smiles>  (25) 
O=C(NCC(=O)N1C[C@H](O)C[C@H]1C(=O)N1CCCC1)c1ccc2cc(Cl)ccc2n1

>  <score_type>  (25) 
oracle

>  <origin>  (25) 
autodockgpu

>  <m_score__min__energy>  (25) 
-8.0099999999999998

>  <m_primary>  (25) 
energy

>  <rmsd>  (25) 
3.567166931857971

>  <m_score__min__rmsd>  (25) 
3.567166931857971

>  <meeko>  (25) 
{"free_energy": -7.6, "intermolecular_energy": -9.39, "internal_energy": -1.66, "cluster_size": 13, "cluster_id": 1, "rank_in_cluster": 8}

>  <energy>  (25) 
-6.23

>  <cluster_rmsd>  (25) 
1.97

>  <cluster>  (25) 
2

$$$$

     RDKit          3D

 53 56  0  0  0  0  0  0  0  0999 V2000
  139.4770   71.9700  219.9800 O   0  0  0  0  0  0  0  0  0  0  0  0
  139.9410   72.4280  221.0560 C   0  0  0  0  0  0  0  0  0  0  0  0
  140.5110   73.7480  221.0080 N   0  0  0  0  0  0  0  0  0  0  0  0
  140.5070   74.4310  219.7540 C   0  0  0  0  0  0  0  0  0  0  0  0
  139.9850   75.8150  219.8400 C   0  0  0  0  0  0  0  0  0  0  0  0
  140.4150   76.7150  219.0490 O   0  0  0  0  0  0  0  0  0  0  0  0
  138.9980   76.0840  220.8300 N   0  0  0  0  0  0  0  0  0  0  0  0
  137.8480   75.2750  221.2130 C   0  0  0  0  0  0  0  0  0  0  0  0
  137.6730   75.6870  222.6730 C   0  0  2  0  0  0  0  0  0  0  0  0
  136.4410   75.2860  223.1630 O   0  0  0  0  0  0  0  0  0  0  0  0
  137.7630   77.2030  222.4890 C   0  0  0  0  0  0  0  0  0  0  0  0
  139.0080   77.3000  221.6580 C   0  0  1  0  0  0  0  0  0  0  0  0
  140.2450   77.3140  222.4620 C   0  0  0  0  0  0  0  0  0  0  0  0
  140.9580   76.2870  222.6700 O   0  0  0  0  0  0  0  0  0  0  0  0
  140.6950   78.5260  223.0520 N   0  0  0  0  0  0  0  0  0  0  0  0
  141.8990   78.6410  223.8590 C   0  0  0  0  0  0  0  0  0  0  0  0
  142.3230   80.1020  223.7370 C   0  0  0  0  0  0  0  0  0  0  0  0
  141.3630   80.6950  222.7190 C   0  0  0  0  0  0  0  0  0  0  0  0
  140.1120   79.8520  223.0000 C   0  0  0  0  0  0  0  0  0  0  0  0
  139.9150   71.6740  222.3150 C   0  0  0  0  0  0  0  0  0  0  0  0
  139.2460   70.4690  222.3100 C   0  0  0  0  0  0  0  0  0  0  0  0
  139.1650   69.6810  223.4520 C   0  0  0  0  0  0  0  0  0  0  0  0
  139.7750   70.1280  224.6120 C   0  0  0  0  0  0  0  0  0  0  0  0
  139.7100   69.3620  225.7660 C   0  0  0  0  0  0  0  0  0  0  0  0
  140.3370   69.8640  226.8770 C   0  0  0  0  0  0  0  0  0  0  0  0
  140.2660   68.9090  228.3500 Cl  0  0  0  0  0  0  0  0  0  0  0  0
  141.0080   71.0710  226.8810 C   0  0  0  0  0  0  0  0  0  0  0  0
  141.0690   71.8330  225.7220 C   0  0  0  0  0  0  0  0  0  0  0  0
  140.4460   71.3500  224.5860 C   0  0  0  0  0  0  0  0  0  0  0  0
  140.4940   72.0830  223.4370 N   0  0  0  0  0  0  0  0  0  0  0  0
  140.9070   74.1610  221.8830 H   0  0  0  0  0  0  0  0  0  0  0  0
  141.5389   74.4704  219.3750 H   0  0  0  0  0  0  0  0  0  0  0  0
  139.8386   73.8727  219.0820 H   0  0  0  0  0  0  0  0  0  0  0  0
  136.9604   75.5258  220.6136 H   0  0  0  0  0  0  0  0  0  0  0  0
  137.9839   74.1941  221.0607 H   0  0  0  0  0  0  0  0  0  0  0  0
  138.3857   75.2573  223.3923 H   0  0  0  0  0  0  0  0  0  0  0  0
  136.6140   74.5200  223.7690 H   0  0  0  0  0  0  0  0  0  0  0  0
  136.8865   77.6009  221.9565 H   0  0  0  0  0  0  0  0  0  0  0  0
  137.7891   77.7792  223.4256 H   0  0  0  0  0  0  0  0  0  0  0  0
  139.0063   78.2399  221.0865 H   0  0  0  0  0  0  0  0  0  0  0  0
  141.6862   78.3872  224.9079 H   0  0  0  0  0  0  0  0  0  0  0  0
  142.6884   77.9537  223.5207 H   0  0  0  0  0  0  0  0  0  0  0  0
  142.2290   80.6159  224.7050 H   0  0  0  0  0  0  0  0  0  0  0  0
  143.3742   80.2075  223.4305 H   0  0  0  0  0  0  0  0  0  0  0  0
  141.1833   81.7644  222.9036 H   0  0  0  0  0  0  0  0  0  0  0  0
  141.7168   80.6617  221.6780 H   0  0  0  0  0  0  0  0  0  0  0  0
  139.6428   80.1274  223.9560 H   0  0  0  0  0  0  0  0  0  0  0  0
  139.3042   79.9696  222.2627 H   0  0  0  0  0  0  0  0  0  0  0  0
  138.7660   70.1236  221.3825 H   0  0  0  0  0  0  0  0  0  0  0  0
  138.6272   68.7216  223.4347 H   0  0  0  0  0  0  0  0  0  0  0  0
  139.1808   68.3979  225.7889 H   0  0  0  0  0  0  0  0  0  0  0  0
  141.4935   71.4282  227.8012 H   0  0  0  0  0  0  0  0  0  0  0  0
  141.5995   72.7965  225.7078 H   0  0  0  0  0  0  0  0  0  0  0  0
  1  2  2  0
  2  3  1  0
  3  4  1  0
  4  5  1  0
  5  6  2  0
  5  7  1  0
  7  8  1  0
  8  9  1  0
  9 10  1  0
  9 11  1  0
 11 12  1  0
 12 13  1  0
 13 14  2  0
 13 15  1  0
 15 16  1  0
 16 17  1  0
 17 18  1  0
 18 19  1  0
  2 20  1  0
 20 21  2  0
 21 22  1  0
 22 23  2  0
 23 24  1  0
 24 25  2  0
 25 26  1  0
 25 27  1  0
 27 28  2  0
 28 29  1  0
 29 30  2  0
 12  7  1  0
 19 15  1  0
 30 20  1  0
 29 23  1  0
  3 31  1  0
  4 32  1  0
  4 33  1  0
  8 34  1  0
  8 35  1  0
  9 36  1  1
 10 37  1  0
 11 38  1  0
 11 39  1  0
 12 40  1  6
 16 41  1  0
 16 42  1  0
 17 43  1  0
 17 44  1  0
 18 45  1  0
 18 46  1  0
 19 47  1  0
 19 48  1  0
 21 49  1  0
 22 50  1  0
 24 51  1  0
 27 52  1  0
 28 53  1  0
M  END
>  <smiles>  (26) 
O=C(NCC(=O)N1C[C@H](O)C[C@H]1C(=O)N1CCCC1)c1ccc2cc(Cl)ccc2n1

>  <score_type>  (26) 
oracle

>  <origin>  (26) 
autodockgpu

>  <m_score__min__energy>  (26) 
-8.0099999999999998

>  <m_primary>  (26) 
energy

>  <rmsd>  (26) 
3.0173641578007575

>  <m_score__min__rmsd>  (26) 
3.0173641578007575

>  <meeko>  (26) 
{"free_energy": -7.23, "intermolecular_energy": -9.02, "internal_energy": -2.4, "cluster_size": 14, "cluster_id": 2, "rank_in_cluster": 3}

>  <energy>  (26) 
-6.13

>  <cluster_rmsd>  (26) 
1.96

>  <cluster>  (26) 
2

$$$$

     RDKit          3D

 53 56  0  0  0  0  0  0  0  0999 V2000
  139.3620   71.9980  220.0510 O   0  0  0  0  0  0  0  0  0  0  0  0
  139.8760   72.4460  221.1080 C   0  0  0  0  0  0  0  0  0  0  0  0
  140.4740   73.7520  221.0370 N   0  0  0  0  0  0  0  0  0  0  0  0
  140.4400   74.4340  219.7830 C   0  0  0  0  0  0  0  0  0  0  0  0
  139.9550   75.8300  219.8860 C   0  0  0  0  0  0  0  0  0  0  0  0
  140.4230   76.7320  219.1180 O   0  0  0  0  0  0  0  0  0  0  0  0
  138.9590   76.1090  220.8650 N   0  0  0  0  0  0  0  0  0  0  0  0
  137.8070   75.3020  221.2470 C   0  0  0  0  0  0  0  0  0  0  0  0
  137.6200   75.7310  222.7010 C   0  0  2  0  0  0  0  0  0  0  0  0
  136.3840   75.3330  223.1860 O   0  0  0  0  0  0  0  0  0  0  0  0
  137.7090   77.2450  222.5010 C   0  0  0  0  0  0  0  0  0  0  0  0
  138.9610   77.3350  221.6790 C   0  0  1  0  0  0  0  0  0  0  0  0
  140.1910   77.3590  222.4920 C   0  0  0  0  0  0  0  0  0  0  0  0
  140.9090   76.3380  222.7100 O   0  0  0  0  0  0  0  0  0  0  0  0
  140.6280   78.5770  223.0810 N   0  0  0  0  0  0  0  0  0  0  0  0
  141.8250   78.7030  223.8980 C   0  0  0  0  0  0  0  0  0  0  0  0
  142.2400   80.1670  223.7750 C   0  0  0  0  0  0  0  0  0  0  0  0
  141.2840   80.7490  222.7460 C   0  0  0  0  0  0  0  0  0  0  0  0
  140.0360   79.8990  223.0210 C   0  0  0  0  0  0  0  0  0  0  0  0
  139.8790   71.6930  222.3680 C   0  0  0  0  0  0  0  0  0  0  0  0
  139.2430   70.4710  222.3700 C   0  0  0  0  0  0  0  0  0  0  0  0
  139.1910   69.6830  223.5140 C   0  0  0  0  0  0  0  0  0  0  0  0
  139.7960   70.1480  224.6690 C   0  0  0  0  0  0  0  0  0  0  0  0
  139.7600   69.3830  225.8250 C   0  0  0  0  0  0  0  0  0  0  0  0
  140.3800   69.9040  226.9310 C   0  0  0  0  0  0  0  0  0  0  0  0
  140.3450   68.9500  228.4060 Cl  0  0  0  0  0  0  0  0  0  0  0  0
  141.0180   71.1280  226.9280 C   0  0  0  0  0  0  0  0  0  0  0  0
  141.0510   71.8900  225.7680 C   0  0  0  0  0  0  0  0  0  0  0  0
  140.4330   71.3880  224.6360 C   0  0  0  0  0  0  0  0  0  0  0  0
  140.4540   72.1200  223.4860 N   0  0  0  0  0  0  0  0  0  0  0  0
  140.9120   74.1570  221.8960 H   0  0  0  0  0  0  0  0  0  0  0  0
  141.4578   74.4483  219.3660 H   0  0  0  0  0  0  0  0  0  0  0  0
  139.7339   73.8915  219.1371 H   0  0  0  0  0  0  0  0  0  0  0  0
  136.9240   75.5444  220.6375 H   0  0  0  0  0  0  0  0  0  0  0  0
  137.9453   74.2197  221.1077 H   0  0  0  0  0  0  0  0  0  0  0  0
  138.3280   75.3111  223.4306 H   0  0  0  0  0  0  0  0  0  0  0  0
  136.5540   74.5760  223.8030 H   0  0  0  0  0  0  0  0  0  0  0  0
  136.8363   77.6354  221.9570 H   0  0  0  0  0  0  0  0  0  0  0  0
  137.7265   77.8316  223.4314 H   0  0  0  0  0  0  0  0  0  0  0  0
  138.9628   78.2687  221.0975 H   0  0  0  0  0  0  0  0  0  0  0  0
  141.6053   78.4509  224.9459 H   0  0  0  0  0  0  0  0  0  0  0  0
  142.6220   78.0202  223.5684 H   0  0  0  0  0  0  0  0  0  0  0  0
  142.1337   80.6836  224.7403 H   0  0  0  0  0  0  0  0  0  0  0  0
  143.2931   80.2795  223.4779 H   0  0  0  0  0  0  0  0  0  0  0  0
  141.0958   81.8181  222.9240 H   0  0  0  0  0  0  0  0  0  0  0  0
  141.6465   80.7130  221.7081 H   0  0  0  0  0  0  0  0  0  0  0  0
  139.5584   80.1742  223.9729 H   0  0  0  0  0  0  0  0  0  0  0  0
  139.2322   80.0092  222.2782 H   0  0  0  0  0  0  0  0  0  0  0  0
  138.7660   70.1110  221.4464 H   0  0  0  0  0  0  0  0  0  0  0  0
  138.6793   68.7093  223.5017 H   0  0  0  0  0  0  0  0  0  0  0  0
  139.2578   68.4047  225.8532 H   0  0  0  0  0  0  0  0  0  0  0  0
  141.5001   71.4995  227.8443 H   0  0  0  0  0  0  0  0  0  0  0  0
  141.5553   72.8674  225.7491 H   0  0  0  0  0  0  0  0  0  0  0  0
  1  2  2  0
  2  3  1  0
  3  4  1  0
  4  5  1  0
  5  6  2  0
  5  7  1  0
  7  8  1  0
  8  9  1  0
  9 10  1  0
  9 11  1  0
 11 12  1  0
 12 13  1  0
 13 14  2  0
 13 15  1  0
 15 16  1  0
 16 17  1  0
 17 18  1  0
 18 19  1  0
  2 20  1  0
 20 21  2  0
 21 22  1  0
 22 23  2  0
 23 24  1  0
 24 25  2  0
 25 26  1  0
 25 27  1  0
 27 28  2  0
 28 29  1  0
 29 30  2  0
 12  7  1  0
 19 15  1  0
 30 20  1  0
 29 23  1  0
  3 31  1  0
  4 32  1  0
  4 33  1  0
  8 34  1  0
  8 35  1  0
  9 36  1  1
 10 37  1  0
 11 38  1  0
 11 39  1  0
 12 40  1  6
 16 41  1  0
 16 42  1  0
 17 43  1  0
 17 44  1  0
 18 45  1  0
 18 46  1  0
 19 47  1  0
 19 48  1  0
 21 49  1  0
 22 50  1  0
 24 51  1  0
 27 52  1  0
 28 53  1  0
M  END
>  <smiles>  (27) 
O=C(NCC(=O)N1C[C@H](O)C[C@H]1C(=O)N1CCCC1)c1ccc2cc(Cl)ccc2n1

>  <score_type>  (27) 
oracle

>  <origin>  (27) 
autodockgpu

>  <m_score__min__energy>  (27) 
-8.0099999999999998

>  <m_primary>  (27) 
energy

>  <rmsd>  (27) 
3.0191894382116984

>  <m_score__min__rmsd>  (27) 
3.0191894382116984

>  <meeko>  (27) 
{"free_energy": -7.27, "intermolecular_energy": -9.06, "internal_energy": -2.32, "cluster_size": 14, "cluster_id": 2, "rank_in_cluster": 2}

>  <energy>  (27) 
-6.12

>  <cluster_rmsd>  (27) 
1.93

>  <cluster>  (27) 
2

$$$$

     RDKit          3D

 53 56  0  0  0  0  0  0  0  0999 V2000
  140.2310   72.4700  220.6900 O   0  0  0  0  0  0  0  0  0  0  0  0
  140.0190   72.8600  221.8670 C   0  0  0  0  0  0  0  0  0  0  0  0
  139.7730   74.2650  222.0530 N   0  0  0  0  0  0  0  0  0  0  0  0
  139.7890   75.1030  220.8970 C   0  0  0  0  0  0  0  0  0  0  0  0
  140.7660   76.2130  220.9890 C   0  0  0  0  0  0  0  0  0  0  0  0
  141.1130   76.6730  222.1250 O   0  0  0  0  0  0  0  0  0  0  0  0
  141.2900   76.7290  219.7700 N   0  0  0  0  0  0  0  0  0  0  0  0
  141.1190   78.0580  219.1950 C   0  0  0  0  0  0  0  0  0  0  0  0
  142.4090   78.1970  218.3900 C   0  0  2  0  0  0  0  0  0  0  0  0
  142.3310   79.2530  217.4970 O   0  0  0  0  0  0  0  0  0  0  0  0
  142.3830   76.8360  217.6900 C   0  0  0  0  0  0  0  0  0  0  0  0
  142.1350   75.9350  218.8640 C   0  0  1  0  0  0  0  0  0  0  0  0
  143.3670   75.5560  219.5790 C   0  0  0  0  0  0  0  0  0  0  0  0
  144.1680   76.3950  220.0910 O   0  0  0  0  0  0  0  0  0  0  0  0
  143.7110   74.1840  219.7230 N   0  0  0  0  0  0  0  0  0  0  0  0
  144.9030   73.7110  220.4090 C   0  0  0  0  0  0  0  0  0  0  0  0
  144.5630   72.2960  220.8680 C   0  0  0  0  0  0  0  0  0  0  0  0
  143.0970   72.1200  220.5100 C   0  0  0  0  0  0  0  0  0  0  0  0
  143.0140   73.0020  219.2570 C   0  0  0  0  0  0  0  0  0  0  0  0
  140.0170   71.9460  223.0160 C   0  0  0  0  0  0  0  0  0  0  0  0
  139.4380   70.7090  222.8310 C   0  0  0  0  0  0  0  0  0  0  0  0
  139.3870   69.7730  223.8570 C   0  0  0  0  0  0  0  0  0  0  0  0
  139.9320   70.1040  225.0860 C   0  0  0  0  0  0  0  0  0  0  0  0
  139.8940   69.1910  226.1280 C   0  0  0  0  0  0  0  0  0  0  0  0
  140.4530   69.5840  227.3170 C   0  0  0  0  0  0  0  0  0  0  0  0
  140.4150   68.4410  228.6500 Cl  0  0  0  0  0  0  0  0  0  0  0  0
  141.0330   70.8240  227.5010 C   0  0  0  0  0  0  0  0  0  0  0  0
  141.0670   71.7350  226.4530 C   0  0  0  0  0  0  0  0  0  0  0  0
  140.5110   71.3640  225.2430 C   0  0  0  0  0  0  0  0  0  0  0  0
  140.5340   72.2430  224.2010 N   0  0  0  0  0  0  0  0  0  0  0  0
  139.5930   74.6250  223.0170 H   0  0  0  0  0  0  0  0  0  0  0  0
  140.0433   74.4861  220.0225 H   0  0  0  0  0  0  0  0  0  0  0  0
  138.7902   75.5556  220.8099 H   0  0  0  0  0  0  0  0  0  0  0  0
  140.2315   78.1064  218.5469 H   0  0  0  0  0  0  0  0  0  0  0  0
  140.9596   78.8550  219.9362 H   0  0  0  0  0  0  0  0  0  0  0  0
  143.3231   78.4138  218.9622 H   0  0  0  0  0  0  0  0  0  0  0  0
  143.2490   79.3980  217.1510 H   0  0  0  0  0  0  0  0  0  0  0  0
  141.5708   76.7741  216.9508 H   0  0  0  0  0  0  0  0  0  0  0  0
  143.2876   76.5989  217.1108 H   0  0  0  0  0  0  0  0  0  0  0  0
  141.6796   74.9931  218.5243 H   0  0  0  0  0  0  0  0  0  0  0  0
  145.7634   73.6983  219.7238 H   0  0  0  0  0  0  0  0  0  0  0  0
  145.1792   74.3622  221.2514 H   0  0  0  0  0  0  0  0  0  0  0  0
  145.1833   71.5567  220.3401 H   0  0  0  0  0  0  0  0  0  0  0  0
  144.7512   72.1487  221.9417 H   0  0  0  0  0  0  0  0  0  0  0  0
  142.8558   71.0705  220.2858 H   0  0  0  0  0  0  0  0  0  0  0  0
  142.3917   72.3888  221.3102 H   0  0  0  0  0  0  0  0  0  0  0  0
  143.5255   72.5398  218.3998 H   0  0  0  0  0  0  0  0  0  0  0  0
  141.9931   73.1850  218.8907 H   0  0  0  0  0  0  0  0  0  0  0  0
  139.0072   70.4573  221.8506 H   0  0  0  0  0  0  0  0  0  0  0  0
  138.9229   68.7888  223.6959 H   0  0  0  0  0  0  0  0  0  0  0  0
  139.4369   68.1978  226.0070 H   0  0  0  0  0  0  0  0  0  0  0  0
  141.4674   71.0897  228.4761 H   0  0  0  0  0  0  0  0  0  0  0  0
  141.5249   72.7267  226.5827 H   0  0  0  0  0  0  0  0  0  0  0  0
  1  2  2  0
  2  3  1  0
  3  4  1  0
  4  5  1  0
  5  6  2  0
  5  7  1  0
  7  8  1  0
  8  9  1  0
  9 10  1  0
  9 11  1  0
 11 12  1  0
 12 13  1  0
 13 14  2  0
 13 15  1  0
 15 16  1  0
 16 17  1  0
 17 18  1  0
 18 19  1  0
  2 20  1  0
 20 21  2  0
 21 22  1  0
 22 23  2  0
 23 24  1  0
 24 25  2  0
 25 26  1  0
 25 27  1  0
 27 28  2  0
 28 29  1  0
 29 30  2  0
 12  7  1  0
 19 15  1  0
 30 20  1  0
 29 23  1  0
  3 31  1  0
  4 32  1  0
  4 33  1  0
  8 34  1  0
  8 35  1  0
  9 36  1  1
 10 37  1  0
 11 38  1  0
 11 39  1  0
 12 40  1  6
 16 41  1  0
 16 42  1  0
 17 43  1  0
 17 44  1  0
 18 45  1  0
 18 46  1  0
 19 47  1  0
 19 48  1  0
 21 49  1  0
 22 50  1  0
 24 51  1  0
 27 52  1  0
 28 53  1  0
M  END
>  <smiles>  (28) 
O=C(NCC(=O)N1C[C@H](O)C[C@H]1C(=O)N1CCCC1)c1ccc2cc(Cl)ccc2n1

>  <score_type>  (28) 
oracle

>  <origin>  (28) 
autodockgpu

>  <m_score__min__energy>  (28) 
-8.0099999999999998

>  <m_primary>  (28) 
energy

>  <rmsd>  (28) 
4.300704299401644

>  <m_score__min__rmsd>  (28) 
4.300704299401644

>  <meeko>  (28) 
{"free_energy": -7.95, "intermolecular_energy": -9.74, "internal_energy": -2.04, "cluster_size": 13, "cluster_id": 1, "rank_in_cluster": 2}

>  <energy>  (28) 
-7.61

>  <cluster_rmsd>  (28) 
0.0

>  <cluster>  (28) 
3

$$$$

     RDKit          3D

 53 56  0  0  0  0  0  0  0  0999 V2000
  137.8670   74.5150  220.0860 O   0  0  0  0  0  0  0  0  0  0  0  0
  138.4260   74.6160  221.2090 C   0  0  0  0  0  0  0  0  0  0  0  0
  138.2000   73.5480  222.1450 N   0  0  0  0  0  0  0  0  0  0  0  0
  137.3660   72.4650  221.7330 C   0  0  0  0  0  0  0  0  0  0  0  0
  136.9460   71.5870  222.8510 C   0  0  0  0  0  0  0  0  0  0  0  0
  136.0120   71.9500  223.6380 O   0  0  0  0  0  0  0  0  0  0  0  0
  137.6230   70.3440  223.0000 N   0  0  0  0  0  0  0  0  0  0  0  0
  137.8040   69.2820  222.0180 C   0  0  0  0  0  0  0  0  0  0  0  0
  139.1170   68.6630  222.4950 C   0  0  2  0  0  0  0  0  0  0  0  0
  139.3320   67.4280  221.9040 O   0  0  0  0  0  0  0  0  0  0  0  0
  138.7820   68.5490  223.9830 C   0  0  0  0  0  0  0  0  0  0  0  0
  138.2780   69.9360  224.2530 C   0  0  1  0  0  0  0  0  0  0  0  0
  139.3540   70.8970  224.5580 C   0  0  0  0  0  0  0  0  0  0  0  0
  139.6960   71.8370  223.7800 O   0  0  0  0  0  0  0  0  0  0  0  0
  140.0690   70.7970  225.7820 N   0  0  0  0  0  0  0  0  0  0  0  0
  141.1440   71.6950  226.1730 C   0  0  0  0  0  0  0  0  0  0  0  0
  141.1700   71.6460  227.6990 C   0  0  0  0  0  0  0  0  0  0  0  0
  139.9690   70.7930  228.0740 C   0  0  0  0  0  0  0  0  0  0  0  0
  139.9190   69.8460  226.8670 C   0  0  0  0  0  0  0  0  0  0  0  0
  139.2720   75.7580  221.5720 C   0  0  0  0  0  0  0  0  0  0  0  0
  140.5540   75.7740  221.0680 C   0  0  0  0  0  0  0  0  0  0  0  0
  141.4330   76.8120  221.3540 C   0  0  0  0  0  0  0  0  0  0  0  0
  140.9970   77.8460  222.1660 C   0  0  0  0  0  0  0  0  0  0  0  0
  141.8520   78.8950  222.4690 C   0  0  0  0  0  0  0  0  0  0  0  0
  141.3560   79.8840  223.2770 C   0  0  0  0  0  0  0  0  0  0  0  0
  142.4240   81.2220  223.6730 Cl  0  0  0  0  0  0  0  0  0  0  0  0
  140.0700   79.8680  223.7820 C   0  0  0  0  0  0  0  0  0  0  0  0
  139.2190   78.8150  223.4750 C   0  0  0  0  0  0  0  0  0  0  0  0
  139.6940   77.8030  222.6610 C   0  0  0  0  0  0  0  0  0  0  0  0
  138.8740   76.7590  222.3480 N   0  0  0  0  0  0  0  0  0  0  0  0
  138.6480   73.5970  223.0890 H   0  0  0  0  0  0  0  0  0  0  0  0
  136.4648   72.8801  221.2581 H   0  0  0  0  0  0  0  0  0  0  0  0
  137.9549   71.8475  221.0388 H   0  0  0  0  0  0  0  0  0  0  0  0
  136.9790   68.5553  222.0525 H   0  0  0  0  0  0  0  0  0  0  0  0
  137.8193   69.6281  220.9740 H   0  0  0  0  0  0  0  0  0  0  0  0
  140.0359   69.2209  222.2618 H   0  0  0  0  0  0  0  0  0  0  0  0
  139.7830   66.8650  222.5850 H   0  0  0  0  0  0  0  0  0  0  0  0
  138.0065   67.7912  224.1684 H   0  0  0  0  0  0  0  0  0  0  0  0
  139.6209   68.2324  224.6202 H   0  0  0  0  0  0  0  0  0  0  0  0
  137.6166   69.9312  225.1319 H   0  0  0  0  0  0  0  0  0  0  0  0
  142.1036   71.3513  225.7594 H   0  0  0  0  0  0  0  0  0  0  0  0
  140.9845   72.7162  225.7967 H   0  0  0  0  0  0  0  0  0  0  0  0
  142.1018   71.1840  228.0572 H   0  0  0  0  0  0  0  0  0  0  0  0
  141.1278   72.6484  228.1500 H   0  0  0  0  0  0  0  0  0  0  0  0
  140.1354   70.2463  229.0139 H   0  0  0  0  0  0  0  0  0  0  0  0
  139.0422   71.3568  228.2561 H   0  0  0  0  0  0  0  0  0  0  0  0
  140.7437   69.1183  226.8867 H   0  0  0  0  0  0  0  0  0  0  0  0
  139.0148   69.2222  226.8095 H   0  0  0  0  0  0  0  0  0  0  0  0
  140.8894   74.9470  220.4249 H   0  0  0  0  0  0  0  0  0  0  0  0
  142.4537   76.8123  220.9440 H   0  0  0  0  0  0  0  0  0  0  0  0
  142.8799   78.9313  222.0790 H   0  0  0  0  0  0  0  0  0  0  0  0
  139.7210   80.6884  224.4263 H   0  0  0  0  0  0  0  0  0  0  0  0
  138.1925   78.7864  223.8694 H   0  0  0  0  0  0  0  0  0  0  0  0
  1  2  2  0
  2  3  1  0
  3  4  1  0
  4  5  1  0
  5  6  2  0
  5  7  1  0
  7  8  1  0
  8  9  1  0
  9 10  1  0
  9 11  1  0
 11 12  1  0
 12 13  1  0
 13 14  2  0
 13 15  1  0
 15 16  1  0
 16 17  1  0
 17 18  1  0
 18 19  1  0
  2 20  1  0
 20 21  2  0
 21 22  1  0
 22 23  2  0
 23 24  1  0
 24 25  2  0
 25 26  1  0
 25 27  1  0
 27 28  2  0
 28 29  1  0
 29 30  2  0
 12  7  1  0
 19 15  1  0
 30 20  1  0
 29 23  1  0
  3 31  1  0
  4 32  1  0
  4 33  1  0
  8 34  1  0
  8 35  1  0
  9 36  1  1
 10 37  1  0
 11 38  1  0
 11 39  1  0
 12 40  1  1
 16 41  1  0
 16 42  1  0
 17 43  1  0
 17 44  1  0
 18 45  1  0
 18 46  1  0
 19 47  1  0
 19 48  1  0
 21 49  1  0
 22 50  1  0
 24 51  1  0
 27 52  1  0
 28 53  1  0
M  END
>  <smiles>  (29) 
O=C(NCC(=O)N1C[C@H](O)C[C@H]1C(=O)N1CCCC1)c1ccc2cc(Cl)ccc2n1

>  <score_type>  (29) 
oracle

>  <origin>  (29) 
autodockgpu

>  <m_score__min__energy>  (29) 
-8.0099999999999998

>  <m_primary>  (29) 
energy

>  <rmsd>  (29) 
8.793207133653466

>  <m_score__min__rmsd>  (29) 
8.793207133653466

>  <meeko>  (29) 
{"free_energy": -7.45, "intermolecular_energy": -9.24, "internal_energy": -1.99, "cluster_size": 6, "cluster_id": 4, "rank_in_cluster": 3}

>  <energy>  (29) 
-5.98

>  <cluster_rmsd>  (29) 
1.74

>  <cluster>  (29) 
3

$$$$

     RDKit          3D

 53 56  0  0  0  0  0  0  0  0999 V2000
  136.6840   74.2880  221.0000 O   0  0  0  0  0  0  0  0  0  0  0  0
  137.6700   74.4300  221.7690 C   0  0  0  0  0  0  0  0  0  0  0  0
  138.2410   73.2320  222.3230 N   0  0  0  0  0  0  0  0  0  0  0  0
  137.6510   71.9830  221.9610 C   0  0  0  0  0  0  0  0  0  0  0  0
  136.9780   71.3010  223.0920 C   0  0  0  0  0  0  0  0  0  0  0  0
  135.9300   71.8020  223.6140 O   0  0  0  0  0  0  0  0  0  0  0  0
  137.5500   70.0830  223.5570 N   0  0  0  0  0  0  0  0  0  0  0  0
  137.5780   68.7820  222.9020 C   0  0  0  0  0  0  0  0  0  0  0  0
  138.8560   68.1860  223.4900 C   0  0  2  0  0  0  0  0  0  0  0  0
  138.9260   66.8220  223.2570 O   0  0  0  0  0  0  0  0  0  0  0  0
  138.5990   68.5150  224.9620 C   0  0  0  0  0  0  0  0  0  0  0  0
  138.2370   69.9680  224.8530 C   0  0  1  0  0  0  0  0  0  0  0  0
  139.4100   70.8620  224.8470 C   0  0  0  0  0  0  0  0  0  0  0  0
  139.7930   71.5090  223.8270 O   0  0  0  0  0  0  0  0  0  0  0  0
  140.1790   71.0320  226.0300 N   0  0  0  0  0  0  0  0  0  0  0  0
  141.3500   71.8900  226.1230 C   0  0  0  0  0  0  0  0  0  0  0  0
  141.4540   72.2640  227.6000 C   0  0  0  0  0  0  0  0  0  0  0  0
  140.2030   71.6750  228.2310 C   0  0  0  0  0  0  0  0  0  0  0  0
  140.0020   70.4410  227.3420 C   0  0  0  0  0  0  0  0  0  0  0  0
  138.2310   75.7450  222.1020 C   0  0  0  0  0  0  0  0  0  0  0  0
  137.3400   76.7840  222.2610 C   0  0  0  0  0  0  0  0  0  0  0  0
  137.7720   78.0670  222.5770 C   0  0  0  0  0  0  0  0  0  0  0  0
  139.1290   78.2910  222.7330 C   0  0  0  0  0  0  0  0  0  0  0  0
  139.5890   79.5600  223.0490 C   0  0  0  0  0  0  0  0  0  0  0  0
  140.9440   79.7110  223.1890 C   0  0  0  0  0  0  0  0  0  0  0  0
  141.5460   81.3110  223.5880 Cl  0  0  0  0  0  0  0  0  0  0  0  0
  141.8360   78.6680  223.0300 C   0  0  0  0  0  0  0  0  0  0  0  0
  141.3700   77.3990  222.7140 C   0  0  0  0  0  0  0  0  0  0  0  0
  140.0060   77.2190  222.5670 C   0  0  0  0  0  0  0  0  0  0  0  0
  139.5270   75.9810  222.2570 N   0  0  0  0  0  0  0  0  0  0  0  0
  139.0610   73.3110  222.9660 H   0  0  0  0  0  0  0  0  0  0  0  0
  136.9076   72.1644  221.1708 H   0  0  0  0  0  0  0  0  0  0  0  0
  138.4649   71.3250  221.6224 H   0  0  0  0  0  0  0  0  0  0  0  0
  136.6949   68.1799  223.1619 H   0  0  0  0  0  0  0  0  0  0  0  0
  137.5632   68.8276  221.8030 H   0  0  0  0  0  0  0  0  0  0  0  0
  139.8056   68.5636  223.0829 H   0  0  0  0  0  0  0  0  0  0  0  0
  139.8710   66.6230  223.0290 H   0  0  0  0  0  0  0  0  0  0  0  0
  137.7711   67.9191  225.3737 H   0  0  0  0  0  0  0  0  0  0  0  0
  139.4414   68.2997  225.6358 H   0  0  0  0  0  0  0  0  0  0  0  0
  137.6298   70.2702  225.7190 H   0  0  0  0  0  0  0  0  0  0  0  0
  142.2512   71.3499  225.7972 H   0  0  0  0  0  0  0  0  0  0  0  0
  141.2626   72.7773  225.4787 H   0  0  0  0  0  0  0  0  0  0  0  0
  142.3583   71.8273  228.0489 H   0  0  0  0  0  0  0  0  0  0  0  0
  141.5269   73.3510  227.7520 H   0  0  0  0  0  0  0  0  0  0  0  0
  140.3699   71.3965  229.2820 H   0  0  0  0  0  0  0  0  0  0  0  0
  139.3421   72.3586  228.2710 H   0  0  0  0  0  0  0  0  0  0  0  0
  140.7568   69.6669  227.5443 H   0  0  0  0  0  0  0  0  0  0  0  0
  139.0429   69.9221  227.4865 H   0  0  0  0  0  0  0  0  0  0  0  0
  136.2638   76.5942  222.1352 H   0  0  0  0  0  0  0  0  0  0  0  0
  137.0500   78.8876  222.7006 H   0  0  0  0  0  0  0  0  0  0  0  0
  138.8987   80.4062  223.1812 H   0  0  0  0  0  0  0  0  0  0  0  0
  142.9149   78.8430  223.1537 H   0  0  0  0  0  0  0  0  0  0  0  0
  142.0672   76.5582  222.5838 H   0  0  0  0  0  0  0  0  0  0  0  0
  1  2  2  0
  2  3  1  0
  3  4  1  0
  4  5  1  0
  5  6  2  0
  5  7  1  0
  7  8  1  0
  8  9  1  0
  9 10  1  0
  9 11  1  0
 11 12  1  0
 12 13  1  0
 13 14  2  0
 13 15  1  0
 15 16  1  0
 16 17  1  0
 17 18  1  0
 18 19  1  0
  2 20  1  0
 20 21  2  0
 21 22  1  0
 22 23  2  0
 23 24  1  0
 24 25  2  0
 25 26  1  0
 25 27  1  0
 27 28  2  0
 28 29  1  0
 29 30  2  0
 12  7  1  0
 19 15  1  0
 30 20  1  0
 29 23  1  0
  3 31  1  0
  4 32  1  0
  4 33  1  0
  8 34  1  0
  8 35  1  0
  9 36  1  6
 10 37  1  0
 11 38  1  0
 11 39  1  0
 12 40  1  1
 16 41  1  0
 16 42  1  0
 17 43  1  0
 17 44  1  0
 18 45  1  0
 18 46  1  0
 19 47  1  0
 19 48  1  0
 21 49  1  0
 22 50  1  0
 24 51  1  0
 27 52  1  0
 28 53  1  0
M  END
>  <smiles>  (30) 
O=C(NCC(=O)N1C[C@H](O)C[C@H]1C(=O)N1CCCC1)c1ccc2cc(Cl)ccc2n1

>  <score_type>  (30) 
oracle

>  <origin>  (30) 
autodockgpu

>  <m_score__min__energy>  (30) 
-8.0099999999999998

>  <m_primary>  (30) 
energy

>  <rmsd>  (30) 
8.909934601569974

>  <m_score__min__rmsd>  (30) 
8.909934601569974

>  <meeko>  (30) 
{"free_energy": -7.44, "intermolecular_energy": -9.23, "internal_energy": -2.06, "cluster_size": 6, "cluster_id": 4, "rank_in_cluster": 4}

>  <energy>  (30) 
-5.88

>  <cluster_rmsd>  (30) 
1.79

>  <cluster>  (30) 
3

$$$$

     RDKit          3D

 53 56  0  0  0  0  0  0  0  0999 V2000
  136.2390   71.5060  221.8590 O   0  0  0  0  0  0  0  0  0  0  0  0
  137.1780   71.9390  222.5750 C   0  0  0  0  0  0  0  0  0  0  0  0
  137.6340   73.2780  222.3090 N   0  0  0  0  0  0  0  0  0  0  0  0
  136.9910   74.0040  221.2620 C   0  0  0  0  0  0  0  0  0  0  0  0
  137.8360   74.1680  220.0550 C   0  0  0  0  0  0  0  0  0  0  0  0
  137.4240   73.7630  218.9200 O   0  0  0  0  0  0  0  0  0  0  0  0
  139.1070   74.7890  220.2230 N   0  0  0  0  0  0  0  0  0  0  0  0
  139.4070   76.1870  220.5050 C   0  0  0  0  0  0  0  0  0  0  0  0
  140.7340   76.0560  221.2510 C   0  0  2  0  0  0  0  0  0  0  0  0
  141.3790   77.2790  221.3450 O   0  0  0  0  0  0  0  0  0  0  0  0
  141.4380   75.0970  220.2880 C   0  0  0  0  0  0  0  0  0  0  0  0
  140.3750   74.0490  220.1280 C   0  0  1  0  0  0  0  0  0  0  0  0
  140.4040   73.0240  221.1880 C   0  0  0  0  0  0  0  0  0  0  0  0
  140.5140   73.2930  222.4220 O   0  0  0  0  0  0  0  0  0  0  0  0
  140.3070   71.6470  220.8470 N   0  0  0  0  0  0  0  0  0  0  0  0
  140.3260   70.5650  221.8180 C   0  0  0  0  0  0  0  0  0  0  0  0
  139.5890   69.4100  221.1420 C   0  0  0  0  0  0  0  0  0  0  0  0
  139.0710   69.9990  219.8400 C   0  0  0  0  0  0  0  0  0  0  0  0
  140.1730   71.0240  219.5450 C   0  0  0  0  0  0  0  0  0  0  0  0
  137.7980   71.1400  223.6380 C   0  0  0  0  0  0  0  0  0  0  0  0
  137.2180   69.9230  223.9270 C   0  0  0  0  0  0  0  0  0  0  0  0
  137.7310   69.0930  224.9160 C   0  0  0  0  0  0  0  0  0  0  0  0
  138.8490   69.5090  225.6190 C   0  0  0  0  0  0  0  0  0  0  0  0
  139.3820   68.7020  226.6120 C   0  0  0  0  0  0  0  0  0  0  0  0
  140.4890   69.1750  227.2670 C   0  0  0  0  0  0  0  0  0  0  0  0
  141.1790   68.1660  228.5280 Cl  0  0  0  0  0  0  0  0  0  0  0  0
  141.0700   70.3930  226.9770 C   0  0  0  0  0  0  0  0  0  0  0  0
  140.5310   71.1980  225.9810 C   0  0  0  0  0  0  0  0  0  0  0  0
  139.4140   70.7440  225.3040 C   0  0  0  0  0  0  0  0  0  0  0  0
  138.8690   71.5190  224.3230 N   0  0  0  0  0  0  0  0  0  0  0  0
  138.4130   73.6720  222.8840 H   0  0  0  0  0  0  0  0  0  0  0  0
  136.0751   73.4661  220.9761 H   0  0  0  0  0  0  0  0  0  0  0  0
  136.7776   75.0115  221.6486 H   0  0  0  0  0  0  0  0  0  0  0  0
  139.5199   76.7705  219.5794 H   0  0  0  0  0  0  0  0  0  0  0  0
  138.6218   76.7149  221.0660 H   0  0  0  0  0  0  0  0  0  0  0  0
  140.6774   75.7160  222.2956 H   0  0  0  0  0  0  0  0  0  0  0  0
  142.1530   77.1440  221.9500 H   0  0  0  0  0  0  0  0  0  0  0  0
  141.6768   75.5838  219.3309 H   0  0  0  0  0  0  0  0  0  0  0  0
  142.4081   74.7184  220.6424 H   0  0  0  0  0  0  0  0  0  0  0  0
  140.5179   73.5099  219.1799 H   0  0  0  0  0  0  0  0  0  0  0  0
  141.3608   70.2768  222.0548 H   0  0  0  0  0  0  0  0  0  0  0  0
  139.8534   70.8555  222.7679 H   0  0  0  0  0  0  0  0  0  0  0  0
  140.2754   68.5734  220.9444 H   0  0  0  0  0  0  0  0  0  0  0  0
  138.7807   69.0056  221.7689 H   0  0  0  0  0  0  0  0  0  0  0  0
  139.0006   69.2381  219.0487 H   0  0  0  0  0  0  0  0  0  0  0  0
  138.0556   70.4182  219.8962 H   0  0  0  0  0  0  0  0  0  0  0  0
  141.1074   70.5368  219.2295 H   0  0  0  0  0  0  0  0  0  0  0  0
  139.9450   71.7200  218.7243 H   0  0  0  0  0  0  0  0  0  0  0  0
  136.3301   69.6023  223.3624 H   0  0  0  0  0  0  0  0  0  0  0  0
  137.2583   68.1245  225.1362 H   0  0  0  0  0  0  0  0  0  0  0  0
  138.9373   67.7276  226.8625 H   0  0  0  0  0  0  0  0  0  0  0  0
  141.9585   70.7259  227.5336 H   0  0  0  0  0  0  0  0  0  0  0  0
  140.9813   72.1715  225.7373 H   0  0  0  0  0  0  0  0  0  0  0  0
  1  2  2  0
  2  3  1  0
  3  4  1  0
  4  5  1  0
  5  6  2  0
  5  7  1  0
  7  8  1  0
  8  9  1  0
  9 10  1  0
  9 11  1  0
 11 12  1  0
 12 13  1  0
 13 14  2  0
 13 15  1  0
 15 16  1  0
 16 17  1  0
 17 18  1  0
 18 19  1  0
  2 20  1  0
 20 21  2  0
 21 22  1  0
 22 23  2  0
 23 24  1  0
 24 25  2  0
 25 26  1  0
 25 27  1  0
 27 28  2  0
 28 29  1  0
 29 30  2  0
 12  7  1  0
 19 15  1  0
 30 20  1  0
 29 23  1  0
  3 31  1  0
  4 32  1  0
  4 33  1  0
  8 34  1  0
  8 35  1  0
  9 36  1  1
 10 37  1  0
 11 38  1  0
 11 39  1  0
 12 40  1  6
 16 41  1  0
 16 42  1  0
 17 43  1  0
 17 44  1  0
 18 45  1  0
 18 46  1  0
 19 47  1  0
 19 48  1  0
 21 49  1  0
 22 50  1  0
 24 51  1  0
 27 52  1  0
 28 53  1  0
M  END
>  <smiles>  (31) 
O=C(NCC(=O)N1C[C@H](O)C[C@H]1C(=O)N1CCCC1)c1ccc2cc(Cl)ccc2n1

>  <score_type>  (31) 
oracle

>  <origin>  (31) 
autodockgpu

>  <m_score__min__energy>  (31) 
-8.0099999999999998

>  <m_primary>  (31) 
energy

>  <rmsd>  (31) 
4.987904662741702

>  <m_score__min__rmsd>  (31) 
4.987904662741702

>  <meeko>  (31) 
{"free_energy": -6.12, "intermolecular_energy": -7.91, "internal_energy": -3.45, "cluster_size": 10, "cluster_id": 7, "rank_in_cluster": 8}

>  <energy>  (31) 
-7.58

>  <cluster_rmsd>  (31) 
0.0

>  <cluster>  (31) 
4

$$$$

     RDKit          3D

 53 56  0  0  0  0  0  0  0  0999 V2000
  136.2580   71.4610  221.8730 O   0  0  0  0  0  0  0  0  0  0  0  0
  137.1960   71.9000  222.5870 C   0  0  0  0  0  0  0  0  0  0  0  0
  137.6510   73.2360  222.3140 N   0  0  0  0  0  0  0  0  0  0  0  0
  137.0090   73.9570  221.2610 C   0  0  0  0  0  0  0  0  0  0  0  0
  137.8950   74.2190  220.1030 C   0  0  0  0  0  0  0  0  0  0  0  0
  137.5350   73.8820  218.9280 O   0  0  0  0  0  0  0  0  0  0  0  0
  139.1420   74.8550  220.3610 N   0  0  0  0  0  0  0  0  0  0  0  0
  139.3980   76.2400  220.7350 C   0  0  0  0  0  0  0  0  0  0  0  0
  140.6940   76.0940  221.5290 C   0  0  2  0  0  0  0  0  0  0  0  0
  141.3060   77.3230  221.7210 O   0  0  0  0  0  0  0  0  0  0  0  0
  141.4600   75.2070  220.5470 C   0  0  0  0  0  0  0  0  0  0  0  0
  140.4300   74.1480  220.2810 C   0  0  1  0  0  0  0  0  0  0  0  0
  140.4370   73.0650  221.2810 C   0  0  0  0  0  0  0  0  0  0  0  0
  140.5450   73.2620  222.5290 O   0  0  0  0  0  0  0  0  0  0  0  0
  140.3190   71.7110  220.8630 N   0  0  0  0  0  0  0  0  0  0  0  0
  140.3160   70.5750  221.7710 C   0  0  0  0  0  0  0  0  0  0  0  0
  139.5640   69.4730  221.0280 C   0  0  0  0  0  0  0  0  0  0  0  0
  139.0610   70.1430  219.7600 C   0  0  0  0  0  0  0  0  0  0  0  0
  140.1820   71.1650  219.5270 C   0  0  0  0  0  0  0  0  0  0  0  0
  137.8150   71.1070  223.6550 C   0  0  0  0  0  0  0  0  0  0  0  0
  137.2420   69.8870  223.9450 C   0  0  0  0  0  0  0  0  0  0  0  0
  137.7540   69.0630  224.9390 C   0  0  0  0  0  0  0  0  0  0  0  0
  138.8660   69.4880  225.6460 C   0  0  0  0  0  0  0  0  0  0  0  0
  139.3990   68.6860  226.6440 C   0  0  0  0  0  0  0  0  0  0  0  0
  140.5000   69.1680  227.3040 C   0  0  0  0  0  0  0  0  0  0  0  0
  141.1900   68.1670  228.5710 Cl  0  0  0  0  0  0  0  0  0  0  0  0
  141.0750   70.3900  227.0130 C   0  0  0  0  0  0  0  0  0  0  0  0
  140.5360   71.1890  226.0130 C   0  0  0  0  0  0  0  0  0  0  0  0
  139.4250   70.7260  225.3310 C   0  0  0  0  0  0  0  0  0  0  0  0
  138.8810   71.4950  224.3450 N   0  0  0  0  0  0  0  0  0  0  0  0
  138.4290   73.6350  222.8870 H   0  0  0  0  0  0  0  0  0  0  0  0
  136.1450   73.3715  220.9137 H   0  0  0  0  0  0  0  0  0  0  0  0
  136.7115   74.9338  221.6702 H   0  0  0  0  0  0  0  0  0  0  0  0
  139.5365   76.8782  219.8499 H   0  0  0  0  0  0  0  0  0  0  0  0
  138.5778   76.7181  221.2906 H   0  0  0  0  0  0  0  0  0  0  0  0
  140.6007   75.6934  222.5492 H   0  0  0  0  0  0  0  0  0  0  0  0
  142.1630   77.1410  222.1850 H   0  0  0  0  0  0  0  0  0  0  0  0
  141.7287   75.7525  219.6304 H   0  0  0  0  0  0  0  0  0  0  0  0
  142.4222   74.8289  220.9228 H   0  0  0  0  0  0  0  0  0  0  0  0
  140.6265   73.6671  219.3114 H   0  0  0  0  0  0  0  0  0  0  0  0
  141.3449   70.2569  221.9948 H   0  0  0  0  0  0  0  0  0  0  0  0
  139.8437   70.8187  222.7341 H   0  0  0  0  0  0  0  0  0  0  0  0
  140.2378   68.6381  220.7854 H   0  0  0  0  0  0  0  0  0  0  0  0
  138.7465   69.0469  221.6282 H   0  0  0  0  0  0  0  0  0  0  0  0
  138.9812   69.4293  218.9267 H   0  0  0  0  0  0  0  0  0  0  0  0
  138.0524   70.5752  219.8365 H   0  0  0  0  0  0  0  0  0  0  0  0
  141.1099   70.6808  219.1884 H   0  0  0  0  0  0  0  0  0  0  0  0
  139.9701   71.9096  218.7455 H   0  0  0  0  0  0  0  0  0  0  0  0
  136.3594   69.5588  223.3763 H   0  0  0  0  0  0  0  0  0  0  0  0
  137.2856   68.0926  225.1600 H   0  0  0  0  0  0  0  0  0  0  0  0
  138.9593   67.7093  226.8943 H   0  0  0  0  0  0  0  0  0  0  0  0
  141.9588   70.7298  227.5728 H   0  0  0  0  0  0  0  0  0  0  0  0
  140.9811   72.1650  225.7695 H   0  0  0  0  0  0  0  0  0  0  0  0
  1  2  2  0
  2  3  1  0
  3  4  1  0
  4  5  1  0
  5  6  2  0
  5  7  1  0
  7  8  1  0
  8  9  1  0
  9 10  1  0
  9 11  1  0
 11 12  1  0
 12 13  1  0
 13 14  2  0
 13 15  1  0
 15 16  1  0
 16 17  1  0
 17 18  1  0
 18 19  1  0
  2 20  1  0
 20 21  2  0
 21 22  1  0
 22 23  2  0
 23 24  1  0
 24 25  2  0
 25 26  1  0
 25 27  1  0
 27 28  2  0
 28 29  1  0
 29 30  2  0
 12  7  1  0
 19 15  1  0
 30 20  1  0
 29 23  1  0
  3 31  1  0
  4 32  1  0
  4 33  1  0
  8 34  1  0
  8 35  1  0
  9 36  1  1
 10 37  1  0
 11 38  1  0
 11 39  1  0
 12 40  1  6
 16 41  1  0
 16 42  1  0
 17 43  1  0
 17 44  1  0
 18 45  1  0
 18 46  1  0
 19 47  1  0
 19 48  1  0
 21 49  1  0
 22 50  1  0
 24 51  1  0
 27 52  1  0
 28 53  1  0
M  END
>  <smiles>  (32) 
O=C(NCC(=O)N1C[C@H](O)C[C@H]1C(=O)N1CCCC1)c1ccc2cc(Cl)ccc2n1

>  <score_type>  (32) 
oracle

>  <origin>  (32) 
autodockgpu

>  <m_score__min__energy>  (32) 
-8.0099999999999998

>  <m_primary>  (32) 
energy

>  <rmsd>  (32) 
4.9660831346227345

>  <m_score__min__rmsd>  (32) 
4.9660831346227345

>  <meeko>  (32) 
{"free_energy": -6.25, "intermolecular_energy": -8.04, "internal_energy": -3.46, "cluster_size": 10, "cluster_id": 7, "rank_in_cluster": 6}

>  <energy>  (32) 
-7.5

>  <cluster_rmsd>  (32) 
1.13

>  <cluster>  (32) 
4

$$$$

     RDKit          3D

 53 56  0  0  0  0  0  0  0  0999 V2000
  136.2890   71.3150  221.8130 O   0  0  0  0  0  0  0  0  0  0  0  0
  137.1950   71.7880  222.5460 C   0  0  0  0  0  0  0  0  0  0  0  0
  137.5820   73.1520  222.3020 N   0  0  0  0  0  0  0  0  0  0  0  0
  136.9140   73.8580  221.2570 C   0  0  0  0  0  0  0  0  0  0  0  0
  137.8370   74.4090  220.2360 C   0  0  0  0  0  0  0  0  0  0  0  0
  137.5910   74.2560  218.9960 O   0  0  0  0  0  0  0  0  0  0  0  0
  138.9890   75.1040  220.7000 N   0  0  0  0  0  0  0  0  0  0  0  0
  139.0720   76.4300  221.3020 C   0  0  0  0  0  0  0  0  0  0  0  0
  140.3120   76.2750  222.1790 C   0  0  2  0  0  0  0  0  0  0  0  0
  140.7780   77.5070  222.6100 O   0  0  0  0  0  0  0  0  0  0  0  0
  141.2380   75.6280  221.1470 C   0  0  0  0  0  0  0  0  0  0  0  0
  140.3460   74.5380  220.6310 C   0  0  1  0  0  0  0  0  0  0  0  0
  140.3880   73.3140  221.4520 C   0  0  0  0  0  0  0  0  0  0  0  0
  140.4820   73.3190  222.7160 O   0  0  0  0  0  0  0  0  0  0  0  0
  140.3220   72.0380  220.8280 N   0  0  0  0  0  0  0  0  0  0  0  0
  140.3570   70.7760  221.5500 C   0  0  0  0  0  0  0  0  0  0  0  0
  139.6510   69.7760  220.6380 C   0  0  0  0  0  0  0  0  0  0  0  0
  139.1300   70.6140  219.4830 C   0  0  0  0  0  0  0  0  0  0  0  0
  140.2120   71.7000  219.4230 C   0  0  0  0  0  0  0  0  0  0  0  0
  137.8450   71.0080  223.6060 C   0  0  0  0  0  0  0  0  0  0  0  0
  137.3720   69.7320  223.8250 C   0  0  0  0  0  0  0  0  0  0  0  0
  137.9200   68.9140  224.8050 C   0  0  0  0  0  0  0  0  0  0  0  0
  138.9640   69.4050  225.5710 C   0  0  0  0  0  0  0  0  0  0  0  0
  139.5300   68.6110  226.5570 C   0  0  0  0  0  0  0  0  0  0  0  0
  140.5600   69.1590  227.2770 C   0  0  0  0  0  0  0  0  0  0  0  0
  141.2910   68.1700  228.5310 Cl  0  0  0  0  0  0  0  0  0  0  0  0
  141.0340   70.4380  227.0570 C   0  0  0  0  0  0  0  0  0  0  0  0
  140.4620   71.2280  226.0680 C   0  0  0  0  0  0  0  0  0  0  0  0
  139.4220   70.6990  225.3260 C   0  0  0  0  0  0  0  0  0  0  0  0
  138.8460   71.4580  224.3500 N   0  0  0  0  0  0  0  0  0  0  0  0
  138.3330   73.5790  222.8910 H   0  0  0  0  0  0  0  0  0  0  0  0
  136.2163   73.1677  220.7603 H   0  0  0  0  0  0  0  0  0  0  0  0
  136.3957   74.7104  221.7204 H   0  0  0  0  0  0  0  0  0  0  0  0
  139.2111   77.2114  220.5404 H   0  0  0  0  0  0  0  0  0  0  0  0
  138.1673   76.7381  221.8465 H   0  0  0  0  0  0  0  0  0  0  0  0
  140.1832   75.7094  223.1136 H   0  0  0  0  0  0  0  0  0  0  0  0
  140.0230   77.9460  223.0790 H   0  0  0  0  0  0  0  0  0  0  0  0
  141.5182   76.3349  220.3521 H   0  0  0  0  0  0  0  0  0  0  0  0
  142.2025   75.2823  221.5472 H   0  0  0  0  0  0  0  0  0  0  0  0
  140.6642   74.2386  219.6215 H   0  0  0  0  0  0  0  0  0  0  0  0
  141.3960   70.4647  221.7333 H   0  0  0  0  0  0  0  0  0  0  0  0
  139.8710   70.8507  222.5340 H   0  0  0  0  0  0  0  0  0  0  0  0
  140.3570   69.0135  220.2773 H   0  0  0  0  0  0  0  0  0  0  0  0
  138.8467   69.2335  221.1565 H   0  0  0  0  0  0  0  0  0  0  0  0
  139.0823   70.0349  218.5490 H   0  0  0  0  0  0  0  0  0  0  0  0
  138.1051   70.9916  219.6135 H   0  0  0  0  0  0  0  0  0  0  0  0
  141.1592   71.3084  219.0238 H   0  0  0  0  0  0  0  0  0  0  0  0
  139.9753   72.5482  218.7638 H   0  0  0  0  0  0  0  0  0  0  0  0
  136.5423   69.3530  223.2102 H   0  0  0  0  0  0  0  0  0  0  0  0
  137.5328   67.8976  224.9691 H   0  0  0  0  0  0  0  0  0  0  0  0
  139.1697   67.5902  226.7522 H   0  0  0  0  0  0  0  0  0  0  0  0
  141.8632   70.8301  227.6642 H   0  0  0  0  0  0  0  0  0  0  0  0
  140.8271   72.2484  225.8798 H   0  0  0  0  0  0  0  0  0  0  0  0
  1  2  2  0
  2  3  1  0
  3  4  1  0
  4  5  1  0
  5  6  2  0
  5  7  1  0
  7  8  1  0
  8  9  1  0
  9 10  1  0
  9 11  1  0
 11 12  1  0
 12 13  1  0
 13 14  2  0
 13 15  1  0
 15 16  1  0
 16 17  1  0
 17 18  1  0
 18 19  1  0
  2 20  1  0
 20 21  2  0
 21 22  1  0
 22 23  2  0
 23 24  1  0
 24 25  2  0
 25 26  1  0
 25 27  1  0
 27 28  2  0
 28 29  1  0
 29 30  2  0
 12  7  1  0
 19 15  1  0
 30 20  1  0
 29 23  1  0
  3 31  1  0
  4 32  1  0
  4 33  1  0
  8 34  1  0
  8 35  1  0
  9 36  1  1
 10 37  1  0
 11 38  1  0
 11 39  1  0
 12 40  1  6
 16 41  1  0
 16 42  1  0
 17 43  1  0
 17 44  1  0
 18 45  1  0
 18 46  1  0
 19 47  1  0
 19 48  1  0
 21 49  1  0
 22 50  1  0
 24 51  1  0
 27 52  1  0
 28 53  1  0
M  END
>  <smiles>  (33) 
O=C(NCC(=O)N1C[C@H](O)C[C@H]1C(=O)N1CCCC1)c1ccc2cc(Cl)ccc2n1

>  <score_type>  (33) 
oracle

>  <origin>  (33) 
autodockgpu

>  <m_score__min__energy>  (33) 
-8.0099999999999998

>  <m_primary>  (33) 
energy

>  <rmsd>  (33) 
4.845885902119054

>  <m_score__min__rmsd>  (33) 
4.845885902119054

>  <meeko>  (33) 
{"free_energy": -5.87, "intermolecular_energy": -7.66, "internal_energy": -3.47, "cluster_size": 10, "cluster_id": 7, "rank_in_cluster": 10}

>  <energy>  (33) 
-7.45

>  <cluster_rmsd>  (33) 
0.51

>  <cluster>  (33) 
4

$$$$

     RDKit          3D

 53 56  0  0  0  0  0  0  0  0999 V2000
  136.8360   74.8820  220.9090 O   0  0  0  0  0  0  0  0  0  0  0  0
  137.7910   74.7190  221.7120 C   0  0  0  0  0  0  0  0  0  0  0  0
  137.9020   73.4280  222.3370 N   0  0  0  0  0  0  0  0  0  0  0  0
  136.9280   72.4390  222.0020 C   0  0  0  0  0  0  0  0  0  0  0  0
  136.7240   71.4300  223.0670 C   0  0  0  0  0  0  0  0  0  0  0  0
  135.8790   71.6360  223.9970 O   0  0  0  0  0  0  0  0  0  0  0  0
  137.5030   70.2400  223.0010 N   0  0  0  0  0  0  0  0  0  0  0  0
  137.6870   69.3320  221.8750 C   0  0  0  0  0  0  0  0  0  0  0  0
  139.0760   68.7720  222.1750 C   0  0  2  0  0  0  0  0  0  0  0  0
  139.3370   67.6460  221.4110 O   0  0  0  0  0  0  0  0  0  0  0  0
  138.8680   68.4390  223.6540 C   0  0  0  0  0  0  0  0  0  0  0  0
  138.2830   69.7320  224.1410 C   0  0  1  0  0  0  0  0  0  0  0  0
  139.3040   70.7350  224.4990 C   0  0  0  0  0  0  0  0  0  0  0  0
  139.5800   71.7420  223.7810 O   0  0  0  0  0  0  0  0  0  0  0  0
  140.0400   70.5990  225.7070 N   0  0  0  0  0  0  0  0  0  0  0  0
  141.0640   71.5330  226.1460 C   0  0  0  0  0  0  0  0  0  0  0  0
  141.1130   71.3870  227.6650 C   0  0  0  0  0  0  0  0  0  0  0  0
  139.9690   70.4410  227.9940 C   0  0  0  0  0  0  0  0  0  0  0  0
  139.9600   69.5730  226.7290 C   0  0  0  0  0  0  0  0  0  0  0  0
  138.7600   75.7780  222.0150 C   0  0  0  0  0  0  0  0  0  0  0  0
  140.0810   75.5250  221.7160 C   0  0  0  0  0  0  0  0  0  0  0  0
  141.0740   76.4640  221.9660 C   0  0  0  0  0  0  0  0  0  0  0  0
  140.7140   77.6770  222.5280 C   0  0  0  0  0  0  0  0  0  0  0  0
  141.6840   78.6330  222.7880 C   0  0  0  0  0  0  0  0  0  0  0  0
  141.2580   79.8110  223.3450 C   0  0  0  0  0  0  0  0  0  0  0  0
  142.4710   81.0350  223.6830 Cl  0  0  0  0  0  0  0  0  0  0  0  0
  139.9340   80.0650  223.6440 C   0  0  0  0  0  0  0  0  0  0  0  0
  138.9670   79.1040  223.3810 C   0  0  0  0  0  0  0  0  0  0  0  0
  139.3700   77.9060  222.8200 C   0  0  0  0  0  0  0  0  0  0  0  0
  138.4360   76.9470  222.5530 N   0  0  0  0  0  0  0  0  0  0  0  0
  138.6820   73.2560  223.0110 H   0  0  0  0  0  0  0  0  0  0  0  0
  135.9694   72.9440  221.8118 H   0  0  0  0  0  0  0  0  0  0  0  0
  137.2995   71.9046  221.1152 H   0  0  0  0  0  0  0  0  0  0  0  0
  136.9249   68.5388  221.8671 H   0  0  0  0  0  0  0  0  0  0  0  0
  137.5942   69.8092  220.8883 H   0  0  0  0  0  0  0  0  0  0  0  0
  139.9285   69.4322  221.9574 H   0  0  0  0  0  0  0  0  0  0  0  0
  140.1170   67.1970  221.8270 H   0  0  0  0  0  0  0  0  0  0  0  0
  138.1690   67.6002  223.7878 H   0  0  0  0  0  0  0  0  0  0  0  0
  139.7755   68.1157  224.1849 H   0  0  0  0  0  0  0  0  0  0  0  0
  137.6947   69.5580  225.0540 H   0  0  0  0  0  0  0  0  0  0  0  0
  142.0369   71.2756  225.7020 H   0  0  0  0  0  0  0  0  0  0  0  0
  140.8387   72.5649  225.8389 H   0  0  0  0  0  0  0  0  0  0  0  0
  142.0750   70.9592  227.9836 H   0  0  0  0  0  0  0  0  0  0  0  0
  141.0179   72.3537  228.1813 H   0  0  0  0  0  0  0  0  0  0  0  0
  140.1792   69.8457  228.8948 H   0  0  0  0  0  0  0  0  0  0  0  0
  139.0128   70.9354  228.2204 H   0  0  0  0  0  0  0  0  0  0  0  0
  140.8264   68.8961  226.6942 H   0  0  0  0  0  0  0  0  0  0  0  0
  139.0935   68.9013  226.6389 H   0  0  0  0  0  0  0  0  0  0  0  0
  140.3555   74.5580  221.2694 H   0  0  0  0  0  0  0  0  0  0  0  0
  142.1247   76.2481  221.7224 H   0  0  0  0  0  0  0  0  0  0  0  0
  142.7449   78.4547  222.5583 H   0  0  0  0  0  0  0  0  0  0  0  0
  139.6456   81.0282  224.0903 H   0  0  0  0  0  0  0  0  0  0  0  0
  137.9080   79.2907  223.6128 H   0  0  0  0  0  0  0  0  0  0  0  0
  1  2  2  0
  2  3  1  0
  3  4  1  0
  4  5  1  0
  5  6  2  0
  5  7  1  0
  7  8  1  0
  8  9  1  0
  9 10  1  0
  9 11  1  0
 11 12  1  0
 12 13  1  0
 13 14  2  0
 13 15  1  0
 15 16  1  0
 16 17  1  0
 17 18  1  0
 18 19  1  0
  2 20  1  0
 20 21  2  0
 21 22  1  0
 22 23  2  0
 23 24  1  0
 24 25  2  0
 25 26  1  0
 25 27  1  0
 27 28  2  0
 28 29  1  0
 29 30  2  0
 12  7  1  0
 19 15  1  0
 30 20  1  0
 29 23  1  0
  3 31  1  0
  4 32  1  0
  4 33  1  0
  8 34  1  0
  8 35  1  0
  9 36  1  1
 10 37  1  0
 11 38  1  0
 11 39  1  0
 12 40  1  1
 16 41  1  0
 16 42  1  0
 17 43  1  0
 17 44  1  0
 18 45  1  0
 18 46  1  0
 19 47  1  0
 19 48  1  0
 21 49  1  0
 22 50  1  0
 24 51  1  0
 27 52  1  0
 28 53  1  0
M  END
>  <smiles>  (34) 
O=C(NCC(=O)N1C[C@H](O)C[C@H]1C(=O)N1CCCC1)c1ccc2cc(Cl)ccc2n1

>  <score_type>  (34) 
oracle

>  <origin>  (34) 
autodockgpu

>  <m_score__min__energy>  (34) 
-8.0099999999999998

>  <m_primary>  (34) 
energy

>  <rmsd>  (34) 
8.785437958014096

>  <m_score__min__rmsd>  (34) 
8.785437958014096

>  <meeko>  (34) 
{"free_energy": -7.58, "intermolecular_energy": -9.37, "internal_energy": -2.03, "cluster_size": 6, "cluster_id": 4, "rank_in_cluster": 1}

>  <energy>  (34) 
-7.44

>  <cluster_rmsd>  (34) 
0.92

>  <cluster>  (34) 
4

$$$$

     RDKit          3D

 53 56  0  0  0  0  0  0  0  0999 V2000
  135.0130   68.4880  224.6780 O   0  0  0  0  0  0  0  0  0  0  0  0
  135.1700   69.6710  224.2790 C   0  0  0  0  0  0  0  0  0  0  0  0
  135.9700   69.8570  223.0980 N   0  0  0  0  0  0  0  0  0  0  0  0
  136.5200   68.6960  222.4760 C   0  0  0  0  0  0  0  0  0  0  0  0
  137.9680   68.5190  222.7360 C   0  0  0  0  0  0  0  0  0  0  0  0
  138.4710   67.3510  222.8130 O   0  0  0  0  0  0  0  0  0  0  0  0
  138.7550   69.6950  222.8920 N   0  0  0  0  0  0  0  0  0  0  0  0
  138.7420   70.9130  222.0900 C   0  0  0  0  0  0  0  0  0  0  0  0
  139.1910   71.9460  223.1210 C   0  0  2  0  0  0  0  0  0  0  0  0
  139.5610   73.1340  222.5120 O   0  0  0  0  0  0  0  0  0  0  0  0
  140.3890   71.1850  223.6940 C   0  0  0  0  0  0  0  0  0  0  0  0
  139.7580   69.8500  223.9580 C   0  0  1  0  0  0  0  0  0  0  0  0
  139.0730   69.7760  225.2630 C   0  0  0  0  0  0  0  0  0  0  0  0
  137.8250   69.9370  225.4100 O   0  0  0  0  0  0  0  0  0  0  0  0
  139.8210   69.5140  226.4430 N   0  0  0  0  0  0  0  0  0  0  0  0
  139.2390   69.4230  227.7720 C   0  0  0  0  0  0  0  0  0  0  0  0
  140.2010   68.5460  228.5700 C   0  0  0  0  0  0  0  0  0  0  0  0
  141.2260   68.0780  227.5490 C   0  0  0  0  0  0  0  0  0  0  0  0
  141.2440   69.2880  226.6050 C   0  0  0  0  0  0  0  0  0  0  0  0
  134.5770   70.8250  224.9650 C   0  0  0  0  0  0  0  0  0  0  0  0
  133.6300   70.5610  225.9310 C   0  0  0  0  0  0  0  0  0  0  0  0
  133.0110   71.5850  226.6370 C   0  0  0  0  0  0  0  0  0  0  0  0
  133.3620   72.8940  226.3540 C   0  0  0  0  0  0  0  0  0  0  0  0
  132.7610   73.9360  227.0430 C   0  0  0  0  0  0  0  0  0  0  0  0
  133.1560   75.2060  226.7130 C   0  0  0  0  0  0  0  0  0  0  0  0
  132.4050   76.5400  227.5740 Cl  0  0  0  0  0  0  0  0  0  0  0  0
  134.1050   75.4700  225.7450 C   0  0  0  0  0  0  0  0  0  0  0  0
  134.7040   74.4220  225.0590 C   0  0  0  0  0  0  0  0  0  0  0  0
  134.3240   73.1300  225.3720 C   0  0  0  0  0  0  0  0  0  0  0  0
  134.9000   72.0860  224.7100 N   0  0  0  0  0  0  0  0  0  0  0  0
  136.1230   70.8260  222.7360 H   0  0  0  0  0  0  0  0  0  0  0  0
  135.9870   67.8117  222.8553 H   0  0  0  0  0  0  0  0  0  0  0  0
  136.3981   68.8210  221.3899 H   0  0  0  0  0  0  0  0  0  0  0  0
  139.4471   70.8498  221.2481 H   0  0  0  0  0  0  0  0  0  0  0  0
  137.7734   71.1348  221.6182 H   0  0  0  0  0  0  0  0  0  0  0  0
  138.4381   72.2609  223.8586 H   0  0  0  0  0  0  0  0  0  0  0  0
  138.9560   73.8340  222.8690 H   0  0  0  0  0  0  0  0  0  0  0  0
  141.2097   71.1102  222.9655 H   0  0  0  0  0  0  0  0  0  0  0  0
  140.8556   71.6552  224.5722 H   0  0  0  0  0  0  0  0  0  0  0  0
  140.5306   69.0672  223.9750 H   0  0  0  0  0  0  0  0  0  0  0  0
  139.1587   70.4211  228.2273 H   0  0  0  0  0  0  0  0  0  0  0  0
  138.2226   69.0030  227.7483 H   0  0  0  0  0  0  0  0  0  0  0  0
  140.6852   69.1270  229.3687 H   0  0  0  0  0  0  0  0  0  0  0  0
  139.6897   67.7067  229.0642 H   0  0  0  0  0  0  0  0  0  0  0  0
  142.2101   67.9062  228.0094 H   0  0  0  0  0  0  0  0  0  0  0  0
  140.9891   67.1193  227.0645 H   0  0  0  0  0  0  0  0  0  0  0  0
  141.7437   70.1541  227.0635 H   0  0  0  0  0  0  0  0  0  0  0  0
  141.7941   69.1300  225.6657 H   0  0  0  0  0  0  0  0  0  0  0  0
  133.3585   69.5173  226.1476 H   0  0  0  0  0  0  0  0  0  0  0  0
  132.2569   71.3602  227.4056 H   0  0  0  0  0  0  0  0  0  0  0  0
  132.0026   73.7520  227.8182 H   0  0  0  0  0  0  0  0  0  0  0  0
  134.3859   76.5090  225.5178 H   0  0  0  0  0  0  0  0  0  0  0  0
  135.4621   74.6148  224.2857 H   0  0  0  0  0  0  0  0  0  0  0  0
  1  2  2  0
  2  3  1  0
  3  4  1  0
  4  5  1  0
  5  6  2  0
  5  7  1  0
  7  8  1  0
  8  9  1  0
  9 10  1  0
  9 11  1  0
 11 12  1  0
 12 13  1  0
 13 14  2  0
 13 15  1  0
 15 16  1  0
 16 17  1  0
 17 18  1  0
 18 19  1  0
  2 20  1  0
 20 21  2  0
 21 22  1  0
 22 23  2  0
 23 24  1  0
 24 25  2  0
 25 26  1  0
 25 27  1  0
 27 28  2  0
 28 29  1  0
 29 30  2  0
 12  7  1  0
 19 15  1  0
 30 20  1  0
 29 23  1  0
  3 31  1  0
  4 32  1  0
  4 33  1  0
  8 34  1  0
  8 35  1  0
  9 36  1  1
 10 37  1  0
 11 38  1  0
 11 39  1  0
 12 40  1  1
 16 41  1  0
 16 42  1  0
 17 43  1  0
 17 44  1  0
 18 45  1  0
 18 46  1  0
 19 47  1  0
 19 48  1  0
 21 49  1  0
 22 50  1  0
 24 51  1  0
 27 52  1  0
 28 53  1  0
M  END
>  <smiles>  (35) 
O=C(NCC(=O)N1C[C@H](O)C[C@H]1C(=O)N1CCCC1)c1ccc2cc(Cl)ccc2n1

>  <score_type>  (35) 
oracle

>  <origin>  (35) 
autodockgpu

>  <m_score__min__energy>  (35) 
-8.0099999999999998

>  <m_primary>  (35) 
energy

>  <rmsd>  (35) 
8.585617329180362

>  <m_score__min__rmsd>  (35) 
8.585617329180362

>  <meeko>  (35) 
{"free_energy": -7.19, "intermolecular_energy": -8.98, "internal_energy": -2.01, "cluster_size": 3, "cluster_id": 5, "rank_in_cluster": 2}

>  <energy>  (35) 
-7.42

>  <cluster_rmsd>  (35) 
0.41

>  <cluster>  (35) 
4

$$$$

     RDKit          3D

 53 56  0  0  0  0  0  0  0  0999 V2000
  138.8020   72.6420  220.9750 O   0  0  0  0  0  0  0  0  0  0  0  0
  138.4450   73.5470  221.7720 C   0  0  0  0  0  0  0  0  0  0  0  0
  137.2560   73.3020  222.5440 N   0  0  0  0  0  0  0  0  0  0  0  0
  136.5780   72.0620  222.3470 C   0  0  0  0  0  0  0  0  0  0  0  0
  136.5740   71.1960  223.5500 C   0  0  0  0  0  0  0  0  0  0  0  0
  135.8780   71.5140  224.5690 O   0  0  0  0  0  0  0  0  0  0  0  0
  137.3680   70.0160  223.5120 N   0  0  0  0  0  0  0  0  0  0  0  0
  137.4590   69.0120  222.4590 C   0  0  0  0  0  0  0  0  0  0  0  0
  138.8830   68.4990  222.6660 C   0  0  2  0  0  0  0  0  0  0  0  0
  139.0920   67.3120  221.9820 O   0  0  0  0  0  0  0  0  0  0  0  0
  138.8310   68.3000  224.1820 C   0  0  0  0  0  0  0  0  0  0  0  0
  138.2690   69.6240  224.6080 C   0  0  1  0  0  0  0  0  0  0  0  0
  139.2970   70.6690  224.7700 C   0  0  0  0  0  0  0  0  0  0  0  0
  139.5730   71.5270  223.8790 O   0  0  0  0  0  0  0  0  0  0  0  0
  140.0430   70.7500  225.9780 N   0  0  0  0  0  0  0  0  0  0  0  0
  141.0750   71.7420  226.2320 C   0  0  0  0  0  0  0  0  0  0  0  0
  141.1360   71.8750  227.7520 C   0  0  0  0  0  0  0  0  0  0  0  0
  139.9910   71.0110  228.2560 C   0  0  0  0  0  0  0  0  0  0  0  0
  139.9660   69.9280  227.1690 C   0  0  0  0  0  0  0  0  0  0  0  0
  139.1870   74.8040  221.9280 C   0  0  0  0  0  0  0  0  0  0  0  0
  140.5040   74.8090  221.5230 C   0  0  0  0  0  0  0  0  0  0  0  0
  141.2910   75.9490  221.6290 C   0  0  0  0  0  0  0  0  0  0  0  0
  140.7260   77.0990  222.1550 C   0  0  0  0  0  0  0  0  0  0  0  0
  141.4870   78.2520  222.2730 C   0  0  0  0  0  0  0  0  0  0  0  0
  140.8650   79.3530  222.8010 C   0  0  0  0  0  0  0  0  0  0  0  0
  141.8130   80.8240  222.9600 Cl  0  0  0  0  0  0  0  0  0  0  0  0
  139.5450   79.3480  223.2060 C   0  0  0  0  0  0  0  0  0  0  0  0
  138.7880   78.1900  223.0860 C   0  0  0  0  0  0  0  0  0  0  0  0
  139.3910   77.0640  222.5560 C   0  0  0  0  0  0  0  0  0  0  0  0
  138.6650   75.9170  222.4280 N   0  0  0  0  0  0  0  0  0  0  0  0
  136.9280   74.0320  223.2160 H   0  0  0  0  0  0  0  0  0  0  0  0
  135.5357   72.2750  222.0672 H   0  0  0  0  0  0  0  0  0  0  0  0
  137.1176   71.5186  221.5573 H   0  0  0  0  0  0  0  0  0  0  0  0
  136.7172   68.2118  222.5988 H   0  0  0  0  0  0  0  0  0  0  0  0
  137.2585   69.3964  221.4480 H   0  0  0  0  0  0  0  0  0  0  0  0
  139.6952   69.1473  222.3055 H   0  0  0  0  0  0  0  0  0  0  0  0
  138.3100   66.7340  222.1750 H   0  0  0  0  0  0  0  0  0  0  0  0
  138.1677   67.4679  224.4606 H   0  0  0  0  0  0  0  0  0  0  0  0
  139.7940   68.0385  224.6450 H   0  0  0  0  0  0  0  0  0  0  0  0
  137.7788   69.5256  225.5878 H   0  0  0  0  0  0  0  0  0  0  0  0
  142.0430   71.4021  225.8352 H   0  0  0  0  0  0  0  0  0  0  0  0
  140.8519   72.7021  225.7436 H   0  0  0  0  0  0  0  0  0  0  0  0
  142.0989   71.5072  228.1361 H   0  0  0  0  0  0  0  0  0  0  0  0
  141.0491   72.9200  228.0843 H   0  0  0  0  0  0  0  0  0  0  0  0
  140.2069   70.5872  229.2479 H   0  0  0  0  0  0  0  0  0  0  0  0
  139.0392   71.5441  228.3969 H   0  0  0  0  0  0  0  0  0  0  0  0
  140.8281   69.2498  227.2512 H   0  0  0  0  0  0  0  0  0  0  0  0
  139.0947   69.2577  227.2087 H   0  0  0  0  0  0  0  0  0  0  0  0
  140.9420   73.8900  221.1065 H   0  0  0  0  0  0  0  0  0  0  0  0
  142.3412   75.9385  221.3019 H   0  0  0  0  0  0  0  0  0  0  0  0
  142.5404   78.2816  221.9576 H   0  0  0  0  0  0  0  0  0  0  0  0
  139.0936   80.2602  223.6232 H   0  0  0  0  0  0  0  0  0  0  0  0
  137.7353   78.1689  223.4045 H   0  0  0  0  0  0  0  0  0  0  0  0
  1  2  2  0
  2  3  1  0
  3  4  1  0
  4  5  1  0
  5  6  2  0
  5  7  1  0
  7  8  1  0
  8  9  1  0
  9 10  1  0
  9 11  1  0
 11 12  1  0
 12 13  1  0
 13 14  2  0
 13 15  1  0
 15 16  1  0
 16 17  1  0
 17 18  1  0
 18 19  1  0
  2 20  1  0
 20 21  2  0
 21 22  1  0
 22 23  2  0
 23 24  1  0
 24 25  2  0
 25 26  1  0
 25 27  1  0
 27 28  2  0
 28 29  1  0
 29 30  2  0
 12  7  1  0
 19 15  1  0
 30 20  1  0
 29 23  1  0
  3 31  1  0
  4 32  1  0
  4 33  1  0
  8 34  1  0
  8 35  1  0
  9 36  1  1
 10 37  1  0
 11 38  1  0
 11 39  1  0
 12 40  1  1
 16 41  1  0
 16 42  1  0
 17 43  1  0
 17 44  1  0
 18 45  1  0
 18 46  1  0
 19 47  1  0
 19 48  1  0
 21 49  1  0
 22 50  1  0
 24 51  1  0
 27 52  1  0
 28 53  1  0
M  END
>  <smiles>  (36) 
O=C(NCC(=O)N1C[C@H](O)C[C@H]1C(=O)N1CCCC1)c1ccc2cc(Cl)ccc2n1

>  <score_type>  (36) 
oracle

>  <origin>  (36) 
autodockgpu

>  <m_score__min__energy>  (36) 
-8.0099999999999998

>  <m_primary>  (36) 
energy

>  <rmsd>  (36) 
8.72726395858196

>  <m_score__min__rmsd>  (36) 
8.72726395858196

>  <meeko>  (36) 
{"free_energy": -7.21, "intermolecular_energy": -9.0, "internal_energy": -1.88, "cluster_size": 6, "cluster_id": 4, "rank_in_cluster": 6}

>  <energy>  (36) 
-7.21

>  <cluster_rmsd>  (36) 
0.98

>  <cluster>  (36) 
4

$$$$

     RDKit          3D

 53 56  0  0  0  0  0  0  0  0999 V2000
  140.2110   72.5250  220.6520 O   0  0  0  0  0  0  0  0  0  0  0  0
  140.0400   72.8970  221.8410 C   0  0  0  0  0  0  0  0  0  0  0  0
  139.8120   74.3000  222.0580 N   0  0  0  0  0  0  0  0  0  0  0  0
  139.7970   75.1570  220.9160 C   0  0  0  0  0  0  0  0  0  0  0  0
  140.7840   76.2600  220.9960 C   0  0  0  0  0  0  0  0  0  0  0  0
  141.1390   76.7250  222.1270 O   0  0  0  0  0  0  0  0  0  0  0  0
  141.3070   76.7620  219.7710 N   0  0  0  0  0  0  0  0  0  0  0  0
  141.1430   78.0870  219.1860 C   0  0  0  0  0  0  0  0  0  0  0  0
  142.4310   78.2100  218.3750 C   0  0  2  0  0  0  0  0  0  0  0  0
  142.3570   79.2600  217.4730 O   0  0  0  0  0  0  0  0  0  0  0  0
  142.3940   76.8440  217.6860 C   0  0  0  0  0  0  0  0  0  0  0  0
  142.1430   75.9540  218.8680 C   0  0  1  0  0  0  0  0  0  0  0  0
  143.3750   75.5730  219.5820 C   0  0  0  0  0  0  0  0  0  0  0  0
  144.1790   76.4100  220.0910 O   0  0  0  0  0  0  0  0  0  0  0  0
  143.7150   74.2000  219.7280 N   0  0  0  0  0  0  0  0  0  0  0  0
  144.9070   73.7250  220.4130 C   0  0  0  0  0  0  0  0  0  0  0  0
  144.5630   72.3110  220.8760 C   0  0  0  0  0  0  0  0  0  0  0  0
  143.0950   72.1390  220.5200 C   0  0  0  0  0  0  0  0  0  0  0  0
  143.0130   73.0190  219.2660 C   0  0  0  0  0  0  0  0  0  0  0  0
  140.0680   71.9640  222.9740 C   0  0  0  0  0  0  0  0  0  0  0  0
  139.5600   70.7010  222.7590 C   0  0  0  0  0  0  0  0  0  0  0  0
  139.5420   69.7460  223.7680 C   0  0  0  0  0  0  0  0  0  0  0  0
  140.0470   70.0840  225.0110 C   0  0  0  0  0  0  0  0  0  0  0  0
  140.0420   69.1510  226.0370 C   0  0  0  0  0  0  0  0  0  0  0  0
  140.5580   69.5520  227.2420 C   0  0  0  0  0  0  0  0  0  0  0  0
  140.5590   68.3850  228.5540 Cl  0  0  0  0  0  0  0  0  0  0  0  0
  141.0670   70.8180  227.4570 C   0  0  0  0  0  0  0  0  0  0  0  0
  141.0700   71.7480  226.4260 C   0  0  0  0  0  0  0  0  0  0  0  0
  140.5550   71.3690  225.1990 C   0  0  0  0  0  0  0  0  0  0  0  0
  140.5480   72.2670  224.1730 N   0  0  0  0  0  0  0  0  0  0  0  0
  139.6660   74.6460  223.0340 H   0  0  0  0  0  0  0  0  0  0  0  0
  140.0200   74.5534  220.0239 H   0  0  0  0  0  0  0  0  0  0  0  0
  138.7988   75.6167  220.8675 H   0  0  0  0  0  0  0  0  0  0  0  0
  140.2534   78.1363  218.5409 H   0  0  0  0  0  0  0  0  0  0  0  0
  140.9919   78.8913  219.9211 H   0  0  0  0  0  0  0  0  0  0  0  0
  143.3484   78.4248  218.9426 H   0  0  0  0  0  0  0  0  0  0  0  0
  143.2770   79.4040  217.1320 H   0  0  0  0  0  0  0  0  0  0  0  0
  141.5794   76.7817  216.9494 H   0  0  0  0  0  0  0  0  0  0  0  0
  143.2954   76.5962  217.1063 H   0  0  0  0  0  0  0  0  0  0  0  0
  141.6794   75.0128  218.5375 H   0  0  0  0  0  0  0  0  0  0  0  0
  145.7661   73.7082  219.7263 H   0  0  0  0  0  0  0  0  0  0  0  0
  145.1868   74.3772  221.2534 H   0  0  0  0  0  0  0  0  0  0  0  0
  145.1802   71.5686  220.3489 H   0  0  0  0  0  0  0  0  0  0  0  0
  144.7523   72.1654  221.9498 H   0  0  0  0  0  0  0  0  0  0  0  0
  142.8502   71.0899  220.2978 H   0  0  0  0  0  0  0  0  0  0  0  0
  142.3917   72.4113  221.3208 H   0  0  0  0  0  0  0  0  0  0  0  0
  143.5213   72.5534  218.4088 H   0  0  0  0  0  0  0  0  0  0  0  0
  141.9919   73.2050  218.9016 H   0  0  0  0  0  0  0  0  0  0  0  0
  139.1602   70.4435  221.7671 H   0  0  0  0  0  0  0  0  0  0  0  0
  139.1344   68.7413  223.5823 H   0  0  0  0  0  0  0  0  0  0  0  0
  139.6426   68.1366  225.8907 H   0  0  0  0  0  0  0  0  0  0  0  0
  141.4696   71.0891  228.4441 H   0  0  0  0  0  0  0  0  0  0  0  0
  141.4716   72.7603  226.5807 H   0  0  0  0  0  0  0  0  0  0  0  0
  1  2  2  0
  2  3  1  0
  3  4  1  0
  4  5  1  0
  5  6  2  0
  5  7  1  0
  7  8  1  0
  8  9  1  0
  9 10  1  0
  9 11  1  0
 11 12  1  0
 12 13  1  0
 13 14  2  0
 13 15  1  0
 15 16  1  0
 16 17  1  0
 17 18  1  0
 18 19  1  0
  2 20  1  0
 20 21  2  0
 21 22  1  0
 22 23  2  0
 23 24  1  0
 24 25  2  0
 25 26  1  0
 25 27  1  0
 27 28  2  0
 28 29  1  0
 29 30  2  0
 12  7  1  0
 19 15  1  0
 30 20  1  0
 29 23  1  0
  3 31  1  0
  4 32  1  0
  4 33  1  0
  8 34  1  0
  8 35  1  0
  9 36  1  1
 10 37  1  0
 11 38  1  0
 11 39  1  0
 12 40  1  6
 16 41  1  0
 16 42  1  0
 17 43  1  0
 17 44  1  0
 18 45  1  0
 18 46  1  0
 19 47  1  0
 19 48  1  0
 21 49  1  0
 22 50  1  0
 24 51  1  0
 27 52  1  0
 28 53  1  0
M  END
>  <smiles>  (37) 
O=C(NCC(=O)N1C[C@H](O)C[C@H]1C(=O)N1CCCC1)c1ccc2cc(Cl)ccc2n1

>  <score_type>  (37) 
oracle

>  <origin>  (37) 
autodockgpu

>  <m_score__min__energy>  (37) 
-8.0099999999999998

>  <m_primary>  (37) 
energy

>  <rmsd>  (37) 
4.30615295601374

>  <m_score__min__rmsd>  (37) 
4.30615295601374

>  <meeko>  (37) 
{"free_energy": -7.89, "intermolecular_energy": -9.68, "internal_energy": -2.08, "cluster_size": 13, "cluster_id": 1, "rank_in_cluster": 6}

>  <energy>  (37) 
-7.52

>  <cluster_rmsd>  (37) 
0.0

>  <cluster>  (37) 
5

$$$$

     RDKit          3D

 53 56  0  0  0  0  0  0  0  0999 V2000
  139.9430   72.2380  220.0140 O   0  0  0  0  0  0  0  0  0  0  0  0
  140.2050   72.7290  221.1420 C   0  0  0  0  0  0  0  0  0  0  0  0
  140.6880   74.0840  221.1650 N   0  0  0  0  0  0  0  0  0  0  0  0
  140.8320   74.7610  219.9170 C   0  0  0  0  0  0  0  0  0  0  0  0
  140.1120   76.0560  219.8640 C   0  0  0  0  0  0  0  0  0  0  0  0
  140.3930   76.9120  218.9640 O   0  0  0  0  0  0  0  0  0  0  0  0
  139.1110   76.2910  220.8490 N   0  0  0  0  0  0  0  0  0  0  0  0
  137.9910   75.4410  221.2290 C   0  0  0  0  0  0  0  0  0  0  0  0
  137.7930   75.8520  222.6870 C   0  0  2  0  0  0  0  0  0  0  0  0
  136.5750   75.4060  223.1730 O   0  0  0  0  0  0  0  0  0  0  0  0
  137.8270   77.3700  222.4980 C   0  0  0  0  0  0  0  0  0  0  0  0
  139.0720   77.5100  221.6720 C   0  0  1  0  0  0  0  0  0  0  0  0
  140.3030   77.5730  222.4810 C   0  0  0  0  0  0  0  0  0  0  0  0
  141.0390   76.5690  222.7190 O   0  0  0  0  0  0  0  0  0  0  0  0
  140.7210   78.8110  223.0420 N   0  0  0  0  0  0  0  0  0  0  0  0
  141.9180   78.9740  223.8530 C   0  0  0  0  0  0  0  0  0  0  0  0
  142.3080   80.4420  223.6960 C   0  0  0  0  0  0  0  0  0  0  0  0
  141.3400   80.9850  222.6580 C   0  0  0  0  0  0  0  0  0  0  0  0
  140.1070   80.1210  222.9540 C   0  0  0  0  0  0  0  0  0  0  0  0
  140.0360   71.9780  222.3920 C   0  0  0  0  0  0  0  0  0  0  0  0
  139.1620   70.9130  222.3700 C   0  0  0  0  0  0  0  0  0  0  0  0
  138.9340   70.1390  223.5020 C   0  0  0  0  0  0  0  0  0  0  0  0
  139.6060   70.4570  224.6700 C   0  0  0  0  0  0  0  0  0  0  0  0
  139.3980   69.7040  225.8150 C   0  0  0  0  0  0  0  0  0  0  0  0
  140.0950   70.0730  226.9350 C   0  0  0  0  0  0  0  0  0  0  0  0
  139.8450   69.1310  228.3960 Cl  0  0  0  0  0  0  0  0  0  0  0  0
  140.9710   71.1410  226.9560 C   0  0  0  0  0  0  0  0  0  0  0  0
  141.1750   71.8920  225.8070 C   0  0  0  0  0  0  0  0  0  0  0  0
  140.4840   71.5410  224.6620 C   0  0  0  0  0  0  0  0  0  0  0  0
  140.6700   72.2660  223.5210 N   0  0  0  0  0  0  0  0  0  0  0  0
  140.9170   74.5250  222.0850 H   0  0  0  0  0  0  0  0  0  0  0  0
  141.9018   74.9493  219.7437 H   0  0  0  0  0  0  0  0  0  0  0  0
  140.3936   74.1134  219.1434 H   0  0  0  0  0  0  0  0  0  0  0  0
  137.0977   75.6558  220.6241 H   0  0  0  0  0  0  0  0  0  0  0  0
  138.1683   74.3654  221.0817 H   0  0  0  0  0  0  0  0  0  0  0  0
  138.5179   75.4524  223.4114 H   0  0  0  0  0  0  0  0  0  0  0  0
  135.9930   75.2590  222.3840 H   0  0  0  0  0  0  0  0  0  0  0  0
  136.9388   77.7331  221.9601 H   0  0  0  0  0  0  0  0  0  0  0  0
  137.8270   77.9503  223.4325 H   0  0  0  0  0  0  0  0  0  0  0  0
  139.0381   78.4469  221.0967 H   0  0  0  0  0  0  0  0  0  0  0  0
  141.7051   78.7416  224.9069 H   0  0  0  0  0  0  0  0  0  0  0  0
  142.7253   78.2970  223.5369 H   0  0  0  0  0  0  0  0  0  0  0  0
  142.1959   80.9781  224.6500 H   0  0  0  0  0  0  0  0  0  0  0  0
  143.3582   80.5653  223.3929 H   0  0  0  0  0  0  0  0  0  0  0  0
  141.1344   82.0544  222.8134 H   0  0  0  0  0  0  0  0  0  0  0  0
  141.7007   80.9322  221.6202 H   0  0  0  0  0  0  0  0  0  0  0  0
  139.6263   80.4092  223.9005 H   0  0  0  0  0  0  0  0  0  0  0  0
  139.3003   80.2014  222.2105 H   0  0  0  0  0  0  0  0  0  0  0  0
  138.6333   70.6700  221.4365 H   0  0  0  0  0  0  0  0  0  0  0  0
  138.2339   69.2911  223.4704 H   0  0  0  0  0  0  0  0  0  0  0  0
  138.7052   68.8496  225.8239 H   0  0  0  0  0  0  0  0  0  0  0  0
  141.5063   71.3959  227.8826 H   0  0  0  0  0  0  0  0  0  0  0  0
  141.8692   72.7453  225.8072 H   0  0  0  0  0  0  0  0  0  0  0  0
  1  2  2  0
  2  3  1  0
  3  4  1  0
  4  5  1  0
  5  6  2  0
  5  7  1  0
  7  8  1  0
  8  9  1  0
  9 10  1  0
  9 11  1  0
 11 12  1  0
 12 13  1  0
 13 14  2  0
 13 15  1  0
 15 16  1  0
 16 17  1  0
 17 18  1  0
 18 19  1  0
  2 20  1  0
 20 21  2  0
 21 22  1  0
 22 23  2  0
 23 24  1  0
 24 25  2  0
 25 26  1  0
 25 27  1  0
 27 28  2  0
 28 29  1  0
 29 30  2  0
 12  7  1  0
 19 15  1  0
 30 20  1  0
 29 23  1  0
  3 31  1  0
  4 32  1  0
  4 33  1  0
  8 34  1  0
  8 35  1  0
  9 36  1  1
 10 37  1  0
 11 38  1  0
 11 39  1  0
 12 40  1  6
 16 41  1  0
 16 42  1  0
 17 43  1  0
 17 44  1  0
 18 45  1  0
 18 46  1  0
 19 47  1  0
 19 48  1  0
 21 49  1  0
 22 50  1  0
 24 51  1  0
 27 52  1  0
 28 53  1  0
M  END
>  <smiles>  (38) 
O=C(NCC(=O)N1C[C@H](O)C[C@H]1C(=O)N1CCCC1)c1ccc2cc(Cl)ccc2n1

>  <score_type>  (38) 
oracle

>  <origin>  (38) 
autodockgpu

>  <m_score__min__energy>  (38) 
-8.0099999999999998

>  <m_primary>  (38) 
energy

>  <rmsd>  (38) 
3.085706421655345

>  <m_score__min__rmsd>  (38) 
3.085706421655345

>  <meeko>  (38) 
{"free_energy": -6.86, "intermolecular_energy": -8.65, "internal_energy": -2.48, "cluster_size": 14, "cluster_id": 2, "rank_in_cluster": 11}

>  <energy>  (38) 
-7.19

>  <cluster_rmsd>  (38) 
1.09

>  <cluster>  (38) 
5

$$$$

     RDKit          3D

 53 56  0  0  0  0  0  0  0  0999 V2000
  136.3690   71.3360  221.8520 O   0  0  0  0  0  0  0  0  0  0  0  0
  137.2770   71.8030  222.5860 C   0  0  0  0  0  0  0  0  0  0  0  0
  137.6820   73.1610  222.3360 N   0  0  0  0  0  0  0  0  0  0  0  0
  137.0270   73.8680  221.2820 C   0  0  0  0  0  0  0  0  0  0  0  0
  137.9560   74.3580  220.2370 C   0  0  0  0  0  0  0  0  0  0  0  0
  137.6780   74.2000  219.0040 O   0  0  0  0  0  0  0  0  0  0  0  0
  139.1500   75.0020  220.6690 N   0  0  0  0  0  0  0  0  0  0  0  0
  139.3120   76.3350  221.2360 C   0  0  0  0  0  0  0  0  0  0  0  0
  140.5540   76.1350  222.1010 C   0  0  2  0  0  0  0  0  0  0  0  0
  141.0910   77.3510  222.4950 O   0  0  0  0  0  0  0  0  0  0  0  0
  141.4300   75.4160  221.0730 C   0  0  0  0  0  0  0  0  0  0  0  0
  140.4730   74.3620  220.5960 C   0  0  1  0  0  0  0  0  0  0  0  0
  140.4620   73.1570  221.4460 C   0  0  0  0  0  0  0  0  0  0  0  0
  140.5550   73.1890  222.7100 O   0  0  0  0  0  0  0  0  0  0  0  0
  140.3430   71.8710  220.8530 N   0  0  0  0  0  0  0  0  0  0  0  0
  140.3230   70.6260  221.6050 C   0  0  0  0  0  0  0  0  0  0  0  0
  139.5760   69.6350  220.7160 C   0  0  0  0  0  0  0  0  0  0  0  0
  139.0930   70.4680  219.5390 C   0  0  0  0  0  0  0  0  0  0  0  0
  140.2210   71.5040  219.4560 C   0  0  0  0  0  0  0  0  0  0  0  0
  137.9130   71.0220  223.6540 C   0  0  0  0  0  0  0  0  0  0  0  0
  137.4220   69.7550  223.8810 C   0  0  0  0  0  0  0  0  0  0  0  0
  137.9560   68.9370  224.8690 C   0  0  0  0  0  0  0  0  0  0  0  0
  139.0030   69.4190  225.6350 C   0  0  0  0  0  0  0  0  0  0  0  0
  139.5560   68.6260  226.6290 C   0  0  0  0  0  0  0  0  0  0  0  0
  140.5900   69.1650  227.3490 C   0  0  0  0  0  0  0  0  0  0  0  0
  141.3030   68.1750  228.6120 Cl  0  0  0  0  0  0  0  0  0  0  0  0
  141.0820   70.4350  227.1200 C   0  0  0  0  0  0  0  0  0  0  0  0
  140.5250   71.2250  226.1240 C   0  0  0  0  0  0  0  0  0  0  0  0
  139.4800   70.7050  225.3820 C   0  0  0  0  0  0  0  0  0  0  0  0
  138.9180   71.4650  224.3990 N   0  0  0  0  0  0  0  0  0  0  0  0
  138.4350   73.5830  222.9260 H   0  0  0  0  0  0  0  0  0  0  0  0
  136.2965   73.1938  220.8110 H   0  0  0  0  0  0  0  0  0  0  0  0
  136.5482   74.7506  221.7311 H   0  0  0  0  0  0  0  0  0  0  0  0
  139.4820   77.0889  220.4533 H   0  0  0  0  0  0  0  0  0  0  0  0
  138.4327   76.7045  221.7839 H   0  0  0  0  0  0  0  0  0  0  0  0
  140.4084   75.5994  223.0507 H   0  0  0  0  0  0  0  0  0  0  0  0
  142.0710   77.2840  222.3570 H   0  0  0  0  0  0  0  0  0  0  0  0
  141.7352   76.0879  220.2573 H   0  0  0  0  0  0  0  0  0  0  0  0
  142.3811   75.0297  221.4682 H   0  0  0  0  0  0  0  0  0  0  0  0
  140.7599   74.0212  219.5902 H   0  0  0  0  0  0  0  0  0  0  0  0
  141.3475   70.2752  221.7980 H   0  0  0  0  0  0  0  0  0  0  0  0
  139.8392   70.7451  222.5857 H   0  0  0  0  0  0  0  0  0  0  0  0
  140.2490   68.8343  220.3755 H   0  0  0  0  0  0  0  0  0  0  0  0
  138.7486   69.1397  221.2453 H   0  0  0  0  0  0  0  0  0  0  0  0
  139.0214   69.8695  218.6188 H   0  0  0  0  0  0  0  0  0  0  0  0
  138.0853   70.8927  219.6580 H   0  0  0  0  0  0  0  0  0  0  0  0
  141.1511   71.0621  219.0691 H   0  0  0  0  0  0  0  0  0  0  0  0
  140.0226   72.3454  218.7758 H   0  0  0  0  0  0  0  0  0  0  0  0
  136.5890   69.3828  223.2666 H   0  0  0  0  0  0  0  0  0  0  0  0
  137.5548   67.9270  225.0389 H   0  0  0  0  0  0  0  0  0  0  0  0
  139.1821   67.6113  226.8303 H   0  0  0  0  0  0  0  0  0  0  0  0
  141.9148   70.8202  227.7266 H   0  0  0  0  0  0  0  0  0  0  0  0
  140.9050   72.2388  225.9297 H   0  0  0  0  0  0  0  0  0  0  0  0
  1  2  2  0
  2  3  1  0
  3  4  1  0
  4  5  1  0
  5  6  2  0
  5  7  1  0
  7  8  1  0
  8  9  1  0
  9 10  1  0
  9 11  1  0
 11 12  1  0
 12 13  1  0
 13 14  2  0
 13 15  1  0
 15 16  1  0
 16 17  1  0
 17 18  1  0
 18 19  1  0
  2 20  1  0
 20 21  2  0
 21 22  1  0
 22 23  2  0
 23 24  1  0
 24 25  2  0
 25 26  1  0
 25 27  1  0
 27 28  2  0
 28 29  1  0
 29 30  2  0
 12  7  1  0
 19 15  1  0
 30 20  1  0
 29 23  1  0
  3 31  1  0
  4 32  1  0
  4 33  1  0
  8 34  1  0
  8 35  1  0
  9 36  1  1
 10 37  1  0
 11 38  1  0
 11 39  1  0
 12 40  1  6
 16 41  1  0
 16 42  1  0
 17 43  1  0
 17 44  1  0
 18 45  1  0
 18 46  1  0
 19 47  1  0
 19 48  1  0
 21 49  1  0
 22 50  1  0
 24 51  1  0
 27 52  1  0
 28 53  1  0
M  END
>  <smiles>  (39) 
O=C(NCC(=O)N1C[C@H](O)C[C@H]1C(=O)N1CCCC1)c1ccc2cc(Cl)ccc2n1

>  <score_type>  (39) 
oracle

>  <origin>  (39) 
autodockgpu

>  <m_score__min__energy>  (39) 
-8.0099999999999998

>  <m_primary>  (39) 
energy

>  <rmsd>  (39) 
4.906505302754519

>  <m_score__min__rmsd>  (39) 
4.906505302754519

>  <meeko>  (39) 
{"free_energy": -6.51, "intermolecular_energy": -8.3, "internal_energy": -3.45, "cluster_size": 10, "cluster_id": 7, "rank_in_cluster": 4}

>  <energy>  (39) 
-6.96

>  <cluster_rmsd>  (39) 
1.67

>  <cluster>  (39) 
5

$$$$

     RDKit          3D

 53 56  0  0  0  0  0  0  0  0999 V2000
  136.7860   72.2390  220.9870 O   0  0  0  0  0  0  0  0  0  0  0  0
  137.5620   72.5810  221.9160 C   0  0  0  0  0  0  0  0  0  0  0  0
  137.9180   73.9730  221.9860 N   0  0  0  0  0  0  0  0  0  0  0  0
  137.3690   74.8520  221.0040 C   0  0  0  0  0  0  0  0  0  0  0  0
  138.3070   75.1590  219.8990 C   0  0  0  0  0  0  0  0  0  0  0  0
  138.0100   74.8510  218.6990 O   0  0  0  0  0  0  0  0  0  0  0  0
  139.5310   75.8020  220.2360 N   0  0  0  0  0  0  0  0  0  0  0  0
  139.7440   77.1670  220.7010 C   0  0  0  0  0  0  0  0  0  0  0  0
  141.0170   76.9990  221.5280 C   0  0  2  0  0  0  0  0  0  0  0  0
  141.5960   78.2250  221.8130 O   0  0  0  0  0  0  0  0  0  0  0  0
  141.8340   76.1880  220.5190 C   0  0  0  0  0  0  0  0  0  0  0  0
  140.8360   75.1270  220.1560 C   0  0  1  0  0  0  0  0  0  0  0  0
  140.8350   73.9850  221.0900 C   0  0  0  0  0  0  0  0  0  0  0  0
  140.6760   74.1020  222.3420 O   0  0  0  0  0  0  0  0  0  0  0  0
  141.0180   72.6650  220.5960 N   0  0  0  0  0  0  0  0  0  0  0  0
  141.0330   71.4770  221.4340 C   0  0  0  0  0  0  0  0  0  0  0  0
  140.6220   70.3320  220.5120 C   0  0  0  0  0  0  0  0  0  0  0  0
  140.2600   71.0110  219.2000 C   0  0  0  0  0  0  0  0  0  0  0  0
  141.2220   72.2060  219.2360 C   0  0  0  0  0  0  0  0  0  0  0  0
  138.0950   71.6270  222.8960 C   0  0  0  0  0  0  0  0  0  0  0  0
  137.4970   70.3860  222.9510 C   0  0  0  0  0  0  0  0  0  0  0  0
  137.9290   69.4140  223.8450 C   0  0  0  0  0  0  0  0  0  0  0  0
  138.9830   69.7100  224.6920 C   0  0  0  0  0  0  0  0  0  0  0  0
  139.4350   68.7600  225.5940 C   0  0  0  0  0  0  0  0  0  0  0  0
  140.4830   69.1200  226.4010 C   0  0  0  0  0  0  0  0  0  0  0  0
  141.0690   67.9290  227.5510 Cl  0  0  0  0  0  0  0  0  0  0  0  0
  141.0810   70.3630  226.3440 C   0  0  0  0  0  0  0  0  0  0  0  0
  140.6240   71.3120  225.4390 C   0  0  0  0  0  0  0  0  0  0  0  0
  139.5690   70.9740  224.6120 C   0  0  0  0  0  0  0  0  0  0  0  0
  139.1040   71.8910  223.7150 N   0  0  0  0  0  0  0  0  0  0  0  0
  138.5620   74.2950  222.7440 H   0  0  0  0  0  0  0  0  0  0  0  0
  136.4706   74.3814  220.5781 H   0  0  0  0  0  0  0  0  0  0  0  0
  137.1408   75.8019  221.5096 H   0  0  0  0  0  0  0  0  0  0  0  0
  139.8968   77.8605  219.8610 H   0  0  0  0  0  0  0  0  0  0  0  0
  138.8959   77.5939  221.2565 H   0  0  0  0  0  0  0  0  0  0  0  0
  140.8994   76.5358  222.5188 H   0  0  0  0  0  0  0  0  0  0  0  0
  142.5740   78.0720  221.8570 H   0  0  0  0  0  0  0  0  0  0  0  0
  142.1197   76.7936  219.6463 H   0  0  0  0  0  0  0  0  0  0  0  0
  142.7919   75.8069  220.9027 H   0  0  0  0  0  0  0  0  0  0  0  0
  141.0733   74.7100  219.1661 H   0  0  0  0  0  0  0  0  0  0  0  0
  142.0408   71.3033  221.8391 H   0  0  0  0  0  0  0  0  0  0  0  0
  140.3570   71.5735  222.2964 H   0  0  0  0  0  0  0  0  0  0  0  0
  141.4562   69.6293  220.3690 H   0  0  0  0  0  0  0  0  0  0  0  0
  139.7884   69.7431  220.9223 H   0  0  0  0  0  0  0  0  0  0  0  0
  140.4542   70.3579  218.3364 H   0  0  0  0  0  0  0  0  0  0  0  0
  139.1978   71.2776  219.0970 H   0  0  0  0  0  0  0  0  0  0  0  0
  142.2630   71.8952  219.0636 H   0  0  0  0  0  0  0  0  0  0  0  0
  141.0395   72.9662  218.4622 H   0  0  0  0  0  0  0  0  0  0  0  0
  136.6605   70.1607  222.2731 H   0  0  0  0  0  0  0  0  0  0  0  0
  137.4426   68.4280  223.8790 H   0  0  0  0  0  0  0  0  0  0  0  0
  138.9742   67.7633  225.6594 H   0  0  0  0  0  0  0  0  0  0  0  0
  141.9192   70.6016  227.0152 H   0  0  0  0  0  0  0  0  0  0  0  0
  141.0895   72.3070  225.3816 H   0  0  0  0  0  0  0  0  0  0  0  0
  1  2  2  0
  2  3  1  0
  3  4  1  0
  4  5  1  0
  5  6  2  0
  5  7  1  0
  7  8  1  0
  8  9  1  0
  9 10  1  0
  9 11  1  0
 11 12  1  0
 12 13  1  0
 13 14  2  0
 13 15  1  0
 15 16  1  0
 16 17  1  0
 17 18  1  0
 18 19  1  0
  2 20  1  0
 20 21  2  0
 21 22  1  0
 22 23  2  0
 23 24  1  0
 24 25  2  0
 25 26  1  0
 25 27  1  0
 27 28  2  0
 28 29  1  0
 29 30  2  0
 12  7  1  0
 19 15  1  0
 30 20  1  0
 29 23  1  0
  3 31  1  0
  4 32  1  0
  4 33  1  0
  8 34  1  0
  8 35  1  0
  9 36  1  1
 10 37  1  0
 11 38  1  0
 11 39  1  0
 12 40  1  6
 16 41  1  0
 16 42  1  0
 17 43  1  0
 17 44  1  0
 18 45  1  0
 18 46  1  0
 19 47  1  0
 19 48  1  0
 21 49  1  0
 22 50  1  0
 24 51  1  0
 27 52  1  0
 28 53  1  0
M  END
>  <smiles>  (40) 
O=C(NCC(=O)N1C[C@H](O)C[C@H]1C(=O)N1CCCC1)c1ccc2cc(Cl)ccc2n1

>  <score_type>  (40) 
oracle

>  <origin>  (40) 
autodockgpu

>  <m_score__min__energy>  (40) 
-8.0099999999999998

>  <m_primary>  (40) 
energy

>  <rmsd>  (40) 
4.592259141325928

>  <m_score__min__rmsd>  (40) 
4.592259141325928

>  <meeko>  (40) 
{"free_energy": -6.12, "intermolecular_energy": -7.91, "internal_energy": -3.41, "cluster_size": 14, "cluster_id": 2, "rank_in_cluster": 14}

>  <energy>  (40) 
-7.52

>  <cluster_rmsd>  (40) 
0.0

>  <cluster>  (40) 
6

$$$$

     RDKit          3D

 53 56  0  0  0  0  0  0  0  0999 V2000
  139.7670   72.9180  220.1430 O   0  0  0  0  0  0  0  0  0  0  0  0
  140.2440   73.1320  221.2870 C   0  0  0  0  0  0  0  0  0  0  0  0
  140.9700   74.3610  221.4690 N   0  0  0  0  0  0  0  0  0  0  0  0
  141.0920   75.2350  220.3470 C   0  0  0  0  0  0  0  0  0  0  0  0
  139.8210   75.9030  219.9810 C   0  0  0  0  0  0  0  0  0  0  0  0
  139.5500   76.1470  218.7610 O   0  0  0  0  0  0  0  0  0  0  0  0
  138.9350   76.2520  221.0390 N   0  0  0  0  0  0  0  0  0  0  0  0
  137.8330   75.4780  221.5970 C   0  0  0  0  0  0  0  0  0  0  0  0
  137.8000   76.0060  223.0290 C   0  0  2  0  0  0  0  0  0  0  0  0
  136.6240   75.6470  223.6690 O   0  0  0  0  0  0  0  0  0  0  0  0
  137.8620   77.5020  222.7180 C   0  0  0  0  0  0  0  0  0  0  0  0
  139.0190   77.5310  221.7630 C   0  0  1  0  0  0  0  0  0  0  0  0
  140.3290   77.6060  222.4370 C   0  0  0  0  0  0  0  0  0  0  0  0
  141.0090   76.5880  222.7650 O   0  0  0  0  0  0  0  0  0  0  0  0
  140.8920   78.8720  222.7530 N   0  0  0  0  0  0  0  0  0  0  0  0
  142.1750   79.0490  223.4160 C   0  0  0  0  0  0  0  0  0  0  0  0
  142.6540   80.4350  222.9930 C   0  0  0  0  0  0  0  0  0  0  0  0
  141.6270   80.8990  221.9730 C   0  0  0  0  0  0  0  0  0  0  0  0
  140.3710   80.2030  222.5130 C   0  0  0  0  0  0  0  0  0  0  0  0
  140.0840   72.1910  222.4020 C   0  0  0  0  0  0  0  0  0  0  0  0
  139.2400   71.1200  222.2010 C   0  0  0  0  0  0  0  0  0  0  0  0
  139.0220   70.1730  223.1950 C   0  0  0  0  0  0  0  0  0  0  0  0
  139.6730   70.3220  224.4080 C   0  0  0  0  0  0  0  0  0  0  0  0
  139.4740   69.3930  225.4180 C   0  0  0  0  0  0  0  0  0  0  0  0
  140.1500   69.6000  226.5920 C   0  0  0  0  0  0  0  0  0  0  0  0
  139.9110   68.4350  227.8840 Cl  0  0  0  0  0  0  0  0  0  0  0  0
  140.9960   70.6740  226.7920 C   0  0  0  0  0  0  0  0  0  0  0  0
  141.1910   71.6010  225.7770 C   0  0  0  0  0  0  0  0  0  0  0  0
  140.5210   71.4150  224.5810 C   0  0  0  0  0  0  0  0  0  0  0  0
  140.6980   72.3140  223.5710 N   0  0  0  0  0  0  0  0  0  0  0  0
  141.3810   74.5730  222.4070 H   0  0  0  0  0  0  0  0  0  0  0  0
  141.8362   76.0087  220.5869 H   0  0  0  0  0  0  0  0  0  0  0  0
  141.3949   74.6195  219.4871 H   0  0  0  0  0  0  0  0  0  0  0  0
  136.8892   75.6814  221.0699 H   0  0  0  0  0  0  0  0  0  0  0  0
  137.9599   74.3881  221.5190 H   0  0  0  0  0  0  0  0  0  0  0  0
  138.5831   75.6341  223.7060 H   0  0  0  0  0  0  0  0  0  0  0  0
  136.7040   74.6820  223.8850 H   0  0  0  0  0  0  0  0  0  0  0  0
  136.9349   77.8578  222.2448 H   0  0  0  0  0  0  0  0  0  0  0  0
  137.9766   78.1505  223.5991 H   0  0  0  0  0  0  0  0  0  0  0  0
  138.9552   78.4228  221.1223 H   0  0  0  0  0  0  0  0  0  0  0  0
  142.0553   78.9986  224.5083 H   0  0  0  0  0  0  0  0  0  0  0  0
  142.8932   78.2629  223.1399 H   0  0  0  0  0  0  0  0  0  0  0  0
  142.6806   81.1170  223.8556 H   0  0  0  0  0  0  0  0  0  0  0  0
  143.6737   80.4169  222.5807 H   0  0  0  0  0  0  0  0  0  0  0  0
  141.5181   81.9936  221.9741 H   0  0  0  0  0  0  0  0  0  0  0  0
  141.8739   80.6581  220.9285 H   0  0  0  0  0  0  0  0  0  0  0  0
  140.0131   80.6729  223.4410 H   0  0  0  0  0  0  0  0  0  0  0  0
  139.5002   80.2413  221.8419 H   0  0  0  0  0  0  0  0  0  0  0  0
  138.7280   71.0123  221.2334 H   0  0  0  0  0  0  0  0  0  0  0  0
  138.3462   69.3226  223.0215 H   0  0  0  0  0  0  0  0  0  0  0  0
  138.8049   68.5303  225.2832 H   0  0  0  0  0  0  0  0  0  0  0  0
  141.5146   70.7945  227.7546 H   0  0  0  0  0  0  0  0  0  0  0  0
  141.8612   72.4615  225.9201 H   0  0  0  0  0  0  0  0  0  0  0  0
  1  2  2  0
  2  3  1  0
  3  4  1  0
  4  5  1  0
  5  6  2  0
  5  7  1  0
  7  8  1  0
  8  9  1  0
  9 10  1  0
  9 11  1  0
 11 12  1  0
 12 13  1  0
 13 14  2  0
 13 15  1  0
 15 16  1  0
 16 17  1  0
 17 18  1  0
 18 19  1  0
  2 20  1  0
 20 21  2  0
 21 22  1  0
 22 23  2  0
 23 24  1  0
 24 25  2  0
 25 26  1  0
 25 27  1  0
 27 28  2  0
 28 29  1  0
 29 30  2  0
 12  7  1  0
 19 15  1  0
 30 20  1  0
 29 23  1  0
  3 31  1  0
  4 32  1  0
  4 33  1  0
  8 34  1  0
  8 35  1  0
  9 36  1  1
 10 37  1  0
 11 38  1  0
 11 39  1  0
 12 40  1  6
 16 41  1  0
 16 42  1  0
 17 43  1  0
 17 44  1  0
 18 45  1  0
 18 46  1  0
 19 47  1  0
 19 48  1  0
 21 49  1  0
 22 50  1  0
 24 51  1  0
 27 52  1  0
 28 53  1  0
M  END
>  <smiles>  (41) 
O=C(NCC(=O)N1C[C@H](O)C[C@H]1C(=O)N1CCCC1)c1ccc2cc(Cl)ccc2n1

>  <score_type>  (41) 
oracle

>  <origin>  (41) 
autodockgpu

>  <m_score__min__energy>  (41) 
-8.0099999999999998

>  <m_primary>  (41) 
energy

>  <rmsd>  (41) 
3.179101085677494

>  <m_score__min__rmsd>  (41) 
3.179101085677494

>  <meeko>  (41) 
{"free_energy": -7.21, "intermolecular_energy": -8.99, "internal_energy": -2.4, "cluster_size": 14, "cluster_id": 2, "rank_in_cluster": 5}

>  <energy>  (41) 
-6.51

>  <cluster_rmsd>  (41) 
0.0

>  <cluster>  (41) 
7

$$$$

     RDKit          3D

 53 56  0  0  0  0  0  0  0  0999 V2000
  138.1150   71.3380  220.9090 O   0  0  0  0  0  0  0  0  0  0  0  0
  138.4590   71.8560  222.0020 C   0  0  0  0  0  0  0  0  0  0  0  0
  138.4410   73.2930  222.0740 N   0  0  0  0  0  0  0  0  0  0  0  0
  138.0380   74.0140  220.9100 C   0  0  0  0  0  0  0  0  0  0  0  0
  138.0930   75.4850  221.0810 C   0  0  0  0  0  0  0  0  0  0  0  0
  137.0440   76.1350  221.3980 O   0  0  0  0  0  0  0  0  0  0  0  0
  139.3490   76.1220  220.8780 N   0  0  0  0  0  0  0  0  0  0  0  0
  139.7480   77.4800  221.2270 C   0  0  0  0  0  0  0  0  0  0  0  0
  141.2500   77.2990  221.4360 C   0  0  2  0  0  0  0  0  0  0  0  0
  141.9030   78.5210  221.4670 O   0  0  0  0  0  0  0  0  0  0  0  0
  141.5590   76.5030  220.1670 C   0  0  0  0  0  0  0  0  0  0  0  0
  140.4940   75.4480  220.2460 C   0  0  1  0  0  0  0  0  0  0  0  0
  140.8790   74.2920  221.0770 C   0  0  0  0  0  0  0  0  0  0  0  0
  140.7480   74.2600  222.3370 O   0  0  0  0  0  0  0  0  0  0  0  0
  141.4310   73.1330  220.4690 N   0  0  0  0  0  0  0  0  0  0  0  0
  141.8410   71.9450  221.2010 C   0  0  0  0  0  0  0  0  0  0  0  0
  141.7550   70.8040  220.1920 C   0  0  0  0  0  0  0  0  0  0  0  0
  141.1480   71.4370  218.9510 C   0  0  0  0  0  0  0  0  0  0  0  0
  141.7040   72.8620  219.0700 C   0  0  0  0  0  0  0  0  0  0  0  0
  138.8650   71.0580  223.1650 C   0  0  0  0  0  0  0  0  0  0  0  0
  138.4710   69.7370  223.1870 C   0  0  0  0  0  0  0  0  0  0  0  0
  138.8060   68.8990  224.2430 C   0  0  0  0  0  0  0  0  0  0  0  0
  139.5500   69.4150  225.2900 C   0  0  0  0  0  0  0  0  0  0  0  0
  139.8990   68.6020  226.3580 C   0  0  0  0  0  0  0  0  0  0  0  0
  140.6370   69.1770  227.3600 C   0  0  0  0  0  0  0  0  0  0  0  0
  141.0880   68.1640  228.7210 Cl  0  0  0  0  0  0  0  0  0  0  0  0
  141.0320   70.5000  227.3360 C   0  0  0  0  0  0  0  0  0  0  0  0
  140.6800   71.3100  226.2640 C   0  0  0  0  0  0  0  0  0  0  0  0
  139.9350   70.7550  225.2400 C   0  0  0  0  0  0  0  0  0  0  0  0
  139.5790   71.5320  224.1780 N   0  0  0  0  0  0  0  0  0  0  0  0
  138.7210   73.7590  222.9670 H   0  0  0  0  0  0  0  0  0  0  0  0
  138.7024   73.7344  220.0791 H   0  0  0  0  0  0  0  0  0  0  0  0
  136.9892   73.7491  220.7106 H   0  0  0  0  0  0  0  0  0  0  0  0
  139.5361   78.1856  220.4102 H   0  0  0  0  0  0  0  0  0  0  0  0
  139.2172   77.8994  222.0944 H   0  0  0  0  0  0  0  0  0  0  0  0
  141.5593   76.8207  222.3771 H   0  0  0  0  0  0  0  0  0  0  0  0
  142.8620   78.3240  221.6220 H   0  0  0  0  0  0  0  0  0  0  0  0
  141.4534   77.1210  219.2631 H   0  0  0  0  0  0  0  0  0  0  0  0
  142.5868   76.1159  220.1052 H   0  0  0  0  0  0  0  0  0  0  0  0
  140.2889   75.0458  219.2429 H   0  0  0  0  0  0  0  0  0  0  0  0
  142.8710   72.0561  221.5708 H   0  0  0  0  0  0  0  0  0  0  0  0
  141.2059   71.7646  222.0808 H   0  0  0  0  0  0  0  0  0  0  0  0
  142.7554   70.4021  219.9736 H   0  0  0  0  0  0  0  0  0  0  0  0
  141.1568   69.9599  220.5657 H   0  0  0  0  0  0  0  0  0  0  0  0
  141.4924   70.9413  218.0314 H   0  0  0  0  0  0  0  0  0  0  0  0
  140.0514   71.3742  218.8916 H   0  0  0  0  0  0  0  0  0  0  0  0
  142.7815   72.8976  218.8516 H   0  0  0  0  0  0  0  0  0  0  0  0
  141.2660   73.5864  218.3675 H   0  0  0  0  0  0  0  0  0  0  0  0
  137.8786   69.3381  222.3504 H   0  0  0  0  0  0  0  0  0  0  0  0
  138.4864   67.8465  224.2471 H   0  0  0  0  0  0  0  0  0  0  0  0
  139.5976   67.5449  226.3992 H   0  0  0  0  0  0  0  0  0  0  0  0
  141.6252   70.9122  228.1656 H   0  0  0  0  0  0  0  0  0  0  0  0
  140.9861   72.3660  226.2306 H   0  0  0  0  0  0  0  0  0  0  0  0
  1  2  2  0
  2  3  1  0
  3  4  1  0
  4  5  1  0
  5  6  2  0
  5  7  1  0
  7  8  1  0
  8  9  1  0
  9 10  1  0
  9 11  1  0
 11 12  1  0
 12 13  1  0
 13 14  2  0
 13 15  1  0
 15 16  1  0
 16 17  1  0
 17 18  1  0
 18 19  1  0
  2 20  1  0
 20 21  2  0
 21 22  1  0
 22 23  2  0
 23 24  1  0
 24 25  2  0
 25 26  1  0
 25 27  1  0
 27 28  2  0
 28 29  1  0
 29 30  2  0
 12  7  1  0
 19 15  1  0
 30 20  1  0
 29 23  1  0
  3 31  1  0
  4 32  1  0
  4 33  1  0
  8 34  1  0
  8 35  1  0
  9 36  1  1
 10 37  1  0
 11 38  1  0
 11 39  1  0
 12 40  1  6
 16 41  1  0
 16 42  1  0
 17 43  1  0
 17 44  1  0
 18 45  1  0
 18 46  1  0
 19 47  1  0
 19 48  1  0
 21 49  1  0
 22 50  1  0
 24 51  1  0
 27 52  1  0
 28 53  1  0
M  END
>  <smiles>  (42) 
O=C(NCC(=O)N1C[C@H](O)C[C@H]1C(=O)N1CCCC1)c1ccc2cc(Cl)ccc2n1

>  <score_type>  (42) 
oracle

>  <origin>  (42) 
autodockgpu

>  <m_score__min__energy>  (42) 
-8.0099999999999998

>  <m_primary>  (42) 
energy

>  <rmsd>  (42) 
4.27458576848926

>  <m_score__min__rmsd>  (42) 
4.27458576848926

>  <meeko>  (42) 
{"free_energy": -7.11, "intermolecular_energy": -8.9, "internal_energy": -2.46, "cluster_size": 13, "cluster_id": 1, "rank_in_cluster": 10}

>  <energy>  (42) 
-6.51

>  <cluster_rmsd>  (42) 
0.27

>  <cluster>  (42) 
7

$$$$

     RDKit          3D

 53 56  0  0  0  0  0  0  0  0999 V2000
  140.3170   72.4470  220.7220 O   0  0  0  0  0  0  0  0  0  0  0  0
  140.0690   72.8390  221.8910 C   0  0  0  0  0  0  0  0  0  0  0  0
  139.7760   74.2370  222.0600 N   0  0  0  0  0  0  0  0  0  0  0  0
  139.7880   75.0660  220.8970 C   0  0  0  0  0  0  0  0  0  0  0  0
  140.7830   76.1620  220.9670 C   0  0  0  0  0  0  0  0  0  0  0  0
  141.1600   76.6180  222.0950 O   0  0  0  0  0  0  0  0  0  0  0  0
  141.2870   76.6700  219.7360 N   0  0  0  0  0  0  0  0  0  0  0  0
  141.0780   77.9830  219.1390 C   0  0  0  0  0  0  0  0  0  0  0  0
  142.3600   78.1410  218.3240 C   0  0  2  0  0  0  0  0  0  0  0  0
  142.2500   79.1790  217.4130 O   0  0  0  0  0  0  0  0  0  0  0  0
  142.3680   76.7690  217.6490 C   0  0  0  0  0  0  0  0  0  0  0  0
  142.1480   75.8820  218.8400 C   0  0  1  0  0  0  0  0  0  0  0  0
  143.3940   75.5490  219.5560 C   0  0  0  0  0  0  0  0  0  0  0  0
  144.1690   76.4170  220.0570 O   0  0  0  0  0  0  0  0  0  0  0  0
  143.7810   74.1900  219.7110 N   0  0  0  0  0  0  0  0  0  0  0  0
  144.9880   73.7610  220.3990 C   0  0  0  0  0  0  0  0  0  0  0  0
  144.6940   72.3400  220.8730 C   0  0  0  0  0  0  0  0  0  0  0  0
  143.2330   72.1150  220.5200 C   0  0  0  0  0  0  0  0  0  0  0  0
  143.1200   72.9820  219.2590 C   0  0  0  0  0  0  0  0  0  0  0  0
  140.0740   71.9350  223.0480 C   0  0  0  0  0  0  0  0  0  0  0  0
  139.5530   70.6730  222.8590 C   0  0  0  0  0  0  0  0  0  0  0  0
  139.5120   69.7450  223.8910 C   0  0  0  0  0  0  0  0  0  0  0  0
  140.0090   70.1080  225.1320 C   0  0  0  0  0  0  0  0  0  0  0  0
  139.9810   69.2020  226.1810 C   0  0  0  0  0  0  0  0  0  0  0  0
  140.4890   69.6280  227.3810 C   0  0  0  0  0  0  0  0  0  0  0  0
  140.4620   68.4940  228.7220 Cl  0  0  0  0  0  0  0  0  0  0  0  0
  141.0110   70.8920  227.5690 C   0  0  0  0  0  0  0  0  0  0  0  0
  141.0360   71.7960  226.5140 C   0  0  0  0  0  0  0  0  0  0  0  0
  140.5300   71.3920  225.2930 C   0  0  0  0  0  0  0  0  0  0  0  0
  140.5450   72.2640  224.2440 N   0  0  0  0  0  0  0  0  0  0  0  0
  139.5660   74.6000  223.0180 H   0  0  0  0  0  0  0  0  0  0  0  0
  140.0207   74.4388  220.0238 H   0  0  0  0  0  0  0  0  0  0  0  0
  138.7949   75.5328  220.8201 H   0  0  0  0  0  0  0  0  0  0  0  0
  140.1861   77.9966  218.4954 H   0  0  0  0  0  0  0  0  0  0  0  0
  140.9016   78.7887  219.8668 H   0  0  0  0  0  0  0  0  0  0  0  0
  143.2707   78.3917  218.8876 H   0  0  0  0  0  0  0  0  0  0  0  0
  143.1610   79.3380  217.0550 H   0  0  0  0  0  0  0  0  0  0  0  0
  141.5552   76.6724  216.9141 H   0  0  0  0  0  0  0  0  0  0  0  0
  143.2768   76.5460  217.0708 H   0  0  0  0  0  0  0  0  0  0  0  0
  141.7155   74.9227  218.5195 H   0  0  0  0  0  0  0  0  0  0  0  0
  145.8471   73.7686  219.7121 H   0  0  0  0  0  0  0  0  0  0  0  0
  145.2446   74.4287  221.2347 H   0  0  0  0  0  0  0  0  0  0  0  0
  145.3361   71.6154  220.3508 H   0  0  0  0  0  0  0  0  0  0  0  0
  144.8894   72.2090  221.9475 H   0  0  0  0  0  0  0  0  0  0  0  0
  143.0241   71.0564  220.3063 H   0  0  0  0  0  0  0  0  0  0  0  0
  142.5214   72.3693  221.3193 H   0  0  0  0  0  0  0  0  0  0  0  0
  143.6436   72.5275  218.4050 H   0  0  0  0  0  0  0  0  0  0  0  0
  142.0929   73.1298  218.8941 H   0  0  0  0  0  0  0  0  0  0  0  0
  139.1613   70.3951  221.8694 H   0  0  0  0  0  0  0  0  0  0  0  0
  139.0931   68.7413  223.7264 H   0  0  0  0  0  0  0  0  0  0  0  0
  139.5705   68.1891  226.0564 H   0  0  0  0  0  0  0  0  0  0  0  0
  141.4068   71.1833  228.5531 H   0  0  0  0  0  0  0  0  0  0  0  0
  141.4479   72.8072  226.6472 H   0  0  0  0  0  0  0  0  0  0  0  0
  1  2  2  0
  2  3  1  0
  3  4  1  0
  4  5  1  0
  5  6  2  0
  5  7  1  0
  7  8  1  0
  8  9  1  0
  9 10  1  0
  9 11  1  0
 11 12  1  0
 12 13  1  0
 13 14  2  0
 13 15  1  0
 15 16  1  0
 16 17  1  0
 17 18  1  0
 18 19  1  0
  2 20  1  0
 20 21  2  0
 21 22  1  0
 22 23  2  0
 23 24  1  0
 24 25  2  0
 25 26  1  0
 25 27  1  0
 27 28  2  0
 28 29  1  0
 29 30  2  0
 12  7  1  0
 19 15  1  0
 30 20  1  0
 29 23  1  0
  3 31  1  0
  4 32  1  0
  4 33  1  0
  8 34  1  0
  8 35  1  0
  9 36  1  1
 10 37  1  0
 11 38  1  0
 11 39  1  0
 12 40  1  6
 16 41  1  0
 16 42  1  0
 17 43  1  0
 17 44  1  0
 18 45  1  0
 18 46  1  0
 19 47  1  0
 19 48  1  0
 21 49  1  0
 22 50  1  0
 24 51  1  0
 27 52  1  0
 28 53  1  0
M  END
>  <smiles>  (43) 
O=C(NCC(=O)N1C[C@H](O)C[C@H]1C(=O)N1CCCC1)c1ccc2cc(Cl)ccc2n1

>  <score_type>  (43) 
oracle

>  <origin>  (43) 
autodockgpu

>  <m_score__min__energy>  (43) 
-8.0099999999999998

>  <m_primary>  (43) 
energy

>  <rmsd>  (43) 
4.3018802258842

>  <m_score__min__rmsd>  (43) 
4.3018802258842

>  <meeko>  (43) 
{"free_energy": -7.93, "intermolecular_energy": -9.71, "internal_energy": -2.03, "cluster_size": 13, "cluster_id": 1, "rank_in_cluster": 4}

>  <energy>  (43) 
-6.51

>  <cluster_rmsd>  (43) 
0.06

>  <cluster>  (43) 
7

$$$$

     RDKit          3D

 53 56  0  0  0  0  0  0  0  0999 V2000
  139.8010   72.9100  220.1140 O   0  0  0  0  0  0  0  0  0  0  0  0
  140.2520   73.1480  221.2640 C   0  0  0  0  0  0  0  0  0  0  0  0
  140.9480   74.3940  221.4440 N   0  0  0  0  0  0  0  0  0  0  0  0
  141.0730   75.2570  220.3140 C   0  0  0  0  0  0  0  0  0  0  0  0
  139.8130   75.9540  219.9640 C   0  0  0  0  0  0  0  0  0  0  0  0
  139.5470   76.2320  218.7500 O   0  0  0  0  0  0  0  0  0  0  0  0
  138.9320   76.2910  221.0300 N   0  0  0  0  0  0  0  0  0  0  0  0
  137.8340   75.5090  221.5850 C   0  0  0  0  0  0  0  0  0  0  0  0
  137.8070   76.0230  223.0230 C   0  0  2  0  0  0  0  0  0  0  0  0
  136.6360   75.6550  223.6650 O   0  0  0  0  0  0  0  0  0  0  0  0
  137.8660   77.5220  222.7270 C   0  0  0  0  0  0  0  0  0  0  0  0
  139.0180   77.5620  221.7670 C   0  0  1  0  0  0  0  0  0  0  0  0
  140.3310   77.6320  222.4340 C   0  0  0  0  0  0  0  0  0  0  0  0
  141.0140   76.6120  222.7490 O   0  0  0  0  0  0  0  0  0  0  0  0
  140.8950   78.8950  222.7610 N   0  0  0  0  0  0  0  0  0  0  0  0
  142.1810   79.0680  223.4190 C   0  0  0  0  0  0  0  0  0  0  0  0
  142.6560   80.4590  223.0070 C   0  0  0  0  0  0  0  0  0  0  0  0
  141.6230   80.9310  221.9970 C   0  0  0  0  0  0  0  0  0  0  0  0
  140.3710   80.2280  222.5370 C   0  0  0  0  0  0  0  0  0  0  0  0
  140.0910   72.2170  222.3870 C   0  0  0  0  0  0  0  0  0  0  0  0
  139.2610   71.1340  222.1890 C   0  0  0  0  0  0  0  0  0  0  0  0
  139.0430   70.1960  223.1910 C   0  0  0  0  0  0  0  0  0  0  0  0
  139.6790   70.3650  224.4080 C   0  0  0  0  0  0  0  0  0  0  0  0
  139.4810   69.4450  225.4260 C   0  0  0  0  0  0  0  0  0  0  0  0
  140.1420   69.6720  226.6050 C   0  0  0  0  0  0  0  0  0  0  0  0
  139.9030   68.5180  227.9070 Cl  0  0  0  0  0  0  0  0  0  0  0  0
  140.9740   70.7570  226.8020 C   0  0  0  0  0  0  0  0  0  0  0  0
  141.1690   71.6750  225.7790 C   0  0  0  0  0  0  0  0  0  0  0  0
  140.5140   71.4690  224.5790 C   0  0  0  0  0  0  0  0  0  0  0  0
  140.6920   72.3590  223.5610 N   0  0  0  0  0  0  0  0  0  0  0  0
  141.3370   74.6260  222.3860 H   0  0  0  0  0  0  0  0  0  0  0  0
  141.8400   76.0136  220.5361 H   0  0  0  0  0  0  0  0  0  0  0  0
  141.3463   74.6283  219.4537 H   0  0  0  0  0  0  0  0  0  0  0  0
  136.8873   75.7158  221.0644 H   0  0  0  0  0  0  0  0  0  0  0  0
  137.9624   74.4202  221.4952 H   0  0  0  0  0  0  0  0  0  0  0  0
  138.5939   75.6459  223.6928 H   0  0  0  0  0  0  0  0  0  0  0  0
  136.7420   74.7030  223.9230 H   0  0  0  0  0  0  0  0  0  0  0  0
  136.9363   77.8817  222.2619 H   0  0  0  0  0  0  0  0  0  0  0  0
  137.9842   78.1616  223.6141 H   0  0  0  0  0  0  0  0  0  0  0  0
  138.9496   78.4606  221.1362 H   0  0  0  0  0  0  0  0  0  0  0  0
  142.0669   79.0069  224.5114 H   0  0  0  0  0  0  0  0  0  0  0  0
  142.8991   78.2859  223.1315 H   0  0  0  0  0  0  0  0  0  0  0  0
  142.6860   81.1327  223.8760 H   0  0  0  0  0  0  0  0  0  0  0  0
  143.6736   80.4465  222.5894 H   0  0  0  0  0  0  0  0  0  0  0  0
  141.5124   82.0254  222.0090 H   0  0  0  0  0  0  0  0  0  0  0  0
  141.8647   80.7004  220.9490 H   0  0  0  0  0  0  0  0  0  0  0  0
  140.0177   80.6882  223.4715 H   0  0  0  0  0  0  0  0  0  0  0  0
  139.4965   80.2718  221.8711 H   0  0  0  0  0  0  0  0  0  0  0  0
  138.7607   71.0098  221.2173 H   0  0  0  0  0  0  0  0  0  0  0  0
  138.3782   69.3365  223.0199 H   0  0  0  0  0  0  0  0  0  0  0  0
  138.8237   68.5730  225.2936 H   0  0  0  0  0  0  0  0  0  0  0  0
  141.4814   70.8934  227.7684 H   0  0  0  0  0  0  0  0  0  0  0  0
  141.8281   72.5444  225.9196 H   0  0  0  0  0  0  0  0  0  0  0  0
  1  2  2  0
  2  3  1  0
  3  4  1  0
  4  5  1  0
  5  6  2  0
  5  7  1  0
  7  8  1  0
  8  9  1  0
  9 10  1  0
  9 11  1  0
 11 12  1  0
 12 13  1  0
 13 14  2  0
 13 15  1  0
 15 16  1  0
 16 17  1  0
 17 18  1  0
 18 19  1  0
  2 20  1  0
 20 21  2  0
 21 22  1  0
 22 23  2  0
 23 24  1  0
 24 25  2  0
 25 26  1  0
 25 27  1  0
 27 28  2  0
 28 29  1  0
 29 30  2  0
 12  7  1  0
 19 15  1  0
 30 20  1  0
 29 23  1  0
  3 31  1  0
  4 32  1  0
  4 33  1  0
  8 34  1  0
  8 35  1  0
  9 36  1  1
 10 37  1  0
 11 38  1  0
 11 39  1  0
 12 40  1  6
 16 41  1  0
 16 42  1  0
 17 43  1  0
 17 44  1  0
 18 45  1  0
 18 46  1  0
 19 47  1  0
 19 48  1  0
 21 49  1  0
 22 50  1  0
 24 51  1  0
 27 52  1  0
 28 53  1  0
M  END
>  <smiles>  (44) 
O=C(NCC(=O)N1C[C@H](O)C[C@H]1C(=O)N1CCCC1)c1ccc2cc(Cl)ccc2n1

>  <score_type>  (44) 
oracle

>  <origin>  (44) 
autodockgpu

>  <m_score__min__energy>  (44) 
-8.0099999999999998

>  <m_primary>  (44) 
energy

>  <rmsd>  (44) 
3.1856890272806444

>  <m_score__min__rmsd>  (44) 
3.1856890272806444

>  <meeko>  (44) 
{"free_energy": -7.21, "intermolecular_energy": -9.0, "internal_energy": -2.42, "cluster_size": 14, "cluster_id": 2, "rank_in_cluster": 4}

>  <energy>  (44) 
-6.51

>  <cluster_rmsd>  (44) 
0.04

>  <cluster>  (44) 
7

$$$$

     RDKit          3D

 53 56  0  0  0  0  0  0  0  0999 V2000
  136.3620   71.4570  221.6120 O   0  0  0  0  0  0  0  0  0  0  0  0
  137.2290   71.9260  222.3930 C   0  0  0  0  0  0  0  0  0  0  0  0
  137.6340   73.2890  222.1710 N   0  0  0  0  0  0  0  0  0  0  0  0
  137.0270   73.9970  221.0910 C   0  0  0  0  0  0  0  0  0  0  0  0
  138.0050   74.5410  220.1210 C   0  0  0  0  0  0  0  0  0  0  0  0
  137.7910   74.4460  218.8690 O   0  0  0  0  0  0  0  0  0  0  0  0
  139.1730   75.1650  220.6450 N   0  0  0  0  0  0  0  0  0  0  0  0
  139.3000   76.4700  221.2830 C   0  0  0  0  0  0  0  0  0  0  0  0
  140.4960   76.2300  222.2020 C   0  0  2  0  0  0  0  0  0  0  0  0
  141.0080   77.4250  222.6810 O   0  0  0  0  0  0  0  0  0  0  0  0
  141.4270   75.5600  221.1880 C   0  0  0  0  0  0  0  0  0  0  0  0
  140.5000   74.5300  220.6120 C   0  0  1  0  0  0  0  0  0  0  0  0
  140.4480   73.2860  221.4020 C   0  0  0  0  0  0  0  0  0  0  0  0
  140.4660   73.2580  222.6690 O   0  0  0  0  0  0  0  0  0  0  0  0
  140.3730   72.0290  220.7430 N   0  0  0  0  0  0  0  0  0  0  0  0
  140.3180   70.7500  221.4330 C   0  0  0  0  0  0  0  0  0  0  0  0
  139.6320   69.7990  220.4560 C   0  0  0  0  0  0  0  0  0  0  0  0
  139.2120   70.6840  219.2930 C   0  0  0  0  0  0  0  0  0  0  0  0
  140.3360   71.7290  219.3250 C   0  0  0  0  0  0  0  0  0  0  0  0
  137.8170   71.1430  223.4860 C   0  0  0  0  0  0  0  0  0  0  0  0
  137.1890   69.9630  223.8210 C   0  0  0  0  0  0  0  0  0  0  0  0
  137.6690   69.1510  224.8420 C   0  0  0  0  0  0  0  0  0  0  0  0
  138.8030   69.5490  225.5290 C   0  0  0  0  0  0  0  0  0  0  0  0
  139.3040   68.7590  226.5530 C   0  0  0  0  0  0  0  0  0  0  0  0
  140.4290   69.2130  227.1910 C   0  0  0  0  0  0  0  0  0  0  0  0
  141.0790   68.2260  228.4910 Cl  0  0  0  0  0  0  0  0  0  0  0  0
  141.0580   70.3950  226.8550 C   0  0  0  0  0  0  0  0  0  0  0  0
  140.5520   71.1820  225.8290 C   0  0  0  0  0  0  0  0  0  0  0  0
  139.4170   70.7480  225.1680 C   0  0  0  0  0  0  0  0  0  0  0  0
  138.9030   71.5060  224.1580 N   0  0  0  0  0  0  0  0  0  0  0  0
  138.3540   73.7130  222.8000 H   0  0  0  0  0  0  0  0  0  0  0  0
  136.3531   73.3097  220.5585 H   0  0  0  0  0  0  0  0  0  0  0  0
  136.4896   74.8530  221.5251 H   0  0  0  0  0  0  0  0  0  0  0  0
  139.5082   77.2608  220.5473 H   0  0  0  0  0  0  0  0  0  0  0  0
  138.3917   76.8119  221.8008 H   0  0  0  0  0  0  0  0  0  0  0  0
  140.3022   75.6504  223.1166 H   0  0  0  0  0  0  0  0  0  0  0  0
  141.9530   77.4680  222.3820 H   0  0  0  0  0  0  0  0  0  0  0  0
  141.7729   76.2698  220.4222 H   0  0  0  0  0  0  0  0  0  0  0  0
  142.3569   75.1554  221.6142 H   0  0  0  0  0  0  0  0  0  0  0  0
  140.8405   74.2376  219.6077 H   0  0  0  0  0  0  0  0  0  0  0  0
  141.3320   70.3951  221.6695 H   0  0  0  0  0  0  0  0  0  0  0  0
  139.7765   70.8203  222.3879 H   0  0  0  0  0  0  0  0  0  0  0  0
  140.3300   69.0187  220.1183 H   0  0  0  0  0  0  0  0  0  0  0  0
  138.7788   69.2754  220.9120 H   0  0  0  0  0  0  0  0  0  0  0  0
  139.1988   70.1292  218.3433 H   0  0  0  0  0  0  0  0  0  0  0  0
  138.1958   71.0977  219.3723 H   0  0  0  0  0  0  0  0  0  0  0  0
  141.2904   71.3106  218.9728 H   0  0  0  0  0  0  0  0  0  0  0  0
  140.1717   72.6009  218.6748 H   0  0  0  0  0  0  0  0  0  0  0  0
  136.2884   69.6570  223.2685 H   0  0  0  0  0  0  0  0  0  0  0  0
  137.1582   68.2113  225.0988 H   0  0  0  0  0  0  0  0  0  0  0  0
  138.8214   67.8130  226.8395 H   0  0  0  0  0  0  0  0  0  0  0  0
  141.9592   70.7131  227.3996 H   0  0  0  0  0  0  0  0  0  0  0  0
  141.0413   72.1266  225.5490 H   0  0  0  0  0  0  0  0  0  0  0  0
  1  2  2  0
  2  3  1  0
  3  4  1  0
  4  5  1  0
  5  6  2  0
  5  7  1  0
  7  8  1  0
  8  9  1  0
  9 10  1  0
  9 11  1  0
 11 12  1  0
 12 13  1  0
 13 14  2  0
 13 15  1  0
 15 16  1  0
 16 17  1  0
 17 18  1  0
 18 19  1  0
  2 20  1  0
 20 21  2  0
 21 22  1  0
 22 23  2  0
 23 24  1  0
 24 25  2  0
 25 26  1  0
 25 27  1  0
 27 28  2  0
 28 29  1  0
 29 30  2  0
 12  7  1  0
 19 15  1  0
 30 20  1  0
 29 23  1  0
  3 31  1  0
  4 32  1  0
  4 33  1  0
  8 34  1  0
  8 35  1  0
  9 36  1  1
 10 37  1  0
 11 38  1  0
 11 39  1  0
 12 40  1  6
 16 41  1  0
 16 42  1  0
 17 43  1  0
 17 44  1  0
 18 45  1  0
 18 46  1  0
 19 47  1  0
 19 48  1  0
 21 49  1  0
 22 50  1  0
 24 51  1  0
 27 52  1  0
 28 53  1  0
M  END
>  <smiles>  (45) 
O=C(NCC(=O)N1C[C@H](O)C[C@H]1C(=O)N1CCCC1)c1ccc2cc(Cl)ccc2n1

>  <score_type>  (45) 
oracle

>  <origin>  (45) 
autodockgpu

>  <m_score__min__energy>  (45) 
-8.0099999999999998

>  <m_primary>  (45) 
energy

>  <rmsd>  (45) 
4.862831368408558

>  <m_score__min__rmsd>  (45) 
4.862831368408558

>  <meeko>  (45) 
{"free_energy": -6.51, "intermolecular_energy": -8.3, "internal_energy": -3.41, "cluster_size": 10, "cluster_id": 7, "rank_in_cluster": 2}

>  <energy>  (45) 
-6.5

>  <cluster_rmsd>  (45) 
0.04

>  <cluster>  (45) 
7

$$$$

     RDKit          3D

 53 56  0  0  0  0  0  0  0  0999 V2000
  138.5760   73.5480  221.1210 O   0  0  0  0  0  0  0  0  0  0  0  0
  139.6240   73.2270  221.7390 C   0  0  0  0  0  0  0  0  0  0  0  0
  140.8440   73.8680  221.3270 N   0  0  0  0  0  0  0  0  0  0  0  0
  140.7730   74.8120  220.2580 C   0  0  0  0  0  0  0  0  0  0  0  0
  141.6430   74.4650  219.1100 C   0  0  0  0  0  0  0  0  0  0  0  0
  141.2090   74.5750  217.9170 O   0  0  0  0  0  0  0  0  0  0  0  0
  142.9620   74.0140  219.3980 N   0  0  0  0  0  0  0  0  0  0  0  0
  144.1050   74.7840  219.8740 C   0  0  0  0  0  0  0  0  0  0  0  0
  144.8820   73.7120  220.6350 C   0  0  2  0  0  0  0  0  0  0  0  0
  146.1740   74.1310  220.9120 O   0  0  0  0  0  0  0  0  0  0  0  0
  144.8410   72.6100  219.5750 C   0  0  0  0  0  0  0  0  0  0  0  0
  143.3770   72.6100  219.2440 C   0  0  1  0  0  0  0  0  0  0  0  0
  142.5720   71.7780  220.1570 C   0  0  0  0  0  0  0  0  0  0  0  0
  142.7420   71.7490  221.4130 O   0  0  0  0  0  0  0  0  0  0  0  0
  141.5420   70.9480  219.6390 N   0  0  0  0  0  0  0  0  0  0  0  0
  140.6960   70.0920  220.4560 C   0  0  0  0  0  0  0  0  0  0  0  0
  139.4120   69.9120  219.6500 C   0  0  0  0  0  0  0  0  0  0  0  0
  139.5840   70.8290  218.4500 C   0  0  0  0  0  0  0  0  0  0  0  0
  141.1060   70.7600  218.2680 C   0  0  0  0  0  0  0  0  0  0  0  0
  139.6300   72.2460  222.8310 C   0  0  0  0  0  0  0  0  0  0  0  0
  138.6720   71.2560  222.7900 C   0  0  0  0  0  0  0  0  0  0  0  0
  138.5950   70.2820  223.7770 C   0  0  0  0  0  0  0  0  0  0  0  0
  139.5060   70.3180  224.8190 C   0  0  0  0  0  0  0  0  0  0  0  0
  139.4530   69.3580  225.8180 C   0  0  0  0  0  0  0  0  0  0  0  0
  140.3860   69.4530  226.8180 C   0  0  0  0  0  0  0  0  0  0  0  0
  140.3350   68.2470  228.0940 Cl  0  0  0  0  0  0  0  0  0  0  0  0
  141.3460   70.4450  226.8580 C   0  0  0  0  0  0  0  0  0  0  0  0
  141.3940   71.4040  225.8540 C   0  0  0  0  0  0  0  0  0  0  0  0
  140.4650   71.3310  224.8330 C   0  0  0  0  0  0  0  0  0  0  0  0
  140.4950   72.2620  223.8370 N   0  0  0  0  0  0  0  0  0  0  0  0
  141.7350   73.6260  221.8180 H   0  0  0  0  0  0  0  0  0  0  0  0
  139.7324   74.8617  219.9048 H   0  0  0  0  0  0  0  0  0  0  0  0
  141.1239   75.7771  220.6522 H   0  0  0  0  0  0  0  0  0  0  0  0
  144.6928   75.1926  219.0388 H   0  0  0  0  0  0  0  0  0  0  0  0
  143.8390   75.6649  220.4766 H   0  0  0  0  0  0  0  0  0  0  0  0
  144.4873   73.4295  221.6221 H   0  0  0  0  0  0  0  0  0  0  0  0
  146.5100   74.5710  220.0890 H   0  0  0  0  0  0  0  0  0  0  0  0
  145.4562   72.8646  218.6993 H   0  0  0  0  0  0  0  0  0  0  0  0
  145.2382   71.6388  219.9051 H   0  0  0  0  0  0  0  0  0  0  0  0
  143.2198   72.1950  218.2375 H   0  0  0  0  0  0  0  0  0  0  0  0
  141.1824   69.1206  220.6288 H   0  0  0  0  0  0  0  0  0  0  0  0
  140.5020   70.5300  221.4462 H   0  0  0  0  0  0  0  0  0  0  0  0
  139.2989   68.8665  219.3273 H   0  0  0  0  0  0  0  0  0  0  0  0
  138.5130   70.1541  220.2359 H   0  0  0  0  0  0  0  0  0  0  0  0
  139.0508   70.4477  217.5667 H   0  0  0  0  0  0  0  0  0  0  0  0
  139.1820   71.8440  218.5848 H   0  0  0  0  0  0  0  0  0  0  0  0
  141.4242   69.7850  217.8702 H   0  0  0  0  0  0  0  0  0  0  0  0
  141.5166   71.4866  217.5515 H   0  0  0  0  0  0  0  0  0  0  0  0
  137.9530   71.2369  221.9577 H   0  0  0  0  0  0  0  0  0  0  0  0
  137.8254   69.4974  223.7318 H   0  0  0  0  0  0  0  0  0  0  0  0
  138.6981   68.5580  225.8086 H   0  0  0  0  0  0  0  0  0  0  0  0
  142.0718   70.4758  227.6839 H   0  0  0  0  0  0  0  0  0  0  0  0
  142.1519   72.2011  225.8711 H   0  0  0  0  0  0  0  0  0  0  0  0
  1  2  2  0
  2  3  1  0
  3  4  1  0
  4  5  1  0
  5  6  2  0
  5  7  1  0
  7  8  1  0
  8  9  1  0
  9 10  1  0
  9 11  1  0
 11 12  1  0
 12 13  1  0
 13 14  2  0
 13 15  1  0
 15 16  1  0
 16 17  1  0
 17 18  1  0
 18 19  1  0
  2 20  1  0
 20 21  2  0
 21 22  1  0
 22 23  2  0
 23 24  1  0
 24 25  2  0
 25 26  1  0
 25 27  1  0
 27 28  2  0
 28 29  1  0
 29 30  2  0
 12  7  1  0
 19 15  1  0
 30 20  1  0
 29 23  1  0
  3 31  1  0
  4 32  1  0
  4 33  1  0
  8 34  1  0
  8 35  1  0
  9 36  1  1
 10 37  1  0
 11 38  1  0
 11 39  1  0
 12 40  1  6
 16 41  1  0
 16 42  1  0
 17 43  1  0
 17 44  1  0
 18 45  1  0
 18 46  1  0
 19 47  1  0
 19 48  1  0
 21 49  1  0
 22 50  1  0
 24 51  1  0
 27 52  1  0
 28 53  1  0
M  END
>  <smiles>  (46) 
O=C(NCC(=O)N1C[C@H](O)C[C@H]1C(=O)N1CCCC1)c1ccc2cc(Cl)ccc2n1

>  <score_type>  (46) 
oracle

>  <origin>  (46) 
autodockgpu

>  <m_score__min__energy>  (46) 
-8.0099999999999998

>  <m_primary>  (46) 
energy

>  <rmsd>  (46) 
5.777428645989162

>  <m_score__min__rmsd>  (46) 
5.777428645989162

>  <meeko>  (46) 
{"free_energy": -5.88, "intermolecular_energy": -7.67, "internal_energy": -3.31, "cluster_size": 3, "cluster_id": 3, "rank_in_cluster": 3}

>  <energy>  (46) 
-6.25

>  <cluster_rmsd>  (46) 
0.32

>  <cluster>  (46) 
7

$$$$

     RDKit          3D

 53 56  0  0  0  0  0  0  0  0999 V2000
  140.4290   72.3920  220.6420 O   0  0  0  0  0  0  0  0  0  0  0  0
  140.1460   72.7990  221.7980 C   0  0  0  0  0  0  0  0  0  0  0  0
  139.8530   74.2000  221.9410 N   0  0  0  0  0  0  0  0  0  0  0  0
  139.9050   75.0140  220.7690 C   0  0  0  0  0  0  0  0  0  0  0  0
  140.8290   76.1660  220.8940 C   0  0  0  0  0  0  0  0  0  0  0  0
  141.1140   76.6410  222.0410 O   0  0  0  0  0  0  0  0  0  0  0  0
  141.3740   76.7030  219.6940 N   0  0  0  0  0  0  0  0  0  0  0  0
  141.2000   78.0370  219.1320 C   0  0  0  0  0  0  0  0  0  0  0  0
  142.5060   78.2000  218.3580 C   0  0  2  0  0  0  0  0  0  0  0  0
  142.4360   79.2670  217.4760 O   0  0  0  0  0  0  0  0  0  0  0  0
  142.5130   76.8490  217.6410 C   0  0  0  0  0  0  0  0  0  0  0  0
  142.2490   75.9300  218.7980 C   0  0  1  0  0  0  0  0  0  0  0  0
  143.4690   75.5560  219.5360 C   0  0  0  0  0  0  0  0  0  0  0  0
  144.2400   76.3970  220.0880 O   0  0  0  0  0  0  0  0  0  0  0  0
  143.8350   74.1880  219.6560 N   0  0  0  0  0  0  0  0  0  0  0  0
  145.0180   73.7210  220.3630 C   0  0  0  0  0  0  0  0  0  0  0  0
  144.6930   72.2880  220.7790 C   0  0  0  0  0  0  0  0  0  0  0  0
  143.2400   72.0940  220.3780 C   0  0  0  0  0  0  0  0  0  0  0  0
  143.1730   73.0040  219.1450 C   0  0  0  0  0  0  0  0  0  0  0  0
  140.1110   71.9090  222.9650 C   0  0  0  0  0  0  0  0  0  0  0  0
  139.5270   70.6720  222.7920 C   0  0  0  0  0  0  0  0  0  0  0  0
  139.4450   69.7580  223.8360 C   0  0  0  0  0  0  0  0  0  0  0  0
  139.9640   70.1100  225.0700 C   0  0  0  0  0  0  0  0  0  0  0  0
  139.8960   69.2190  226.1290 C   0  0  0  0  0  0  0  0  0  0  0  0
  140.4310   69.6320  227.3220 C   0  0  0  0  0  0  0  0  0  0  0  0
  140.3530   68.5160  228.6760 Cl  0  0  0  0  0  0  0  0  0  0  0  0
  141.0160   70.8710  227.4930 C   0  0  0  0  0  0  0  0  0  0  0  0
  141.0820   71.7600  226.4290 C   0  0  0  0  0  0  0  0  0  0  0  0
  140.5500   71.3680  225.2140 C   0  0  0  0  0  0  0  0  0  0  0  0
  140.6040   72.2260  224.1550 N   0  0  0  0  0  0  0  0  0  0  0  0
  139.6140   74.5740  222.8870 H   0  0  0  0  0  0  0  0  0  0  0  0
  140.2369   74.3905  219.9257 H   0  0  0  0  0  0  0  0  0  0  0  0
  138.8958   75.4223  220.6117 H   0  0  0  0  0  0  0  0  0  0  0  0
  140.3266   78.0835  218.4649 H   0  0  0  0  0  0  0  0  0  0  0  0
  141.0146   78.8230  219.8789 H   0  0  0  0  0  0  0  0  0  0  0  0
  143.4041   78.4195  218.9541 H   0  0  0  0  0  0  0  0  0  0  0  0
  143.3460   79.3800  217.0980 H   0  0  0  0  0  0  0  0  0  0  0  0
  141.7189   76.7867  216.8824 H   0  0  0  0  0  0  0  0  0  0  0  0
  143.4335   76.6302  217.0800 H   0  0  0  0  0  0  0  0  0  0  0  0
  141.8126   74.9871  218.4367 H   0  0  0  0  0  0  0  0  0  0  0  0
  145.8965   73.7412  219.7013 H   0  0  0  0  0  0  0  0  0  0  0  0
  145.2591   74.3566  221.2278 H   0  0  0  0  0  0  0  0  0  0  0  0
  145.3408   71.5734  220.2501 H   0  0  0  0  0  0  0  0  0  0  0  0
  144.8560   72.1178  221.8535 H   0  0  0  0  0  0  0  0  0  0  0  0
  143.0246   71.0460  220.1227 H   0  0  0  0  0  0  0  0  0  0  0  0
  142.5092   72.3305  221.1654 H   0  0  0  0  0  0  0  0  0  0  0  0
  143.7153   72.5719  218.2911 H   0  0  0  0  0  0  0  0  0  0  0  0
  142.1584   73.1769  218.7568 H   0  0  0  0  0  0  0  0  0  0  0  0
  139.1174   70.4028  221.8072 H   0  0  0  0  0  0  0  0  0  0  0  0
  138.9768   68.7742  223.6845 H   0  0  0  0  0  0  0  0  0  0  0  0
  139.4344   68.2268  226.0178 H   0  0  0  0  0  0  0  0  0  0  0  0
  141.4297   71.1535  228.4723 H   0  0  0  0  0  0  0  0  0  0  0  0
  141.5453   72.7504  226.5490 H   0  0  0  0  0  0  0  0  0  0  0  0
  1  2  2  0
  2  3  1  0
  3  4  1  0
  4  5  1  0
  5  6  2  0
  5  7  1  0
  7  8  1  0
  8  9  1  0
  9 10  1  0
  9 11  1  0
 11 12  1  0
 12 13  1  0
 13 14  2  0
 13 15  1  0
 15 16  1  0
 16 17  1  0
 17 18  1  0
 18 19  1  0
  2 20  1  0
 20 21  2  0
 21 22  1  0
 22 23  2  0
 23 24  1  0
 24 25  2  0
 25 26  1  0
 25 27  1  0
 27 28  2  0
 28 29  1  0
 29 30  2  0
 12  7  1  0
 19 15  1  0
 30 20  1  0
 29 23  1  0
  3 31  1  0
  4 32  1  0
  4 33  1  0
  8 34  1  0
  8 35  1  0
  9 36  1  1
 10 37  1  0
 11 38  1  0
 11 39  1  0
 12 40  1  6
 16 41  1  0
 16 42  1  0
 17 43  1  0
 17 44  1  0
 18 45  1  0
 18 46  1  0
 19 47  1  0
 19 48  1  0
 21 49  1  0
 22 50  1  0
 24 51  1  0
 27 52  1  0
 28 53  1  0
M  END
>  <smiles>  (47) 
O=C(NCC(=O)N1C[C@H](O)C[C@H]1C(=O)N1CCCC1)c1ccc2cc(Cl)ccc2n1

>  <score_type>  (47) 
oracle

>  <origin>  (47) 
autodockgpu

>  <m_score__min__energy>  (47) 
-8.0099999999999998

>  <m_primary>  (47) 
energy

>  <rmsd>  (47) 
4.337494607879481

>  <m_score__min__rmsd>  (47) 
4.337494607879481

>  <meeko>  (47) 
{"free_energy": -8.01, "intermolecular_energy": -9.8, "internal_energy": -2.0, "cluster_size": 13, "cluster_id": 1, "rank_in_cluster": 1}

>  <energy>  (47) 
-6.19

>  <cluster_rmsd>  (47) 
0.45

>  <cluster>  (47) 
7

$$$$

     RDKit          3D

 53 56  0  0  0  0  0  0  0  0999 V2000
  139.7160   73.8630  222.1820 O   0  0  0  0  0  0  0  0  0  0  0  0
  139.9470   72.6340  222.0370 C   0  0  0  0  0  0  0  0  0  0  0  0
  140.1360   72.1630  220.6910 N   0  0  0  0  0  0  0  0  0  0  0  0
  140.0490   73.1170  219.6320 C   0  0  0  0  0  0  0  0  0  0  0  0
  141.2550   73.1530  218.7720 C   0  0  0  0  0  0  0  0  0  0  0  0
  141.1420   73.2940  217.5110 O   0  0  0  0  0  0  0  0  0  0  0  0
  142.5210   73.0260  219.4100 N   0  0  0  0  0  0  0  0  0  0  0  0
  143.5660   72.0390  219.1720 C   0  0  0  0  0  0  0  0  0  0  0  0
  144.8110   72.8290  219.5690 C   0  0  2  0  0  0  0  0  0  0  0  0
  145.9050   71.9950  219.7290 O   0  0  0  0  0  0  0  0  0  0  0  0
  144.3050   73.3910  220.8990 C   0  0  0  0  0  0  0  0  0  0  0  0
  142.9750   73.9390  220.4710 C   0  0  1  0  0  0  0  0  0  0  0  0
  143.0590   75.3030  219.9160 C   0  0  0  0  0  0  0  0  0  0  0  0
  143.9190   75.6580  219.0550 O   0  0  0  0  0  0  0  0  0  0  0  0
  142.1420   76.3010  220.3440 N   0  0  0  0  0  0  0  0  0  0  0  0
  142.1440   77.6710  219.8560 C   0  0  0  0  0  0  0  0  0  0  0  0
  140.7140   78.1670  220.0550 C   0  0  0  0  0  0  0  0  0  0  0  0
  139.9490   76.9440  220.5340 C   0  0  0  0  0  0  0  0  0  0  0  0
  141.0570   76.2120  221.3010 C   0  0  0  0  0  0  0  0  0  0  0  0
  140.0230   71.7030  223.1690 C   0  0  0  0  0  0  0  0  0  0  0  0
  139.5860   70.4150  222.9510 C   0  0  0  0  0  0  0  0  0  0  0  0
  139.6180   69.4590  223.9590 C   0  0  0  0  0  0  0  0  0  0  0  0
  140.1000   69.8230  225.2050 C   0  0  0  0  0  0  0  0  0  0  0  0
  140.1430   68.8910  226.2300 C   0  0  0  0  0  0  0  0  0  0  0  0
  140.6340   69.3190  227.4360 C   0  0  0  0  0  0  0  0  0  0  0  0
  140.6960   68.1520  228.7480 Cl  0  0  0  0  0  0  0  0  0  0  0  0
  141.0720   70.6100  227.6540 C   0  0  0  0  0  0  0  0  0  0  0  0
  141.0260   71.5400  226.6230 C   0  0  0  0  0  0  0  0  0  0  0  0
  140.5360   71.1340  225.3950 C   0  0  0  0  0  0  0  0  0  0  0  0
  140.4830   72.0320  224.3690 N   0  0  0  0  0  0  0  0  0  0  0  0
  140.3290   71.1480  220.5310 H   0  0  0  0  0  0  0  0  0  0  0  0
  139.1812   72.8640  219.0052 H   0  0  0  0  0  0  0  0  0  0  0  0
  139.9514   74.1095  220.0962 H   0  0  0  0  0  0  0  0  0  0  0  0
  143.4332   71.1496  219.8055 H   0  0  0  0  0  0  0  0  0  0  0  0
  143.5893   71.6425  218.1462 H   0  0  0  0  0  0  0  0  0  0  0  0
  145.1659   73.5787  218.8466 H   0  0  0  0  0  0  0  0  0  0  0  0
  146.0080   71.8480  220.7040 H   0  0  0  0  0  0  0  0  0  0  0  0
  144.1949   72.6027  221.6582 H   0  0  0  0  0  0  0  0  0  0  0  0
  144.9739   74.1245  221.3728 H   0  0  0  0  0  0  0  0  0  0  0  0
  142.2989   74.0038  221.3362 H   0  0  0  0  0  0  0  0  0  0  0  0
  142.8497   78.2857  220.4340 H   0  0  0  0  0  0  0  0  0  0  0  0
  142.4587   77.7329  218.8038 H   0  0  0  0  0  0  0  0  0  0  0  0
  140.6814   78.9662  220.8102 H   0  0  0  0  0  0  0  0  0  0  0  0
  140.2875   78.5927  219.1347 H   0  0  0  0  0  0  0  0  0  0  0  0
  139.1118   77.2195  221.1922 H   0  0  0  0  0  0  0  0  0  0  0  0
  139.4751   76.3549  219.7351 H   0  0  0  0  0  0  0  0  0  0  0  0
  141.3039   76.7222  222.2437 H   0  0  0  0  0  0  0  0  0  0  0  0
  140.8012   75.1880  221.6108 H   0  0  0  0  0  0  0  0  0  0  0  0
  139.2035   70.1373  221.9577 H   0  0  0  0  0  0  0  0  0  0  0  0
  139.2674   68.4335  223.7708 H   0  0  0  0  0  0  0  0  0  0  0  0
  139.7993   67.8565  226.0825 H   0  0  0  0  0  0  0  0  0  0  0  0
  141.4568   70.9017  228.6424 H   0  0  0  0  0  0  0  0  0  0  0  0
  141.3705   72.5729  226.7793 H   0  0  0  0  0  0  0  0  0  0  0  0
  1  2  2  0
  2  3  1  0
  3  4  1  0
  4  5  1  0
  5  6  2  0
  5  7  1  0
  7  8  1  0
  8  9  1  0
  9 10  1  0
  9 11  1  0
 11 12  1  0
 12 13  1  0
 13 14  2  0
 13 15  1  0
 15 16  1  0
 16 17  1  0
 17 18  1  0
 18 19  1  0
  2 20  1  0
 20 21  2  0
 21 22  1  0
 22 23  2  0
 23 24  1  0
 24 25  2  0
 25 26  1  0
 25 27  1  0
 27 28  2  0
 28 29  1  0
 29 30  2  0
 12  7  1  0
 19 15  1  0
 30 20  1  0
 29 23  1  0
  3 31  1  0
  4 32  1  0
  4 33  1  0
  8 34  1  0
  8 35  1  0
  9 36  1  6
 10 37  1  0
 11 38  1  0
 11 39  1  0
 12 40  1  1
 16 41  1  0
 16 42  1  0
 17 43  1  0
 17 44  1  0
 18 45  1  0
 18 46  1  0
 19 47  1  0
 19 48  1  0
 21 49  1  0
 22 50  1  0
 24 51  1  0
 27 52  1  0
 28 53  1  0
M  END
>  <smiles>  (48) 
O=C(NCC(=O)N1C[C@H](O)C[C@H]1C(=O)N1CCCC1)c1ccc2cc(Cl)ccc2n1

>  <score_type>  (48) 
oracle

>  <origin>  (48) 
autodockgpu

>  <m_score__min__energy>  (48) 
-8.0099999999999998

>  <m_primary>  (48) 
energy

>  <rmsd>  (48) 
3.708383781254229

>  <m_score__min__rmsd>  (48) 
3.708383781254229

>  <meeko>  (48) 
{"free_energy": -7.61, "intermolecular_energy": -9.4, "internal_energy": -1.83, "cluster_size": 3, "cluster_id": 3, "rank_in_cluster": 1}

>  <energy>  (48) 
-6.12

>  <cluster_rmsd>  (48) 
0.45

>  <cluster>  (48) 
7

$$$$

     RDKit          3D

 53 56  0  0  0  0  0  0  0  0999 V2000
  136.3650   71.3180  221.8210 O   0  0  0  0  0  0  0  0  0  0  0  0
  137.2660   71.7870  222.5640 C   0  0  0  0  0  0  0  0  0  0  0  0
  137.6670   73.1460  222.3190 N   0  0  0  0  0  0  0  0  0  0  0  0
  137.0190   73.8530  221.2620 C   0  0  0  0  0  0  0  0  0  0  0  0
  137.9550   74.3460  220.2240 C   0  0  0  0  0  0  0  0  0  0  0  0
  137.6830   74.1940  218.9880 O   0  0  0  0  0  0  0  0  0  0  0  0
  139.1470   74.9850  220.6650 N   0  0  0  0  0  0  0  0  0  0  0  0
  139.3100   76.3150  221.2390 C   0  0  0  0  0  0  0  0  0  0  0  0
  140.5470   76.1090  222.1100 C   0  0  2  0  0  0  0  0  0  0  0  0
  141.0850   77.3210  222.5120 O   0  0  0  0  0  0  0  0  0  0  0  0
  141.4260   75.3920  221.0840 C   0  0  0  0  0  0  0  0  0  0  0  0
  140.4700   74.3430  220.5970 C   0  0  1  0  0  0  0  0  0  0  0  0
  140.4510   73.1340  221.4410 C   0  0  0  0  0  0  0  0  0  0  0  0
  140.5350   73.1600  222.7060 O   0  0  0  0  0  0  0  0  0  0  0  0
  140.3360   71.8510  220.8410 N   0  0  0  0  0  0  0  0  0  0  0  0
  140.3090   70.6020  221.5880 C   0  0  0  0  0  0  0  0  0  0  0  0
  139.5670   69.6160  220.6890 C   0  0  0  0  0  0  0  0  0  0  0  0
  139.0940   70.4540  219.5120 C   0  0  0  0  0  0  0  0  0  0  0  0
  140.2230   71.4900  219.4420 C   0  0  0  0  0  0  0  0  0  0  0  0
  137.8950   71.0060  223.6350 C   0  0  0  0  0  0  0  0  0  0  0  0
  137.3900   69.7450  223.8710 C   0  0  0  0  0  0  0  0  0  0  0  0
  137.9180   68.9280  224.8640 C   0  0  0  0  0  0  0  0  0  0  0  0
  138.9720   69.4040  225.6250 C   0  0  0  0  0  0  0  0  0  0  0  0
  139.5180   68.6110  226.6220 C   0  0  0  0  0  0  0  0  0  0  0  0
  140.5600   69.1440  227.3360 C   0  0  0  0  0  0  0  0  0  0  0  0
  141.2650   68.1540  228.6050 Cl  0  0  0  0  0  0  0  0  0  0  0  0
  141.0650   70.4070  227.0990 C   0  0  0  0  0  0  0  0  0  0  0  0
  140.5140   71.1970  226.0990 C   0  0  0  0  0  0  0  0  0  0  0  0
  139.4620   70.6830  225.3620 C   0  0  0  0  0  0  0  0  0  0  0  0
  138.9060   71.4420  224.3750 N   0  0  0  0  0  0  0  0  0  0  0  0
  138.4140   73.5700  222.9160 H   0  0  0  0  0  0  0  0  0  0  0  0
  136.2929   73.1783  220.7849 H   0  0  0  0  0  0  0  0  0  0  0  0
  136.5358   74.7343  221.7089 H   0  0  0  0  0  0  0  0  0  0  0  0
  139.4860   77.0718  220.4604 H   0  0  0  0  0  0  0  0  0  0  0  0
  138.4287   76.6838  221.7843 H   0  0  0  0  0  0  0  0  0  0  0  0
  140.3949   75.5705  223.0570 H   0  0  0  0  0  0  0  0  0  0  0  0
  142.0600   77.2660  222.3450 H   0  0  0  0  0  0  0  0  0  0  0  0
  141.7375   76.0666  220.2729 H   0  0  0  0  0  0  0  0  0  0  0  0
  142.3736   75.0012  221.4831 H   0  0  0  0  0  0  0  0  0  0  0  0
  140.7627   74.0068  219.5914 H   0  0  0  0  0  0  0  0  0  0  0  0
  141.3316   70.2489  221.7868 H   0  0  0  0  0  0  0  0  0  0  0  0
  139.8184   70.7174  222.5658 H   0  0  0  0  0  0  0  0  0  0  0  0
  140.2413   68.8157  220.3502 H   0  0  0  0  0  0  0  0  0  0  0  0
  138.7348   69.1201  221.2101 H   0  0  0  0  0  0  0  0  0  0  0  0
  139.0295   69.8593  218.5888 H   0  0  0  0  0  0  0  0  0  0  0  0
  138.0856   70.8788  219.6249 H   0  0  0  0  0  0  0  0  0  0  0  0
  141.1555   71.0494  219.0595 H   0  0  0  0  0  0  0  0  0  0  0  0
  140.0292   72.3346  218.7645 H   0  0  0  0  0  0  0  0  0  0  0  0
  136.5517   69.3777  223.2607 H   0  0  0  0  0  0  0  0  0  0  0  0
  137.5066   67.9234  225.0416 H   0  0  0  0  0  0  0  0  0  0  0  0
  139.1335   67.6017  226.8305 H   0  0  0  0  0  0  0  0  0  0  0  0
  141.9030   70.7869  227.7018 H   0  0  0  0  0  0  0  0  0  0  0  0
  140.9039   72.2057  225.8979 H   0  0  0  0  0  0  0  0  0  0  0  0
  1  2  2  0
  2  3  1  0
  3  4  1  0
  4  5  1  0
  5  6  2  0
  5  7  1  0
  7  8  1  0
  8  9  1  0
  9 10  1  0
  9 11  1  0
 11 12  1  0
 12 13  1  0
 13 14  2  0
 13 15  1  0
 15 16  1  0
 16 17  1  0
 17 18  1  0
 18 19  1  0
  2 20  1  0
 20 21  2  0
 21 22  1  0
 22 23  2  0
 23 24  1  0
 24 25  2  0
 25 26  1  0
 25 27  1  0
 27 28  2  0
 28 29  1  0
 29 30  2  0
 12  7  1  0
 19 15  1  0
 30 20  1  0
 29 23  1  0
  3 31  1  0
  4 32  1  0
  4 33  1  0
  8 34  1  0
  8 35  1  0
  9 36  1  1
 10 37  1  0
 11 38  1  0
 11 39  1  0
 12 40  1  6
 16 41  1  0
 16 42  1  0
 17 43  1  0
 17 44  1  0
 18 45  1  0
 18 46  1  0
 19 47  1  0
 19 48  1  0
 21 49  1  0
 22 50  1  0
 24 51  1  0
 27 52  1  0
 28 53  1  0
M  END
>  <smiles>  (49) 
O=C(NCC(=O)N1C[C@H](O)C[C@H]1C(=O)N1CCCC1)c1ccc2cc(Cl)ccc2n1

>  <score_type>  (49) 
oracle

>  <origin>  (49) 
autodockgpu

>  <m_score__min__energy>  (49) 
-8.0099999999999998

>  <m_primary>  (49) 
energy

>  <rmsd>  (49) 
4.917167283013937

>  <m_score__min__rmsd>  (49) 
4.917167283013937

>  <meeko>  (49) 
{"free_energy": -6.51, "intermolecular_energy": -8.3, "internal_energy": -3.44, "cluster_size": 10, "cluster_id": 7, "rank_in_cluster": 3}

>  <energy>  (49) 
-5.89

>  <cluster_rmsd>  (49) 
0.6

>  <cluster>  (49) 
7

$$$$

     RDKit          3D

 53 56  0  0  0  0  0  0  0  0999 V2000
  137.7520   71.1260  221.4970 O   0  0  0  0  0  0  0  0  0  0  0  0
  138.4090   71.6440  222.4360 C   0  0  0  0  0  0  0  0  0  0  0  0
  138.6630   73.0580  222.3500 N   0  0  0  0  0  0  0  0  0  0  0  0
  138.1560   73.7580  221.2140 C   0  0  0  0  0  0  0  0  0  0  0  0
  139.1690   73.9740  220.1550 C   0  0  0  0  0  0  0  0  0  0  0  0
  139.1850   73.2340  219.1180 O   0  0  0  0  0  0  0  0  0  0  0  0
  140.1060   75.0280  220.3480 N   0  0  0  0  0  0  0  0  0  0  0  0
  139.9060   76.3170  220.9990 C   0  0  0  0  0  0  0  0  0  0  0  0
  141.3160   76.6100  221.5060 C   0  0  2  0  0  0  0  0  0  0  0  0
  141.4470   77.9370  221.8850 O   0  0  0  0  0  0  0  0  0  0  0  0
  142.0870   76.2900  220.2240 C   0  0  0  0  0  0  0  0  0  0  0  0
  141.5010   74.9510  219.8850 C   0  0  1  0  0  0  0  0  0  0  0  0
  142.1670   73.8320  220.5770 C   0  0  0  0  0  0  0  0  0  0  0  0
  141.6180   73.1440  221.4890 O   0  0  0  0  0  0  0  0  0  0  0  0
  143.4990   73.4750  220.2300 N   0  0  0  0  0  0  0  0  0  0  0  0
  144.2390   72.3890  220.8540 C   0  0  0  0  0  0  0  0  0  0  0  0
  145.2750   71.9650  219.8160 C   0  0  0  0  0  0  0  0  0  0  0  0
  144.9380   72.7870  218.5830 C   0  0  0  0  0  0  0  0  0  0  0  0
  144.3860   74.0570  219.2430 C   0  0  0  0  0  0  0  0  0  0  0  0
  138.9050   70.8670  223.5780 C   0  0  0  0  0  0  0  0  0  0  0  0
  138.7020   69.5050  223.5450 C   0  0  0  0  0  0  0  0  0  0  0  0
  139.1350   68.6830  224.5780 C   0  0  0  0  0  0  0  0  0  0  0  0
  139.7820   69.2580  225.6590 C   0  0  0  0  0  0  0  0  0  0  0  0
  140.2240   68.4620  226.7040 C   0  0  0  0  0  0  0  0  0  0  0  0
  140.8570   69.0980  227.7410 C   0  0  0  0  0  0  0  0  0  0  0  0
  141.4250   68.1070  229.0760 Cl  0  0  0  0  0  0  0  0  0  0  0  0
  141.0600   70.4630  227.7740 C   0  0  0  0  0  0  0  0  0  0  0  0
  140.6150   71.2550  226.7240 C   0  0  0  0  0  0  0  0  0  0  0  0
  139.9730   70.6400  225.6640 C   0  0  0  0  0  0  0  0  0  0  0  0
  139.5280   71.3990  224.6230 N   0  0  0  0  0  0  0  0  0  0  0  0
  139.2070   73.5230  223.1120 H   0  0  0  0  0  0  0  0  0  0  0  0
  137.3253   73.1761  220.7882 H   0  0  0  0  0  0  0  0  0  0  0  0
  137.8336   74.7505  221.5618 H   0  0  0  0  0  0  0  0  0  0  0  0
  139.5666   77.0817  220.2849 H   0  0  0  0  0  0  0  0  0  0  0  0
  139.1341   76.3140  221.7827 H   0  0  0  0  0  0  0  0  0  0  0  0
  141.6398   76.0559  222.3994 H   0  0  0  0  0  0  0  0  0  0  0  0
  142.4150   78.0960  222.0270 H   0  0  0  0  0  0  0  0  0  0  0  0
  141.8908   77.0314  219.4354 H   0  0  0  0  0  0  0  0  0  0  0  0
  143.1818   76.2994  220.3309 H   0  0  0  0  0  0  0  0  0  0  0  0
  141.6135   74.7529  218.8089 H   0  0  0  0  0  0  0  0  0  0  0  0
  144.7333   72.7367  221.7731 H   0  0  0  0  0  0  0  0  0  0  0  0
  143.5817   71.5560  221.1441 H   0  0  0  0  0  0  0  0  0  0  0  0
  146.2925   72.1910  220.1676 H   0  0  0  0  0  0  0  0  0  0  0  0
  145.2490   70.8834  219.6172 H   0  0  0  0  0  0  0  0  0  0  0  0
  145.8320   72.9984  217.9779 H   0  0  0  0  0  0  0  0  0  0  0  0
  144.2499   72.2982  217.8776 H   0  0  0  0  0  0  0  0  0  0  0  0
  145.1840   74.6504  219.7133 H   0  0  0  0  0  0  0  0  0  0  0  0
  143.9029   74.7617  218.5502 H   0  0  0  0  0  0  0  0  0  0  0  0
  138.1860   69.0585  222.6822 H   0  0  0  0  0  0  0  0  0  0  0  0
  138.9672   67.5966  224.5380 H   0  0  0  0  0  0  0  0  0  0  0  0
  140.0742   67.3722  226.7016 H   0  0  0  0  0  0  0  0  0  0  0  0
  141.5737   70.9227  228.6312 H   0  0  0  0  0  0  0  0  0  0  0  0
  140.7690   72.3441  226.7347 H   0  0  0  0  0  0  0  0  0  0  0  0
  1  2  2  0
  2  3  1  0
  3  4  1  0
  4  5  1  0
  5  6  2  0
  5  7  1  0
  7  8  1  0
  8  9  1  0
  9 10  1  0
  9 11  1  0
 11 12  1  0
 12 13  1  0
 13 14  2  0
 13 15  1  0
 15 16  1  0
 16 17  1  0
 17 18  1  0
 18 19  1  0
  2 20  1  0
 20 21  2  0
 21 22  1  0
 22 23  2  0
 23 24  1  0
 24 25  2  0
 25 26  1  0
 25 27  1  0
 27 28  2  0
 28 29  1  0
 29 30  2  0
 12  7  1  0
 19 15  1  0
 30 20  1  0
 29 23  1  0
  3 31  1  0
  4 32  1  0
  4 33  1  0
  8 34  1  0
  8 35  1  0
  9 36  1  1
 10 37  1  0
 11 38  1  0
 11 39  1  0
 12 40  1  6
 16 41  1  0
 16 42  1  0
 17 43  1  0
 17 44  1  0
 18 45  1  0
 18 46  1  0
 19 47  1  0
 19 48  1  0
 21 49  1  0
 22 50  1  0
 24 51  1  0
 27 52  1  0
 28 53  1  0
M  END
>  <smiles>  (50) 
O=C(NCC(=O)N1C[C@H](O)C[C@H]1C(=O)N1CCCC1)c1ccc2cc(Cl)ccc2n1

>  <score_type>  (50) 
oracle

>  <origin>  (50) 
autodockgpu

>  <m_score__min__energy>  (50) 
-8.0099999999999998

>  <m_primary>  (50) 
energy

>  <rmsd>  (50) 
4.1692518822414995

>  <m_score__min__rmsd>  (50) 
4.1692518822414995

>  <meeko>  (50) 
{"free_energy": -7.06, "intermolecular_energy": -8.85, "internal_energy": -1.76, "cluster_size": 13, "cluster_id": 1, "rank_in_cluster": 11}

>  <energy>  (50) 
-5.87

>  <cluster_rmsd>  (50) 
0.44

>  <cluster>  (50) 
7

$$$$
