
     RDKit          3D

 70 73  0  0  0  0  0  0  0  0999 V2000
  142.2390   81.2400  223.9050 C   0  0  0  0  0  0  0  0  0  0  0  0
  142.8020   80.4190  222.7270 C   0  0  0  0  0  0  0  0  0  0  0  0
  141.9280   79.2000  222.5520 C   0  0  0  0  0  0  0  0  0  0  0  0
  141.8130   78.5210  223.6170 O   0  0  0  0  0  0  0  0  0  0  0  0
  141.3140   78.8750  221.3200 N   0  0  0  0  0  0  0  0  0  0  0  0
  141.7310   79.3550  220.0550 C   0  0  0  0  0  0  0  0  0  0  0  0
  141.7040   80.7180  219.7660 C   0  0  0  0  0  0  0  0  0  0  0  0
  142.1170   81.2060  218.5230 C   0  0  0  0  0  0  0  0  0  0  0  0
  142.5700   80.3780  217.5270 C   0  0  0  0  0  0  0  0  0  0  0  0
  142.6010   79.0310  217.7990 C   0  0  0  0  0  0  0  0  0  0  0  0
  142.1870   78.5420  219.0430 C   0  0  0  0  0  0  0  0  0  0  0  0
  140.1450   77.9760  221.4300 C   0  0  0  0  0  0  0  0  0  0  0  0
  140.5700   76.6570  221.9370 C   0  0  0  0  0  0  0  0  0  0  0  0
  139.5160   75.8870  222.7200 C   0  0  0  0  0  0  0  0  0  0  0  0
  138.2490   76.4210  222.2870 N   0  0  0  0  0  0  0  0  0  0  0  0
  137.2670   75.8030  221.5050 C   0  0  0  0  0  0  0  0  0  0  0  0
  136.2130   76.5220  221.2560 O   0  0  0  0  0  0  0  0  0  0  0  0
  137.2430   74.4700  220.9230 C   0  0  1  0  0  0  0  0  0  0  0  0
  136.3480   74.2630  219.8320 N   0  0  0  0  0  0  0  0  0  0  0  0
  138.6320   73.9120  220.6510 C   0  0  0  0  0  0  0  0  0  0  0  0
  138.9890   72.8690  221.6660 C   0  0  0  0  0  0  0  0  0  0  0  0
  137.9940   72.2340  222.3750 C   0  0  0  0  0  0  0  0  0  0  0  0
  138.2970   71.2700  223.3270 C   0  0  0  0  0  0  0  0  0  0  0  0
  139.6530   70.9800  223.5260 C   0  0  0  0  0  0  0  0  0  0  0  0
  139.9570   69.9370  224.5460 C   0  0  0  0  0  0  0  0  0  0  0  0
  140.2080   70.5010  225.8800 C   0  0  0  0  0  0  0  0  0  0  0  0
  139.6950   70.0240  227.0570 C   0  0  0  0  0  0  0  0  0  0  0  0
  139.9840   70.6270  228.2720 C   0  0  0  0  0  0  0  0  0  0  0  0
  140.8180   71.7550  228.3250 C   0  0  0  0  0  0  0  0  0  0  0  0
  141.3370   72.2380  227.1230 C   0  0  0  0  0  0  0  0  0  0  0  0
  141.0300   71.6160  225.9510 C   0  0  0  0  0  0  0  0  0  0  0  0
  140.6490   71.6150  222.8160 C   0  0  0  0  0  0  0  0  0  0  0  0
  140.3390   72.5890  221.8560 C   0  0  0  0  0  0  0  0  0  0  0  0
  138.0180   77.8200  222.7490 C   0  0  0  0  0  0  0  0  0  0  0  0
  139.0600   78.7150  222.1150 C   0  0  0  0  0  0  0  0  0  0  0  0
  142.5531   80.7819  224.8545 H   0  0  0  0  0  0  0  0  0  0  0  0
  142.6219   82.2698  223.8504 H   0  0  0  0  0  0  0  0  0  0  0  0
  141.1404   81.2539  223.8504 H   0  0  0  0  0  0  0  0  0  0  0  0
  142.7875   81.0244  221.8087 H   0  0  0  0  0  0  0  0  0  0  0  0
  143.8409   80.1200  222.9299 H   0  0  0  0  0  0  0  0  0  0  0  0
  141.3505   81.4242  220.5317 H   0  0  0  0  0  0  0  0  0  0  0  0
  142.0776   82.2895  218.3371 H   0  0  0  0  0  0  0  0  0  0  0  0
  142.8941   80.7748  216.5536 H   0  0  0  0  0  0  0  0  0  0  0  0
  142.9554   78.3292  217.0297 H   0  0  0  0  0  0  0  0  0  0  0  0
  142.2280   77.4571  219.2201 H   0  0  0  0  0  0  0  0  0  0  0  0
  139.6906   77.6959  220.4682 H   0  0  0  0  0  0  0  0  0  0  0  0
  140.8685   76.0423  221.0750 H   0  0  0  0  0  0  0  0  0  0  0  0
  141.3888   76.8542  222.6446 H   0  0  0  0  0  0  0  0  0  0  0  0
  139.5778   74.8123  222.4939 H   0  0  0  0  0  0  0  0  0  0  0  0
  139.6547   75.9942  223.8059 H   0  0  0  0  0  0  0  0  0  0  0  0
  136.7952   73.8703  221.7292 H   0  0  0  0  0  0  0  0  0  0  0  0
  135.6360   75.0400  219.7190 H   0  0  0  0  0  0  0  0  0  0  0  0
  136.9170   74.3190  218.9350 H   0  0  0  0  0  0  0  0  0  0  0  0
  138.6506   73.4615  219.6477 H   0  0  0  0  0  0  0  0  0  0  0  0
  139.3623   74.7322  220.7132 H   0  0  0  0  0  0  0  0  0  0  0  0
  136.9425   72.4946  222.1841 H   0  0  0  0  0  0  0  0  0  0  0  0
  137.5090   70.7577  223.8984 H   0  0  0  0  0  0  0  0  0  0  0  0
  139.1014   69.2487  224.6107 H   0  0  0  0  0  0  0  0  0  0  0  0
  140.8738   69.4194  224.2274 H   0  0  0  0  0  0  0  0  0  0  0  0
  139.0383   69.1418  227.0381 H   0  0  0  0  0  0  0  0  0  0  0  0
  139.5570   70.2189  229.2000 H   0  0  0  0  0  0  0  0  0  0  0  0
  141.0546   72.2421  229.2825 H   0  0  0  0  0  0  0  0  0  0  0  0
  141.9936   73.1205  227.1222 H   0  0  0  0  0  0  0  0  0  0  0  0
  141.4533   72.0162  225.0179 H   0  0  0  0  0  0  0  0  0  0  0  0
  141.7009   71.3544  223.0048 H   0  0  0  0  0  0  0  0  0  0  0  0
  141.1228   73.1054  221.2824 H   0  0  0  0  0  0  0  0  0  0  0  0
  137.0130   78.1492  222.4465 H   0  0  0  0  0  0  0  0  0  0  0  0
  138.0945   77.8716  223.8451 H   0  0  0  0  0  0  0  0  0  0  0  0
  138.5605   79.3604  221.3775 H   0  0  0  0  0  0  0  0  0  0  0  0
  139.5273   79.2892  222.9286 H   0  0  0  0  0  0  0  0  0  0  0  0
  1  2  1  0
  2  3  1  0
  3  4  2  0
  3  5  1  0
  5  6  1  0
  6  7  2  0
  7  8  1  0
  8  9  2  0
  9 10  1  0
 10 11  2  0
  5 12  1  0
 12 13  1  0
 13 14  1  0
 14 15  1  0
 15 16  1  0
 16 17  2  0
 16 18  1  0
 18 19  1  0
 18 20  1  0
 20 21  1  0
 21 22  2  0
 22 23  1  0
 23 24  2  0
 24 25  1  0
 25 26  1  0
 26 27  2  0
 27 28  1  0
 28 29  2  0
 29 30  1  0
 30 31  2  0
 24 32  1  0
 32 33  2  0
 15 34  1  0
 34 35  1  0
 11  6  1  0
 35 12  1  0
 33 21  1  0
 31 26  1  0
  1 36  1  0
  1 37  1  0
  1 38  1  0
  2 39  1  0
  2 40  1  0
  7 41  1  0
  8 42  1  0
  9 43  1  0
 10 44  1  0
 11 45  1  0
 12 46  1  0
 13 47  1  0
 13 48  1  0
 14 49  1  0
 14 50  1  0
 18 51  1  1
 19 52  1  0
 19 53  1  0
 20 54  1  0
 20 55  1  0
 22 56  1  0
 23 57  1  0
 25 58  1  0
 25 59  1  0
 27 60  1  0
 28 61  1  0
 29 62  1  0
 30 63  1  0
 31 64  1  0
 32 65  1  0
 33 66  1  0
 34 67  1  0
 34 68  1  0
 35 69  1  0
 35 70  1  0
M  END
>  <smiles>  (1) 
CCC(=O)N(c1ccccc1)C1CCN(C(=O)[C@@H](N)Cc2ccc(Cc3ccccc3)cc2)CC1

>  <score_type>  (1) 
oracle

>  <origin>  (1) 
autodockgpu

>  <m_score__min__energy>  (1) 
-8.3699999999999992

>  <m_primary>  (1) 
energy

>  <rmsd>  (1) 
4.721665373346986

>  <m_score__min__rmsd>  (1) 
4.721665373346986

>  <meeko>  (1) 
{"free_energy": -8.11, "intermolecular_energy": -11.09, "internal_energy": -2.63, "cluster_size": 13, "cluster_id": 2, "rank_in_cluster": 6}

>  <energy>  (1) 
-8.37

>  <cluster_rmsd>  (1) 
0.0

>  <cluster>  (1) 
1

$$$$

     RDKit          3D

 70 73  0  0  0  0  0  0  0  0999 V2000
  141.0420   67.5170  226.8160 C   0  0  0  0  0  0  0  0  0  0  0  0
  139.5400   67.5270  226.4620 C   0  0  0  0  0  0  0  0  0  0  0  0
  139.3730   68.3020  225.1770 C   0  0  0  0  0  0  0  0  0  0  0  0
  139.1840   67.5520  224.1720 O   0  0  0  0  0  0  0  0  0  0  0  0
  139.4240   69.7150  225.1290 N   0  0  0  0  0  0  0  0  0  0  0  0
  140.1060   70.5330  226.0610 C   0  0  0  0  0  0  0  0  0  0  0  0
  139.8300   70.4450  227.4240 C   0  0  0  0  0  0  0  0  0  0  0  0
  140.4990   71.2440  228.3550 C   0  0  0  0  0  0  0  0  0  0  0  0
  141.4600   72.1510  227.9830 C   0  0  0  0  0  0  0  0  0  0  0  0
  141.7420   72.2490  226.6410 C   0  0  0  0  0  0  0  0  0  0  0  0
  141.0710   71.4500  225.7090 C   0  0  0  0  0  0  0  0  0  0  0  0
  138.6750   70.3220  224.0070 C   0  0  0  0  0  0  0  0  0  0  0  0
  139.5660   70.4990  222.8450 C   0  0  0  0  0  0  0  0  0  0  0  0
  138.8830   70.4570  221.4850 C   0  0  0  0  0  0  0  0  0  0  0  0
  137.5040   70.7940  221.7380 N   0  0  0  0  0  0  0  0  0  0  0  0
  136.8160   71.9610  221.3870 C   0  0  0  0  0  0  0  0  0  0  0  0
  135.5680   72.0070  221.7470 O   0  0  0  0  0  0  0  0  0  0  0  0
  137.2850   73.1410  220.6760 C   0  0  1  0  0  0  0  0  0  0  0  0
  136.3930   73.7110  219.7210 N   0  0  0  0  0  0  0  0  0  0  0  0
  137.9010   74.1850  221.5950 C   0  0  0  0  0  0  0  0  0  0  0  0
  139.3070   74.4910  221.1780 C   0  0  0  0  0  0  0  0  0  0  0  0
  139.5560   75.5440  220.3270 C   0  0  0  0  0  0  0  0  0  0  0  0
  140.8480   75.8440  219.9180 C   0  0  0  0  0  0  0  0  0  0  0  0
  141.8750   75.0300  220.4130 C   0  0  0  0  0  0  0  0  0  0  0  0
  143.2550   75.3740  219.9690 C   0  0  0  0  0  0  0  0  0  0  0  0
  144.1310   74.1980  219.8690 C   0  0  0  0  0  0  0  0  0  0  0  0
  145.0910   73.8390  220.7790 C   0  0  0  0  0  0  0  0  0  0  0  0
  145.8760   72.7110  220.5970 C   0  0  0  0  0  0  0  0  0  0  0  0
  145.7060   71.9000  219.4650 C   0  0  0  0  0  0  0  0  0  0  0  0
  144.7270   72.2700  218.5410 C   0  0  0  0  0  0  0  0  0  0  0  0
  143.9760   73.3850  218.7560 C   0  0  0  0  0  0  0  0  0  0  0  0
  141.6270   73.9760  221.2650 C   0  0  0  0  0  0  0  0  0  0  0  0
  140.3190   73.6750  221.6750 C   0  0  0  0  0  0  0  0  0  0  0  0
  136.7720   69.7320  222.4860 C   0  0  0  0  0  0  0  0  0  0  0  0
  137.4000   69.5870  223.8560 C   0  0  0  0  0  0  0  0  0  0  0  0
  141.1610   67.5162  227.9095 H   0  0  0  0  0  0  0  0  0  0  0  0
  141.5119   66.6157  226.3954 H   0  0  0  0  0  0  0  0  0  0  0  0
  141.5238   68.4120  226.3954 H   0  0  0  0  0  0  0  0  0  0  0  0
  139.1808   66.4962  226.3265 H   0  0  0  0  0  0  0  0  0  0  0  0
  138.9582   67.9940  227.2703 H   0  0  0  0  0  0  0  0  0  0  0  0
  139.0696   69.7316  227.7744 H   0  0  0  0  0  0  0  0  0  0  0  0
  140.2473   71.1429  229.4210 H   0  0  0  0  0  0  0  0  0  0  0  0
  141.9816   72.7721  228.7261 H   0  0  0  0  0  0  0  0  0  0  0  0
  142.5038   72.9637  226.2962 H   0  0  0  0  0  0  0  0  0  0  0  0
  141.3264   71.5595  224.6447 H   0  0  0  0  0  0  0  0  0  0  0  0
  138.3479   71.3579  224.1800 H   0  0  0  0  0  0  0  0  0  0  0  0
  140.0636   71.4749  222.9447 H   0  0  0  0  0  0  0  0  0  0  0  0
  140.2591   69.6450  222.8622 H   0  0  0  0  0  0  0  0  0  0  0  0
  139.3391   71.1893  220.8026 H   0  0  0  0  0  0  0  0  0  0  0  0
  138.9820   69.4708  221.0080 H   0  0  0  0  0  0  0  0  0  0  0  0
  138.0908   72.7325  220.0485 H   0  0  0  0  0  0  0  0  0  0  0  0
  136.5230   73.3260  218.7420 H   0  0  0  0  0  0  0  0  0  0  0  0
  135.4080   73.4020  219.9770 H   0  0  0  0  0  0  0  0  0  0  0  0
  137.3016   75.1062  221.5486 H   0  0  0  0  0  0  0  0  0  0  0  0
  137.9136   73.7904  222.6217 H   0  0  0  0  0  0  0  0  0  0  0  0
  138.7176   76.1575  219.9653 H   0  0  0  0  0  0  0  0  0  0  0  0
  141.0559   76.6822  219.2367 H   0  0  0  0  0  0  0  0  0  0  0  0
  143.1969   75.8540  218.9809 H   0  0  0  0  0  0  0  0  0  0  0  0
  143.6880   76.0462  220.7244 H   0  0  0  0  0  0  0  0  0  0  0  0
  145.2420   74.4601  221.6742 H   0  0  0  0  0  0  0  0  0  0  0  0
  146.6381   72.4498  221.3460 H   0  0  0  0  0  0  0  0  0  0  0  0
  146.3233   71.0027  219.3106 H   0  0  0  0  0  0  0  0  0  0  0  0
  144.5626   71.6610  217.6398 H   0  0  0  0  0  0  0  0  0  0  0  0
  143.2109   73.6535  218.0127 H   0  0  0  0  0  0  0  0  0  0  0  0
  142.4647   73.3627  221.6284 H   0  0  0  0  0  0  0  0  0  0  0  0
  140.1046   72.8369  222.3545 H   0  0  0  0  0  0  0  0  0  0  0  0
  135.7142   70.0147  222.5911 H   0  0  0  0  0  0  0  0  0  0  0  0
  136.8331   68.7782  221.9414 H   0  0  0  0  0  0  0  0  0  0  0  0
  136.6897   69.9663  224.6054 H   0  0  0  0  0  0  0  0  0  0  0  0
  137.6262   68.5194  223.9944 H   0  0  0  0  0  0  0  0  0  0  0  0
  1  2  1  0
  2  3  1  0
  3  4  2  0
  3  5  1  0
  5  6  1  0
  6  7  2  0
  7  8  1  0
  8  9  2  0
  9 10  1  0
 10 11  2  0
  5 12  1  0
 12 13  1  0
 13 14  1  0
 14 15  1  0
 15 16  1  0
 16 17  2  0
 16 18  1  0
 18 19  1  0
 18 20  1  0
 20 21  1  0
 21 22  2  0
 22 23  1  0
 23 24  2  0
 24 25  1  0
 25 26  1  0
 26 27  2  0
 27 28  1  0
 28 29  2  0
 29 30  1  0
 30 31  2  0
 24 32  1  0
 32 33  2  0
 15 34  1  0
 34 35  1  0
 11  6  1  0
 35 12  1  0
 33 21  1  0
 31 26  1  0
  1 36  1  0
  1 37  1  0
  1 38  1  0
  2 39  1  0
  2 40  1  0
  7 41  1  0
  8 42  1  0
  9 43  1  0
 10 44  1  0
 11 45  1  0
 12 46  1  0
 13 47  1  0
 13 48  1  0
 14 49  1  0
 14 50  1  0
 18 51  1  6
 19 52  1  0
 19 53  1  0
 20 54  1  0
 20 55  1  0
 22 56  1  0
 23 57  1  0
 25 58  1  0
 25 59  1  0
 27 60  1  0
 28 61  1  0
 29 62  1  0
 30 63  1  0
 31 64  1  0
 32 65  1  0
 33 66  1  0
 34 67  1  0
 34 68  1  0
 35 69  1  0
 35 70  1  0
M  END
>  <smiles>  (2) 
CCC(=O)N(c1ccccc1)C1CCN(C(=O)[C@@H](N)Cc2ccc(Cc3ccccc3)cc2)CC1

>  <score_type>  (2) 
oracle

>  <origin>  (2) 
autodockgpu

>  <m_score__min__energy>  (2) 
-8.3699999999999992

>  <m_primary>  (2) 
energy

>  <rmsd>  (2) 
8.272493793176965

>  <m_score__min__rmsd>  (2) 
8.272493793176965

>  <meeko>  (2) 
{"free_energy": -7.82, "intermolecular_energy": -10.81, "internal_energy": -2.81, "cluster_size": 1, "cluster_id": 4, "rank_in_cluster": 1}

>  <energy>  (2) 
-8.2

>  <cluster_rmsd>  (2) 
0.0

>  <cluster>  (2) 
2

$$$$

     RDKit          3D

 70 73  0  0  0  0  0  0  0  0999 V2000
  143.3190   76.3940  219.6540 C   0  0  0  0  0  0  0  0  0  0  0  0
  142.0130   76.9940  219.0920 C   0  0  0  0  0  0  0  0  0  0  0  0
  141.8520   78.3790  219.6720 C   0  0  0  0  0  0  0  0  0  0  0  0
  142.3790   79.2780  218.9510 O   0  0  0  0  0  0  0  0  0  0  0  0
  141.1780   78.6190  220.8920 N   0  0  0  0  0  0  0  0  0  0  0  0
  141.5780   79.5650  221.8670 C   0  0  0  0  0  0  0  0  0  0  0  0
  142.2100   79.1560  223.0410 C   0  0  0  0  0  0  0  0  0  0  0  0
  142.6140   80.0790  224.0090 C   0  0  0  0  0  0  0  0  0  0  0  0
  142.4140   81.4290  223.8590 C   0  0  0  0  0  0  0  0  0  0  0  0
  141.7930   81.8460  222.7060 C   0  0  0  0  0  0  0  0  0  0  0  0
  141.3870   80.9220  221.7370 C   0  0  0  0  0  0  0  0  0  0  0  0
  139.9850   77.7750  221.1150 C   0  0  0  0  0  0  0  0  0  0  0  0
  140.3610   76.5550  221.8540 C   0  0  0  0  0  0  0  0  0  0  0  0
  139.2650   75.9520  222.7220 C   0  0  0  0  0  0  0  0  0  0  0  0
  138.0250   76.4290  222.1610 N   0  0  0  0  0  0  0  0  0  0  0  0
  137.0520   75.7050  221.4650 C   0  0  0  0  0  0  0  0  0  0  0  0
  136.0240   76.3910  221.0600 O   0  0  0  0  0  0  0  0  0  0  0  0
  137.0110   74.2920  221.1190 C   0  0  1  0  0  0  0  0  0  0  0  0
  135.9720   73.8780  220.2350 N   0  0  0  0  0  0  0  0  0  0  0  0
  138.3700   73.7360  220.7220 C   0  0  0  0  0  0  0  0  0  0  0  0
  138.8510   72.7440  221.7370 C   0  0  0  0  0  0  0  0  0  0  0  0
  137.9490   71.9180  222.3680 C   0  0  0  0  0  0  0  0  0  0  0  0
  138.3660   70.9960  223.3180 C   0  0  0  0  0  0  0  0  0  0  0  0
  139.7380   70.9500  223.5980 C   0  0  0  0  0  0  0  0  0  0  0  0
  140.1660   69.9480  224.6150 C   0  0  0  0  0  0  0  0  0  0  0  0
  140.3770   70.5400  225.9440 C   0  0  0  0  0  0  0  0  0  0  0  0
  139.8370   70.0800  227.1170 C   0  0  0  0  0  0  0  0  0  0  0  0
  140.0900   70.7090  228.3260 C   0  0  0  0  0  0  0  0  0  0  0  0
  140.9110   71.8460  228.3800 C   0  0  0  0  0  0  0  0  0  0  0  0
  141.4570   72.3110  227.1820 C   0  0  0  0  0  0  0  0  0  0  0  0
  141.1870   71.6640  226.0150 C   0  0  0  0  0  0  0  0  0  0  0  0
  140.6410   71.7770  222.9670 C   0  0  0  0  0  0  0  0  0  0  0  0
  140.2160   72.7080  222.0070 C   0  0  0  0  0  0  0  0  0  0  0  0
  137.8160   77.8910  222.3690 C   0  0  0  0  0  0  0  0  0  0  0  0
  138.8990   78.6430  221.6260 C   0  0  0  0  0  0  0  0  0  0  0  0
  143.2861   76.4091  220.7534 H   0  0  0  0  0  0  0  0  0  0  0  0
  143.4260   75.3565  219.3046 H   0  0  0  0  0  0  0  0  0  0  0  0
  144.1759   76.9887  219.3046 H   0  0  0  0  0  0  0  0  0  0  0  0
  142.0701   77.0524  217.9950 H   0  0  0  0  0  0  0  0  0  0  0  0
  141.1536   76.3628  219.3623 H   0  0  0  0  0  0  0  0  0  0  0  0
  142.3943   78.0845  223.2084 H   0  0  0  0  0  0  0  0  0  0  0  0
  143.1082   79.7122  224.9207 H   0  0  0  0  0  0  0  0  0  0  0  0
  142.7368   82.1459  224.6283 H   0  0  0  0  0  0  0  0  0  0  0  0
  141.6131   82.9189  222.5431 H   0  0  0  0  0  0  0  0  0  0  0  0
  140.8922   81.2974  220.8291 H   0  0  0  0  0  0  0  0  0  0  0  0
  139.5528   77.3413  220.2011 H   0  0  0  0  0  0  0  0  0  0  0  0
  140.6690   75.7955  221.1203 H   0  0  0  0  0  0  0  0  0  0  0  0
  141.1632   76.8546  222.5444 H   0  0  0  0  0  0  0  0  0  0  0  0
  139.3062   74.8534  222.6857 H   0  0  0  0  0  0  0  0  0  0  0  0
  139.3741   76.2414  223.7776 H   0  0  0  0  0  0  0  0  0  0  0  0
  136.7251   73.8249  222.0730 H   0  0  0  0  0  0  0  0  0  0  0  0
  135.2560   74.6360  220.0420 H   0  0  0  0  0  0  0  0  0  0  0  0
  136.4110   73.7080  219.2810 H   0  0  0  0  0  0  0  0  0  0  0  0
  138.2860   73.2403  219.7436 H   0  0  0  0  0  0  0  0  0  0  0  0
  139.0904   74.5655  220.6677 H   0  0  0  0  0  0  0  0  0  0  0  0
  136.8808   71.9896  222.1155 H   0  0  0  0  0  0  0  0  0  0  0  0
  137.6522   70.3320  223.8275 H   0  0  0  0  0  0  0  0  0  0  0  0
  139.3887   69.1738  224.6945 H   0  0  0  0  0  0  0  0  0  0  0  0
  141.1271   69.5285  224.2828 H   0  0  0  0  0  0  0  0  0  0  0  0
  139.1884   69.1918  227.0984 H   0  0  0  0  0  0  0  0  0  0  0  0
  139.6437   70.3139  229.2505 H   0  0  0  0  0  0  0  0  0  0  0  0
  141.1173   72.3536  229.3338 H   0  0  0  0  0  0  0  0  0  0  0  0
  142.1051   73.1998  227.1811 H   0  0  0  0  0  0  0  0  0  0  0  0
  141.6314   72.0502  225.0858 H   0  0  0  0  0  0  0  0  0  0  0  0
  141.7094   71.7066  223.2190 H   0  0  0  0  0  0  0  0  0  0  0  0
  140.9249   73.3749  221.4944 H   0  0  0  0  0  0  0  0  0  0  0  0
  136.8289   78.1833  221.9813 H   0  0  0  0  0  0  0  0  0  0  0  0
  137.8614   78.1286  223.4421 H   0  0  0  0  0  0  0  0  0  0  0  0
  138.4382   79.1614  220.7722 H   0  0  0  0  0  0  0  0  0  0  0  0
  139.3561   79.3398  222.3440 H   0  0  0  0  0  0  0  0  0  0  0  0
  1  2  1  0
  2  3  1  0
  3  4  2  0
  3  5  1  0
  5  6  1  0
  6  7  2  0
  7  8  1  0
  8  9  2  0
  9 10  1  0
 10 11  2  0
  5 12  1  0
 12 13  1  0
 13 14  1  0
 14 15  1  0
 15 16  1  0
 16 17  2  0
 16 18  1  0
 18 19  1  0
 18 20  1  0
 20 21  1  0
 21 22  2  0
 22 23  1  0
 23 24  2  0
 24 25  1  0
 25 26  1  0
 26 27  2  0
 27 28  1  0
 28 29  2  0
 29 30  1  0
 30 31  2  0
 24 32  1  0
 32 33  2  0
 15 34  1  0
 34 35  1  0
 11  6  1  0
 35 12  1  0
 33 21  1  0
 31 26  1  0
  1 36  1  0
  1 37  1  0
  1 38  1  0
  2 39  1  0
  2 40  1  0
  7 41  1  0
  8 42  1  0
  9 43  1  0
 10 44  1  0
 11 45  1  0
 12 46  1  0
 13 47  1  0
 13 48  1  0
 14 49  1  0
 14 50  1  0
 18 51  1  1
 19 52  1  0
 19 53  1  0
 20 54  1  0
 20 55  1  0
 22 56  1  0
 23 57  1  0
 25 58  1  0
 25 59  1  0
 27 60  1  0
 28 61  1  0
 29 62  1  0
 30 63  1  0
 31 64  1  0
 32 65  1  0
 33 66  1  0
 34 67  1  0
 34 68  1  0
 35 69  1  0
 35 70  1  0
M  END
>  <smiles>  (3) 
CCC(=O)N(c1ccccc1)C1CCN(C(=O)[C@@H](N)Cc2ccc(Cc3ccccc3)cc2)CC1

>  <score_type>  (3) 
oracle

>  <origin>  (3) 
autodockgpu

>  <m_score__min__energy>  (3) 
-8.3699999999999992

>  <m_primary>  (3) 
energy

>  <rmsd>  (3) 
4.912300240659445

>  <m_score__min__rmsd>  (3) 
4.912300240659445

>  <meeko>  (3) 
{"free_energy": -8.2, "intermolecular_energy": -11.18, "internal_energy": -2.93, "cluster_size": 13, "cluster_id": 2, "rank_in_cluster": 1}

>  <energy>  (3) 
-8.16

>  <cluster_rmsd>  (3) 
0.64

>  <cluster>  (3) 
2

$$$$

     RDKit          3D

 70 73  0  0  0  0  0  0  0  0999 V2000
  143.7720   77.0720  214.6230 C   0  0  0  0  0  0  0  0  0  0  0  0
  142.6740   77.5510  215.5950 C   0  0  0  0  0  0  0  0  0  0  0  0
  143.0700   77.1240  216.9880 C   0  0  0  0  0  0  0  0  0  0  0  0
  144.0740   76.3510  216.9980 O   0  0  0  0  0  0  0  0  0  0  0  0
  142.3760   77.5580  218.1420 N   0  0  0  0  0  0  0  0  0  0  0  0
  142.2010   78.9100  218.5220 C   0  0  0  0  0  0  0  0  0  0  0  0
  141.8050   79.2420  219.8160 C   0  0  0  0  0  0  0  0  0  0  0  0
  141.6330   80.5730  220.2060 C   0  0  0  0  0  0  0  0  0  0  0  0
  141.8440   81.6200  219.3430 C   0  0  0  0  0  0  0  0  0  0  0  0
  142.2350   81.3070  218.0630 C   0  0  0  0  0  0  0  0  0  0  0  0
  142.4060   79.9740  217.6730 C   0  0  0  0  0  0  0  0  0  0  0  0
  141.8310   76.4690  218.9810 C   0  0  0  0  0  0  0  0  0  0  0  0
  141.0470   75.5360  218.1490 C   0  0  0  0  0  0  0  0  0  0  0  0
  140.9970   74.0990  218.6480 C   0  0  0  0  0  0  0  0  0  0  0  0
  141.2760   74.1730  220.0610 N   0  0  0  0  0  0  0  0  0  0  0  0
  140.4030   73.9500  221.1310 C   0  0  0  0  0  0  0  0  0  0  0  0
  140.9190   74.0920  222.3160 O   0  0  0  0  0  0  0  0  0  0  0  0
  138.9950   73.5810  221.1240 C   0  0  1  0  0  0  0  0  0  0  0  0
  138.4530   73.0960  222.3500 N   0  0  0  0  0  0  0  0  0  0  0  0
  138.1080   74.6280  220.4680 C   0  0  0  0  0  0  0  0  0  0  0  0
  138.3210   75.9710  221.0980 C   0  0  0  0  0  0  0  0  0  0  0  0
  138.1660   76.1210  222.4580 C   0  0  0  0  0  0  0  0  0  0  0  0
  138.3500   77.3550  223.0670 C   0  0  0  0  0  0  0  0  0  0  0  0
  138.6990   78.4270  222.2350 C   0  0  0  0  0  0  0  0  0  0  0  0
  138.9000   79.7410  222.9090 C   0  0  0  0  0  0  0  0  0  0  0  0
  140.3160   80.0360  223.1710 C   0  0  0  0  0  0  0  0  0  0  0  0
  140.8330   81.2710  223.4620 C   0  0  0  0  0  0  0  0  0  0  0  0
  142.1880   81.4540  223.6900 C   0  0  0  0  0  0  0  0  0  0  0  0
  143.0740   80.3680  223.6250 C   0  0  0  0  0  0  0  0  0  0  0  0
  142.5430   79.1120  223.3270 C   0  0  0  0  0  0  0  0  0  0  0  0
  141.2060   78.9730  223.1110 C   0  0  0  0  0  0  0  0  0  0  0  0
  138.8550   78.2770  220.8740 C   0  0  0  0  0  0  0  0  0  0  0  0
  138.6680   77.0280  220.2630 C   0  0  0  0  0  0  0  0  0  0  0  0
  142.6860   74.5560  220.3580 C   0  0  0  0  0  0  0  0  0  0  0  0
  142.9260   75.9560  219.8350 C   0  0  0  0  0  0  0  0  0  0  0  0
  144.6319   76.6969  215.1973 H   0  0  0  0  0  0  0  0  0  0  0  0
  143.3744   76.2656  213.9893 H   0  0  0  0  0  0  0  0  0  0  0  0
  144.0926   77.9120  213.9893 H   0  0  0  0  0  0  0  0  0  0  0  0
  142.5871   78.6467  215.5503 H   0  0  0  0  0  0  0  0  0  0  0  0
  141.7024   77.1138  215.3215 H   0  0  0  0  0  0  0  0  0  0  0  0
  141.6239   78.4394  220.5461 H   0  0  0  0  0  0  0  0  0  0  0  0
  141.3184   80.7888  221.2377 H   0  0  0  0  0  0  0  0  0  0  0  0
  141.7061   82.6636  219.6621 H   0  0  0  0  0  0  0  0  0  0  0  0
  142.4155   82.1134  217.3370 H   0  0  0  0  0  0  0  0  0  0  0  0
  142.7191   79.7666  216.6391 H   0  0  0  0  0  0  0  0  0  0  0  0
  141.0719   76.7880  219.7104 H   0  0  0  0  0  0  0  0  0  0  0  0
  140.0150   75.9131  218.0971 H   0  0  0  0  0  0  0  0  0  0  0  0
  141.5548   75.5003  217.1739 H   0  0  0  0  0  0  0  0  0  0  0  0
  140.0007   73.6662  218.4748 H   0  0  0  0  0  0  0  0  0  0  0  0
  141.7200   73.4584  218.1218 H   0  0  0  0  0  0  0  0  0  0  0  0
  138.9892   72.6886  220.4809 H   0  0  0  0  0  0  0  0  0  0  0  0
  139.1730   73.0120  223.1240 H   0  0  0  0  0  0  0  0  0  0  0  0
  137.7820   73.8340  222.7190 H   0  0  0  0  0  0  0  0  0  0  0  0
  138.3519   74.6885  219.3971 H   0  0  0  0  0  0  0  0  0  0  0  0
  137.0561   74.3361  220.6034 H   0  0  0  0  0  0  0  0  0  0  0  0
  137.8922   75.2498  223.0713 H   0  0  0  0  0  0  0  0  0  0  0  0
  138.2275   77.4851  224.1524 H   0  0  0  0  0  0  0  0  0  0  0  0
  138.4893   80.5327  222.2652 H   0  0  0  0  0  0  0  0  0  0  0  0
  138.3856   79.6972  223.8803 H   0  0  0  0  0  0  0  0  0  0  0  0
  140.1572   82.1373  223.5160 H   0  0  0  0  0  0  0  0  0  0  0  0
  142.5715   82.4582  223.9236 H   0  0  0  0  0  0  0  0  0  0  0  0
  144.1512   80.5019  223.8030 H   0  0  0  0  0  0  0  0  0  0  0  0
  143.2043   78.2351  223.2667 H   0  0  0  0  0  0  0  0  0  0  0  0
  140.8132   77.9722  222.8782 H   0  0  0  0  0  0  0  0  0  0  0  0
  139.1294   79.1470  220.2593 H   0  0  0  0  0  0  0  0  0  0  0  0
  138.7897   76.8915  219.1783 H   0  0  0  0  0  0  0  0  0  0  0  0
  142.8556   74.5321  221.4446 H   0  0  0  0  0  0  0  0  0  0  0  0
  143.3772   73.8502  219.8741 H   0  0  0  0  0  0  0  0  0  0  0  0
  143.0418   76.6325  220.6946 H   0  0  0  0  0  0  0  0  0  0  0  0
  143.8292   75.9143  219.2085 H   0  0  0  0  0  0  0  0  0  0  0  0
  1  2  1  0
  2  3  1  0
  3  4  2  0
  3  5  1  0
  5  6  1  0
  6  7  2  0
  7  8  1  0
  8  9  2  0
  9 10  1  0
 10 11  2  0
  5 12  1  0
 12 13  1  0
 13 14  1  0
 14 15  1  0
 15 16  1  0
 16 17  2  0
 16 18  1  0
 18 19  1  0
 18 20  1  0
 20 21  1  0
 21 22  2  0
 22 23  1  0
 23 24  2  0
 24 25  1  0
 25 26  1  0
 26 27  2  0
 27 28  1  0
 28 29  2  0
 29 30  1  0
 30 31  2  0
 24 32  1  0
 32 33  2  0
 15 34  1  0
 34 35  1  0
 11  6  1  0
 35 12  1  0
 33 21  1  0
 31 26  1  0
  1 36  1  0
  1 37  1  0
  1 38  1  0
  2 39  1  0
  2 40  1  0
  7 41  1  0
  8 42  1  0
  9 43  1  0
 10 44  1  0
 11 45  1  0
 12 46  1  0
 13 47  1  0
 13 48  1  0
 14 49  1  0
 14 50  1  0
 18 51  1  6
 19 52  1  0
 19 53  1  0
 20 54  1  0
 20 55  1  0
 22 56  1  0
 23 57  1  0
 25 58  1  0
 25 59  1  0
 27 60  1  0
 28 61  1  0
 29 62  1  0
 30 63  1  0
 31 64  1  0
 32 65  1  0
 33 66  1  0
 34 67  1  0
 34 68  1  0
 35 69  1  0
 35 70  1  0
M  END
>  <smiles>  (4) 
CCC(=O)N(c1ccccc1)C1CCN(C(=O)[C@@H](N)Cc2ccc(Cc3ccccc3)cc2)CC1

>  <score_type>  (4) 
oracle

>  <origin>  (4) 
autodockgpu

>  <m_score__min__energy>  (4) 
-8.3699999999999992

>  <m_primary>  (4) 
energy

>  <rmsd>  (4) 
5.194245502433526

>  <m_score__min__rmsd>  (4) 
5.194245502433526

>  <meeko>  (4) 
{"free_energy": -7.05, "intermolecular_energy": -10.03, "internal_energy": -4.47, "cluster_size": 29, "cluster_id": 6, "rank_in_cluster": 1}

>  <energy>  (4) 
-8.16

>  <cluster_rmsd>  (4) 
0.26

>  <cluster>  (4) 
2

$$$$

     RDKit          3D

 70 73  0  0  0  0  0  0  0  0999 V2000
  142.6790   76.4850  219.7130 C   0  0  0  0  0  0  0  0  0  0  0  0
  142.5640   77.8880  219.0810 C   0  0  0  0  0  0  0  0  0  0  0  0
  141.1990   78.4380  219.4200 C   0  0  0  0  0  0  0  0  0  0  0  0
  140.5210   78.7380  218.3920 O   0  0  0  0  0  0  0  0  0  0  0  0
  140.7500   78.5900  220.7530 N   0  0  0  0  0  0  0  0  0  0  0  0
  141.3200   79.4700  221.7040 C   0  0  0  0  0  0  0  0  0  0  0  0
  141.9760   78.9750  222.8300 C   0  0  0  0  0  0  0  0  0  0  0  0
  142.5470   79.8310  223.7760 C   0  0  0  0  0  0  0  0  0  0  0  0
  142.4960   81.1970  223.6480 C   0  0  0  0  0  0  0  0  0  0  0  0
  141.8520   81.6990  222.5430 C   0  0  0  0  0  0  0  0  0  0  0  0
  141.2790   80.8410  221.5970 C   0  0  0  0  0  0  0  0  0  0  0  0
  139.6080   77.7270  221.1230 C   0  0  0  0  0  0  0  0  0  0  0  0
  140.0990   76.4690  221.7180 C   0  0  0  0  0  0  0  0  0  0  0  0
  139.1620   75.8100  222.7200 C   0  0  0  0  0  0  0  0  0  0  0  0
  137.8470   76.3090  222.4020 N   0  0  0  0  0  0  0  0  0  0  0  0
  136.7690   75.6190  221.8370 C   0  0  0  0  0  0  0  0  0  0  0  0
  135.6900   76.3200  221.6500 O   0  0  0  0  0  0  0  0  0  0  0  0
  136.6680   74.2280  221.4220 C   0  0  1  0  0  0  0  0  0  0  0  0
  135.5520   73.8830  220.6050 N   0  0  0  0  0  0  0  0  0  0  0  0
  137.9780   73.6680  220.8890 C   0  0  0  0  0  0  0  0  0  0  0  0
  138.5790   72.7080  221.8690 C   0  0  0  0  0  0  0  0  0  0  0  0
  139.9440   72.5280  221.9030 C   0  0  0  0  0  0  0  0  0  0  0  0
  140.5260   71.6390  222.7960 C   0  0  0  0  0  0  0  0  0  0  0  0
  139.6630   70.9430  223.6510 C   0  0  0  0  0  0  0  0  0  0  0  0
  140.3100   70.0000  224.6080 C   0  0  0  0  0  0  0  0  0  0  0  0
  140.4590   70.5680  225.9550 C   0  0  0  0  0  0  0  0  0  0  0  0
  139.8940   70.0680  227.0990 C   0  0  0  0  0  0  0  0  0  0  0  0
  140.0880   70.6770  228.3290 C   0  0  0  0  0  0  0  0  0  0  0  0
  140.8740   71.8350  228.4340 C   0  0  0  0  0  0  0  0  0  0  0  0
  141.4460   72.3410  227.2660 C   0  0  0  0  0  0  0  0  0  0  0  0
  141.2330   71.7130  226.0770 C   0  0  0  0  0  0  0  0  0  0  0  0
  138.2980   71.1220  223.6180 C   0  0  0  0  0  0  0  0  0  0  0  0
  137.7120   72.0210  222.7140 C   0  0  0  0  0  0  0  0  0  0  0  0
  137.6790   77.7560  222.7250 C   0  0  0  0  0  0  0  0  0  0  0  0
  138.6250   78.5560  221.8560 C   0  0  0  0  0  0  0  0  0  0  0  0
  142.6716   76.5750  220.8093 H   0  0  0  0  0  0  0  0  0  0  0  0
  141.8285   75.8666  219.3901 H   0  0  0  0  0  0  0  0  0  0  0  0
  143.6188   76.0133  219.3901 H   0  0  0  0  0  0  0  0  0  0  0  0
  143.3446   78.5470  219.4889 H   0  0  0  0  0  0  0  0  0  0  0  0
  142.6939   77.8293  217.9903 H   0  0  0  0  0  0  0  0  0  0  0  0
  142.0458   77.8871  222.9772 H   0  0  0  0  0  0  0  0  0  0  0  0
  143.0532   79.3965  224.6506 H   0  0  0  0  0  0  0  0  0  0  0  0
  142.9511   81.8609  224.3978 H   0  0  0  0  0  0  0  0  0  0  0  0
  141.7859   82.7877  222.4001 H   0  0  0  0  0  0  0  0  0  0  0  0
  140.7720   81.2838  220.7270 H   0  0  0  0  0  0  0  0  0  0  0  0
  139.0280   77.3438  220.2705 H   0  0  0  0  0  0  0  0  0  0  0  0
  140.2784   75.7547  220.9009 H   0  0  0  0  0  0  0  0  0  0  0  0
  141.0059   76.7344  222.2811 H   0  0  0  0  0  0  0  0  0  0  0  0
  139.1940   74.7156  222.6144 H   0  0  0  0  0  0  0  0  0  0  0  0
  139.4463   76.0397  223.7575 H   0  0  0  0  0  0  0  0  0  0  0  0
  136.4487   73.7146  222.3698 H   0  0  0  0  0  0  0  0  0  0  0  0
  134.8320   74.6570  220.5270 H   0  0  0  0  0  0  0  0  0  0  0  0
  135.9060   73.7750  219.6070 H   0  0  0  0  0  0  0  0  0  0  0  0
  137.7879   73.1445  219.9404 H   0  0  0  0  0  0  0  0  0  0  0  0
  138.6806   74.4994  220.7309 H   0  0  0  0  0  0  0  0  0  0  0  0
  140.5828   73.0975  221.2119 H   0  0  0  0  0  0  0  0  0  0  0  0
  141.6151   71.4882  222.8304 H   0  0  0  0  0  0  0  0  0  0  0  0
  139.6943   69.0910  224.6761 H   0  0  0  0  0  0  0  0  0  0  0  0
  141.3187   69.7823  224.2272 H   0  0  0  0  0  0  0  0  0  0  0  0
  139.2722   69.1625  227.0398 H   0  0  0  0  0  0  0  0  0  0  0  0
  139.6225   70.2496  229.2293 H   0  0  0  0  0  0  0  0  0  0  0  0
  141.0338   72.3273  229.4046 H   0  0  0  0  0  0  0  0  0  0  0  0
  142.0687   73.2469  227.3060 H   0  0  0  0  0  0  0  0  0  0  0  0
  141.6957   72.1326  225.1716 H   0  0  0  0  0  0  0  0  0  0  0  0
  137.6589   70.5529  224.3092 H   0  0  0  0  0  0  0  0  0  0  0  0
  136.6235   72.1750  222.6751 H   0  0  0  0  0  0  0  0  0  0  0  0
  136.6419   78.0628  222.5243 H   0  0  0  0  0  0  0  0  0  0  0  0
  137.9029   77.9331  223.7873 H   0  0  0  0  0  0  0  0  0  0  0  0
  138.0296   79.1185  221.1218 H   0  0  0  0  0  0  0  0  0  0  0  0
  139.1973   79.2139  222.5266 H   0  0  0  0  0  0  0  0  0  0  0  0
  1  2  1  0
  2  3  1  0
  3  4  2  0
  3  5  1  0
  5  6  1  0
  6  7  2  0
  7  8  1  0
  8  9  2  0
  9 10  1  0
 10 11  2  0
  5 12  1  0
 12 13  1  0
 13 14  1  0
 14 15  1  0
 15 16  1  0
 16 17  2  0
 16 18  1  0
 18 19  1  0
 18 20  1  0
 20 21  1  0
 21 22  2  0
 22 23  1  0
 23 24  2  0
 24 25  1  0
 25 26  1  0
 26 27  2  0
 27 28  1  0
 28 29  2  0
 29 30  1  0
 30 31  2  0
 24 32  1  0
 32 33  2  0
 15 34  1  0
 34 35  1  0
 11  6  1  0
 35 12  1  0
 33 21  1  0
 31 26  1  0
  1 36  1  0
  1 37  1  0
  1 38  1  0
  2 39  1  0
  2 40  1  0
  7 41  1  0
  8 42  1  0
  9 43  1  0
 10 44  1  0
 11 45  1  0
 12 46  1  0
 13 47  1  0
 13 48  1  0
 14 49  1  0
 14 50  1  0
 18 51  1  1
 19 52  1  0
 19 53  1  0
 20 54  1  0
 20 55  1  0
 22 56  1  0
 23 57  1  0
 25 58  1  0
 25 59  1  0
 27 60  1  0
 28 61  1  0
 29 62  1  0
 30 63  1  0
 31 64  1  0
 32 65  1  0
 33 66  1  0
 34 67  1  0
 34 68  1  0
 35 69  1  0
 35 70  1  0
M  END
>  <smiles>  (5) 
CCC(=O)N(c1ccccc1)C1CCN(C(=O)[C@@H](N)Cc2ccc(Cc3ccccc3)cc2)CC1

>  <score_type>  (5) 
oracle

>  <origin>  (5) 
autodockgpu

>  <m_score__min__energy>  (5) 
-8.3699999999999992

>  <m_primary>  (5) 
energy

>  <rmsd>  (5) 
5.109226060903447

>  <m_score__min__rmsd>  (5) 
5.109226060903447

>  <meeko>  (5) 
{"free_energy": -7.89, "intermolecular_energy": -10.87, "internal_energy": -2.97, "cluster_size": 13, "cluster_id": 2, "rank_in_cluster": 12}

>  <energy>  (5) 
-8.14

>  <cluster_rmsd>  (5) 
0.3

>  <cluster>  (5) 
2

$$$$

     RDKit          3D

 70 73  0  0  0  0  0  0  0  0999 V2000
  141.8700   79.8170  215.9840 C   0  0  0  0  0  0  0  0  0  0  0  0
  141.9590   78.2770  216.0280 C   0  0  0  0  0  0  0  0  0  0  0  0
  142.3970   77.8790  217.4170 C   0  0  0  0  0  0  0  0  0  0  0  0
  143.5320   77.3160  217.4320 O   0  0  0  0  0  0  0  0  0  0  0  0
  141.6030   78.1210  218.5630 N   0  0  0  0  0  0  0  0  0  0  0  0
  141.2520   79.4030  219.0490 C   0  0  0  0  0  0  0  0  0  0  0  0
  142.1590   80.1580  219.7920 C   0  0  0  0  0  0  0  0  0  0  0  0
  141.8270   81.4270  220.2740 C   0  0  0  0  0  0  0  0  0  0  0  0
  140.6000   81.9980  220.0440 C   0  0  0  0  0  0  0  0  0  0  0  0
  139.6960   81.2650  219.3130 C   0  0  0  0  0  0  0  0  0  0  0  0
  140.0280   79.9940  218.8310 C   0  0  0  0  0  0  0  0  0  0  0  0
  141.1510   76.9040  219.2710 C   0  0  0  0  0  0  0  0  0  0  0  0
  140.3440   76.0650  218.3650 C   0  0  0  0  0  0  0  0  0  0  0  0
  140.3740   74.5720  218.6560 C   0  0  0  0  0  0  0  0  0  0  0  0
  140.7450   74.4580  220.0440 N   0  0  0  0  0  0  0  0  0  0  0  0
  139.9540   74.0500  221.1240 C   0  0  0  0  0  0  0  0  0  0  0  0
  140.5450   74.0460  222.2820 O   0  0  0  0  0  0  0  0  0  0  0  0
  138.5620   73.6280  221.1530 C   0  0  1  0  0  0  0  0  0  0  0  0
  138.0970   73.0340  222.3620 N   0  0  0  0  0  0  0  0  0  0  0  0
  137.6080   74.6850  220.6170 C   0  0  0  0  0  0  0  0  0  0  0  0
  137.9380   76.0310  221.1860 C   0  0  0  0  0  0  0  0  0  0  0  0
  138.1750   76.1650  222.5360 C   0  0  0  0  0  0  0  0  0  0  0  0
  138.4760   77.4010  223.0910 C   0  0  0  0  0  0  0  0  0  0  0  0
  138.5250   78.4930  222.2160 C   0  0  0  0  0  0  0  0  0  0  0  0
  138.8570   79.8100  222.8300 C   0  0  0  0  0  0  0  0  0  0  0  0
  140.2970   79.9790  223.0700 C   0  0  0  0  0  0  0  0  0  0  0  0
  141.2580   79.0240  222.8660 C   0  0  0  0  0  0  0  0  0  0  0  0
  142.5960   79.2740  223.1260 C   0  0  0  0  0  0  0  0  0  0  0  0
  143.0050   80.5250  223.6130 C   0  0  0  0  0  0  0  0  0  0  0  0
  142.0220   81.4950  223.8210 C   0  0  0  0  0  0  0  0  0  0  0  0
  140.7190   81.2110  223.5520 C   0  0  0  0  0  0  0  0  0  0  0  0
  138.2880   78.3610  220.8650 C   0  0  0  0  0  0  0  0  0  0  0  0
  137.9840   77.1090  220.3080 C   0  0  0  0  0  0  0  0  0  0  0  0
  142.1590   74.8530  220.3040 C   0  0  0  0  0  0  0  0  0  0  0  0
  142.3170   76.3220  219.9720 C   0  0  0  0  0  0  0  0  0  0  0  0
  141.8471   80.2124  217.0102 H   0  0  0  0  0  0  0  0  0  0  0  0
  142.7463   80.2200  215.4552 H   0  0  0  0  0  0  0  0  0  0  0  0
  140.9531   80.1163  215.4552 H   0  0  0  0  0  0  0  0  0  0  0  0
  140.9747   77.8389  215.8062 H   0  0  0  0  0  0  0  0  0  0  0  0
  142.6778   77.9123  215.2794 H   0  0  0  0  0  0  0  0  0  0  0  0
  143.1568   79.7460  220.0031 H   0  0  0  0  0  0  0  0  0  0  0  0
  142.5734   81.9867  220.8568 H   0  0  0  0  0  0  0  0  0  0  0  0
  140.3513   82.9984  220.4279 H   0  0  0  0  0  0  0  0  0  0  0  0
  138.6999   81.6823  219.1044 H   0  0  0  0  0  0  0  0  0  0  0  0
  139.2752   79.4408  218.2503 H   0  0  0  0  0  0  0  0  0  0  0  0
  140.4332   77.0866  220.0843 H   0  0  0  0  0  0  0  0  0  0  0  0
  139.2991   76.4024  218.4312 H   0  0  0  0  0  0  0  0  0  0  0  0
  140.7864   76.1872  217.3653 H   0  0  0  0  0  0  0  0  0  0  0  0
  139.3826   74.1270  218.4852 H   0  0  0  0  0  0  0  0  0  0  0  0
  141.0803   74.0423  217.9998 H   0  0  0  0  0  0  0  0  0  0  0  0
  138.5569   72.7850  220.4463 H   0  0  0  0  0  0  0  0  0  0  0  0
  138.8690   72.8540  223.0670 H   0  0  0  0  0  0  0  0  0  0  0  0
  137.4780   73.7470  222.8530 H   0  0  0  0  0  0  0  0  0  0  0  0
  137.6922   74.7254  219.5210 H   0  0  0  0  0  0  0  0  0  0  0  0
  136.5820   74.4180  220.9105 H   0  0  0  0  0  0  0  0  0  0  0  0
  138.1249   75.2782  223.1849 H   0  0  0  0  0  0  0  0  0  0  0  0
  138.6671   77.5173  224.1680 H   0  0  0  0  0  0  0  0  0  0  0  0
  138.5171   80.6086  222.1542 H   0  0  0  0  0  0  0  0  0  0  0  0
  138.3505   79.8581  223.8053 H   0  0  0  0  0  0  0  0  0  0  0  0
  140.9604   78.0353  222.4868 H   0  0  0  0  0  0  0  0  0  0  0  0
  143.3430   78.4861  222.9494 H   0  0  0  0  0  0  0  0  0  0  0  0
  144.0641   80.7345  223.8238 H   0  0  0  0  0  0  0  0  0  0  0  0
  142.3012   82.4883  224.2022 H   0  0  0  0  0  0  0  0  0  0  0  0
  139.9651   81.9933  223.7242 H   0  0  0  0  0  0  0  0  0  0  0  0
  138.3376   79.2473  220.2154 H   0  0  0  0  0  0  0  0  0  0  0  0
  137.7919   76.9865  219.2319 H   0  0  0  0  0  0  0  0  0  0  0  0
  142.4026   74.6838  221.3633 H   0  0  0  0  0  0  0  0  0  0  0  0
  142.8385   74.2512  219.6826 H   0  0  0  0  0  0  0  0  0  0  0  0
  142.4693   76.8753  220.9104 H   0  0  0  0  0  0  0  0  0  0  0  0
  143.1759   76.4060  219.2899 H   0  0  0  0  0  0  0  0  0  0  0  0
  1  2  1  0
  2  3  1  0
  3  4  2  0
  3  5  1  0
  5  6  1  0
  6  7  2  0
  7  8  1  0
  8  9  2  0
  9 10  1  0
 10 11  2  0
  5 12  1  0
 12 13  1  0
 13 14  1  0
 14 15  1  0
 15 16  1  0
 16 17  2  0
 16 18  1  0
 18 19  1  0
 18 20  1  0
 20 21  1  0
 21 22  2  0
 22 23  1  0
 23 24  2  0
 24 25  1  0
 25 26  1  0
 26 27  2  0
 27 28  1  0
 28 29  2  0
 29 30  1  0
 30 31  2  0
 24 32  1  0
 32 33  2  0
 15 34  1  0
 34 35  1  0
 11  6  1  0
 35 12  1  0
 33 21  1  0
 31 26  1  0
  1 36  1  0
  1 37  1  0
  1 38  1  0
  2 39  1  0
  2 40  1  0
  7 41  1  0
  8 42  1  0
  9 43  1  0
 10 44  1  0
 11 45  1  0
 12 46  1  0
 13 47  1  0
 13 48  1  0
 14 49  1  0
 14 50  1  0
 18 51  1  6
 19 52  1  0
 19 53  1  0
 20 54  1  0
 20 55  1  0
 22 56  1  0
 23 57  1  0
 25 58  1  0
 25 59  1  0
 27 60  1  0
 28 61  1  0
 29 62  1  0
 30 63  1  0
 31 64  1  0
 32 65  1  0
 33 66  1  0
 34 67  1  0
 34 68  1  0
 35 69  1  0
 35 70  1  0
M  END
>  <smiles>  (6) 
CCC(=O)N(c1ccccc1)C1CCN(C(=O)[C@@H](N)Cc2ccc(Cc3ccccc3)cc2)CC1

>  <score_type>  (6) 
oracle

>  <origin>  (6) 
autodockgpu

>  <m_score__min__energy>  (6) 
-8.3699999999999992

>  <m_primary>  (6) 
energy

>  <rmsd>  (6) 
5.08989791379712

>  <m_score__min__rmsd>  (6) 
5.08989791379712

>  <meeko>  (6) 
{"free_energy": -6.09, "intermolecular_energy": -9.07, "internal_energy": -5.11, "cluster_size": 29, "cluster_id": 6, "rank_in_cluster": 26}

>  <energy>  (6) 
-8.13

>  <cluster_rmsd>  (6) 
0.38

>  <cluster>  (6) 
2

$$$$

     RDKit          3D

 70 73  0  0  0  0  0  0  0  0999 V2000
  141.8960   79.7570  215.4100 C   0  0  0  0  0  0  0  0  0  0  0  0
  141.7900   78.2300  215.5980 C   0  0  0  0  0  0  0  0  0  0  0  0
  142.3290   77.8940  216.9690 C   0  0  0  0  0  0  0  0  0  0  0  0
  143.4680   77.3390  216.9260 O   0  0  0  0  0  0  0  0  0  0  0  0
  141.6180   78.1820  218.1570 N   0  0  0  0  0  0  0  0  0  0  0  0
  141.2550   79.4800  218.5900 C   0  0  0  0  0  0  0  0  0  0  0  0
  142.1440   80.2600  219.3270 C   0  0  0  0  0  0  0  0  0  0  0  0
  141.8010   81.5450  219.7570 C   0  0  0  0  0  0  0  0  0  0  0  0
  140.5800   82.1060  219.4800 C   0  0  0  0  0  0  0  0  0  0  0  0
  139.6930   81.3470  218.7550 C   0  0  0  0  0  0  0  0  0  0  0  0
  140.0360   80.0600  218.3250 C   0  0  0  0  0  0  0  0  0  0  0  0
  141.2700   76.9970  218.9710 C   0  0  0  0  0  0  0  0  0  0  0  0
  140.5790   75.9970  218.1360 C   0  0  0  0  0  0  0  0  0  0  0  0
  140.7510   74.5490  218.5720 C   0  0  0  0  0  0  0  0  0  0  0  0
  141.0900   74.6070  219.9720 N   0  0  0  0  0  0  0  0  0  0  0  0
  140.3120   74.2250  221.0700 C   0  0  0  0  0  0  0  0  0  0  0  0
  140.8650   74.3920  222.2350 O   0  0  0  0  0  0  0  0  0  0  0  0
  138.9700   73.6660  221.1120 C   0  0  1  0  0  0  0  0  0  0  0  0
  138.5970   72.9810  222.3050 N   0  0  0  0  0  0  0  0  0  0  0  0
  137.9020   74.6430  220.6430 C   0  0  0  0  0  0  0  0  0  0  0  0
  138.2440   76.0400  221.0630 C   0  0  0  0  0  0  0  0  0  0  0  0
  138.6170   76.2920  222.3640 C   0  0  0  0  0  0  0  0  0  0  0  0
  138.9320   77.5780  222.7810 C   0  0  0  0  0  0  0  0  0  0  0  0
  138.8530   78.5940  221.8200 C   0  0  0  0  0  0  0  0  0  0  0  0
  139.2030   79.9660  222.2870 C   0  0  0  0  0  0  0  0  0  0  0  0
  140.6110   80.0880  222.6890 C   0  0  0  0  0  0  0  0  0  0  0  0
  141.6150   79.2160  222.3560 C   0  0  0  0  0  0  0  0  0  0  0  0
  142.9180   79.4120  222.7870 C   0  0  0  0  0  0  0  0  0  0  0  0
  143.2450   80.5180  223.5850 C   0  0  0  0  0  0  0  0  0  0  0  0
  142.2190   81.4030  223.9220 C   0  0  0  0  0  0  0  0  0  0  0  0
  140.9530   81.1770  223.4780 C   0  0  0  0  0  0  0  0  0  0  0  0
  138.4810   78.3420  220.5170 C   0  0  0  0  0  0  0  0  0  0  0  0
  138.1620   77.0410  220.1000 C   0  0  0  0  0  0  0  0  0  0  0  0
  142.4490   75.1700  220.2200 C   0  0  0  0  0  0  0  0  0  0  0  0
  142.4670   76.6090  219.7500 C   0  0  0  0  0  0  0  0  0  0  0  0
  141.9300   80.2462  216.3947 H   0  0  0  0  0  0  0  0  0  0  0  0
  142.8128   79.9948  214.8506 H   0  0  0  0  0  0  0  0  0  0  0  0
  141.0208   80.1192  214.8506 H   0  0  0  0  0  0  0  0  0  0  0  0
  140.7385   77.9159  215.5222 H   0  0  0  0  0  0  0  0  0  0  0  0
  142.3657   77.7066  214.8204 H   0  0  0  0  0  0  0  0  0  0  0  0
  143.1365   79.8560  219.5756 H   0  0  0  0  0  0  0  0  0  0  0  0
  142.5340   82.1254  220.3365 H   0  0  0  0  0  0  0  0  0  0  0  0
  140.3224   83.1189  219.8231 H   0  0  0  0  0  0  0  0  0  0  0  0
  138.7017   81.7558  218.5097 H   0  0  0  0  0  0  0  0  0  0  0  0
  139.2963   79.4854  217.7482 H   0  0  0  0  0  0  0  0  0  0  0  0
  140.5127   77.1801  219.7475 H   0  0  0  0  0  0  0  0  0  0  0  0
  139.5039   76.2294  218.1485 H   0  0  0  0  0  0  0  0  0  0  0  0
  141.0361   76.0686  217.1380 H   0  0  0  0  0  0  0  0  0  0  0  0
  139.8153   73.9895  218.4257 H   0  0  0  0  0  0  0  0  0  0  0  0
  141.5263   74.0350  217.9849 H   0  0  0  0  0  0  0  0  0  0  0  0
  139.0307   72.8560  220.3702 H   0  0  0  0  0  0  0  0  0  0  0  0
  139.3250   73.0460  223.0730 H   0  0  0  0  0  0  0  0  0  0  0  0
  137.7580   73.4880  222.7190 H   0  0  0  0  0  0  0  0  0  0  0  0
  137.8315   74.6023  219.5460 H   0  0  0  0  0  0  0  0  0  0  0  0
  136.9403   74.3617  221.0968 H   0  0  0  0  0  0  0  0  0  0  0  0
  138.6662   75.4618  223.0839 H   0  0  0  0  0  0  0  0  0  0  0  0
  139.2300   77.7895  223.8185 H   0  0  0  0  0  0  0  0  0  0  0  0
  139.0079   80.6760  221.4698 H   0  0  0  0  0  0  0  0  0  0  0  0
  138.5858   80.1827  223.1714 H   0  0  0  0  0  0  0  0  0  0  0  0
  141.3814   78.3405  221.7324 H   0  0  0  0  0  0  0  0  0  0  0  0
  143.7013   78.6946  222.5009 H   0  0  0  0  0  0  0  0  0  0  0  0
  144.2752   80.6827  223.9337 H   0  0  0  0  0  0  0  0  0  0  0  0
  142.4342   82.2827  224.5463 H   0  0  0  0  0  0  0  0  0  0  0  0
  140.1640   81.8907  223.7574 H   0  0  0  0  0  0  0  0  0  0  0  0
  138.4337   79.1709  219.7954 H   0  0  0  0  0  0  0  0  0  0  0  0
  137.8623   76.8233  219.0643 H   0  0  0  0  0  0  0  0  0  0  0  0
  142.6772   75.1282  221.2953 H   0  0  0  0  0  0  0  0  0  0  0  0
  143.2040   74.5859  219.6733 H   0  0  0  0  0  0  0  0  0  0  0  0
  142.5329   77.2616  220.6330 H   0  0  0  0  0  0  0  0  0  0  0  0
  143.3338   76.7173  219.0814 H   0  0  0  0  0  0  0  0  0  0  0  0
  1  2  1  0
  2  3  1  0
  3  4  2  0
  3  5  1  0
  5  6  1  0
  6  7  2  0
  7  8  1  0
  8  9  2  0
  9 10  1  0
 10 11  2  0
  5 12  1  0
 12 13  1  0
 13 14  1  0
 14 15  1  0
 15 16  1  0
 16 17  2  0
 16 18  1  0
 18 19  1  0
 18 20  1  0
 20 21  1  0
 21 22  2  0
 22 23  1  0
 23 24  2  0
 24 25  1  0
 25 26  1  0
 26 27  2  0
 27 28  1  0
 28 29  2  0
 29 30  1  0
 30 31  2  0
 24 32  1  0
 32 33  2  0
 15 34  1  0
 34 35  1  0
 11  6  1  0
 35 12  1  0
 33 21  1  0
 31 26  1  0
  1 36  1  0
  1 37  1  0
  1 38  1  0
  2 39  1  0
  2 40  1  0
  7 41  1  0
  8 42  1  0
  9 43  1  0
 10 44  1  0
 11 45  1  0
 12 46  1  0
 13 47  1  0
 13 48  1  0
 14 49  1  0
 14 50  1  0
 18 51  1  6
 19 52  1  0
 19 53  1  0
 20 54  1  0
 20 55  1  0
 22 56  1  0
 23 57  1  0
 25 58  1  0
 25 59  1  0
 27 60  1  0
 28 61  1  0
 29 62  1  0
 30 63  1  0
 31 64  1  0
 32 65  1  0
 33 66  1  0
 34 67  1  0
 34 68  1  0
 35 69  1  0
 35 70  1  0
M  END
>  <smiles>  (7) 
CCC(=O)N(c1ccccc1)C1CCN(C(=O)[C@@H](N)Cc2ccc(Cc3ccccc3)cc2)CC1

>  <score_type>  (7) 
oracle

>  <origin>  (7) 
autodockgpu

>  <m_score__min__energy>  (7) 
-8.3699999999999992

>  <m_primary>  (7) 
energy

>  <rmsd>  (7) 
4.979562560246712

>  <m_score__min__rmsd>  (7) 
4.979562560246712

>  <meeko>  (7) 
{"free_energy": -6.05, "intermolecular_energy": -9.03, "internal_energy": -5.05, "cluster_size": 29, "cluster_id": 6, "rank_in_cluster": 27}

>  <energy>  (7) 
-8.11

>  <cluster_rmsd>  (7) 
1.92

>  <cluster>  (7) 
2

$$$$

     RDKit          3D

 70 73  0  0  0  0  0  0  0  0999 V2000
  143.8140   77.0650  214.7220 C   0  0  0  0  0  0  0  0  0  0  0  0
  142.6510   77.4740  215.6490 C   0  0  0  0  0  0  0  0  0  0  0  0
  143.0250   77.0870  217.0600 C   0  0  0  0  0  0  0  0  0  0  0  0
  144.0430   76.3330  217.1090 O   0  0  0  0  0  0  0  0  0  0  0  0
  142.3000   77.5340  218.1890 N   0  0  0  0  0  0  0  0  0  0  0  0
  142.1400   78.8900  218.5640 C   0  0  0  0  0  0  0  0  0  0  0  0
  141.7280   79.2300  219.8520 C   0  0  0  0  0  0  0  0  0  0  0  0
  141.5690   80.5640  220.2370 C   0  0  0  0  0  0  0  0  0  0  0  0
  141.8110   81.6060  219.3770 C   0  0  0  0  0  0  0  0  0  0  0  0
  142.2180   81.2850  218.1040 C   0  0  0  0  0  0  0  0  0  0  0  0
  142.3750   79.9490  217.7170 C   0  0  0  0  0  0  0  0  0  0  0  0
  141.7020   76.4570  219.0060 C   0  0  0  0  0  0  0  0  0  0  0  0
  141.0370   75.4710  218.1320 C   0  0  0  0  0  0  0  0  0  0  0  0
  140.9770   74.0510  218.6750 C   0  0  0  0  0  0  0  0  0  0  0  0
  141.1040   74.1800  220.1050 N   0  0  0  0  0  0  0  0  0  0  0  0
  140.1310   73.9640  221.0870 C   0  0  0  0  0  0  0  0  0  0  0  0
  140.5170   74.1620  222.3130 O   0  0  0  0  0  0  0  0  0  0  0  0
  138.7440   73.5490  220.9480 C   0  0  1  0  0  0  0  0  0  0  0  0
  138.1450   72.9230  222.0800 N   0  0  0  0  0  0  0  0  0  0  0  0
  137.8570   74.6260  220.3410 C   0  0  0  0  0  0  0  0  0  0  0  0
  138.1270   75.9540  220.9810 C   0  0  0  0  0  0  0  0  0  0  0  0
  138.0300   76.0880  222.3480 C   0  0  0  0  0  0  0  0  0  0  0  0
  138.2670   77.3080  222.9660 C   0  0  0  0  0  0  0  0  0  0  0  0
  138.6080   78.3830  222.1360 C   0  0  0  0  0  0  0  0  0  0  0  0
  138.8660   79.6820  222.8200 C   0  0  0  0  0  0  0  0  0  0  0  0
  140.2880   79.8890  223.1300 C   0  0  0  0  0  0  0  0  0  0  0  0
  141.2520   78.9150  223.1420 C   0  0  0  0  0  0  0  0  0  0  0  0
  142.5720   79.2060  223.4520 C   0  0  0  0  0  0  0  0  0  0  0  0
  142.9570   80.5170  223.7670 C   0  0  0  0  0  0  0  0  0  0  0  0
  141.9710   81.5060  223.7550 C   0  0  0  0  0  0  0  0  0  0  0  0
  140.6870   81.1810  223.4440 C   0  0  0  0  0  0  0  0  0  0  0  0
  138.7060   78.2500  220.7680 C   0  0  0  0  0  0  0  0  0  0  0  0
  138.4650   77.0160  220.1470 C   0  0  0  0  0  0  0  0  0  0  0  0
  142.4640   74.6190  220.5320 C   0  0  0  0  0  0  0  0  0  0  0  0
  142.7160   76.0080  219.9870 C   0  0  0  0  0  0  0  0  0  0  0  0
  144.6784   76.7610  215.3305 H   0  0  0  0  0  0  0  0  0  0  0  0
  143.4985   76.2239  214.0872 H   0  0  0  0  0  0  0  0  0  0  0  0
  144.0944   77.9184  214.0872 H   0  0  0  0  0  0  0  0  0  0  0  0
  142.4899   78.5605  215.5896 H   0  0  0  0  0  0  0  0  0  0  0  0
  141.7227   76.9678  215.3458 H   0  0  0  0  0  0  0  0  0  0  0  0
  141.5238   78.4314  220.5804 H   0  0  0  0  0  0  0  0  0  0  0  0
  141.2392   80.7862  221.2626 H   0  0  0  0  0  0  0  0  0  0  0  0
  141.6848   82.6521  219.6927 H   0  0  0  0  0  0  0  0  0  0  0  0
  142.4229   82.0878  217.3805 H   0  0  0  0  0  0  0  0  0  0  0  0
  142.7013   79.7357  216.6884 H   0  0  0  0  0  0  0  0  0  0  0  0
  140.8619   76.7762  219.6403 H   0  0  0  0  0  0  0  0  0  0  0  0
  140.0055   75.8120  217.9596 H   0  0  0  0  0  0  0  0  0  0  0  0
  141.6452   75.4194  217.2169 H   0  0  0  0  0  0  0  0  0  0  0  0
  140.0174   73.5803  218.4152 H   0  0  0  0  0  0  0  0  0  0  0  0
  141.7699   73.4178  218.2503 H   0  0  0  0  0  0  0  0  0  0  0  0
  138.8174   72.7274  220.2202 H   0  0  0  0  0  0  0  0  0  0  0  0
  138.3930   71.8960  222.1730 H   0  0  0  0  0  0  0  0  0  0  0  0
  138.5720   73.3580  222.9510 H   0  0  0  0  0  0  0  0  0  0  0  0
  138.0605   74.6965  219.2623 H   0  0  0  0  0  0  0  0  0  0  0  0
  136.8043   74.3570  220.5127 H   0  0  0  0  0  0  0  0  0  0  0  0
  137.7605   75.2145  222.9598 H   0  0  0  0  0  0  0  0  0  0  0  0
  138.1905   77.4250  224.0571 H   0  0  0  0  0  0  0  0  0  0  0  0
  138.5265   80.4979  222.1649 H   0  0  0  0  0  0  0  0  0  0  0  0
  138.3172   79.6695  223.7733 H   0  0  0  0  0  0  0  0  0  0  0  0
  140.9724   77.8790  222.9003 H   0  0  0  0  0  0  0  0  0  0  0  0
  143.3228   78.4021  223.4508 H   0  0  0  0  0  0  0  0  0  0  0  0
  144.0010   80.7585  224.0153 H   0  0  0  0  0  0  0  0  0  0  0  0
  142.2323   82.5468  223.9968 H   0  0  0  0  0  0  0  0  0  0  0  0
  139.9299   81.9790  223.4412 H   0  0  0  0  0  0  0  0  0  0  0  0
  138.9766   79.1227  220.1554 H   0  0  0  0  0  0  0  0  0  0  0  0
  138.5393   76.8935  219.0564 H   0  0  0  0  0  0  0  0  0  0  0  0
  142.5201   74.6361  221.6304 H   0  0  0  0  0  0  0  0  0  0  0  0
  143.2223   73.9211  220.1474 H   0  0  0  0  0  0  0  0  0  0  0  0
  142.7212   76.7156  220.8292 H   0  0  0  0  0  0  0  0  0  0  0  0
  143.6806   75.9754  219.4593 H   0  0  0  0  0  0  0  0  0  0  0  0
  1  2  1  0
  2  3  1  0
  3  4  2  0
  3  5  1  0
  5  6  1  0
  6  7  2  0
  7  8  1  0
  8  9  2  0
  9 10  1  0
 10 11  2  0
  5 12  1  0
 12 13  1  0
 13 14  1  0
 14 15  1  0
 15 16  1  0
 16 17  2  0
 16 18  1  0
 18 19  1  0
 18 20  1  0
 20 21  1  0
 21 22  2  0
 22 23  1  0
 23 24  2  0
 24 25  1  0
 25 26  1  0
 26 27  2  0
 27 28  1  0
 28 29  2  0
 29 30  1  0
 30 31  2  0
 24 32  1  0
 32 33  2  0
 15 34  1  0
 34 35  1  0
 11  6  1  0
 35 12  1  0
 33 21  1  0
 31 26  1  0
  1 36  1  0
  1 37  1  0
  1 38  1  0
  2 39  1  0
  2 40  1  0
  7 41  1  0
  8 42  1  0
  9 43  1  0
 10 44  1  0
 11 45  1  0
 12 46  1  0
 13 47  1  0
 13 48  1  0
 14 49  1  0
 14 50  1  0
 18 51  1  6
 19 52  1  0
 19 53  1  0
 20 54  1  0
 20 55  1  0
 22 56  1  0
 23 57  1  0
 25 58  1  0
 25 59  1  0
 27 60  1  0
 28 61  1  0
 29 62  1  0
 30 63  1  0
 31 64  1  0
 32 65  1  0
 33 66  1  0
 34 67  1  0
 34 68  1  0
 35 69  1  0
 35 70  1  0
M  END
>  <smiles>  (8) 
CCC(=O)N(c1ccccc1)C1CCN(C(=O)[C@@H](N)Cc2ccc(Cc3ccccc3)cc2)CC1

>  <score_type>  (8) 
oracle

>  <origin>  (8) 
autodockgpu

>  <m_score__min__energy>  (8) 
-8.3699999999999992

>  <m_primary>  (8) 
energy

>  <rmsd>  (8) 
5.191239729210767

>  <m_score__min__rmsd>  (8) 
5.191239729210767

>  <meeko>  (8) 
{"free_energy": -6.63, "intermolecular_energy": -9.62, "internal_energy": -4.56, "cluster_size": 29, "cluster_id": 6, "rank_in_cluster": 16}

>  <energy>  (8) 
-8.11

>  <cluster_rmsd>  (8) 
0.6

>  <cluster>  (8) 
2

$$$$

     RDKit          3D

 70 73  0  0  0  0  0  0  0  0999 V2000
  143.7110   77.1400  214.6840 C   0  0  0  0  0  0  0  0  0  0  0  0
  142.5600   77.4910  215.6500 C   0  0  0  0  0  0  0  0  0  0  0  0
  142.9980   77.1220  217.0470 C   0  0  0  0  0  0  0  0  0  0  0  0
  144.0420   76.4030  217.0610 O   0  0  0  0  0  0  0  0  0  0  0  0
  142.3000   77.5490  218.2000 N   0  0  0  0  0  0  0  0  0  0  0  0
  142.1290   78.9000  218.5910 C   0  0  0  0  0  0  0  0  0  0  0  0
  142.3270   79.9360  217.6800 C   0  0  0  0  0  0  0  0  0  0  0  0
  142.1580   81.2730  218.0500 C   0  0  0  0  0  0  0  0  0  0  0  0
  141.7890   81.6370  219.3210 C   0  0  0  0  0  0  0  0  0  0  0  0
  141.5920   80.6250  220.2300 C   0  0  0  0  0  0  0  0  0  0  0  0
  141.7620   79.2870  219.8590 C   0  0  0  0  0  0  0  0  0  0  0  0
  141.7430   76.4560  219.0260 C   0  0  0  0  0  0  0  0  0  0  0  0
  140.9660   75.5310  218.1800 C   0  0  0  0  0  0  0  0  0  0  0  0
  140.9070   74.0910  218.6680 C   0  0  0  0  0  0  0  0  0  0  0  0
  141.1720   74.1540  220.0840 N   0  0  0  0  0  0  0  0  0  0  0  0
  140.2880   73.9260  221.1440 C   0  0  0  0  0  0  0  0  0  0  0  0
  140.7930   74.0580  222.3350 O   0  0  0  0  0  0  0  0  0  0  0  0
  138.8790   73.5610  221.1210 C   0  0  1  0  0  0  0  0  0  0  0  0
  138.3250   73.0660  222.3370 N   0  0  0  0  0  0  0  0  0  0  0  0
  138.0010   74.6160  220.4650 C   0  0  0  0  0  0  0  0  0  0  0  0
  138.2440   75.9600  221.0800 C   0  0  0  0  0  0  0  0  0  0  0  0
  138.1430   76.1190  222.4440 C   0  0  0  0  0  0  0  0  0  0  0  0
  138.3560   77.3550  223.0380 C   0  0  0  0  0  0  0  0  0  0  0  0
  138.6770   78.4210  222.1870 C   0  0  0  0  0  0  0  0  0  0  0  0
  138.9090   79.7380  222.8460 C   0  0  0  0  0  0  0  0  0  0  0  0
  140.3250   79.9730  223.1640 C   0  0  0  0  0  0  0  0  0  0  0  0
  141.3120   79.0230  223.1580 C   0  0  0  0  0  0  0  0  0  0  0  0
  142.6240   79.3380  223.4780 C   0  0  0  0  0  0  0  0  0  0  0  0
  142.9760   80.6520  223.8220 C   0  0  0  0  0  0  0  0  0  0  0  0
  141.9660   81.6160  223.8280 C   0  0  0  0  0  0  0  0  0  0  0  0
  140.6910   81.2670  223.5060 C   0  0  0  0  0  0  0  0  0  0  0  0
  138.7790   78.2630  220.8220 C   0  0  0  0  0  0  0  0  0  0  0  0
  138.5620   77.0120  220.2250 C   0  0  0  0  0  0  0  0  0  0  0  0
  142.5800   74.5310  220.3980 C   0  0  0  0  0  0  0  0  0  0  0  0
  142.8280   75.9340  219.8870 C   0  0  0  0  0  0  0  0  0  0  0  0
  144.6055   76.8672  215.2632 H   0  0  0  0  0  0  0  0  0  0  0  0
  143.4120   76.2922  214.0501 H   0  0  0  0  0  0  0  0  0  0  0  0
  143.9360   78.0104  214.0501 H   0  0  0  0  0  0  0  0  0  0  0  0
  142.3441   78.5684  215.5983 H   0  0  0  0  0  0  0  0  0  0  0  0
  141.6483   76.9399  215.3761 H   0  0  0  0  0  0  0  0  0  0  0  0
  142.6225   79.6962  216.6479 H   0  0  0  0  0  0  0  0  0  0  0  0
  142.3261   82.0587  217.2987 H   0  0  0  0  0  0  0  0  0  0  0  0
  141.6567   82.6928  219.6000 H   0  0  0  0  0  0  0  0  0  0  0  0
  141.2973   80.8701  221.2611 H   0  0  0  0  0  0  0  0  0  0  0  0
  141.5943   78.5076  220.6169 H   0  0  0  0  0  0  0  0  0  0  0  0
  140.9771   76.7724  219.7494 H   0  0  0  0  0  0  0  0  0  0  0  0
  139.9355   75.9111  218.1198 H   0  0  0  0  0  0  0  0  0  0  0  0
  141.4843   75.5006  217.2102 H   0  0  0  0  0  0  0  0  0  0  0  0
  139.9113   73.6623  218.4818 H   0  0  0  0  0  0  0  0  0  0  0  0
  141.6335   73.4522  218.1445 H   0  0  0  0  0  0  0  0  0  0  0  0
  138.8760   72.6741  220.4703 H   0  0  0  0  0  0  0  0  0  0  0  0
  139.0430   72.9400  223.1070 H   0  0  0  0  0  0  0  0  0  0  0  0
  137.6800   73.8180  222.7250 H   0  0  0  0  0  0  0  0  0  0  0  0
  138.2331   74.6626  219.3908 H   0  0  0  0  0  0  0  0  0  0  0  0
  136.9460   74.3428  220.6146 H   0  0  0  0  0  0  0  0  0  0  0  0
  137.8895   75.2527  223.0727 H   0  0  0  0  0  0  0  0  0  0  0  0
  138.2765   77.4916  224.1266 H   0  0  0  0  0  0  0  0  0  0  0  0
  138.5632   80.5348  222.1710 H   0  0  0  0  0  0  0  0  0  0  0  0
  138.3517   79.7371  223.7944 H   0  0  0  0  0  0  0  0  0  0  0  0
  141.0578   77.9861  222.8932 H   0  0  0  0  0  0  0  0  0  0  0  0
  143.3939   78.5525  223.4620 H   0  0  0  0  0  0  0  0  0  0  0  0
  144.0131   80.9139  224.0784 H   0  0  0  0  0  0  0  0  0  0  0  0
  142.2011   82.6574  224.0930 H   0  0  0  0  0  0  0  0  0  0  0  0
  139.9148   82.0463  223.5173 H   0  0  0  0  0  0  0  0  0  0  0  0
  139.0337   79.1284  220.1926 H   0  0  0  0  0  0  0  0  0  0  0  0
  138.6391   76.8695  219.1370 H   0  0  0  0  0  0  0  0  0  0  0  0
  142.7386   74.4991  221.4860 H   0  0  0  0  0  0  0  0  0  0  0  0
  143.2746   73.8268  219.9167 H   0  0  0  0  0  0  0  0  0  0  0  0
  142.9370   76.6042  220.7524 H   0  0  0  0  0  0  0  0  0  0  0  0
  143.7369   75.8941  219.2687 H   0  0  0  0  0  0  0  0  0  0  0  0
  1  2  1  0
  2  3  1  0
  3  4  2  0
  3  5  1  0
  5  6  1  0
  6  7  2  0
  7  8  1  0
  8  9  2  0
  9 10  1  0
 10 11  2  0
  5 12  1  0
 12 13  1  0
 13 14  1  0
 14 15  1  0
 15 16  1  0
 16 17  2  0
 16 18  1  0
 18 19  1  0
 18 20  1  0
 20 21  1  0
 21 22  2  0
 22 23  1  0
 23 24  2  0
 24 25  1  0
 25 26  1  0
 26 27  2  0
 27 28  1  0
 28 29  2  0
 29 30  1  0
 30 31  2  0
 24 32  1  0
 32 33  2  0
 15 34  1  0
 34 35  1  0
 11  6  1  0
 35 12  1  0
 33 21  1  0
 31 26  1  0
  1 36  1  0
  1 37  1  0
  1 38  1  0
  2 39  1  0
  2 40  1  0
  7 41  1  0
  8 42  1  0
  9 43  1  0
 10 44  1  0
 11 45  1  0
 12 46  1  0
 13 47  1  0
 13 48  1  0
 14 49  1  0
 14 50  1  0
 18 51  1  6
 19 52  1  0
 19 53  1  0
 20 54  1  0
 20 55  1  0
 22 56  1  0
 23 57  1  0
 25 58  1  0
 25 59  1  0
 27 60  1  0
 28 61  1  0
 29 62  1  0
 30 63  1  0
 31 64  1  0
 32 65  1  0
 33 66  1  0
 34 67  1  0
 34 68  1  0
 35 69  1  0
 35 70  1  0
M  END
>  <smiles>  (9) 
CCC(=O)N(c1ccccc1)C1CCN(C(=O)[C@@H](N)Cc2ccc(Cc3ccccc3)cc2)CC1

>  <score_type>  (9) 
oracle

>  <origin>  (9) 
autodockgpu

>  <m_score__min__energy>  (9) 
-8.3699999999999992

>  <m_primary>  (9) 
energy

>  <rmsd>  (9) 
5.209329882864837

>  <m_score__min__rmsd>  (9) 
5.209329882864837

>  <meeko>  (9) 
{"free_energy": -7.01, "intermolecular_energy": -9.99, "internal_energy": -4.46, "cluster_size": 29, "cluster_id": 6, "rank_in_cluster": 5}

>  <energy>  (9) 
-8.04

>  <cluster_rmsd>  (9) 
1.71

>  <cluster>  (9) 
2

$$$$

     RDKit          3D

 70 73  0  0  0  0  0  0  0  0999 V2000
  140.7300   78.4200  215.6440 C   0  0  0  0  0  0  0  0  0  0  0  0
  142.1940   78.6830  216.0500 C   0  0  0  0  0  0  0  0  0  0  0  0
  142.4510   77.9620  217.3520 C   0  0  0  0  0  0  0  0  0  0  0  0
  143.4080   77.1350  217.2760 O   0  0  0  0  0  0  0  0  0  0  0  0
  141.6880   78.2050  218.5190 N   0  0  0  0  0  0  0  0  0  0  0  0
  141.3360   79.4880  219.0040 C   0  0  0  0  0  0  0  0  0  0  0  0
  140.1120   80.0660  218.6700 C   0  0  0  0  0  0  0  0  0  0  0  0
  139.7500   81.3290  219.1460 C   0  0  0  0  0  0  0  0  0  0  0  0
  140.5720   82.0650  219.9630 C   0  0  0  0  0  0  0  0  0  0  0  0
  141.7820   81.5070  220.3000 C   0  0  0  0  0  0  0  0  0  0  0  0
  142.1450   80.2430  219.8230 C   0  0  0  0  0  0  0  0  0  0  0  0
  141.2720   76.9890  219.2500 C   0  0  0  0  0  0  0  0  0  0  0  0
  140.5370   76.0850  218.3450 C   0  0  0  0  0  0  0  0  0  0  0  0
  140.6300   74.6040  218.6840 C   0  0  0  0  0  0  0  0  0  0  0  0
  140.9580   74.5510  220.0870 N   0  0  0  0  0  0  0  0  0  0  0  0
  140.1530   74.1370  221.1530 C   0  0  0  0  0  0  0  0  0  0  0  0
  140.7030   74.1970  222.3290 O   0  0  0  0  0  0  0  0  0  0  0  0
  138.7820   73.6480  221.1500 C   0  0  1  0  0  0  0  0  0  0  0  0
  138.3240   73.0180  222.3440 N   0  0  0  0  0  0  0  0  0  0  0  0
  137.7880   74.6640  220.6070 C   0  0  0  0  0  0  0  0  0  0  0  0
  138.0620   76.0240  221.1720 C   0  0  0  0  0  0  0  0  0  0  0  0
  138.1490   76.1950  222.5360 C   0  0  0  0  0  0  0  0  0  0  0  0
  138.3950   77.4450  223.0860 C   0  0  0  0  0  0  0  0  0  0  0  0
  138.5480   78.5120  222.1920 C   0  0  0  0  0  0  0  0  0  0  0  0
  138.8180   79.8450  222.8020 C   0  0  0  0  0  0  0  0  0  0  0  0
  140.2440   80.0640  223.0820 C   0  0  0  0  0  0  0  0  0  0  0  0
  140.7940   81.2220  223.5660 C   0  0  0  0  0  0  0  0  0  0  0  0
  142.1570   81.3380  223.7950 C   0  0  0  0  0  0  0  0  0  0  0  0
  143.0160   80.2600  223.5330 C   0  0  0  0  0  0  0  0  0  0  0  0
  142.4520   79.0830  223.0390 C   0  0  0  0  0  0  0  0  0  0  0  0
  141.1090   79.0080  222.8290 C   0  0  0  0  0  0  0  0  0  0  0  0
  138.4600   78.3420  220.8270 C   0  0  0  0  0  0  0  0  0  0  0  0
  138.2120   77.0770  220.2750 C   0  0  0  0  0  0  0  0  0  0  0  0
  142.3430   75.0230  220.3790 C   0  0  0  0  0  0  0  0  0  0  0  0
  142.4410   76.4870  220.0070 C   0  0  0  0  0  0  0  0  0  0  0  0
  140.1131   78.3092  216.5479 H   0  0  0  0  0  0  0  0  0  0  0  0
  140.3574   79.2656  215.0472 H   0  0  0  0  0  0  0  0  0  0  0  0
  140.6750   77.4976  215.0472 H   0  0  0  0  0  0  0  0  0  0  0  0
  142.8719   78.3024  215.2718 H   0  0  0  0  0  0  0  0  0  0  0  0
  142.3711   79.7622  216.1680 H   0  0  0  0  0  0  0  0  0  0  0  0
  139.4168   79.5165  218.0183 H   0  0  0  0  0  0  0  0  0  0  0  0
  138.7746   81.7471  218.8566 H   0  0  0  0  0  0  0  0  0  0  0  0
  140.2752   83.0579  220.3318 H   0  0  0  0  0  0  0  0  0  0  0  0
  142.4731   82.0608  220.9525 H   0  0  0  0  0  0  0  0  0  0  0  0
  143.1228   79.8331  220.1161 H   0  0  0  0  0  0  0  0  0  0  0  0
  140.5193   77.1591  220.0339 H   0  0  0  0  0  0  0  0  0  0  0  0
  139.4754   76.3722  218.3673 H   0  0  0  0  0  0  0  0  0  0  0  0
  141.0055   76.1995  217.3564 H   0  0  0  0  0  0  0  0  0  0  0  0
  139.6682   74.1049  218.4947 H   0  0  0  0  0  0  0  0  0  0  0  0
  141.3834   74.0905  218.0686 H   0  0  0  0  0  0  0  0  0  0  0  0
  138.8305   72.8145  220.4338 H   0  0  0  0  0  0  0  0  0  0  0  0
  139.0630   72.9630  223.1010 H   0  0  0  0  0  0  0  0  0  0  0  0
  137.5790   73.6460  222.7730 H   0  0  0  0  0  0  0  0  0  0  0  0
  137.8741   74.7038  219.5111 H   0  0  0  0  0  0  0  0  0  0  0  0
  136.7726   74.3571  220.8982 H   0  0  0  0  0  0  0  0  0  0  0  0
  138.0215   75.3271  223.1997 H   0  0  0  0  0  0  0  0  0  0  0  0
  138.4665   77.5910  224.1739 H   0  0  0  0  0  0  0  0  0  0  0  0
  138.4719   80.6256  222.1086 H   0  0  0  0  0  0  0  0  0  0  0  0
  138.2817   79.8852  223.7616 H   0  0  0  0  0  0  0  0  0  0  0  0
  140.1390   82.0799  223.7779 H   0  0  0  0  0  0  0  0  0  0  0  0
  142.5672   82.2814  224.1846 H   0  0  0  0  0  0  0  0  0  0  0  0
  144.0985   80.3400  223.7112 H   0  0  0  0  0  0  0  0  0  0  0  0
  143.0924   78.2160  222.8193 H   0  0  0  0  0  0  0  0  0  0  0  0
  140.6901   78.0678  222.4411 H   0  0  0  0  0  0  0  0  0  0  0  0
  138.5859   79.2094  220.1624 H   0  0  0  0  0  0  0  0  0  0  0  0
  138.1397   76.9249  219.1880 H   0  0  0  0  0  0  0  0  0  0  0  0
  142.5596   74.8972  221.4501 H   0  0  0  0  0  0  0  0  0  0  0  0
  143.0706   74.4374  219.7980 H   0  0  0  0  0  0  0  0  0  0  0  0
  142.5339   77.0748  220.9322 H   0  0  0  0  0  0  0  0  0  0  0  0
  143.3179   76.5938  219.3516 H   0  0  0  0  0  0  0  0  0  0  0  0
  1  2  1  0
  2  3  1  0
  3  4  2  0
  3  5  1  0
  5  6  1  0
  6  7  2  0
  7  8  1  0
  8  9  2  0
  9 10  1  0
 10 11  2  0
  5 12  1  0
 12 13  1  0
 13 14  1  0
 14 15  1  0
 15 16  1  0
 16 17  2  0
 16 18  1  0
 18 19  1  0
 18 20  1  0
 20 21  1  0
 21 22  2  0
 22 23  1  0
 23 24  2  0
 24 25  1  0
 25 26  1  0
 26 27  2  0
 27 28  1  0
 28 29  2  0
 29 30  1  0
 30 31  2  0
 24 32  1  0
 32 33  2  0
 15 34  1  0
 34 35  1  0
 11  6  1  0
 35 12  1  0
 33 21  1  0
 31 26  1  0
  1 36  1  0
  1 37  1  0
  1 38  1  0
  2 39  1  0
  2 40  1  0
  7 41  1  0
  8 42  1  0
  9 43  1  0
 10 44  1  0
 11 45  1  0
 12 46  1  0
 13 47  1  0
 13 48  1  0
 14 49  1  0
 14 50  1  0
 18 51  1  6
 19 52  1  0
 19 53  1  0
 20 54  1  0
 20 55  1  0
 22 56  1  0
 23 57  1  0
 25 58  1  0
 25 59  1  0
 27 60  1  0
 28 61  1  0
 29 62  1  0
 30 63  1  0
 31 64  1  0
 32 65  1  0
 33 66  1  0
 34 67  1  0
 34 68  1  0
 35 69  1  0
 35 70  1  0
M  END
>  <smiles>  (10) 
CCC(=O)N(c1ccccc1)C1CCN(C(=O)[C@@H](N)Cc2ccc(Cc3ccccc3)cc2)CC1

>  <score_type>  (10) 
oracle

>  <origin>  (10) 
autodockgpu

>  <m_score__min__energy>  (10) 
-8.3699999999999992

>  <m_primary>  (10) 
energy

>  <rmsd>  (10) 
5.011735794866364

>  <m_score__min__rmsd>  (10) 
5.011735794866364

>  <meeko>  (10) 
{"free_energy": -6.19, "intermolecular_energy": -9.18, "internal_energy": -5.23, "cluster_size": 29, "cluster_id": 6, "rank_in_cluster": 20}

>  <energy>  (10) 
-8.01

>  <cluster_rmsd>  (10) 
0.65

>  <cluster>  (10) 
2

$$$$

     RDKit          3D

 70 73  0  0  0  0  0  0  0  0999 V2000
  146.2840   73.0170  221.5800 C   0  0  0  0  0  0  0  0  0  0  0  0
  145.9120   74.1900  220.6500 C   0  0  0  0  0  0  0  0  0  0  0  0
  145.0570   73.6420  219.5320 C   0  0  0  0  0  0  0  0  0  0  0  0
  145.5660   72.6220  218.9790 O   0  0  0  0  0  0  0  0  0  0  0  0
  143.8230   74.2260  219.1640 N   0  0  0  0  0  0  0  0  0  0  0  0
  143.6680   75.2610  218.2090 C   0  0  0  0  0  0  0  0  0  0  0  0
  144.0940   75.0870  216.8930 C   0  0  0  0  0  0  0  0  0  0  0  0
  143.9430   76.0970  215.9400 C   0  0  0  0  0  0  0  0  0  0  0  0
  143.3720   77.3080  216.2440 C   0  0  0  0  0  0  0  0  0  0  0  0
  142.9480   77.4930  217.5380 C   0  0  0  0  0  0  0  0  0  0  0  0
  143.0990   76.4820  218.4920 C   0  0  0  0  0  0  0  0  0  0  0  0
  142.6450   73.6840  219.8750 C   0  0  0  0  0  0  0  0  0  0  0  0
  141.6130   73.2770  218.9030 C   0  0  0  0  0  0  0  0  0  0  0  0
  140.6990   72.1460  219.3550 C   0  0  0  0  0  0  0  0  0  0  0  0
  140.7540   72.1600  220.7950 N   0  0  0  0  0  0  0  0  0  0  0  0
  139.7530   72.5350  221.6990 C   0  0  0  0  0  0  0  0  0  0  0  0
  140.0750   72.4570  222.9560 O   0  0  0  0  0  0  0  0  0  0  0  0
  138.3980   73.0020  221.4480 C   0  0  1  0  0  0  0  0  0  0  0  0
  137.5150   73.0370  222.5660 N   0  0  0  0  0  0  0  0  0  0  0  0
  138.3520   74.2820  220.6270 C   0  0  0  0  0  0  0  0  0  0  0  0
  139.1480   75.3640  221.2910 C   0  0  0  0  0  0  0  0  0  0  0  0
  140.5090   75.4340  221.0920 C   0  0  0  0  0  0  0  0  0  0  0  0
  141.2710   76.4200  221.7010 C   0  0  0  0  0  0  0  0  0  0  0  0
  140.5920   77.3320  222.5190 C   0  0  0  0  0  0  0  0  0  0  0  0
  141.4280   78.3880  223.1570 C   0  0  0  0  0  0  0  0  0  0  0  0
  141.4860   79.6240  222.3650 C   0  0  0  0  0  0  0  0  0  0  0  0
  141.6140   79.6930  221.0020 C   0  0  0  0  0  0  0  0  0  0  0  0
  141.6650   80.9090  220.3390 C   0  0  0  0  0  0  0  0  0  0  0  0
  141.5890   82.1140  221.0540 C   0  0  0  0  0  0  0  0  0  0  0  0
  141.4600   82.0390  222.4430 C   0  0  0  0  0  0  0  0  0  0  0  0
  141.4120   80.8250  223.0560 C   0  0  0  0  0  0  0  0  0  0  0  0
  139.2310   77.2630  222.7190 C   0  0  0  0  0  0  0  0  0  0  0  0
  138.4630   76.2640  222.1020 C   0  0  0  0  0  0  0  0  0  0  0  0
  142.0750   71.7250  221.3330 C   0  0  0  0  0  0  0  0  0  0  0  0
  143.1270   72.7180  220.8890 C   0  0  0  0  0  0  0  0  0  0  0  0
  146.1834   73.3342  222.6285 H   0  0  0  0  0  0  0  0  0  0  0  0
  145.6108   72.1686  221.3874 H   0  0  0  0  0  0  0  0  0  0  0  0
  147.3231   72.7116  221.3874 H   0  0  0  0  0  0  0  0  0  0  0  0
  145.3496   74.9495  221.2129 H   0  0  0  0  0  0  0  0  0  0  0  0
  146.8198   74.6599  220.2435 H   0  0  0  0  0  0  0  0  0  0  0  0
  144.5588   74.1344  216.5990 H   0  0  0  0  0  0  0  0  0  0  0  0
  144.2928   75.9163  214.9129 H   0  0  0  0  0  0  0  0  0  0  0  0
  143.2588   78.0959  215.4848 H   0  0  0  0  0  0  0  0  0  0  0  0
  142.4843   78.4478  217.8267 H   0  0  0  0  0  0  0  0  0  0  0  0
  142.7466   76.6713  219.5167 H   0  0  0  0  0  0  0  0  0  0  0  0
  142.0902   74.4219  220.4730 H   0  0  0  0  0  0  0  0  0  0  0  0
  140.9857   74.1544  218.6869 H   0  0  0  0  0  0  0  0  0  0  0  0
  142.1566   72.8951  218.0263 H   0  0  0  0  0  0  0  0  0  0  0  0
  139.6700   72.3209  219.0077 H   0  0  0  0  0  0  0  0  0  0  0  0
  141.0151   71.1761  218.9435 H   0  0  0  0  0  0  0  0  0  0  0  0
  137.9807   72.1940  220.8291 H   0  0  0  0  0  0  0  0  0  0  0  0
  137.9110   72.5690  223.4310 H   0  0  0  0  0  0  0  0  0  0  0  0
  137.4120   74.0530  222.8630 H   0  0  0  0  0  0  0  0  0  0  0  0
  138.7705   74.0863  219.6287 H   0  0  0  0  0  0  0  0  0  0  0  0
  137.3060   74.6120  220.5434 H   0  0  0  0  0  0  0  0  0  0  0  0
  140.9994   74.6963  220.4398 H   0  0  0  0  0  0  0  0  0  0  0  0
  142.3586   76.4829  221.5486 H   0  0  0  0  0  0  0  0  0  0  0  0
  141.0042   78.6229  224.1445 H   0  0  0  0  0  0  0  0  0  0  0  0
  142.4530   77.9965  223.2355 H   0  0  0  0  0  0  0  0  0  0  0  0
  141.6777   78.7613  220.4207 H   0  0  0  0  0  0  0  0  0  0  0  0
  141.7658   80.9297  219.2438 H   0  0  0  0  0  0  0  0  0  0  0  0
  141.6296   83.0848  220.5383 H   0  0  0  0  0  0  0  0  0  0  0  0
  141.3973   82.9604  223.0406 H   0  0  0  0  0  0  0  0  0  0  0  0
  141.3097   80.7943  224.1508 H   0  0  0  0  0  0  0  0  0  0  0  0
  138.7399   78.0006  223.3708 H   0  0  0  0  0  0  0  0  0  0  0  0
  137.3754   76.1956  222.2516 H   0  0  0  0  0  0  0  0  0  0  0  0
  142.0355   71.6932  222.4318 H   0  0  0  0  0  0  0  0  0  0  0  0
  142.3224   70.7215  220.9565 H   0  0  0  0  0  0  0  0  0  0  0  0
  143.4670   73.2810  221.7707 H   0  0  0  0  0  0  0  0  0  0  0  0
  143.9375   72.1396  220.4216 H   0  0  0  0  0  0  0  0  0  0  0  0
  1  2  1  0
  2  3  1  0
  3  4  2  0
  3  5  1  0
  5  6  1  0
  6  7  2  0
  7  8  1  0
  8  9  2  0
  9 10  1  0
 10 11  2  0
  5 12  1  0
 12 13  1  0
 13 14  1  0
 14 15  1  0
 15 16  1  0
 16 17  2  0
 16 18  1  0
 18 19  1  0
 18 20  1  0
 20 21  1  0
 21 22  2  0
 22 23  1  0
 23 24  2  0
 24 25  1  0
 25 26  1  0
 26 27  2  0
 27 28  1  0
 28 29  2  0
 29 30  1  0
 30 31  2  0
 24 32  1  0
 32 33  2  0
 15 34  1  0
 34 35  1  0
 11  6  1  0
 35 12  1  0
 33 21  1  0
 31 26  1  0
  1 36  1  0
  1 37  1  0
  1 38  1  0
  2 39  1  0
  2 40  1  0
  7 41  1  0
  8 42  1  0
  9 43  1  0
 10 44  1  0
 11 45  1  0
 12 46  1  0
 13 47  1  0
 13 48  1  0
 14 49  1  0
 14 50  1  0
 18 51  1  6
 19 52  1  0
 19 53  1  0
 20 54  1  0
 20 55  1  0
 22 56  1  0
 23 57  1  0
 25 58  1  0
 25 59  1  0
 27 60  1  0
 28 61  1  0
 29 62  1  0
 30 63  1  0
 31 64  1  0
 32 65  1  0
 33 66  1  0
 34 67  1  0
 34 68  1  0
 35 69  1  0
 35 70  1  0
M  END
>  <smiles>  (11) 
CCC(=O)N(c1ccccc1)C1CCN(C(=O)[C@@H](N)Cc2ccc(Cc3ccccc3)cc2)CC1

>  <score_type>  (11) 
oracle

>  <origin>  (11) 
autodockgpu

>  <m_score__min__energy>  (11) 
-8.3699999999999992

>  <m_primary>  (11) 
energy

>  <rmsd>  (11) 
6.4522917724120585

>  <m_score__min__rmsd>  (11) 
6.4522917724120585

>  <meeko>  (11) 
{"free_energy": -7.61, "intermolecular_energy": -10.59, "internal_energy": -3.59, "cluster_size": 3, "cluster_id": 5, "rank_in_cluster": 2}

>  <energy>  (11) 
-7.97

>  <cluster_rmsd>  (11) 
0.4

>  <cluster>  (11) 
2

$$$$

     RDKit          3D

 70 73  0  0  0  0  0  0  0  0999 V2000
  142.2090   81.4980  218.0140 C   0  0  0  0  0  0  0  0  0  0  0  0
  142.5360   80.0090  218.2510 C   0  0  0  0  0  0  0  0  0  0  0  0
  141.4180   79.4160  219.0750 C   0  0  0  0  0  0  0  0  0  0  0  0
  140.2730   79.6310  218.5760 O   0  0  0  0  0  0  0  0  0  0  0  0
  141.6530   78.6990  220.2710 N   0  0  0  0  0  0  0  0  0  0  0  0
  141.7990   79.2850  221.5520 C   0  0  0  0  0  0  0  0  0  0  0  0
  142.1260   80.6340  221.6860 C   0  0  0  0  0  0  0  0  0  0  0  0
  142.2690   81.2260  222.9430 C   0  0  0  0  0  0  0  0  0  0  0  0
  142.0960   80.5200  224.1080 C   0  0  0  0  0  0  0  0  0  0  0  0
  141.7730   79.1890  223.9900 C   0  0  0  0  0  0  0  0  0  0  0  0
  141.6310   78.5950  222.7310 C   0  0  0  0  0  0  0  0  0  0  0  0
  141.7610   77.2340  220.1030 C   0  0  0  0  0  0  0  0  0  0  0  0
  140.4390   76.6650  219.7800 C   0  0  0  0  0  0  0  0  0  0  0  0
  140.4600   75.3910  218.9490 C   0  0  0  0  0  0  0  0  0  0  0  0
  141.7610   74.8100  219.1700 N   0  0  0  0  0  0  0  0  0  0  0  0
  142.0850   73.6490  219.8800 C   0  0  0  0  0  0  0  0  0  0  0  0
  143.3510   73.3550  219.9280 O   0  0  0  0  0  0  0  0  0  0  0  0
  141.2180   72.7110  220.5780 C   0  0  1  0  0  0  0  0  0  0  0  0
  141.8090   71.4840  221.0000 N   0  0  0  0  0  0  0  0  0  0  0  0
  140.3900   73.3670  221.6720 C   0  0  0  0  0  0  0  0  0  0  0  0
  139.8530   72.3350  222.6170 C   0  0  0  0  0  0  0  0  0  0  0  0
  138.5760   71.8480  222.4470 C   0  0  0  0  0  0  0  0  0  0  0  0
  138.0520   70.8980  223.3120 C   0  0  0  0  0  0  0  0  0  0  0  0
  138.8800   70.4640  224.3550 C   0  0  0  0  0  0  0  0  0  0  0  0
  138.3010   69.4370  225.2670 C   0  0  0  0  0  0  0  0  0  0  0  0
  139.2110   69.0710  226.3620 C   0  0  0  0  0  0  0  0  0  0  0  0
  139.2950   69.7030  227.5750 C   0  0  0  0  0  0  0  0  0  0  0  0
  140.1910   69.2880  228.5480 C   0  0  0  0  0  0  0  0  0  0  0  0
  141.0440   68.1990  228.3120 C   0  0  0  0  0  0  0  0  0  0  0  0
  140.9540   67.5580  227.0750 C   0  0  0  0  0  0  0  0  0  0  0  0
  140.0610   67.9950  226.1460 C   0  0  0  0  0  0  0  0  0  0  0  0
  140.1580   70.9500  224.5250 C   0  0  0  0  0  0  0  0  0  0  0  0
  140.6850   71.9100  223.6490 C   0  0  0  0  0  0  0  0  0  0  0  0
  142.8650   75.6010  218.5530 C   0  0  0  0  0  0  0  0  0  0  0  0
  142.9190   76.9570  219.2240 C   0  0  0  0  0  0  0  0  0  0  0  0
  142.0971   82.0075  218.9825 H   0  0  0  0  0  0  0  0  0  0  0  0
  143.0256   81.9667  217.4453 H   0  0  0  0  0  0  0  0  0  0  0  0
  141.2711   81.5814  217.4453 H   0  0  0  0  0  0  0  0  0  0  0  0
  142.6094   79.4841  217.2871 H   0  0  0  0  0  0  0  0  0  0  0  0
  143.4969   79.9057  218.7764 H   0  0  0  0  0  0  0  0  0  0  0  0
  142.2744   81.2445  220.7831 H   0  0  0  0  0  0  0  0  0  0  0  0
  142.5288   82.2933  223.0016 H   0  0  0  0  0  0  0  0  0  0  0  0
  142.2108   80.9982  225.0919 H   0  0  0  0  0  0  0  0  0  0  0  0
  141.6244   78.5836  224.8963 H   0  0  0  0  0  0  0  0  0  0  0  0
  141.3731   77.5268  222.6813 H   0  0  0  0  0  0  0  0  0  0  0  0
  142.0069   76.6840  221.0233 H   0  0  0  0  0  0  0  0  0  0  0  0
  139.9247   76.4436  220.7269 H   0  0  0  0  0  0  0  0  0  0  0  0
  139.9278   77.4193  219.1638 H   0  0  0  0  0  0  0  0  0  0  0  0
  139.6695   74.7020  219.2812 H   0  0  0  0  0  0  0  0  0  0  0  0
  140.2793   75.5951  217.8833 H   0  0  0  0  0  0  0  0  0  0  0  0
  140.5275   72.3919  219.7835 H   0  0  0  0  0  0  0  0  0  0  0  0
  141.8170   70.7390  220.2450 H   0  0  0  0  0  0  0  0  0  0  0  0
  142.8420   71.6680  221.1740 H   0  0  0  0  0  0  0  0  0  0  0  0
  141.0223   74.0737  222.2295 H   0  0  0  0  0  0  0  0  0  0  0  0
  139.5452   73.8971  221.2080 H   0  0  0  0  0  0  0  0  0  0  0  0
  137.9620   72.2179  221.6126 H   0  0  0  0  0  0  0  0  0  0  0  0
  137.0330   70.5038  223.1845 H   0  0  0  0  0  0  0  0  0  0  0  0
  137.3717   69.8353  225.7003 H   0  0  0  0  0  0  0  0  0  0  0  0
  138.1172   68.5305  224.6716 H   0  0  0  0  0  0  0  0  0  0  0  0
  138.6362   70.5594  227.7814 H   0  0  0  0  0  0  0  0  0  0  0  0
  140.2336   69.8161  229.5120 H   0  0  0  0  0  0  0  0  0  0  0  0
  141.7597   67.8616  229.0762 H   0  0  0  0  0  0  0  0  0  0  0  0
  141.6048   66.6999  226.8514 H   0  0  0  0  0  0  0  0  0  0  0  0
  140.0104   67.4718  225.1797 H   0  0  0  0  0  0  0  0  0  0  0  0
  140.7730   70.5802  225.3587 H   0  0  0  0  0  0  0  0  0  0  0  0
  141.7036   72.3069  223.7711 H   0  0  0  0  0  0  0  0  0  0  0  0
  143.8217   75.0775  218.6971 H   0  0  0  0  0  0  0  0  0  0  0  0
  142.6846   75.7215  217.4746 H   0  0  0  0  0  0  0  0  0  0  0  0
  143.8351   77.0077  219.8307 H   0  0  0  0  0  0  0  0  0  0  0  0
  142.9022   77.7117  218.4239 H   0  0  0  0  0  0  0  0  0  0  0  0
  1  2  1  0
  2  3  1  0
  3  4  2  0
  3  5  1  0
  5  6  1  0
  6  7  2  0
  7  8  1  0
  8  9  2  0
  9 10  1  0
 10 11  2  0
  5 12  1  0
 12 13  1  0
 13 14  1  0
 14 15  1  0
 15 16  1  0
 16 17  2  0
 16 18  1  0
 18 19  1  0
 18 20  1  0
 20 21  1  0
 21 22  2  0
 22 23  1  0
 23 24  2  0
 24 25  1  0
 25 26  1  0
 26 27  2  0
 27 28  1  0
 28 29  2  0
 29 30  1  0
 30 31  2  0
 24 32  1  0
 32 33  2  0
 15 34  1  0
 34 35  1  0
 11  6  1  0
 35 12  1  0
 33 21  1  0
 31 26  1  0
  1 36  1  0
  1 37  1  0
  1 38  1  0
  2 39  1  0
  2 40  1  0
  7 41  1  0
  8 42  1  0
  9 43  1  0
 10 44  1  0
 11 45  1  0
 12 46  1  0
 13 47  1  0
 13 48  1  0
 14 49  1  0
 14 50  1  0
 18 51  1  6
 19 52  1  0
 19 53  1  0
 20 54  1  0
 20 55  1  0
 22 56  1  0
 23 57  1  0
 25 58  1  0
 25 59  1  0
 27 60  1  0
 28 61  1  0
 29 62  1  0
 30 63  1  0
 31 64  1  0
 32 65  1  0
 33 66  1  0
 34 67  1  0
 34 68  1  0
 35 69  1  0
 35 70  1  0
M  END
>  <smiles>  (12) 
CCC(=O)N(c1ccccc1)C1CCN(C(=O)[C@@H](N)Cc2ccc(Cc3ccccc3)cc2)CC1

>  <score_type>  (12) 
oracle

>  <origin>  (12) 
autodockgpu

>  <m_score__min__energy>  (12) 
-8.3699999999999992

>  <m_primary>  (12) 
energy

>  <rmsd>  (12) 
5.4192853499642775

>  <m_score__min__rmsd>  (12) 
5.4192853499642775

>  <meeko>  (12) 
{"free_energy": -8.19, "intermolecular_energy": -11.17, "internal_energy": -2.62, "cluster_size": 2, "cluster_id": 3, "rank_in_cluster": 1}

>  <energy>  (12) 
-7.95

>  <cluster_rmsd>  (12) 
0.69

>  <cluster>  (12) 
2

$$$$

     RDKit          3D

 70 73  0  0  0  0  0  0  0  0999 V2000
  141.9060   79.6220  216.0190 C   0  0  0  0  0  0  0  0  0  0  0  0
  142.0650   78.0880  216.0790 C   0  0  0  0  0  0  0  0  0  0  0  0
  142.4740   77.7190  217.4850 C   0  0  0  0  0  0  0  0  0  0  0  0
  143.6100   77.1610  217.5350 O   0  0  0  0  0  0  0  0  0  0  0  0
  141.6560   77.9810  218.6080 N   0  0  0  0  0  0  0  0  0  0  0  0
  141.3130   79.2730  219.0770 C   0  0  0  0  0  0  0  0  0  0  0  0
  140.0530   79.8130  218.8240 C   0  0  0  0  0  0  0  0  0  0  0  0
  139.7000   81.0840  219.2840 C   0  0  0  0  0  0  0  0  0  0  0  0
  140.5670   81.8650  220.0080 C   0  0  0  0  0  0  0  0  0  0  0  0
  141.8120   81.3450  220.2650 C   0  0  0  0  0  0  0  0  0  0  0  0
  142.1660   80.0720  219.8030 C   0  0  0  0  0  0  0  0  0  0  0  0
  141.1660   76.7760  219.3110 C   0  0  0  0  0  0  0  0  0  0  0  0
  140.3420   75.9610  218.4000 C   0  0  0  0  0  0  0  0  0  0  0  0
  140.3290   74.4670  218.6890 C   0  0  0  0  0  0  0  0  0  0  0  0
  140.6880   74.3420  220.0790 N   0  0  0  0  0  0  0  0  0  0  0  0
  139.8800   73.9550  221.1540 C   0  0  0  0  0  0  0  0  0  0  0  0
  140.4640   73.9330  222.3160 O   0  0  0  0  0  0  0  0  0  0  0  0
  138.4770   73.5710  221.1730 C   0  0  1  0  0  0  0  0  0  0  0  0
  137.9820   73.0100  222.3870 N   0  0  0  0  0  0  0  0  0  0  0  0
  137.5570   74.6430  220.6090 C   0  0  0  0  0  0  0  0  0  0  0  0
  137.8940   75.9840  221.1860 C   0  0  0  0  0  0  0  0  0  0  0  0
  138.1550   76.1040  222.5330 C   0  0  0  0  0  0  0  0  0  0  0  0
  138.4620   77.3360  223.0950 C   0  0  0  0  0  0  0  0  0  0  0  0
  138.4940   78.4370  222.2300 C   0  0  0  0  0  0  0  0  0  0  0  0
  138.8340   79.7490  222.8530 C   0  0  0  0  0  0  0  0  0  0  0  0
  140.2760   79.9130  223.0810 C   0  0  0  0  0  0  0  0  0  0  0  0
  141.2310   78.9520  222.8770 C   0  0  0  0  0  0  0  0  0  0  0  0
  142.5730   79.1990  223.1260 C   0  0  0  0  0  0  0  0  0  0  0  0
  142.9900   80.4520  223.5990 C   0  0  0  0  0  0  0  0  0  0  0  0
  142.0140   81.4280  223.8060 C   0  0  0  0  0  0  0  0  0  0  0  0
  140.7070   81.1470  223.5480 C   0  0  0  0  0  0  0  0  0  0  0  0
  138.2340   78.3180  220.8830 C   0  0  0  0  0  0  0  0  0  0  0  0
  137.9230   77.0720  220.3180 C   0  0  0  0  0  0  0  0  0  0  0  0
  142.1110   74.6980  220.3480 C   0  0  0  0  0  0  0  0  0  0  0  0
  142.3120   76.1620  220.0200 C   0  0  0  0  0  0  0  0  0  0  0  0
  141.8641   80.0265  217.0411 H   0  0  0  0  0  0  0  0  0  0  0  0
  142.7637   80.0590  215.4866 H   0  0  0  0  0  0  0  0  0  0  0  0
  140.9770   79.8738  215.4866 H   0  0  0  0  0  0  0  0  0  0  0  0
  141.1101   77.6031  215.8280 H   0  0  0  0  0  0  0  0  0  0  0  0
  142.8252   77.7528  215.3581 H   0  0  0  0  0  0  0  0  0  0  0  0
  139.3211   79.2258  218.2499 H   0  0  0  0  0  0  0  0  0  0  0  0
  138.6954   81.4716  219.0591 H   0  0  0  0  0  0  0  0  0  0  0  0
  140.2770   82.8637  220.3665 H   0  0  0  0  0  0  0  0  0  0  0  0
  142.5395   81.9360  220.8407 H   0  0  0  0  0  0  0  0  0  0  0  0
  143.1731   79.6927  220.0310 H   0  0  0  0  0  0  0  0  0  0  0  0
  140.4475   76.9766  220.1194 H   0  0  0  0  0  0  0  0  0  0  0  0
  139.3065   76.3270  218.4606 H   0  0  0  0  0  0  0  0  0  0  0  0
  140.7936   76.0721  217.4031 H   0  0  0  0  0  0  0  0  0  0  0  0
  139.3269   74.0496  218.5115 H   0  0  0  0  0  0  0  0  0  0  0  0
  141.0242   73.9185  218.0364 H   0  0  0  0  0  0  0  0  0  0  0  0
  138.4585   72.7174  220.4794 H   0  0  0  0  0  0  0  0  0  0  0  0
  138.7420   72.8080  223.0980 H   0  0  0  0  0  0  0  0  0  0  0  0
  137.3900   73.7530  222.8660 H   0  0  0  0  0  0  0  0  0  0  0  0
  137.6730   74.6803  219.5158 H   0  0  0  0  0  0  0  0  0  0  0  0
  136.5186   74.3940  220.8732 H   0  0  0  0  0  0  0  0  0  0  0  0
  138.1197   75.2103  223.1733 H   0  0  0  0  0  0  0  0  0  0  0  0
  138.6704   77.4423  224.1698 H   0  0  0  0  0  0  0  0  0  0  0  0
  138.4894   80.5542  222.1875 H   0  0  0  0  0  0  0  0  0  0  0  0
  138.3365   79.7896  223.8332 H   0  0  0  0  0  0  0  0  0  0  0  0
  140.9265   77.9618  222.5072 H   0  0  0  0  0  0  0  0  0  0  0  0
  143.3156   78.4065  222.9513 H   0  0  0  0  0  0  0  0  0  0  0  0
  144.0515   80.6586  223.8002 H   0  0  0  0  0  0  0  0  0  0  0  0
  142.3004   82.4231  224.1772 H   0  0  0  0  0  0  0  0  0  0  0  0
  139.9579   81.9344  223.7175 H   0  0  0  0  0  0  0  0  0  0  0  0
  138.2706   79.2111  220.2419 H   0  0  0  0  0  0  0  0  0  0  0  0
  137.7128   76.9605  219.2440 H   0  0  0  0  0  0  0  0  0  0  0  0
  142.3435   74.5203  221.4084 H   0  0  0  0  0  0  0  0  0  0  0  0
  142.7771   74.0790  219.7290 H   0  0  0  0  0  0  0  0  0  0  0  0
  142.4724   76.7097  220.9604 H   0  0  0  0  0  0  0  0  0  0  0  0
  143.1783   76.2242  219.3450 H   0  0  0  0  0  0  0  0  0  0  0  0
  1  2  1  0
  2  3  1  0
  3  4  2  0
  3  5  1  0
  5  6  1  0
  6  7  2  0
  7  8  1  0
  8  9  2  0
  9 10  1  0
 10 11  2  0
  5 12  1  0
 12 13  1  0
 13 14  1  0
 14 15  1  0
 15 16  1  0
 16 17  2  0
 16 18  1  0
 18 19  1  0
 18 20  1  0
 20 21  1  0
 21 22  2  0
 22 23  1  0
 23 24  2  0
 24 25  1  0
 25 26  1  0
 26 27  2  0
 27 28  1  0
 28 29  2  0
 29 30  1  0
 30 31  2  0
 24 32  1  0
 32 33  2  0
 15 34  1  0
 34 35  1  0
 11  6  1  0
 35 12  1  0
 33 21  1  0
 31 26  1  0
  1 36  1  0
  1 37  1  0
  1 38  1  0
  2 39  1  0
  2 40  1  0
  7 41  1  0
  8 42  1  0
  9 43  1  0
 10 44  1  0
 11 45  1  0
 12 46  1  0
 13 47  1  0
 13 48  1  0
 14 49  1  0
 14 50  1  0
 18 51  1  6
 19 52  1  0
 19 53  1  0
 20 54  1  0
 20 55  1  0
 22 56  1  0
 23 57  1  0
 25 58  1  0
 25 59  1  0
 27 60  1  0
 28 61  1  0
 29 62  1  0
 30 63  1  0
 31 64  1  0
 32 65  1  0
 33 66  1  0
 34 67  1  0
 34 68  1  0
 35 69  1  0
 35 70  1  0
M  END
>  <smiles>  (13) 
CCC(=O)N(c1ccccc1)C1CCN(C(=O)[C@@H](N)Cc2ccc(Cc3ccccc3)cc2)CC1

>  <score_type>  (13) 
oracle

>  <origin>  (13) 
autodockgpu

>  <m_score__min__energy>  (13) 
-8.3699999999999992

>  <m_primary>  (13) 
energy

>  <rmsd>  (13) 
5.161967223259956

>  <m_score__min__rmsd>  (13) 
5.161967223259956

>  <meeko>  (13) 
{"free_energy": -6.09, "intermolecular_energy": -9.08, "internal_energy": -5.08, "cluster_size": 29, "cluster_id": 6, "rank_in_cluster": 25}

>  <energy>  (13) 
-7.89

>  <cluster_rmsd>  (13) 
0.53

>  <cluster>  (13) 
2

$$$$

     RDKit          3D

 70 73  0  0  0  0  0  0  0  0999 V2000
  142.5780   78.5810  217.4290 C   0  0  0  0  0  0  0  0  0  0  0  0
  141.9320   79.2970  218.6330 C   0  0  0  0  0  0  0  0  0  0  0  0
  141.8500   78.3070  219.7710 C   0  0  0  0  0  0  0  0  0  0  0  0
  142.4630   77.2260  219.5260 O   0  0  0  0  0  0  0  0  0  0  0  0
  141.1560   78.5860  220.9720 N   0  0  0  0  0  0  0  0  0  0  0  0
  141.5350   79.5700  221.9170 C   0  0  0  0  0  0  0  0  0  0  0  0
  142.1530   79.2090  223.1130 C   0  0  0  0  0  0  0  0  0  0  0  0
  142.5360   80.1690  224.0540 C   0  0  0  0  0  0  0  0  0  0  0  0
  142.3290   81.5110  223.8520 C   0  0  0  0  0  0  0  0  0  0  0  0
  141.7200   81.8810  222.6770 C   0  0  0  0  0  0  0  0  0  0  0  0
  141.3350   80.9190  221.7360 C   0  0  0  0  0  0  0  0  0  0  0  0
  139.9650   77.7430  221.2070 C   0  0  0  0  0  0  0  0  0  0  0  0
  140.3760   76.4180  221.7090 C   0  0  0  0  0  0  0  0  0  0  0  0
  139.3650   75.7130  222.6010 C   0  0  0  0  0  0  0  0  0  0  0  0
  138.0880   76.2930  222.2670 N   0  0  0  0  0  0  0  0  0  0  0  0
  137.0150   75.7020  221.5920 C   0  0  0  0  0  0  0  0  0  0  0  0
  135.9750   76.4620  221.4170 O   0  0  0  0  0  0  0  0  0  0  0  0
  136.8830   74.3590  221.0480 C   0  0  1  0  0  0  0  0  0  0  0  0
  135.8880   74.1690  220.0450 N   0  0  0  0  0  0  0  0  0  0  0  0
  138.2170   73.7330  220.6720 C   0  0  0  0  0  0  0  0  0  0  0  0
  138.6480   72.7440  221.7120 C   0  0  0  0  0  0  0  0  0  0  0  0
  139.9890   72.5250  221.9360 C   0  0  0  0  0  0  0  0  0  0  0  0
  140.4150   71.6090  222.8880 C   0  0  0  0  0  0  0  0  0  0  0  0
  139.4210   70.9280  223.6020 C   0  0  0  0  0  0  0  0  0  0  0  0
  139.9000   69.9550  224.6250 C   0  0  0  0  0  0  0  0  0  0  0  0
  140.2970   70.6020  225.8830 C   0  0  0  0  0  0  0  0  0  0  0  0
  141.0490   71.7430  225.9920 C   0  0  0  0  0  0  0  0  0  0  0  0
  141.3790   72.2790  227.2270 C   0  0  0  0  0  0  0  0  0  0  0  0
  140.9500   71.6580  228.4100 C   0  0  0  0  0  0  0  0  0  0  0  0
  140.1850   70.4960  228.2940 C   0  0  0  0  0  0  0  0  0  0  0  0
  139.8800   70.0020  227.0630 C   0  0  0  0  0  0  0  0  0  0  0  0
  138.0790   71.1470  223.3790 C   0  0  0  0  0  0  0  0  0  0  0  0
  137.6520   72.0730  222.4160 C   0  0  0  0  0  0  0  0  0  0  0  0
  137.9590   77.7110  222.7120 C   0  0  0  0  0  0  0  0  0  0  0  0
  138.9780   78.5450  221.9650 C   0  0  0  0  0  0  0  0  0  0  0  0
  143.2738   77.8098  217.7912 H   0  0  0  0  0  0  0  0  0  0  0  0
  141.7936   78.1097  216.8186 H   0  0  0  0  0  0  0  0  0  0  0  0
  143.1273   79.3130  216.8186 H   0  0  0  0  0  0  0  0  0  0  0  0
  142.5480   80.1584  218.9304 H   0  0  0  0  0  0  0  0  0  0  0  0
  140.9285   79.6621  218.3690 H   0  0  0  0  0  0  0  0  0  0  0  0
  142.3434   78.1457  223.3208 H   0  0  0  0  0  0  0  0  0  0  0  0
  143.0185   79.8388  224.9858 H   0  0  0  0  0  0  0  0  0  0  0  0
  142.6373   82.2579  224.5984 H   0  0  0  0  0  0  0  0  0  0  0  0
  141.5329   82.9457  222.4736 H   0  0  0  0  0  0  0  0  0  0  0  0
  140.8499   81.2574  220.8085 H   0  0  0  0  0  0  0  0  0  0  0  0
  139.4161   77.4619  220.2961 H   0  0  0  0  0  0  0  0  0  0  0  0
  140.5702   75.7718  220.8403 H   0  0  0  0  0  0  0  0  0  0  0  0
  141.2616   76.5945  222.3372 H   0  0  0  0  0  0  0  0  0  0  0  0
  139.3612   74.6318  222.3983 H   0  0  0  0  0  0  0  0  0  0  0  0
  139.6040   75.8377  223.6674 H   0  0  0  0  0  0  0  0  0  0  0  0
  136.4822   73.7975  221.9048 H   0  0  0  0  0  0  0  0  0  0  0  0
  135.0410   73.6300  220.3880 H   0  0  0  0  0  0  0  0  0  0  0  0
  135.4880   75.1240  219.8030 H   0  0  0  0  0  0  0  0  0  0  0  0
  138.1152   73.2191  219.7048 H   0  0  0  0  0  0  0  0  0  0  0  0
  138.9745   74.5277  220.6032 H   0  0  0  0  0  0  0  0  0  0  0  0
  140.7341   73.0846  221.3515 H   0  0  0  0  0  0  0  0  0  0  0  0
  141.4838   71.4264  223.0731 H   0  0  0  0  0  0  0  0  0  0  0  0
  139.0907   69.2408  224.8370 H   0  0  0  0  0  0  0  0  0  0  0  0
  140.7891   69.4536  224.2150 H   0  0  0  0  0  0  0  0  0  0  0  0
  141.3988   72.2450  225.0779 H   0  0  0  0  0  0  0  0  0  0  0  0
  141.9815   73.1978  227.2801 H   0  0  0  0  0  0  0  0  0  0  0  0
  141.2078   72.0729  229.3956 H   0  0  0  0  0  0  0  0  0  0  0  0
  139.8287   69.9796  229.1976 H   0  0  0  0  0  0  0  0  0  0  0  0
  139.2753   69.0852  227.0005 H   0  0  0  0  0  0  0  0  0  0  0  0
  137.3331   70.5885  223.9636 H   0  0  0  0  0  0  0  0  0  0  0  0
  136.5846   72.2595  222.2267 H   0  0  0  0  0  0  0  0  0  0  0  0
  136.9458   78.0782  222.4913 H   0  0  0  0  0  0  0  0  0  0  0  0
  138.1353   77.7829  223.7954 H   0  0  0  0  0  0  0  0  0  0  0  0
  138.4427   79.1953  221.2576 H   0  0  0  0  0  0  0  0  0  0  0  0
  139.5398   79.1162  222.7188 H   0  0  0  0  0  0  0  0  0  0  0  0
  1  2  1  0
  2  3  1  0
  3  4  2  0
  3  5  1  0
  5  6  1  0
  6  7  2  0
  7  8  1  0
  8  9  2  0
  9 10  1  0
 10 11  2  0
  5 12  1  0
 12 13  1  0
 13 14  1  0
 14 15  1  0
 15 16  1  0
 16 17  2  0
 16 18  1  0
 18 19  1  0
 18 20  1  0
 20 21  1  0
 21 22  2  0
 22 23  1  0
 23 24  2  0
 24 25  1  0
 25 26  1  0
 26 27  2  0
 27 28  1  0
 28 29  2  0
 29 30  1  0
 30 31  2  0
 24 32  1  0
 32 33  2  0
 15 34  1  0
 34 35  1  0
 11  6  1  0
 35 12  1  0
 33 21  1  0
 31 26  1  0
  1 36  1  0
  1 37  1  0
  1 38  1  0
  2 39  1  0
  2 40  1  0
  7 41  1  0
  8 42  1  0
  9 43  1  0
 10 44  1  0
 11 45  1  0
 12 46  1  0
 13 47  1  0
 13 48  1  0
 14 49  1  0
 14 50  1  0
 18 51  1  1
 19 52  1  0
 19 53  1  0
 20 54  1  0
 20 55  1  0
 22 56  1  0
 23 57  1  0
 25 58  1  0
 25 59  1  0
 27 60  1  0
 28 61  1  0
 29 62  1  0
 30 63  1  0
 31 64  1  0
 32 65  1  0
 33 66  1  0
 34 67  1  0
 34 68  1  0
 35 69  1  0
 35 70  1  0
M  END
>  <smiles>  (14) 
CCC(=O)N(c1ccccc1)C1CCN(C(=O)[C@@H](N)Cc2ccc(Cc3ccccc3)cc2)CC1

>  <score_type>  (14) 
oracle

>  <origin>  (14) 
autodockgpu

>  <m_score__min__energy>  (14) 
-8.3699999999999992

>  <m_primary>  (14) 
energy

>  <rmsd>  (14) 
4.93874835359052

>  <m_score__min__rmsd>  (14) 
4.93874835359052

>  <meeko>  (14) 
{"free_energy": -8.16, "intermolecular_energy": -11.15, "internal_energy": -2.75, "cluster_size": 13, "cluster_id": 2, "rank_in_cluster": 2}

>  <energy>  (14) 
-7.43

>  <cluster_rmsd>  (14) 
1.56

>  <cluster>  (14) 
2

$$$$

     RDKit          3D

 70 73  0  0  0  0  0  0  0  0999 V2000
  142.8130   77.6140  214.9220 C   0  0  0  0  0  0  0  0  0  0  0  0
  142.2750   78.5550  216.0190 C   0  0  0  0  0  0  0  0  0  0  0  0
  142.5320   77.9030  217.3560 C   0  0  0  0  0  0  0  0  0  0  0  0
  143.5350   77.1290  217.3400 O   0  0  0  0  0  0  0  0  0  0  0  0
  141.7230   78.1490  218.4900 N   0  0  0  0  0  0  0  0  0  0  0  0
  141.3370   79.4320  218.9470 C   0  0  0  0  0  0  0  0  0  0  0  0
  142.1740   80.1750  219.7790 C   0  0  0  0  0  0  0  0  0  0  0  0
  141.8080   81.4440  220.2340 C   0  0  0  0  0  0  0  0  0  0  0  0
  140.6140   82.0270  219.8890 C   0  0  0  0  0  0  0  0  0  0  0  0
  139.7790   81.3060  219.0700 C   0  0  0  0  0  0  0  0  0  0  0  0
  140.1450   80.0350  218.6150 C   0  0  0  0  0  0  0  0  0  0  0  0
  141.2940   76.9360  219.2180 C   0  0  0  0  0  0  0  0  0  0  0  0
  140.5180   76.0580  218.3220 C   0  0  0  0  0  0  0  0  0  0  0  0
  140.5830   74.5720  218.6440 C   0  0  0  0  0  0  0  0  0  0  0  0
  140.9400   74.4970  220.0390 N   0  0  0  0  0  0  0  0  0  0  0  0
  140.1480   74.0920  221.1190 C   0  0  0  0  0  0  0  0  0  0  0  0
  140.7260   74.1270  222.2830 O   0  0  0  0  0  0  0  0  0  0  0  0
  138.7670   73.6360  221.1410 C   0  0  1  0  0  0  0  0  0  0  0  0
  138.3080   73.0420  222.3530 N   0  0  0  0  0  0  0  0  0  0  0  0
  137.7900   74.6630  220.5880 C   0  0  0  0  0  0  0  0  0  0  0  0
  138.0710   76.0190  221.1600 C   0  0  0  0  0  0  0  0  0  0  0  0
  138.1720   76.1790  222.5240 C   0  0  0  0  0  0  0  0  0  0  0  0
  138.4240   77.4250  223.0810 C   0  0  0  0  0  0  0  0  0  0  0  0
  138.5680   78.4990  222.1930 C   0  0  0  0  0  0  0  0  0  0  0  0
  138.8460   79.8270  222.8110 C   0  0  0  0  0  0  0  0  0  0  0  0
  140.2760   80.0490  223.0640 C   0  0  0  0  0  0  0  0  0  0  0  0
  140.8360   81.2180  223.5090 C   0  0  0  0  0  0  0  0  0  0  0  0
  142.2020   81.3360  223.7160 C   0  0  0  0  0  0  0  0  0  0  0  0
  143.0550   80.2490  223.4690 C   0  0  0  0  0  0  0  0  0  0  0  0
  142.4800   79.0610  223.0150 C   0  0  0  0  0  0  0  0  0  0  0  0
  141.1350   78.9850  222.8270 C   0  0  0  0  0  0  0  0  0  0  0  0
  138.4670   78.3390  220.8280 C   0  0  0  0  0  0  0  0  0  0  0  0
  138.2130   77.0780  220.2690 C   0  0  0  0  0  0  0  0  0  0  0  0
  142.3420   74.9340  220.3050 C   0  0  0  0  0  0  0  0  0  0  0  0
  142.4660   76.3980  219.9450 C   0  0  0  0  0  0  0  0  0  0  0  0
  143.3071   76.7498  215.3901 H   0  0  0  0  0  0  0  0  0  0  0  0
  141.9781   77.2647  214.2967 H   0  0  0  0  0  0  0  0  0  0  0  0
  143.5375   78.1563  214.2967 H   0  0  0  0  0  0  0  0  0  0  0  0
  142.7949   79.5231  215.9691 H   0  0  0  0  0  0  0  0  0  0  0  0
  141.1982   78.7309  215.8789 H   0  0  0  0  0  0  0  0  0  0  0  0
  143.1430   79.7528  220.0835 H   0  0  0  0  0  0  0  0  0  0  0  0
  142.4989   81.9939  220.8899 H   0  0  0  0  0  0  0  0  0  0  0  0
  140.3378   83.0278  220.2524 H   0  0  0  0  0  0  0  0  0  0  0  0
  138.8113   81.7334  218.7686 H   0  0  0  0  0  0  0  0  0  0  0  0
  139.4472   79.4916  217.9609 H   0  0  0  0  0  0  0  0  0  0  0  0
  140.5625   77.1177  220.0192 H   0  0  0  0  0  0  0  0  0  0  0  0
  139.4642   76.3697  218.3711 H   0  0  0  0  0  0  0  0  0  0  0  0
  140.9675   76.1710  217.3244 H   0  0  0  0  0  0  0  0  0  0  0  0
  139.6057   74.0977  218.4710 H   0  0  0  0  0  0  0  0  0  0  0  0
  141.3103   74.0472  218.0071 H   0  0  0  0  0  0  0  0  0  0  0  0
  138.7887   72.7875  220.4413 H   0  0  0  0  0  0  0  0  0  0  0  0
  139.0620   72.9560  223.0920 H   0  0  0  0  0  0  0  0  0  0  0  0
  137.6070   73.7100  222.7930 H   0  0  0  0  0  0  0  0  0  0  0  0
  137.8901   74.7045  219.4933 H   0  0  0  0  0  0  0  0  0  0  0  0
  136.7679   74.3657  220.8654 H   0  0  0  0  0  0  0  0  0  0  0  0
  138.0511   75.3060  223.1822 H   0  0  0  0  0  0  0  0  0  0  0  0
  138.5068   77.5629  224.1692 H   0  0  0  0  0  0  0  0  0  0  0  0
  138.4829   80.6132  222.1328 H   0  0  0  0  0  0  0  0  0  0  0  0
  138.3296   79.8551  223.7819 H   0  0  0  0  0  0  0  0  0  0  0  0
  140.1863   82.0834  223.7067 H   0  0  0  0  0  0  0  0  0  0  0  0
  142.6199   82.2877  224.0761 H   0  0  0  0  0  0  0  0  0  0  0  0
  144.1404   80.3307  223.6279 H   0  0  0  0  0  0  0  0  0  0  0  0
  143.1145   78.1863  222.8093 H   0  0  0  0  0  0  0  0  0  0  0  0
  140.7082   78.0359  222.4705 H   0  0  0  0  0  0  0  0  0  0  0  0
  138.5871   79.2112  220.1686 H   0  0  0  0  0  0  0  0  0  0  0  0
  138.1303   76.9337  219.1816 H   0  0  0  0  0  0  0  0  0  0  0  0
  142.5788   74.7926  221.3698 H   0  0  0  0  0  0  0  0  0  0  0  0
  143.0429   74.3375  219.7026 H   0  0  0  0  0  0  0  0  0  0  0  0
  142.5924   76.9740  220.8736 H   0  0  0  0  0  0  0  0  0  0  0  0
  143.3307   76.4901  219.2714 H   0  0  0  0  0  0  0  0  0  0  0  0
  1  2  1  0
  2  3  1  0
  3  4  2  0
  3  5  1  0
  5  6  1  0
  6  7  2  0
  7  8  1  0
  8  9  2  0
  9 10  1  0
 10 11  2  0
  5 12  1  0
 12 13  1  0
 13 14  1  0
 14 15  1  0
 15 16  1  0
 16 17  2  0
 16 18  1  0
 18 19  1  0
 18 20  1  0
 20 21  1  0
 21 22  2  0
 22 23  1  0
 23 24  2  0
 24 25  1  0
 25 26  1  0
 26 27  2  0
 27 28  1  0
 28 29  2  0
 29 30  1  0
 30 31  2  0
 24 32  1  0
 32 33  2  0
 15 34  1  0
 34 35  1  0
 11  6  1  0
 35 12  1  0
 33 21  1  0
 31 26  1  0
  1 36  1  0
  1 37  1  0
  1 38  1  0
  2 39  1  0
  2 40  1  0
  7 41  1  0
  8 42  1  0
  9 43  1  0
 10 44  1  0
 11 45  1  0
 12 46  1  0
 13 47  1  0
 13 48  1  0
 14 49  1  0
 14 50  1  0
 18 51  1  6
 19 52  1  0
 19 53  1  0
 20 54  1  0
 20 55  1  0
 22 56  1  0
 23 57  1  0
 25 58  1  0
 25 59  1  0
 27 60  1  0
 28 61  1  0
 29 62  1  0
 30 63  1  0
 31 64  1  0
 32 65  1  0
 33 66  1  0
 34 67  1  0
 34 68  1  0
 35 69  1  0
 35 70  1  0
M  END
>  <smiles>  (15) 
CCC(=O)N(c1ccccc1)C1CCN(C(=O)[C@@H](N)Cc2ccc(Cc3ccccc3)cc2)CC1

>  <score_type>  (15) 
oracle

>  <origin>  (15) 
autodockgpu

>  <m_score__min__energy>  (15) 
-8.3699999999999992

>  <m_primary>  (15) 
energy

>  <rmsd>  (15) 
5.0397616945470425

>  <m_score__min__rmsd>  (15) 
5.0397616945470425

>  <meeko>  (15) 
{"free_energy": -6.26, "intermolecular_energy": -9.24, "internal_energy": -5.09, "cluster_size": 29, "cluster_id": 6, "rank_in_cluster": 18}

>  <energy>  (15) 
-8.19

>  <cluster_rmsd>  (15) 
0.0

>  <cluster>  (15) 
3

$$$$

     RDKit          3D

 70 73  0  0  0  0  0  0  0  0999 V2000
  138.0250   74.8790  221.8360 C   0  0  0  0  0  0  0  0  0  0  0  0
  138.2040   76.3970  222.0420 C   0  0  0  0  0  0  0  0  0  0  0  0
  139.1110   76.9090  220.9480 C   0  0  0  0  0  0  0  0  0  0  0  0
  138.5010   77.0970  219.8530 O   0  0  0  0  0  0  0  0  0  0  0  0
  140.4900   77.1470  221.1530 N   0  0  0  0  0  0  0  0  0  0  0  0
  141.0320   78.3110  221.7490 C   0  0  0  0  0  0  0  0  0  0  0  0
  141.3690   78.3310  223.1010 C   0  0  0  0  0  0  0  0  0  0  0  0
  141.9090   79.4720  223.7000 C   0  0  0  0  0  0  0  0  0  0  0  0
  142.1370   80.6280  222.9960 C   0  0  0  0  0  0  0  0  0  0  0  0
  141.8090   80.6230  221.6610 C   0  0  0  0  0  0  0  0  0  0  0  0
  141.2680   79.4810  221.0620 C   0  0  0  0  0  0  0  0  0  0  0  0
  141.3810   76.0680  220.6750 C   0  0  0  0  0  0  0  0  0  0  0  0
  140.6130   75.1030  219.8650 C   0  0  0  0  0  0  0  0  0  0  0  0
  141.4070   74.3720  218.7920 C   0  0  0  0  0  0  0  0  0  0  0  0
  142.7820   74.4320  219.2240 N   0  0  0  0  0  0  0  0  0  0  0  0
  143.5910   73.3920  219.6940 C   0  0  0  0  0  0  0  0  0  0  0  0
  144.8020   73.7280  220.0240 O   0  0  0  0  0  0  0  0  0  0  0  0
  143.2840   71.9810  219.8720 C   0  0  1  0  0  0  0  0  0  0  0  0
  143.7490   71.3700  221.0730 N   0  0  0  0  0  0  0  0  0  0  0  0
  141.8310   71.6440  219.5710 C   0  0  0  0  0  0  0  0  0  0  0  0
  141.0500   71.4940  220.8410 C   0  0  0  0  0  0  0  0  0  0  0  0
  141.1010   72.4830  221.7970 C   0  0  0  0  0  0  0  0  0  0  0  0
  140.3940   72.3670  222.9860 C   0  0  0  0  0  0  0  0  0  0  0  0
  139.6340   71.2030  223.1600 C   0  0  0  0  0  0  0  0  0  0  0  0
  138.8760   71.1010  224.4400 C   0  0  0  0  0  0  0  0  0  0  0  0
  139.5510   70.2560  225.4350 C   0  0  0  0  0  0  0  0  0  0  0  0
  140.4750   70.6850  226.3510 C   0  0  0  0  0  0  0  0  0  0  0  0
  141.0640   69.8100  227.2510 C   0  0  0  0  0  0  0  0  0  0  0  0
  140.7260   68.4490  227.2450 C   0  0  0  0  0  0  0  0  0  0  0  0
  139.7840   68.0160  226.3090 C   0  0  0  0  0  0  0  0  0  0  0  0
  139.2280   68.9070  225.4440 C   0  0  0  0  0  0  0  0  0  0  0  0
  139.5820   70.2130  222.2030 C   0  0  0  0  0  0  0  0  0  0  0  0
  140.2980   70.3340  221.0030 C   0  0  0  0  0  0  0  0  0  0  0  0
  143.3560   75.8060  219.1520 C   0  0  0  0  0  0  0  0  0  0  0  0
  142.6010   76.6950  220.1170 C   0  0  0  0  0  0  0  0  0  0  0  0
  137.9662   74.3806  222.8148 H   0  0  0  0  0  0  0  0  0  0  0  0
  137.0986   74.6921  221.2731 H   0  0  0  0  0  0  0  0  0  0  0  0
  138.8825   74.4817  221.2731 H   0  0  0  0  0  0  0  0  0  0  0  0
  137.2274   76.9000  221.9841 H   0  0  0  0  0  0  0  0  0  0  0  0
  138.6418   76.6011  223.0303 H   0  0  0  0  0  0  0  0  0  0  0  0
  141.2064   77.4293  223.7096 H   0  0  0  0  0  0  0  0  0  0  0  0
  142.1596   79.4429  224.7707 H   0  0  0  0  0  0  0  0  0  0  0  0
  142.5635   81.5195  223.4790 H   0  0  0  0  0  0  0  0  0  0  0  0
  141.9740   81.5275  221.0571 H   0  0  0  0  0  0  0  0  0  0  0  0
  141.0191   79.5191  219.9912 H   0  0  0  0  0  0  0  0  0  0  0  0
  141.7739   75.4126  221.4662 H   0  0  0  0  0  0  0  0  0  0  0  0
  140.1897   74.3499  220.5459 H   0  0  0  0  0  0  0  0  0  0  0  0
  139.8539   75.6930  219.3305 H   0  0  0  0  0  0  0  0  0  0  0  0
  141.0741   73.3266  218.7122 H   0  0  0  0  0  0  0  0  0  0  0  0
  141.2699   74.8279  217.8003 H   0  0  0  0  0  0  0  0  0  0  0  0
  143.9038   71.5066  219.0968 H   0  0  0  0  0  0  0  0  0  0  0  0
  144.0730   70.3700  220.9390 H   0  0  0  0  0  0  0  0  0  0  0  0
  144.6360   71.8770  221.3690 H   0  0  0  0  0  0  0  0  0  0  0  0
  141.3899   72.4519  218.9687 H   0  0  0  0  0  0  0  0  0  0  0  0
  141.7947   70.6937  219.0182 H   0  0  0  0  0  0  0  0  0  0  0  0
  141.7118   73.3797  221.6159 H   0  0  0  0  0  0  0  0  0  0  0  0
  140.4289   73.1522  223.7555 H   0  0  0  0  0  0  0  0  0  0  0  0
  138.7566   72.1109  224.8594 H   0  0  0  0  0  0  0  0  0  0  0  0
  137.9051   70.6360  224.2141 H   0  0  0  0  0  0  0  0  0  0  0  0
  140.7562   71.7482  226.3730 H   0  0  0  0  0  0  0  0  0  0  0  0
  141.8018   70.1861  227.9750 H   0  0  0  0  0  0  0  0  0  0  0  0
  141.1874   67.7458  227.9539 H   0  0  0  0  0  0  0  0  0  0  0  0
  139.4920   66.9561  226.2713 H   0  0  0  0  0  0  0  0  0  0  0  0
  138.4876   68.5404  224.7177 H   0  0  0  0  0  0  0  0  0  0  0  0
  138.9710   69.3161  222.3825 H   0  0  0  0  0  0  0  0  0  0  0  0
  140.2668   69.5523  220.2297 H   0  0  0  0  0  0  0  0  0  0  0  0
  144.4203   75.7782  219.4287 H   0  0  0  0  0  0  0  0  0  0  0  0
  143.2646   76.1987  218.1286 H   0  0  0  0  0  0  0  0  0  0  0  0
  143.2718   76.9513  220.9503 H   0  0  0  0  0  0  0  0  0  0  0  0
  142.2767   77.5808  219.5511 H   0  0  0  0  0  0  0  0  0  0  0  0
  1  2  1  0
  2  3  1  0
  3  4  2  0
  3  5  1  0
  5  6  1  0
  6  7  2  0
  7  8  1  0
  8  9  2  0
  9 10  1  0
 10 11  2  0
  5 12  1  0
 12 13  1  0
 13 14  1  0
 14 15  1  0
 15 16  1  0
 16 17  2  0
 16 18  1  0
 18 19  1  0
 18 20  1  0
 20 21  1  0
 21 22  2  0
 22 23  1  0
 23 24  2  0
 24 25  1  0
 25 26  1  0
 26 27  2  0
 27 28  1  0
 28 29  2  0
 29 30  1  0
 30 31  2  0
 24 32  1  0
 32 33  2  0
 15 34  1  0
 34 35  1  0
 11  6  1  0
 35 12  1  0
 33 21  1  0
 31 26  1  0
  1 36  1  0
  1 37  1  0
  1 38  1  0
  2 39  1  0
  2 40  1  0
  7 41  1  0
  8 42  1  0
  9 43  1  0
 10 44  1  0
 11 45  1  0
 12 46  1  0
 13 47  1  0
 13 48  1  0
 14 49  1  0
 14 50  1  0
 18 51  1  6
 19 52  1  0
 19 53  1  0
 20 54  1  0
 20 55  1  0
 22 56  1  0
 23 57  1  0
 25 58  1  0
 25 59  1  0
 27 60  1  0
 28 61  1  0
 29 62  1  0
 30 63  1  0
 31 64  1  0
 32 65  1  0
 33 66  1  0
 34 67  1  0
 34 68  1  0
 35 69  1  0
 35 70  1  0
M  END
>  <smiles>  (16) 
CCC(=O)N(c1ccccc1)C1CCN(C(=O)[C@@H](N)Cc2ccc(Cc3ccccc3)cc2)CC1

>  <score_type>  (16) 
oracle

>  <origin>  (16) 
autodockgpu

>  <m_score__min__energy>  (16) 
-8.3699999999999992

>  <m_primary>  (16) 
energy

>  <rmsd>  (16) 
5.990995717786091

>  <m_score__min__rmsd>  (16) 
5.990995717786091

>  <meeko>  (16) 
{"free_energy": -7.87, "intermolecular_energy": -10.86, "internal_energy": -2.9, "cluster_size": 2, "cluster_id": 3, "rank_in_cluster": 2}

>  <energy>  (16) 
-7.87

>  <cluster_rmsd>  (16) 
1.67

>  <cluster>  (16) 
3

$$$$

     RDKit          3D

 70 73  0  0  0  0  0  0  0  0999 V2000
  141.9030   73.7620  219.7130 C   0  0  0  0  0  0  0  0  0  0  0  0
  142.7730   74.7870  220.4690 C   0  0  0  0  0  0  0  0  0  0  0  0
  142.2360   76.1660  220.1640 C   0  0  0  0  0  0  0  0  0  0  0  0
  142.7730   76.6870  219.1410 O   0  0  0  0  0  0  0  0  0  0  0  0
  141.2380   76.7840  220.9530 N   0  0  0  0  0  0  0  0  0  0  0  0
  141.4350   77.9370  221.7510 C   0  0  0  0  0  0  0  0  0  0  0  0
  141.6290   79.1860  221.1640 C   0  0  0  0  0  0  0  0  0  0  0  0
  141.8190   80.3330  221.9390 C   0  0  0  0  0  0  0  0  0  0  0  0
  141.8250   80.2940  223.3110 C   0  0  0  0  0  0  0  0  0  0  0  0
  141.6350   79.0680  223.9030 C   0  0  0  0  0  0  0  0  0  0  0  0
  141.4460   77.9200  223.1270 C   0  0  0  0  0  0  0  0  0  0  0  0
  139.9180   76.1200  220.9110 C   0  0  0  0  0  0  0  0  0  0  0  0
  139.5230   75.6970  222.2680 C   0  0  0  0  0  0  0  0  0  0  0  0
  138.0250   75.6360  222.5240 C   0  0  0  0  0  0  0  0  0  0  0  0
  137.4180   75.4870  221.2240 N   0  0  0  0  0  0  0  0  0  0  0  0
  136.7740   74.3660  220.6890 C   0  0  0  0  0  0  0  0  0  0  0  0
  136.3200   74.5040  219.4790 O   0  0  0  0  0  0  0  0  0  0  0  0
  136.5310   73.0600  221.2820 C   0  0  1  0  0  0  0  0  0  0  0  0
  135.2270   72.5110  221.1120 N   0  0  0  0  0  0  0  0  0  0  0  0
  137.6310   72.0540  220.9790 C   0  0  0  0  0  0  0  0  0  0  0  0
  138.5310   71.8830  222.1650 C   0  0  0  0  0  0  0  0  0  0  0  0
  139.8440   72.2920  222.0930 C   0  0  0  0  0  0  0  0  0  0  0  0
  140.7010   72.1390  223.1740 C   0  0  0  0  0  0  0  0  0  0  0  0
  140.1670   71.5530  224.3290 C   0  0  0  0  0  0  0  0  0  0  0  0
  141.1010   71.4050  225.4810 C   0  0  0  0  0  0  0  0  0  0  0  0
  140.6890   70.3490  226.4160 C   0  0  0  0  0  0  0  0  0  0  0  0
  140.0480   70.5480  227.6110 C   0  0  0  0  0  0  0  0  0  0  0  0
  139.7010   69.4870  228.4330 C   0  0  0  0  0  0  0  0  0  0  0  0
  140.0020   68.1690  228.0590 C   0  0  0  0  0  0  0  0  0  0  0  0
  140.6550   67.9710  226.8410 C   0  0  0  0  0  0  0  0  0  0  0  0
  140.9780   69.0390  226.0620 C   0  0  0  0  0  0  0  0  0  0  0  0
  138.8530   71.1430  224.4010 C   0  0  0  0  0  0  0  0  0  0  0  0
  137.9900   71.3000  223.3070 C   0  0  0  0  0  0  0  0  0  0  0  0
  137.5390   76.7110  220.3820 C   0  0  0  0  0  0  0  0  0  0  0  0
  139.0060   76.9640  220.1060 C   0  0  0  0  0  0  0  0  0  0  0  0
  141.3672   73.1308  220.4373 H   0  0  0  0  0  0  0  0  0  0  0  0
  141.1759   74.2933  219.0813 H   0  0  0  0  0  0  0  0  0  0  0  0
  142.5454   73.1309  219.0813 H   0  0  0  0  0  0  0  0  0  0  0  0
  142.7203   74.5962  221.5510 H   0  0  0  0  0  0  0  0  0  0  0  0
  143.8233   74.7059  220.1523 H   0  0  0  0  0  0  0  0  0  0  0  0
  141.6326   79.2707  220.0673 H   0  0  0  0  0  0  0  0  0  0  0  0
  141.9686   81.2983  221.4333 H   0  0  0  0  0  0  0  0  0  0  0  0
  141.9753   81.2039  223.9106 H   0  0  0  0  0  0  0  0  0  0  0  0
  141.6316   78.9890  225.0002 H   0  0  0  0  0  0  0  0  0  0  0  0
  141.2993   76.9584  223.6406 H   0  0  0  0  0  0  0  0  0  0  0  0
  139.9058   75.1572  220.3792 H   0  0  0  0  0  0  0  0  0  0  0  0
  139.9383   74.6939  222.4448 H   0  0  0  0  0  0  0  0  0  0  0  0
  139.9153   76.4654  222.9504 H   0  0  0  0  0  0  0  0  0  0  0  0
  137.7790   74.7759  223.1641 H   0  0  0  0  0  0  0  0  0  0  0  0
  137.6626   76.5356  223.0431 H   0  0  0  0  0  0  0  0  0  0  0  0
  136.5679   73.2808  222.3590 H   0  0  0  0  0  0  0  0  0  0  0  0
  134.5490   72.7910  221.8780 H   0  0  0  0  0  0  0  0  0  0  0  0
  134.8040   72.9500  220.2400 H   0  0  0  0  0  0  0  0  0  0  0  0
  137.1753   71.0847  220.7283 H   0  0  0  0  0  0  0  0  0  0  0  0
  138.2271   72.4248  220.1321 H   0  0  0  0  0  0  0  0  0  0  0  0
  140.2193   72.7470  221.1645 H   0  0  0  0  0  0  0  0  0  0  0  0
  141.7511   72.4629  223.1260 H   0  0  0  0  0  0  0  0  0  0  0  0
  142.1011   71.1608  225.0935 H   0  0  0  0  0  0  0  0  0  0  0  0
  141.0986   72.3561  226.0336 H   0  0  0  0  0  0  0  0  0  0  0  0
  139.8032   71.5734  227.9251 H   0  0  0  0  0  0  0  0  0  0  0  0
  139.1858   69.6801  229.3855 H   0  0  0  0  0  0  0  0  0  0  0  0
  139.7325   67.3196  228.7040 H   0  0  0  0  0  0  0  0  0  0  0  0
  140.9082   66.9526  226.5113 H   0  0  0  0  0  0  0  0  0  0  0  0
  141.4922   68.8551  225.1071 H   0  0  0  0  0  0  0  0  0  0  0  0
  138.4766   70.6868  225.3285 H   0  0  0  0  0  0  0  0  0  0  0  0
  136.9388   70.9787  223.3493 H   0  0  0  0  0  0  0  0  0  0  0  0
  137.0035   76.5623  219.4327 H   0  0  0  0  0  0  0  0  0  0  0  0
  137.1011   77.5730  220.9066 H   0  0  0  0  0  0  0  0  0  0  0  0
  139.1982   76.7652  219.0413 H   0  0  0  0  0  0  0  0  0  0  0  0
  139.2090   78.0094  220.3815 H   0  0  0  0  0  0  0  0  0  0  0  0
  1  2  1  0
  2  3  1  0
  3  4  2  0
  3  5  1  0
  5  6  1  0
  6  7  2  0
  7  8  1  0
  8  9  2  0
  9 10  1  0
 10 11  2  0
  5 12  1  0
 12 13  1  0
 13 14  1  0
 14 15  1  0
 15 16  1  0
 16 17  2  0
 16 18  1  0
 18 19  1  0
 18 20  1  0
 20 21  1  0
 21 22  2  0
 22 23  1  0
 23 24  2  0
 24 25  1  0
 25 26  1  0
 26 27  2  0
 27 28  1  0
 28 29  2  0
 29 30  1  0
 30 31  2  0
 24 32  1  0
 32 33  2  0
 15 34  1  0
 34 35  1  0
 11  6  1  0
 35 12  1  0
 33 21  1  0
 31 26  1  0
  1 36  1  0
  1 37  1  0
  1 38  1  0
  2 39  1  0
  2 40  1  0
  7 41  1  0
  8 42  1  0
  9 43  1  0
 10 44  1  0
 11 45  1  0
 12 46  1  0
 13 47  1  0
 13 48  1  0
 14 49  1  0
 14 50  1  0
 18 51  1  1
 19 52  1  0
 19 53  1  0
 20 54  1  0
 20 55  1  0
 22 56  1  0
 23 57  1  0
 25 58  1  0
 25 59  1  0
 27 60  1  0
 28 61  1  0
 29 62  1  0
 30 63  1  0
 31 64  1  0
 32 65  1  0
 33 66  1  0
 34 67  1  0
 34 68  1  0
 35 69  1  0
 35 70  1  0
M  END
>  <smiles>  (17) 
CCC(=O)N(c1ccccc1)C1CCN(C(=O)[C@@H](N)Cc2ccc(Cc3ccccc3)cc2)CC1

>  <score_type>  (17) 
oracle

>  <origin>  (17) 
autodockgpu

>  <m_score__min__energy>  (17) 
-8.3699999999999992

>  <m_primary>  (17) 
energy

>  <rmsd>  (17) 
6.065140197607549

>  <m_score__min__rmsd>  (17) 
6.065140197607549

>  <meeko>  (17) 
{"free_energy": -7.43, "intermolecular_energy": -10.42, "internal_energy": -3.24, "cluster_size": 13, "cluster_id": 2, "rank_in_cluster": 13}

>  <energy>  (17) 
-7.82

>  <cluster_rmsd>  (17) 
0.0

>  <cluster>  (17) 
4

$$$$

     RDKit          3D

 70 73  0  0  0  0  0  0  0  0999 V2000
  143.7990   74.9030  216.3610 C   0  0  0  0  0  0  0  0  0  0  0  0
  144.0590   76.3840  216.7080 C   0  0  0  0  0  0  0  0  0  0  0  0
  142.7240   77.0890  216.7590 C   0  0  0  0  0  0  0  0  0  0  0  0
  142.1890   77.2100  215.6170 O   0  0  0  0  0  0  0  0  0  0  0  0
  142.1550   77.5520  217.9680 N   0  0  0  0  0  0  0  0  0  0  0  0
  142.0540   78.9130  218.3470 C   0  0  0  0  0  0  0  0  0  0  0  0
  141.7680   79.2670  219.6640 C   0  0  0  0  0  0  0  0  0  0  0  0
  141.6700   80.6060  220.0530 C   0  0  0  0  0  0  0  0  0  0  0  0
  141.8500   81.6390  219.1660 C   0  0  0  0  0  0  0  0  0  0  0  0
  142.1320   81.3040  217.8640 C   0  0  0  0  0  0  0  0  0  0  0  0
  142.2290   79.9630  217.4750 C   0  0  0  0  0  0  0  0  0  0  0  0
  141.6630   76.4870  218.8680 C   0  0  0  0  0  0  0  0  0  0  0  0
  140.9570   75.4550  218.0870 C   0  0  0  0  0  0  0  0  0  0  0  0
  140.9870   74.0530  218.6780 C   0  0  0  0  0  0  0  0  0  0  0  0
  141.2310   74.2350  220.0870 N   0  0  0  0  0  0  0  0  0  0  0  0
  140.3530   74.0250  221.1550 C   0  0  0  0  0  0  0  0  0  0  0  0
  140.8360   74.2760  222.3360 O   0  0  0  0  0  0  0  0  0  0  0  0
  138.9720   73.5670  221.1500 C   0  0  1  0  0  0  0  0  0  0  0  0
  138.4840   72.9870  222.3570 N   0  0  0  0  0  0  0  0  0  0  0  0
  138.0080   74.5870  220.5610 C   0  0  0  0  0  0  0  0  0  0  0  0
  138.2310   75.9370  221.1720 C   0  0  0  0  0  0  0  0  0  0  0  0
  138.6580   76.9830  220.3850 C   0  0  0  0  0  0  0  0  0  0  0  0
  138.8790   78.2420  220.9270 C   0  0  0  0  0  0  0  0  0  0  0  0
  138.6470   78.3910  222.3000 C   0  0  0  0  0  0  0  0  0  0  0  0
  138.8830   79.7520  222.8600 C   0  0  0  0  0  0  0  0  0  0  0  0
  140.3060   80.0270  223.1060 C   0  0  0  0  0  0  0  0  0  0  0  0
  140.8400   81.2510  223.4140 C   0  0  0  0  0  0  0  0  0  0  0  0
  142.2000   81.4160  223.6250 C   0  0  0  0  0  0  0  0  0  0  0  0
  143.0740   80.3230  223.5250 C   0  0  0  0  0  0  0  0  0  0  0  0
  142.5250   79.0780  223.2100 C   0  0  0  0  0  0  0  0  0  0  0  0
  141.1840   78.9570  223.0120 C   0  0  0  0  0  0  0  0  0  0  0  0
  138.2200   77.3440  223.0880 C   0  0  0  0  0  0  0  0  0  0  0  0
  137.9970   76.0740  222.5370 C   0  0  0  0  0  0  0  0  0  0  0  0
  142.6090   74.7250  220.3810 C   0  0  0  0  0  0  0  0  0  0  0  0
  142.7700   76.1020  219.7710 C   0  0  0  0  0  0  0  0  0  0  0  0
  143.6969   74.3214  217.2891 H   0  0  0  0  0  0  0  0  0  0  0  0
  142.8728   74.8213  215.7733 H   0  0  0  0  0  0  0  0  0  0  0  0
  144.6420   74.5106  215.7733 H   0  0  0  0  0  0  0  0  0  0  0  0
  144.5580   76.4570  217.6856 H   0  0  0  0  0  0  0  0  0  0  0  0
  144.7087   76.8471  215.9508 H   0  0  0  0  0  0  0  0  0  0  0  0
  141.6162   78.4761  220.4133 H   0  0  0  0  0  0  0  0  0  0  0  0
  141.4414   80.8399  221.1032 H   0  0  0  0  0  0  0  0  0  0  0  0
  141.7718   82.6890  219.4844 H   0  0  0  0  0  0  0  0  0  0  0  0
  142.2833   82.0987  217.1186 H   0  0  0  0  0  0  0  0  0  0  0  0
  142.4559   79.7378  216.4225 H   0  0  0  0  0  0  0  0  0  0  0  0
  140.8708   76.8027  219.5629 H   0  0  0  0  0  0  0  0  0  0  0  0
  139.9046   75.7612  217.9936 H   0  0  0  0  0  0  0  0  0  0  0  0
  141.4860   75.3891  217.1248 H   0  0  0  0  0  0  0  0  0  0  0  0
  140.0237   73.5470  218.5167 H   0  0  0  0  0  0  0  0  0  0  0  0
  141.7598   73.4277  218.2071 H   0  0  0  0  0  0  0  0  0  0  0  0
  139.0115   72.7093  220.4624 H   0  0  0  0  0  0  0  0  0  0  0  0
  139.2010   72.9760  223.1380 H   0  0  0  0  0  0  0  0  0  0  0  0
  137.7200   73.6240  222.7340 H   0  0  0  0  0  0  0  0  0  0  0  0
  138.1684   74.6508  219.4746 H   0  0  0  0  0  0  0  0  0  0  0  0
  136.9778   74.2664  220.7752 H   0  0  0  0  0  0  0  0  0  0  0  0
  138.8266   76.8187  219.3105 H   0  0  0  0  0  0  0  0  0  0  0  0
  139.2206   79.0836  220.3065 H   0  0  0  0  0  0  0  0  0  0  0  0
  138.4990   80.4968  222.1474 H   0  0  0  0  0  0  0  0  0  0  0  0
  138.3625   79.8073  223.8275 H   0  0  0  0  0  0  0  0  0  0  0  0
  140.1740   82.1226  223.4957 H   0  0  0  0  0  0  0  0  0  0  0  0
  142.5971   82.4115  223.8727 H   0  0  0  0  0  0  0  0  0  0  0  0
  144.1551   80.4426  223.6891 H   0  0  0  0  0  0  0  0  0  0  0  0
  143.1761   78.1958  223.1220 H   0  0  0  0  0  0  0  0  0  0  0  0
  140.7775   77.9649  222.7660 H   0  0  0  0  0  0  0  0  0  0  0  0
  138.0520   77.5067  224.1628 H   0  0  0  0  0  0  0  0  0  0  0  0
  137.6545   75.2290  223.1524 H   0  0  0  0  0  0  0  0  0  0  0  0
  142.7583   74.7816  221.4693 H   0  0  0  0  0  0  0  0  0  0  0  0
  143.3529   74.0352  219.9558 H   0  0  0  0  0  0  0  0  0  0  0  0
  142.8249   76.8384  220.5862 H   0  0  0  0  0  0  0  0  0  0  0  0
  143.6865   76.0785  219.1632 H   0  0  0  0  0  0  0  0  0  0  0  0
  1  2  1  0
  2  3  1  0
  3  4  2  0
  3  5  1  0
  5  6  1  0
  6  7  2  0
  7  8  1  0
  8  9  2  0
  9 10  1  0
 10 11  2  0
  5 12  1  0
 12 13  1  0
 13 14  1  0
 14 15  1  0
 15 16  1  0
 16 17  2  0
 16 18  1  0
 18 19  1  0
 18 20  1  0
 20 21  1  0
 21 22  2  0
 22 23  1  0
 23 24  2  0
 24 25  1  0
 25 26  1  0
 26 27  2  0
 27 28  1  0
 28 29  2  0
 29 30  1  0
 30 31  2  0
 24 32  1  0
 32 33  2  0
 15 34  1  0
 34 35  1  0
 11  6  1  0
 35 12  1  0
 33 21  1  0
 31 26  1  0
  1 36  1  0
  1 37  1  0
  1 38  1  0
  2 39  1  0
  2 40  1  0
  7 41  1  0
  8 42  1  0
  9 43  1  0
 10 44  1  0
 11 45  1  0
 12 46  1  0
 13 47  1  0
 13 48  1  0
 14 49  1  0
 14 50  1  0
 18 51  1  6
 19 52  1  0
 19 53  1  0
 20 54  1  0
 20 55  1  0
 22 56  1  0
 23 57  1  0
 25 58  1  0
 25 59  1  0
 27 60  1  0
 28 61  1  0
 29 62  1  0
 30 63  1  0
 31 64  1  0
 32 65  1  0
 33 66  1  0
 34 67  1  0
 34 68  1  0
 35 69  1  0
 35 70  1  0
M  END
>  <smiles>  (18) 
CCC(=O)N(c1ccccc1)C1CCN(C(=O)[C@@H](N)Cc2ccc(Cc3ccccc3)cc2)CC1

>  <score_type>  (18) 
oracle

>  <origin>  (18) 
autodockgpu

>  <m_score__min__energy>  (18) 
-8.3699999999999992

>  <m_primary>  (18) 
energy

>  <rmsd>  (18) 
5.17248271279527

>  <m_score__min__rmsd>  (18) 
5.17248271279527

>  <meeko>  (18) 
{"free_energy": -6.76, "intermolecular_energy": -9.75, "internal_energy": -4.56, "cluster_size": 29, "cluster_id": 6, "rank_in_cluster": 14}

>  <energy>  (18) 
-7.62

>  <cluster_rmsd>  (18) 
0.0

>  <cluster>  (18) 
5

$$$$

     RDKit          3D

 70 73  0  0  0  0  0  0  0  0999 V2000
  141.0290   77.6650  215.4970 C   0  0  0  0  0  0  0  0  0  0  0  0
  142.5710   77.6460  215.5430 C   0  0  0  0  0  0  0  0  0  0  0  0
  142.9880   77.1940  216.9220 C   0  0  0  0  0  0  0  0  0  0  0  0
  143.9720   76.3950  216.9010 O   0  0  0  0  0  0  0  0  0  0  0  0
  142.3340   77.6330  218.0960 N   0  0  0  0  0  0  0  0  0  0  0  0
  142.1730   78.9880  218.4760 C   0  0  0  0  0  0  0  0  0  0  0  0
  141.7940   79.3250  219.7750 C   0  0  0  0  0  0  0  0  0  0  0  0
  141.6360   80.6570  220.1650 C   0  0  0  0  0  0  0  0  0  0  0  0
  141.8460   81.7010  219.2980 C   0  0  0  0  0  0  0  0  0  0  0  0
  142.2200   81.3840  218.0150 C   0  0  0  0  0  0  0  0  0  0  0  0
  142.3770   80.0490  217.6240 C   0  0  0  0  0  0  0  0  0  0  0  0
  141.8140   76.5490  218.9570 C   0  0  0  0  0  0  0  0  0  0  0  0
  141.0810   75.5640  218.1400 C   0  0  0  0  0  0  0  0  0  0  0  0
  141.0760   74.1410  218.6780 C   0  0  0  0  0  0  0  0  0  0  0  0
  141.3260   74.2650  220.0930 N   0  0  0  0  0  0  0  0  0  0  0  0
  140.4430   74.0390  221.1540 C   0  0  0  0  0  0  0  0  0  0  0  0
  140.9330   74.2330  222.3430 O   0  0  0  0  0  0  0  0  0  0  0  0
  139.0500   73.6180  221.1340 C   0  0  1  0  0  0  0  0  0  0  0  0
  138.5270   73.0770  222.3450 N   0  0  0  0  0  0  0  0  0  0  0  0
  138.1240   74.6490  220.5080 C   0  0  0  0  0  0  0  0  0  0  0  0
  138.3410   75.9970  221.1250 C   0  0  0  0  0  0  0  0  0  0  0  0
  138.1450   76.1700  222.4780 C   0  0  0  0  0  0  0  0  0  0  0  0
  138.3320   77.4090  223.0740 C   0  0  0  0  0  0  0  0  0  0  0  0
  138.7250   78.4620  222.2390 C   0  0  0  0  0  0  0  0  0  0  0  0
  138.9270   79.7830  222.9010 C   0  0  0  0  0  0  0  0  0  0  0  0
  140.3440   80.0820  223.1530 C   0  0  0  0  0  0  0  0  0  0  0  0
  140.8570   81.3160  223.4550 C   0  0  0  0  0  0  0  0  0  0  0  0
  142.2130   81.5030  223.6730 C   0  0  0  0  0  0  0  0  0  0  0  0
  143.1040   80.4220  223.5870 C   0  0  0  0  0  0  0  0  0  0  0  0
  142.5760   79.1670  223.2790 C   0  0  0  0  0  0  0  0  0  0  0  0
  141.2380   79.0240  223.0730 C   0  0  0  0  0  0  0  0  0  0  0  0
  138.9210   78.2900  220.8860 C   0  0  0  0  0  0  0  0  0  0  0  0
  138.7310   77.0360  220.2860 C   0  0  0  0  0  0  0  0  0  0  0  0
  142.7160   74.7090  220.4020 C   0  0  0  0  0  0  0  0  0  0  0  0
  142.9120   76.1020  219.8440 C   0  0  0  0  0  0  0  0  0  0  0  0
  140.6316   77.6699  216.5227 H   0  0  0  0  0  0  0  0  0  0  0  0
  140.6891   78.5674  214.9677 H   0  0  0  0  0  0  0  0  0  0  0  0
  140.6669   76.7712  214.9677 H   0  0  0  0  0  0  0  0  0  0  0  0
  142.9590   76.9472  214.7873 H   0  0  0  0  0  0  0  0  0  0  0  0
  142.9733   78.6473  215.3297 H   0  0  0  0  0  0  0  0  0  0  0  0
  141.6156   78.5247  220.5083 H   0  0  0  0  0  0  0  0  0  0  0  0
  141.3337   80.8766  221.1996 H   0  0  0  0  0  0  0  0  0  0  0  0
  141.7201   82.7461  219.6173 H   0  0  0  0  0  0  0  0  0  0  0  0
  142.3982   82.1885  217.2862 H   0  0  0  0  0  0  0  0  0  0  0  0
  142.6775   79.8384  216.5870 H   0  0  0  0  0  0  0  0  0  0  0  0
  141.0301   76.8603  219.6632 H   0  0  0  0  0  0  0  0  0  0  0  0
  140.0366   75.8999  218.0603 H   0  0  0  0  0  0  0  0  0  0  0  0
  141.6075   75.5203  217.1752 H   0  0  0  0  0  0  0  0  0  0  0  0
  140.1001   73.6658  218.4999 H   0  0  0  0  0  0  0  0  0  0  0  0
  141.8320   73.5140  218.1827 H   0  0  0  0  0  0  0  0  0  0  0  0
  139.0777   72.7459  220.4642 H   0  0  0  0  0  0  0  0  0  0  0  0
  139.2420   73.0200  223.1250 H   0  0  0  0  0  0  0  0  0  0  0  0
  137.8080   73.7660  222.7210 H   0  0  0  0  0  0  0  0  0  0  0  0
  138.3268   74.7087  219.4285 H   0  0  0  0  0  0  0  0  0  0  0  0
  137.0822   74.3425  220.6833 H   0  0  0  0  0  0  0  0  0  0  0  0
  137.8357   75.3132  223.0946 H   0  0  0  0  0  0  0  0  0  0  0  0
  138.1785   77.5572  224.1531 H   0  0  0  0  0  0  0  0  0  0  0  0
  138.5118   80.5685  222.2525 H   0  0  0  0  0  0  0  0  0  0  0  0
  138.4173   79.7472  223.8751 H   0  0  0  0  0  0  0  0  0  0  0  0
  140.1773   82.1779  223.5261 H   0  0  0  0  0  0  0  0  0  0  0  0
  142.5937   82.5062  223.9152 H   0  0  0  0  0  0  0  0  0  0  0  0
  144.1822   80.5591  223.7566 H   0  0  0  0  0  0  0  0  0  0  0  0
  143.2408   78.2940  223.2028 H   0  0  0  0  0  0  0  0  0  0  0  0
  140.8479   78.0241  222.8321 H   0  0  0  0  0  0  0  0  0  0  0  0
  139.2302   79.1463  220.2687 H   0  0  0  0  0  0  0  0  0  0  0  0
  138.8826   76.8822  219.2074 H   0  0  0  0  0  0  0  0  0  0  0  0
  142.8678   74.7212  221.4914 H   0  0  0  0  0  0  0  0  0  0  0  0
  143.4414   74.0169  219.9495 H   0  0  0  0  0  0  0  0  0  0  0  0
  142.9863   76.8059  220.6860 H   0  0  0  0  0  0  0  0  0  0  0  0
  143.8273   76.0777  219.2344 H   0  0  0  0  0  0  0  0  0  0  0  0
  1  2  1  0
  2  3  1  0
  3  4  2  0
  3  5  1  0
  5  6  1  0
  6  7  2  0
  7  8  1  0
  8  9  2  0
  9 10  1  0
 10 11  2  0
  5 12  1  0
 12 13  1  0
 13 14  1  0
 14 15  1  0
 15 16  1  0
 16 17  2  0
 16 18  1  0
 18 19  1  0
 18 20  1  0
 20 21  1  0
 21 22  2  0
 22 23  1  0
 23 24  2  0
 24 25  1  0
 25 26  1  0
 26 27  2  0
 27 28  1  0
 28 29  2  0
 29 30  1  0
 30 31  2  0
 24 32  1  0
 32 33  2  0
 15 34  1  0
 34 35  1  0
 11  6  1  0
 35 12  1  0
 33 21  1  0
 31 26  1  0
  1 36  1  0
  1 37  1  0
  1 38  1  0
  2 39  1  0
  2 40  1  0
  7 41  1  0
  8 42  1  0
  9 43  1  0
 10 44  1  0
 11 45  1  0
 12 46  1  0
 13 47  1  0
 13 48  1  0
 14 49  1  0
 14 50  1  0
 18 51  1  6
 19 52  1  0
 19 53  1  0
 20 54  1  0
 20 55  1  0
 22 56  1  0
 23 57  1  0
 25 58  1  0
 25 59  1  0
 27 60  1  0
 28 61  1  0
 29 62  1  0
 30 63  1  0
 31 64  1  0
 32 65  1  0
 33 66  1  0
 34 67  1  0
 34 68  1  0
 35 69  1  0
 35 70  1  0
M  END
>  <smiles>  (19) 
CCC(=O)N(c1ccccc1)C1CCN(C(=O)[C@@H](N)Cc2ccc(Cc3ccccc3)cc2)CC1

>  <score_type>  (19) 
oracle

>  <origin>  (19) 
autodockgpu

>  <m_score__min__energy>  (19) 
-8.3699999999999992

>  <m_primary>  (19) 
energy

>  <rmsd>  (19) 
5.150954883139956

>  <m_score__min__rmsd>  (19) 
5.150954883139956

>  <meeko>  (19) 
{"free_energy": -6.91, "intermolecular_energy": -9.9, "internal_energy": -4.6, "cluster_size": 29, "cluster_id": 6, "rank_in_cluster": 8}

>  <energy>  (19) 
-7.61

>  <cluster_rmsd>  (19) 
0.1

>  <cluster>  (19) 
5

$$$$

     RDKit          3D

 70 73  0  0  0  0  0  0  0  0999 V2000
  146.2510   72.9970  221.5870 C   0  0  0  0  0  0  0  0  0  0  0  0
  145.8250   74.1840  220.6980 C   0  0  0  0  0  0  0  0  0  0  0  0
  145.0260   73.6330  219.5410 C   0  0  0  0  0  0  0  0  0  0  0  0
  145.5800   72.6320  218.9940 O   0  0  0  0  0  0  0  0  0  0  0  0
  143.7940   74.1930  219.1330 N   0  0  0  0  0  0  0  0  0  0  0  0
  143.6460   75.1920  218.1400 C   0  0  0  0  0  0  0  0  0  0  0  0
  142.9880   76.3880  218.4230 C   0  0  0  0  0  0  0  0  0  0  0  0
  142.8390   77.3840  217.4540 C   0  0  0  0  0  0  0  0  0  0  0  0
  143.3310   77.2420  216.1800 C   0  0  0  0  0  0  0  0  0  0  0  0
  143.9820   76.0680  215.8870 C   0  0  0  0  0  0  0  0  0  0  0  0
  144.1300   75.0700  216.8570 C   0  0  0  0  0  0  0  0  0  0  0  0
  142.6090   73.6670  219.8450 C   0  0  0  0  0  0  0  0  0  0  0  0
  141.5720   73.2720  218.8740 C   0  0  0  0  0  0  0  0  0  0  0  0
  140.6440   72.1540  219.3270 C   0  0  0  0  0  0  0  0  0  0  0  0
  140.6980   72.1700  220.7680 N   0  0  0  0  0  0  0  0  0  0  0  0
  139.7030   72.5590  221.6710 C   0  0  0  0  0  0  0  0  0  0  0  0
  140.0230   72.4790  222.9280 O   0  0  0  0  0  0  0  0  0  0  0  0
  138.3540   73.0430  221.4190 C   0  0  1  0  0  0  0  0  0  0  0  0
  137.4770   73.1080  222.5400 N   0  0  0  0  0  0  0  0  0  0  0  0
  138.3230   74.3120  220.5800 C   0  0  0  0  0  0  0  0  0  0  0  0
  139.1300   75.3940  221.2290 C   0  0  0  0  0  0  0  0  0  0  0  0
  140.4710   75.5160  220.9400 C   0  0  0  0  0  0  0  0  0  0  0  0
  141.2430   76.5050  221.5340 C   0  0  0  0  0  0  0  0  0  0  0  0
  140.5950   77.3620  222.4320 C   0  0  0  0  0  0  0  0  0  0  0  0
  141.4400   78.4220  223.0520 C   0  0  0  0  0  0  0  0  0  0  0  0
  141.4580   79.6660  222.2710 C   0  0  0  0  0  0  0  0  0  0  0  0
  141.5570   79.7510  220.9060 C   0  0  0  0  0  0  0  0  0  0  0  0
  141.5700   80.9740  220.2550 C   0  0  0  0  0  0  0  0  0  0  0  0
  141.4840   82.1700  220.9840 C   0  0  0  0  0  0  0  0  0  0  0  0
  141.3840   82.0790  222.3730 C   0  0  0  0  0  0  0  0  0  0  0  0
  141.3720   80.8590  222.9750 C   0  0  0  0  0  0  0  0  0  0  0  0
  139.2530   77.2410  222.7210 C   0  0  0  0  0  0  0  0  0  0  0  0
  138.4760   76.2400  222.1200 C   0  0  0  0  0  0  0  0  0  0  0  0
  142.0140   71.7180  221.3060 C   0  0  0  0  0  0  0  0  0  0  0  0
  143.0780   72.6980  220.8600 C   0  0  0  0  0  0  0  0  0  0  0  0
  146.1504   73.2773  222.6459 H   0  0  0  0  0  0  0  0  0  0  0  0
  145.6078   72.1303  221.3744 H   0  0  0  0  0  0  0  0  0  0  0  0
  147.2985   72.7371  221.3744 H   0  0  0  0  0  0  0  0  0  0  0  0
  145.2069   74.8838  221.2796 H   0  0  0  0  0  0  0  0  0  0  0  0
  146.7096   74.7246  220.3303 H   0  0  0  0  0  0  0  0  0  0  0  0
  142.5774   76.5512  219.4304 H   0  0  0  0  0  0  0  0  0  0  0  0
  142.3107   78.3113  217.7205 H   0  0  0  0  0  0  0  0  0  0  0  0
  143.2092   78.0340  215.4264 H   0  0  0  0  0  0  0  0  0  0  0  0
  144.3916   75.9107  214.8783 H   0  0  0  0  0  0  0  0  0  0  0  0
  144.6577   74.1450  216.5814 H   0  0  0  0  0  0  0  0  0  0  0  0
  142.0635   74.4128  220.4418 H   0  0  0  0  0  0  0  0  0  0  0  0
  140.9560   74.1571  218.6568 H   0  0  0  0  0  0  0  0  0  0  0  0
  142.1107   72.8818  217.9979 H   0  0  0  0  0  0  0  0  0  0  0  0
  139.6176   72.3412  218.9785 H   0  0  0  0  0  0  0  0  0  0  0  0
  140.9482   71.1794  218.9176 H   0  0  0  0  0  0  0  0  0  0  0  0
  137.9226   72.2323  220.8135 H   0  0  0  0  0  0  0  0  0  0  0  0
  137.8490   72.6060  223.3960 H   0  0  0  0  0  0  0  0  0  0  0  0
  137.4300   74.1240  222.8540 H   0  0  0  0  0  0  0  0  0  0  0  0
  138.7401   74.0976  219.5850 H   0  0  0  0  0  0  0  0  0  0  0  0
  137.2808   74.6524  220.4910 H   0  0  0  0  0  0  0  0  0  0  0  0
  140.9373   74.8193  220.2278 H   0  0  0  0  0  0  0  0  0  0  0  0
  142.3147   76.6106  221.3095 H   0  0  0  0  0  0  0  0  0  0  0  0
  141.0467   78.6427  224.0553 H   0  0  0  0  0  0  0  0  0  0  0  0
  142.4714   78.0416  223.0922 H   0  0  0  0  0  0  0  0  0  0  0  0
  141.6278   78.8266  220.3140 H   0  0  0  0  0  0  0  0  0  0  0  0
  141.6484   81.0077  219.1583 H   0  0  0  0  0  0  0  0  0  0  0  0
  141.4950   83.1464  220.4776 H   0  0  0  0  0  0  0  0  0  0  0  0
  141.3149   82.9932  222.9808 H   0  0  0  0  0  0  0  0  0  0  0  0
  141.2903   80.8161  224.0711 H   0  0  0  0  0  0  0  0  0  0  0  0
  138.7854   77.9382  223.4319 H   0  0  0  0  0  0  0  0  0  0  0  0
  137.4042   76.1291  222.3415 H   0  0  0  0  0  0  0  0  0  0  0  0
  141.9749   71.6876  222.4049 H   0  0  0  0  0  0  0  0  0  0  0  0
  142.2485   70.7109  220.9308 H   0  0  0  0  0  0  0  0  0  0  0  0
  143.4244   73.2586  221.7408 H   0  0  0  0  0  0  0  0  0  0  0  0
  143.8813   72.1088  220.3936 H   0  0  0  0  0  0  0  0  0  0  0  0
  1  2  1  0
  2  3  1  0
  3  4  2  0
  3  5  1  0
  5  6  1  0
  6  7  2  0
  7  8  1  0
  8  9  2  0
  9 10  1  0
 10 11  2  0
  5 12  1  0
 12 13  1  0
 13 14  1  0
 14 15  1  0
 15 16  1  0
 16 17  2  0
 16 18  1  0
 18 19  1  0
 18 20  1  0
 20 21  1  0
 21 22  2  0
 22 23  1  0
 23 24  2  0
 24 25  1  0
 25 26  1  0
 26 27  2  0
 27 28  1  0
 28 29  2  0
 29 30  1  0
 30 31  2  0
 24 32  1  0
 32 33  2  0
 15 34  1  0
 34 35  1  0
 11  6  1  0
 35 12  1  0
 33 21  1  0
 31 26  1  0
  1 36  1  0
  1 37  1  0
  1 38  1  0
  2 39  1  0
  2 40  1  0
  7 41  1  0
  8 42  1  0
  9 43  1  0
 10 44  1  0
 11 45  1  0
 12 46  1  0
 13 47  1  0
 13 48  1  0
 14 49  1  0
 14 50  1  0
 18 51  1  6
 19 52  1  0
 19 53  1  0
 20 54  1  0
 20 55  1  0
 22 56  1  0
 23 57  1  0
 25 58  1  0
 25 59  1  0
 27 60  1  0
 28 61  1  0
 29 62  1  0
 30 63  1  0
 31 64  1  0
 32 65  1  0
 33 66  1  0
 34 67  1  0
 34 68  1  0
 35 69  1  0
 35 70  1  0
M  END
>  <smiles>  (20) 
CCC(=O)N(c1ccccc1)C1CCN(C(=O)[C@@H](N)Cc2ccc(Cc3ccccc3)cc2)CC1

>  <score_type>  (20) 
oracle

>  <origin>  (20) 
autodockgpu

>  <m_score__min__energy>  (20) 
-8.3699999999999992

>  <m_primary>  (20) 
energy

>  <rmsd>  (20) 
6.439567264825892

>  <m_score__min__rmsd>  (20) 
6.439567264825892

>  <meeko>  (20) 
{"free_energy": -7.62, "intermolecular_energy": -10.61, "internal_energy": -3.6, "cluster_size": 3, "cluster_id": 5, "rank_in_cluster": 1}

>  <energy>  (20) 
-7.19

>  <cluster_rmsd>  (20) 
1.19

>  <cluster>  (20) 
5

$$$$

     RDKit          3D

 70 73  0  0  0  0  0  0  0  0999 V2000
  141.0090   77.7330  215.5350 C   0  0  0  0  0  0  0  0  0  0  0  0
  142.5510   77.7160  215.5770 C   0  0  0  0  0  0  0  0  0  0  0  0
  142.9710   77.2470  216.9500 C   0  0  0  0  0  0  0  0  0  0  0  0
  143.9580   76.4530  216.9170 O   0  0  0  0  0  0  0  0  0  0  0  0
  142.3160   77.6680  218.1300 N   0  0  0  0  0  0  0  0  0  0  0  0
  142.1540   79.0170  218.5310 C   0  0  0  0  0  0  0  0  0  0  0  0
  142.4330   80.0610  217.6500 C   0  0  0  0  0  0  0  0  0  0  0  0
  142.2740   81.3960  218.0310 C   0  0  0  0  0  0  0  0  0  0  0  0
  141.8350   81.7510  219.2820 C   0  0  0  0  0  0  0  0  0  0  0  0
  141.5570   80.7320  220.1610 C   0  0  0  0  0  0  0  0  0  0  0  0
  141.7170   79.3950  219.7800 C   0  0  0  0  0  0  0  0  0  0  0  0
  141.7970   76.5710  218.9750 C   0  0  0  0  0  0  0  0  0  0  0  0
  141.0430   75.6110  218.1460 C   0  0  0  0  0  0  0  0  0  0  0  0
  141.0300   74.1770  218.6540 C   0  0  0  0  0  0  0  0  0  0  0  0
  141.3010   74.2670  220.0670 N   0  0  0  0  0  0  0  0  0  0  0  0
  140.4300   74.0270  221.1360 C   0  0  0  0  0  0  0  0  0  0  0  0
  140.9380   74.1900  222.3210 O   0  0  0  0  0  0  0  0  0  0  0  0
  139.0330   73.6190  221.1250 C   0  0  1  0  0  0  0  0  0  0  0  0
  138.5110   73.0910  222.3420 N   0  0  0  0  0  0  0  0  0  0  0  0
  138.1140   74.6570  220.4980 C   0  0  0  0  0  0  0  0  0  0  0  0
  138.3180   75.9970  221.1360 C   0  0  0  0  0  0  0  0  0  0  0  0
  138.7020   77.0710  220.3660 C   0  0  0  0  0  0  0  0  0  0  0  0
  138.9060   78.3220  220.9330 C   0  0  0  0  0  0  0  0  0  0  0  0
  138.7010   78.4330  222.3140 C   0  0  0  0  0  0  0  0  0  0  0  0
  138.9170   79.7860  222.9020 C   0  0  0  0  0  0  0  0  0  0  0  0
  140.3360   80.0810  223.1440 C   0  0  0  0  0  0  0  0  0  0  0  0
  140.8540   81.3130  223.4490 C   0  0  0  0  0  0  0  0  0  0  0  0
  142.2120   81.4970  223.6560 C   0  0  0  0  0  0  0  0  0  0  0  0
  143.1000   80.4160  223.5560 C   0  0  0  0  0  0  0  0  0  0  0  0
  142.5680   79.1630  223.2440 C   0  0  0  0  0  0  0  0  0  0  0  0
  141.2290   79.0230  223.0490 C   0  0  0  0  0  0  0  0  0  0  0  0
  138.3160   77.3580  223.0860 C   0  0  0  0  0  0  0  0  0  0  0  0
  138.1120   76.0960  222.5090 C   0  0  0  0  0  0  0  0  0  0  0  0
  142.6990   74.6900  220.3670 C   0  0  0  0  0  0  0  0  0  0  0  0
  142.9020   76.0930  219.8360 C   0  0  0  0  0  0  0  0  0  0  0  0
  140.6143   77.7374  216.5617 H   0  0  0  0  0  0  0  0  0  0  0  0
  140.6665   78.6350  215.0067 H   0  0  0  0  0  0  0  0  0  0  0  0
  140.6467   76.8388  215.0067 H   0  0  0  0  0  0  0  0  0  0  0  0
  142.9385   77.0274  214.8117 H   0  0  0  0  0  0  0  0  0  0  0  0
  142.9517   78.7203  215.3751 H   0  0  0  0  0  0  0  0  0  0  0  0
  142.7855   79.8290  216.6342 H   0  0  0  0  0  0  0  0  0  0  0  0
  142.5083   82.1882  217.3047 H   0  0  0  0  0  0  0  0  0  0  0  0
  141.7111   82.8057  219.5686 H   0  0  0  0  0  0  0  0  0  0  0  0
  141.2047   80.9699  221.1755 H   0  0  0  0  0  0  0  0  0  0  0  0
  141.4824   78.6093  220.5133 H   0  0  0  0  0  0  0  0  0  0  0  0
  141.0269   76.8752  219.6992 H   0  0  0  0  0  0  0  0  0  0  0  0
  140.0012   75.9592  218.0868 H   0  0  0  0  0  0  0  0  0  0  0  0
  141.5565   75.5826  217.1736 H   0  0  0  0  0  0  0  0  0  0  0  0
  140.0465   73.7162  218.4797 H   0  0  0  0  0  0  0  0  0  0  0  0
  141.7725   73.5532  218.1348 H   0  0  0  0  0  0  0  0  0  0  0  0
  139.0482   72.7427  220.4603 H   0  0  0  0  0  0  0  0  0  0  0  0
  139.2290   73.0360  223.1200 H   0  0  0  0  0  0  0  0  0  0  0  0
  137.7980   73.7860  222.7150 H   0  0  0  0  0  0  0  0  0  0  0  0
  138.3335   74.7315  219.4227 H   0  0  0  0  0  0  0  0  0  0  0  0
  137.0703   74.3460  220.6530 H   0  0  0  0  0  0  0  0  0  0  0  0
  138.8497   76.9363  219.2843 H   0  0  0  0  0  0  0  0  0  0  0  0
  139.2143   79.1858  220.3257 H   0  0  0  0  0  0  0  0  0  0  0  0
  138.5146   80.5391  222.2085 H   0  0  0  0  0  0  0  0  0  0  0  0
  138.4028   79.8110  223.8741 H   0  0  0  0  0  0  0  0  0  0  0  0
  140.1762   82.1755  223.5314 H   0  0  0  0  0  0  0  0  0  0  0  0
  142.5962   82.4983  223.9005 H   0  0  0  0  0  0  0  0  0  0  0  0
  144.1797   80.5506  223.7179 H   0  0  0  0  0  0  0  0  0  0  0  0
  143.2312   78.2899  223.1560 H   0  0  0  0  0  0  0  0  0  0  0  0
  140.8360   78.0251  222.8047 H   0  0  0  0  0  0  0  0  0  0  0  0
  138.1669   77.4915  224.1676 H   0  0  0  0  0  0  0  0  0  0  0  0
  137.8047   75.2283  223.1112 H   0  0  0  0  0  0  0  0  0  0  0  0
  142.8650   74.6774  221.4543 H   0  0  0  0  0  0  0  0  0  0  0  0
  143.4114   74.0005  219.8905 H   0  0  0  0  0  0  0  0  0  0  0  0
  142.9960   76.7776  220.6918 H   0  0  0  0  0  0  0  0  0  0  0  0
  143.8081   76.0719  219.2126 H   0  0  0  0  0  0  0  0  0  0  0  0
  1  2  1  0
  2  3  1  0
  3  4  2  0
  3  5  1  0
  5  6  1  0
  6  7  2  0
  7  8  1  0
  8  9  2  0
  9 10  1  0
 10 11  2  0
  5 12  1  0
 12 13  1  0
 13 14  1  0
 14 15  1  0
 15 16  1  0
 16 17  2  0
 16 18  1  0
 18 19  1  0
 18 20  1  0
 20 21  1  0
 21 22  2  0
 22 23  1  0
 23 24  2  0
 24 25  1  0
 25 26  1  0
 26 27  2  0
 27 28  1  0
 28 29  2  0
 29 30  1  0
 30 31  2  0
 24 32  1  0
 32 33  2  0
 15 34  1  0
 34 35  1  0
 11  6  1  0
 35 12  1  0
 33 21  1  0
 31 26  1  0
  1 36  1  0
  1 37  1  0
  1 38  1  0
  2 39  1  0
  2 40  1  0
  7 41  1  0
  8 42  1  0
  9 43  1  0
 10 44  1  0
 11 45  1  0
 12 46  1  0
 13 47  1  0
 13 48  1  0
 14 49  1  0
 14 50  1  0
 18 51  1  6
 19 52  1  0
 19 53  1  0
 20 54  1  0
 20 55  1  0
 22 56  1  0
 23 57  1  0
 25 58  1  0
 25 59  1  0
 27 60  1  0
 28 61  1  0
 29 62  1  0
 30 63  1  0
 31 64  1  0
 32 65  1  0
 33 66  1  0
 34 67  1  0
 34 68  1  0
 35 69  1  0
 35 70  1  0
M  END
>  <smiles>  (21) 
CCC(=O)N(c1ccccc1)C1CCN(C(=O)[C@@H](N)Cc2ccc(Cc3ccccc3)cc2)CC1

>  <score_type>  (21) 
oracle

>  <origin>  (21) 
autodockgpu

>  <m_score__min__energy>  (21) 
-8.3699999999999992

>  <m_primary>  (21) 
energy

>  <rmsd>  (21) 
5.1139784492203875

>  <m_score__min__rmsd>  (21) 
5.1139784492203875

>  <meeko>  (21) 
{"free_energy": -6.92, "intermolecular_energy": -9.91, "internal_energy": -4.54, "cluster_size": 29, "cluster_id": 6, "rank_in_cluster": 7}

>  <energy>  (21) 
-7.05

>  <cluster_rmsd>  (21) 
0.0

>  <cluster>  (21) 
6

$$$$

     RDKit          3D

 70 73  0  0  0  0  0  0  0  0999 V2000
  143.3360   76.3630  219.6760 C   0  0  0  0  0  0  0  0  0  0  0  0
  141.9920   76.9200  219.1630 C   0  0  0  0  0  0  0  0  0  0  0  0
  141.8210   78.3110  219.7250 C   0  0  0  0  0  0  0  0  0  0  0  0
  142.3410   79.2040  218.9920 O   0  0  0  0  0  0  0  0  0  0  0  0
  141.1470   78.5600  220.9440 N   0  0  0  0  0  0  0  0  0  0  0  0
  141.5640   79.4930  221.9240 C   0  0  0  0  0  0  0  0  0  0  0  0
  141.3650   80.8600  221.7390 C   0  0  0  0  0  0  0  0  0  0  0  0
  141.7670   81.7910  222.7000 C   0  0  0  0  0  0  0  0  0  0  0  0
  142.3750   81.4140  223.8720 C   0  0  0  0  0  0  0  0  0  0  0  0
  142.5780   80.0690  224.0680 C   0  0  0  0  0  0  0  0  0  0  0  0
  142.1760   79.1370  223.1050 C   0  0  0  0  0  0  0  0  0  0  0  0
  139.9340   77.7430  221.1570 C   0  0  0  0  0  0  0  0  0  0  0  0
  140.2850   76.4920  221.8550 C   0  0  0  0  0  0  0  0  0  0  0  0
  139.1840   75.8930  222.7190 C   0  0  0  0  0  0  0  0  0  0  0  0
  137.9510   76.4200  222.1890 N   0  0  0  0  0  0  0  0  0  0  0  0
  136.9490   75.7440  221.4840 C   0  0  0  0  0  0  0  0  0  0  0  0
  135.9360   76.4700  221.1140 O   0  0  0  0  0  0  0  0  0  0  0  0
  136.8650   74.3440  221.0970 C   0  0  1  0  0  0  0  0  0  0  0  0
  135.8080   73.9860  220.2110 N   0  0  0  0  0  0  0  0  0  0  0  0
  138.2050   73.7610  220.6720 C   0  0  0  0  0  0  0  0  0  0  0  0
  138.6950   72.7710  221.6840 C   0  0  0  0  0  0  0  0  0  0  0  0
  137.7910   72.0900  222.4690 C   0  0  0  0  0  0  0  0  0  0  0  0
  138.2180   71.1740  223.4200 C   0  0  0  0  0  0  0  0  0  0  0  0
  139.6000   70.9790  223.5370 C   0  0  0  0  0  0  0  0  0  0  0  0
  140.0370   69.9840  224.5580 C   0  0  0  0  0  0  0  0  0  0  0  0
  140.3980   70.6060  225.8400 C   0  0  0  0  0  0  0  0  0  0  0  0
  141.1420   71.7470  225.9920 C   0  0  0  0  0  0  0  0  0  0  0  0
  141.4370   72.2580  227.2470 C   0  0  0  0  0  0  0  0  0  0  0  0
  140.9780   71.6110  228.4040 C   0  0  0  0  0  0  0  0  0  0  0  0
  140.2220   70.4490  228.2440 C   0  0  0  0  0  0  0  0  0  0  0  0
  139.9530   69.9800  226.9950 C   0  0  0  0  0  0  0  0  0  0  0  0
  140.5050   71.6590  222.7510 C   0  0  0  0  0  0  0  0  0  0  0  0
  140.0700   72.5860  221.7920 C   0  0  0  0  0  0  0  0  0  0  0  0
  137.7840   77.8800  222.4420 C   0  0  0  0  0  0  0  0  0  0  0  0
  138.8790   78.6240  221.7080 C   0  0  0  0  0  0  0  0  0  0  0  0
  143.3368   76.3626  220.7760 H   0  0  0  0  0  0  0  0  0  0  0  0
  143.4709   75.3349  219.3089 H   0  0  0  0  0  0  0  0  0  0  0  0
  144.1586   76.9943  219.3089 H   0  0  0  0  0  0  0  0  0  0  0  0
  141.9990   76.9593  218.0637 H   0  0  0  0  0  0  0  0  0  0  0  0
  141.1620   76.2729  219.4829 H   0  0  0  0  0  0  0  0  0  0  0  0
  140.8811   81.2135  220.8166 H   0  0  0  0  0  0  0  0  0  0  0  0
  141.5908   82.8603  222.5117 H   0  0  0  0  0  0  0  0  0  0  0  0
  142.6861   82.1565  224.6216 H   0  0  0  0  0  0  0  0  0  0  0  0
  143.0621   79.7212  224.9925 H   0  0  0  0  0  0  0  0  0  0  0  0
  142.3573   78.0698  223.3005 H   0  0  0  0  0  0  0  0  0  0  0  0
  139.4792   77.3495  220.2360 H   0  0  0  0  0  0  0  0  0  0  0  0
  140.5632   75.7466  221.0954 H   0  0  0  0  0  0  0  0  0  0  0  0
  141.1032   76.7495  222.5437 H   0  0  0  0  0  0  0  0  0  0  0  0
  139.1946   74.7953  222.6494 H   0  0  0  0  0  0  0  0  0  0  0  0
  139.3141   76.1472  223.7813 H   0  0  0  0  0  0  0  0  0  0  0  0
  136.5735   73.8574  222.0394 H   0  0  0  0  0  0  0  0  0  0  0  0
  134.9400   73.6350  220.7100 H   0  0  0  0  0  0  0  0  0  0  0  0
  135.4720   74.8760  219.7340 H   0  0  0  0  0  0  0  0  0  0  0  0
  138.0884   73.2575  219.7010 H   0  0  0  0  0  0  0  0  0  0  0  0
  138.9374   74.5778  220.5920 H   0  0  0  0  0  0  0  0  0  0  0  0
  136.7144   72.2750  222.3401 H   0  0  0  0  0  0  0  0  0  0  0  0
  137.5040   70.6264  224.0527 H   0  0  0  0  0  0  0  0  0  0  0  0
  139.2152   69.2735  224.7309 H   0  0  0  0  0  0  0  0  0  0  0  0
  140.9348   69.4817  224.1686 H   0  0  0  0  0  0  0  0  0  0  0  0
  141.5136   72.2693  225.0981 H   0  0  0  0  0  0  0  0  0  0  0  0
  142.0350   73.1770  227.3358 H   0  0  0  0  0  0  0  0  0  0  0  0
  141.2065   72.0067  229.4046 H   0  0  0  0  0  0  0  0  0  0  0  0
  139.8438   69.9125  229.1267 H   0  0  0  0  0  0  0  0  0  0  0  0
  139.3550   69.0620  226.8969 H   0  0  0  0  0  0  0  0  0  0  0  0
  141.5817   71.4726  222.8771 H   0  0  0  0  0  0  0  0  0  0  0  0
  140.7794   73.1382  221.1581 H   0  0  0  0  0  0  0  0  0  0  0  0
  136.8010   78.2100  222.0748 H   0  0  0  0  0  0  0  0  0  0  0  0
  137.8476   78.0848  223.5209 H   0  0  0  0  0  0  0  0  0  0  0  0
  138.4227   79.1808  220.8763 H   0  0  0  0  0  0  0  0  0  0  0  0
  139.3642   79.2853  222.4410 H   0  0  0  0  0  0  0  0  0  0  0  0
  1  2  1  0
  2  3  1  0
  3  4  2  0
  3  5  1  0
  5  6  1  0
  6  7  2  0
  7  8  1  0
  8  9  2  0
  9 10  1  0
 10 11  2  0
  5 12  1  0
 12 13  1  0
 13 14  1  0
 14 15  1  0
 15 16  1  0
 16 17  2  0
 16 18  1  0
 18 19  1  0
 18 20  1  0
 20 21  1  0
 21 22  2  0
 22 23  1  0
 23 24  2  0
 24 25  1  0
 25 26  1  0
 26 27  2  0
 27 28  1  0
 28 29  2  0
 29 30  1  0
 30 31  2  0
 24 32  1  0
 32 33  2  0
 15 34  1  0
 34 35  1  0
 11  6  1  0
 35 12  1  0
 33 21  1  0
 31 26  1  0
  1 36  1  0
  1 37  1  0
  1 38  1  0
  2 39  1  0
  2 40  1  0
  7 41  1  0
  8 42  1  0
  9 43  1  0
 10 44  1  0
 11 45  1  0
 12 46  1  0
 13 47  1  0
 13 48  1  0
 14 49  1  0
 14 50  1  0
 18 51  1  1
 19 52  1  0
 19 53  1  0
 20 54  1  0
 20 55  1  0
 22 56  1  0
 23 57  1  0
 25 58  1  0
 25 59  1  0
 27 60  1  0
 28 61  1  0
 29 62  1  0
 30 63  1  0
 31 64  1  0
 32 65  1  0
 33 66  1  0
 34 67  1  0
 34 68  1  0
 35 69  1  0
 35 70  1  0
M  END
>  <smiles>  (22) 
CCC(=O)N(c1ccccc1)C1CCN(C(=O)[C@@H](N)Cc2ccc(Cc3ccccc3)cc2)CC1

>  <score_type>  (22) 
oracle

>  <origin>  (22) 
autodockgpu

>  <m_score__min__energy>  (22) 
-8.3699999999999992

>  <m_primary>  (22) 
energy

>  <rmsd>  (22) 
4.958654600481127

>  <m_score__min__rmsd>  (22) 
4.958654600481127

>  <meeko>  (22) 
{"free_energy": -8.16, "intermolecular_energy": -11.15, "internal_energy": -3.0, "cluster_size": 13, "cluster_id": 2, "rank_in_cluster": 3}

>  <energy>  (22) 
-7.04

>  <cluster_rmsd>  (22) 
0.12

>  <cluster>  (22) 
6

$$$$

     RDKit          3D

 70 73  0  0  0  0  0  0  0  0999 V2000
  142.6510   77.7320  214.9240 C   0  0  0  0  0  0  0  0  0  0  0  0
  142.2280   78.6820  216.0630 C   0  0  0  0  0  0  0  0  0  0  0  0
  142.4770   77.9730  217.3730 C   0  0  0  0  0  0  0  0  0  0  0  0
  143.4440   77.1560  217.3140 O   0  0  0  0  0  0  0  0  0  0  0  0
  141.6990   78.2170  218.5290 N   0  0  0  0  0  0  0  0  0  0  0  0
  141.3450   79.5000  219.0120 C   0  0  0  0  0  0  0  0  0  0  0  0
  140.1040   80.0580  218.7100 C   0  0  0  0  0  0  0  0  0  0  0  0
  139.7390   81.3210  219.1830 C   0  0  0  0  0  0  0  0  0  0  0  0
  140.5750   82.0760  219.9680 C   0  0  0  0  0  0  0  0  0  0  0  0
  141.8030   81.5380  220.2730 C   0  0  0  0  0  0  0  0  0  0  0  0
  142.1680   80.2740  219.7980 C   0  0  0  0  0  0  0  0  0  0  0  0
  141.2680   77.0010  219.2520 C   0  0  0  0  0  0  0  0  0  0  0  0
  140.4990   76.1240  218.3490 C   0  0  0  0  0  0  0  0  0  0  0  0
  140.5650   74.6370  218.6680 C   0  0  0  0  0  0  0  0  0  0  0  0
  140.9150   74.5590  220.0640 N   0  0  0  0  0  0  0  0  0  0  0  0
  140.1170   74.1500  221.1380 C   0  0  0  0  0  0  0  0  0  0  0  0
  140.6880   74.1830  222.3060 O   0  0  0  0  0  0  0  0  0  0  0  0
  138.7370   73.6910  221.1510 C   0  0  1  0  0  0  0  0  0  0  0  0
  138.2820   73.0590  222.3450 N   0  0  0  0  0  0  0  0  0  0  0  0
  137.7560   74.7330  220.6330 C   0  0  0  0  0  0  0  0  0  0  0  0
  138.0880   76.0870  221.1820 C   0  0  0  0  0  0  0  0  0  0  0  0
  138.3450   76.2370  222.5260 C   0  0  0  0  0  0  0  0  0  0  0  0
  138.6470   77.4820  223.0620 C   0  0  0  0  0  0  0  0  0  0  0  0
  138.6770   78.5640  222.1740 C   0  0  0  0  0  0  0  0  0  0  0  0
  139.0120   79.8900  222.7670 C   0  0  0  0  0  0  0  0  0  0  0  0
  140.4510   80.0560  223.0160 C   0  0  0  0  0  0  0  0  0  0  0  0
  141.4150   79.1100  222.7840 C   0  0  0  0  0  0  0  0  0  0  0  0
  142.7520   79.3560  223.0550 C   0  0  0  0  0  0  0  0  0  0  0  0
  143.1560   80.5930  223.5800 C   0  0  0  0  0  0  0  0  0  0  0  0
  142.1700   81.5530  223.8150 C   0  0  0  0  0  0  0  0  0  0  0  0
  140.8680   81.2730  223.5350 C   0  0  0  0  0  0  0  0  0  0  0  0
  138.4210   78.4140  220.8280 C   0  0  0  0  0  0  0  0  0  0  0  0
  138.1150   77.1550  220.2900 C   0  0  0  0  0  0  0  0  0  0  0  0
  142.3130   74.9980  220.3400 C   0  0  0  0  0  0  0  0  0  0  0  0
  142.4370   76.4640  219.9840 C   0  0  0  0  0  0  0  0  0  0  0  0
  143.0631   76.8065  215.3525 H   0  0  0  0  0  0  0  0  0  0  0  0
  141.7753   77.4906  214.3036 H   0  0  0  0  0  0  0  0  0  0  0  0
  143.4163   78.2213  214.3036 H   0  0  0  0  0  0  0  0  0  0  0  0
  142.8224   79.6065  216.0192 H   0  0  0  0  0  0  0  0  0  0  0  0
  141.1650   78.9478  215.9664 H   0  0  0  0  0  0  0  0  0  0  0  0
  139.3968   79.4919  218.0859 H   0  0  0  0  0  0  0  0  0  0  0  0
  138.7501   81.7234  218.9180 H   0  0  0  0  0  0  0  0  0  0  0  0
  140.2754   83.0681  220.3368 H   0  0  0  0  0  0  0  0  0  0  0  0
  142.5064   82.1081  220.8977 H   0  0  0  0  0  0  0  0  0  0  0  0
  143.1596   79.8800  220.0653 H   0  0  0  0  0  0  0  0  0  0  0  0
  140.5316   77.1787  220.0496 H   0  0  0  0  0  0  0  0  0  0  0  0
  139.4444   76.4336  218.3925 H   0  0  0  0  0  0  0  0  0  0  0  0
  140.9541   76.2404  217.3543 H   0  0  0  0  0  0  0  0  0  0  0  0
  139.5894   74.1615  218.4889 H   0  0  0  0  0  0  0  0  0  0  0  0
  141.2965   74.1151  218.0336 H   0  0  0  0  0  0  0  0  0  0  0  0
  138.7591   72.8641  220.4259 H   0  0  0  0  0  0  0  0  0  0  0  0
  139.0350   72.9690  223.0870 H   0  0  0  0  0  0  0  0  0  0  0  0
  137.5680   73.7040  222.7990 H   0  0  0  0  0  0  0  0  0  0  0  0
  137.8088   74.7651  219.5347 H   0  0  0  0  0  0  0  0  0  0  0  0
  136.7414   74.4575  220.9567 H   0  0  0  0  0  0  0  0  0  0  0  0
  138.3106   75.3573  223.1855 H   0  0  0  0  0  0  0  0  0  0  0  0
  138.8531   77.6121  224.1347 H   0  0  0  0  0  0  0  0  0  0  0  0
  138.6821   80.6782  222.0742 H   0  0  0  0  0  0  0  0  0  0  0  0
  138.4982   79.9579  223.7373 H   0  0  0  0  0  0  0  0  0  0  0  0
  141.1210   78.1328  222.3732 H   0  0  0  0  0  0  0  0  0  0  0  0
  143.5017   78.5758  222.8570 H   0  0  0  0  0  0  0  0  0  0  0  0
  144.2140   80.7994  223.7990 H   0  0  0  0  0  0  0  0  0  0  0  0
  142.4454   82.5353  224.2263 H   0  0  0  0  0  0  0  0  0  0  0  0
  140.1113   82.0474  223.7292 H   0  0  0  0  0  0  0  0  0  0  0  0
  138.4571   79.2927  220.1672 H   0  0  0  0  0  0  0  0  0  0  0  0
  137.9071   77.0190  219.2184 H   0  0  0  0  0  0  0  0  0  0  0  0
  142.5430   74.8546  221.4061 H   0  0  0  0  0  0  0  0  0  0  0  0
  143.0190   74.4043  219.7407 H   0  0  0  0  0  0  0  0  0  0  0  0
  142.5573   77.0381  220.9146 H   0  0  0  0  0  0  0  0  0  0  0  0
  143.3055   76.5595  219.3157 H   0  0  0  0  0  0  0  0  0  0  0  0
  1  2  1  0
  2  3  1  0
  3  4  2  0
  3  5  1  0
  5  6  1  0
  6  7  2  0
  7  8  1  0
  8  9  2  0
  9 10  1  0
 10 11  2  0
  5 12  1  0
 12 13  1  0
 13 14  1  0
 14 15  1  0
 15 16  1  0
 16 17  2  0
 16 18  1  0
 18 19  1  0
 18 20  1  0
 20 21  1  0
 21 22  2  0
 22 23  1  0
 23 24  2  0
 24 25  1  0
 25 26  1  0
 26 27  2  0
 27 28  1  0
 28 29  2  0
 29 30  1  0
 30 31  2  0
 24 32  1  0
 32 33  2  0
 15 34  1  0
 34 35  1  0
 11  6  1  0
 35 12  1  0
 33 21  1  0
 31 26  1  0
  1 36  1  0
  1 37  1  0
  1 38  1  0
  2 39  1  0
  2 40  1  0
  7 41  1  0
  8 42  1  0
  9 43  1  0
 10 44  1  0
 11 45  1  0
 12 46  1  0
 13 47  1  0
 13 48  1  0
 14 49  1  0
 14 50  1  0
 18 51  1  6
 19 52  1  0
 19 53  1  0
 20 54  1  0
 20 55  1  0
 22 56  1  0
 23 57  1  0
 25 58  1  0
 25 59  1  0
 27 60  1  0
 28 61  1  0
 29 62  1  0
 30 63  1  0
 31 64  1  0
 32 65  1  0
 33 66  1  0
 34 67  1  0
 34 68  1  0
 35 69  1  0
 35 70  1  0
M  END
>  <smiles>  (23) 
CCC(=O)N(c1ccccc1)C1CCN(C(=O)[C@@H](N)Cc2ccc(Cc3ccccc3)cc2)CC1

>  <score_type>  (23) 
oracle

>  <origin>  (23) 
autodockgpu

>  <m_score__min__energy>  (23) 
-8.3699999999999992

>  <m_primary>  (23) 
energy

>  <rmsd>  (23) 
5.004263185958897

>  <m_score__min__rmsd>  (23) 
5.004263185958897

>  <meeko>  (23) 
{"free_energy": -6.27, "intermolecular_energy": -9.26, "internal_energy": -5.08, "cluster_size": 29, "cluster_id": 6, "rank_in_cluster": 17}

>  <energy>  (23) 
-7.03

>  <cluster_rmsd>  (23) 
0.08

>  <cluster>  (23) 
6

$$$$

     RDKit          3D

 70 73  0  0  0  0  0  0  0  0999 V2000
  142.9210   77.3280  217.6920 C   0  0  0  0  0  0  0  0  0  0  0  0
  141.6090   78.0970  217.9520 C   0  0  0  0  0  0  0  0  0  0  0  0
  141.8640   79.0860  219.0640 C   0  0  0  0  0  0  0  0  0  0  0  0
  142.4520   80.1350  218.6630 O   0  0  0  0  0  0  0  0  0  0  0  0
  141.4770   78.8420  220.4020 N   0  0  0  0  0  0  0  0  0  0  0  0
  141.7040   79.7250  221.4850 C   0  0  0  0  0  0  0  0  0  0  0  0
  142.5240   79.3510  222.5500 C   0  0  0  0  0  0  0  0  0  0  0  0
  142.7610   80.2140  223.6230 C   0  0  0  0  0  0  0  0  0  0  0  0
  142.2050   81.4680  223.6890 C   0  0  0  0  0  0  0  0  0  0  0  0
  141.3950   81.8480  222.6460 C   0  0  0  0  0  0  0  0  0  0  0  0
  141.1570   80.9840  221.5720 C   0  0  0  0  0  0  0  0  0  0  0  0
  140.8030   77.5440  220.6240 C   0  0  0  0  0  0  0  0  0  0  0  0
  141.8070   76.4720  220.7590 C   0  0  0  0  0  0  0  0  0  0  0  0
  141.3880   75.2880  221.6170 C   0  0  0  0  0  0  0  0  0  0  0  0
  139.9460   75.3000  221.6110 N   0  0  0  0  0  0  0  0  0  0  0  0
  139.0710   74.4020  220.9910 C   0  0  0  0  0  0  0  0  0  0  0  0
  137.8050   74.6550  221.1430 O   0  0  0  0  0  0  0  0  0  0  0  0
  139.3620   73.2190  220.1950 C   0  0  1  0  0  0  0  0  0  0  0  0
  139.5940   73.4230  218.8040 N   0  0  0  0  0  0  0  0  0  0  0  0
  140.4030   72.3120  220.8330 C   0  0  0  0  0  0  0  0  0  0  0  0
  139.8170   71.5720  221.9970 C   0  0  0  0  0  0  0  0  0  0  0  0
  140.3230   71.7740  223.2610 C   0  0  0  0  0  0  0  0  0  0  0  0
  139.8030   71.0960  224.3560 C   0  0  0  0  0  0  0  0  0  0  0  0
  138.7500   70.2070  224.1100 C   0  0  0  0  0  0  0  0  0  0  0  0
  138.2010   69.4960  225.2990 C   0  0  0  0  0  0  0  0  0  0  0  0
  139.2520   68.9770  226.1870 C   0  0  0  0  0  0  0  0  0  0  0  0
  140.0360   67.8820  225.9390 C   0  0  0  0  0  0  0  0  0  0  0  0
  141.0030   67.4630  226.8410 C   0  0  0  0  0  0  0  0  0  0  0  0
  141.2020   68.1570  228.0440 C   0  0  0  0  0  0  0  0  0  0  0  0
  140.3990   69.2720  228.2920 C   0  0  0  0  0  0  0  0  0  0  0  0
  139.4630   69.6520  227.3810 C   0  0  0  0  0  0  0  0  0  0  0  0
  138.2430   70.0050  222.8440 C   0  0  0  0  0  0  0  0  0  0  0  0
  138.7710   70.6910  221.7410 C   0  0  0  0  0  0  0  0  0  0  0  0
  139.3700   76.4500  222.3670 C   0  0  0  0  0  0  0  0  0  0  0  0
  139.7790   77.7330  221.6750 C   0  0  0  0  0  0  0  0  0  0  0  0
  143.3836   77.0569  218.6525 H   0  0  0  0  0  0  0  0  0  0  0  0
  142.7033   76.4146  217.1191 H   0  0  0  0  0  0  0  0  0  0  0  0
  143.6116   77.9643  217.1191 H   0  0  0  0  0  0  0  0  0  0  0  0
  141.3014   78.6304  217.0405 H   0  0  0  0  0  0  0  0  0  0  0  0
  140.8060   77.4005  218.2350 H   0  0  0  0  0  0  0  0  0  0  0  0
  142.9936   78.3563  222.5448 H   0  0  0  0  0  0  0  0  0  0  0  0
  143.4143   79.8780  224.4417 H   0  0  0  0  0  0  0  0  0  0  0  0
  142.3994   82.1385  224.5391 H   0  0  0  0  0  0  0  0  0  0  0  0
  140.9280   82.8439  222.6558 H   0  0  0  0  0  0  0  0  0  0  0  0
  140.5013   81.3277  220.7584 H   0  0  0  0  0  0  0  0  0  0  0  0
  140.2188   77.1779  219.7668 H   0  0  0  0  0  0  0  0  0  0  0  0
  142.0387   76.0956  219.7517 H   0  0  0  0  0  0  0  0  0  0  0  0
  142.6680   76.9267  221.2708 H   0  0  0  0  0  0  0  0  0  0  0  0
  141.7666   74.3487  221.1875 H   0  0  0  0  0  0  0  0  0  0  0  0
  141.7928   75.3595  222.6373 H   0  0  0  0  0  0  0  0  0  0  0  0
  138.4006   72.6847  220.2095 H   0  0  0  0  0  0  0  0  0  0  0  0
  139.2650   72.6170  218.1990 H   0  0  0  0  0  0  0  0  0  0  0  0
  138.9770   74.2320  218.4900 H   0  0  0  0  0  0  0  0  0  0  0  0
  140.7575   71.5871  220.0854 H   0  0  0  0  0  0  0  0  0  0  0  0
  141.2396   72.9300  221.1910 H   0  0  0  0  0  0  0  0  0  0  0  0
  141.1515   72.4829  223.4061 H   0  0  0  0  0  0  0  0  0  0  0  0
  140.2004   71.2505  225.3700 H   0  0  0  0  0  0  0  0  0  0  0  0
  137.5735   70.1969  225.8691 H   0  0  0  0  0  0  0  0  0  0  0  0
  137.6217   68.6356  224.9326 H   0  0  0  0  0  0  0  0  0  0  0  0
  139.8957   67.3217  225.0028 H   0  0  0  0  0  0  0  0  0  0  0  0
  141.6181   66.5804  226.6115 H   0  0  0  0  0  0  0  0  0  0  0  0
  141.9649   67.8336  228.7674 H   0  0  0  0  0  0  0  0  0  0  0  0
  140.5233   69.8431  229.2239 H   0  0  0  0  0  0  0  0  0  0  0  0
  138.8449   70.5350  227.6009 H   0  0  0  0  0  0  0  0  0  0  0  0
  137.4140   69.2969  222.6974 H   0  0  0  0  0  0  0  0  0  0  0  0
  138.3781   70.5403  220.7247 H   0  0  0  0  0  0  0  0  0  0  0  0
  138.2730   76.3709  222.3838 H   0  0  0  0  0  0  0  0  0  0  0  0
  139.7422   76.4449  223.4021 H   0  0  0  0  0  0  0  0  0  0  0  0
  138.8855   78.1778  221.2127 H   0  0  0  0  0  0  0  0  0  0  0  0
  140.2238   78.3834  222.4426 H   0  0  0  0  0  0  0  0  0  0  0  0
  1  2  1  0
  2  3  1  0
  3  4  2  0
  3  5  1  0
  5  6  1  0
  6  7  2  0
  7  8  1  0
  8  9  2  0
  9 10  1  0
 10 11  2  0
  5 12  1  0
 12 13  1  0
 13 14  1  0
 14 15  1  0
 15 16  1  0
 16 17  2  0
 16 18  1  0
 18 19  1  0
 18 20  1  0
 20 21  1  0
 21 22  2  0
 22 23  1  0
 23 24  2  0
 24 25  1  0
 25 26  1  0
 26 27  2  0
 27 28  1  0
 28 29  2  0
 29 30  1  0
 30 31  2  0
 24 32  1  0
 32 33  2  0
 15 34  1  0
 34 35  1  0
 11  6  1  0
 35 12  1  0
 33 21  1  0
 31 26  1  0
  1 36  1  0
  1 37  1  0
  1 38  1  0
  2 39  1  0
  2 40  1  0
  7 41  1  0
  8 42  1  0
  9 43  1  0
 10 44  1  0
 11 45  1  0
 12 46  1  0
 13 47  1  0
 13 48  1  0
 14 49  1  0
 14 50  1  0
 18 51  1  6
 19 52  1  0
 19 53  1  0
 20 54  1  0
 20 55  1  0
 22 56  1  0
 23 57  1  0
 25 58  1  0
 25 59  1  0
 27 60  1  0
 28 61  1  0
 29 62  1  0
 30 63  1  0
 31 64  1  0
 32 65  1  0
 33 66  1  0
 34 67  1  0
 34 68  1  0
 35 69  1  0
 35 70  1  0
M  END
>  <smiles>  (24) 
CCC(=O)N(c1ccccc1)C1CCN(C(=O)[C@@H](N)Cc2ccc(Cc3ccccc3)cc2)CC1

>  <score_type>  (24) 
oracle

>  <origin>  (24) 
autodockgpu

>  <m_score__min__energy>  (24) 
-8.3699999999999992

>  <m_primary>  (24) 
energy

>  <rmsd>  (24) 
5.067214908565269

>  <m_score__min__rmsd>  (24) 
5.067214908565269

>  <meeko>  (24) 
{"free_energy": -8.04, "intermolecular_energy": -11.02, "internal_energy": -2.29, "cluster_size": 13, "cluster_id": 2, "rank_in_cluster": 8}

>  <energy>  (24) 
-7.01

>  <cluster_rmsd>  (24) 
0.23

>  <cluster>  (24) 
6

$$$$

     RDKit          3D

 70 73  0  0  0  0  0  0  0  0999 V2000
  143.7030   77.0150  214.4860 C   0  0  0  0  0  0  0  0  0  0  0  0
  142.5730   77.4480  215.4440 C   0  0  0  0  0  0  0  0  0  0  0  0
  142.9800   77.0600  216.8460 C   0  0  0  0  0  0  0  0  0  0  0  0
  143.9730   76.2730  216.8690 O   0  0  0  0  0  0  0  0  0  0  0  0
  142.3070   77.5410  217.9930 N   0  0  0  0  0  0  0  0  0  0  0  0
  142.1420   78.9080  218.3230 C   0  0  0  0  0  0  0  0  0  0  0  0
  141.7100   79.2890  219.5920 C   0  0  0  0  0  0  0  0  0  0  0  0
  141.5470   80.6340  219.9330 C   0  0  0  0  0  0  0  0  0  0  0  0
  141.8040   81.6480  219.0440 C   0  0  0  0  0  0  0  0  0  0  0  0
  142.2300   81.2870  217.7880 C   0  0  0  0  0  0  0  0  0  0  0  0
  142.3920   79.9400  217.4470 C   0  0  0  0  0  0  0  0  0  0  0  0
  141.7720   76.4880  218.8820 C   0  0  0  0  0  0  0  0  0  0  0  0
  141.0470   75.4780  218.0880 C   0  0  0  0  0  0  0  0  0  0  0  0
  141.0300   74.0740  218.6740 C   0  0  0  0  0  0  0  0  0  0  0  0
  141.2600   74.2450  220.0870 N   0  0  0  0  0  0  0  0  0  0  0  0
  140.3610   74.0570  221.1430 C   0  0  0  0  0  0  0  0  0  0  0  0
  140.8340   74.2900  222.3310 O   0  0  0  0  0  0  0  0  0  0  0  0
  138.9680   73.6390  221.1170 C   0  0  1  0  0  0  0  0  0  0  0  0
  138.4520   73.0520  222.3100 N   0  0  0  0  0  0  0  0  0  0  0  0
  138.0390   74.6950  220.5370 C   0  0  0  0  0  0  0  0  0  0  0  0
  138.3380   76.0400  221.1250 C   0  0  0  0  0  0  0  0  0  0  0  0
  138.2380   76.2310  222.4850 C   0  0  0  0  0  0  0  0  0  0  0  0
  138.5010   77.4690  223.0550 C   0  0  0  0  0  0  0  0  0  0  0  0
  138.8710   78.5020  222.1850 C   0  0  0  0  0  0  0  0  0  0  0  0
  139.1580   79.8210  222.8180 C   0  0  0  0  0  0  0  0  0  0  0  0
  140.5860   80.0170  223.1020 C   0  0  0  0  0  0  0  0  0  0  0  0
  141.5910   79.1410  222.7840 C   0  0  0  0  0  0  0  0  0  0  0  0
  142.9140   79.4110  223.0980 C   0  0  0  0  0  0  0  0  0  0  0  0
  143.2610   80.6000  223.7570 C   0  0  0  0  0  0  0  0  0  0  0  0
  142.2340   81.4890  224.0790 C   0  0  0  0  0  0  0  0  0  0  0  0
  140.9470   81.1880  223.7530 C   0  0  0  0  0  0  0  0  0  0  0  0
  138.9720   78.3110  220.8240 C   0  0  0  0  0  0  0  0  0  0  0  0
  138.7040   77.0590  220.2510 C   0  0  0  0  0  0  0  0  0  0  0  0
  142.6470   74.6950  220.4020 C   0  0  0  0  0  0  0  0  0  0  0  0
  142.8550   76.0680  219.7990 C   0  0  0  0  0  0  0  0  0  0  0  0
  144.5726   76.6818  215.0715 H   0  0  0  0  0  0  0  0  0  0  0  0
  143.3495   76.1886  213.8518 H   0  0  0  0  0  0  0  0  0  0  0  0
  143.9923   77.8660  213.8518 H   0  0  0  0  0  0  0  0  0  0  0  0
  142.4289   78.5369  215.3843 H   0  0  0  0  0  0  0  0  0  0  0  0
  141.6279   76.9568  215.1692 H   0  0  0  0  0  0  0  0  0  0  0  0
  141.4926   78.5138  220.3415 H   0  0  0  0  0  0  0  0  0  0  0  0
  141.2018   80.8885  220.9459 H   0  0  0  0  0  0  0  0  0  0  0  0
  141.6746   82.7037  219.3247 H   0  0  0  0  0  0  0  0  0  0  0  0
  142.4460   82.0663  217.0423 H   0  0  0  0  0  0  0  0  0  0  0  0
  142.7352   79.6940  216.4313 H   0  0  0  0  0  0  0  0  0  0  0  0
  140.9795   76.8251  219.5663 H   0  0  0  0  0  0  0  0  0  0  0  0
  140.0049   75.8139  217.9823 H   0  0  0  0  0  0  0  0  0  0  0  0
  141.5864   75.4003  217.1325 H   0  0  0  0  0  0  0  0  0  0  0  0
  140.0553   73.5955  218.4980 H   0  0  0  0  0  0  0  0  0  0  0  0
  141.7912   73.4288  218.2112 H   0  0  0  0  0  0  0  0  0  0  0  0
  138.9900   72.7928  220.4145 H   0  0  0  0  0  0  0  0  0  0  0  0
  139.1660   72.9920  223.0920 H   0  0  0  0  0  0  0  0  0  0  0  0
  137.7160   73.7130  222.7010 H   0  0  0  0  0  0  0  0  0  0  0  0
  138.1769   74.7383  219.4465 H   0  0  0  0  0  0  0  0  0  0  0  0
  137.0003   74.4251  220.7786 H   0  0  0  0  0  0  0  0  0  0  0  0
  137.9451   75.3893  223.1298 H   0  0  0  0  0  0  0  0  0  0  0  0
  138.4224   77.6312  224.1401 H   0  0  0  0  0  0  0  0  0  0  0  0
  138.8222   80.6178  222.1380 H   0  0  0  0  0  0  0  0  0  0  0  0
  138.6220   79.8515  223.7781 H   0  0  0  0  0  0  0  0  0  0  0  0
  141.3421   78.2021  222.2677 H   0  0  0  0  0  0  0  0  0  0  0  0
  143.6976   78.6876  222.8285 H   0  0  0  0  0  0  0  0  0  0  0  0
  144.3074   80.8242  224.0115 H   0  0  0  0  0  0  0  0  0  0  0  0
  142.4645   82.4322  224.5959 H   0  0  0  0  0  0  0  0  0  0  0  0
  140.1569   81.9061  224.0178 H   0  0  0  0  0  0  0  0  0  0  0  0
  139.2667   79.1514  220.1784 H   0  0  0  0  0  0  0  0  0  0  0  0
  138.7793   76.8914  219.1665 H   0  0  0  0  0  0  0  0  0  0  0  0
  142.7825   74.7442  221.4925 H   0  0  0  0  0  0  0  0  0  0  0  0
  143.3772   73.9857  219.9852 H   0  0  0  0  0  0  0  0  0  0  0  0
  142.9198   76.8000  220.6175 H   0  0  0  0  0  0  0  0  0  0  0  0
  143.7784   76.0197  219.2033 H   0  0  0  0  0  0  0  0  0  0  0  0
  1  2  1  0
  2  3  1  0
  3  4  2  0
  3  5  1  0
  5  6  1  0
  6  7  2  0
  7  8  1  0
  8  9  2  0
  9 10  1  0
 10 11  2  0
  5 12  1  0
 12 13  1  0
 13 14  1  0
 14 15  1  0
 15 16  1  0
 16 17  2  0
 16 18  1  0
 18 19  1  0
 18 20  1  0
 20 21  1  0
 21 22  2  0
 22 23  1  0
 23 24  2  0
 24 25  1  0
 25 26  1  0
 26 27  2  0
 27 28  1  0
 28 29  2  0
 29 30  1  0
 30 31  2  0
 24 32  1  0
 32 33  2  0
 15 34  1  0
 34 35  1  0
 11  6  1  0
 35 12  1  0
 33 21  1  0
 31 26  1  0
  1 36  1  0
  1 37  1  0
  1 38  1  0
  2 39  1  0
  2 40  1  0
  7 41  1  0
  8 42  1  0
  9 43  1  0
 10 44  1  0
 11 45  1  0
 12 46  1  0
 13 47  1  0
 13 48  1  0
 14 49  1  0
 14 50  1  0
 18 51  1  6
 19 52  1  0
 19 53  1  0
 20 54  1  0
 20 55  1  0
 22 56  1  0
 23 57  1  0
 25 58  1  0
 25 59  1  0
 27 60  1  0
 28 61  1  0
 29 62  1  0
 30 63  1  0
 31 64  1  0
 32 65  1  0
 33 66  1  0
 34 67  1  0
 34 68  1  0
 35 69  1  0
 35 70  1  0
M  END
>  <smiles>  (25) 
CCC(=O)N(c1ccccc1)C1CCN(C(=O)[C@@H](N)Cc2ccc(Cc3ccccc3)cc2)CC1

>  <score_type>  (25) 
oracle

>  <origin>  (25) 
autodockgpu

>  <m_score__min__energy>  (25) 
-8.3699999999999992

>  <m_primary>  (25) 
energy

>  <rmsd>  (25) 
5.177960160546133

>  <m_score__min__rmsd>  (25) 
5.177960160546133

>  <meeko>  (25) 
{"free_energy": -7.01, "intermolecular_energy": -9.99, "internal_energy": -4.39, "cluster_size": 29, "cluster_id": 6, "rank_in_cluster": 4}

>  <energy>  (25) 
-7.01

>  <cluster_rmsd>  (25) 
0.13

>  <cluster>  (25) 
6

$$$$

     RDKit          3D

 70 73  0  0  0  0  0  0  0  0999 V2000
  141.0390   77.7580  215.5670 C   0  0  0  0  0  0  0  0  0  0  0  0
  142.5780   77.6750  215.6150 C   0  0  0  0  0  0  0  0  0  0  0  0
  142.9750   77.2070  216.9950 C   0  0  0  0  0  0  0  0  0  0  0  0
  143.9600   76.4100  216.9790 O   0  0  0  0  0  0  0  0  0  0  0  0
  142.3010   77.6300  218.1640 N   0  0  0  0  0  0  0  0  0  0  0  0
  142.1310   78.9790  218.5580 C   0  0  0  0  0  0  0  0  0  0  0  0
  142.5680   80.0210  217.7410 C   0  0  0  0  0  0  0  0  0  0  0  0
  142.4030   81.3580  218.1160 C   0  0  0  0  0  0  0  0  0  0  0  0
  141.8050   81.7160  219.2980 C   0  0  0  0  0  0  0  0  0  0  0  0
  141.3690   80.6990  220.1130 C   0  0  0  0  0  0  0  0  0  0  0  0
  141.5360   79.3610  219.7390 C   0  0  0  0  0  0  0  0  0  0  0  0
  141.7710   76.5340  219.0030 C   0  0  0  0  0  0  0  0  0  0  0  0
  141.0140   75.5810  218.1690 C   0  0  0  0  0  0  0  0  0  0  0  0
  140.9900   74.1460  218.6730 C   0  0  0  0  0  0  0  0  0  0  0  0
  141.2540   74.2310  220.0880 N   0  0  0  0  0  0  0  0  0  0  0  0
  140.3770   73.9940  221.1520 C   0  0  0  0  0  0  0  0  0  0  0  0
  140.8800   74.1520  222.3400 O   0  0  0  0  0  0  0  0  0  0  0  0
  138.9770   73.5960  221.1340 C   0  0  1  0  0  0  0  0  0  0  0  0
  138.4430   73.0800  222.3500 N   0  0  0  0  0  0  0  0  0  0  0  0
  138.0700   74.6360  220.4930 C   0  0  0  0  0  0  0  0  0  0  0  0
  138.2920   75.9830  221.1110 C   0  0  0  0  0  0  0  0  0  0  0  0
  138.2470   76.1240  222.4800 C   0  0  0  0  0  0  0  0  0  0  0  0
  138.4410   77.3620  223.0780 C   0  0  0  0  0  0  0  0  0  0  0  0
  138.6830   78.4460  222.2260 C   0  0  0  0  0  0  0  0  0  0  0  0
  138.8970   79.7640  222.8890 C   0  0  0  0  0  0  0  0  0  0  0  0
  140.3170   80.0560  223.1300 C   0  0  0  0  0  0  0  0  0  0  0  0
  140.8320   81.2760  223.4860 C   0  0  0  0  0  0  0  0  0  0  0  0
  142.1910   81.4580  223.6880 C   0  0  0  0  0  0  0  0  0  0  0  0
  143.0840   80.3870  223.5300 C   0  0  0  0  0  0  0  0  0  0  0  0
  142.5550   79.1470  223.1670 C   0  0  0  0  0  0  0  0  0  0  0  0
  141.2140   79.0080  222.9790 C   0  0  0  0  0  0  0  0  0  0  0  0
  138.7280   78.3060  220.8560 C   0  0  0  0  0  0  0  0  0  0  0  0
  138.5310   77.0530  220.2550 C   0  0  0  0  0  0  0  0  0  0  0  0
  142.6540   74.6450  220.3950 C   0  0  0  0  0  0  0  0  0  0  0  0
  142.8680   76.0470  219.8680 C   0  0  0  0  0  0  0  0  0  0  0  0
  140.6408   77.7795  216.5922 H   0  0  0  0  0  0  0  0  0  0  0  0
  140.7375   78.6737  215.0373 H   0  0  0  0  0  0  0  0  0  0  0  0
  140.6408   76.8800  215.0373 H   0  0  0  0  0  0  0  0  0  0  0  0
  142.9374   76.9601  214.8602 H   0  0  0  0  0  0  0  0  0  0  0  0
  143.0215   78.6588  215.4018 H   0  0  0  0  0  0  0  0  0  0  0  0
  143.0525   79.7865  216.7817 H   0  0  0  0  0  0  0  0  0  0  0  0
  142.7643   82.1483  217.4416 H   0  0  0  0  0  0  0  0  0  0  0  0
  141.6800   82.7716  219.5810 H   0  0  0  0  0  0  0  0  0  0  0  0
  140.8833   80.9395  221.0702 H   0  0  0  0  0  0  0  0  0  0  0  0
  141.1747   78.5773  220.4211 H   0  0  0  0  0  0  0  0  0  0  0  0
  140.9991   76.8415  219.7238 H   0  0  0  0  0  0  0  0  0  0  0  0
  139.9747   75.9360  218.1070 H   0  0  0  0  0  0  0  0  0  0  0  0
  141.5309   75.5519  217.1985 H   0  0  0  0  0  0  0  0  0  0  0  0
  140.0048   73.6913  218.4922 H   0  0  0  0  0  0  0  0  0  0  0  0
  141.7316   73.5191  218.1561 H   0  0  0  0  0  0  0  0  0  0  0  0
  138.9905   72.7150  220.4755 H   0  0  0  0  0  0  0  0  0  0  0  0
  139.1620   72.9970  223.1250 H   0  0  0  0  0  0  0  0  0  0  0  0
  137.7550   73.7980  222.7300 H   0  0  0  0  0  0  0  0  0  0  0  0
  138.2886   74.6919  219.4164 H   0  0  0  0  0  0  0  0  0  0  0  0
  137.0228   74.3404  220.6541 H   0  0  0  0  0  0  0  0  0  0  0  0
  138.0544   75.2426  223.1093 H   0  0  0  0  0  0  0  0  0  0  0  0
  138.4061   77.4852  224.1705 H   0  0  0  0  0  0  0  0  0  0  0  0
  138.4802   80.5529  222.2457 H   0  0  0  0  0  0  0  0  0  0  0  0
  138.3954   79.7281  223.8673 H   0  0  0  0  0  0  0  0  0  0  0  0
  140.1507   82.1300  223.6142 H   0  0  0  0  0  0  0  0  0  0  0  0
  142.5725   82.4492  223.9743 H   0  0  0  0  0  0  0  0  0  0  0  0
  144.1646   80.5201  223.6869 H   0  0  0  0  0  0  0  0  0  0  0  0
  143.2218   78.2825  223.0330 H   0  0  0  0  0  0  0  0  0  0  0  0
  140.8235   78.0198  222.6944 H   0  0  0  0  0  0  0  0  0  0  0  0
  138.9206   79.1867  220.2258 H   0  0  0  0  0  0  0  0  0  0  0  0
  138.5639   76.9238  219.1631 H   0  0  0  0  0  0  0  0  0  0  0  0
  142.8152   74.6292  221.4830 H   0  0  0  0  0  0  0  0  0  0  0  0
  143.3641   73.9520  219.9201 H   0  0  0  0  0  0  0  0  0  0  0  0
  142.9622   76.7292  220.7257 H   0  0  0  0  0  0  0  0  0  0  0  0
  143.7767   76.0211  219.2487 H   0  0  0  0  0  0  0  0  0  0  0  0
  1  2  1  0
  2  3  1  0
  3  4  2  0
  3  5  1  0
  5  6  1  0
  6  7  2  0
  7  8  1  0
  8  9  2  0
  9 10  1  0
 10 11  2  0
  5 12  1  0
 12 13  1  0
 13 14  1  0
 14 15  1  0
 15 16  1  0
 16 17  2  0
 16 18  1  0
 18 19  1  0
 18 20  1  0
 20 21  1  0
 21 22  2  0
 22 23  1  0
 23 24  2  0
 24 25  1  0
 25 26  1  0
 26 27  2  0
 27 28  1  0
 28 29  2  0
 29 30  1  0
 30 31  2  0
 24 32  1  0
 32 33  2  0
 15 34  1  0
 34 35  1  0
 11  6  1  0
 35 12  1  0
 33 21  1  0
 31 26  1  0
  1 36  1  0
  1 37  1  0
  1 38  1  0
  2 39  1  0
  2 40  1  0
  7 41  1  0
  8 42  1  0
  9 43  1  0
 10 44  1  0
 11 45  1  0
 12 46  1  0
 13 47  1  0
 13 48  1  0
 14 49  1  0
 14 50  1  0
 18 51  1  6
 19 52  1  0
 19 53  1  0
 20 54  1  0
 20 55  1  0
 22 56  1  0
 23 57  1  0
 25 58  1  0
 25 59  1  0
 27 60  1  0
 28 61  1  0
 29 62  1  0
 30 63  1  0
 31 64  1  0
 32 65  1  0
 33 66  1  0
 34 67  1  0
 34 68  1  0
 35 69  1  0
 35 70  1  0
M  END
>  <smiles>  (26) 
CCC(=O)N(c1ccccc1)C1CCN(C(=O)[C@@H](N)Cc2ccc(Cc3ccccc3)cc2)CC1

>  <score_type>  (26) 
oracle

>  <origin>  (26) 
autodockgpu

>  <m_score__min__energy>  (26) 
-8.3699999999999992

>  <m_primary>  (26) 
energy

>  <rmsd>  (26) 
5.165652568276797

>  <m_score__min__rmsd>  (26) 
5.165652568276797

>  <meeko>  (26) 
{"free_energy": -6.92, "intermolecular_energy": -9.91, "internal_energy": -4.59, "cluster_size": 29, "cluster_id": 6, "rank_in_cluster": 6}

>  <energy>  (26) 
-6.92

>  <cluster_rmsd>  (26) 
0.3

>  <cluster>  (26) 
6

$$$$

     RDKit          3D

 70 73  0  0  0  0  0  0  0  0999 V2000
  143.6660   77.1420  214.5790 C   0  0  0  0  0  0  0  0  0  0  0  0
  142.5430   77.5180  215.5670 C   0  0  0  0  0  0  0  0  0  0  0  0
  142.9980   77.1360  216.9550 C   0  0  0  0  0  0  0  0  0  0  0  0
  144.0300   76.4000  216.9480 O   0  0  0  0  0  0  0  0  0  0  0  0
  142.3260   77.5690  218.1210 N   0  0  0  0  0  0  0  0  0  0  0  0
  142.1520   78.9220  218.5020 C   0  0  0  0  0  0  0  0  0  0  0  0
  142.3500   79.9520  217.5840 C   0  0  0  0  0  0  0  0  0  0  0  0
  142.1770   81.2910  217.9440 C   0  0  0  0  0  0  0  0  0  0  0  0
  141.8050   81.6640  219.2120 C   0  0  0  0  0  0  0  0  0  0  0  0
  141.6070   80.6580  220.1270 C   0  0  0  0  0  0  0  0  0  0  0  0
  141.7810   79.3170  219.7670 C   0  0  0  0  0  0  0  0  0  0  0  0
  141.8030   76.4800  218.9740 C   0  0  0  0  0  0  0  0  0  0  0  0
  141.0640   75.5050  218.1500 C   0  0  0  0  0  0  0  0  0  0  0  0
  141.0530   74.0770  218.6760 C   0  0  0  0  0  0  0  0  0  0  0  0
  141.3070   74.1880  220.0910 N   0  0  0  0  0  0  0  0  0  0  0  0
  140.4250   73.9570  221.1520 C   0  0  0  0  0  0  0  0  0  0  0  0
  140.9180   74.1390  222.3420 O   0  0  0  0  0  0  0  0  0  0  0  0
  139.0300   73.5420  221.1310 C   0  0  1  0  0  0  0  0  0  0  0  0
  138.5020   73.0090  222.3430 N   0  0  0  0  0  0  0  0  0  0  0  0
  138.1100   74.5750  220.4980 C   0  0  0  0  0  0  0  0  0  0  0  0
  138.3230   75.9220  221.1190 C   0  0  0  0  0  0  0  0  0  0  0  0
  138.0730   76.1050  222.4600 C   0  0  0  0  0  0  0  0  0  0  0  0
  138.2540   77.3450  223.0590 C   0  0  0  0  0  0  0  0  0  0  0  0
  138.7020   78.3860  222.2370 C   0  0  0  0  0  0  0  0  0  0  0  0
  138.8980   79.7070  222.9010 C   0  0  0  0  0  0  0  0  0  0  0  0
  140.3140   80.0170  223.1410 C   0  0  0  0  0  0  0  0  0  0  0  0
  140.8210   81.2580  223.4290 C   0  0  0  0  0  0  0  0  0  0  0  0
  142.1770   81.4560  223.6370 C   0  0  0  0  0  0  0  0  0  0  0  0
  143.0750   80.3810  223.5550 C   0  0  0  0  0  0  0  0  0  0  0  0
  142.5540   79.1200  223.2610 C   0  0  0  0  0  0  0  0  0  0  0  0
  141.2160   78.9650  223.0650 C   0  0  0  0  0  0  0  0  0  0  0  0
  138.9530   78.2030  220.8940 C   0  0  0  0  0  0  0  0  0  0  0  0
  138.7680   76.9500  220.2930 C   0  0  0  0  0  0  0  0  0  0  0  0
  142.6990   74.6230  220.4020 C   0  0  0  0  0  0  0  0  0  0  0  0
  142.9010   76.0200  219.8550 C   0  0  0  0  0  0  0  0  0  0  0  0
  144.5630   76.8417  215.1405 H   0  0  0  0  0  0  0  0  0  0  0  0
  143.3328   76.3064  213.9459 H   0  0  0  0  0  0  0  0  0  0  0  0
  143.9031   78.0097  213.9459 H   0  0  0  0  0  0  0  0  0  0  0  0
  142.3519   78.6003  215.5211 H   0  0  0  0  0  0  0  0  0  0  0  0
  141.6136   76.9890  215.3096 H   0  0  0  0  0  0  0  0  0  0  0  0
  142.6488   79.7056  216.5544 H   0  0  0  0  0  0  0  0  0  0  0  0
  142.3442   82.0715  217.1871 H   0  0  0  0  0  0  0  0  0  0  0  0
  141.6713   82.7216  219.4835 H   0  0  0  0  0  0  0  0  0  0  0  0
  141.3080   80.9100  221.1552 H   0  0  0  0  0  0  0  0  0  0  0  0
  141.6135   78.5429  220.5303 H   0  0  0  0  0  0  0  0  0  0  0  0
  141.0222   76.7892  219.6845 H   0  0  0  0  0  0  0  0  0  0  0  0
  140.0210   75.8464  218.0749 H   0  0  0  0  0  0  0  0  0  0  0  0
  141.5890   75.4668  217.1841 H   0  0  0  0  0  0  0  0  0  0  0  0
  140.0742   73.6083  218.4963 H   0  0  0  0  0  0  0  0  0  0  0  0
  141.8044   73.4502  218.1735 H   0  0  0  0  0  0  0  0  0  0  0  0
  139.0549   72.6665  220.4656 H   0  0  0  0  0  0  0  0  0  0  0  0
  139.2150   72.9550  223.1260 H   0  0  0  0  0  0  0  0  0  0  0  0
  137.7840   73.7020  222.7130 H   0  0  0  0  0  0  0  0  0  0  0  0
  138.3223   74.6361  219.4204 H   0  0  0  0  0  0  0  0  0  0  0  0
  137.0664   74.2692  220.6636 H   0  0  0  0  0  0  0  0  0  0  0  0
  137.7245   75.2562  223.0667 H   0  0  0  0  0  0  0  0  0  0  0  0
  138.0546   77.5018  224.1294 H   0  0  0  0  0  0  0  0  0  0  0  0
  138.4703   80.4907  222.2584 H   0  0  0  0  0  0  0  0  0  0  0  0
  138.3970   79.6644  223.8793 H   0  0  0  0  0  0  0  0  0  0  0  0
  140.1360   82.1160  223.4965 H   0  0  0  0  0  0  0  0  0  0  0  0
  142.5521   82.4639  223.8682 H   0  0  0  0  0  0  0  0  0  0  0  0
  144.1532   80.5271  223.7169 H   0  0  0  0  0  0  0  0  0  0  0  0
  143.2248   78.2513  223.1877 H   0  0  0  0  0  0  0  0  0  0  0  0
  140.8321   77.9600  222.8359 H   0  0  0  0  0  0  0  0  0  0  0  0
  139.3028   79.0506  220.2863 H   0  0  0  0  0  0  0  0  0  0  0  0
  138.9646   76.7876  219.2230 H   0  0  0  0  0  0  0  0  0  0  0  0
  142.8520   74.6257  221.4913 H   0  0  0  0  0  0  0  0  0  0  0  0
  143.4207   73.9313  219.9430 H   0  0  0  0  0  0  0  0  0  0  0  0
  142.9808   76.7165  220.7027 H   0  0  0  0  0  0  0  0  0  0  0  0
  143.8149   75.9962  219.2432 H   0  0  0  0  0  0  0  0  0  0  0  0
  1  2  1  0
  2  3  1  0
  3  4  2  0
  3  5  1  0
  5  6  1  0
  6  7  2  0
  7  8  1  0
  8  9  2  0
  9 10  1  0
 10 11  2  0
  5 12  1  0
 12 13  1  0
 13 14  1  0
 14 15  1  0
 15 16  1  0
 16 17  2  0
 16 18  1  0
 18 19  1  0
 18 20  1  0
 20 21  1  0
 21 22  2  0
 22 23  1  0
 23 24  2  0
 24 25  1  0
 25 26  1  0
 26 27  2  0
 27 28  1  0
 28 29  2  0
 29 30  1  0
 30 31  2  0
 24 32  1  0
 32 33  2  0
 15 34  1  0
 34 35  1  0
 11  6  1  0
 35 12  1  0
 33 21  1  0
 31 26  1  0
  1 36  1  0
  1 37  1  0
  1 38  1  0
  2 39  1  0
  2 40  1  0
  7 41  1  0
  8 42  1  0
  9 43  1  0
 10 44  1  0
 11 45  1  0
 12 46  1  0
 13 47  1  0
 13 48  1  0
 14 49  1  0
 14 50  1  0
 18 51  1  6
 19 52  1  0
 19 53  1  0
 20 54  1  0
 20 55  1  0
 22 56  1  0
 23 57  1  0
 25 58  1  0
 25 59  1  0
 27 60  1  0
 28 61  1  0
 29 62  1  0
 30 63  1  0
 31 64  1  0
 32 65  1  0
 33 66  1  0
 34 67  1  0
 34 68  1  0
 35 69  1  0
 35 70  1  0
M  END
>  <smiles>  (27) 
CCC(=O)N(c1ccccc1)C1CCN(C(=O)[C@@H](N)Cc2ccc(Cc3ccccc3)cc2)CC1

>  <score_type>  (27) 
oracle

>  <origin>  (27) 
autodockgpu

>  <m_score__min__energy>  (27) 
-8.3699999999999992

>  <m_primary>  (27) 
energy

>  <rmsd>  (27) 
5.196955033796873

>  <m_score__min__rmsd>  (27) 
5.196955033796873

>  <meeko>  (27) 
{"free_energy": -7.03, "intermolecular_energy": -10.02, "internal_energy": -4.49, "cluster_size": 29, "cluster_id": 6, "rank_in_cluster": 3}

>  <energy>  (27) 
-6.92

>  <cluster_rmsd>  (27) 
0.29

>  <cluster>  (27) 
6

$$$$

     RDKit          3D

 70 73  0  0  0  0  0  0  0  0999 V2000
  144.4010   76.3320  215.2110 C   0  0  0  0  0  0  0  0  0  0  0  0
  143.9020   76.3210  216.6710 C   0  0  0  0  0  0  0  0  0  0  0  0
  142.6640   77.1830  216.7440 C   0  0  0  0  0  0  0  0  0  0  0  0
  142.1780   77.4430  215.6030 O   0  0  0  0  0  0  0  0  0  0  0  0
  142.1250   77.6360  217.9700 N   0  0  0  0  0  0  0  0  0  0  0  0
  142.0410   78.9920  218.3670 C   0  0  0  0  0  0  0  0  0  0  0  0
  141.6700   79.3340  219.6670 C   0  0  0  0  0  0  0  0  0  0  0  0
  141.5870   80.6690  220.0730 C   0  0  0  0  0  0  0  0  0  0  0  0
  141.8660   81.7090  219.2220 C   0  0  0  0  0  0  0  0  0  0  0  0
  142.2330   81.3870  217.9380 C   0  0  0  0  0  0  0  0  0  0  0  0
  142.3140   80.0510  217.5310 C   0  0  0  0  0  0  0  0  0  0  0  0
  141.6450   76.5630  218.8680 C   0  0  0  0  0  0  0  0  0  0  0  0
  140.9580   75.5190  218.0840 C   0  0  0  0  0  0  0  0  0  0  0  0
  141.0080   74.1180  218.6760 C   0  0  0  0  0  0  0  0  0  0  0  0
  141.2430   74.3050  220.0860 N   0  0  0  0  0  0  0  0  0  0  0  0
  140.3640   74.0810  221.1510 C   0  0  0  0  0  0  0  0  0  0  0  0
  140.8370   74.3400  222.3330 O   0  0  0  0  0  0  0  0  0  0  0  0
  138.9900   73.6020  221.1390 C   0  0  1  0  0  0  0  0  0  0  0  0
  138.5110   72.9990  222.3380 N   0  0  0  0  0  0  0  0  0  0  0  0
  138.0100   74.6130  220.5630 C   0  0  0  0  0  0  0  0  0  0  0  0
  138.2450   75.9700  221.1530 C   0  0  0  0  0  0  0  0  0  0  0  0
  138.5760   77.0260  220.3330 C   0  0  0  0  0  0  0  0  0  0  0  0
  138.8070   78.2910  220.8550 C   0  0  0  0  0  0  0  0  0  0  0  0
  138.6850   78.4370  222.2420 C   0  0  0  0  0  0  0  0  0  0  0  0
  138.9290   79.8060  222.7810 C   0  0  0  0  0  0  0  0  0  0  0  0
  140.3470   80.0600  223.0690 C   0  0  0  0  0  0  0  0  0  0  0  0
  140.8820   81.2630  223.4480 C   0  0  0  0  0  0  0  0  0  0  0  0
  142.2380   81.4090  223.6950 C   0  0  0  0  0  0  0  0  0  0  0  0
  143.1070   80.3160  223.5600 C   0  0  0  0  0  0  0  0  0  0  0  0
  142.5590   79.0920  223.1730 C   0  0  0  0  0  0  0  0  0  0  0  0
  141.2220   78.9900  222.9410 C   0  0  0  0  0  0  0  0  0  0  0  0
  138.3530   77.3820  223.0630 C   0  0  0  0  0  0  0  0  0  0  0  0
  138.1210   76.1040  222.5330 C   0  0  0  0  0  0  0  0  0  0  0  0
  142.6120   74.8170  220.3860 C   0  0  0  0  0  0  0  0  0  0  0  0
  142.7540   76.1950  219.7770 C   0  0  0  0  0  0  0  0  0  0  0  0
  145.5007   76.3562  215.1995 H   0  0  0  0  0  0  0  0  0  0  0  0
  144.0488   75.4259  214.6963 H   0  0  0  0  0  0  0  0  0  0  0  0
  144.0092   77.2217  214.6963 H   0  0  0  0  0  0  0  0  0  0  0  0
  143.6597   75.2922  216.9756 H   0  0  0  0  0  0  0  0  0  0  0  0
  144.6798   76.7090  217.3451 H   0  0  0  0  0  0  0  0  0  0  0  0
  141.4378   78.5365  220.3881 H   0  0  0  0  0  0  0  0  0  0  0  0
  141.2885   80.8932  221.1077 H   0  0  0  0  0  0  0  0  0  0  0  0
  141.7986   82.7556  219.5539 H   0  0  0  0  0  0  0  0  0  0  0  0
  142.4658   82.1887  217.2217 H   0  0  0  0  0  0  0  0  0  0  0  0
  142.6099   79.8365  216.4935 H   0  0  0  0  0  0  0  0  0  0  0  0
  140.8445   76.8670  219.5585 H   0  0  0  0  0  0  0  0  0  0  0  0
  139.9013   75.8084  217.9863 H   0  0  0  0  0  0  0  0  0  0  0  0
  141.4916   75.4611  217.1238 H   0  0  0  0  0  0  0  0  0  0  0  0
  140.0537   73.5964  218.5110 H   0  0  0  0  0  0  0  0  0  0  0  0
  141.7927   73.5048  218.2088 H   0  0  0  0  0  0  0  0  0  0  0  0
  139.0436   72.7547  220.4396 H   0  0  0  0  0  0  0  0  0  0  0  0
  139.2300   72.9820  223.1170 H   0  0  0  0  0  0  0  0  0  0  0  0
  137.7430   73.6240  222.7280 H   0  0  0  0  0  0  0  0  0  0  0  0
  138.1433   74.6649  219.4723 H   0  0  0  0  0  0  0  0  0  0  0  0
  136.9861   74.2929  220.8062 H   0  0  0  0  0  0  0  0  0  0  0  0
  138.6585   76.8643  219.2481 H   0  0  0  0  0  0  0  0  0  0  0  0
  139.0738   79.1401  220.2085 H   0  0  0  0  0  0  0  0  0  0  0  0
  138.5835   80.5421  222.0402 H   0  0  0  0  0  0  0  0  0  0  0  0
  138.3779   79.8917  223.7292 H   0  0  0  0  0  0  0  0  0  0  0  0
  140.2194   82.1340  223.5589 H   0  0  0  0  0  0  0  0  0  0  0  0
  142.6355   82.3886  223.9990 H   0  0  0  0  0  0  0  0  0  0  0  0
  144.1849   80.4202  223.7528 H   0  0  0  0  0  0  0  0  0  0  0  0
  143.2071   78.2110  223.0557 H   0  0  0  0  0  0  0  0  0  0  0  0
  140.8156   78.0138  222.6378 H   0  0  0  0  0  0  0  0  0  0  0  0
  138.2687   77.5436  224.1478 H   0  0  0  0  0  0  0  0  0  0  0  0
  137.8547   75.2514  223.1751 H   0  0  0  0  0  0  0  0  0  0  0  0
  142.7556   74.8761  221.4750 H   0  0  0  0  0  0  0  0  0  0  0  0
  143.3685   74.1390  219.9642 H   0  0  0  0  0  0  0  0  0  0  0  0
  142.7934   76.9323  220.5924 H   0  0  0  0  0  0  0  0  0  0  0  0
  143.6736   76.1856  219.1735 H   0  0  0  0  0  0  0  0  0  0  0  0
  1  2  1  0
  2  3  1  0
  3  4  2  0
  3  5  1  0
  5  6  1  0
  6  7  2  0
  7  8  1  0
  8  9  2  0
  9 10  1  0
 10 11  2  0
  5 12  1  0
 12 13  1  0
 13 14  1  0
 14 15  1  0
 15 16  1  0
 16 17  2  0
 16 18  1  0
 18 19  1  0
 18 20  1  0
 20 21  1  0
 21 22  2  0
 22 23  1  0
 23 24  2  0
 24 25  1  0
 25 26  1  0
 26 27  2  0
 27 28  1  0
 28 29  2  0
 29 30  1  0
 30 31  2  0
 24 32  1  0
 32 33  2  0
 15 34  1  0
 34 35  1  0
 11  6  1  0
 35 12  1  0
 33 21  1  0
 31 26  1  0
  1 36  1  0
  1 37  1  0
  1 38  1  0
  2 39  1  0
  2 40  1  0
  7 41  1  0
  8 42  1  0
  9 43  1  0
 10 44  1  0
 11 45  1  0
 12 46  1  0
 13 47  1  0
 13 48  1  0
 14 49  1  0
 14 50  1  0
 18 51  1  6
 19 52  1  0
 19 53  1  0
 20 54  1  0
 20 55  1  0
 22 56  1  0
 23 57  1  0
 25 58  1  0
 25 59  1  0
 27 60  1  0
 28 61  1  0
 29 62  1  0
 30 63  1  0
 31 64  1  0
 32 65  1  0
 33 66  1  0
 34 67  1  0
 34 68  1  0
 35 69  1  0
 35 70  1  0
M  END
>  <smiles>  (28) 
CCC(=O)N(c1ccccc1)C1CCN(C(=O)[C@@H](N)Cc2ccc(Cc3ccccc3)cc2)CC1

>  <score_type>  (28) 
oracle

>  <origin>  (28) 
autodockgpu

>  <m_score__min__energy>  (28) 
-8.3699999999999992

>  <m_primary>  (28) 
energy

>  <rmsd>  (28) 
5.128526106789012

>  <m_score__min__rmsd>  (28) 
5.128526106789012

>  <meeko>  (28) 
{"free_energy": -6.81, "intermolecular_energy": -9.79, "internal_energy": -4.51, "cluster_size": 29, "cluster_id": 6, "rank_in_cluster": 13}

>  <energy>  (28) 
-6.91

>  <cluster_rmsd>  (28) 
0.29

>  <cluster>  (28) 
6

$$$$

     RDKit          3D

 70 73  0  0  0  0  0  0  0  0999 V2000
  141.8440   80.0710  215.8950 C   0  0  0  0  0  0  0  0  0  0  0  0
  141.6710   78.5410  215.9970 C   0  0  0  0  0  0  0  0  0  0  0  0
  142.2150   78.1020  217.3360 C   0  0  0  0  0  0  0  0  0  0  0  0
  143.3390   77.5250  217.2450 O   0  0  0  0  0  0  0  0  0  0  0  0
  141.5200   78.3250  218.5480 N   0  0  0  0  0  0  0  0  0  0  0  0
  141.2240   79.6000  219.0900 C   0  0  0  0  0  0  0  0  0  0  0  0
  140.0000   80.2160  218.8360 C   0  0  0  0  0  0  0  0  0  0  0  0
  139.6920   81.4710  219.3670 C   0  0  0  0  0  0  0  0  0  0  0  0
  140.5720   82.1620  220.1640 C   0  0  0  0  0  0  0  0  0  0  0  0
  141.7830   81.5660  220.4220 C   0  0  0  0  0  0  0  0  0  0  0  0
  142.0910   80.3100  219.8890 C   0  0  0  0  0  0  0  0  0  0  0  0
  141.1150   77.0970  219.2640 C   0  0  0  0  0  0  0  0  0  0  0  0
  140.4740   76.1560  218.3260 C   0  0  0  0  0  0  0  0  0  0  0  0
  140.6110   74.6820  218.6820 C   0  0  0  0  0  0  0  0  0  0  0  0
  140.8590   74.6520  220.1020 N   0  0  0  0  0  0  0  0  0  0  0  0
  140.0100   74.2100  221.1230 C   0  0  0  0  0  0  0  0  0  0  0  0
  140.4870   74.3000  222.3280 O   0  0  0  0  0  0  0  0  0  0  0  0
  138.6650   73.6610  221.0430 C   0  0  1  0  0  0  0  0  0  0  0  0
  138.2140   72.9050  222.1640 N   0  0  0  0  0  0  0  0  0  0  0  0
  137.6340   74.6750  220.5710 C   0  0  0  0  0  0  0  0  0  0  0  0
  137.9200   76.0270  221.1510 C   0  0  0  0  0  0  0  0  0  0  0  0
  137.9860   76.1860  222.5170 C   0  0  0  0  0  0  0  0  0  0  0  0
  138.2420   77.4290  223.0810 C   0  0  0  0  0  0  0  0  0  0  0  0
  138.4280   78.5000  222.1980 C   0  0  0  0  0  0  0  0  0  0  0  0
  138.7090   79.8230  222.8230 C   0  0  0  0  0  0  0  0  0  0  0  0
  140.1390   80.0340  223.0910 C   0  0  0  0  0  0  0  0  0  0  0  0
  140.7000   81.1900  223.5670 C   0  0  0  0  0  0  0  0  0  0  0  0
  142.0640   81.2970  223.7860 C   0  0  0  0  0  0  0  0  0  0  0  0
  142.9150   80.2130  223.5210 C   0  0  0  0  0  0  0  0  0  0  0  0
  142.3390   79.0370  223.0360 C   0  0  0  0  0  0  0  0  0  0  0  0
  140.9940   78.9710  222.8360 C   0  0  0  0  0  0  0  0  0  0  0  0
  138.3620   78.3410  220.8300 C   0  0  0  0  0  0  0  0  0  0  0  0
  138.1030   77.0840  220.2650 C   0  0  0  0  0  0  0  0  0  0  0  0
  142.2010   75.1860  220.4710 C   0  0  0  0  0  0  0  0  0  0  0  0
  142.2580   76.6500  220.0920 C   0  0  0  0  0  0  0  0  0  0  0  0
  141.8928   80.5027  216.9056 H   0  0  0  0  0  0  0  0  0  0  0  0
  142.7737   80.2996  215.3534 H   0  0  0  0  0  0  0  0  0  0  0  0
  140.9888   80.5014  215.3534 H   0  0  0  0  0  0  0  0  0  0  0  0
  140.6052   78.2793  215.9223 H   0  0  0  0  0  0  0  0  0  0  0  0
  142.2101   78.0385  215.1803 H   0  0  0  0  0  0  0  0  0  0  0  0
  139.2604   79.7030  218.2037 H   0  0  0  0  0  0  0  0  0  0  0  0
  138.7139   81.9200  219.1397 H   0  0  0  0  0  0  0  0  0  0  0  0
  140.3184   83.1492  220.5776 H   0  0  0  0  0  0  0  0  0  0  0  0
  142.5191   82.0829  221.0553 H   0  0  0  0  0  0  0  0  0  0  0  0
  143.0721   79.8691  220.1192 H   0  0  0  0  0  0  0  0  0  0  0  0
  140.3113   77.2402  220.0013 H   0  0  0  0  0  0  0  0  0  0  0  0
  139.4014   76.3965  218.2843 H   0  0  0  0  0  0  0  0  0  0  0  0
  140.9943   76.2848  217.3654 H   0  0  0  0  0  0  0  0  0  0  0  0
  139.6842   74.1404  218.4418 H   0  0  0  0  0  0  0  0  0  0  0  0
  141.4201   74.1980  218.1153 H   0  0  0  0  0  0  0  0  0  0  0  0
  138.7684   72.8998  220.2557 H   0  0  0  0  0  0  0  0  0  0  0  0
  138.5740   71.9080  222.1720 H   0  0  0  0  0  0  0  0  0  0  0  0
  138.6510   73.3300  223.0360 H   0  0  0  0  0  0  0  0  0  0  0  0
  137.6656   74.7385  219.4733 H   0  0  0  0  0  0  0  0  0  0  0  0
  136.6377   74.3494  220.9048 H   0  0  0  0  0  0  0  0  0  0  0  0
  137.8336   75.3152  223.1716 H   0  0  0  0  0  0  0  0  0  0  0  0
  138.2962   77.5660  224.1711 H   0  0  0  0  0  0  0  0  0  0  0  0
  138.3582   80.6141  222.1440 H   0  0  0  0  0  0  0  0  0  0  0  0
  138.1832   79.8515  223.7888 H   0  0  0  0  0  0  0  0  0  0  0  0
  140.0524   82.0532  223.7802 H   0  0  0  0  0  0  0  0  0  0  0  0
  142.4829   82.2386  224.1704 H   0  0  0  0  0  0  0  0  0  0  0  0
  143.9994   80.2872  223.6897 H   0  0  0  0  0  0  0  0  0  0  0  0
  142.9716   78.1645  222.8157 H   0  0  0  0  0  0  0  0  0  0  0  0
  140.5654   78.0323  222.4549 H   0  0  0  0  0  0  0  0  0  0  0  0
  138.5144   79.2107  220.1739 H   0  0  0  0  0  0  0  0  0  0  0  0
  138.0473   76.9408  219.1758 H   0  0  0  0  0  0  0  0  0  0  0  0
  142.3583   75.0771  221.5542 H   0  0  0  0  0  0  0  0  0  0  0  0
  142.9866   74.6290  219.9395 H   0  0  0  0  0  0  0  0  0  0  0  0
  142.2719   77.2472  221.0156 H   0  0  0  0  0  0  0  0  0  0  0  0
  143.1661   76.7896  219.4872 H   0  0  0  0  0  0  0  0  0  0  0  0
  1  2  1  0
  2  3  1  0
  3  4  2  0
  3  5  1  0
  5  6  1  0
  6  7  2  0
  7  8  1  0
  8  9  2  0
  9 10  1  0
 10 11  2  0
  5 12  1  0
 12 13  1  0
 13 14  1  0
 14 15  1  0
 15 16  1  0
 16 17  2  0
 16 18  1  0
 18 19  1  0
 18 20  1  0
 20 21  1  0
 21 22  2  0
 22 23  1  0
 23 24  2  0
 24 25  1  0
 25 26  1  0
 26 27  2  0
 27 28  1  0
 28 29  2  0
 29 30  1  0
 30 31  2  0
 24 32  1  0
 32 33  2  0
 15 34  1  0
 34 35  1  0
 11  6  1  0
 35 12  1  0
 33 21  1  0
 31 26  1  0
  1 36  1  0
  1 37  1  0
  1 38  1  0
  2 39  1  0
  2 40  1  0
  7 41  1  0
  8 42  1  0
  9 43  1  0
 10 44  1  0
 11 45  1  0
 12 46  1  0
 13 47  1  0
 13 48  1  0
 14 49  1  0
 14 50  1  0
 18 51  1  6
 19 52  1  0
 19 53  1  0
 20 54  1  0
 20 55  1  0
 22 56  1  0
 23 57  1  0
 25 58  1  0
 25 59  1  0
 27 60  1  0
 28 61  1  0
 29 62  1  0
 30 63  1  0
 31 64  1  0
 32 65  1  0
 33 66  1  0
 34 67  1  0
 34 68  1  0
 35 69  1  0
 35 70  1  0
M  END
>  <smiles>  (29) 
CCC(=O)N(c1ccccc1)C1CCN(C(=O)[C@@H](N)Cc2ccc(Cc3ccccc3)cc2)CC1

>  <score_type>  (29) 
oracle

>  <origin>  (29) 
autodockgpu

>  <m_score__min__energy>  (29) 
-8.3699999999999992

>  <m_primary>  (29) 
energy

>  <rmsd>  (29) 
4.972607889829055

>  <m_score__min__rmsd>  (29) 
4.972607889829055

>  <meeko>  (29) 
{"free_energy": -5.76, "intermolecular_energy": -8.74, "internal_energy": -5.25, "cluster_size": 29, "cluster_id": 6, "rank_in_cluster": 28}

>  <energy>  (29) 
-6.9

>  <cluster_rmsd>  (29) 
0.28

>  <cluster>  (29) 
6

$$$$

     RDKit          3D

 70 73  0  0  0  0  0  0  0  0999 V2000
  142.4950   80.0140  218.4750 C   0  0  0  0  0  0  0  0  0  0  0  0
  141.7560   78.6610  218.4510 C   0  0  0  0  0  0  0  0  0  0  0  0
  141.9770   77.9880  219.7850 C   0  0  0  0  0  0  0  0  0  0  0  0
  142.8870   77.1070  219.7460 O   0  0  0  0  0  0  0  0  0  0  0  0
  141.2340   78.3270  220.9390 N   0  0  0  0  0  0  0  0  0  0  0  0
  141.6120   79.3080  221.8880 C   0  0  0  0  0  0  0  0  0  0  0  0
  141.4160   80.6640  221.6290 C   0  0  0  0  0  0  0  0  0  0  0  0
  141.7800   81.6420  222.5580 C   0  0  0  0  0  0  0  0  0  0  0  0
  142.3460   81.3260  223.7680 C   0  0  0  0  0  0  0  0  0  0  0  0
  142.5450   79.9930  224.0360 C   0  0  0  0  0  0  0  0  0  0  0  0
  142.1810   79.0130  223.1060 C   0  0  0  0  0  0  0  0  0  0  0  0
  139.9870   77.5530  221.1210 C   0  0  0  0  0  0  0  0  0  0  0  0
  140.2630   76.3280  221.8950 C   0  0  0  0  0  0  0  0  0  0  0  0
  139.0990   75.8000  222.7220 C   0  0  0  0  0  0  0  0  0  0  0  0
  137.9130   76.3330  222.0990 N   0  0  0  0  0  0  0  0  0  0  0  0
  136.9330   75.6500  221.3700 C   0  0  0  0  0  0  0  0  0  0  0  0
  135.9630   76.3830  220.9100 O   0  0  0  0  0  0  0  0  0  0  0  0
  136.8310   74.2350  221.0440 C   0  0  1  0  0  0  0  0  0  0  0  0
  135.7610   73.8510  220.1840 N   0  0  0  0  0  0  0  0  0  0  0  0
  138.1600   73.6210  220.6320 C   0  0  0  0  0  0  0  0  0  0  0  0
  138.6380   72.6530  221.6710 C   0  0  0  0  0  0  0  0  0  0  0  0
  137.7250   71.9600  222.4330 C   0  0  0  0  0  0  0  0  0  0  0  0
  138.1410   71.0630  223.4080 C   0  0  0  0  0  0  0  0  0  0  0  0
  139.5220   70.9010  223.5730 C   0  0  0  0  0  0  0  0  0  0  0  0
  139.9480   69.9280  224.6180 C   0  0  0  0  0  0  0  0  0  0  0  0
  140.3560   70.5800  225.8710 C   0  0  0  0  0  0  0  0  0  0  0  0
  141.0970   71.7280  225.9680 C   0  0  0  0  0  0  0  0  0  0  0  0
  141.4390   72.2690  227.1980 C   0  0  0  0  0  0  0  0  0  0  0  0
  141.0320   71.6450  228.3870 C   0  0  0  0  0  0  0  0  0  0  0  0
  140.2770   70.4750  228.2830 C   0  0  0  0  0  0  0  0  0  0  0  0
  139.9610   69.9770  227.0570 C   0  0  0  0  0  0  0  0  0  0  0  0
  140.4370   71.5940  222.8100 C   0  0  0  0  0  0  0  0  0  0  0  0
  140.0130   72.5000  221.8260 C   0  0  0  0  0  0  0  0  0  0  0  0
  137.7740   77.8070  222.2740 C   0  0  0  0  0  0  0  0  0  0  0  0
  138.9290   78.4870  221.5690 C   0  0  0  0  0  0  0  0  0  0  0  0
  142.6630   80.3216  219.5177 H   0  0  0  0  0  0  0  0  0  0  0  0
  143.4628   79.9123  217.9622 H   0  0  0  0  0  0  0  0  0  0  0  0
  141.8864   80.7734  217.9622 H   0  0  0  0  0  0  0  0  0  0  0  0
  140.6805   78.8253  218.2888 H   0  0  0  0  0  0  0  0  0  0  0  0
  142.1383   78.0298  217.6352 H   0  0  0  0  0  0  0  0  0  0  0  0
  140.9654   80.9701  220.6734 H   0  0  0  0  0  0  0  0  0  0  0  0
  141.6073   82.7001  222.3117 H   0  0  0  0  0  0  0  0  0  0  0  0
  142.6278   82.1055  224.4912 H   0  0  0  0  0  0  0  0  0  0  0  0
  142.9960   79.6927  224.9933 H   0  0  0  0  0  0  0  0  0  0  0  0
  142.3579   77.9575  223.3602 H   0  0  0  0  0  0  0  0  0  0  0  0
  139.5720   77.1276  220.1954 H   0  0  0  0  0  0  0  0  0  0  0  0
  140.5613   75.5401  221.1878 H   0  0  0  0  0  0  0  0  0  0  0  0
  141.0489   76.5967  222.6162 H   0  0  0  0  0  0  0  0  0  0  0  0
  139.0819   74.7003  222.7041 H   0  0  0  0  0  0  0  0  0  0  0  0
  139.1772   76.1014  223.7770 H   0  0  0  0  0  0  0  0  0  0  0  0
  136.5442   73.7914  222.0089 H   0  0  0  0  0  0  0  0  0  0  0  0
  135.0190   74.6000  220.0760 H   0  0  0  0  0  0  0  0  0  0  0  0
  136.1570   73.7550  219.2020 H   0  0  0  0  0  0  0  0  0  0  0  0
  138.0329   73.0919  219.6760 H   0  0  0  0  0  0  0  0  0  0  0  0
  138.9042   74.4241  220.5262 H   0  0  0  0  0  0  0  0  0  0  0  0
  136.6493   72.1192  222.2671 H   0  0  0  0  0  0  0  0  0  0  0  0
  137.4189   70.5054  224.0225 H   0  0  0  0  0  0  0  0  0  0  0  0
  139.1076   69.2511  224.8315 H   0  0  0  0  0  0  0  0  0  0  0  0
  140.8210   69.3842  224.2280 H   0  0  0  0  0  0  0  0  0  0  0  0
  141.4285   72.2325  225.0485 H   0  0  0  0  0  0  0  0  0  0  0  0
  142.0334   73.1936  227.2420 H   0  0  0  0  0  0  0  0  0  0  0  0
  141.2989   72.0636  229.3686 H   0  0  0  0  0  0  0  0  0  0  0  0
  139.9379   69.9563  229.1918 H   0  0  0  0  0  0  0  0  0  0  0  0
  139.3650   69.0540  227.0033 H   0  0  0  0  0  0  0  0  0  0  0  0
  141.5129   71.4349  222.9745 H   0  0  0  0  0  0  0  0  0  0  0  0
  140.7303   73.0607  221.2087 H   0  0  0  0  0  0  0  0  0  0  0  0
  136.8225   78.1442  221.8370 H   0  0  0  0  0  0  0  0  0  0  0  0
  137.7839   78.0615  223.3441 H   0  0  0  0  0  0  0  0  0  0  0  0
  138.5356   79.0144  220.6875 H   0  0  0  0  0  0  0  0  0  0  0  0
  139.3912   79.1708  222.2961 H   0  0  0  0  0  0  0  0  0  0  0  0
  1  2  1  0
  2  3  1  0
  3  4  2  0
  3  5  1  0
  5  6  1  0
  6  7  2  0
  7  8  1  0
  8  9  2  0
  9 10  1  0
 10 11  2  0
  5 12  1  0
 12 13  1  0
 13 14  1  0
 14 15  1  0
 15 16  1  0
 16 17  2  0
 16 18  1  0
 18 19  1  0
 18 20  1  0
 20 21  1  0
 21 22  2  0
 22 23  1  0
 23 24  2  0
 24 25  1  0
 25 26  1  0
 26 27  2  0
 27 28  1  0
 28 29  2  0
 29 30  1  0
 30 31  2  0
 24 32  1  0
 32 33  2  0
 15 34  1  0
 34 35  1  0
 11  6  1  0
 35 12  1  0
 33 21  1  0
 31 26  1  0
  1 36  1  0
  1 37  1  0
  1 38  1  0
  2 39  1  0
  2 40  1  0
  7 41  1  0
  8 42  1  0
  9 43  1  0
 10 44  1  0
 11 45  1  0
 12 46  1  0
 13 47  1  0
 13 48  1  0
 14 49  1  0
 14 50  1  0
 18 51  1  1
 19 52  1  0
 19 53  1  0
 20 54  1  0
 20 55  1  0
 22 56  1  0
 23 57  1  0
 25 58  1  0
 25 59  1  0
 27 60  1  0
 28 61  1  0
 29 62  1  0
 30 63  1  0
 31 64  1  0
 32 65  1  0
 33 66  1  0
 34 67  1  0
 34 68  1  0
 35 69  1  0
 35 70  1  0
M  END
>  <smiles>  (30) 
CCC(=O)N(c1ccccc1)C1CCN(C(=O)[C@@H](N)Cc2ccc(Cc3ccccc3)cc2)CC1

>  <score_type>  (30) 
oracle

>  <origin>  (30) 
autodockgpu

>  <m_score__min__energy>  (30) 
-8.3699999999999992

>  <m_primary>  (30) 
energy

>  <rmsd>  (30) 
5.0508565222537145

>  <m_score__min__rmsd>  (30) 
5.0508565222537145

>  <meeko>  (30) 
{"free_energy": -8.11, "intermolecular_energy": -11.09, "internal_energy": -2.96, "cluster_size": 13, "cluster_id": 2, "rank_in_cluster": 7}

>  <energy>  (30) 
-6.88

>  <cluster_rmsd>  (30) 
0.4

>  <cluster>  (30) 
6

$$$$

     RDKit          3D

 70 73  0  0  0  0  0  0  0  0999 V2000
  140.8830   77.7070  215.4840 C   0  0  0  0  0  0  0  0  0  0  0  0
  142.4210   77.5930  215.4520 C   0  0  0  0  0  0  0  0  0  0  0  0
  142.8850   77.1980  216.8330 C   0  0  0  0  0  0  0  0  0  0  0  0
  143.8860   76.4200  216.8120 O   0  0  0  0  0  0  0  0  0  0  0  0
  142.2520   77.6630  218.0100 N   0  0  0  0  0  0  0  0  0  0  0  0
  142.1100   79.0250  218.3700 C   0  0  0  0  0  0  0  0  0  0  0  0
  142.5100   80.0380  217.5000 C   0  0  0  0  0  0  0  0  0  0  0  0
  142.3710   81.3860  217.8400 C   0  0  0  0  0  0  0  0  0  0  0  0
  141.8360   81.7850  219.0400 C   0  0  0  0  0  0  0  0  0  0  0  0
  141.4370   80.7960  219.9070 C   0  0  0  0  0  0  0  0  0  0  0  0
  141.5770   79.4460  219.5670 C   0  0  0  0  0  0  0  0  0  0  0  0
  141.7360   76.5980  218.8960 C   0  0  0  0  0  0  0  0  0  0  0  0
  141.0340   75.5750  218.0990 C   0  0  0  0  0  0  0  0  0  0  0  0
  141.0430   74.1700  218.6830 C   0  0  0  0  0  0  0  0  0  0  0  0
  141.2670   74.3430  220.0960 N   0  0  0  0  0  0  0  0  0  0  0  0
  140.3700   74.1350  221.1500 C   0  0  0  0  0  0  0  0  0  0  0  0
  140.8350   74.3760  222.3390 O   0  0  0  0  0  0  0  0  0  0  0  0
  138.9850   73.6890  221.1200 C   0  0  1  0  0  0  0  0  0  0  0  0
  138.4860   73.0670  222.3010 N   0  0  0  0  0  0  0  0  0  0  0  0
  138.0320   74.7380  220.5660 C   0  0  0  0  0  0  0  0  0  0  0  0
  138.3360   76.0860  221.1480 C   0  0  0  0  0  0  0  0  0  0  0  0
  138.2100   76.2900  222.5040 C   0  0  0  0  0  0  0  0  0  0  0  0
  138.4780   77.5310  223.0670 C   0  0  0  0  0  0  0  0  0  0  0  0
  138.8780   78.5510  222.1950 C   0  0  0  0  0  0  0  0  0  0  0  0
  139.1680   79.8720  222.8220 C   0  0  0  0  0  0  0  0  0  0  0  0
  140.6000   80.0760  223.0820 C   0  0  0  0  0  0  0  0  0  0  0  0
  141.6000   79.1870  222.7860 C   0  0  0  0  0  0  0  0  0  0  0  0
  142.9270   79.4660  223.0740 C   0  0  0  0  0  0  0  0  0  0  0  0
  143.2830   80.6780  223.6840 C   0  0  0  0  0  0  0  0  0  0  0  0
  142.2610   81.5810  223.9840 C   0  0  0  0  0  0  0  0  0  0  0  0
  140.9700   81.2700  223.6840 C   0  0  0  0  0  0  0  0  0  0  0  0
  139.0040   78.3460  220.8380 C   0  0  0  0  0  0  0  0  0  0  0  0
  138.7330   77.0920  220.2720 C   0  0  0  0  0  0  0  0  0  0  0  0
  142.6430   74.8200  220.4150 C   0  0  0  0  0  0  0  0  0  0  0  0
  142.8260   76.1980  219.8150 C   0  0  0  0  0  0  0  0  0  0  0  0
  140.5389   77.7325  216.5285 H   0  0  0  0  0  0  0  0  0  0  0  0
  140.5731   78.6306  214.9732 H   0  0  0  0  0  0  0  0  0  0  0  0
  140.4403   76.8392  214.9732 H   0  0  0  0  0  0  0  0  0  0  0  0
  142.7241   76.8275  214.7225 H   0  0  0  0  0  0  0  0  0  0  0  0
  142.8706   78.5524  215.1562 H   0  0  0  0  0  0  0  0  0  0  0  0
  142.9442   79.7705  216.5254 H   0  0  0  0  0  0  0  0  0  0  0  0
  142.7008   82.1524  217.1232 H   0  0  0  0  0  0  0  0  0  0  0  0
  141.7313   82.8496  219.2962 H   0  0  0  0  0  0  0  0  0  0  0  0
  141.0024   81.0691  220.8799 H   0  0  0  0  0  0  0  0  0  0  0  0
  141.2457   78.6859  220.2899 H   0  0  0  0  0  0  0  0  0  0  0  0
  140.9351   76.9181  219.5787 H   0  0  0  0  0  0  0  0  0  0  0  0
  139.9857   75.8903  217.9905 H   0  0  0  0  0  0  0  0  0  0  0  0
  141.5781   75.5092  217.1452 H   0  0  0  0  0  0  0  0  0  0  0  0
  140.0780   73.6731  218.5045 H   0  0  0  0  0  0  0  0  0  0  0  0
  141.8174   73.5403  218.2207 H   0  0  0  0  0  0  0  0  0  0  0  0
  139.0218   72.8586  220.3995 H   0  0  0  0  0  0  0  0  0  0  0  0
  139.1990   73.0170  223.0840 H   0  0  0  0  0  0  0  0  0  0  0  0
  137.7280   73.6970  222.7010 H   0  0  0  0  0  0  0  0  0  0  0  0
  138.1404   74.7835  219.4723 H   0  0  0  0  0  0  0  0  0  0  0  0
  137.0023   74.4594  220.8347 H   0  0  0  0  0  0  0  0  0  0  0  0
  137.8927   75.4584  223.1503 H   0  0  0  0  0  0  0  0  0  0  0  0
  138.3805   77.7047  224.1488 H   0  0  0  0  0  0  0  0  0  0  0  0
  138.8165   80.6663  222.1471 H   0  0  0  0  0  0  0  0  0  0  0  0
  138.6478   79.9005  223.7908 H   0  0  0  0  0  0  0  0  0  0  0  0
  141.3437   78.2296  222.3087 H   0  0  0  0  0  0  0  0  0  0  0  0
  143.7064   78.7317  222.8224 H   0  0  0  0  0  0  0  0  0  0  0  0
  144.3326   80.9094  223.9183 H   0  0  0  0  0  0  0  0  0  0  0  0
  142.4988   82.5426  224.4622 H   0  0  0  0  0  0  0  0  0  0  0  0
  140.1839   81.9990  223.9303 H   0  0  0  0  0  0  0  0  0  0  0  0
  139.3212   79.1768  220.1906 H   0  0  0  0  0  0  0  0  0  0  0  0
  138.8293   76.9126  219.1910 H   0  0  0  0  0  0  0  0  0  0  0  0
  142.7746   74.8700  221.5059 H   0  0  0  0  0  0  0  0  0  0  0  0
  143.3880   74.1261  219.9985 H   0  0  0  0  0  0  0  0  0  0  0  0
  142.8748   76.9298  220.6348 H   0  0  0  0  0  0  0  0  0  0  0  0
  143.7517   76.1692  219.2215 H   0  0  0  0  0  0  0  0  0  0  0  0
  1  2  1  0
  2  3  1  0
  3  4  2  0
  3  5  1  0
  5  6  1  0
  6  7  2  0
  7  8  1  0
  8  9  2  0
  9 10  1  0
 10 11  2  0
  5 12  1  0
 12 13  1  0
 13 14  1  0
 14 15  1  0
 15 16  1  0
 16 17  2  0
 16 18  1  0
 18 19  1  0
 18 20  1  0
 20 21  1  0
 21 22  2  0
 22 23  1  0
 23 24  2  0
 24 25  1  0
 25 26  1  0
 26 27  2  0
 27 28  1  0
 28 29  2  0
 29 30  1  0
 30 31  2  0
 24 32  1  0
 32 33  2  0
 15 34  1  0
 34 35  1  0
 11  6  1  0
 35 12  1  0
 33 21  1  0
 31 26  1  0
  1 36  1  0
  1 37  1  0
  1 38  1  0
  2 39  1  0
  2 40  1  0
  7 41  1  0
  8 42  1  0
  9 43  1  0
 10 44  1  0
 11 45  1  0
 12 46  1  0
 13 47  1  0
 13 48  1  0
 14 49  1  0
 14 50  1  0
 18 51  1  6
 19 52  1  0
 19 53  1  0
 20 54  1  0
 20 55  1  0
 22 56  1  0
 23 57  1  0
 25 58  1  0
 25 59  1  0
 27 60  1  0
 28 61  1  0
 29 62  1  0
 30 63  1  0
 31 64  1  0
 32 65  1  0
 33 66  1  0
 34 67  1  0
 34 68  1  0
 35 69  1  0
 35 70  1  0
M  END
>  <smiles>  (31) 
CCC(=O)N(c1ccccc1)C1CCN(C(=O)[C@@H](N)Cc2ccc(Cc3ccccc3)cc2)CC1

>  <score_type>  (31) 
oracle

>  <origin>  (31) 
autodockgpu

>  <m_score__min__energy>  (31) 
-8.3699999999999992

>  <m_primary>  (31) 
energy

>  <rmsd>  (31) 
5.124430565214283

>  <m_score__min__rmsd>  (31) 
5.124430565214283

>  <meeko>  (31) 
{"free_energy": -6.88, "intermolecular_energy": -9.86, "internal_energy": -4.51, "cluster_size": 29, "cluster_id": 6, "rank_in_cluster": 10}

>  <energy>  (31) 
-6.86

>  <cluster_rmsd>  (31) 
0.53

>  <cluster>  (31) 
6

$$$$

     RDKit          3D

 70 73  0  0  0  0  0  0  0  0999 V2000
  142.2570   76.4240  219.8100 C   0  0  0  0  0  0  0  0  0  0  0  0
  140.7810   76.0720  220.0880 C   0  0  0  0  0  0  0  0  0  0  0  0
  140.5460   76.1960  221.5740 C   0  0  0  0  0  0  0  0  0  0  0  0
  140.7020   75.0990  222.1890 O   0  0  0  0  0  0  0  0  0  0  0  0
  140.1920   77.4200  222.1880 N   0  0  0  0  0  0  0  0  0  0  0  0
  141.1040   78.4470  222.5320 C   0  0  0  0  0  0  0  0  0  0  0  0
  141.3430   78.7720  223.8670 C   0  0  0  0  0  0  0  0  0  0  0  0
  142.2420   79.7810  224.2200 C   0  0  0  0  0  0  0  0  0  0  0  0
  142.9370   80.5020  223.2810 C   0  0  0  0  0  0  0  0  0  0  0  0
  142.7110   80.1920  221.9610 C   0  0  0  0  0  0  0  0  0  0  0  0
  141.8090   79.1830  221.6070 C   0  0  0  0  0  0  0  0  0  0  0  0
  138.7510   77.5700  222.4820 C   0  0  0  0  0  0  0  0  0  0  0  0
  138.1690   78.6200  221.6250 C   0  0  0  0  0  0  0  0  0  0  0  0
  136.6910   78.4550  221.3010 C   0  0  0  0  0  0  0  0  0  0  0  0
  136.1580   77.6250  222.3520 N   0  0  0  0  0  0  0  0  0  0  0  0
  135.2830   77.9840  223.3830 C   0  0  0  0  0  0  0  0  0  0  0  0
  134.9640   77.0300  224.2070 O   0  0  0  0  0  0  0  0  0  0  0  0
  134.6710   79.2700  223.6800 C   0  0  1  0  0  0  0  0  0  0  0  0
  133.2990   79.2530  224.0680 N   0  0  0  0  0  0  0  0  0  0  0  0
  135.5240   80.1410  224.5900 C   0  0  0  0  0  0  0  0  0  0  0  0
  136.6180   80.8050  223.8100 C   0  0  0  0  0  0  0  0  0  0  0  0
  136.3060   81.5870  222.7210 C   0  0  0  0  0  0  0  0  0  0  0  0
  137.3000   82.2070  221.9770 C   0  0  0  0  0  0  0  0  0  0  0  0
  138.6230   81.9980  222.3880 C   0  0  0  0  0  0  0  0  0  0  0  0
  139.6750   82.6790  221.5800 C   0  0  0  0  0  0  0  0  0  0  0  0
  140.1540   81.8560  220.4600 C   0  0  0  0  0  0  0  0  0  0  0  0
  139.4910   80.7890  219.9130 C   0  0  0  0  0  0  0  0  0  0  0  0
  140.0250   80.0670  218.8570 C   0  0  0  0  0  0  0  0  0  0  0  0
  141.2740   80.4140  218.3180 C   0  0  0  0  0  0  0  0  0  0  0  0
  141.9460   81.5010  218.8790 C   0  0  0  0  0  0  0  0  0  0  0  0
  141.3870   82.1850  219.9140 C   0  0  0  0  0  0  0  0  0  0  0  0
  138.9360   81.2150  223.4780 C   0  0  0  0  0  0  0  0  0  0  0  0
  137.9280   80.5900  224.2270 C   0  0  0  0  0  0  0  0  0  0  0  0
  136.6480   76.2180  222.2890 C   0  0  0  0  0  0  0  0  0  0  0  0
  138.1450   76.2200  222.5100 C   0  0  0  0  0  0  0  0  0  0  0  0
  142.7896   76.5510  220.7640 H   0  0  0  0  0  0  0  0  0  0  0  0
  142.7253   75.6123  219.2339 H   0  0  0  0  0  0  0  0  0  0  0  0
  142.3086   77.3596  219.2339 H   0  0  0  0  0  0  0  0  0  0  0  0
  140.1227   76.7671  219.5463 H   0  0  0  0  0  0  0  0  0  0  0  0
  140.5610   75.0488  219.7495 H   0  0  0  0  0  0  0  0  0  0  0  0
  140.8125   78.2223  224.6584 H   0  0  0  0  0  0  0  0  0  0  0  0
  142.3983   80.0053  225.2855 H   0  0  0  0  0  0  0  0  0  0  0  0
  143.6437   81.2931  223.5721 H   0  0  0  0  0  0  0  0  0  0  0  0
  143.2457   80.7438  221.1738 H   0  0  0  0  0  0  0  0  0  0  0  0
  141.6560   78.9677  220.5392 H   0  0  0  0  0  0  0  0  0  0  0  0
  138.5264   77.9669  223.4830 H   0  0  0  0  0  0  0  0  0  0  0  0
  138.2984   79.5854  222.1362 H   0  0  0  0  0  0  0  0  0  0  0  0
  138.6988   78.5538  220.6633 H   0  0  0  0  0  0  0  0  0  0  0  0
  136.1879   79.4332  221.2908 H   0  0  0  0  0  0  0  0  0  0  0  0
  136.5379   78.0062  220.3085 H   0  0  0  0  0  0  0  0  0  0  0  0
  134.6425   79.7502  222.6907 H   0  0  0  0  0  0  0  0  0  0  0  0
  132.6290   79.3650  223.2540 H   0  0  0  0  0  0  0  0  0  0  0  0
  133.0810   78.2780  224.4330 H   0  0  0  0  0  0  0  0  0  0  0  0
  134.8895   80.9121  225.0512 H   0  0  0  0  0  0  0  0  0  0  0  0
  135.9765   79.5065  225.3663 H   0  0  0  0  0  0  0  0  0  0  0  0
  135.2523   81.7226  222.4360 H   0  0  0  0  0  0  0  0  0  0  0  0
  137.0603   82.8334  221.1051 H   0  0  0  0  0  0  0  0  0  0  0  0
  139.2584   83.6137  221.1765 H   0  0  0  0  0  0  0  0  0  0  0  0
  140.5321   82.8676  222.2431 H   0  0  0  0  0  0  0  0  0  0  0  0
  138.5118   80.4984  220.3214 H   0  0  0  0  0  0  0  0  0  0  0  0
  139.4665   79.2167  218.4386 H   0  0  0  0  0  0  0  0  0  0  0  0
  141.7087   79.8478  217.4811 H   0  0  0  0  0  0  0  0  0  0  0  0
  142.9270   81.8046  218.4847 H   0  0  0  0  0  0  0  0  0  0  0  0
  141.9376   83.0379  220.3375 H   0  0  0  0  0  0  0  0  0  0  0  0
  139.9893   81.0784  223.7642 H   0  0  0  0  0  0  0  0  0  0  0  0
  138.1612   79.9620  225.0995 H   0  0  0  0  0  0  0  0  0  0  0  0
  136.1583   75.6193  223.0712 H   0  0  0  0  0  0  0  0  0  0  0  0
  136.4127   75.7808  221.3074 H   0  0  0  0  0  0  0  0  0  0  0  0
  138.3514   75.7675  223.4911 H   0  0  0  0  0  0  0  0  0  0  0  0
  138.5920   75.6509  221.6816 H   0  0  0  0  0  0  0  0  0  0  0  0
  1  2  1  0
  2  3  1  0
  3  4  2  0
  3  5  1  0
  5  6  1  0
  6  7  2  0
  7  8  1  0
  8  9  2  0
  9 10  1  0
 10 11  2  0
  5 12  1  0
 12 13  1  0
 13 14  1  0
 14 15  1  0
 15 16  1  0
 16 17  2  0
 16 18  1  0
 18 19  1  0
 18 20  1  0
 20 21  1  0
 21 22  2  0
 22 23  1  0
 23 24  2  0
 24 25  1  0
 25 26  1  0
 26 27  2  0
 27 28  1  0
 28 29  2  0
 29 30  1  0
 30 31  2  0
 24 32  1  0
 32 33  2  0
 15 34  1  0
 34 35  1  0
 11  6  1  0
 35 12  1  0
 33 21  1  0
 31 26  1  0
  1 36  1  0
  1 37  1  0
  1 38  1  0
  2 39  1  0
  2 40  1  0
  7 41  1  0
  8 42  1  0
  9 43  1  0
 10 44  1  0
 11 45  1  0
 12 46  1  0
 13 47  1  0
 13 48  1  0
 14 49  1  0
 14 50  1  0
 18 51  1  6
 19 52  1  0
 19 53  1  0
 20 54  1  0
 20 55  1  0
 22 56  1  0
 23 57  1  0
 25 58  1  0
 25 59  1  0
 27 60  1  0
 28 61  1  0
 29 62  1  0
 30 63  1  0
 31 64  1  0
 32 65  1  0
 33 66  1  0
 34 67  1  0
 34 68  1  0
 35 69  1  0
 35 70  1  0
M  END
>  <smiles>  (32) 
CCC(=O)N(c1ccccc1)C1CCN(C(=O)[C@@H](N)Cc2ccc(Cc3ccccc3)cc2)CC1

>  <score_type>  (32) 
oracle

>  <origin>  (32) 
autodockgpu

>  <m_score__min__energy>  (32) 
-8.3699999999999992

>  <m_primary>  (32) 
energy

>  <rmsd>  (32) 
7.21619437011331

>  <m_score__min__rmsd>  (32) 
7.21619437011331

>  <meeko>  (32) 
{"free_energy": -5.51, "intermolecular_energy": -8.49, "internal_energy": -5.03, "cluster_size": 1, "cluster_id": 7, "rank_in_cluster": 1}

>  <energy>  (32) 
-6.85

>  <cluster_rmsd>  (32) 
0.53

>  <cluster>  (32) 
6

$$$$

     RDKit          3D

 70 73  0  0  0  0  0  0  0  0999 V2000
  142.9290   77.1270  217.8960 C   0  0  0  0  0  0  0  0  0  0  0  0
  142.6250   77.1610  219.4080 C   0  0  0  0  0  0  0  0  0  0  0  0
  141.7860   78.3860  219.6850 C   0  0  0  0  0  0  0  0  0  0  0  0
  141.7260   79.1740  218.6940 O   0  0  0  0  0  0  0  0  0  0  0  0
  141.1470   78.6040  220.9280 N   0  0  0  0  0  0  0  0  0  0  0  0
  141.5520   79.5610  221.8900 C   0  0  0  0  0  0  0  0  0  0  0  0
  142.1730   79.1640  223.0730 C   0  0  0  0  0  0  0  0  0  0  0  0
  142.5810   80.0980  224.0290 C   0  0  0  0  0  0  0  0  0  0  0  0
  142.3960   81.4470  223.8580 C   0  0  0  0  0  0  0  0  0  0  0  0
  141.7840   81.8530  222.6960 C   0  0  0  0  0  0  0  0  0  0  0  0
  141.3740   80.9180  221.7390 C   0  0  0  0  0  0  0  0  0  0  0  0
  139.9870   77.7260  221.1890 C   0  0  0  0  0  0  0  0  0  0  0  0
  140.4500   76.4020  221.6450 C   0  0  0  0  0  0  0  0  0  0  0  0
  139.4920   75.6520  222.5590 C   0  0  0  0  0  0  0  0  0  0  0  0
  138.1890   76.2060  222.2860 N   0  0  0  0  0  0  0  0  0  0  0  0
  137.1060   75.6030  221.6380 C   0  0  0  0  0  0  0  0  0  0  0  0
  136.0410   76.3390  221.5200 O   0  0  0  0  0  0  0  0  0  0  0  0
  136.9860   74.2680  221.0710 C   0  0  1  0  0  0  0  0  0  0  0  0
  135.9990   74.0890  220.0580 N   0  0  0  0  0  0  0  0  0  0  0  0
  138.3280   73.6580  220.6930 C   0  0  0  0  0  0  0  0  0  0  0  0
  138.7630   72.6620  221.7240 C   0  0  0  0  0  0  0  0  0  0  0  0
  140.0970   72.3430  221.8470 C   0  0  0  0  0  0  0  0  0  0  0  0
  140.5270   71.4170  222.7880 C   0  0  0  0  0  0  0  0  0  0  0  0
  139.5450   70.8330  223.5980 C   0  0  0  0  0  0  0  0  0  0  0  0
  140.0280   69.8490  224.6070 C   0  0  0  0  0  0  0  0  0  0  0  0
  140.2590   70.4530  225.9270 C   0  0  0  0  0  0  0  0  0  0  0  0
  139.7300   70.0100  227.1110 C   0  0  0  0  0  0  0  0  0  0  0  0
  140.0010   70.6500  228.3100 C   0  0  0  0  0  0  0  0  0  0  0  0
  140.8300   71.7810  228.3420 C   0  0  0  0  0  0  0  0  0  0  0  0
  141.3660   72.2300  227.1330 C   0  0  0  0  0  0  0  0  0  0  0  0
  141.0770   71.5730  225.9770 C   0  0  0  0  0  0  0  0  0  0  0  0
  138.2100   71.1530  223.4750 C   0  0  0  0  0  0  0  0  0  0  0  0
  137.7790   72.0880  222.5220 C   0  0  0  0  0  0  0  0  0  0  0  0
  138.0410   77.6110  222.7670 C   0  0  0  0  0  0  0  0  0  0  0  0
  139.0100   78.4860  222.0010 C   0  0  0  0  0  0  0  0  0  0  0  0
  144.0115   77.0059  217.7423 H   0  0  0  0  0  0  0  0  0  0  0  0
  142.3963   76.2828  217.4338 H   0  0  0  0  0  0  0  0  0  0  0  0
  142.5960   78.0680  217.4338 H   0  0  0  0  0  0  0  0  0  0  0  0
  142.0720   76.2556  219.6986 H   0  0  0  0  0  0  0  0  0  0  0  0
  143.5600   77.1980  219.9863 H   0  0  0  0  0  0  0  0  0  0  0  0
  142.3455   78.0935  223.2579 H   0  0  0  0  0  0  0  0  0  0  0  0
  143.0664   79.7401  224.9489 H   0  0  0  0  0  0  0  0  0  0  0  0
  142.7232   82.1720  224.6178 H   0  0  0  0  0  0  0  0  0  0  0  0
  141.6147   82.9249  222.5164 H   0  0  0  0  0  0  0  0  0  0  0  0
  140.8867   81.2842  220.8233 H   0  0  0  0  0  0  0  0  0  0  0  0
  139.4103   77.4504  220.2938 H   0  0  0  0  0  0  0  0  0  0  0  0
  140.6265   75.7798  220.7552 H   0  0  0  0  0  0  0  0  0  0  0  0
  141.3545   76.5878  222.2428 H   0  0  0  0  0  0  0  0  0  0  0  0
  139.5076   74.5756  222.3328 H   0  0  0  0  0  0  0  0  0  0  0  0
  139.7685   75.7599  223.6182 H   0  0  0  0  0  0  0  0  0  0  0  0
  136.5829   73.6887  221.9148 H   0  0  0  0  0  0  0  0  0  0  0  0
  135.3050   74.8880  220.0000 H   0  0  0  0  0  0  0  0  0  0  0  0
  136.4940   74.1240  219.1170 H   0  0  0  0  0  0  0  0  0  0  0  0
  138.2348   73.1538  219.7198 H   0  0  0  0  0  0  0  0  0  0  0  0
  139.0787   74.4600  220.6354 H   0  0  0  0  0  0  0  0  0  0  0  0
  140.8330   72.8292  221.1898 H   0  0  0  0  0  0  0  0  0  0  0  0
  141.5900   71.1542  222.8925 H   0  0  0  0  0  0  0  0  0  0  0  0
  139.2748   69.0541  224.7112 H   0  0  0  0  0  0  0  0  0  0  0  0
  140.9909   69.4547  224.2503 H   0  0  0  0  0  0  0  0  0  0  0  0
  139.0752   69.1261  227.1097 H   0  0  0  0  0  0  0  0  0  0  0  0
  139.5626   70.2681  229.2438 H   0  0  0  0  0  0  0  0  0  0  0  0
  141.0507   72.2972  229.2880 H   0  0  0  0  0  0  0  0  0  0  0  0
  142.0209   73.1136  227.1153 H   0  0  0  0  0  0  0  0  0  0  0  0
  141.5120   71.9470  225.0384 H   0  0  0  0  0  0  0  0  0  0  0  0
  137.4729   70.6690  224.1326 H   0  0  0  0  0  0  0  0  0  0  0  0
  136.7173   72.3535  222.4116 H   0  0  0  0  0  0  0  0  0  0  0  0
  137.0114   77.9564  222.5922 H   0  0  0  0  0  0  0  0  0  0  0  0
  138.2557   77.6649  223.8445 H   0  0  0  0  0  0  0  0  0  0  0  0
  138.4323   79.1373  221.3287 H   0  0  0  0  0  0  0  0  0  0  0  0
  139.5858   79.0549  222.7458 H   0  0  0  0  0  0  0  0  0  0  0  0
  1  2  1  0
  2  3  1  0
  3  4  2  0
  3  5  1  0
  5  6  1  0
  6  7  2  0
  7  8  1  0
  8  9  2  0
  9 10  1  0
 10 11  2  0
  5 12  1  0
 12 13  1  0
 13 14  1  0
 14 15  1  0
 15 16  1  0
 16 17  2  0
 16 18  1  0
 18 19  1  0
 18 20  1  0
 20 21  1  0
 21 22  2  0
 22 23  1  0
 23 24  2  0
 24 25  1  0
 25 26  1  0
 26 27  2  0
 27 28  1  0
 28 29  2  0
 29 30  1  0
 30 31  2  0
 24 32  1  0
 32 33  2  0
 15 34  1  0
 34 35  1  0
 11  6  1  0
 35 12  1  0
 33 21  1  0
 31 26  1  0
  1 36  1  0
  1 37  1  0
  1 38  1  0
  2 39  1  0
  2 40  1  0
  7 41  1  0
  8 42  1  0
  9 43  1  0
 10 44  1  0
 11 45  1  0
 12 46  1  0
 13 47  1  0
 13 48  1  0
 14 49  1  0
 14 50  1  0
 18 51  1  1
 19 52  1  0
 19 53  1  0
 20 54  1  0
 20 55  1  0
 22 56  1  0
 23 57  1  0
 25 58  1  0
 25 59  1  0
 27 60  1  0
 28 61  1  0
 29 62  1  0
 30 63  1  0
 31 64  1  0
 32 65  1  0
 33 66  1  0
 34 67  1  0
 34 68  1  0
 35 69  1  0
 35 70  1  0
M  END
>  <smiles>  (33) 
CCC(=O)N(c1ccccc1)C1CCN(C(=O)[C@@H](N)Cc2ccc(Cc3ccccc3)cc2)CC1

>  <score_type>  (33) 
oracle

>  <origin>  (33) 
autodockgpu

>  <m_score__min__energy>  (33) 
-8.3699999999999992

>  <m_primary>  (33) 
energy

>  <rmsd>  (33) 
4.934931237959426

>  <m_score__min__rmsd>  (33) 
4.934931237959426

>  <meeko>  (33) 
{"free_energy": -8.13, "intermolecular_energy": -11.12, "internal_energy": -2.69, "cluster_size": 13, "cluster_id": 2, "rank_in_cluster": 5}

>  <energy>  (33) 
-6.81

>  <cluster_rmsd>  (33) 
0.53

>  <cluster>  (33) 
6

$$$$

     RDKit          3D

 70 73  0  0  0  0  0  0  0  0999 V2000
  140.9160   79.5060  218.5120 C   0  0  0  0  0  0  0  0  0  0  0  0
  142.2280   78.7130  218.6800 C   0  0  0  0  0  0  0  0  0  0  0  0
  142.1110   77.8830  219.9360 C   0  0  0  0  0  0  0  0  0  0  0  0
  142.7910   76.8150  219.8850 O   0  0  0  0  0  0  0  0  0  0  0  0
  141.3180   78.2800  221.0380 N   0  0  0  0  0  0  0  0  0  0  0  0
  141.6520   79.3140  221.9460 C   0  0  0  0  0  0  0  0  0  0  0  0
  142.2130   79.0190  223.1880 C   0  0  0  0  0  0  0  0  0  0  0  0
  142.5520   80.0300  224.0920 C   0  0  0  0  0  0  0  0  0  0  0  0
  142.3550   81.3590  223.8090 C   0  0  0  0  0  0  0  0  0  0  0  0
  141.8030   81.6630  222.5880 C   0  0  0  0  0  0  0  0  0  0  0  0
  141.4620   80.6520  221.6830 C   0  0  0  0  0  0  0  0  0  0  0  0
  140.0680   77.5090  221.2110 C   0  0  0  0  0  0  0  0  0  0  0  0
  140.3550   76.2270  221.8810 C   0  0  0  0  0  0  0  0  0  0  0  0
  139.2160   75.6530  222.7100 C   0  0  0  0  0  0  0  0  0  0  0  0
  138.0150   76.2440  222.1750 N   0  0  0  0  0  0  0  0  0  0  0  0
  136.9980   75.6290  221.4360 C   0  0  0  0  0  0  0  0  0  0  0  0
  136.0230   76.4060  221.0690 O   0  0  0  0  0  0  0  0  0  0  0  0
  136.8630   74.2440  221.0110 C   0  0  1  0  0  0  0  0  0  0  0  0
  135.8110   73.9550  220.0940 N   0  0  0  0  0  0  0  0  0  0  0  0
  138.1860   73.6150  220.6000 C   0  0  0  0  0  0  0  0  0  0  0  0
  138.6580   72.6490  221.6440 C   0  0  0  0  0  0  0  0  0  0  0  0
  137.7460   72.0430  222.4790 C   0  0  0  0  0  0  0  0  0  0  0  0
  138.1570   71.1510  223.4590 C   0  0  0  0  0  0  0  0  0  0  0  0
  139.5320   70.9010  223.5530 C   0  0  0  0  0  0  0  0  0  0  0  0
  139.9520   69.9340  224.6070 C   0  0  0  0  0  0  0  0  0  0  0  0
  140.3620   70.5940  225.8550 C   0  0  0  0  0  0  0  0  0  0  0  0
  141.1190   71.7330  225.9430 C   0  0  0  0  0  0  0  0  0  0  0  0
  141.4630   72.2830  227.1690 C   0  0  0  0  0  0  0  0  0  0  0  0
  141.0410   71.6780  228.3620 C   0  0  0  0  0  0  0  0  0  0  0  0
  140.2710   70.5180  228.2680 C   0  0  0  0  0  0  0  0  0  0  0  0
  139.9530   70.0100  227.0450 C   0  0  0  0  0  0  0  0  0  0  0  0
  140.4450   71.5070  222.7180 C   0  0  0  0  0  0  0  0  0  0  0  0
  140.0260   72.4090  221.7280 C   0  0  0  0  0  0  0  0  0  0  0  0
  137.9050   77.7030  222.4640 C   0  0  0  0  0  0  0  0  0  0  0  0
  139.0410   78.4190  221.7670 C   0  0  0  0  0  0  0  0  0  0  0  0
  140.5074   79.7530  219.5030 H   0  0  0  0  0  0  0  0  0  0  0  0
  141.1170   80.4340  217.9566 H   0  0  0  0  0  0  0  0  0  0  0  0
  140.1878   78.8967  217.9566 H   0  0  0  0  0  0  0  0  0  0  0  0
  142.3817   78.0563  217.8110 H   0  0  0  0  0  0  0  0  0  0  0  0
  143.0842   79.3998  218.7529 H   0  0  0  0  0  0  0  0  0  0  0  0
  142.3925   77.9689  223.4622 H   0  0  0  0  0  0  0  0  0  0  0  0
  142.9908   79.7517  225.0615 H   0  0  0  0  0  0  0  0  0  0  0  0
  142.6271   82.1457  224.5281 H   0  0  0  0  0  0  0  0  0  0  0  0
  141.6269   82.7149  222.3186 H   0  0  0  0  0  0  0  0  0  0  0  0
  141.0218   80.9394  220.7168 H   0  0  0  0  0  0  0  0  0  0  0  0
  139.6125   77.1582  220.2732 H   0  0  0  0  0  0  0  0  0  0  0  0
  140.6153   75.4905  221.1065 H   0  0  0  0  0  0  0  0  0  0  0  0
  141.1711   76.4321  222.5894 H   0  0  0  0  0  0  0  0  0  0  0  0
  139.1826   74.5579  222.6114 H   0  0  0  0  0  0  0  0  0  0  0  0
  139.3382   75.8746  223.7805 H   0  0  0  0  0  0  0  0  0  0  0  0
  136.5302   73.7457  221.9335 H   0  0  0  0  0  0  0  0  0  0  0  0
  134.9210   73.6240  220.5650 H   0  0  0  0  0  0  0  0  0  0  0  0
  135.5220   74.8710  219.6370 H   0  0  0  0  0  0  0  0  0  0  0  0
  138.0520   73.0810  219.6477 H   0  0  0  0  0  0  0  0  0  0  0  0
  138.9372   74.4107  220.4878 H   0  0  0  0  0  0  0  0  0  0  0  0
  136.6754   72.2696  222.3674 H   0  0  0  0  0  0  0  0  0  0  0  0
  137.4362   70.6626  224.1312 H   0  0  0  0  0  0  0  0  0  0  0  0
  139.1079   69.2632  224.8251 H   0  0  0  0  0  0  0  0  0  0  0  0
  140.8227   69.3825  224.2225 H   0  0  0  0  0  0  0  0  0  0  0  0
  141.4619   72.2226  225.0196 H   0  0  0  0  0  0  0  0  0  0  0  0
  142.0705   73.1993  227.2059 H   0  0  0  0  0  0  0  0  0  0  0  0
  141.3084   72.1042  229.3402 H   0  0  0  0  0  0  0  0  0  0  0  0
  139.9211   70.0142  229.1811 H   0  0  0  0  0  0  0  0  0  0  0  0
  139.3442   69.0950  226.9987 H   0  0  0  0  0  0  0  0  0  0  0  0
  141.5158   71.2810  222.8287 H   0  0  0  0  0  0  0  0  0  0  0  0
  140.7420   72.9009  221.0532 H   0  0  0  0  0  0  0  0  0  0  0  0
  136.9426   78.0833  222.0910 H   0  0  0  0  0  0  0  0  0  0  0  0
  137.9599   77.8769  223.5488 H   0  0  0  0  0  0  0  0  0  0  0  0
  138.6219   79.0144  220.9424 H   0  0  0  0  0  0  0  0  0  0  0  0
  139.5402   79.0418  222.5240 H   0  0  0  0  0  0  0  0  0  0  0  0
  1  2  1  0
  2  3  1  0
  3  4  2  0
  3  5  1  0
  5  6  1  0
  6  7  2  0
  7  8  1  0
  8  9  2  0
  9 10  1  0
 10 11  2  0
  5 12  1  0
 12 13  1  0
 13 14  1  0
 14 15  1  0
 15 16  1  0
 16 17  2  0
 16 18  1  0
 18 19  1  0
 18 20  1  0
 20 21  1  0
 21 22  2  0
 22 23  1  0
 23 24  2  0
 24 25  1  0
 25 26  1  0
 26 27  2  0
 27 28  1  0
 28 29  2  0
 29 30  1  0
 30 31  2  0
 24 32  1  0
 32 33  2  0
 15 34  1  0
 34 35  1  0
 11  6  1  0
 35 12  1  0
 33 21  1  0
 31 26  1  0
  1 36  1  0
  1 37  1  0
  1 38  1  0
  2 39  1  0
  2 40  1  0
  7 41  1  0
  8 42  1  0
  9 43  1  0
 10 44  1  0
 11 45  1  0
 12 46  1  0
 13 47  1  0
 13 48  1  0
 14 49  1  0
 14 50  1  0
 18 51  1  1
 19 52  1  0
 19 53  1  0
 20 54  1  0
 20 55  1  0
 22 56  1  0
 23 57  1  0
 25 58  1  0
 25 59  1  0
 27 60  1  0
 28 61  1  0
 29 62  1  0
 30 63  1  0
 31 64  1  0
 32 65  1  0
 33 66  1  0
 34 67  1  0
 34 68  1  0
 35 69  1  0
 35 70  1  0
M  END
>  <smiles>  (34) 
CCC(=O)N(c1ccccc1)C1CCN(C(=O)[C@@H](N)Cc2ccc(Cc3ccccc3)cc2)CC1

>  <score_type>  (34) 
oracle

>  <origin>  (34) 
autodockgpu

>  <m_score__min__energy>  (34) 
-8.3699999999999992

>  <m_primary>  (34) 
energy

>  <rmsd>  (34) 
5.042458766201307

>  <m_score__min__rmsd>  (34) 
5.042458766201307

>  <meeko>  (34) 
{"free_energy": -8.01, "intermolecular_energy": -11.0, "internal_energy": -3.02, "cluster_size": 13, "cluster_id": 2, "rank_in_cluster": 9}

>  <energy>  (34) 
-6.76

>  <cluster_rmsd>  (34) 
0.63

>  <cluster>  (34) 
6

$$$$

     RDKit          3D

 70 73  0  0  0  0  0  0  0  0999 V2000
  141.8860   79.6500  215.5450 C   0  0  0  0  0  0  0  0  0  0  0  0
  141.8320   78.1210  215.7440 C   0  0  0  0  0  0  0  0  0  0  0  0
  142.3620   77.8140  217.1240 C   0  0  0  0  0  0  0  0  0  0  0  0
  143.5080   77.2720  217.1010 O   0  0  0  0  0  0  0  0  0  0  0  0
  141.6370   78.1120  218.3010 N   0  0  0  0  0  0  0  0  0  0  0  0
  141.3060   79.4170  218.7400 C   0  0  0  0  0  0  0  0  0  0  0  0
  140.0740   79.9870  218.4210 C   0  0  0  0  0  0  0  0  0  0  0  0
  139.7330   81.2720  218.8510 C   0  0  0  0  0  0  0  0  0  0  0  0
  140.5840   82.0380  219.6090 C   0  0  0  0  0  0  0  0  0  0  0  0
  141.8020   81.4890  219.9310 C   0  0  0  0  0  0  0  0  0  0  0  0
  142.1440   80.2030  219.4990 C   0  0  0  0  0  0  0  0  0  0  0  0
  141.2360   76.9320  219.0960 C   0  0  0  0  0  0  0  0  0  0  0  0
  140.5180   75.9680  218.2410 C   0  0  0  0  0  0  0  0  0  0  0  0
  140.6310   74.5100  218.6600 C   0  0  0  0  0  0  0  0  0  0  0  0
  140.9560   74.5380  220.0650 N   0  0  0  0  0  0  0  0  0  0  0  0
  140.1530   74.1720  221.1500 C   0  0  0  0  0  0  0  0  0  0  0  0
  140.6990   74.3030  222.3220 O   0  0  0  0  0  0  0  0  0  0  0  0
  138.7900   73.6630  221.1710 C   0  0  1  0  0  0  0  0  0  0  0  0
  138.3840   72.9650  222.3450 N   0  0  0  0  0  0  0  0  0  0  0  0
  137.7630   74.6890  220.7180 C   0  0  0  0  0  0  0  0  0  0  0  0
  138.1130   76.0500  221.2370 C   0  0  0  0  0  0  0  0  0  0  0  0
  138.3430   77.0820  220.3550 C   0  0  0  0  0  0  0  0  0  0  0  0
  138.6770   78.3510  220.8090 C   0  0  0  0  0  0  0  0  0  0  0  0
  138.7660   78.5250  222.1960 C   0  0  0  0  0  0  0  0  0  0  0  0
  139.1180   79.8960  222.6630 C   0  0  0  0  0  0  0  0  0  0  0  0
  140.5560   80.0600  222.9160 C   0  0  0  0  0  0  0  0  0  0  0  0
  141.5340   79.1640  222.5710 C   0  0  0  0  0  0  0  0  0  0  0  0
  142.8700   79.4030  222.8560 C   0  0  0  0  0  0  0  0  0  0  0  0
  143.2570   80.5800  223.5150 C   0  0  0  0  0  0  0  0  0  0  0  0
  142.2570   81.4890  223.8650 C   0  0  0  0  0  0  0  0  0  0  0  0
  140.9570   81.2180  223.5650 C   0  0  0  0  0  0  0  0  0  0  0  0
  138.5360   77.4930  223.0790 C   0  0  0  0  0  0  0  0  0  0  0  0
  138.1990   76.2120  222.6170 C   0  0  0  0  0  0  0  0  0  0  0  0
  142.3320   75.0460  220.3340 C   0  0  0  0  0  0  0  0  0  0  0  0
  142.4100   76.4890  219.8830 C   0  0  0  0  0  0  0  0  0  0  0  0
  141.9036   80.1471  216.5261 H   0  0  0  0  0  0  0  0  0  0  0  0
  142.7941   79.9148  214.9835 H   0  0  0  0  0  0  0  0  0  0  0  0
  140.9989   79.9782  214.9835 H   0  0  0  0  0  0  0  0  0  0  0  0
  140.7936   77.7690  215.6555 H   0  0  0  0  0  0  0  0  0  0  0  0
  142.4378   77.6132  214.9790 H   0  0  0  0  0  0  0  0  0  0  0  0
  139.3552   79.4128  217.8180 H   0  0  0  0  0  0  0  0  0  0  0  0
  138.7513   81.6832  218.5734 H   0  0  0  0  0  0  0  0  0  0  0  0
  140.3030   83.0474  219.9440 H   0  0  0  0  0  0  0  0  0  0  0  0
  142.5163   82.0674  220.5354 H   0  0  0  0  0  0  0  0  0  0  0  0
  143.1288   79.8008  219.7789 H   0  0  0  0  0  0  0  0  0  0  0  0
  140.4774   77.1349  219.8663 H   0  0  0  0  0  0  0  0  0  0  0  0
  139.4522   76.2400  218.2447 H   0  0  0  0  0  0  0  0  0  0  0  0
  140.9892   76.0346  217.2493 H   0  0  0  0  0  0  0  0  0  0  0  0
  139.6769   73.9877  218.4963 H   0  0  0  0  0  0  0  0  0  0  0  0
  141.3933   73.9747  218.0749 H   0  0  0  0  0  0  0  0  0  0  0  0
  138.8250   72.8687  220.4109 H   0  0  0  0  0  0  0  0  0  0  0  0
  139.1310   72.9360  223.0970 H   0  0  0  0  0  0  0  0  0  0  0  0
  137.6020   73.5260  222.7990 H   0  0  0  0  0  0  0  0  0  0  0  0
  137.7399   74.7163  219.6186 H   0  0  0  0  0  0  0  0  0  0  0  0
  136.7771   74.4018  221.1123 H   0  0  0  0  0  0  0  0  0  0  0  0
  138.2608   76.8982  219.2736 H   0  0  0  0  0  0  0  0  0  0  0  0
  138.8631   79.1812  220.1117 H   0  0  0  0  0  0  0  0  0  0  0  0
  138.8121   80.6190  221.8925 H   0  0  0  0  0  0  0  0  0  0  0  0
  138.5929   80.0666  223.6144 H   0  0  0  0  0  0  0  0  0  0  0  0
  141.2527   78.2336  222.0560 H   0  0  0  0  0  0  0  0  0  0  0  0
  143.6315   78.6650  222.5635 H   0  0  0  0  0  0  0  0  0  0  0  0
  144.3133   80.7797  223.7480 H   0  0  0  0  0  0  0  0  0  0  0  0
  142.5192   82.4234  224.3828 H   0  0  0  0  0  0  0  0  0  0  0  0
  140.1889   81.9518  223.8507 H   0  0  0  0  0  0  0  0  0  0  0  0
  138.6176   77.6758  224.1606 H   0  0  0  0  0  0  0  0  0  0  0  0
  138.0123   75.3782  223.3097 H   0  0  0  0  0  0  0  0  0  0  0  0
  142.5469   74.9820  221.4109 H   0  0  0  0  0  0  0  0  0  0  0  0
  143.0700   74.4406  219.7873 H   0  0  0  0  0  0  0  0  0  0  0  0
  142.4909   77.1276  220.7750 H   0  0  0  0  0  0  0  0  0  0  0  0
  143.2877   76.5728  219.2252 H   0  0  0  0  0  0  0  0  0  0  0  0
  1  2  1  0
  2  3  1  0
  3  4  2  0
  3  5  1  0
  5  6  1  0
  6  7  2  0
  7  8  1  0
  8  9  2  0
  9 10  1  0
 10 11  2  0
  5 12  1  0
 12 13  1  0
 13 14  1  0
 14 15  1  0
 15 16  1  0
 16 17  2  0
 16 18  1  0
 18 19  1  0
 18 20  1  0
 20 21  1  0
 21 22  2  0
 22 23  1  0
 23 24  2  0
 24 25  1  0
 25 26  1  0
 26 27  2  0
 27 28  1  0
 28 29  2  0
 29 30  1  0
 30 31  2  0
 24 32  1  0
 32 33  2  0
 15 34  1  0
 34 35  1  0
 11  6  1  0
 35 12  1  0
 33 21  1  0
 31 26  1  0
  1 36  1  0
  1 37  1  0
  1 38  1  0
  2 39  1  0
  2 40  1  0
  7 41  1  0
  8 42  1  0
  9 43  1  0
 10 44  1  0
 11 45  1  0
 12 46  1  0
 13 47  1  0
 13 48  1  0
 14 49  1  0
 14 50  1  0
 18 51  1  6
 19 52  1  0
 19 53  1  0
 20 54  1  0
 20 55  1  0
 22 56  1  0
 23 57  1  0
 25 58  1  0
 25 59  1  0
 27 60  1  0
 28 61  1  0
 29 62  1  0
 30 63  1  0
 31 64  1  0
 32 65  1  0
 33 66  1  0
 34 67  1  0
 34 68  1  0
 35 69  1  0
 35 70  1  0
M  END
>  <smiles>  (35) 
CCC(=O)N(c1ccccc1)C1CCN(C(=O)[C@@H](N)Cc2ccc(Cc3ccccc3)cc2)CC1

>  <score_type>  (35) 
oracle

>  <origin>  (35) 
autodockgpu

>  <m_score__min__energy>  (35) 
-8.3699999999999992

>  <m_primary>  (35) 
energy

>  <rmsd>  (35) 
5.008852847438161

>  <m_score__min__rmsd>  (35) 
5.008852847438161

>  <meeko>  (35) 
{"free_energy": -6.11, "intermolecular_energy": -9.1, "internal_energy": -5.09, "cluster_size": 29, "cluster_id": 6, "rank_in_cluster": 24}

>  <energy>  (35) 
-6.73

>  <cluster_rmsd>  (35) 
0.39

>  <cluster>  (35) 
6

$$$$

     RDKit          3D

 70 73  0  0  0  0  0  0  0  0999 V2000
  141.0100   77.6160  215.4970 C   0  0  0  0  0  0  0  0  0  0  0  0
  142.5520   77.5920  215.5450 C   0  0  0  0  0  0  0  0  0  0  0  0
  142.9660   77.1350  216.9230 C   0  0  0  0  0  0  0  0  0  0  0  0
  143.9460   76.3320  216.9010 O   0  0  0  0  0  0  0  0  0  0  0  0
  142.3130   77.5760  218.0980 N   0  0  0  0  0  0  0  0  0  0  0  0
  142.1540   78.9300  218.4780 C   0  0  0  0  0  0  0  0  0  0  0  0
  141.7690   79.2670  219.7740 C   0  0  0  0  0  0  0  0  0  0  0  0
  141.6130   80.6000  220.1640 C   0  0  0  0  0  0  0  0  0  0  0  0
  141.8310   81.6440  219.3000 C   0  0  0  0  0  0  0  0  0  0  0  0
  142.2110   81.3260  218.0180 C   0  0  0  0  0  0  0  0  0  0  0  0
  142.3660   79.9920  217.6270 C   0  0  0  0  0  0  0  0  0  0  0  0
  141.7930   76.4920  218.9590 C   0  0  0  0  0  0  0  0  0  0  0  0
  141.0640   75.5040  218.1410 C   0  0  0  0  0  0  0  0  0  0  0  0
  141.0600   74.0820  218.6820 C   0  0  0  0  0  0  0  0  0  0  0  0
  141.3050   74.2090  220.0970 N   0  0  0  0  0  0  0  0  0  0  0  0
  140.4190   73.9830  221.1560 C   0  0  0  0  0  0  0  0  0  0  0  0
  140.9040   74.1810  222.3460 O   0  0  0  0  0  0  0  0  0  0  0  0
  139.0280   73.5590  221.1320 C   0  0  1  0  0  0  0  0  0  0  0  0
  138.5030   73.0120  222.3400 N   0  0  0  0  0  0  0  0  0  0  0  0
  138.1000   74.5910  220.5080 C   0  0  0  0  0  0  0  0  0  0  0  0
  138.3190   75.9380  221.1250 C   0  0  0  0  0  0  0  0  0  0  0  0
  138.1170   76.1140  222.4760 C   0  0  0  0  0  0  0  0  0  0  0  0
  138.3050   77.3540  223.0720 C   0  0  0  0  0  0  0  0  0  0  0  0
  138.7070   78.4040  222.2370 C   0  0  0  0  0  0  0  0  0  0  0  0
  138.9120   79.7240  222.8980 C   0  0  0  0  0  0  0  0  0  0  0  0
  140.3280   80.0200  223.1550 C   0  0  0  0  0  0  0  0  0  0  0  0
  140.8440   81.2520  223.4590 C   0  0  0  0  0  0  0  0  0  0  0  0
  142.2000   81.4360  223.6810 C   0  0  0  0  0  0  0  0  0  0  0  0
  143.0880   80.3530  223.5960 C   0  0  0  0  0  0  0  0  0  0  0  0
  142.5580   79.0990  223.2850 C   0  0  0  0  0  0  0  0  0  0  0  0
  141.2210   78.9600  223.0750 C   0  0  0  0  0  0  0  0  0  0  0  0
  138.9100   78.2290  220.8860 C   0  0  0  0  0  0  0  0  0  0  0  0
  138.7190   76.9740  220.2870 C   0  0  0  0  0  0  0  0  0  0  0  0
  142.6930   74.6560  220.4110 C   0  0  0  0  0  0  0  0  0  0  0  0
  142.8880   76.0490  219.8500 C   0  0  0  0  0  0  0  0  0  0  0  0
  140.6113   77.6222  216.5222 H   0  0  0  0  0  0  0  0  0  0  0  0
  140.6737   78.5195  214.9673 H   0  0  0  0  0  0  0  0  0  0  0  0
  140.6457   76.7234  214.9673 H   0  0  0  0  0  0  0  0  0  0  0  0
  142.9387   76.8941  214.7878 H   0  0  0  0  0  0  0  0  0  0  0  0
  142.9576   78.5927  215.3351 H   0  0  0  0  0  0  0  0  0  0  0  0
  141.5839   78.4669  220.5058 H   0  0  0  0  0  0  0  0  0  0  0  0
  141.3055   80.8196  221.1971 H   0  0  0  0  0  0  0  0  0  0  0  0
  141.7070   82.6892  219.6196 H   0  0  0  0  0  0  0  0  0  0  0  0
  142.3955   82.1303  217.2907 H   0  0  0  0  0  0  0  0  0  0  0  0
  142.6715   79.7812  216.5915 H   0  0  0  0  0  0  0  0  0  0  0  0
  141.0065   76.8026  219.6624 H   0  0  0  0  0  0  0  0  0  0  0  0
  140.0192   75.8379  218.0574 H   0  0  0  0  0  0  0  0  0  0  0  0
  141.5933   75.4595  217.1778 H   0  0  0  0  0  0  0  0  0  0  0  0
  140.0856   73.6045  218.5016 H   0  0  0  0  0  0  0  0  0  0  0  0
  141.8190   73.4556  218.1905 H   0  0  0  0  0  0  0  0  0  0  0  0
  139.0599   72.6893  220.4593 H   0  0  0  0  0  0  0  0  0  0  0  0
  139.2160   72.9590  223.1230 H   0  0  0  0  0  0  0  0  0  0  0  0
  137.7790   73.6950  222.7140 H   0  0  0  0  0  0  0  0  0  0  0  0
  138.3002   74.6511  219.4280 H   0  0  0  0  0  0  0  0  0  0  0  0
  137.0585   74.2847  220.6853 H   0  0  0  0  0  0  0  0  0  0  0  0
  137.8019   75.2591  223.0923 H   0  0  0  0  0  0  0  0  0  0  0  0
  138.1456   77.5046  224.1499 H   0  0  0  0  0  0  0  0  0  0  0  0
  138.5014   80.5101  222.2473 H   0  0  0  0  0  0  0  0  0  0  0  0
  138.3997   79.6896  223.8708 H   0  0  0  0  0  0  0  0  0  0  0  0
  140.1664   82.1157  223.5286 H   0  0  0  0  0  0  0  0  0  0  0  0
  142.5824   82.4380  223.9255 H   0  0  0  0  0  0  0  0  0  0  0  0
  144.1660   80.4873  223.7686 H   0  0  0  0  0  0  0  0  0  0  0  0
  143.2209   78.2244  223.2099 H   0  0  0  0  0  0  0  0  0  0  0  0
  140.8294   77.9616  222.8305 H   0  0  0  0  0  0  0  0  0  0  0  0
  139.2257   79.0831  220.2689 H   0  0  0  0  0  0  0  0  0  0  0  0
  138.8775   76.8176  219.2098 H   0  0  0  0  0  0  0  0  0  0  0  0
  142.8403   74.6710  221.5010 H   0  0  0  0  0  0  0  0  0  0  0  0
  143.4219   73.9642  219.9636 H   0  0  0  0  0  0  0  0  0  0  0  0
  142.9582   76.7549  220.6907 H   0  0  0  0  0  0  0  0  0  0  0  0
  143.8052   76.0248  219.2432 H   0  0  0  0  0  0  0  0  0  0  0  0
  1  2  1  0
  2  3  1  0
  3  4  2  0
  3  5  1  0
  5  6  1  0
  6  7  2  0
  7  8  1  0
  8  9  2  0
  9 10  1  0
 10 11  2  0
  5 12  1  0
 12 13  1  0
 13 14  1  0
 14 15  1  0
 15 16  1  0
 16 17  2  0
 16 18  1  0
 18 19  1  0
 18 20  1  0
 20 21  1  0
 21 22  2  0
 22 23  1  0
 23 24  2  0
 24 25  1  0
 25 26  1  0
 26 27  2  0
 27 28  1  0
 28 29  2  0
 29 30  1  0
 30 31  2  0
 24 32  1  0
 32 33  2  0
 15 34  1  0
 34 35  1  0
 11  6  1  0
 35 12  1  0
 33 21  1  0
 31 26  1  0
  1 36  1  0
  1 37  1  0
  1 38  1  0
  2 39  1  0
  2 40  1  0
  7 41  1  0
  8 42  1  0
  9 43  1  0
 10 44  1  0
 11 45  1  0
 12 46  1  0
 13 47  1  0
 13 48  1  0
 14 49  1  0
 14 50  1  0
 18 51  1  6
 19 52  1  0
 19 53  1  0
 20 54  1  0
 20 55  1  0
 22 56  1  0
 23 57  1  0
 25 58  1  0
 25 59  1  0
 27 60  1  0
 28 61  1  0
 29 62  1  0
 30 63  1  0
 31 64  1  0
 32 65  1  0
 33 66  1  0
 34 67  1  0
 34 68  1  0
 35 69  1  0
 35 70  1  0
M  END
>  <smiles>  (36) 
CCC(=O)N(c1ccccc1)C1CCN(C(=O)[C@@H](N)Cc2ccc(Cc3ccccc3)cc2)CC1

>  <score_type>  (36) 
oracle

>  <origin>  (36) 
autodockgpu

>  <m_score__min__energy>  (36) 
-8.3699999999999992

>  <m_primary>  (36) 
energy

>  <rmsd>  (36) 
5.188878448301751

>  <m_score__min__rmsd>  (36) 
5.188878448301751

>  <meeko>  (36) 
{"free_energy": -6.9, "intermolecular_energy": -9.88, "internal_energy": -4.6, "cluster_size": 29, "cluster_id": 6, "rank_in_cluster": 9}

>  <energy>  (36) 
-6.63

>  <cluster_rmsd>  (36) 
0.35

>  <cluster>  (36) 
6

$$$$

     RDKit          3D

 70 73  0  0  0  0  0  0  0  0999 V2000
  146.3420   73.0650  221.6780 C   0  0  0  0  0  0  0  0  0  0  0  0
  145.8200   73.9650  220.5380 C   0  0  0  0  0  0  0  0  0  0  0  0
  145.4200   73.0710  219.3880 C   0  0  0  0  0  0  0  0  0  0  0  0
  146.0200   73.3610  218.3100 O   0  0  0  0  0  0  0  0  0  0  0  0
  144.4750   72.0280  219.5290 N   0  0  0  0  0  0  0  0  0  0  0  0
  144.7840   70.6460  219.5060 C   0  0  0  0  0  0  0  0  0  0  0  0
  145.9970   70.1950  218.9880 C   0  0  0  0  0  0  0  0  0  0  0  0
  146.3160   68.8350  218.9620 C   0  0  0  0  0  0  0  0  0  0  0  0
  145.4610   67.8750  219.4440 C   0  0  0  0  0  0  0  0  0  0  0  0
  144.2620   68.3060  219.9580 C   0  0  0  0  0  0  0  0  0  0  0  0
  143.9410   69.6680  219.9820 C   0  0  0  0  0  0  0  0  0  0  0  0
  143.0770   72.4790  219.6930 C   0  0  0  0  0  0  0  0  0  0  0  0
  143.0030   73.5260  220.7290 C   0  0  0  0  0  0  0  0  0  0  0  0
  141.8710   74.5300  220.5660 C   0  0  0  0  0  0  0  0  0  0  0  0
  140.8790   73.8620  219.7600 N   0  0  0  0  0  0  0  0  0  0  0  0
  139.6170   73.3950  220.1430 C   0  0  0  0  0  0  0  0  0  0  0  0
  138.9230   72.8190  219.2070 O   0  0  0  0  0  0  0  0  0  0  0  0
  138.9570   73.4550  221.4390 C   0  0  1  0  0  0  0  0  0  0  0  0
  139.7850   73.7150  222.5690 N   0  0  0  0  0  0  0  0  0  0  0  0
  137.6990   74.3100  221.4280 C   0  0  0  0  0  0  0  0  0  0  0  0
  138.0390   75.7500  221.6640 C   0  0  0  0  0  0  0  0  0  0  0  0
  138.7590   76.4480  220.7210 C   0  0  0  0  0  0  0  0  0  0  0  0
  139.0940   77.7810  220.9180 C   0  0  0  0  0  0  0  0  0  0  0  0
  138.6650   78.3720  222.1130 C   0  0  0  0  0  0  0  0  0  0  0  0
  139.0280   79.8060  222.3020 C   0  0  0  0  0  0  0  0  0  0  0  0
  140.3900   79.9840  222.8240 C   0  0  0  0  0  0  0  0  0  0  0  0
  141.3340   78.9970  222.9450 C   0  0  0  0  0  0  0  0  0  0  0  0
  142.5960   79.2600  223.4560 C   0  0  0  0  0  0  0  0  0  0  0  0
  142.9410   80.5560  223.8670 C   0  0  0  0  0  0  0  0  0  0  0  0
  141.9770   81.5570  223.7420 C   0  0  0  0  0  0  0  0  0  0  0  0
  140.7500   81.2600  223.2340 C   0  0  0  0  0  0  0  0  0  0  0  0
  137.9430   77.6750  223.0570 C   0  0  0  0  0  0  0  0  0  0  0  0
  137.6070   76.3280  222.8540 C   0  0  0  0  0  0  0  0  0  0  0  0
  141.3170   73.6560  218.3490 C   0  0  0  0  0  0  0  0  0  0  0  0
  142.5160   72.7310  218.3470 C   0  0  0  0  0  0  0  0  0  0  0  0
  146.0817   73.5138  222.6479 H   0  0  0  0  0  0  0  0  0  0  0  0
  145.8812   72.0693  221.5993 H   0  0  0  0  0  0  0  0  0  0  0  0
  147.4351   72.9705  221.5993 H   0  0  0  0  0  0  0  0  0  0  0  0
  144.9490   74.5403  220.8848 H   0  0  0  0  0  0  0  0  0  0  0  0
  146.5999   74.6727  220.2203 H   0  0  0  0  0  0  0  0  0  0  0  0
  146.7180   70.9250  218.5915 H   0  0  0  0  0  0  0  0  0  0  0  0
  147.2836   68.5233  218.5417 H   0  0  0  0  0  0  0  0  0  0  0  0
  145.7245   66.8073  219.4197 H   0  0  0  0  0  0  0  0  0  0  0  0
  143.5457   67.5718  220.3554 H   0  0  0  0  0  0  0  0  0  0  0  0
  142.9699   69.9708  220.4007 H   0  0  0  0  0  0  0  0  0  0  0  0
  142.3972   71.7222  220.1115 H   0  0  0  0  0  0  0  0  0  0  0  0
  142.8790   73.0306  221.7033 H   0  0  0  0  0  0  0  0  0  0  0  0
  143.9346   74.1043  220.6411 H   0  0  0  0  0  0  0  0  0  0  0  0
  141.4519   74.7999  221.5466 H   0  0  0  0  0  0  0  0  0  0  0  0
  142.2168   75.4636  220.0982 H   0  0  0  0  0  0  0  0  0  0  0  0
  138.6488   72.4105  221.5942 H   0  0  0  0  0  0  0  0  0  0  0  0
  139.5210   74.6000  223.0900 H   0  0  0  0  0  0  0  0  0  0  0  0
  139.6040   72.9470  223.2840 H   0  0  0  0  0  0  0  0  0  0  0  0
  137.2029   74.2109  220.4512 H   0  0  0  0  0  0  0  0  0  0  0  0
  137.0297   73.9671  222.2308 H   0  0  0  0  0  0  0  0  0  0  0  0
  139.0740   75.9417  219.7966 H   0  0  0  0  0  0  0  0  0  0  0  0
  139.6695   78.3465  220.1703 H   0  0  0  0  0  0  0  0  0  0  0  0
  138.9537   80.3183  221.3314 H   0  0  0  0  0  0  0  0  0  0  0  0
  138.3319   80.2295  223.0409 H   0  0  0  0  0  0  0  0  0  0  0  0
  141.0846   77.9732  222.6295 H   0  0  0  0  0  0  0  0  0  0  0  0
  143.3317   78.4466  223.5396 H   0  0  0  0  0  0  0  0  0  0  0  0
  143.9388   80.7760  224.2745 H   0  0  0  0  0  0  0  0  0  0  0  0
  142.2088   82.5860  224.0540 H   0  0  0  0  0  0  0  0  0  0  0  0
  140.0095   82.0685  223.1442 H   0  0  0  0  0  0  0  0  0  0  0  0
  137.6261   78.1807  223.9810 H   0  0  0  0  0  0  0  0  0  0  0  0
  137.0312   75.7577  223.5978 H   0  0  0  0  0  0  0  0  0  0  0  0
  140.4989   73.2039  217.7690 H   0  0  0  0  0  0  0  0  0  0  0  0
  141.5851   74.6207  217.8934 H   0  0  0  0  0  0  0  0  0  0  0  0
  142.2104   71.7678  217.9125 H   0  0  0  0  0  0  0  0  0  0  0  0
  143.3026   73.2267  217.7593 H   0  0  0  0  0  0  0  0  0  0  0  0
  1  2  1  0
  2  3  1  0
  3  4  2  0
  3  5  1  0
  5  6  1  0
  6  7  2  0
  7  8  1  0
  8  9  2  0
  9 10  1  0
 10 11  2  0
  5 12  1  0
 12 13  1  0
 13 14  1  0
 14 15  1  0
 15 16  1  0
 16 17  2  0
 16 18  1  0
 18 19  1  0
 18 20  1  0
 20 21  1  0
 21 22  2  0
 22 23  1  0
 23 24  2  0
 24 25  1  0
 25 26  1  0
 26 27  2  0
 27 28  1  0
 28 29  2  0
 29 30  1  0
 30 31  2  0
 24 32  1  0
 32 33  2  0
 15 34  1  0
 34 35  1  0
 11  6  1  0
 35 12  1  0
 33 21  1  0
 31 26  1  0
  1 36  1  0
  1 37  1  0
  1 38  1  0
  2 39  1  0
  2 40  1  0
  7 41  1  0
  8 42  1  0
  9 43  1  0
 10 44  1  0
 11 45  1  0
 12 46  1  0
 13 47  1  0
 13 48  1  0
 14 49  1  0
 14 50  1  0
 18 51  1  1
 19 52  1  0
 19 53  1  0
 20 54  1  0
 20 55  1  0
 22 56  1  0
 23 57  1  0
 25 58  1  0
 25 59  1  0
 27 60  1  0
 28 61  1  0
 29 62  1  0
 30 63  1  0
 31 64  1  0
 32 65  1  0
 33 66  1  0
 34 67  1  0
 34 68  1  0
 35 69  1  0
 35 70  1  0
M  END
>  <smiles>  (37) 
CCC(=O)N(c1ccccc1)C1CCN(C(=O)[C@@H](N)Cc2ccc(Cc3ccccc3)cc2)CC1

>  <score_type>  (37) 
oracle

>  <origin>  (37) 
autodockgpu

>  <m_score__min__energy>  (37) 
-8.3699999999999992

>  <m_primary>  (37) 
energy

>  <rmsd>  (37) 
6.682440002682065

>  <m_score__min__rmsd>  (37) 
6.682440002682065

>  <meeko>  (37) 
{"free_energy": -8.37, "intermolecular_energy": -11.35, "internal_energy": -2.01, "cluster_size": 1, "cluster_id": 1, "rank_in_cluster": 1}

>  <energy>  (37) 
-6.27

>  <cluster_rmsd>  (37) 
0.81

>  <cluster>  (37) 
6

$$$$

     RDKit          3D

 70 73  0  0  0  0  0  0  0  0999 V2000
  143.3550   76.1050  219.7180 C   0  0  0  0  0  0  0  0  0  0  0  0
  141.9980   76.6110  219.1850 C   0  0  0  0  0  0  0  0  0  0  0  0
  141.8170   78.0340  219.6560 C   0  0  0  0  0  0  0  0  0  0  0  0
  142.3900   78.8780  218.9030 O   0  0  0  0  0  0  0  0  0  0  0  0
  141.0790   78.3620  220.8170 N   0  0  0  0  0  0  0  0  0  0  0  0
  141.4570   79.3410  221.7680 C   0  0  0  0  0  0  0  0  0  0  0  0
  141.8930   78.9690  223.0390 C   0  0  0  0  0  0  0  0  0  0  0  0
  142.2740   79.9240  223.9860 C   0  0  0  0  0  0  0  0  0  0  0  0
  142.2410   81.2700  223.7190 C   0  0  0  0  0  0  0  0  0  0  0  0
  141.8120   81.6500  222.4700 C   0  0  0  0  0  0  0  0  0  0  0  0
  141.4300   80.6950  221.5220 C   0  0  0  0  0  0  0  0  0  0  0  0
  139.8390   77.5790  221.0030 C   0  0  0  0  0  0  0  0  0  0  0  0
  140.0770   76.4780  221.9560 C   0  0  0  0  0  0  0  0  0  0  0  0
  138.8610   76.0270  222.7520 C   0  0  0  0  0  0  0  0  0  0  0  0
  137.7190   76.4320  221.9700 N   0  0  0  0  0  0  0  0  0  0  0  0
  136.8180   75.6260  221.2660 C   0  0  0  0  0  0  0  0  0  0  0  0
  135.8740   76.2580  220.6350 O   0  0  0  0  0  0  0  0  0  0  0  0
  136.7740   74.1780  221.1290 C   0  0  1  0  0  0  0  0  0  0  0  0
  135.6540   73.6330  220.4360 N   0  0  0  0  0  0  0  0  0  0  0  0
  138.0940   73.5830  220.6620 C   0  0  0  0  0  0  0  0  0  0  0  0
  138.6540   72.6600  221.7010 C   0  0  0  0  0  0  0  0  0  0  0  0
  140.0080   72.6500  221.9500 C   0  0  0  0  0  0  0  0  0  0  0  0
  140.5540   71.7990  222.9020 C   0  0  0  0  0  0  0  0  0  0  0  0
  139.6650   70.9630  223.5880 C   0  0  0  0  0  0  0  0  0  0  0  0
  140.2710   70.0630  224.6110 C   0  0  0  0  0  0  0  0  0  0  0  0
  140.4940   70.7350  225.8990 C   0  0  0  0  0  0  0  0  0  0  0  0
  141.2460   71.8650  226.0900 C   0  0  0  0  0  0  0  0  0  0  0  0
  141.4040   72.4270  227.3480 C   0  0  0  0  0  0  0  0  0  0  0  0
  140.7930   71.8450  228.4690 C   0  0  0  0  0  0  0  0  0  0  0  0
  140.0290   70.6940  228.2700 C   0  0  0  0  0  0  0  0  0  0  0  0
  139.8970   70.1740  227.0190 C   0  0  0  0  0  0  0  0  0  0  0  0
  138.3100   70.9730  223.3400 C   0  0  0  0  0  0  0  0  0  0  0  0
  137.7620   71.8330  222.3770 C   0  0  0  0  0  0  0  0  0  0  0  0
  137.5340   77.9110  221.9320 C   0  0  0  0  0  0  0  0  0  0  0  0
  138.7270   78.5280  221.2350 C   0  0  0  0  0  0  0  0  0  0  0  0
  143.3418   76.1099  220.8179 H   0  0  0  0  0  0  0  0  0  0  0  0
  143.5314   75.0807  219.3580 H   0  0  0  0  0  0  0  0  0  0  0  0
  144.1590   76.7638  219.3580 H   0  0  0  0  0  0  0  0  0  0  0  0
  141.9921   76.5774  218.0855 H   0  0  0  0  0  0  0  0  0  0  0  0
  141.1795   75.9770  219.5564 H   0  0  0  0  0  0  0  0  0  0  0  0
  141.9381   77.9019  223.3020 H   0  0  0  0  0  0  0  0  0  0  0  0
  142.6111   79.5860  224.9770 H   0  0  0  0  0  0  0  0  0  0  0  0
  142.5447   82.0121  224.4720 H   0  0  0  0  0  0  0  0  0  0  0  0
  141.7685   82.7185  222.2125 H   0  0  0  0  0  0  0  0  0  0  0  0
  141.0924   81.0421  220.5343 H   0  0  0  0  0  0  0  0  0  0  0  0
  139.5119   77.0209  220.1134 H   0  0  0  0  0  0  0  0  0  0  0  0
  140.4504   75.6130  221.3883 H   0  0  0  0  0  0  0  0  0  0  0  0
  140.7942   76.8667  222.6940 H   0  0  0  0  0  0  0  0  0  0  0  0
  138.8701   74.9348  222.8826 H   0  0  0  0  0  0  0  0  0  0  0  0
  138.8445   76.4692  223.7591 H   0  0  0  0  0  0  0  0  0  0  0  0
  136.6077   73.8493  222.1655 H   0  0  0  0  0  0  0  0  0  0  0  0
  134.8100   73.4740  221.0580 H   0  0  0  0  0  0  0  0  0  0  0  0
  135.3140   74.3680  219.7460 H   0  0  0  0  0  0  0  0  0  0  0  0
  137.9279   73.0210  219.7311 H   0  0  0  0  0  0  0  0  0  0  0  0
  138.8102   74.4002  220.4908 H   0  0  0  0  0  0  0  0  0  0  0  0
  140.6674   73.3264  221.3863 H   0  0  0  0  0  0  0  0  0  0  0  0
  141.6345   71.7826  223.1074 H   0  0  0  0  0  0  0  0  0  0  0  0
  139.5964   69.2092  224.7720 H   0  0  0  0  0  0  0  0  0  0  0  0
  141.2517   69.7415  224.2305 H   0  0  0  0  0  0  0  0  0  0  0  0
  141.7355   72.3370  225.2254 H   0  0  0  0  0  0  0  0  0  0  0  0
  142.0126   73.3354  227.4678 H   0  0  0  0  0  0  0  0  0  0  0  0
  140.9122   72.2815  229.4716 H   0  0  0  0  0  0  0  0  0  0  0  0
  139.5340   70.2075  229.1234 H   0  0  0  0  0  0  0  0  0  0  0  0
  139.2887   69.2667  226.8898 H   0  0  0  0  0  0  0  0  0  0  0  0
  137.6496   70.2981  223.9042 H   0  0  0  0  0  0  0  0  0  0  0  0
  136.6824   71.8527  222.1669 H   0  0  0  0  0  0  0  0  0  0  0  0
  136.6146   78.1556  221.3798 H   0  0  0  0  0  0  0  0  0  0  0  0
  137.4503   78.3061  222.9552 H   0  0  0  0  0  0  0  0  0  0  0  0
  138.3961   78.9193  220.2617 H   0  0  0  0  0  0  0  0  0  0  0  0
  139.1121   79.3177  221.8969 H   0  0  0  0  0  0  0  0  0  0  0  0
  1  2  1  0
  2  3  1  0
  3  4  2  0
  3  5  1  0
  5  6  1  0
  6  7  2  0
  7  8  1  0
  8  9  2  0
  9 10  1  0
 10 11  2  0
  5 12  1  0
 12 13  1  0
 13 14  1  0
 14 15  1  0
 15 16  1  0
 16 17  2  0
 16 18  1  0
 18 19  1  0
 18 20  1  0
 20 21  1  0
 21 22  2  0
 22 23  1  0
 23 24  2  0
 24 25  1  0
 25 26  1  0
 26 27  2  0
 27 28  1  0
 28 29  2  0
 29 30  1  0
 30 31  2  0
 24 32  1  0
 32 33  2  0
 15 34  1  0
 34 35  1  0
 11  6  1  0
 35 12  1  0
 33 21  1  0
 31 26  1  0
  1 36  1  0
  1 37  1  0
  1 38  1  0
  2 39  1  0
  2 40  1  0
  7 41  1  0
  8 42  1  0
  9 43  1  0
 10 44  1  0
 11 45  1  0
 12 46  1  0
 13 47  1  0
 13 48  1  0
 14 49  1  0
 14 50  1  0
 18 51  1  1
 19 52  1  0
 19 53  1  0
 20 54  1  0
 20 55  1  0
 22 56  1  0
 23 57  1  0
 25 58  1  0
 25 59  1  0
 27 60  1  0
 28 61  1  0
 29 62  1  0
 30 63  1  0
 31 64  1  0
 32 65  1  0
 33 66  1  0
 34 67  1  0
 34 68  1  0
 35 69  1  0
 35 70  1  0
M  END
>  <smiles>  (38) 
CCC(=O)N(c1ccccc1)C1CCN(C(=O)[C@@H](N)Cc2ccc(Cc3ccccc3)cc2)CC1

>  <score_type>  (38) 
oracle

>  <origin>  (38) 
autodockgpu

>  <m_score__min__energy>  (38) 
-8.3699999999999992

>  <m_primary>  (38) 
energy

>  <rmsd>  (38) 
5.070250844729711

>  <m_score__min__rmsd>  (38) 
5.070250844729711

>  <meeko>  (38) 
{"free_energy": -7.97, "intermolecular_energy": -10.95, "internal_energy": -3.08, "cluster_size": 13, "cluster_id": 2, "rank_in_cluster": 10}

>  <energy>  (38) 
-6.26

>  <cluster_rmsd>  (38) 
0.77

>  <cluster>  (38) 
6

$$$$

     RDKit          3D

 70 73  0  0  0  0  0  0  0  0999 V2000
  140.7250   78.4450  215.5760 C   0  0  0  0  0  0  0  0  0  0  0  0
  142.1870   78.6930  215.9990 C   0  0  0  0  0  0  0  0  0  0  0  0
  142.4310   77.9440  217.2870 C   0  0  0  0  0  0  0  0  0  0  0  0
  143.3560   77.0840  217.1880 O   0  0  0  0  0  0  0  0  0  0  0  0
  141.6890   78.1970  218.4650 N   0  0  0  0  0  0  0  0  0  0  0  0
  141.3440   79.4830  218.9450 C   0  0  0  0  0  0  0  0  0  0  0  0
  140.1210   80.0640  218.6130 C   0  0  0  0  0  0  0  0  0  0  0  0
  139.7660   81.3310  219.0830 C   0  0  0  0  0  0  0  0  0  0  0  0
  140.5940   82.0680  219.8930 C   0  0  0  0  0  0  0  0  0  0  0  0
  141.8030   81.5070  220.2290 C   0  0  0  0  0  0  0  0  0  0  0  0
  142.1590   80.2390  219.7570 C   0  0  0  0  0  0  0  0  0  0  0  0
  141.2880   76.9870  219.2150 C   0  0  0  0  0  0  0  0  0  0  0  0
  140.5770   76.0530  218.3210 C   0  0  0  0  0  0  0  0  0  0  0  0
  140.6930   74.5810  218.6880 C   0  0  0  0  0  0  0  0  0  0  0  0
  141.0100   74.5590  220.0940 N   0  0  0  0  0  0  0  0  0  0  0  0
  140.2030   74.1510  221.1610 C   0  0  0  0  0  0  0  0  0  0  0  0
  140.7420   74.2410  222.3400 O   0  0  0  0  0  0  0  0  0  0  0  0
  138.8410   73.6370  221.1550 C   0  0  1  0  0  0  0  0  0  0  0  0
  138.4010   72.9760  222.3390 N   0  0  0  0  0  0  0  0  0  0  0  0
  137.8260   74.6450  220.6390 C   0  0  0  0  0  0  0  0  0  0  0  0
  138.1100   76.0100  221.1890 C   0  0  0  0  0  0  0  0  0  0  0  0
  138.2300   76.1890  222.5490 C   0  0  0  0  0  0  0  0  0  0  0  0
  138.4860   77.4440  223.0850 C   0  0  0  0  0  0  0  0  0  0  0  0
  138.6150   78.5050  222.1810 C   0  0  0  0  0  0  0  0  0  0  0  0
  138.8980   79.8420  222.7770 C   0  0  0  0  0  0  0  0  0  0  0  0
  140.3250   80.0500  223.0580 C   0  0  0  0  0  0  0  0  0  0  0  0
  140.8740   81.1760  223.6130 C   0  0  0  0  0  0  0  0  0  0  0  0
  142.2380   81.2840  223.8370 C   0  0  0  0  0  0  0  0  0  0  0  0
  143.1000   80.2320  223.4950 C   0  0  0  0  0  0  0  0  0  0  0  0
  142.5370   79.0870  222.9280 C   0  0  0  0  0  0  0  0  0  0  0  0
  141.1930   79.0190  222.7260 C   0  0  0  0  0  0  0  0  0  0  0  0
  138.4960   78.3270  220.8200 C   0  0  0  0  0  0  0  0  0  0  0  0
  138.2370   77.0570  220.2810 C   0  0  0  0  0  0  0  0  0  0  0  0
  142.3830   75.0610  220.3890 C   0  0  0  0  0  0  0  0  0  0  0  0
  142.4590   76.5190  219.9900 C   0  0  0  0  0  0  0  0  0  0  0  0
  140.0969   78.3385  216.4727 H   0  0  0  0  0  0  0  0  0  0  0  0
  140.3674   79.2953  214.9768 H   0  0  0  0  0  0  0  0  0  0  0  0
  140.6678   77.5243  214.9768 H   0  0  0  0  0  0  0  0  0  0  0  0
  142.8693   78.3259  215.2182 H   0  0  0  0  0  0  0  0  0  0  0  0
  142.3674   79.7687  216.1413 H   0  0  0  0  0  0  0  0  0  0  0  0
  139.4208   79.5134  217.9675 H   0  0  0  0  0  0  0  0  0  0  0  0
  138.7914   81.7517  218.7946 H   0  0  0  0  0  0  0  0  0  0  0  0
  140.3025   83.0642  220.2573 H   0  0  0  0  0  0  0  0  0  0  0  0
  142.4985   82.0613  220.8763 H   0  0  0  0  0  0  0  0  0  0  0  0
  143.1362   79.8267  220.0485 H   0  0  0  0  0  0  0  0  0  0  0  0
  140.5257   77.1591  219.9891 H   0  0  0  0  0  0  0  0  0  0  0  0
  139.5103   76.3215  218.3290 H   0  0  0  0  0  0  0  0  0  0  0  0
  141.0523   76.1573  217.3345 H   0  0  0  0  0  0  0  0  0  0  0  0
  139.7416   74.0617  218.5002 H   0  0  0  0  0  0  0  0  0  0  0  0
  141.4606   74.0699  218.0883 H   0  0  0  0  0  0  0  0  0  0  0  0
  138.9010   72.8193  220.4216 H   0  0  0  0  0  0  0  0  0  0  0  0
  139.1370   72.9400  223.1000 H   0  0  0  0  0  0  0  0  0  0  0  0
  137.6300   73.5680  222.7710 H   0  0  0  0  0  0  0  0  0  0  0  0
  137.8778   74.6800  219.5408 H   0  0  0  0  0  0  0  0  0  0  0  0
  136.8219   74.3343  220.9635 H   0  0  0  0  0  0  0  0  0  0  0  0
  138.1214   75.3248  223.2208 H   0  0  0  0  0  0  0  0  0  0  0  0
  138.5829   77.5974  224.1699 H   0  0  0  0  0  0  0  0  0  0  0  0
  138.5615   80.6184  222.0741 H   0  0  0  0  0  0  0  0  0  0  0  0
  138.3604   79.8978  223.7350 H   0  0  0  0  0  0  0  0  0  0  0  0
  140.2169   82.0144  223.8874 H   0  0  0  0  0  0  0  0  0  0  0  0
  142.6469   82.2012  224.2861 H   0  0  0  0  0  0  0  0  0  0  0  0
  144.1838   80.3064  223.6677 H   0  0  0  0  0  0  0  0  0  0  0  0
  143.1796   78.2403  222.6447 H   0  0  0  0  0  0  0  0  0  0  0  0
  140.7752   78.1049  222.2790 H   0  0  0  0  0  0  0  0  0  0  0  0
  138.6053   79.1906  220.1475 H   0  0  0  0  0  0  0  0  0  0  0  0
  138.1395   76.8976  219.1970 H   0  0  0  0  0  0  0  0  0  0  0  0
  142.5918   74.9595  221.4642 H   0  0  0  0  0  0  0  0  0  0  0  0
  143.1261   74.4775  219.8256 H   0  0  0  0  0  0  0  0  0  0  0  0
  142.5348   77.1255  220.9045 H   0  0  0  0  0  0  0  0  0  0  0  0
  143.3390   76.6281  219.3390 H   0  0  0  0  0  0  0  0  0  0  0  0
  1  2  1  0
  2  3  1  0
  3  4  2  0
  3  5  1  0
  5  6  1  0
  6  7  2  0
  7  8  1  0
  8  9  2  0
  9 10  1  0
 10 11  2  0
  5 12  1  0
 12 13  1  0
 13 14  1  0
 14 15  1  0
 15 16  1  0
 16 17  2  0
 16 18  1  0
 18 19  1  0
 18 20  1  0
 20 21  1  0
 21 22  2  0
 22 23  1  0
 23 24  2  0
 24 25  1  0
 25 26  1  0
 26 27  2  0
 27 28  1  0
 28 29  2  0
 29 30  1  0
 30 31  2  0
 24 32  1  0
 32 33  2  0
 15 34  1  0
 34 35  1  0
 11  6  1  0
 35 12  1  0
 33 21  1  0
 31 26  1  0
  1 36  1  0
  1 37  1  0
  1 38  1  0
  2 39  1  0
  2 40  1  0
  7 41  1  0
  8 42  1  0
  9 43  1  0
 10 44  1  0
 11 45  1  0
 12 46  1  0
 13 47  1  0
 13 48  1  0
 14 49  1  0
 14 50  1  0
 18 51  1  6
 19 52  1  0
 19 53  1  0
 20 54  1  0
 20 55  1  0
 22 56  1  0
 23 57  1  0
 25 58  1  0
 25 59  1  0
 27 60  1  0
 28 61  1  0
 29 62  1  0
 30 63  1  0
 31 64  1  0
 32 65  1  0
 33 66  1  0
 34 67  1  0
 34 68  1  0
 35 69  1  0
 35 70  1  0
M  END
>  <smiles>  (39) 
CCC(=O)N(c1ccccc1)C1CCN(C(=O)[C@@H](N)Cc2ccc(Cc3ccccc3)cc2)CC1

>  <score_type>  (39) 
oracle

>  <origin>  (39) 
autodockgpu

>  <m_score__min__energy>  (39) 
-8.3699999999999992

>  <m_primary>  (39) 
energy

>  <rmsd>  (39) 
5.009861452145407

>  <m_score__min__rmsd>  (39) 
5.009861452145407

>  <meeko>  (39) 
{"free_energy": -6.15, "intermolecular_energy": -9.13, "internal_energy": -5.24, "cluster_size": 29, "cluster_id": 6, "rank_in_cluster": 22}

>  <energy>  (39) 
-6.2

>  <cluster_rmsd>  (39) 
0.79

>  <cluster>  (39) 
6

$$$$

     RDKit          3D

 70 73  0  0  0  0  0  0  0  0999 V2000
  142.5740   79.9410  218.2420 C   0  0  0  0  0  0  0  0  0  0  0  0
  141.6810   78.6840  218.2630 C   0  0  0  0  0  0  0  0  0  0  0  0
  141.8960   77.9850  219.5850 C   0  0  0  0  0  0  0  0  0  0  0  0
  142.7720   77.0710  219.5210 O   0  0  0  0  0  0  0  0  0  0  0  0
  141.1810   78.3350  220.7540 N   0  0  0  0  0  0  0  0  0  0  0  0
  141.5880   79.3170  221.6900 C   0  0  0  0  0  0  0  0  0  0  0  0
  141.4500   80.6740  221.4050 C   0  0  0  0  0  0  0  0  0  0  0  0
  141.8440   81.6540  222.3200 C   0  0  0  0  0  0  0  0  0  0  0  0
  142.3830   81.3360  223.5420 C   0  0  0  0  0  0  0  0  0  0  0  0
  142.5250   80.0020  223.8360 C   0  0  0  0  0  0  0  0  0  0  0  0
  142.1320   79.0210  222.9190 C   0  0  0  0  0  0  0  0  0  0  0  0
  139.9330   77.5720  220.9680 C   0  0  0  0  0  0  0  0  0  0  0  0
  140.1820   76.4460  221.8880 C   0  0  0  0  0  0  0  0  0  0  0  0
  138.9850   76.0010  222.7160 C   0  0  0  0  0  0  0  0  0  0  0  0
  137.8250   76.4450  221.9850 N   0  0  0  0  0  0  0  0  0  0  0  0
  136.8840   75.6730  221.2960 C   0  0  0  0  0  0  0  0  0  0  0  0
  135.9310   76.3370  220.7120 O   0  0  0  0  0  0  0  0  0  0  0  0
  136.8060   74.2290  221.1290 C   0  0  1  0  0  0  0  0  0  0  0  0
  135.6560   73.7220  220.4580 N   0  0  0  0  0  0  0  0  0  0  0  0
  138.1000   73.6180  220.6120 C   0  0  0  0  0  0  0  0  0  0  0  0
  138.6930   72.6960  221.6330 C   0  0  0  0  0  0  0  0  0  0  0  0
  137.8710   71.8770  222.3760 C   0  0  0  0  0  0  0  0  0  0  0  0
  138.3930   71.0190  223.3340 C   0  0  0  0  0  0  0  0  0  0  0  0
  139.7840   71.0280  223.5030 C   0  0  0  0  0  0  0  0  0  0  0  0
  140.3250   70.0930  224.5300 C   0  0  0  0  0  0  0  0  0  0  0  0
  140.5450   70.7420  225.8300 C   0  0  0  0  0  0  0  0  0  0  0  0
  141.3180   71.8530  226.0470 C   0  0  0  0  0  0  0  0  0  0  0  0
  141.4710   72.3930  227.3150 C   0  0  0  0  0  0  0  0  0  0  0  0
  140.8320   71.8100  228.4190 C   0  0  0  0  0  0  0  0  0  0  0  0
  140.0460   70.6780  228.1930 C   0  0  0  0  0  0  0  0  0  0  0  0
  139.9200   70.1790  226.9340 C   0  0  0  0  0  0  0  0  0  0  0  0
  140.6060   71.8460  222.7590 C   0  0  0  0  0  0  0  0  0  0  0  0
  140.0750   72.7120  221.7920 C   0  0  0  0  0  0  0  0  0  0  0  0
  137.6680   77.9290  221.9840 C   0  0  0  0  0  0  0  0  0  0  0  0
  138.8490   78.5370  221.2590 C   0  0  0  0  0  0  0  0  0  0  0  0
  142.7945   80.2514  219.2740 H   0  0  0  0  0  0  0  0  0  0  0  0
  143.5144   79.7140  217.7185 H   0  0  0  0  0  0  0  0  0  0  0  0
  142.0501   80.7543  217.7185 H   0  0  0  0  0  0  0  0  0  0  0  0
  140.6248   78.9739  218.1607 H   0  0  0  0  0  0  0  0  0  0  0  0
  141.9402   78.0153  217.4289 H   0  0  0  0  0  0  0  0  0  0  0  0
  141.0218   80.9804  220.4392 H   0  0  0  0  0  0  0  0  0  0  0  0
  141.7183   82.7136  222.0527 H   0  0  0  0  0  0  0  0  0  0  0  0
  142.6880   82.1162  224.2550 H   0  0  0  0  0  0  0  0  0  0  0  0
  142.9527   79.7012  224.8038 H   0  0  0  0  0  0  0  0  0  0  0  0
  142.2640   77.9639  223.1932 H   0  0  0  0  0  0  0  0  0  0  0  0
  139.5637   77.0394  220.0792 H   0  0  0  0  0  0  0  0  0  0  0  0
  140.5184   75.5868  221.2892 H   0  0  0  0  0  0  0  0  0  0  0  0
  140.9320   76.8042  222.6086 H   0  0  0  0  0  0  0  0  0  0  0  0
  138.9767   74.9062  222.8223 H   0  0  0  0  0  0  0  0  0  0  0  0
  139.0127   76.4213  223.7322 H   0  0  0  0  0  0  0  0  0  0  0  0
  136.6622   73.8808  222.1625 H   0  0  0  0  0  0  0  0  0  0  0  0
  134.8280   73.5650  221.1010 H   0  0  0  0  0  0  0  0  0  0  0  0
  135.3100   74.4800  219.7950 H   0  0  0  0  0  0  0  0  0  0  0  0
  137.8903   73.0520  219.6924 H   0  0  0  0  0  0  0  0  0  0  0  0
  138.8165   74.4269  220.4062 H   0  0  0  0  0  0  0  0  0  0  0  0
  136.7843   71.9036  222.2073 H   0  0  0  0  0  0  0  0  0  0  0  0
  137.7448   70.3623  223.9328 H   0  0  0  0  0  0  0  0  0  0  0  0
  139.6105   69.2677  224.6654 H   0  0  0  0  0  0  0  0  0  0  0  0
  141.3000   69.7329  224.1699 H   0  0  0  0  0  0  0  0  0  0  0  0
  141.8286   72.3270  225.1958 H   0  0  0  0  0  0  0  0  0  0  0  0
  142.0984   73.2855  227.4561 H   0  0  0  0  0  0  0  0  0  0  0  0
  140.9461   72.2303  229.4291 H   0  0  0  0  0  0  0  0  0  0  0  0
  139.5292   70.1903  229.0326 H   0  0  0  0  0  0  0  0  0  0  0  0
  139.2934   69.2875  226.7837 H   0  0  0  0  0  0  0  0  0  0  0  0
  141.6930   71.8195  222.9256 H   0  0  0  0  0  0  0  0  0  0  0  0
  140.7185   73.3704  221.1899 H   0  0  0  0  0  0  0  0  0  0  0  0
  136.7355   78.2030  221.4689 H   0  0  0  0  0  0  0  0  0  0  0  0
  137.6267   78.3040  223.0173 H   0  0  0  0  0  0  0  0  0  0  0  0
  138.4928   78.9560  220.3064 H   0  0  0  0  0  0  0  0  0  0  0  0
  139.2729   79.3038  221.9241 H   0  0  0  0  0  0  0  0  0  0  0  0
  1  2  1  0
  2  3  1  0
  3  4  2  0
  3  5  1  0
  5  6  1  0
  6  7  2  0
  7  8  1  0
  8  9  2  0
  9 10  1  0
 10 11  2  0
  5 12  1  0
 12 13  1  0
 13 14  1  0
 14 15  1  0
 15 16  1  0
 16 17  2  0
 16 18  1  0
 18 19  1  0
 18 20  1  0
 20 21  1  0
 21 22  2  0
 22 23  1  0
 23 24  2  0
 24 25  1  0
 25 26  1  0
 26 27  2  0
 27 28  1  0
 28 29  2  0
 29 30  1  0
 30 31  2  0
 24 32  1  0
 32 33  2  0
 15 34  1  0
 34 35  1  0
 11  6  1  0
 35 12  1  0
 33 21  1  0
 31 26  1  0
  1 36  1  0
  1 37  1  0
  1 38  1  0
  2 39  1  0
  2 40  1  0
  7 41  1  0
  8 42  1  0
  9 43  1  0
 10 44  1  0
 11 45  1  0
 12 46  1  0
 13 47  1  0
 13 48  1  0
 14 49  1  0
 14 50  1  0
 18 51  1  1
 19 52  1  0
 19 53  1  0
 20 54  1  0
 20 55  1  0
 22 56  1  0
 23 57  1  0
 25 58  1  0
 25 59  1  0
 27 60  1  0
 28 61  1  0
 29 62  1  0
 30 63  1  0
 31 64  1  0
 32 65  1  0
 33 66  1  0
 34 67  1  0
 34 68  1  0
 35 69  1  0
 35 70  1  0
M  END
>  <smiles>  (40) 
CCC(=O)N(c1ccccc1)C1CCN(C(=O)[C@@H](N)Cc2ccc(Cc3ccccc3)cc2)CC1

>  <score_type>  (40) 
oracle

>  <origin>  (40) 
autodockgpu

>  <m_score__min__energy>  (40) 
-8.3699999999999992

>  <m_primary>  (40) 
energy

>  <rmsd>  (40) 
5.0411393350086655

>  <m_score__min__rmsd>  (40) 
5.0411393350086655

>  <meeko>  (40) 
{"free_energy": -7.95, "intermolecular_energy": -10.93, "internal_energy": -3.06, "cluster_size": 13, "cluster_id": 2, "rank_in_cluster": 11}

>  <energy>  (40) 
-6.19

>  <cluster_rmsd>  (40) 
0.86

>  <cluster>  (40) 
6

$$$$

     RDKit          3D

 70 73  0  0  0  0  0  0  0  0999 V2000
  140.8650   78.2000  215.5670 C   0  0  0  0  0  0  0  0  0  0  0  0
  142.3140   78.5090  215.9960 C   0  0  0  0  0  0  0  0  0  0  0  0
  142.5510   77.8550  217.3370 C   0  0  0  0  0  0  0  0  0  0  0  0
  143.5450   77.0690  217.3310 O   0  0  0  0  0  0  0  0  0  0  0  0
  141.7340   78.1110  218.4620 N   0  0  0  0  0  0  0  0  0  0  0  0
  141.3470   79.3990  218.9070 C   0  0  0  0  0  0  0  0  0  0  0  0
  142.1850   80.1510  219.7280 C   0  0  0  0  0  0  0  0  0  0  0  0
  141.8180   81.4250  220.1710 C   0  0  0  0  0  0  0  0  0  0  0  0
  140.6220   82.0030  219.8220 C   0  0  0  0  0  0  0  0  0  0  0  0
  139.7860   81.2710  219.0130 C   0  0  0  0  0  0  0  0  0  0  0  0
  140.1530   79.9960  218.5710 C   0  0  0  0  0  0  0  0  0  0  0  0
  141.2970   76.9050  219.1970 C   0  0  0  0  0  0  0  0  0  0  0  0
  140.5110   76.0300  218.3070 C   0  0  0  0  0  0  0  0  0  0  0  0
  140.5640   74.5450  218.6350 C   0  0  0  0  0  0  0  0  0  0  0  0
  140.9260   74.4720  220.0290 N   0  0  0  0  0  0  0  0  0  0  0  0
  140.1340   74.0780  221.1130 C   0  0  0  0  0  0  0  0  0  0  0  0
  140.7160   74.1130  222.2750 O   0  0  0  0  0  0  0  0  0  0  0  0
  138.7490   73.6330  221.1420 C   0  0  1  0  0  0  0  0  0  0  0  0
  138.3000   73.0150  222.3450 N   0  0  0  0  0  0  0  0  0  0  0  0
  137.7750   74.6820  220.6260 C   0  0  0  0  0  0  0  0  0  0  0  0
  138.1050   76.0310  221.1890 C   0  0  0  0  0  0  0  0  0  0  0  0
  138.2620   77.1060  220.3430 C   0  0  0  0  0  0  0  0  0  0  0  0
  138.5750   78.3650  220.8380 C   0  0  0  0  0  0  0  0  0  0  0  0
  138.7210   78.4830  222.2260 C   0  0  0  0  0  0  0  0  0  0  0  0
  139.0490   79.8440  222.7360 C   0  0  0  0  0  0  0  0  0  0  0  0
  140.4830   80.0210  223.0040 C   0  0  0  0  0  0  0  0  0  0  0  0
  141.4590   79.0870  222.7740 C   0  0  0  0  0  0  0  0  0  0  0  0
  142.7910   79.3430  223.0630 C   0  0  0  0  0  0  0  0  0  0  0  0
  143.1760   80.5770  223.6060 C   0  0  0  0  0  0  0  0  0  0  0  0
  142.1780   81.5260  223.8400 C   0  0  0  0  0  0  0  0  0  0  0  0
  140.8830   81.2370  223.5410 C   0  0  0  0  0  0  0  0  0  0  0  0
  138.5630   77.4070  223.0720 C   0  0  0  0  0  0  0  0  0  0  0  0
  138.2470   76.1360  222.5690 C   0  0  0  0  0  0  0  0  0  0  0  0
  142.3320   74.8980  220.2890 C   0  0  0  0  0  0  0  0  0  0  0  0
  142.4670   76.3600  219.9220 C   0  0  0  0  0  0  0  0  0  0  0  0
  140.2385   78.0664  216.4612 H   0  0  0  0  0  0  0  0  0  0  0  0
  140.4743   79.0350  214.9669 H   0  0  0  0  0  0  0  0  0  0  0  0
  140.8489   77.2782  214.9669 H   0  0  0  0  0  0  0  0  0  0  0  0
  143.0178   78.1048  215.2535 H   0  0  0  0  0  0  0  0  0  0  0  0
  142.4690   79.5957  216.0671 H   0  0  0  0  0  0  0  0  0  0  0  0
  143.1556   79.7334  220.0339 H   0  0  0  0  0  0  0  0  0  0  0  0
  142.5093   81.9825  220.8200 H   0  0  0  0  0  0  0  0  0  0  0  0
  140.3453   83.0076  220.1744 H   0  0  0  0  0  0  0  0  0  0  0  0
  138.8166   81.6932  218.7096 H   0  0  0  0  0  0  0  0  0  0  0  0
  139.4548   79.4442  217.9245 H   0  0  0  0  0  0  0  0  0  0  0  0
  140.5700   77.0964  220.0000 H   0  0  0  0  0  0  0  0  0  0  0  0
  139.4601   76.3510  218.3577 H   0  0  0  0  0  0  0  0  0  0  0  0
  140.9588   76.1349  217.3078 H   0  0  0  0  0  0  0  0  0  0  0  0
  139.5818   74.0789  218.4678 H   0  0  0  0  0  0  0  0  0  0  0  0
  141.2842   74.0113  217.9974 H   0  0  0  0  0  0  0  0  0  0  0  0
  138.7539   72.8006  220.4229 H   0  0  0  0  0  0  0  0  0  0  0  0
  139.0530   72.9410  223.0880 H   0  0  0  0  0  0  0  0  0  0  0  0
  137.5800   73.6600  222.7890 H   0  0  0  0  0  0  0  0  0  0  0  0
  137.8365   74.7235  219.5285 H   0  0  0  0  0  0  0  0  0  0  0  0
  136.7576   74.4060  220.9402 H   0  0  0  0  0  0  0  0  0  0  0  0
  138.1376   76.9654  219.2591 H   0  0  0  0  0  0  0  0  0  0  0  0
  138.7025   79.2301  220.1706 H   0  0  0  0  0  0  0  0  0  0  0  0
  138.7376   80.5852  221.9852 H   0  0  0  0  0  0  0  0  0  0  0  0
  138.5149   79.9787  223.6881 H   0  0  0  0  0  0  0  0  0  0  0  0
  141.1794   78.1112  222.3502 H   0  0  0  0  0  0  0  0  0  0  0  0
  143.5507   78.5726  222.8649 H   0  0  0  0  0  0  0  0  0  0  0  0
  144.2293   80.7908  223.8401 H   0  0  0  0  0  0  0  0  0  0  0  0
  142.4392   82.5061  224.2657 H   0  0  0  0  0  0  0  0  0  0  0  0
  140.1169   82.0025  223.7337 H   0  0  0  0  0  0  0  0  0  0  0  0
  138.6863   77.5464  224.1562 H   0  0  0  0  0  0  0  0  0  0  0  0
  138.1182   75.2674  223.2315 H   0  0  0  0  0  0  0  0  0  0  0  0
  142.5708   74.7592  221.3538 H   0  0  0  0  0  0  0  0  0  0  0  0
  143.0263   74.2930  219.6874 H   0  0  0  0  0  0  0  0  0  0  0  0
  142.6017   76.9388  220.8476 H   0  0  0  0  0  0  0  0  0  0  0  0
  143.3299   76.4417  219.2447 H   0  0  0  0  0  0  0  0  0  0  0  0
  1  2  1  0
  2  3  1  0
  3  4  2  0
  3  5  1  0
  5  6  1  0
  6  7  2  0
  7  8  1  0
  8  9  2  0
  9 10  1  0
 10 11  2  0
  5 12  1  0
 12 13  1  0
 13 14  1  0
 14 15  1  0
 15 16  1  0
 16 17  2  0
 16 18  1  0
 18 19  1  0
 18 20  1  0
 20 21  1  0
 21 22  2  0
 22 23  1  0
 23 24  2  0
 24 25  1  0
 25 26  1  0
 26 27  2  0
 27 28  1  0
 28 29  2  0
 29 30  1  0
 30 31  2  0
 24 32  1  0
 32 33  2  0
 15 34  1  0
 34 35  1  0
 11  6  1  0
 35 12  1  0
 33 21  1  0
 31 26  1  0
  1 36  1  0
  1 37  1  0
  1 38  1  0
  2 39  1  0
  2 40  1  0
  7 41  1  0
  8 42  1  0
  9 43  1  0
 10 44  1  0
 11 45  1  0
 12 46  1  0
 13 47  1  0
 13 48  1  0
 14 49  1  0
 14 50  1  0
 18 51  1  6
 19 52  1  0
 19 53  1  0
 20 54  1  0
 20 55  1  0
 22 56  1  0
 23 57  1  0
 25 58  1  0
 25 59  1  0
 27 60  1  0
 28 61  1  0
 29 62  1  0
 30 63  1  0
 31 64  1  0
 32 65  1  0
 33 66  1  0
 34 67  1  0
 34 68  1  0
 35 69  1  0
 35 70  1  0
M  END
>  <smiles>  (41) 
CCC(=O)N(c1ccccc1)C1CCN(C(=O)[C@@H](N)Cc2ccc(Cc3ccccc3)cc2)CC1

>  <score_type>  (41) 
oracle

>  <origin>  (41) 
autodockgpu

>  <m_score__min__energy>  (41) 
-8.3699999999999992

>  <m_primary>  (41) 
energy

>  <rmsd>  (41) 
5.022718736725732

>  <m_score__min__rmsd>  (41) 
5.022718736725732

>  <meeko>  (41) 
{"free_energy": -6.17, "intermolecular_energy": -9.15, "internal_energy": -5.15, "cluster_size": 29, "cluster_id": 6, "rank_in_cluster": 21}

>  <energy>  (41) 
-6.17

>  <cluster_rmsd>  (41) 
0.82

>  <cluster>  (41) 
6

$$$$

     RDKit          3D

 70 73  0  0  0  0  0  0  0  0999 V2000
  144.3320   76.3560  215.2190 C   0  0  0  0  0  0  0  0  0  0  0  0
  143.8570   76.3560  216.6870 C   0  0  0  0  0  0  0  0  0  0  0  0
  142.6340   77.2370  216.7770 C   0  0  0  0  0  0  0  0  0  0  0  0
  142.1620   77.5410  215.6410 O   0  0  0  0  0  0  0  0  0  0  0  0
  142.0930   77.6620  218.0130 N   0  0  0  0  0  0  0  0  0  0  0  0
  142.0010   79.0090  218.4380 C   0  0  0  0  0  0  0  0  0  0  0  0
  142.1940   80.0560  217.5370 C   0  0  0  0  0  0  0  0  0  0  0  0
  142.1020   81.3900  217.9420 C   0  0  0  0  0  0  0  0  0  0  0  0
  141.8180   81.7420  219.2380 C   0  0  0  0  0  0  0  0  0  0  0  0
  141.6260   80.7210  220.1370 C   0  0  0  0  0  0  0  0  0  0  0  0
  141.7190   79.3840  219.7320 C   0  0  0  0  0  0  0  0  0  0  0  0
  141.6200   76.5680  218.8890 C   0  0  0  0  0  0  0  0  0  0  0  0
  140.9030   75.5570  218.0900 C   0  0  0  0  0  0  0  0  0  0  0  0
  140.9480   74.1380  218.6380 C   0  0  0  0  0  0  0  0  0  0  0  0
  141.2170   74.2780  220.0470 N   0  0  0  0  0  0  0  0  0  0  0  0
  140.3590   74.0330  221.1240 C   0  0  0  0  0  0  0  0  0  0  0  0
  140.8620   74.2500  222.3030 O   0  0  0  0  0  0  0  0  0  0  0  0
  138.9790   73.5710  221.1300 C   0  0  1  0  0  0  0  0  0  0  0  0
  138.5040   72.9870  222.3400 N   0  0  0  0  0  0  0  0  0  0  0  0
  138.0070   74.5880  220.5500 C   0  0  0  0  0  0  0  0  0  0  0  0
  138.2310   75.9380  221.1600 C   0  0  0  0  0  0  0  0  0  0  0  0
  137.9940   76.1310  222.5030 C   0  0  0  0  0  0  0  0  0  0  0  0
  138.1860   77.3730  223.0920 C   0  0  0  0  0  0  0  0  0  0  0  0
  138.6280   78.4080  222.2590 C   0  0  0  0  0  0  0  0  0  0  0  0
  138.8360   79.7320  222.9120 C   0  0  0  0  0  0  0  0  0  0  0  0
  140.2540   80.0280  223.1610 C   0  0  0  0  0  0  0  0  0  0  0  0
  140.7700   81.2600  223.4660 C   0  0  0  0  0  0  0  0  0  0  0  0
  142.1270   81.4450  223.6800 C   0  0  0  0  0  0  0  0  0  0  0  0
  143.0160   80.3640  223.5850 C   0  0  0  0  0  0  0  0  0  0  0  0
  142.4860   79.1110  223.2730 C   0  0  0  0  0  0  0  0  0  0  0  0
  141.1470   78.9700  223.0720 C   0  0  0  0  0  0  0  0  0  0  0  0
  138.8660   78.2160  220.9150 C   0  0  0  0  0  0  0  0  0  0  0  0
  138.6710   76.9590  220.3240 C   0  0  0  0  0  0  0  0  0  0  0  0
  142.5980   74.7650  220.3310 C   0  0  0  0  0  0  0  0  0  0  0  0
  142.7440   76.1590  219.7610 C   0  0  0  0  0  0  0  0  0  0  0  0
  144.4449   75.3189  214.8701 H   0  0  0  0  0  0  0  0  0  0  0  0
  143.5904   76.8745  214.5936 H   0  0  0  0  0  0  0  0  0  0  0  0
  145.2994   76.8745  215.1466 H   0  0  0  0  0  0  0  0  0  0  0  0
  143.6040   75.3318  216.9983 H   0  0  0  0  0  0  0  0  0  0  0  0
  144.6515   76.7333  217.3477 H   0  0  0  0  0  0  0  0  0  0  0  0
  142.4234   79.8268  216.4859 H   0  0  0  0  0  0  0  0  0  0  0  0
  142.2624   82.1842  217.1980 H   0  0  0  0  0  0  0  0  0  0  0  0
  141.7472   82.7963  219.5437 H   0  0  0  0  0  0  0  0  0  0  0  0
  141.3967   80.9566  221.1867 H   0  0  0  0  0  0  0  0  0  0  0  0
  141.5592   78.5964  220.4831 H   0  0  0  0  0  0  0  0  0  0  0  0
  140.8393   76.8607  219.6065 H   0  0  0  0  0  0  0  0  0  0  0  0
  139.8482   75.8620  218.0247 H   0  0  0  0  0  0  0  0  0  0  0  0
  141.4148   75.5219  217.1169 H   0  0  0  0  0  0  0  0  0  0  0  0
  139.9835   73.6337  218.4790 H   0  0  0  0  0  0  0  0  0  0  0  0
  141.7142   73.5301  218.1346 H   0  0  0  0  0  0  0  0  0  0  0  0
  139.0144   72.7147  220.4405 H   0  0  0  0  0  0  0  0  0  0  0  0
  139.2290   72.9700  223.1130 H   0  0  0  0  0  0  0  0  0  0  0  0
  137.7470   73.6260  222.7290 H   0  0  0  0  0  0  0  0  0  0  0  0
  138.1580   74.6531  219.4624 H   0  0  0  0  0  0  0  0  0  0  0  0
  136.9796   74.2640  220.7725 H   0  0  0  0  0  0  0  0  0  0  0  0
  137.6472   75.2877  223.1183 H   0  0  0  0  0  0  0  0  0  0  0  0
  137.9996   77.5367  224.1637 H   0  0  0  0  0  0  0  0  0  0  0  0
  138.4231   80.5148  222.2587 H   0  0  0  0  0  0  0  0  0  0  0  0
  138.3275   79.7038  223.8870 H   0  0  0  0  0  0  0  0  0  0  0  0
  140.0916   82.1225  223.5429 H   0  0  0  0  0  0  0  0  0  0  0  0
  142.5095   82.4466  223.9260 H   0  0  0  0  0  0  0  0  0  0  0  0
  144.0950   80.4993  223.7509 H   0  0  0  0  0  0  0  0  0  0  0  0
  143.1499   78.2379  223.1896 H   0  0  0  0  0  0  0  0  0  0  0  0
  140.7552   77.9716  222.8279 H   0  0  0  0  0  0  0  0  0  0  0  0
  139.2129   79.0585  220.2986 H   0  0  0  0  0  0  0  0  0  0  0  0
  138.8567   76.7891  219.2532 H   0  0  0  0  0  0  0  0  0  0  0  0
  142.7664   74.7893  221.4178 H   0  0  0  0  0  0  0  0  0  0  0  0
  143.3364   74.0914  219.8715 H   0  0  0  0  0  0  0  0  0  0  0  0
  142.8110   76.8705  220.5973 H   0  0  0  0  0  0  0  0  0  0  0  0
  143.6497   76.1569  219.1368 H   0  0  0  0  0  0  0  0  0  0  0  0
  1  2  1  0
  2  3  1  0
  3  4  2  0
  3  5  1  0
  5  6  1  0
  6  7  2  0
  7  8  1  0
  8  9  2  0
  9 10  1  0
 10 11  2  0
  5 12  1  0
 12 13  1  0
 13 14  1  0
 14 15  1  0
 15 16  1  0
 16 17  2  0
 16 18  1  0
 18 19  1  0
 18 20  1  0
 20 21  1  0
 21 22  2  0
 22 23  1  0
 23 24  2  0
 24 25  1  0
 25 26  1  0
 26 27  2  0
 27 28  1  0
 28 29  2  0
 29 30  1  0
 30 31  2  0
 24 32  1  0
 32 33  2  0
 15 34  1  0
 34 35  1  0
 11  6  1  0
 35 12  1  0
 33 21  1  0
 31 26  1  0
  1 36  1  0
  1 37  1  0
  1 38  1  0
  2 39  1  0
  2 40  1  0
  7 41  1  0
  8 42  1  0
  9 43  1  0
 10 44  1  0
 11 45  1  0
 12 46  1  0
 13 47  1  0
 13 48  1  0
 14 49  1  0
 14 50  1  0
 18 51  1  6
 19 52  1  0
 19 53  1  0
 20 54  1  0
 20 55  1  0
 22 56  1  0
 23 57  1  0
 25 58  1  0
 25 59  1  0
 27 60  1  0
 28 61  1  0
 29 62  1  0
 30 63  1  0
 31 64  1  0
 32 65  1  0
 33 66  1  0
 34 67  1  0
 34 68  1  0
 35 69  1  0
 35 70  1  0
M  END
>  <smiles>  (42) 
CCC(=O)N(c1ccccc1)C1CCN(C(=O)[C@@H](N)Cc2ccc(Cc3ccccc3)cc2)CC1

>  <score_type>  (42) 
oracle

>  <origin>  (42) 
autodockgpu

>  <m_score__min__energy>  (42) 
-8.3699999999999992

>  <m_primary>  (42) 
energy

>  <rmsd>  (42) 
5.177274049570492

>  <m_score__min__rmsd>  (42) 
5.177274049570492

>  <meeko>  (42) 
{"free_energy": -6.86, "intermolecular_energy": -9.84, "internal_energy": -4.5, "cluster_size": 29, "cluster_id": 6, "rank_in_cluster": 11}

>  <energy>  (42) 
-6.15

>  <cluster_rmsd>  (42) 
0.86

>  <cluster>  (42) 
6

$$$$

     RDKit          3D

 70 73  0  0  0  0  0  0  0  0999 V2000
  143.9490   76.8210  214.8700 C   0  0  0  0  0  0  0  0  0  0  0  0
  142.8990   77.4770  215.7900 C   0  0  0  0  0  0  0  0  0  0  0  0
  143.1300   76.9690  217.1930 C   0  0  0  0  0  0  0  0  0  0  0  0
  144.0770   76.1300  217.2620 O   0  0  0  0  0  0  0  0  0  0  0  0
  142.3560   77.4020  218.2950 N   0  0  0  0  0  0  0  0  0  0  0  0
  142.1710   78.7540  218.6730 C   0  0  0  0  0  0  0  0  0  0  0  0
  142.3760   79.7860  217.7590 C   0  0  0  0  0  0  0  0  0  0  0  0
  142.1930   81.1240  218.1180 C   0  0  0  0  0  0  0  0  0  0  0  0
  141.8010   81.4940  219.3800 C   0  0  0  0  0  0  0  0  0  0  0  0
  141.5950   80.4870  220.2920 C   0  0  0  0  0  0  0  0  0  0  0  0
  141.7800   79.1470  219.9330 C   0  0  0  0  0  0  0  0  0  0  0  0
  141.7340   76.3140  219.0800 C   0  0  0  0  0  0  0  0  0  0  0  0
  140.8930   75.4780  218.2030 C   0  0  0  0  0  0  0  0  0  0  0  0
  140.7440   74.0250  218.6310 C   0  0  0  0  0  0  0  0  0  0  0  0
  141.0200   74.0120  220.0460 N   0  0  0  0  0  0  0  0  0  0  0  0
  140.1290   73.7970  221.1030 C   0  0  0  0  0  0  0  0  0  0  0  0
  140.6480   73.8460  222.2940 O   0  0  0  0  0  0  0  0  0  0  0  0
  138.7000   73.5250  221.0760 C   0  0  1  0  0  0  0  0  0  0  0  0
  138.1120   73.0630  222.2900 N   0  0  0  0  0  0  0  0  0  0  0  0
  137.8930   74.6390  220.4250 C   0  0  0  0  0  0  0  0  0  0  0  0
  138.1170   75.9380  221.1370 C   0  0  0  0  0  0  0  0  0  0  0  0
  137.6610   76.0990  222.4260 C   0  0  0  0  0  0  0  0  0  0  0  0
  137.8470   77.2950  223.1060 C   0  0  0  0  0  0  0  0  0  0  0  0
  138.5170   78.3160  222.4210 C   0  0  0  0  0  0  0  0  0  0  0  0
  138.7140   79.5890  223.1720 C   0  0  0  0  0  0  0  0  0  0  0  0
  140.1310   79.9480  223.3210 C   0  0  0  0  0  0  0  0  0  0  0  0
  140.6240   81.2210  223.4420 C   0  0  0  0  0  0  0  0  0  0  0  0
  141.9820   81.4640  223.5750 C   0  0  0  0  0  0  0  0  0  0  0  0
  142.8970   80.4000  223.5860 C   0  0  0  0  0  0  0  0  0  0  0  0
  142.3910   79.1050  223.4610 C   0  0  0  0  0  0  0  0  0  0  0  0
  141.0500   78.9080  223.3350 C   0  0  0  0  0  0  0  0  0  0  0  0
  138.9740   78.1550  221.1310 C   0  0  0  0  0  0  0  0  0  0  0  0
  138.7830   76.9460  220.4470 C   0  0  0  0  0  0  0  0  0  0  0  0
  142.4520   74.2830  220.3630 C   0  0  0  0  0  0  0  0  0  0  0  0
  142.7880   75.6870  219.9090 C   0  0  0  0  0  0  0  0  0  0  0  0
  144.7232   76.3373  215.4837 H   0  0  0  0  0  0  0  0  0  0  0  0
  143.4604   76.0672  214.2351 H   0  0  0  0  0  0  0  0  0  0  0  0
  144.4122   77.5906  214.2351 H   0  0  0  0  0  0  0  0  0  0  0  0
  143.0116   78.5709  215.7652 H   0  0  0  0  0  0  0  0  0  0  0  0
  141.8828   77.2243  215.4532 H   0  0  0  0  0  0  0  0  0  0  0  0
  142.6886   79.5420  216.7330 H   0  0  0  0  0  0  0  0  0  0  0  0
  142.3688   81.9060  217.3646 H   0  0  0  0  0  0  0  0  0  0  0  0
  141.6579   82.5508  219.6498 H   0  0  0  0  0  0  0  0  0  0  0  0
  141.2810   80.7370  221.3162 H   0  0  0  0  0  0  0  0  0  0  0  0
  141.6048   78.3716  220.6933 H   0  0  0  0  0  0  0  0  0  0  0  0
  140.9950   76.6486  219.8229 H   0  0  0  0  0  0  0  0  0  0  0  0
  139.8890   75.9260  218.1684 H   0  0  0  0  0  0  0  0  0  0  0  0
  141.4016   75.4555  217.2279 H   0  0  0  0  0  0  0  0  0  0  0  0
  139.7218   73.6691  218.4351 H   0  0  0  0  0  0  0  0  0  0  0  0
  141.4248   73.3632  218.0755 H   0  0  0  0  0  0  0  0  0  0  0  0
  138.6414   72.6434  220.4207 H   0  0  0  0  0  0  0  0  0  0  0  0
  138.2540   72.0260  222.4580 H   0  0  0  0  0  0  0  0  0  0  0  0
  138.6390   73.5160  223.0950 H   0  0  0  0  0  0  0  0  0  0  0  0
  138.2035   74.7441  219.3750 H   0  0  0  0  0  0  0  0  0  0  0  0
  136.8248   74.3829  220.4823 H   0  0  0  0  0  0  0  0  0  0  0  0
  137.1414   75.2675  222.9246 H   0  0  0  0  0  0  0  0  0  0  0  0
  137.4848   77.4341  224.1353 H   0  0  0  0  0  0  0  0  0  0  0  0
  138.2011   80.3986  222.6322 H   0  0  0  0  0  0  0  0  0  0  0  0
  138.3004   79.4459  224.1812 H   0  0  0  0  0  0  0  0  0  0  0  0
  139.9251   82.0704  223.4334 H   0  0  0  0  0  0  0  0  0  0  0  0
  142.3450   82.4978  223.6726 H   0  0  0  0  0  0  0  0  0  0  0  0
  143.9771   80.5805  223.6897 H   0  0  0  0  0  0  0  0  0  0  0  0
  143.0757   78.2441  223.4643 H   0  0  0  0  0  0  0  0  0  0  0  0
  140.6776   77.8773  223.2399 H   0  0  0  0  0  0  0  0  0  0  0  0
  139.4951   78.9852  220.6317 H   0  0  0  0  0  0  0  0  0  0  0  0
  139.1415   76.8018  219.4171 H   0  0  0  0  0  0  0  0  0  0  0  0
  142.6149   74.1949  221.4473 H   0  0  0  0  0  0  0  0  0  0  0  0
  143.0960   73.5561  219.8465 H   0  0  0  0  0  0  0  0  0  0  0  0
  142.9457   76.3116  220.8006 H   0  0  0  0  0  0  0  0  0  0  0  0
  143.6888   75.6145  219.2818 H   0  0  0  0  0  0  0  0  0  0  0  0
  1  2  1  0
  2  3  1  0
  3  4  2  0
  3  5  1  0
  5  6  1  0
  6  7  2  0
  7  8  1  0
  8  9  2  0
  9 10  1  0
 10 11  2  0
  5 12  1  0
 12 13  1  0
 13 14  1  0
 14 15  1  0
 15 16  1  0
 16 17  2  0
 16 18  1  0
 18 19  1  0
 18 20  1  0
 20 21  1  0
 21 22  2  0
 22 23  1  0
 23 24  2  0
 24 25  1  0
 25 26  1  0
 26 27  2  0
 27 28  1  0
 28 29  2  0
 29 30  1  0
 30 31  2  0
 24 32  1  0
 32 33  2  0
 15 34  1  0
 34 35  1  0
 11  6  1  0
 35 12  1  0
 33 21  1  0
 31 26  1  0
  1 36  1  0
  1 37  1  0
  1 38  1  0
  2 39  1  0
  2 40  1  0
  7 41  1  0
  8 42  1  0
  9 43  1  0
 10 44  1  0
 11 45  1  0
 12 46  1  0
 13 47  1  0
 13 48  1  0
 14 49  1  0
 14 50  1  0
 18 51  1  6
 19 52  1  0
 19 53  1  0
 20 54  1  0
 20 55  1  0
 22 56  1  0
 23 57  1  0
 25 58  1  0
 25 59  1  0
 27 60  1  0
 28 61  1  0
 29 62  1  0
 30 63  1  0
 31 64  1  0
 32 65  1  0
 33 66  1  0
 34 67  1  0
 34 68  1  0
 35 69  1  0
 35 70  1  0
M  END
>  <smiles>  (43) 
CCC(=O)N(c1ccccc1)C1CCN(C(=O)[C@@H](N)Cc2ccc(Cc3ccccc3)cc2)CC1

>  <score_type>  (43) 
oracle

>  <origin>  (43) 
autodockgpu

>  <m_score__min__energy>  (43) 
-8.3699999999999992

>  <m_primary>  (43) 
energy

>  <rmsd>  (43) 
5.303049044626353

>  <m_score__min__rmsd>  (43) 
5.303049044626353

>  <meeko>  (43) 
{"free_energy": -6.73, "intermolecular_energy": -9.71, "internal_energy": -4.35, "cluster_size": 29, "cluster_id": 6, "rank_in_cluster": 15}

>  <energy>  (43) 
-6.12

>  <cluster_rmsd>  (43) 
0.94

>  <cluster>  (43) 
6

$$$$

     RDKit          3D

 70 73  0  0  0  0  0  0  0  0999 V2000
  143.2920   76.3700  219.7200 C   0  0  0  0  0  0  0  0  0  0  0  0
  142.0330   76.9880  219.0800 C   0  0  0  0  0  0  0  0  0  0  0  0
  141.8430   78.3660  219.6690 C   0  0  0  0  0  0  0  0  0  0  0  0
  142.3500   79.2800  218.9530 O   0  0  0  0  0  0  0  0  0  0  0  0
  141.1640   78.5840  220.8910 N   0  0  0  0  0  0  0  0  0  0  0  0
  141.5750   79.4940  221.8950 C   0  0  0  0  0  0  0  0  0  0  0  0
  141.3800   80.8650  221.7380 C   0  0  0  0  0  0  0  0  0  0  0  0
  141.7760   81.7740  222.7220 C   0  0  0  0  0  0  0  0  0  0  0  0
  142.3730   81.3700  223.8910 C   0  0  0  0  0  0  0  0  0  0  0  0
  142.5720   80.0210  224.0590 C   0  0  0  0  0  0  0  0  0  0  0  0
  142.1760   79.1110  223.0720 C   0  0  0  0  0  0  0  0  0  0  0  0
  139.9530   77.7570  221.0810 C   0  0  0  0  0  0  0  0  0  0  0  0
  140.2790   76.5630  221.8830 C   0  0  0  0  0  0  0  0  0  0  0  0
  139.1340   76.0000  222.7130 C   0  0  0  0  0  0  0  0  0  0  0  0
  137.9300   76.4640  222.0710 N   0  0  0  0  0  0  0  0  0  0  0  0
  136.9880   75.7210  221.3500 C   0  0  0  0  0  0  0  0  0  0  0  0
  135.9890   76.3990  220.8670 O   0  0  0  0  0  0  0  0  0  0  0  0
  136.9530   74.2970  221.0550 C   0  0  1  0  0  0  0  0  0  0  0  0
  135.9240   73.8490  220.1770 N   0  0  0  0  0  0  0  0  0  0  0  0
  138.3170   73.7300  220.6920 C   0  0  0  0  0  0  0  0  0  0  0  0
  138.7620   72.7300  221.7150 C   0  0  0  0  0  0  0  0  0  0  0  0
  137.8280   72.0860  222.4960 C   0  0  0  0  0  0  0  0  0  0  0  0
  138.2140   71.1620  223.4570 C   0  0  0  0  0  0  0  0  0  0  0  0
  139.5870   70.9190  223.5880 C   0  0  0  0  0  0  0  0  0  0  0  0
  139.9790   69.9170  224.6200 C   0  0  0  0  0  0  0  0  0  0  0  0
  140.4280   70.5370  225.8740 C   0  0  0  0  0  0  0  0  0  0  0  0
  141.0610   71.7470  225.9840 C   0  0  0  0  0  0  0  0  0  0  0  0
  141.4540   72.2510  227.2140 C   0  0  0  0  0  0  0  0  0  0  0  0
  141.2120   71.5260  228.3910 C   0  0  0  0  0  0  0  0  0  0  0  0
  140.5670   70.2930  228.2740 C   0  0  0  0  0  0  0  0  0  0  0  0
  140.1960   69.8340  227.0480 C   0  0  0  0  0  0  0  0  0  0  0  0
  140.5220   71.5620  222.8070 C   0  0  0  0  0  0  0  0  0  0  0  0
  140.1290   72.4970  221.8380 C   0  0  0  0  0  0  0  0  0  0  0  0
  137.7220   77.9340  222.2130 C   0  0  0  0  0  0  0  0  0  0  0  0
  138.8500   78.6500  221.5010 C   0  0  0  0  0  0  0  0  0  0  0  0
  143.2050   76.4127  220.8157 H   0  0  0  0  0  0  0  0  0  0  0  0
  143.3889   75.3219  219.4005 H   0  0  0  0  0  0  0  0  0  0  0  0
  144.1805   76.9344  219.4005 H   0  0  0  0  0  0  0  0  0  0  0  0
  142.1652   77.0620  217.9905 H   0  0  0  0  0  0  0  0  0  0  0  0
  141.1526   76.3600  219.2812 H   0  0  0  0  0  0  0  0  0  0  0  0
  140.9041   81.2393  220.8196 H   0  0  0  0  0  0  0  0  0  0  0  0
  141.6042   82.8476  222.5552 H   0  0  0  0  0  0  0  0  0  0  0  0
  142.6786   82.0952  224.6596 H   0  0  0  0  0  0  0  0  0  0  0  0
  143.0479   79.6520  224.9795 H   0  0  0  0  0  0  0  0  0  0  0  0
  142.3536   78.0394  223.2454 H   0  0  0  0  0  0  0  0  0  0  0  0
  139.5656   77.2929  220.1620 H   0  0  0  0  0  0  0  0  0  0  0  0
  140.6187   75.7748  221.1950 H   0  0  0  0  0  0  0  0  0  0  0  0
  141.0463   76.8827  222.6035 H   0  0  0  0  0  0  0  0  0  0  0  0
  139.1676   74.9005  222.7189 H   0  0  0  0  0  0  0  0  0  0  0  0
  139.1901   76.3274  223.7616 H   0  0  0  0  0  0  0  0  0  0  0  0
  136.6583   73.8641  222.0223 H   0  0  0  0  0  0  0  0  0  0  0  0
  135.0460   73.5340  220.6820 H   0  0  0  0  0  0  0  0  0  0  0  0
  135.5940   74.6890  219.6130 H   0  0  0  0  0  0  0  0  0  0  0  0
  138.2545   73.2388  219.7097 H   0  0  0  0  0  0  0  0  0  0  0  0
  139.0460   74.5531  220.6604 H   0  0  0  0  0  0  0  0  0  0  0  0
  136.7597   72.3074  222.3559 H   0  0  0  0  0  0  0  0  0  0  0  0
  137.4755   70.6444  224.0868 H   0  0  0  0  0  0  0  0  0  0  0  0
  139.1110   69.2766  224.8356 H   0  0  0  0  0  0  0  0  0  0  0  0
  140.8228   69.3383  224.2160 H   0  0  0  0  0  0  0  0  0  0  0  0
  141.2622   72.3324  225.0747 H   0  0  0  0  0  0  0  0  0  0  0  0
  141.9593   73.2266  227.2680 H   0  0  0  0  0  0  0  0  0  0  0  0
  141.5200   71.9158  229.3724 H   0  0  0  0  0  0  0  0  0  0  0  0
  140.3590   69.6932  229.1723 H   0  0  0  0  0  0  0  0  0  0  0  0
  139.6884   68.8602  226.9844 H   0  0  0  0  0  0  0  0  0  0  0  0
  141.5904   71.3394  222.9450 H   0  0  0  0  0  0  0  0  0  0  0  0
  140.8635   73.0195  221.2075 H   0  0  0  0  0  0  0  0  0  0  0  0
  136.7595   78.2178  221.7624 H   0  0  0  0  0  0  0  0  0  0  0  0
  137.7116   78.2120  223.2772 H   0  0  0  0  0  0  0  0  0  0  0  0
  138.4396   79.1393  220.6054 H   0  0  0  0  0  0  0  0  0  0  0  0
  139.2749   79.3696  222.2163 H   0  0  0  0  0  0  0  0  0  0  0  0
  1  2  1  0
  2  3  1  0
  3  4  2  0
  3  5  1  0
  5  6  1  0
  6  7  2  0
  7  8  1  0
  8  9  2  0
  9 10  1  0
 10 11  2  0
  5 12  1  0
 12 13  1  0
 13 14  1  0
 14 15  1  0
 15 16  1  0
 16 17  2  0
 16 18  1  0
 18 19  1  0
 18 20  1  0
 20 21  1  0
 21 22  2  0
 22 23  1  0
 23 24  2  0
 24 25  1  0
 25 26  1  0
 26 27  2  0
 27 28  1  0
 28 29  2  0
 29 30  1  0
 30 31  2  0
 24 32  1  0
 32 33  2  0
 15 34  1  0
 34 35  1  0
 11  6  1  0
 35 12  1  0
 33 21  1  0
 31 26  1  0
  1 36  1  0
  1 37  1  0
  1 38  1  0
  2 39  1  0
  2 40  1  0
  7 41  1  0
  8 42  1  0
  9 43  1  0
 10 44  1  0
 11 45  1  0
 12 46  1  0
 13 47  1  0
 13 48  1  0
 14 49  1  0
 14 50  1  0
 18 51  1  1
 19 52  1  0
 19 53  1  0
 20 54  1  0
 20 55  1  0
 22 56  1  0
 23 57  1  0
 25 58  1  0
 25 59  1  0
 27 60  1  0
 28 61  1  0
 29 62  1  0
 30 63  1  0
 31 64  1  0
 32 65  1  0
 33 66  1  0
 34 67  1  0
 34 68  1  0
 35 69  1  0
 35 70  1  0
M  END
>  <smiles>  (44) 
CCC(=O)N(c1ccccc1)C1CCN(C(=O)[C@@H](N)Cc2ccc(Cc3ccccc3)cc2)CC1

>  <score_type>  (44) 
oracle

>  <origin>  (44) 
autodockgpu

>  <m_score__min__energy>  (44) 
-8.3699999999999992

>  <m_primary>  (44) 
energy

>  <rmsd>  (44) 
4.9405554864616406

>  <m_score__min__rmsd>  (44) 
4.9405554864616406

>  <meeko>  (44) 
{"free_energy": -8.14, "intermolecular_energy": -11.12, "internal_energy": -3.01, "cluster_size": 13, "cluster_id": 2, "rank_in_cluster": 4}

>  <energy>  (44) 
-6.11

>  <cluster_rmsd>  (44) 
0.88

>  <cluster>  (44) 
6

$$$$

     RDKit          3D

 70 73  0  0  0  0  0  0  0  0999 V2000
  141.8290   77.6850  214.8530 C   0  0  0  0  0  0  0  0  0  0  0  0
  142.2090   78.7120  215.9400 C   0  0  0  0  0  0  0  0  0  0  0  0
  142.4570   77.9570  217.2240 C   0  0  0  0  0  0  0  0  0  0  0  0
  143.3700   77.0850  217.1130 O   0  0  0  0  0  0  0  0  0  0  0  0
  141.7320   78.2170  218.4100 N   0  0  0  0  0  0  0  0  0  0  0  0
  141.3910   79.5060  218.8850 C   0  0  0  0  0  0  0  0  0  0  0  0
  140.1990   80.1180  218.4980 C   0  0  0  0  0  0  0  0  0  0  0  0
  139.8480   81.3880  218.9620 C   0  0  0  0  0  0  0  0  0  0  0  0
  140.6500   82.0980  219.8210 C   0  0  0  0  0  0  0  0  0  0  0  0
  141.8280   81.5080  220.2110 C   0  0  0  0  0  0  0  0  0  0  0  0
  142.1800   80.2370  219.7450 C   0  0  0  0  0  0  0  0  0  0  0  0
  141.3440   77.0120  219.1740 C   0  0  0  0  0  0  0  0  0  0  0  0
  140.6550   76.0540  218.2890 C   0  0  0  0  0  0  0  0  0  0  0  0
  140.7910   74.5890  218.6780 C   0  0  0  0  0  0  0  0  0  0  0  0
  141.0970   74.5930  220.0870 N   0  0  0  0  0  0  0  0  0  0  0  0
  140.2880   74.1880  221.1530 C   0  0  0  0  0  0  0  0  0  0  0  0
  140.8160   74.3040  222.3350 O   0  0  0  0  0  0  0  0  0  0  0  0
  138.9340   73.6520  221.1440 C   0  0  1  0  0  0  0  0  0  0  0  0
  138.5070   72.9720  222.3210 N   0  0  0  0  0  0  0  0  0  0  0  0
  137.9020   74.6490  220.6400 C   0  0  0  0  0  0  0  0  0  0  0  0
  138.1680   76.0130  221.2010 C   0  0  0  0  0  0  0  0  0  0  0  0
  138.3910   77.0720  220.3500 C   0  0  0  0  0  0  0  0  0  0  0  0
  138.6470   78.3440  220.8430 C   0  0  0  0  0  0  0  0  0  0  0  0
  138.6650   78.4930  222.2360 C   0  0  0  0  0  0  0  0  0  0  0  0
  138.9340   79.8680  222.7450 C   0  0  0  0  0  0  0  0  0  0  0  0
  140.3540   80.0960  223.0450 C   0  0  0  0  0  0  0  0  0  0  0  0
  140.8850   81.2490  223.5620 C   0  0  0  0  0  0  0  0  0  0  0  0
  142.2440   81.3740  223.8080 C   0  0  0  0  0  0  0  0  0  0  0  0
  143.1190   80.3140  223.5280 C   0  0  0  0  0  0  0  0  0  0  0  0
  142.5730   79.1420  223.0000 C   0  0  0  0  0  0  0  0  0  0  0  0
  141.2340   79.0580  222.7740 C   0  0  0  0  0  0  0  0  0  0  0  0
  138.4410   77.4330  223.0880 C   0  0  0  0  0  0  0  0  0  0  0  0
  138.1830   76.1490  222.5860 C   0  0  0  0  0  0  0  0  0  0  0  0
  142.4600   75.1210  220.3850 C   0  0  0  0  0  0  0  0  0  0  0  0
  142.5150   76.5740  219.9660 C   0  0  0  0  0  0  0  0  0  0  0  0
  141.4851   76.7557  215.3307 H   0  0  0  0  0  0  0  0  0  0  0  0
  141.0231   78.0952  214.2267 H   0  0  0  0  0  0  0  0  0  0  0  0
  142.7078   77.4719  214.2267 H   0  0  0  0  0  0  0  0  0  0  0  0
  143.1197   79.2522  215.6420 H   0  0  0  0  0  0  0  0  0  0  0  0
  141.3994   79.4442  216.0758 H   0  0  0  0  0  0  0  0  0  0  0  0
  139.5205   79.5891  217.8125 H   0  0  0  0  0  0  0  0  0  0  0  0
  138.8990   81.8333  218.6286 H   0  0  0  0  0  0  0  0  0  0  0  0
  140.3618   83.0965  220.1815 H   0  0  0  0  0  0  0  0  0  0  0  0
  142.5020   82.0413  220.8975 H   0  0  0  0  0  0  0  0  0  0  0  0
  143.1321   79.8007  220.0814 H   0  0  0  0  0  0  0  0  0  0  0  0
  140.5724   77.1836  219.9390 H   0  0  0  0  0  0  0  0  0  0  0  0
  139.5842   76.3057  218.2851 H   0  0  0  0  0  0  0  0  0  0  0  0
  141.1366   76.1514  217.3048 H   0  0  0  0  0  0  0  0  0  0  0  0
  139.8494   74.0521  218.4903 H   0  0  0  0  0  0  0  0  0  0  0  0
  141.5710   74.0811  218.0918 H   0  0  0  0  0  0  0  0  0  0  0  0
  139.0058   72.8429  220.4022 H   0  0  0  0  0  0  0  0  0  0  0  0
  139.2320   72.9720  223.0950 H   0  0  0  0  0  0  0  0  0  0  0  0
  137.7020   73.5270  222.7400 H   0  0  0  0  0  0  0  0  0  0  0  0
  137.9493   74.6943  219.5419 H   0  0  0  0  0  0  0  0  0  0  0  0
  136.9037   74.3206  220.9648 H   0  0  0  0  0  0  0  0  0  0  0  0
  138.3659   76.9075  219.2627 H   0  0  0  0  0  0  0  0  0  0  0  0
  138.8275   79.1959  220.1709 H   0  0  0  0  0  0  0  0  0  0  0  0
  138.6149   80.5938  221.9825 H   0  0  0  0  0  0  0  0  0  0  0  0
  138.3734   79.9894  223.6836 H   0  0  0  0  0  0  0  0  0  0  0  0
  140.2180   82.0943  223.7869 H   0  0  0  0  0  0  0  0  0  0  0  0
  142.6389   82.3117  224.2260 H   0  0  0  0  0  0  0  0  0  0  0  0
  144.1988   80.4029  223.7179 H   0  0  0  0  0  0  0  0  0  0  0  0
  143.2251   78.2873  222.7670 H   0  0  0  0  0  0  0  0  0  0  0  0
  140.8302   78.1236  222.3570 H   0  0  0  0  0  0  0  0  0  0  0  0
  138.4649   77.5961  224.1756 H   0  0  0  0  0  0  0  0  0  0  0  0
  138.0018   75.2932  223.2529 H   0  0  0  0  0  0  0  0  0  0  0  0
  142.6625   75.0379  221.4630 H   0  0  0  0  0  0  0  0  0  0  0  0
  143.2167   74.5417  219.8356 H   0  0  0  0  0  0  0  0  0  0  0  0
  142.5722   77.1944  220.8725 H   0  0  0  0  0  0  0  0  0  0  0  0
  143.3988   76.6882  219.3211 H   0  0  0  0  0  0  0  0  0  0  0  0
  1  2  1  0
  2  3  1  0
  3  4  2  0
  3  5  1  0
  5  6  1  0
  6  7  2  0
  7  8  1  0
  8  9  2  0
  9 10  1  0
 10 11  2  0
  5 12  1  0
 12 13  1  0
 13 14  1  0
 14 15  1  0
 15 16  1  0
 16 17  2  0
 16 18  1  0
 18 19  1  0
 18 20  1  0
 20 21  1  0
 21 22  2  0
 22 23  1  0
 23 24  2  0
 24 25  1  0
 25 26  1  0
 26 27  2  0
 27 28  1  0
 28 29  2  0
 29 30  1  0
 30 31  2  0
 24 32  1  0
 32 33  2  0
 15 34  1  0
 34 35  1  0
 11  6  1  0
 35 12  1  0
 33 21  1  0
 31 26  1  0
  1 36  1  0
  1 37  1  0
  1 38  1  0
  2 39  1  0
  2 40  1  0
  7 41  1  0
  8 42  1  0
  9 43  1  0
 10 44  1  0
 11 45  1  0
 12 46  1  0
 13 47  1  0
 13 48  1  0
 14 49  1  0
 14 50  1  0
 18 51  1  6
 19 52  1  0
 19 53  1  0
 20 54  1  0
 20 55  1  0
 22 56  1  0
 23 57  1  0
 25 58  1  0
 25 59  1  0
 27 60  1  0
 28 61  1  0
 29 62  1  0
 30 63  1  0
 31 64  1  0
 32 65  1  0
 33 66  1  0
 34 67  1  0
 34 68  1  0
 35 69  1  0
 35 70  1  0
M  END
>  <smiles>  (45) 
CCC(=O)N(c1ccccc1)C1CCN(C(=O)[C@@H](N)Cc2ccc(Cc3ccccc3)cc2)CC1

>  <score_type>  (45) 
oracle

>  <origin>  (45) 
autodockgpu

>  <m_score__min__energy>  (45) 
-8.3699999999999992

>  <m_primary>  (45) 
energy

>  <rmsd>  (45) 
4.946390656558552

>  <m_score__min__rmsd>  (45) 
4.946390656558552

>  <meeko>  (45) 
{"free_energy": -6.2, "intermolecular_energy": -9.18, "internal_energy": -5.15, "cluster_size": 29, "cluster_id": 6, "rank_in_cluster": 19}

>  <energy>  (45) 
-6.09

>  <cluster_rmsd>  (45) 
0.88

>  <cluster>  (45) 
6

$$$$

     RDKit          3D

 70 73  0  0  0  0  0  0  0  0999 V2000
  141.8230   79.9720  215.8630 C   0  0  0  0  0  0  0  0  0  0  0  0
  141.6800   78.4380  215.9410 C   0  0  0  0  0  0  0  0  0  0  0  0
  142.2240   77.9880  217.2760 C   0  0  0  0  0  0  0  0  0  0  0  0
  143.3400   77.3960  217.1770 O   0  0  0  0  0  0  0  0  0  0  0  0
  141.5390   78.2190  218.4920 N   0  0  0  0  0  0  0  0  0  0  0  0
  141.2380   79.4960  219.0230 C   0  0  0  0  0  0  0  0  0  0  0  0
  140.0020   80.0950  218.7850 C   0  0  0  0  0  0  0  0  0  0  0  0
  139.6900   81.3530  219.3060 C   0  0  0  0  0  0  0  0  0  0  0  0
  140.5760   82.0640  220.0780 C   0  0  0  0  0  0  0  0  0  0  0  0
  141.7980   81.4860  220.3200 C   0  0  0  0  0  0  0  0  0  0  0  0
  142.1110   80.2260  219.7970 C   0  0  0  0  0  0  0  0  0  0  0  0
  141.1500   76.9950  219.2240 C   0  0  0  0  0  0  0  0  0  0  0  0
  140.4020   76.0900  218.3310 C   0  0  0  0  0  0  0  0  0  0  0  0
  140.5140   74.6080  218.6570 C   0  0  0  0  0  0  0  0  0  0  0  0
  140.8760   74.5480  220.0510 N   0  0  0  0  0  0  0  0  0  0  0  0
  140.0980   74.1210  221.1330 C   0  0  0  0  0  0  0  0  0  0  0  0
  140.6760   74.1770  222.2960 O   0  0  0  0  0  0  0  0  0  0  0  0
  138.7320   73.6200  221.1580 C   0  0  1  0  0  0  0  0  0  0  0  0
  138.3160   72.9540  222.3470 N   0  0  0  0  0  0  0  0  0  0  0  0
  137.7140   74.6420  220.6750 C   0  0  0  0  0  0  0  0  0  0  0  0
  138.0300   76.0010  221.2220 C   0  0  0  0  0  0  0  0  0  0  0  0
  138.0710   77.0870  220.3760 C   0  0  0  0  0  0  0  0  0  0  0  0
  138.3690   78.3550  220.8550 C   0  0  0  0  0  0  0  0  0  0  0  0
  138.6210   78.4720  222.2280 C   0  0  0  0  0  0  0  0  0  0  0  0
  138.9310   79.8430  222.7220 C   0  0  0  0  0  0  0  0  0  0  0  0
  140.3590   80.0330  223.0160 C   0  0  0  0  0  0  0  0  0  0  0  0
  141.3450   79.1040  222.8160 C   0  0  0  0  0  0  0  0  0  0  0  0
  142.6690   79.3720  223.1280 C   0  0  0  0  0  0  0  0  0  0  0  0
  143.0350   80.6160  223.6650 C   0  0  0  0  0  0  0  0  0  0  0  0
  142.0270   81.5600  223.8680 C   0  0  0  0  0  0  0  0  0  0  0  0
  140.7390   81.2580  223.5470 C   0  0  0  0  0  0  0  0  0  0  0  0
  138.5800   77.3850  223.0750 C   0  0  0  0  0  0  0  0  0  0  0  0
  138.2790   76.1050  222.5870 C   0  0  0  0  0  0  0  0  0  0  0  0
  142.2630   75.0300  220.3150 C   0  0  0  0  0  0  0  0  0  0  0  0
  142.3400   76.4970  219.9500 C   0  0  0  0  0  0  0  0  0  0  0  0
  141.8619   80.3888  216.8802 H   0  0  0  0  0  0  0  0  0  0  0  0
  142.7488   80.2271  215.3266 H   0  0  0  0  0  0  0  0  0  0  0  0
  140.9603   80.3939  215.3266 H   0  0  0  0  0  0  0  0  0  0  0  0
  140.6200   78.1567  215.8554 H   0  0  0  0  0  0  0  0  0  0  0  0
  142.2346   77.9594  215.1204 H   0  0  0  0  0  0  0  0  0  0  0  0
  139.2562   79.5656  218.1738 H   0  0  0  0  0  0  0  0  0  0  0  0
  138.7029   81.7882  219.0911 H   0  0  0  0  0  0  0  0  0  0  0  0
  140.3181   83.0530  220.4846 H   0  0  0  0  0  0  0  0  0  0  0  0
  142.5398   82.0197  220.9323 H   0  0  0  0  0  0  0  0  0  0  0  0
  143.1012   79.7992  220.0148 H   0  0  0  0  0  0  0  0  0  0  0  0
  140.4141   77.1553  220.0257 H   0  0  0  0  0  0  0  0  0  0  0  0
  139.3389   76.3683  218.3797 H   0  0  0  0  0  0  0  0  0  0  0  0
  140.8476   76.2142  217.3330 H   0  0  0  0  0  0  0  0  0  0  0  0
  139.5516   74.1030  218.4874 H   0  0  0  0  0  0  0  0  0  0  0  0
  141.2561   74.1044  218.0200 H   0  0  0  0  0  0  0  0  0  0  0  0
  138.7652   72.8071  220.4177 H   0  0  0  0  0  0  0  0  0  0  0  0
  139.0720   72.9040  223.0890 H   0  0  0  0  0  0  0  0  0  0  0  0
  137.5630   73.5510  222.8040 H   0  0  0  0  0  0  0  0  0  0  0  0
  137.7346   74.6810  219.5759 H   0  0  0  0  0  0  0  0  0  0  0  0
  136.7159   74.3416  221.0267 H   0  0  0  0  0  0  0  0  0  0  0  0
  137.8645   76.9473  219.3046 H   0  0  0  0  0  0  0  0  0  0  0  0
  138.4056   79.2282  220.1870 H   0  0  0  0  0  0  0  0  0  0  0  0
  138.6307   80.5700  221.9530 H   0  0  0  0  0  0  0  0  0  0  0  0
  138.3770   79.9900  223.6609 H   0  0  0  0  0  0  0  0  0  0  0  0
  141.0802   78.1217  222.3978 H   0  0  0  0  0  0  0  0  0  0  0  0
  143.4376   78.6047  222.9536 H   0  0  0  0  0  0  0  0  0  0  0  0
  144.0820   80.8397  223.9176 H   0  0  0  0  0  0  0  0  0  0  0  0
  142.2731   82.5469  224.2869 H   0  0  0  0  0  0  0  0  0  0  0  0
  139.9637   82.0198  223.7162 H   0  0  0  0  0  0  0  0  0  0  0  0
  138.7859   77.5233  224.1467 H   0  0  0  0  0  0  0  0  0  0  0  0
  138.2417   75.2279  223.2498 H   0  0  0  0  0  0  0  0  0  0  0  0
  142.5045   74.8996  221.3802 H   0  0  0  0  0  0  0  0  0  0  0  0
  142.9825   74.4542  219.7144 H   0  0  0  0  0  0  0  0  0  0  0  0
  142.4500   77.0796  220.8765 H   0  0  0  0  0  0  0  0  0  0  0  0
  143.2000   76.6144  219.2743 H   0  0  0  0  0  0  0  0  0  0  0  0
  1  2  1  0
  2  3  1  0
  3  4  2  0
  3  5  1  0
  5  6  1  0
  6  7  2  0
  7  8  1  0
  8  9  2  0
  9 10  1  0
 10 11  2  0
  5 12  1  0
 12 13  1  0
 13 14  1  0
 14 15  1  0
 15 16  1  0
 16 17  2  0
 16 18  1  0
 18 19  1  0
 18 20  1  0
 20 21  1  0
 21 22  2  0
 22 23  1  0
 23 24  2  0
 24 25  1  0
 25 26  1  0
 26 27  2  0
 27 28  1  0
 28 29  2  0
 29 30  1  0
 30 31  2  0
 24 32  1  0
 32 33  2  0
 15 34  1  0
 34 35  1  0
 11  6  1  0
 35 12  1  0
 33 21  1  0
 31 26  1  0
  1 36  1  0
  1 37  1  0
  1 38  1  0
  2 39  1  0
  2 40  1  0
  7 41  1  0
  8 42  1  0
  9 43  1  0
 10 44  1  0
 11 45  1  0
 12 46  1  0
 13 47  1  0
 13 48  1  0
 14 49  1  0
 14 50  1  0
 18 51  1  6
 19 52  1  0
 19 53  1  0
 20 54  1  0
 20 55  1  0
 22 56  1  0
 23 57  1  0
 25 58  1  0
 25 59  1  0
 27 60  1  0
 28 61  1  0
 29 62  1  0
 30 63  1  0
 31 64  1  0
 32 65  1  0
 33 66  1  0
 34 67  1  0
 34 68  1  0
 35 69  1  0
 35 70  1  0
M  END
>  <smiles>  (46) 
CCC(=O)N(c1ccccc1)C1CCN(C(=O)[C@@H](N)Cc2ccc(Cc3ccccc3)cc2)CC1

>  <score_type>  (46) 
oracle

>  <origin>  (46) 
autodockgpu

>  <m_score__min__energy>  (46) 
-8.3699999999999992

>  <m_primary>  (46) 
energy

>  <rmsd>  (46) 
5.002799414606586

>  <m_score__min__rmsd>  (46) 
5.002799414606586

>  <meeko>  (46) 
{"free_energy": -6.12, "intermolecular_energy": -9.1, "internal_energy": -5.11, "cluster_size": 29, "cluster_id": 6, "rank_in_cluster": 23}

>  <energy>  (46) 
-6.09

>  <cluster_rmsd>  (46) 
0.91

>  <cluster>  (46) 
6

$$$$

     RDKit          3D

 70 73  0  0  0  0  0  0  0  0999 V2000
  144.4030   76.1470  215.2730 C   0  0  0  0  0  0  0  0  0  0  0  0
  143.9340   76.2440  216.7390 C   0  0  0  0  0  0  0  0  0  0  0  0
  142.7080   77.1250  216.7750 C   0  0  0  0  0  0  0  0  0  0  0  0
  142.2670   77.4020  215.6200 O   0  0  0  0  0  0  0  0  0  0  0  0
  142.1340   77.5790  217.9860 N   0  0  0  0  0  0  0  0  0  0  0  0
  142.0250   78.9360  218.3730 C   0  0  0  0  0  0  0  0  0  0  0  0
  141.7050   79.2810  219.6850 C   0  0  0  0  0  0  0  0  0  0  0  0
  141.5980   80.6160  220.0820 C   0  0  0  0  0  0  0  0  0  0  0  0
  141.8020   81.6560  219.2090 C   0  0  0  0  0  0  0  0  0  0  0  0
  142.1180   81.3310  217.9120 C   0  0  0  0  0  0  0  0  0  0  0  0
  142.2240   79.9930  217.5140 C   0  0  0  0  0  0  0  0  0  0  0  0
  141.6440   76.5060  218.8780 C   0  0  0  0  0  0  0  0  0  0  0  0
  140.9320   75.4820  218.0900 C   0  0  0  0  0  0  0  0  0  0  0  0
  140.9640   74.0740  218.6670 C   0  0  0  0  0  0  0  0  0  0  0  0
  141.2160   74.2420  220.0760 N   0  0  0  0  0  0  0  0  0  0  0  0
  140.3430   74.0230  221.1480 C   0  0  0  0  0  0  0  0  0  0  0  0
  140.8330   74.2610  222.3280 O   0  0  0  0  0  0  0  0  0  0  0  0
  138.9610   73.5670  221.1450 C   0  0  1  0  0  0  0  0  0  0  0  0
  138.4740   72.9920  222.3550 N   0  0  0  0  0  0  0  0  0  0  0  0
  137.9990   74.5860  220.5540 C   0  0  0  0  0  0  0  0  0  0  0  0
  138.2260   75.9390  221.1570 C   0  0  0  0  0  0  0  0  0  0  0  0
  138.0250   76.1300  222.5060 C   0  0  0  0  0  0  0  0  0  0  0  0
  138.2200   77.3740  223.0890 C   0  0  0  0  0  0  0  0  0  0  0  0
  138.6310   78.4130  222.2440 C   0  0  0  0  0  0  0  0  0  0  0  0
  138.8430   79.7390  222.8910 C   0  0  0  0  0  0  0  0  0  0  0  0
  140.2630   80.0380  223.1220 C   0  0  0  0  0  0  0  0  0  0  0  0
  140.7800   81.2700  223.4300 C   0  0  0  0  0  0  0  0  0  0  0  0
  142.1390   81.4580  223.6260 C   0  0  0  0  0  0  0  0  0  0  0  0
  143.0300   80.3800  223.5120 C   0  0  0  0  0  0  0  0  0  0  0  0
  142.5000   79.1270  223.1980 C   0  0  0  0  0  0  0  0  0  0  0  0
  141.1590   78.9840  223.0140 C   0  0  0  0  0  0  0  0  0  0  0  0
  138.8330   78.2220  220.8940 C   0  0  0  0  0  0  0  0  0  0  0  0
  138.6330   76.9630  220.3090 C   0  0  0  0  0  0  0  0  0  0  0  0
  142.5960   74.7270  220.3670 C   0  0  0  0  0  0  0  0  0  0  0  0
  142.7560   76.1090  219.7710 C   0  0  0  0  0  0  0  0  0  0  0  0
  145.4799   75.9243  215.2465 H   0  0  0  0  0  0  0  0  0  0  0  0
  143.8499   75.3442  214.7634 H   0  0  0  0  0  0  0  0  0  0  0  0
  144.2137   77.1033  214.7634 H   0  0  0  0  0  0  0  0  0  0  0  0
  143.6860   75.2421  217.1194 H   0  0  0  0  0  0  0  0  0  0  0  0
  144.7297   76.6676  217.3694 H   0  0  0  0  0  0  0  0  0  0  0  0
  141.5330   78.4846  220.4240 H   0  0  0  0  0  0  0  0  0  0  0  0
  141.3421   80.8414  221.1278 H   0  0  0  0  0  0  0  0  0  0  0  0
  141.7162   82.7034  219.5338 H   0  0  0  0  0  0  0  0  0  0  0  0
  142.2897   82.1317  217.1775 H   0  0  0  0  0  0  0  0  0  0  0  0
  142.4782   79.7763  216.4660 H   0  0  0  0  0  0  0  0  0  0  0  0
  140.8560   76.8170  219.5796 H   0  0  0  0  0  0  0  0  0  0  0  0
  139.8794   75.7901  218.0056 H   0  0  0  0  0  0  0  0  0  0  0  0
  141.4553   75.4253  217.1241 H   0  0  0  0  0  0  0  0  0  0  0  0
  139.9994   73.5704  218.5062 H   0  0  0  0  0  0  0  0  0  0  0  0
  141.7335   73.4526  218.1856 H   0  0  0  0  0  0  0  0  0  0  0  0
  138.9974   72.7073  220.4597 H   0  0  0  0  0  0  0  0  0  0  0  0
  139.1940   72.9750  223.1330 H   0  0  0  0  0  0  0  0  0  0  0  0
  137.7180   73.6370  222.7350 H   0  0  0  0  0  0  0  0  0  0  0  0
  138.1569   74.6438  219.4669 H   0  0  0  0  0  0  0  0  0  0  0  0
  136.9687   74.2690  220.7731 H   0  0  0  0  0  0  0  0  0  0  0  0
  137.7049   75.2833  223.1310 H   0  0  0  0  0  0  0  0  0  0  0  0
  138.0593   77.5368  224.1650 H   0  0  0  0  0  0  0  0  0  0  0  0
  138.4206   80.5192  222.2407 H   0  0  0  0  0  0  0  0  0  0  0  0
  138.3457   79.7128  223.8718 H   0  0  0  0  0  0  0  0  0  0  0  0
  140.1000   82.1295  223.5237 H   0  0  0  0  0  0  0  0  0  0  0  0
  142.5219   82.4593  223.8727 H   0  0  0  0  0  0  0  0  0  0  0  0
  144.1106   80.5176  223.6650 H   0  0  0  0  0  0  0  0  0  0  0  0
  143.1653   78.2566  223.0995 H   0  0  0  0  0  0  0  0  0  0  0  0
  140.7671   77.9860  222.7682 H   0  0  0  0  0  0  0  0  0  0  0  0
  139.1549   79.0671  220.2678 H   0  0  0  0  0  0  0  0  0  0  0  0
  138.7902   76.7942  219.2335 H   0  0  0  0  0  0  0  0  0  0  0  0
  142.7516   74.7720  221.4550 H   0  0  0  0  0  0  0  0  0  0  0  0
  143.3363   74.0406  219.9302 H   0  0  0  0  0  0  0  0  0  0  0  0
  142.8171   76.8367  220.5936 H   0  0  0  0  0  0  0  0  0  0  0  0
  143.6689   76.0901  219.1576 H   0  0  0  0  0  0  0  0  0  0  0  0
  1  2  1  0
  2  3  1  0
  3  4  2  0
  3  5  1  0
  5  6  1  0
  6  7  2  0
  7  8  1  0
  8  9  2  0
  9 10  1  0
 10 11  2  0
  5 12  1  0
 12 13  1  0
 13 14  1  0
 14 15  1  0
 15 16  1  0
 16 17  2  0
 16 18  1  0
 18 19  1  0
 18 20  1  0
 20 21  1  0
 21 22  2  0
 22 23  1  0
 23 24  2  0
 24 25  1  0
 25 26  1  0
 26 27  2  0
 27 28  1  0
 28 29  2  0
 29 30  1  0
 30 31  2  0
 24 32  1  0
 32 33  2  0
 15 34  1  0
 34 35  1  0
 11  6  1  0
 35 12  1  0
 33 21  1  0
 31 26  1  0
  1 36  1  0
  1 37  1  0
  1 38  1  0
  2 39  1  0
  2 40  1  0
  7 41  1  0
  8 42  1  0
  9 43  1  0
 10 44  1  0
 11 45  1  0
 12 46  1  0
 13 47  1  0
 13 48  1  0
 14 49  1  0
 14 50  1  0
 18 51  1  6
 19 52  1  0
 19 53  1  0
 20 54  1  0
 20 55  1  0
 22 56  1  0
 23 57  1  0
 25 58  1  0
 25 59  1  0
 27 60  1  0
 28 61  1  0
 29 62  1  0
 30 63  1  0
 31 64  1  0
 32 65  1  0
 33 66  1  0
 34 67  1  0
 34 68  1  0
 35 69  1  0
 35 70  1  0
M  END
>  <smiles>  (47) 
CCC(=O)N(c1ccccc1)C1CCN(C(=O)[C@@H](N)Cc2ccc(Cc3ccccc3)cc2)CC1

>  <score_type>  (47) 
oracle

>  <origin>  (47) 
autodockgpu

>  <m_score__min__energy>  (47) 
-8.3699999999999992

>  <m_primary>  (47) 
energy

>  <rmsd>  (47) 
5.202741582165668

>  <m_score__min__rmsd>  (47) 
5.202741582165668

>  <meeko>  (47) 
{"free_energy": -6.85, "intermolecular_energy": -9.83, "internal_energy": -4.5, "cluster_size": 29, "cluster_id": 6, "rank_in_cluster": 12}

>  <energy>  (47) 
-6.05

>  <cluster_rmsd>  (47) 
0.94

>  <cluster>  (47) 
6

$$$$

     RDKit          3D

 70 73  0  0  0  0  0  0  0  0999 V2000
  143.5670   77.1440  214.5480 C   0  0  0  0  0  0  0  0  0  0  0  0
  142.5260   77.6570  215.5650 C   0  0  0  0  0  0  0  0  0  0  0  0
  142.9750   77.2310  216.9420 C   0  0  0  0  0  0  0  0  0  0  0  0
  143.9860   76.4670  216.9150 O   0  0  0  0  0  0  0  0  0  0  0  0
  142.3190   77.6570  218.1210 N   0  0  0  0  0  0  0  0  0  0  0  0
  142.1570   79.0070  218.5150 C   0  0  0  0  0  0  0  0  0  0  0  0
  142.3250   80.0440  217.5980 C   0  0  0  0  0  0  0  0  0  0  0  0
  142.1630   81.3800  217.9730 C   0  0  0  0  0  0  0  0  0  0  0  0
  141.8310   81.7440  219.2540 C   0  0  0  0  0  0  0  0  0  0  0  0
  141.6630   80.7330  220.1690 C   0  0  0  0  0  0  0  0  0  0  0  0
  141.8260   79.3940  219.7940 C   0  0  0  0  0  0  0  0  0  0  0  0
  141.8010   76.5630  218.9700 C   0  0  0  0  0  0  0  0  0  0  0  0
  141.0580   75.5930  218.1440 C   0  0  0  0  0  0  0  0  0  0  0  0
  141.0510   74.1620  218.6620 C   0  0  0  0  0  0  0  0  0  0  0  0
  141.3110   74.2650  220.0760 N   0  0  0  0  0  0  0  0  0  0  0  0
  140.4350   74.0270  221.1410 C   0  0  0  0  0  0  0  0  0  0  0  0
  140.9340   74.2030  222.3280 O   0  0  0  0  0  0  0  0  0  0  0  0
  139.0410   73.6120  221.1250 C   0  0  1  0  0  0  0  0  0  0  0  0
  138.5190   73.0710  222.3360 N   0  0  0  0  0  0  0  0  0  0  0  0
  138.1170   74.6480  220.5030 C   0  0  0  0  0  0  0  0  0  0  0  0
  138.3130   75.9860  221.1500 C   0  0  0  0  0  0  0  0  0  0  0  0
  138.7810   77.0450  220.4050 C   0  0  0  0  0  0  0  0  0  0  0  0
  138.9800   78.2920  220.9810 C   0  0  0  0  0  0  0  0  0  0  0  0
  138.6810   78.4160  222.3440 C   0  0  0  0  0  0  0  0  0  0  0  0
  138.8930   79.7650  222.9410 C   0  0  0  0  0  0  0  0  0  0  0  0
  140.3110   80.0630  223.1840 C   0  0  0  0  0  0  0  0  0  0  0  0
  140.8280   81.2980  223.4770 C   0  0  0  0  0  0  0  0  0  0  0  0
  142.1860   81.4850  223.6860 C   0  0  0  0  0  0  0  0  0  0  0  0
  143.0750   80.4020  223.6010 C   0  0  0  0  0  0  0  0  0  0  0  0
  142.5430   79.1470  223.3010 C   0  0  0  0  0  0  0  0  0  0  0  0
  141.2040   79.0040  223.1040 C   0  0  0  0  0  0  0  0  0  0  0  0
  138.2110   77.3560  223.0900 C   0  0  0  0  0  0  0  0  0  0  0  0
  138.0130   76.0970  222.5040 C   0  0  0  0  0  0  0  0  0  0  0  0
  142.7050   74.6980  220.3820 C   0  0  0  0  0  0  0  0  0  0  0  0
  142.9030   76.0980  219.8420 C   0  0  0  0  0  0  0  0  0  0  0  0
  144.4275   76.7200  215.0863 H   0  0  0  0  0  0  0  0  0  0  0  0
  143.1108   76.3675  213.9164 H   0  0  0  0  0  0  0  0  0  0  0  0
  143.9048   77.9788  213.9164 H   0  0  0  0  0  0  0  0  0  0  0  0
  142.4634   78.7541  215.5149 H   0  0  0  0  0  0  0  0  0  0  0  0
  141.5327   77.2416  215.3398 H   0  0  0  0  0  0  0  0  0  0  0  0
  142.5906   79.8051  216.5576 H   0  0  0  0  0  0  0  0  0  0  0  0
  142.3062   82.1659  217.2168 H   0  0  0  0  0  0  0  0  0  0  0  0
  141.7048   82.7997  219.5359 H   0  0  0  0  0  0  0  0  0  0  0  0
  141.3974   80.9783  221.2079 H   0  0  0  0  0  0  0  0  0  0  0  0
  141.6829   78.6147  220.5571 H   0  0  0  0  0  0  0  0  0  0  0  0
  141.0241   76.8678  219.6866 H   0  0  0  0  0  0  0  0  0  0  0  0
  140.0144   75.9343  218.0766 H   0  0  0  0  0  0  0  0  0  0  0  0
  141.5772   75.5611  217.1748 H   0  0  0  0  0  0  0  0  0  0  0  0
  140.0720   73.6931  218.4840 H   0  0  0  0  0  0  0  0  0  0  0  0
  141.8010   73.5391  218.1527 H   0  0  0  0  0  0  0  0  0  0  0  0
  139.0637   72.7405  220.4542 H   0  0  0  0  0  0  0  0  0  0  0  0
  139.2320   73.0280  223.1190 H   0  0  0  0  0  0  0  0  0  0  0  0
  137.7900   73.7530  222.7050 H   0  0  0  0  0  0  0  0  0  0  0  0
  138.3374   74.7303  219.4285 H   0  0  0  0  0  0  0  0  0  0  0  0
  137.0749   74.3301  220.6544 H   0  0  0  0  0  0  0  0  0  0  0  0
  139.0006   76.9006  219.3369 H   0  0  0  0  0  0  0  0  0  0  0  0
  139.3551   79.1436  220.3944 H   0  0  0  0  0  0  0  0  0  0  0  0
  138.4877   80.5216  222.2530 H   0  0  0  0  0  0  0  0  0  0  0  0
  138.3795   79.7814  223.9136 H   0  0  0  0  0  0  0  0  0  0  0  0
  140.1498   82.1611  223.5480 H   0  0  0  0  0  0  0  0  0  0  0  0
  142.5693   82.4891  223.9201 H   0  0  0  0  0  0  0  0  0  0  0  0
  144.1542   80.5378  223.7652 H   0  0  0  0  0  0  0  0  0  0  0  0
  143.2064   78.2730  223.2237 H   0  0  0  0  0  0  0  0  0  0  0  0
  140.8117   78.0031  222.8707 H   0  0  0  0  0  0  0  0  0  0  0  0
  137.9886   77.4994  224.1577 H   0  0  0  0  0  0  0  0  0  0  0  0
  137.6396   75.2411  223.0854 H   0  0  0  0  0  0  0  0  0  0  0  0
  142.8641   74.6943  221.4704 H   0  0  0  0  0  0  0  0  0  0  0  0
  143.4245   74.0090  219.9154 H   0  0  0  0  0  0  0  0  0  0  0  0
  142.9871   76.7895  220.6933 H   0  0  0  0  0  0  0  0  0  0  0  0
  143.8133   76.0777  219.2248 H   0  0  0  0  0  0  0  0  0  0  0  0
  1  2  1  0
  2  3  1  0
  3  4  2  0
  3  5  1  0
  5  6  1  0
  6  7  2  0
  7  8  1  0
  8  9  2  0
  9 10  1  0
 10 11  2  0
  5 12  1  0
 12 13  1  0
 13 14  1  0
 14 15  1  0
 15 16  1  0
 16 17  2  0
 16 18  1  0
 18 19  1  0
 18 20  1  0
 20 21  1  0
 21 22  2  0
 22 23  1  0
 23 24  2  0
 24 25  1  0
 25 26  1  0
 26 27  2  0
 27 28  1  0
 28 29  2  0
 29 30  1  0
 30 31  2  0
 24 32  1  0
 32 33  2  0
 15 34  1  0
 34 35  1  0
 11  6  1  0
 35 12  1  0
 33 21  1  0
 31 26  1  0
  1 36  1  0
  1 37  1  0
  1 38  1  0
  2 39  1  0
  2 40  1  0
  7 41  1  0
  8 42  1  0
  9 43  1  0
 10 44  1  0
 11 45  1  0
 12 46  1  0
 13 47  1  0
 13 48  1  0
 14 49  1  0
 14 50  1  0
 18 51  1  6
 19 52  1  0
 19 53  1  0
 20 54  1  0
 20 55  1  0
 22 56  1  0
 23 57  1  0
 25 58  1  0
 25 59  1  0
 27 60  1  0
 28 61  1  0
 29 62  1  0
 30 63  1  0
 31 64  1  0
 32 65  1  0
 33 66  1  0
 34 67  1  0
 34 68  1  0
 35 69  1  0
 35 70  1  0
M  END
>  <smiles>  (48) 
CCC(=O)N(c1ccccc1)C1CCN(C(=O)[C@@H](N)Cc2ccc(Cc3ccccc3)cc2)CC1

>  <score_type>  (48) 
oracle

>  <origin>  (48) 
autodockgpu

>  <m_score__min__energy>  (48) 
-8.3699999999999992

>  <m_primary>  (48) 
energy

>  <rmsd>  (48) 
5.11888613927179

>  <m_score__min__rmsd>  (48) 
5.11888613927179

>  <meeko>  (48) 
{"free_energy": -7.04, "intermolecular_energy": -10.02, "internal_energy": -4.45, "cluster_size": 29, "cluster_id": 6, "rank_in_cluster": 2}

>  <energy>  (48) 
-5.76

>  <cluster_rmsd>  (48) 
1.02

>  <cluster>  (48) 
6

$$$$

     RDKit          3D

 70 73  0  0  0  0  0  0  0  0999 V2000
  145.9680   73.0620  221.1630 C   0  0  0  0  0  0  0  0  0  0  0  0
  145.2980   74.4130  220.8380 C   0  0  0  0  0  0  0  0  0  0  0  0
  144.2690   74.1730  219.7600 C   0  0  0  0  0  0  0  0  0  0  0  0
  144.6260   73.2860  218.9280 O   0  0  0  0  0  0  0  0  0  0  0  0
  143.0430   74.8760  219.7090 N   0  0  0  0  0  0  0  0  0  0  0  0
  142.8800   76.1830  219.1880 C   0  0  0  0  0  0  0  0  0  0  0  0
  143.2410   76.4770  217.8740 C   0  0  0  0  0  0  0  0  0  0  0  0
  143.0810   77.7610  217.3450 C   0  0  0  0  0  0  0  0  0  0  0  0
  142.5620   78.7950  218.0840 C   0  0  0  0  0  0  0  0  0  0  0  0
  142.2020   78.5190  219.3810 C   0  0  0  0  0  0  0  0  0  0  0  0
  142.3630   77.2340  219.9110 C   0  0  0  0  0  0  0  0  0  0  0  0
  141.8870   74.1460  220.2720 C   0  0  0  0  0  0  0  0  0  0  0  0
  140.8490   73.9720  219.2380 C   0  0  0  0  0  0  0  0  0  0  0  0
  139.9650   72.7440  219.4000 C   0  0  0  0  0  0  0  0  0  0  0  0
  140.0400   72.3980  220.7970 N   0  0  0  0  0  0  0  0  0  0  0  0
  139.0450   72.5110  221.7750 C   0  0  0  0  0  0  0  0  0  0  0  0
  139.3850   72.1290  222.9690 O   0  0  0  0  0  0  0  0  0  0  0  0
  137.6770   72.9950  221.6600 C   0  0  1  0  0  0  0  0  0  0  0  0
  136.9560   73.1730  222.8770 N   0  0  0  0  0  0  0  0  0  0  0  0
  137.5430   74.1860  220.7230 C   0  0  0  0  0  0  0  0  0  0  0  0
  137.8830   75.4590  221.4360 C   0  0  0  0  0  0  0  0  0  0  0  0
  139.1960   75.8660  221.5210 C   0  0  0  0  0  0  0  0  0  0  0  0
  139.5400   77.0370  222.1830 C   0  0  0  0  0  0  0  0  0  0  0  0
  138.4950   77.7750  222.7520 C   0  0  0  0  0  0  0  0  0  0  0  0
  138.8850   79.0330  223.4500 C   0  0  0  0  0  0  0  0  0  0  0  0
  140.2620   79.4490  223.1470 C   0  0  0  0  0  0  0  0  0  0  0  0
  141.3880   79.0090  223.7920 C   0  0  0  0  0  0  0  0  0  0  0  0
  142.6500   79.4630  223.4390 C   0  0  0  0  0  0  0  0  0  0  0  0
  142.8060   80.3950  222.4020 C   0  0  0  0  0  0  0  0  0  0  0  0
  141.6560   80.8410  221.7490 C   0  0  0  0  0  0  0  0  0  0  0  0
  140.4350   80.3700  222.1240 C   0  0  0  0  0  0  0  0  0  0  0  0
  137.1810   77.3690  222.6660 C   0  0  0  0  0  0  0  0  0  0  0  0
  136.8370   76.1850  221.9980 C   0  0  0  0  0  0  0  0  0  0  0  0
  141.3770   71.8720  221.1970 C   0  0  0  0  0  0  0  0  0  0  0  0
  142.4020   72.9700  221.0070 C   0  0  0  0  0  0  0  0  0  0  0  0
  146.0302   72.9366  222.2541 H   0  0  0  0  0  0  0  0  0  0  0  0
  145.3712   72.2440  220.7333 H   0  0  0  0  0  0  0  0  0  0  0  0
  146.9804   73.0420  220.7333 H   0  0  0  0  0  0  0  0  0  0  0  0
  144.8096   74.8141  221.7383 H   0  0  0  0  0  0  0  0  0  0  0  0
  146.0487   75.1406  220.4960 H   0  0  0  0  0  0  0  0  0  0  0  0
  143.6606   75.6819  217.2401 H   0  0  0  0  0  0  0  0  0  0  0  0
  143.3805   77.9489  216.3034 H   0  0  0  0  0  0  0  0  0  0  0  0
  142.4396   79.8010  217.6563 H   0  0  0  0  0  0  0  0  0  0  0  0
  141.7822   79.3177  220.0102 H   0  0  0  0  0  0  0  0  0  0  0  0
  142.0624   77.0555  220.9540 H   0  0  0  0  0  0  0  0  0  0  0  0
  141.3261   74.6973  221.0411 H   0  0  0  0  0  0  0  0  0  0  0  0
  140.2012   74.8609  219.2546 H   0  0  0  0  0  0  0  0  0  0  0  0
  141.3873   73.8345  218.2886 H   0  0  0  0  0  0  0  0  0  0  0  0
  138.9279   72.9766  219.1166 H   0  0  0  0  0  0  0  0  0  0  0  0
  140.2948   71.9156  218.7558 H   0  0  0  0  0  0  0  0  0  0  0  0
  137.1642   72.1425  221.1906 H   0  0  0  0  0  0  0  0  0  0  0  0
  137.3710   72.6390  223.6940 H   0  0  0  0  0  0  0  0  0  0  0  0
  137.0640   74.1900  223.1690 H   0  0  0  0  0  0  0  0  0  0  0  0
  138.2270   74.0548  219.8716 H   0  0  0  0  0  0  0  0  0  0  0  0
  136.5028   74.2442  220.3701 H   0  0  0  0  0  0  0  0  0  0  0  0
  139.9839   75.2542  221.0575 H   0  0  0  0  0  0  0  0  0  0  0  0
  140.5858   77.3698  222.2571 H   0  0  0  0  0  0  0  0  0  0  0  0
  138.1991   79.8347  223.1389 H   0  0  0  0  0  0  0  0  0  0  0  0
  138.8267   78.8433  224.5319 H   0  0  0  0  0  0  0  0  0  0  0  0
  141.2887   78.2788  224.6087 H   0  0  0  0  0  0  0  0  0  0  0  0
  143.5347   79.0898  223.9757 H   0  0  0  0  0  0  0  0  0  0  0  0
  143.8019   80.7621  222.1131 H   0  0  0  0  0  0  0  0  0  0  0  0
  141.7362   81.5728  220.9317 H   0  0  0  0  0  0  0  0  0  0  0  0
  139.5449   80.7364  221.5915 H   0  0  0  0  0  0  0  0  0  0  0  0
  136.3921   77.9813  223.1271 H   0  0  0  0  0  0  0  0  0  0  0  0
  135.7930   75.8470  221.9220 H   0  0  0  0  0  0  0  0  0  0  0  0
  141.3540   71.5646  222.2529 H   0  0  0  0  0  0  0  0  0  0  0  0
  141.6394   71.0006  220.5791 H   0  0  0  0  0  0  0  0  0  0  0  0
  142.7422   73.3025  221.9988 H   0  0  0  0  0  0  0  0  0  0  0  0
  143.2176   72.5462  220.4028 H   0  0  0  0  0  0  0  0  0  0  0  0
  1  2  1  0
  2  3  1  0
  3  4  2  0
  3  5  1  0
  5  6  1  0
  6  7  2  0
  7  8  1  0
  8  9  2  0
  9 10  1  0
 10 11  2  0
  5 12  1  0
 12 13  1  0
 13 14  1  0
 14 15  1  0
 15 16  1  0
 16 17  2  0
 16 18  1  0
 18 19  1  0
 18 20  1  0
 20 21  1  0
 21 22  2  0
 22 23  1  0
 23 24  2  0
 24 25  1  0
 25 26  1  0
 26 27  2  0
 27 28  1  0
 28 29  2  0
 29 30  1  0
 30 31  2  0
 24 32  1  0
 32 33  2  0
 15 34  1  0
 34 35  1  0
 11  6  1  0
 35 12  1  0
 33 21  1  0
 31 26  1  0
  1 36  1  0
  1 37  1  0
  1 38  1  0
  2 39  1  0
  2 40  1  0
  7 41  1  0
  8 42  1  0
  9 43  1  0
 10 44  1  0
 11 45  1  0
 12 46  1  0
 13 47  1  0
 13 48  1  0
 14 49  1  0
 14 50  1  0
 18 51  1  6
 19 52  1  0
 19 53  1  0
 20 54  1  0
 20 55  1  0
 22 56  1  0
 23 57  1  0
 25 58  1  0
 25 59  1  0
 27 60  1  0
 28 61  1  0
 29 62  1  0
 30 63  1  0
 31 64  1  0
 32 65  1  0
 33 66  1  0
 34 67  1  0
 34 68  1  0
 35 69  1  0
 35 70  1  0
M  END
>  <smiles>  (49) 
CCC(=O)N(c1ccccc1)C1CCN(C(=O)[C@@H](N)Cc2ccc(Cc3ccccc3)cc2)CC1

>  <score_type>  (49) 
oracle

>  <origin>  (49) 
autodockgpu

>  <m_score__min__energy>  (49) 
-8.3699999999999992

>  <m_primary>  (49) 
energy

>  <rmsd>  (49) 
6.43813236936668

>  <m_score__min__rmsd>  (49) 
6.43813236936668

>  <meeko>  (49) 
{"free_energy": -7.19, "intermolecular_energy": -10.17, "internal_energy": -3.93, "cluster_size": 3, "cluster_id": 5, "rank_in_cluster": 3}

>  <energy>  (49) 
-5.61

>  <cluster_rmsd>  (49) 
1.06

>  <cluster>  (49) 
6

$$$$

     RDKit          3D

 70 73  0  0  0  0  0  0  0  0999 V2000
  142.6420   77.6980  214.9720 C   0  0  0  0  0  0  0  0  0  0  0  0
  142.1960   78.7340  216.0250 C   0  0  0  0  0  0  0  0  0  0  0  0
  142.3940   78.1200  217.3910 C   0  0  0  0  0  0  0  0  0  0  0  0
  143.3780   77.3230  217.4330 O   0  0  0  0  0  0  0  0  0  0  0  0
  141.5550   78.4230  218.4890 N   0  0  0  0  0  0  0  0  0  0  0  0
  141.2470   79.7310  218.9360 C   0  0  0  0  0  0  0  0  0  0  0  0
  140.0500   80.3460  218.5710 C   0  0  0  0  0  0  0  0  0  0  0  0
  139.7310   81.6340  219.0090 C   0  0  0  0  0  0  0  0  0  0  0  0
  140.5700   82.3590  219.8180 C   0  0  0  0  0  0  0  0  0  0  0  0
  141.7530   81.7640  220.1860 C   0  0  0  0  0  0  0  0  0  0  0  0
  142.0740   80.4750  219.7460 C   0  0  0  0  0  0  0  0  0  0  0  0
  141.0040   77.2440  219.1890 C   0  0  0  0  0  0  0  0  0  0  0  0
  140.2780   76.3850  218.2350 C   0  0  0  0  0  0  0  0  0  0  0  0
  140.2440   74.9040  218.5830 C   0  0  0  0  0  0  0  0  0  0  0  0
  140.4630   74.8390  220.0060 N   0  0  0  0  0  0  0  0  0  0  0  0
  139.5530   74.4890  221.0100 C   0  0  0  0  0  0  0  0  0  0  0  0
  140.0170   74.5190  222.2240 O   0  0  0  0  0  0  0  0  0  0  0  0
  138.1560   74.0940  220.9050 C   0  0  1  0  0  0  0  0  0  0  0  0
  137.6260   73.3240  221.9810 N   0  0  0  0  0  0  0  0  0  0  0  0
  137.2410   75.2400  220.5020 C   0  0  0  0  0  0  0  0  0  0  0  0
  137.7130   76.5290  221.1040 C   0  0  0  0  0  0  0  0  0  0  0  0
  137.8810   76.6260  222.4670 C   0  0  0  0  0  0  0  0  0  0  0  0
  138.3100   77.8110  223.0510 C   0  0  0  0  0  0  0  0  0  0  0  0
  138.5590   78.8880  222.1920 C   0  0  0  0  0  0  0  0  0  0  0  0
  139.0260   80.1470  222.8390 C   0  0  0  0  0  0  0  0  0  0  0  0
  140.4850   80.1930  223.0080 C   0  0  0  0  0  0  0  0  0  0  0  0
  141.1900   81.2200  223.5810 C   0  0  0  0  0  0  0  0  0  0  0  0
  142.5710   81.1760  223.6930 C   0  0  0  0  0  0  0  0  0  0  0  0
  143.2890   80.0690  223.2170 C   0  0  0  0  0  0  0  0  0  0  0  0
  142.5670   79.0260  222.6340 C   0  0  0  0  0  0  0  0  0  0  0  0
  141.2110   79.1060  222.5440 C   0  0  0  0  0  0  0  0  0  0  0  0
  138.3910   78.7900  220.8280 C   0  0  0  0  0  0  0  0  0  0  0  0
  137.9580   77.5920  220.2410 C   0  0  0  0  0  0  0  0  0  0  0  0
  141.8500   75.2180  220.4000 C   0  0  0  0  0  0  0  0  0  0  0  0
  142.0750   76.6690  220.0330 C   0  0  0  0  0  0  0  0  0  0  0  0
  143.0278   76.8018  215.4799 H   0  0  0  0  0  0  0  0  0  0  0  0
  141.7831   77.4217  214.3427 H   0  0  0  0  0  0  0  0  0  0  0  0
  143.4330   78.1320  214.3427 H   0  0  0  0  0  0  0  0  0  0  0  0
  142.8040   79.6461  215.9332 H   0  0  0  0  0  0  0  0  0  0  0  0
  141.1402   79.0038  215.8748 H   0  0  0  0  0  0  0  0  0  0  0  0
  139.3422   79.8061  217.9249 H   0  0  0  0  0  0  0  0  0  0  0  0
  138.7764   82.0815  218.6952 H   0  0  0  0  0  0  0  0  0  0  0  0
  140.3071   83.3719  220.1569 H   0  0  0  0  0  0  0  0  0  0  0  0
  142.4560   82.3076  220.8343 H   0  0  0  0  0  0  0  0  0  0  0  0
  143.0318   80.0361  220.0623 H   0  0  0  0  0  0  0  0  0  0  0  0
  140.2083   77.4720  219.9135 H   0  0  0  0  0  0  0  0  0  0  0  0
  139.2397   76.7438  218.1779 H   0  0  0  0  0  0  0  0  0  0  0  0
  140.8254   76.4596  217.2838 H   0  0  0  0  0  0  0  0  0  0  0  0
  139.2668   74.4703  218.3240 H   0  0  0  0  0  0  0  0  0  0  0  0
  141.0038   74.3359  218.0263 H   0  0  0  0  0  0  0  0  0  0  0  0
  138.1763   73.3758  220.0721 H   0  0  0  0  0  0  0  0  0  0  0  0
  137.7200   72.2770  221.8360 H   0  0  0  0  0  0  0  0  0  0  0  0
  138.2300   73.5080  222.8370 H   0  0  0  0  0  0  0  0  0  0  0  0
  137.2387   75.3324  219.4059 H   0  0  0  0  0  0  0  0  0  0  0  0
  136.2256   75.0285  220.8683 H   0  0  0  0  0  0  0  0  0  0  0  0
  137.6725   75.7527  223.1025 H   0  0  0  0  0  0  0  0  0  0  0  0
  138.4478   77.8992  224.1388 H   0  0  0  0  0  0  0  0  0  0  0  0
  138.7175   80.9984  222.2146 H   0  0  0  0  0  0  0  0  0  0  0  0
  138.5749   80.1914  223.8413 H   0  0  0  0  0  0  0  0  0  0  0  0
  140.6475   82.0986  223.9603 H   0  0  0  0  0  0  0  0  0  0  0  0
  143.1079   82.0156  224.1587 H   0  0  0  0  0  0  0  0  0  0  0  0
  144.3849   80.0242  223.3003 H   0  0  0  0  0  0  0  0  0  0  0  0
  143.0932   78.1406  222.2478 H   0  0  0  0  0  0  0  0  0  0  0  0
  140.6658   78.2698  222.0819 H   0  0  0  0  0  0  0  0  0  0  0  0
  138.5991   79.6625  220.1912 H   0  0  0  0  0  0  0  0  0  0  0  0
  137.8193   77.4979  219.1538 H   0  0  0  0  0  0  0  0  0  0  0  0
  141.9767   75.0858  221.4847 H   0  0  0  0  0  0  0  0  0  0  0  0
  142.5776   74.5801  219.8768 H   0  0  0  0  0  0  0  0  0  0  0  0
  142.1379   77.2559  220.9612 H   0  0  0  0  0  0  0  0  0  0  0  0
  143.0038   76.7107  219.4451 H   0  0  0  0  0  0  0  0  0  0  0  0
  1  2  1  0
  2  3  1  0
  3  4  2  0
  3  5  1  0
  5  6  1  0
  6  7  2  0
  7  8  1  0
  8  9  2  0
  9 10  1  0
 10 11  2  0
  5 12  1  0
 12 13  1  0
 13 14  1  0
 14 15  1  0
 15 16  1  0
 16 17  2  0
 16 18  1  0
 18 19  1  0
 18 20  1  0
 20 21  1  0
 21 22  2  0
 22 23  1  0
 23 24  2  0
 24 25  1  0
 25 26  1  0
 26 27  2  0
 27 28  1  0
 28 29  2  0
 29 30  1  0
 30 31  2  0
 24 32  1  0
 32 33  2  0
 15 34  1  0
 34 35  1  0
 11  6  1  0
 35 12  1  0
 33 21  1  0
 31 26  1  0
  1 36  1  0
  1 37  1  0
  1 38  1  0
  2 39  1  0
  2 40  1  0
  7 41  1  0
  8 42  1  0
  9 43  1  0
 10 44  1  0
 11 45  1  0
 12 46  1  0
 13 47  1  0
 13 48  1  0
 14 49  1  0
 14 50  1  0
 18 51  1  6
 19 52  1  0
 19 53  1  0
 20 54  1  0
 20 55  1  0
 22 56  1  0
 23 57  1  0
 25 58  1  0
 25 59  1  0
 27 60  1  0
 28 61  1  0
 29 62  1  0
 30 63  1  0
 31 64  1  0
 32 65  1  0
 33 66  1  0
 34 67  1  0
 34 68  1  0
 35 69  1  0
 35 70  1  0
M  END
>  <smiles>  (50) 
CCC(=O)N(c1ccccc1)C1CCN(C(=O)[C@@H](N)Cc2ccc(Cc3ccccc3)cc2)CC1

>  <score_type>  (50) 
oracle

>  <origin>  (50) 
autodockgpu

>  <m_score__min__energy>  (50) 
-8.3699999999999992

>  <m_primary>  (50) 
energy

>  <rmsd>  (50) 
4.910198649484865

>  <m_score__min__rmsd>  (50) 
4.910198649484865

>  <meeko>  (50) 
{"free_energy": -5.61, "intermolecular_energy": -8.59, "internal_energy": -5.21, "cluster_size": 29, "cluster_id": 6, "rank_in_cluster": 29}

>  <energy>  (50) 
-5.51

>  <cluster_rmsd>  (50) 
0.0

>  <cluster>  (50) 
7

$$$$
