
     RDKit          3D

 51 54  0  0  0  0  0  0  0  0999 V2000
  138.9880   71.3990  221.1280 O   0  0  0  0  0  0  0  0  0  0  0  0
  139.2750   71.9430  222.2450 C   0  0  0  0  0  0  0  0  0  0  0  0
  139.4070   73.3750  222.3510 N   0  0  0  0  0  0  0  0  0  0  0  0
  139.2090   74.2210  221.1640 C   0  0  0  0  0  0  0  0  0  0  0  0
  140.0770   75.3950  221.2110 C   0  0  0  0  0  0  0  0  0  0  0  0
  140.6230   75.6260  222.3660 O   0  0  0  0  0  0  0  0  0  0  0  0
  140.4040   76.3040  220.2110 N   0  0  0  0  0  0  0  0  0  0  0  0
  139.9860   75.9000  218.8290 C   0  0  0  0  0  0  0  0  0  0  0  0
  141.1710   76.3150  217.9490 C   0  0  0  0  0  0  0  0  0  0  0  0
  142.4620   76.2030  218.7000 C   0  0  0  0  0  0  0  0  0  0  0  0
  142.5510   77.1930  219.8380 C   0  0  0  0  0  0  0  0  0  0  0  0
  141.1120   77.5420  220.2540 C   0  0  2  0  0  0  0  0  0  0  0  0
  141.0770   78.3410  221.4610 C   0  0  0  0  0  0  0  0  0  0  0  0
  142.1990   78.7020  222.1720 C   0  0  0  0  0  0  0  0  0  0  0  0
  142.1690   79.4600  223.3210 C   0  0  0  0  0  0  0  0  0  0  0  0
  140.9700   79.9070  223.8290 C   0  0  0  0  0  0  0  0  0  0  0  0
  139.8270   79.5670  223.1450 C   0  0  0  0  0  0  0  0  0  0  0  0
  138.3030   80.1400  223.7970 Cl  0  0  0  0  0  0  0  0  0  0  0  0
  139.8590   78.7970  221.9790 C   0  0  0  0  0  0  0  0  0  0  0  0
  139.4790   71.1280  223.4500 C   0  0  0  0  0  0  0  0  0  0  0  0
  139.0890   69.8060  223.4190 C   0  0  0  0  0  0  0  0  0  0  0  0
  139.2930   69.0660  224.5660 C   0  0  0  0  0  0  0  0  0  0  0  0
  139.8590   69.5970  225.7050 C   0  0  0  0  0  0  0  0  0  0  0  0
  140.0600   68.8570  226.8430 C   0  0  0  0  0  0  0  0  0  0  0  0
  140.6300   69.4110  227.9780 C   0  0  0  0  0  0  0  0  0  0  0  0
  140.8230   68.6700  229.0930 F   0  0  0  0  0  0  0  0  0  0  0  0
  141.0000   70.7390  227.9500 C   0  0  0  0  0  0  0  0  0  0  0  0
  140.7960   71.4860  226.7970 C   0  0  0  0  0  0  0  0  0  0  0  0
  140.2240   70.9280  225.6620 C   0  0  0  0  0  0  0  0  0  0  0  0
  140.0310   71.6450  224.5610 N   0  0  0  0  0  0  0  0  0  0  0  0
  139.6430   73.7540  223.2860 H   0  0  0  0  0  0  0  0  0  0  0  0
  139.4422   73.6364  220.2619 H   0  0  0  0  0  0  0  0  0  0  0  0
  138.1621   74.5581  221.1429 H   0  0  0  0  0  0  0  0  0  0  0  0
  139.8180   74.8144  218.7726 H   0  0  0  0  0  0  0  0  0  0  0  0
  139.0413   76.3695  218.5173 H   0  0  0  0  0  0  0  0  0  0  0  0
  141.2103   75.6599  217.0662 H   0  0  0  0  0  0  0  0  0  0  0  0
  141.0320   77.3630  217.6452 H   0  0  0  0  0  0  0  0  0  0  0  0
  142.5462   75.1853  219.1090 H   0  0  0  0  0  0  0  0  0  0  0  0
  143.2799   76.4227  217.9980 H   0  0  0  0  0  0  0  0  0  0  0  0
  143.0897   76.7446  220.6858 H   0  0  0  0  0  0  0  0  0  0  0  0
  143.0964   78.0962  219.5268 H   0  0  0  0  0  0  0  0  0  0  0  0
  140.5850   78.2309  219.5775 H   0  0  0  0  0  0  0  0  0  0  0  0
  143.1778   78.3649  221.8001 H   0  0  0  0  0  0  0  0  0  0  0  0
  143.1083   79.7099  223.8360 H   0  0  0  0  0  0  0  0  0  0  0  0
  140.9282   80.5126  224.7464 H   0  0  0  0  0  0  0  0  0  0  0  0
  138.9195   78.5473  221.4642 H   0  0  0  0  0  0  0  0  0  0  0  0
  138.6358   69.3612  222.5208 H   0  0  0  0  0  0  0  0  0  0  0  0
  138.9913   68.0082  224.5714 H   0  0  0  0  0  0  0  0  0  0  0  0
  139.7614   67.7984  226.8545 H   0  0  0  0  0  0  0  0  0  0  0  0
  141.4547   71.2047  228.8368 H   0  0  0  0  0  0  0  0  0  0  0  0
  141.0947   72.5446  226.7829 H   0  0  0  0  0  0  0  0  0  0  0  0
  1  2  2  0
  2  3  1  0
  3  4  1  0
  4  5  1  0
  5  6  2  0
  5  7  1  0
  7  8  1  0
  8  9  1  0
  9 10  1  0
 10 11  1  0
 11 12  1  0
 12 13  1  0
 13 14  2  0
 14 15  1  0
 15 16  2  0
 16 17  1  0
 17 18  1  0
 17 19  2  0
  2 20  1  0
 20 21  2  0
 21 22  1  0
 22 23  2  0
 23 24  1  0
 24 25  2  0
 25 26  1  0
 25 27  1  0
 27 28  2  0
 28 29  1  0
 29 30  2  0
 12  7  1  0
 19 13  1  0
 30 20  1  0
 29 23  1  0
  3 31  1  0
  4 32  1  0
  4 33  1  0
  8 34  1  0
  8 35  1  0
  9 36  1  0
  9 37  1  0
 10 38  1  0
 10 39  1  0
 11 40  1  0
 11 41  1  0
 12 42  1  6
 14 43  1  0
 15 44  1  0
 16 45  1  0
 19 46  1  0
 21 47  1  0
 22 48  1  0
 24 49  1  0
 27 50  1  0
 28 51  1  0
M  END
>  <smiles>  (1) 
O=C(NCC(=O)N1CCCCC1c1cccc(Cl)c1)c1ccc2cc(F)ccc2n1

>  <score_type>  (1) 
oracle

>  <origin>  (1) 
autodockgpu

>  <m_score__min__energy>  (1) 
-9.3399999999999999

>  <m_primary>  (1) 
energy

>  <rmsd>  (1) 
1.2666747237055935

>  <m_score__min__rmsd>  (1) 
1.2666747237055935

>  <meeko>  (1) 
{"free_energy": -8.57, "intermolecular_energy": -10.06, "internal_energy": -2.09, "cluster_size": 18, "cluster_id": 1, "rank_in_cluster": 13}

>  <energy>  (1) 
-9.34

>  <cluster_rmsd>  (1) 
0.0

>  <cluster>  (1) 
1

$$$$

     RDKit          3D

 51 54  0  0  0  0  0  0  0  0999 V2000
  141.4500   71.8650  221.5630 O   0  0  0  0  0  0  0  0  0  0  0  0
  140.6320   72.2930  222.4420 C   0  0  0  0  0  0  0  0  0  0  0  0
  139.9960   73.5780  222.2900 N   0  0  0  0  0  0  0  0  0  0  0  0
  140.2880   74.4070  221.1110 C   0  0  0  0  0  0  0  0  0  0  0  0
  139.5190   75.6490  221.1440 C   0  0  0  0  0  0  0  0  0  0  0  0
  138.7760   75.8040  222.1970 O   0  0  0  0  0  0  0  0  0  0  0  0
  139.4570   76.6860  220.2200 N   0  0  0  0  0  0  0  0  0  0  0  0
  138.6980   76.3690  218.9660 C   0  0  0  0  0  0  0  0  0  0  0  0
  139.5350   77.0160  217.8550 C   0  0  0  0  0  0  0  0  0  0  0  0
  140.9920   76.9940  218.2000 C   0  0  0  0  0  0  0  0  0  0  0  0
  141.3120   77.8710  219.3900 C   0  0  0  0  0  0  0  0  0  0  0  0
  140.0290   77.9930  220.2270 C   0  0  2  0  0  0  0  0  0  0  0  0
  140.2680   78.6580  221.4900 C   0  0  0  0  0  0  0  0  0  0  0  0
  139.3120   78.8120  222.4670 C   0  0  0  0  0  0  0  0  0  0  0  0
  139.5360   79.4460  223.6690 C   0  0  0  0  0  0  0  0  0  0  0  0
  140.7740   79.9750  223.9560 C   0  0  0  0  0  0  0  0  0  0  0  0
  141.7570   79.8410  223.0040 C   0  0  0  0  0  0  0  0  0  0  0  0
  143.3320   80.5170  223.3760 Cl  0  0  0  0  0  0  0  0  0  0  0  0
  141.5270   79.1960  221.7840 C   0  0  0  0  0  0  0  0  0  0  0  0
  140.3180   71.4910  223.6320 C   0  0  0  0  0  0  0  0  0  0  0  0
  139.5930   70.3290  223.4640 C   0  0  0  0  0  0  0  0  0  0  0  0
  139.3120   69.5970  224.6010 C   0  0  0  0  0  0  0  0  0  0  0  0
  139.7250   69.9840  225.8580 C   0  0  0  0  0  0  0  0  0  0  0  0
  139.4430   69.2530  226.9830 C   0  0  0  0  0  0  0  0  0  0  0  0
  139.8660   69.6600  228.2390 C   0  0  0  0  0  0  0  0  0  0  0  0
  139.5820   68.9290  229.3410 F   0  0  0  0  0  0  0  0  0  0  0  0
  140.5870   70.8310  228.3440 C   0  0  0  0  0  0  0  0  0  0  0  0
  140.8710   71.5690  227.2030 C   0  0  0  0  0  0  0  0  0  0  0  0
  140.4450   71.1580  225.9480 C   0  0  0  0  0  0  0  0  0  0  0  0
  140.7190   71.8670  224.8590 N   0  0  0  0  0  0  0  0  0  0  0  0
  139.3430   73.8680  223.0400 H   0  0  0  0  0  0  0  0  0  0  0  0
  141.3612   74.6480  221.0970 H   0  0  0  0  0  0  0  0  0  0  0  0
  140.0089   73.8445  220.2078 H   0  0  0  0  0  0  0  0  0  0  0  0
  138.6241   75.2816  218.8175 H   0  0  0  0  0  0  0  0  0  0  0  0
  137.6636   76.7425  218.9902 H   0  0  0  0  0  0  0  0  0  0  0  0
  139.3787   76.4619  216.9177 H   0  0  0  0  0  0  0  0  0  0  0  0
  139.2173   78.0629  217.7409 H   0  0  0  0  0  0  0  0  0  0  0  0
  141.2849   75.9598  218.4335 H   0  0  0  0  0  0  0  0  0  0  0  0
  141.5492   77.3830  217.3350 H   0  0  0  0  0  0  0  0  0  0  0  0
  142.1112   77.4128  219.9910 H   0  0  0  0  0  0  0  0  0  0  0  0
  141.6577   78.8621  219.0611 H   0  0  0  0  0  0  0  0  0  0  0  0
  139.2684   78.6735  219.8168 H   0  0  0  0  0  0  0  0  0  0  0  0
  138.3082   78.4043  222.2768 H   0  0  0  0  0  0  0  0  0  0  0  0
  138.7214   79.5301  224.4034 H   0  0  0  0  0  0  0  0  0  0  0  0
  140.9694   80.4855  224.9106 H   0  0  0  0  0  0  0  0  0  0  0  0
  142.3417   79.1108  221.0498 H   0  0  0  0  0  0  0  0  0  0  0  0
  139.2544   70.0008  222.4702 H   0  0  0  0  0  0  0  0  0  0  0  0
  138.7345   68.6663  224.4993 H   0  0  0  0  0  0  0  0  0  0  0  0
  138.8670   68.3208  226.8868 H   0  0  0  0  0  0  0  0  0  0  0  0
  140.9356   71.1787  229.3277 H   0  0  0  0  0  0  0  0  0  0  0  0
  141.4472   72.5014  227.2960 H   0  0  0  0  0  0  0  0  0  0  0  0
  1  2  2  0
  2  3  1  0
  3  4  1  0
  4  5  1  0
  5  6  2  0
  5  7  1  0
  7  8  1  0
  8  9  1  0
  9 10  1  0
 10 11  1  0
 11 12  1  0
 12 13  1  0
 13 14  2  0
 14 15  1  0
 15 16  2  0
 16 17  1  0
 17 18  1  0
 17 19  2  0
  2 20  1  0
 20 21  2  0
 21 22  1  0
 22 23  2  0
 23 24  1  0
 24 25  2  0
 25 26  1  0
 25 27  1  0
 27 28  2  0
 28 29  1  0
 29 30  2  0
 12  7  1  0
 19 13  1  0
 30 20  1  0
 29 23  1  0
  3 31  1  0
  4 32  1  0
  4 33  1  0
  8 34  1  0
  8 35  1  0
  9 36  1  0
  9 37  1  0
 10 38  1  0
 10 39  1  0
 11 40  1  0
 11 41  1  0
 12 42  1  6
 14 43  1  0
 15 44  1  0
 16 45  1  0
 19 46  1  0
 21 47  1  0
 22 48  1  0
 24 49  1  0
 27 50  1  0
 28 51  1  0
M  END
>  <smiles>  (2) 
O=C(NCC(=O)N1CCCCC1c1cccc(Cl)c1)c1ccc2cc(F)ccc2n1

>  <score_type>  (2) 
oracle

>  <origin>  (2) 
autodockgpu

>  <m_score__min__energy>  (2) 
-9.3399999999999999

>  <m_primary>  (2) 
energy

>  <rmsd>  (2) 
1.710904995002434

>  <m_score__min__rmsd>  (2) 
1.710904995002434

>  <meeko>  (2) 
{"free_energy": -8.21, "intermolecular_energy": -9.7, "internal_energy": -1.93, "cluster_size": 18, "cluster_id": 1, "rank_in_cluster": 18}

>  <energy>  (2) 
-9.28

>  <cluster_rmsd>  (2) 
0.16

>  <cluster>  (2) 
1

$$$$

     RDKit          3D

 51 54  0  0  0  0  0  0  0  0999 V2000
  138.9660   71.2740  221.1750 O   0  0  0  0  0  0  0  0  0  0  0  0
  139.2630   71.7990  222.2980 C   0  0  0  0  0  0  0  0  0  0  0  0
  139.3950   73.2290  222.4280 N   0  0  0  0  0  0  0  0  0  0  0  0
  139.1850   74.0950  221.2570 C   0  0  0  0  0  0  0  0  0  0  0  0
  140.2450   75.0970  221.1540 C   0  0  0  0  0  0  0  0  0  0  0  0
  141.0200   75.1810  222.1910 O   0  0  0  0  0  0  0  0  0  0  0  0
  140.5450   75.9750  220.1190 N   0  0  0  0  0  0  0  0  0  0  0  0
  140.3250   75.4250  218.7410 C   0  0  0  0  0  0  0  0  0  0  0  0
  141.5260   75.9440  217.9410 C   0  0  0  0  0  0  0  0  0  0  0  0
  142.7390   76.0650  218.8120 C   0  0  0  0  0  0  0  0  0  0  0  0
  142.5800   77.1300  219.8720 C   0  0  0  0  0  0  0  0  0  0  0  0
  141.0730   77.3000  220.1280 C   0  0  2  0  0  0  0  0  0  0  0  0
  140.8110   78.1640  221.2600 C   0  0  0  0  0  0  0  0  0  0  0  0
  139.5570   78.3790  221.7840 C   0  0  0  0  0  0  0  0  0  0  0  0
  139.3040   79.2010  222.8590 C   0  0  0  0  0  0  0  0  0  0  0  0
  140.3340   79.8700  223.4800 C   0  0  0  0  0  0  0  0  0  0  0  0
  141.6030   79.6800  222.9860 C   0  0  0  0  0  0  0  0  0  0  0  0
  142.9100   80.5350  223.7830 Cl  0  0  0  0  0  0  0  0  0  0  0  0
  141.8570   78.8440  221.8940 C   0  0  0  0  0  0  0  0  0  0  0  0
  139.4790   70.9640  223.4860 C   0  0  0  0  0  0  0  0  0  0  0  0
  139.0740   69.6470  223.4430 C   0  0  0  0  0  0  0  0  0  0  0  0
  139.2890   68.8870  224.5750 C   0  0  0  0  0  0  0  0  0  0  0  0
  139.8810   69.3950  225.7120 C   0  0  0  0  0  0  0  0  0  0  0  0
  140.0930   68.6360  226.8340 C   0  0  0  0  0  0  0  0  0  0  0  0
  140.6880   69.1660  227.9690 C   0  0  0  0  0  0  0  0  0  0  0  0
  140.8910   68.4060  229.0690 F   0  0  0  0  0  0  0  0  0  0  0  0
  141.0720   70.4900  227.9540 C   0  0  0  0  0  0  0  0  0  0  0  0
  140.8560   71.2560  226.8160 C   0  0  0  0  0  0  0  0  0  0  0  0
  140.2590   70.7220  225.6830 C   0  0  0  0  0  0  0  0  0  0  0  0
  140.0550   71.4580  224.5960 N   0  0  0  0  0  0  0  0  0  0  0  0
  139.6390   73.5930  223.3660 H   0  0  0  0  0  0  0  0  0  0  0  0
  139.1838   73.4768  220.3471 H   0  0  0  0  0  0  0  0  0  0  0  0
  138.2210   74.6126  221.3703 H   0  0  0  0  0  0  0  0  0  0  0  0
  140.3106   74.3252  218.7562 H   0  0  0  0  0  0  0  0  0  0  0  0
  139.3618   75.7347  218.3093 H   0  0  0  0  0  0  0  0  0  0  0  0
  141.7410   75.2442  217.1200 H   0  0  0  0  0  0  0  0  0  0  0  0
  141.2789   76.9396  217.5438 H   0  0  0  0  0  0  0  0  0  0  0  0
  142.9178   75.0984  219.3057 H   0  0  0  0  0  0  0  0  0  0  0  0
  143.5860   76.3517  218.1714 H   0  0  0  0  0  0  0  0  0  0  0  0
  143.0861   76.8183  220.7975 H   0  0  0  0  0  0  0  0  0  0  0  0
  143.0279   78.0785  219.5409 H   0  0  0  0  0  0  0  0  0  0  0  0
  140.5287   77.8621  219.3548 H   0  0  0  0  0  0  0  0  0  0  0  0
  138.7056   77.8632  221.3159 H   0  0  0  0  0  0  0  0  0  0  0  0
  138.2734   79.3237  223.2234 H   0  0  0  0  0  0  0  0  0  0  0  0
  140.1490   80.5317  224.3390 H   0  0  0  0  0  0  0  0  0  0  0  0
  142.8877   78.7199  221.5303 H   0  0  0  0  0  0  0  0  0  0  0  0
  138.6005   69.2207  222.5463 H   0  0  0  0  0  0  0  0  0  0  0  0
  138.9752   67.8327  224.5699 H   0  0  0  0  0  0  0  0  0  0  0  0
  139.7834   67.5805  226.8339 H   0  0  0  0  0  0  0  0  0  0  0  0
  141.5473   70.9376  228.8393 H   0  0  0  0  0  0  0  0  0  0  0  0
  141.1656   72.3115  226.8127 H   0  0  0  0  0  0  0  0  0  0  0  0
  1  2  2  0
  2  3  1  0
  3  4  1  0
  4  5  1  0
  5  6  2  0
  5  7  1  0
  7  8  1  0
  8  9  1  0
  9 10  1  0
 10 11  1  0
 11 12  1  0
 12 13  1  0
 13 14  2  0
 14 15  1  0
 15 16  2  0
 16 17  1  0
 17 18  1  0
 17 19  2  0
  2 20  1  0
 20 21  2  0
 21 22  1  0
 22 23  2  0
 23 24  1  0
 24 25  2  0
 25 26  1  0
 25 27  1  0
 27 28  2  0
 28 29  1  0
 29 30  2  0
 12  7  1  0
 19 13  1  0
 30 20  1  0
 29 23  1  0
  3 31  1  0
  4 32  1  0
  4 33  1  0
  8 34  1  0
  8 35  1  0
  9 36  1  0
  9 37  1  0
 10 38  1  0
 10 39  1  0
 11 40  1  0
 11 41  1  0
 12 42  1  6
 14 43  1  0
 15 44  1  0
 16 45  1  0
 19 46  1  0
 21 47  1  0
 22 48  1  0
 24 49  1  0
 27 50  1  0
 28 51  1  0
M  END
>  <smiles>  (3) 
O=C(NCC(=O)N1CCCCC1c1cccc(Cl)c1)c1ccc2cc(F)ccc2n1

>  <score_type>  (3) 
oracle

>  <origin>  (3) 
autodockgpu

>  <m_score__min__energy>  (3) 
-9.3399999999999999

>  <m_primary>  (3) 
energy

>  <rmsd>  (3) 
1.2439563268935143

>  <m_score__min__rmsd>  (3) 
1.2439563268935143

>  <meeko>  (3) 
{"free_energy": -8.8, "intermolecular_energy": -10.29, "internal_energy": -2.0, "cluster_size": 18, "cluster_id": 1, "rank_in_cluster": 10}

>  <energy>  (3) 
-9.23

>  <cluster_rmsd>  (3) 
0.23

>  <cluster>  (3) 
1

$$$$

     RDKit          3D

 51 54  0  0  0  0  0  0  0  0999 V2000
  138.4380   71.2310  221.3880 O   0  0  0  0  0  0  0  0  0  0  0  0
  139.0410   71.6930  222.4110 C   0  0  0  0  0  0  0  0  0  0  0  0
  139.4760   73.0670  222.4490 N   0  0  0  0  0  0  0  0  0  0  0  0
  139.2220   73.9490  221.3000 C   0  0  0  0  0  0  0  0  0  0  0  0
  140.3450   74.8590  221.0850 C   0  0  0  0  0  0  0  0  0  0  0  0
  141.2900   74.7810  221.9710 O   0  0  0  0  0  0  0  0  0  0  0  0
  140.5540   75.7980  220.0800 N   0  0  0  0  0  0  0  0  0  0  0  0
  140.2590   75.3120  218.6920 C   0  0  0  0  0  0  0  0  0  0  0  0
  141.3910   75.9070  217.8460 C   0  0  0  0  0  0  0  0  0  0  0  0
  142.6540   76.0200  218.6420 C   0  0  0  0  0  0  0  0  0  0  0  0
  142.5360   77.0250  219.7650 C   0  0  0  0  0  0  0  0  0  0  0  0
  141.0460   77.1360  220.1250 C   0  0  2  0  0  0  0  0  0  0  0  0
  140.8350   77.9330  221.3150 C   0  0  0  0  0  0  0  0  0  0  0  0
  139.6510   77.9630  222.0150 C   0  0  0  0  0  0  0  0  0  0  0  0
  139.4460   78.7220  223.1460 C   0  0  0  0  0  0  0  0  0  0  0  0
  140.4550   79.5130  223.6450 C   0  0  0  0  0  0  0  0  0  0  0  0
  141.6550   79.5080  222.9730 C   0  0  0  0  0  0  0  0  0  0  0  0
  142.9370   80.5180  223.6150 Cl  0  0  0  0  0  0  0  0  0  0  0  0
  141.8610   78.7370  221.8240 C   0  0  0  0  0  0  0  0  0  0  0  0
  139.3110   70.8390  223.5760 C   0  0  0  0  0  0  0  0  0  0  0  0
  138.9210   69.5180  223.5220 C   0  0  0  0  0  0  0  0  0  0  0  0
  139.1870   68.7410  224.6320 C   0  0  0  0  0  0  0  0  0  0  0  0
  139.8120   69.2360  225.7560 C   0  0  0  0  0  0  0  0  0  0  0  0
  140.0740   68.4600  226.8560 C   0  0  0  0  0  0  0  0  0  0  0  0
  140.7020   68.9770  227.9780 C   0  0  0  0  0  0  0  0  0  0  0  0
  140.9550   68.2000  229.0560 F   0  0  0  0  0  0  0  0  0  0  0  0
  141.0690   70.3060  227.9740 C   0  0  0  0  0  0  0  0  0  0  0  0
  140.8030   71.0900  226.8590 C   0  0  0  0  0  0  0  0  0  0  0  0
  140.1720   70.5680  225.7380 C   0  0  0  0  0  0  0  0  0  0  0  0
  139.9200   71.3210  224.6730 N   0  0  0  0  0  0  0  0  0  0  0  0
  139.9610   73.3800  223.3090 H   0  0  0  0  0  0  0  0  0  0  0  0
  139.0782   73.3347  220.3989 H   0  0  0  0  0  0  0  0  0  0  0  0
  138.3204   74.5447  221.5058 H   0  0  0  0  0  0  0  0  0  0  0  0
  140.2751   74.2129  218.6503 H   0  0  0  0  0  0  0  0  0  0  0  0
  139.2616   75.6136  218.3394 H   0  0  0  0  0  0  0  0  0  0  0  0
  141.5705   75.2568  216.9771 H   0  0  0  0  0  0  0  0  0  0  0  0
  141.0919   76.9138  217.5190 H   0  0  0  0  0  0  0  0  0  0  0  0
  142.8907   75.0354  219.0717 H   0  0  0  0  0  0  0  0  0  0  0  0
  143.4493   76.3641  217.9645 H   0  0  0  0  0  0  0  0  0  0  0  0
  143.1097   76.6822  220.6387 H   0  0  0  0  0  0  0  0  0  0  0  0
  142.9357   78.0022  219.4564 H   0  0  0  0  0  0  0  0  0  0  0  0
  140.4379   77.7200  219.4185 H   0  0  0  0  0  0  0  0  0  0  0  0
  138.8184   77.3439  221.6497 H   0  0  0  0  0  0  0  0  0  0  0  0
  138.4702   78.6956  223.6530 H   0  0  0  0  0  0  0  0  0  0  0  0
  140.3077   80.1257  224.5466 H   0  0  0  0  0  0  0  0  0  0  0  0
  142.8368   78.7630  221.3169 H   0  0  0  0  0  0  0  0  0  0  0  0
  138.4207   69.1018  222.6351 H   0  0  0  0  0  0  0  0  0  0  0  0
  138.8875   67.6826  224.6185 H   0  0  0  0  0  0  0  0  0  0  0  0
  139.7782   67.4005  226.8475 H   0  0  0  0  0  0  0  0  0  0  0  0
  141.5703   70.7434  228.8500 H   0  0  0  0  0  0  0  0  0  0  0  0
  141.0992   72.1494  226.8642 H   0  0  0  0  0  0  0  0  0  0  0  0
  1  2  2  0
  2  3  1  0
  3  4  1  0
  4  5  1  0
  5  6  2  0
  5  7  1  0
  7  8  1  0
  8  9  1  0
  9 10  1  0
 10 11  1  0
 11 12  1  0
 12 13  1  0
 13 14  2  0
 14 15  1  0
 15 16  2  0
 16 17  1  0
 17 18  1  0
 17 19  2  0
  2 20  1  0
 20 21  2  0
 21 22  1  0
 22 23  2  0
 23 24  1  0
 24 25  2  0
 25 26  1  0
 25 27  1  0
 27 28  2  0
 28 29  1  0
 29 30  2  0
 12  7  1  0
 19 13  1  0
 30 20  1  0
 29 23  1  0
  3 31  1  0
  4 32  1  0
  4 33  1  0
  8 34  1  0
  8 35  1  0
  9 36  1  0
  9 37  1  0
 10 38  1  0
 10 39  1  0
 11 40  1  0
 11 41  1  0
 12 42  1  6
 14 43  1  0
 15 44  1  0
 16 45  1  0
 19 46  1  0
 21 47  1  0
 22 48  1  0
 24 49  1  0
 27 50  1  0
 28 51  1  0
M  END
>  <smiles>  (4) 
O=C(NCC(=O)N1CCCCC1c1cccc(Cl)c1)c1ccc2cc(F)ccc2n1

>  <score_type>  (4) 
oracle

>  <origin>  (4) 
autodockgpu

>  <m_score__min__energy>  (4) 
-9.3399999999999999

>  <m_primary>  (4) 
energy

>  <rmsd>  (4) 
1.202907120999361

>  <m_score__min__rmsd>  (4) 
1.202907120999361

>  <meeko>  (4) 
{"free_energy": -8.77, "intermolecular_energy": -10.27, "internal_energy": -2.07, "cluster_size": 18, "cluster_id": 1, "rank_in_cluster": 11}

>  <energy>  (4) 
-8.97

>  <cluster_rmsd>  (4) 
0.59

>  <cluster>  (4) 
1

$$$$

     RDKit          3D

 51 54  0  0  0  0  0  0  0  0999 V2000
  133.8750   70.1250  226.4220 O   0  0  0  0  0  0  0  0  0  0  0  0
  134.1540   71.3010  226.0180 C   0  0  0  0  0  0  0  0  0  0  0  0
  135.1970   71.5150  225.0450 N   0  0  0  0  0  0  0  0  0  0  0  0
  135.9490   70.3690  224.5110 C   0  0  0  0  0  0  0  0  0  0  0  0
  137.0860   70.8200  223.7120 C   0  0  0  0  0  0  0  0  0  0  0  0
  137.1180   72.0950  223.4760 O   0  0  0  0  0  0  0  0  0  0  0  0
  138.1360   70.0920  223.1630 N   0  0  0  0  0  0  0  0  0  0  0  0
  138.0740   69.9200  221.6740 C   0  0  0  0  0  0  0  0  0  0  0  0
  138.5190   68.4690  221.4530 C   0  0  0  0  0  0  0  0  0  0  0  0
  138.1060   67.6000  222.6000 C   0  0  0  0  0  0  0  0  0  0  0  0
  138.8250   67.9590  223.8800 C   0  0  0  0  0  0  0  0  0  0  0  0
  139.2470   69.4340  223.7680 C   0  0  2  0  0  0  0  0  0  0  0  0
  139.7810   69.9390  225.0160 C   0  0  0  0  0  0  0  0  0  0  0  0
  140.1670   71.2450  225.2090 C   0  0  0  0  0  0  0  0  0  0  0  0
  140.6780   71.7290  226.3930 C   0  0  0  0  0  0  0  0  0  0  0  0
  140.8300   70.8940  227.4770 C   0  0  0  0  0  0  0  0  0  0  0  0
  140.4540   69.5800  227.3230 C   0  0  0  0  0  0  0  0  0  0  0  0
  140.6500   68.5230  228.7080 Cl  0  0  0  0  0  0  0  0  0  0  0  0
  139.9360   69.0920  226.1190 C   0  0  0  0  0  0  0  0  0  0  0  0
  133.4230   72.4680  226.5300 C   0  0  0  0  0  0  0  0  0  0  0  0
  132.2250   72.2550  227.1790 C   0  0  0  0  0  0  0  0  0  0  0  0
  131.5610   73.3700  227.6490 C   0  0  0  0  0  0  0  0  0  0  0  0
  132.0490   74.6500  227.4910 C   0  0  0  0  0  0  0  0  0  0  0  0
  131.3850   75.7550  227.9600 C   0  0  0  0  0  0  0  0  0  0  0  0
  131.8920   77.0340  227.7900 C   0  0  0  0  0  0  0  0  0  0  0  0
  131.2270   78.1150  228.2580 F   0  0  0  0  0  0  0  0  0  0  0  0
  133.0940   77.1840  227.1330 C   0  0  0  0  0  0  0  0  0  0  0  0
  133.7640   76.0640  226.6590 C   0  0  0  0  0  0  0  0  0  0  0  0
  133.2530   74.7850  226.8310 C   0  0  0  0  0  0  0  0  0  0  0  0
  133.8970   73.7160  226.3760 N   0  0  0  0  0  0  0  0  0  0  0  0
  135.3750   72.4940  224.7590 H   0  0  0  0  0  0  0  0  0  0  0  0
  136.3167   69.7576  225.3482 H   0  0  0  0  0  0  0  0  0  0  0  0
  135.2800   69.7773  223.8688 H   0  0  0  0  0  0  0  0  0  0  0  0
  137.0499   70.0762  221.3040 H   0  0  0  0  0  0  0  0  0  0  0  0
  138.7036   70.6440  221.1361 H   0  0  0  0  0  0  0  0  0  0  0  0
  138.0585   68.0883  220.5294 H   0  0  0  0  0  0  0  0  0  0  0  0
  139.6160   68.4472  221.3744 H   0  0  0  0  0  0  0  0  0  0  0  0
  137.0235   67.7143  222.7584 H   0  0  0  0  0  0  0  0  0  0  0  0
  138.3678   66.5620  222.3469 H   0  0  0  0  0  0  0  0  0  0  0  0
  138.1528   67.8238  224.7402 H   0  0  0  0  0  0  0  0  0  0  0  0
  139.7025   67.3126  224.0288 H   0  0  0  0  0  0  0  0  0  0  0  0
  140.1160   69.6228  223.1205 H   0  0  0  0  0  0  0  0  0  0  0  0
  140.0613   71.9451  224.3671 H   0  0  0  0  0  0  0  0  0  0  0  0
  140.9660   72.7876  226.4728 H   0  0  0  0  0  0  0  0  0  0  0  0
  141.2366   71.2636  228.4299 H   0  0  0  0  0  0  0  0  0  0  0  0
  139.6480   68.0334  226.0385 H   0  0  0  0  0  0  0  0  0  0  0  0
  131.8172   71.2426  227.3159 H   0  0  0  0  0  0  0  0  0  0  0  0
  130.6028   73.2318  228.1713 H   0  0  0  0  0  0  0  0  0  0  0  0
  130.4268   75.6229  228.4838 H   0  0  0  0  0  0  0  0  0  0  0  0
  133.5209   78.1869  226.9847 H   0  0  0  0  0  0  0  0  0  0  0  0
  134.7224   76.1934  226.1348 H   0  0  0  0  0  0  0  0  0  0  0  0
  1  2  2  0
  2  3  1  0
  3  4  1  0
  4  5  1  0
  5  6  2  0
  5  7  1  0
  7  8  1  0
  8  9  1  0
  9 10  1  0
 10 11  1  0
 11 12  1  0
 12 13  1  0
 13 14  2  0
 14 15  1  0
 15 16  2  0
 16 17  1  0
 17 18  1  0
 17 19  2  0
  2 20  1  0
 20 21  2  0
 21 22  1  0
 22 23  2  0
 23 24  1  0
 24 25  2  0
 25 26  1  0
 25 27  1  0
 27 28  2  0
 28 29  1  0
 29 30  2  0
 12  7  1  0
 19 13  1  0
 30 20  1  0
 29 23  1  0
  3 31  1  0
  4 32  1  0
  4 33  1  0
  8 34  1  0
  8 35  1  0
  9 36  1  0
  9 37  1  0
 10 38  1  0
 10 39  1  0
 11 40  1  0
 11 41  1  0
 12 42  1  6
 14 43  1  0
 15 44  1  0
 16 45  1  0
 19 46  1  0
 21 47  1  0
 22 48  1  0
 24 49  1  0
 27 50  1  0
 28 51  1  0
M  END
>  <smiles>  (5) 
O=C(NCC(=O)N1CCCCC1c1cccc(Cl)c1)c1ccc2cc(F)ccc2n1

>  <score_type>  (5) 
oracle

>  <origin>  (5) 
autodockgpu

>  <m_score__min__energy>  (5) 
-9.3399999999999999

>  <m_primary>  (5) 
energy

>  <rmsd>  (5) 
8.632959652478144

>  <m_score__min__rmsd>  (5) 
8.632959652478144

>  <meeko>  (5) 
{"free_energy": -8.31, "intermolecular_energy": -9.8, "internal_energy": -2.22, "cluster_size": 4, "cluster_id": 3, "rank_in_cluster": 3}

>  <energy>  (5) 
-8.95

>  <cluster_rmsd>  (5) 
1.86

>  <cluster>  (5) 
1

$$$$

     RDKit          3D

 51 54  0  0  0  0  0  0  0  0999 V2000
  141.4150   71.9220  221.2780 O   0  0  0  0  0  0  0  0  0  0  0  0
  140.6000   72.3400  222.1640 C   0  0  0  0  0  0  0  0  0  0  0  0
  139.9460   73.6170  222.0160 N   0  0  0  0  0  0  0  0  0  0  0  0
  140.2180   74.4480  220.8330 C   0  0  0  0  0  0  0  0  0  0  0  0
  140.7580   75.7480  221.2240 C   0  0  0  0  0  0  0  0  0  0  0  0
  140.3690   76.1750  222.3860 O   0  0  0  0  0  0  0  0  0  0  0  0
  141.6210   76.5980  220.5400 N   0  0  0  0  0  0  0  0  0  0  0  0
  141.4230   78.0580  220.8230 C   0  0  0  0  0  0  0  0  0  0  0  0
  141.5880   78.7240  219.4520 C   0  0  0  0  0  0  0  0  0  0  0  0
  141.1100   77.8210  218.3560 C   0  0  0  0  0  0  0  0  0  0  0  0
  141.9710   76.5870  218.2140 C   0  0  0  0  0  0  0  0  0  0  0  0
  142.6390   76.3360  219.5760 C   0  0  2  0  0  0  0  0  0  0  0  0
  143.3410   75.0700  219.6090 C   0  0  0  0  0  0  0  0  0  0  0  0
  143.0100   73.9920  218.8210 C   0  0  0  0  0  0  0  0  0  0  0  0
  143.6750   72.7860  218.8510 C   0  0  0  0  0  0  0  0  0  0  0  0
  144.7400   72.6000  219.7020 C   0  0  0  0  0  0  0  0  0  0  0  0
  145.1020   73.6560  220.5050 C   0  0  0  0  0  0  0  0  0  0  0  0
  146.4600   73.4120  221.5870 Cl  0  0  0  0  0  0  0  0  0  0  0  0
  144.4250   74.8790  220.4730 C   0  0  0  0  0  0  0  0  0  0  0  0
  140.3060   71.5360  223.3570 C   0  0  0  0  0  0  0  0  0  0  0  0
  139.5600   70.3870  223.2030 C   0  0  0  0  0  0  0  0  0  0  0  0
  139.2990   69.6520  224.3420 C   0  0  0  0  0  0  0  0  0  0  0  0
  139.7520   70.0250  225.5900 C   0  0  0  0  0  0  0  0  0  0  0  0
  139.4900   69.2910  226.7180 C   0  0  0  0  0  0  0  0  0  0  0  0
  139.9540   69.6840  227.9640 C   0  0  0  0  0  0  0  0  0  0  0  0
  139.6890   68.9500  229.0690 F   0  0  0  0  0  0  0  0  0  0  0  0
  140.6960   70.8430  228.0560 C   0  0  0  0  0  0  0  0  0  0  0  0
  140.9590   71.5840  226.9120 C   0  0  0  0  0  0  0  0  0  0  0  0
  140.4920   71.1870  225.6670 C   0  0  0  0  0  0  0  0  0  0  0  0
  140.7470   71.8990  224.5740 N   0  0  0  0  0  0  0  0  0  0  0  0
  139.2960   73.8990  222.7710 H   0  0  0  0  0  0  0  0  0  0  0  0
  140.9476   73.9330  220.1908 H   0  0  0  0  0  0  0  0  0  0  0  0
  139.2747   74.6074  220.2901 H   0  0  0  0  0  0  0  0  0  0  0  0
  140.4187   78.2451  221.2308 H   0  0  0  0  0  0  0  0  0  0  0  0
  142.1304   78.4453  221.5711 H   0  0  0  0  0  0  0  0  0  0  0  0
  141.0031   79.6554  219.4317 H   0  0  0  0  0  0  0  0  0  0  0  0
  142.6553   78.9360  219.2913 H   0  0  0  0  0  0  0  0  0  0  0  0
  140.0789   77.5093  218.5787 H   0  0  0  0  0  0  0  0  0  0  0  0
  141.1648   78.3806  217.4106 H   0  0  0  0  0  0  0  0  0  0  0  0
  141.3486   75.7239  217.9353 H   0  0  0  0  0  0  0  0  0  0  0  0
  142.7285   76.7290  217.4291 H   0  0  0  0  0  0  0  0  0  0  0  0
  143.4798   77.0044  219.8132 H   0  0  0  0  0  0  0  0  0  0  0  0
  142.1643   74.0994  218.1259 H   0  0  0  0  0  0  0  0  0  0  0  0
  143.3528   71.9672  218.1909 H   0  0  0  0  0  0  0  0  0  0  0  0
  145.2813   71.6431  219.7386 H   0  0  0  0  0  0  0  0  0  0  0  0
  144.7473   75.6981  221.1327 H   0  0  0  0  0  0  0  0  0  0  0  0
  139.1894   70.0701  222.2170 H   0  0  0  0  0  0  0  0  0  0  0  0
  138.7051   68.7307  224.2503 H   0  0  0  0  0  0  0  0  0  0  0  0
  138.8975   68.3682  226.6324 H   0  0  0  0  0  0  0  0  0  0  0  0
  141.0777   71.1787  229.0315 H   0  0  0  0  0  0  0  0  0  0  0  0
  141.5513   72.5073  226.9943 H   0  0  0  0  0  0  0  0  0  0  0  0
  1  2  2  0
  2  3  1  0
  3  4  1  0
  4  5  1  0
  5  6  2  0
  5  7  1  0
  7  8  1  0
  8  9  1  0
  9 10  1  0
 10 11  1  0
 11 12  1  0
 12 13  1  0
 13 14  2  0
 14 15  1  0
 15 16  2  0
 16 17  1  0
 17 18  1  0
 17 19  2  0
  2 20  1  0
 20 21  2  0
 21 22  1  0
 22 23  2  0
 23 24  1  0
 24 25  2  0
 25 26  1  0
 25 27  1  0
 27 28  2  0
 28 29  1  0
 29 30  2  0
 12  7  1  0
 19 13  1  0
 30 20  1  0
 29 23  1  0
  3 31  1  0
  4 32  1  0
  4 33  1  0
  8 34  1  0
  8 35  1  0
  9 36  1  0
  9 37  1  0
 10 38  1  0
 10 39  1  0
 11 40  1  0
 11 41  1  0
 12 42  1  1
 14 43  1  0
 15 44  1  0
 16 45  1  0
 19 46  1  0
 21 47  1  0
 22 48  1  0
 24 49  1  0
 27 50  1  0
 28 51  1  0
M  END
>  <smiles>  (6) 
O=C(NCC(=O)N1CCCCC1c1cccc(Cl)c1)c1ccc2cc(F)ccc2n1

>  <score_type>  (6) 
oracle

>  <origin>  (6) 
autodockgpu

>  <m_score__min__energy>  (6) 
-9.3399999999999999

>  <m_primary>  (6) 
energy

>  <rmsd>  (6) 
2.3768311101825623

>  <m_score__min__rmsd>  (6) 
2.3768311101825623

>  <meeko>  (6) 
{"free_energy": -9.01, "intermolecular_energy": -10.51, "internal_energy": -1.96, "cluster_size": 24, "cluster_id": 2, "rank_in_cluster": 2}

>  <energy>  (6) 
-8.91

>  <cluster_rmsd>  (6) 
0.66

>  <cluster>  (6) 
1

$$$$

     RDKit          3D

 51 54  0  0  0  0  0  0  0  0999 V2000
  140.7190   77.6410  217.9870 O   0  0  0  0  0  0  0  0  0  0  0  0
  141.7190   77.4440  218.7530 C   0  0  0  0  0  0  0  0  0  0  0  0
  142.1880   78.4880  219.6310 N   0  0  0  0  0  0  0  0  0  0  0  0
  141.5090   79.7930  219.6470 C   0  0  0  0  0  0  0  0  0  0  0  0
  140.3720   79.7770  220.5650 C   0  0  0  0  0  0  0  0  0  0  0  0
  139.2080   79.7430  219.9930 O   0  0  0  0  0  0  0  0  0  0  0  0
  140.3460   79.7960  221.9550 N   0  0  0  0  0  0  0  0  0  0  0  0
  140.3580   81.1650  222.5680 C   0  0  0  0  0  0  0  0  0  0  0  0
  141.2980   81.0220  223.7700 C   0  0  0  0  0  0  0  0  0  0  0  0
  142.3740   80.0170  223.4940 C   0  0  0  0  0  0  0  0  0  0  0  0
  141.8260   78.6150  223.3530 C   0  0  0  0  0  0  0  0  0  0  0  0
  140.3570   78.7400  222.9150 C   0  0  2  0  0  0  0  0  0  0  0  0
  139.7850   77.4560  222.5680 C   0  0  0  0  0  0  0  0  0  0  0  0
  138.4430   77.1680  222.6580 C   0  0  0  0  0  0  0  0  0  0  0  0
  137.8960   75.9470  222.3310 C   0  0  0  0  0  0  0  0  0  0  0  0
  138.6990   74.9230  221.8830 C   0  0  0  0  0  0  0  0  0  0  0  0
  140.0470   75.1730  221.7790 C   0  0  0  0  0  0  0  0  0  0  0  0
  141.0640   73.8640  221.2070 Cl  0  0  0  0  0  0  0  0  0  0  0  0
  140.6000   76.4140  222.1120 C   0  0  0  0  0  0  0  0  0  0  0  0
  142.4190   76.1530  218.7610 C   0  0  0  0  0  0  0  0  0  0  0  0
  142.0340   75.1950  217.8480 C   0  0  0  0  0  0  0  0  0  0  0  0
  142.7110   73.9920  217.8810 C   0  0  0  0  0  0  0  0  0  0  0  0
  143.7280   73.7320  218.7740 C   0  0  0  0  0  0  0  0  0  0  0  0
  144.3960   72.5350  218.8020 C   0  0  0  0  0  0  0  0  0  0  0  0
  145.4160   72.2930  219.7090 C   0  0  0  0  0  0  0  0  0  0  0  0
  146.0680   71.1080  219.7260 F   0  0  0  0  0  0  0  0  0  0  0  0
  145.7570   73.2900  220.5990 C   0  0  0  0  0  0  0  0  0  0  0  0
  145.0790   74.5010  220.5680 C   0  0  0  0  0  0  0  0  0  0  0  0
  144.0580   74.7380  219.6590 C   0  0  0  0  0  0  0  0  0  0  0  0
  143.4110   75.8990  219.6330 N   0  0  0  0  0  0  0  0  0  0  0  0
  143.0050   78.2660  220.2260 H   0  0  0  0  0  0  0  0  0  0  0  0
  142.2218   80.5661  219.9697 H   0  0  0  0  0  0  0  0  0  0  0  0
  141.1401   80.0101  218.6337 H   0  0  0  0  0  0  0  0  0  0  0  0
  140.7437   81.9094  221.8558 H   0  0  0  0  0  0  0  0  0  0  0  0
  139.3536   81.5109  222.8535 H   0  0  0  0  0  0  0  0  0  0  0  0
  141.7620   81.9967  223.9817 H   0  0  0  0  0  0  0  0  0  0  0  0
  140.7112   80.6784  224.6346 H   0  0  0  0  0  0  0  0  0  0  0  0
  142.8848   80.2930  222.5597 H   0  0  0  0  0  0  0  0  0  0  0  0
  143.0678   80.0232  224.3476 H   0  0  0  0  0  0  0  0  0  0  0  0
  142.3991   78.0613  222.5947 H   0  0  0  0  0  0  0  0  0  0  0  0
  141.9035   78.0690  224.3048 H   0  0  0  0  0  0  0  0  0  0  0  0
  139.6559   79.0297  223.7115 H   0  0  0  0  0  0  0  0  0  0  0  0
  137.7665   77.9598  223.0122 H   0  0  0  0  0  0  0  0  0  0  0  0
  136.8117   75.7895  222.4284 H   0  0  0  0  0  0  0  0  0  0  0  0
  138.2783   73.9417  221.6182 H   0  0  0  0  0  0  0  0  0  0  0  0
  141.6842   76.5720  222.0146 H   0  0  0  0  0  0  0  0  0  0  0  0
  141.2247   75.3802  217.1263 H   0  0  0  0  0  0  0  0  0  0  0  0
  142.4265   73.2078  217.1640 H   0  0  0  0  0  0  0  0  0  0  0  0
  144.1156   71.7473  218.0872 H   0  0  0  0  0  0  0  0  0  0  0  0
  146.5625   73.1263  221.3300 H   0  0  0  0  0  0  0  0  0  0  0  0
  145.3578   75.2911  221.2808 H   0  0  0  0  0  0  0  0  0  0  0  0
  1  2  2  0
  2  3  1  0
  3  4  1  0
  4  5  1  0
  5  6  2  0
  5  7  1  0
  7  8  1  0
  8  9  1  0
  9 10  1  0
 10 11  1  0
 11 12  1  0
 12 13  1  0
 13 14  2  0
 14 15  1  0
 15 16  2  0
 16 17  1  0
 17 18  1  0
 17 19  2  0
  2 20  1  0
 20 21  2  0
 21 22  1  0
 22 23  2  0
 23 24  1  0
 24 25  2  0
 25 26  1  0
 25 27  1  0
 27 28  2  0
 28 29  1  0
 29 30  2  0
 12  7  1  0
 19 13  1  0
 30 20  1  0
 29 23  1  0
  3 31  1  0
  4 32  1  0
  4 33  1  0
  8 34  1  0
  8 35  1  0
  9 36  1  0
  9 37  1  0
 10 38  1  0
 10 39  1  0
 11 40  1  0
 11 41  1  0
 12 42  1  1
 14 43  1  0
 15 44  1  0
 16 45  1  0
 19 46  1  0
 21 47  1  0
 22 48  1  0
 24 49  1  0
 27 50  1  0
 28 51  1  0
M  END
>  <smiles>  (7) 
O=C(NCC(=O)N1CCCCC1c1cccc(Cl)c1)c1ccc2cc(F)ccc2n1

>  <score_type>  (7) 
oracle

>  <origin>  (7) 
autodockgpu

>  <m_score__min__energy>  (7) 
-9.3399999999999999

>  <m_primary>  (7) 
energy

>  <rmsd>  (7) 
7.850943521456699

>  <m_score__min__rmsd>  (7) 
7.850943521456699

>  <meeko>  (7) 
{"free_energy": -7.13, "intermolecular_energy": -8.62, "internal_energy": -2.89, "cluster_size": 3, "cluster_id": 5, "rank_in_cluster": 2}

>  <energy>  (7) 
-8.91

>  <cluster_rmsd>  (7) 
0.65

>  <cluster>  (7) 
1

$$$$

     RDKit          3D

 51 54  0  0  0  0  0  0  0  0999 V2000
  139.5690   71.5550  221.0380 O   0  0  0  0  0  0  0  0  0  0  0  0
  139.6020   72.0900  222.1940 C   0  0  0  0  0  0  0  0  0  0  0  0
  139.4820   73.5200  222.3450 N   0  0  0  0  0  0  0  0  0  0  0  0
  139.3200   74.3720  221.1570 C   0  0  0  0  0  0  0  0  0  0  0  0
  140.5880   74.9990  220.7890 C   0  0  0  0  0  0  0  0  0  0  0  0
  141.6040   74.6430  221.5140 O   0  0  0  0  0  0  0  0  0  0  0  0
  140.8710   75.9190  219.7870 N   0  0  0  0  0  0  0  0  0  0  0  0
  140.5150   75.4710  218.4000 C   0  0  0  0  0  0  0  0  0  0  0  0
  141.6880   75.9620  217.5420 C   0  0  0  0  0  0  0  0  0  0  0  0
  142.9660   75.9530  218.3240 C   0  0  0  0  0  0  0  0  0  0  0  0
  142.9550   76.9590  219.4520 C   0  0  0  0  0  0  0  0  0  0  0  0
  141.4860   77.2060  219.8310 C   0  0  2  0  0  0  0  0  0  0  0  0
  141.3640   78.0120  221.0270 C   0  0  0  0  0  0  0  0  0  0  0  0
  141.1610   77.4900  222.2840 C   0  0  0  0  0  0  0  0  0  0  0  0
  141.0420   78.2550  223.4240 C   0  0  0  0  0  0  0  0  0  0  0  0
  141.1260   79.6260  223.3520 C   0  0  0  0  0  0  0  0  0  0  0  0
  141.3290   80.1860  222.1130 C   0  0  0  0  0  0  0  0  0  0  0  0
  141.4350   81.9340  222.0300 Cl  0  0  0  0  0  0  0  0  0  0  0  0
  141.4490   79.4070  220.9570 C   0  0  0  0  0  0  0  0  0  0  0  0
  139.7620   71.2690  223.4010 C   0  0  0  0  0  0  0  0  0  0  0  0
  139.3990   69.9400  223.3410 C   0  0  0  0  0  0  0  0  0  0  0  0
  139.5610   69.1940  224.4910 C   0  0  0  0  0  0  0  0  0  0  0  0
  140.0610   69.7260  225.6610 C   0  0  0  0  0  0  0  0  0  0  0  0
  140.2200   68.9790  226.8000 C   0  0  0  0  0  0  0  0  0  0  0  0
  140.7230   69.5330  227.9670 C   0  0  0  0  0  0  0  0  0  0  0  0
  140.8750   68.7860  229.0840 F   0  0  0  0  0  0  0  0  0  0  0  0
  141.0700   70.8680  227.9670 C   0  0  0  0  0  0  0  0  0  0  0  0
  140.9080   71.6210  226.8120 C   0  0  0  0  0  0  0  0  0  0  0  0
  140.4020   71.0620  225.6460 C   0  0  0  0  0  0  0  0  0  0  0  0
  140.2490   71.7860  224.5430 N   0  0  0  0  0  0  0  0  0  0  0  0
  139.5170   73.8920  223.3110 H   0  0  0  0  0  0  0  0  0  0  0  0
  138.9656   73.7560  220.3174 H   0  0  0  0  0  0  0  0  0  0  0  0
  138.5906   75.1624  221.3877 H   0  0  0  0  0  0  0  0  0  0  0  0
  140.4271   74.3755  218.3529 H   0  0  0  0  0  0  0  0  0  0  0  0
  139.5463   75.8673  218.0614 H   0  0  0  0  0  0  0  0  0  0  0  0
  141.7960   75.3019  216.6687 H   0  0  0  0  0  0  0  0  0  0  0  0
  141.4803   76.9937  217.2219 H   0  0  0  0  0  0  0  0  0  0  0  0
  143.1148   74.9486  218.7471 H   0  0  0  0  0  0  0  0  0  0  0  0
  143.7821   76.2249  217.6384 H   0  0  0  0  0  0  0  0  0  0  0  0
  143.5049   76.5602  220.3172 H   0  0  0  0  0  0  0  0  0  0  0  0
  143.4398   77.8965  219.1420 H   0  0  0  0  0  0  0  0  0  0  0  0
  140.9269   77.8479  219.1343 H   0  0  0  0  0  0  0  0  0  0  0  0
  141.0894   76.3970  222.3848 H   0  0  0  0  0  0  0  0  0  0  0  0
  140.8791   77.7669  224.3962 H   0  0  0  0  0  0  0  0  0  0  0  0
  141.0342   80.2512  224.2524 H   0  0  0  0  0  0  0  0  0  0  0  0
  141.6116   79.8953  219.9848 H   0  0  0  0  0  0  0  0  0  0  0  0
  138.9985   69.4945  222.4184 H   0  0  0  0  0  0  0  0  0  0  0  0
  139.2795   68.1308  224.4735 H   0  0  0  0  0  0  0  0  0  0  0  0
  139.9418   67.9148  226.7873 H   0  0  0  0  0  0  0  0  0  0  0  0
  141.4733   71.3339  228.8782 H   0  0  0  0  0  0  0  0  0  0  0  0
  141.1869   72.6850  226.8207 H   0  0  0  0  0  0  0  0  0  0  0  0
  1  2  2  0
  2  3  1  0
  3  4  1  0
  4  5  1  0
  5  6  2  0
  5  7  1  0
  7  8  1  0
  8  9  1  0
  9 10  1  0
 10 11  1  0
 11 12  1  0
 12 13  1  0
 13 14  2  0
 14 15  1  0
 15 16  2  0
 16 17  1  0
 17 18  1  0
 17 19  2  0
  2 20  1  0
 20 21  2  0
 21 22  1  0
 22 23  2  0
 23 24  1  0
 24 25  2  0
 25 26  1  0
 25 27  1  0
 27 28  2  0
 28 29  1  0
 29 30  2  0
 12  7  1  0
 19 13  1  0
 30 20  1  0
 29 23  1  0
  3 31  1  0
  4 32  1  0
  4 33  1  0
  8 34  1  0
  8 35  1  0
  9 36  1  0
  9 37  1  0
 10 38  1  0
 10 39  1  0
 11 40  1  0
 11 41  1  0
 12 42  1  6
 14 43  1  0
 15 44  1  0
 16 45  1  0
 19 46  1  0
 21 47  1  0
 22 48  1  0
 24 49  1  0
 27 50  1  0
 28 51  1  0
M  END
>  <smiles>  (8) 
O=C(NCC(=O)N1CCCCC1c1cccc(Cl)c1)c1ccc2cc(F)ccc2n1

>  <score_type>  (8) 
oracle

>  <origin>  (8) 
autodockgpu

>  <m_score__min__energy>  (8) 
-9.3399999999999999

>  <m_primary>  (8) 
energy

>  <rmsd>  (8) 
1.3746966026920475

>  <m_score__min__rmsd>  (8) 
1.3746966026920475

>  <meeko>  (8) 
{"free_energy": -8.49, "intermolecular_energy": -9.98, "internal_energy": -1.54, "cluster_size": 18, "cluster_id": 1, "rank_in_cluster": 16}

>  <energy>  (8) 
-8.88

>  <cluster_rmsd>  (8) 
0.64

>  <cluster>  (8) 
1

$$$$

     RDKit          3D

 51 54  0  0  0  0  0  0  0  0999 V2000
  134.9230   68.6580  225.1150 O   0  0  0  0  0  0  0  0  0  0  0  0
  135.1930   69.8940  224.9610 C   0  0  0  0  0  0  0  0  0  0  0  0
  136.2830   70.3070  224.1120 N   0  0  0  0  0  0  0  0  0  0  0  0
  137.0930   69.2970  223.4140 C   0  0  0  0  0  0  0  0  0  0  0  0
  138.3070   69.8950  222.8610 C   0  0  0  0  0  0  0  0  0  0  0  0
  139.0500   69.0850  222.1710 O   0  0  0  0  0  0  0  0  0  0  0  0
  138.7900   71.1950  222.9660 N   0  0  0  0  0  0  0  0  0  0  0  0
  138.0870   72.2000  222.1030 C   0  0  0  0  0  0  0  0  0  0  0  0
  139.2200   73.0870  221.5740 C   0  0  0  0  0  0  0  0  0  0  0  0
  140.4830   72.3010  221.4050 C   0  0  0  0  0  0  0  0  0  0  0  0
  141.0440   71.8250  222.7260 C   0  0  0  0  0  0  0  0  0  0  0  0
  139.8710   71.7430  223.7170 C   0  0  2  0  0  0  0  0  0  0  0  0
  140.2600   71.1200  224.9650 C   0  0  0  0  0  0  0  0  0  0  0  0
  140.7100   71.8190  226.0610 C   0  0  0  0  0  0  0  0  0  0  0  0
  141.0830   71.2300  227.2490 C   0  0  0  0  0  0  0  0  0  0  0  0
  141.0200   69.8630  227.3960 C   0  0  0  0  0  0  0  0  0  0  0  0
  140.5740   69.1290  226.3220 C   0  0  0  0  0  0  0  0  0  0  0  0
  140.4950   67.3880  226.5170 Cl  0  0  0  0  0  0  0  0  0  0  0  0
  140.1960   69.7300  225.1170 C   0  0  0  0  0  0  0  0  0  0  0  0
  134.4040   70.9280  225.6430 C   0  0  0  0  0  0  0  0  0  0  0  0
  133.3960   70.5260  226.4940 C   0  0  0  0  0  0  0  0  0  0  0  0
  132.6720   71.5210  227.1200 C   0  0  0  0  0  0  0  0  0  0  0  0
  132.9220   72.8620  226.9220 C   0  0  0  0  0  0  0  0  0  0  0  0
  132.1990   73.8460  227.5470 C   0  0  0  0  0  0  0  0  0  0  0  0
  132.4660   75.1900  227.3340 C   0  0  0  0  0  0  0  0  0  0  0  0
  131.7460   76.1500  227.9570 F   0  0  0  0  0  0  0  0  0  0  0  0
  133.4860   75.5310  226.4720 C   0  0  0  0  0  0  0  0  0  0  0  0
  134.2170   74.5330  225.8410 C   0  0  0  0  0  0  0  0  0  0  0  0
  133.9460   73.1890  226.0560 C   0  0  0  0  0  0  0  0  0  0  0  0
  134.6470   72.2360  225.4510 N   0  0  0  0  0  0  0  0  0  0  0  0
  136.4510   71.3250  224.0300 H   0  0  0  0  0  0  0  0  0  0  0  0
  137.3727   68.5053  224.1247 H   0  0  0  0  0  0  0  0  0  0  0  0
  136.4989   68.8786  222.5881 H   0  0  0  0  0  0  0  0  0  0  0  0
  137.5590   71.7041  221.2752 H   0  0  0  0  0  0  0  0  0  0  0  0
  137.3225   72.7698  222.6515 H   0  0  0  0  0  0  0  0  0  0  0  0
  138.9242   73.5060  220.6009 H   0  0  0  0  0  0  0  0  0  0  0  0
  139.4031   73.8921  222.3009 H   0  0  0  0  0  0  0  0  0  0  0  0
  140.2727   71.4250  220.7738 H   0  0  0  0  0  0  0  0  0  0  0  0
  141.2303   72.9610  220.9403 H   0  0  0  0  0  0  0  0  0  0  0  0
  141.5042   70.8333  222.6043 H   0  0  0  0  0  0  0  0  0  0  0  0
  141.8168   72.5164  223.0931 H   0  0  0  0  0  0  0  0  0  0  0  0
  139.5239   72.7100  224.1099 H   0  0  0  0  0  0  0  0  0  0  0  0
  140.7760   72.9143  225.9841 H   0  0  0  0  0  0  0  0  0  0  0  0
  141.4327   71.8550  228.0839 H   0  0  0  0  0  0  0  0  0  0  0  0
  141.3153   69.3759  228.3371 H   0  0  0  0  0  0  0  0  0  0  0  0
  139.8456   69.1054  224.2821 H   0  0  0  0  0  0  0  0  0  0  0  0
  133.1788   69.4615  226.6661 H   0  0  0  0  0  0  0  0  0  0  0  0
  131.8618   71.2315  227.8054 H   0  0  0  0  0  0  0  0  0  0  0  0
  131.3879   73.5621  228.2337 H   0  0  0  0  0  0  0  0  0  0  0  0
  133.7201   76.5893  226.2846 H   0  0  0  0  0  0  0  0  0  0  0  0
  135.0296   74.8142  225.1550 H   0  0  0  0  0  0  0  0  0  0  0  0
  1  2  2  0
  2  3  1  0
  3  4  1  0
  4  5  1  0
  5  6  2  0
  5  7  1  0
  7  8  1  0
  8  9  1  0
  9 10  1  0
 10 11  1  0
 11 12  1  0
 12 13  1  0
 13 14  2  0
 14 15  1  0
 15 16  2  0
 16 17  1  0
 17 18  1  0
 17 19  2  0
  2 20  1  0
 20 21  2  0
 21 22  1  0
 22 23  2  0
 23 24  1  0
 24 25  2  0
 25 26  1  0
 25 27  1  0
 27 28  2  0
 28 29  1  0
 29 30  2  0
 12  7  1  0
 19 13  1  0
 30 20  1  0
 29 23  1  0
  3 31  1  0
  4 32  1  0
  4 33  1  0
  8 34  1  0
  8 35  1  0
  9 36  1  0
  9 37  1  0
 10 38  1  0
 10 39  1  0
 11 40  1  0
 11 41  1  0
 12 42  1  1
 14 43  1  0
 15 44  1  0
 16 45  1  0
 19 46  1  0
 21 47  1  0
 22 48  1  0
 24 49  1  0
 27 50  1  0
 28 51  1  0
M  END
>  <smiles>  (9) 
O=C(NCC(=O)N1CCCCC1c1cccc(Cl)c1)c1ccc2cc(F)ccc2n1

>  <score_type>  (9) 
oracle

>  <origin>  (9) 
autodockgpu

>  <m_score__min__energy>  (9) 
-9.3399999999999999

>  <m_primary>  (9) 
energy

>  <rmsd>  (9) 
6.907463125506591

>  <m_score__min__rmsd>  (9) 
6.907463125506591

>  <meeko>  (9) 
{"free_energy": -8.02, "intermolecular_energy": -9.52, "internal_energy": -1.77, "cluster_size": 4, "cluster_id": 3, "rank_in_cluster": 4}

>  <energy>  (9) 
-8.81

>  <cluster_rmsd>  (9) 
0.91

>  <cluster>  (9) 
1

$$$$

     RDKit          3D

 51 54  0  0  0  0  0  0  0  0999 V2000
  140.9310   71.8610  221.1520 O   0  0  0  0  0  0  0  0  0  0  0  0
  140.4050   72.3370  222.2110 C   0  0  0  0  0  0  0  0  0  0  0  0
  139.9780   73.7130  222.2650 N   0  0  0  0  0  0  0  0  0  0  0  0
  140.1480   74.5810  221.0890 C   0  0  0  0  0  0  0  0  0  0  0  0
  140.6920   75.8810  221.4770 C   0  0  0  0  0  0  0  0  0  0  0  0
  140.2910   76.3190  222.6310 O   0  0  0  0  0  0  0  0  0  0  0  0
  141.5670   76.7210  220.7980 N   0  0  0  0  0  0  0  0  0  0  0  0
  141.4520   78.1730  221.1540 C   0  0  0  0  0  0  0  0  0  0  0  0
  141.5950   78.8950  219.8080 C   0  0  0  0  0  0  0  0  0  0  0  0
  141.0310   78.0680  218.6940 C   0  0  0  0  0  0  0  0  0  0  0  0
  141.8250   76.8030  218.4600 C   0  0  0  0  0  0  0  0  0  0  0  0
  142.5320   76.4570  219.7810 C   0  0  2  0  0  0  0  0  0  0  0  0
  143.1730   75.1600  219.7270 C   0  0  0  0  0  0  0  0  0  0  0  0
  142.7370   74.1240  218.9340 C   0  0  0  0  0  0  0  0  0  0  0  0
  143.3420   72.8880  218.8810 C   0  0  0  0  0  0  0  0  0  0  0  0
  144.4530   72.6250  219.6500 C   0  0  0  0  0  0  0  0  0  0  0  0
  144.9200   73.6360  220.4560 C   0  0  0  0  0  0  0  0  0  0  0  0
  146.3360   73.2950  221.4330 Cl  0  0  0  0  0  0  0  0  0  0  0  0
  144.3030   74.8900  220.5080 C   0  0  0  0  0  0  0  0  0  0  0  0
  140.2210   71.4980  223.4020 C   0  0  0  0  0  0  0  0  0  0  0  0
  139.5860   70.2830  223.2550 C   0  0  0  0  0  0  0  0  0  0  0  0
  139.4270   69.5170  224.3920 C   0  0  0  0  0  0  0  0  0  0  0  0
  139.8710   69.9230  225.6320 C   0  0  0  0  0  0  0  0  0  0  0  0
  139.7110   69.1580  226.7590 C   0  0  0  0  0  0  0  0  0  0  0  0
  140.1640   69.5840  227.9980 C   0  0  0  0  0  0  0  0  0  0  0  0
  140.0000   68.8200  229.1010 F   0  0  0  0  0  0  0  0  0  0  0  0
  140.7910   70.8090  228.0840 C   0  0  0  0  0  0  0  0  0  0  0  0
  140.9530   71.5810  226.9420 C   0  0  0  0  0  0  0  0  0  0  0  0
  140.4970   71.1510  225.7040 C   0  0  0  0  0  0  0  0  0  0  0  0
  140.6530   71.8920  224.6130 N   0  0  0  0  0  0  0  0  0  0  0  0
  139.5590   74.0380  223.1550 H   0  0  0  0  0  0  0  0  0  0  0  0
  140.8379   74.0982  220.3812 H   0  0  0  0  0  0  0  0  0  0  0  0
  139.1649   74.7361  220.6205 H   0  0  0  0  0  0  0  0  0  0  0  0
  140.4749   78.3877  221.6115 H   0  0  0  0  0  0  0  0  0  0  0  0
  142.2067   78.4909  221.8884 H   0  0  0  0  0  0  0  0  0  0  0  0
  141.0556   79.8526  219.8541 H   0  0  0  0  0  0  0  0  0  0  0  0
  142.6641   79.0646  219.6126 H   0  0  0  0  0  0  0  0  0  0  0  0
  139.9957   77.7944  218.9456 H   0  0  0  0  0  0  0  0  0  0  0  0
  141.0753   78.6684  217.7734 H   0  0  0  0  0  0  0  0  0  0  0  0
  141.1512   75.9841  218.1678 H   0  0  0  0  0  0  0  0  0  0  0  0
  142.5573   76.9463  217.6518 H   0  0  0  0  0  0  0  0  0  0  0  0
  143.4125   77.0738  220.0140 H   0  0  0  0  0  0  0  0  0  0  0  0
  141.8513   74.2931  218.3040 H   0  0  0  0  0  0  0  0  0  0  0  0
  142.9356   72.1074  218.2211 H   0  0  0  0  0  0  0  0  0  0  0  0
  144.9483   71.6432  219.6207 H   0  0  0  0  0  0  0  0  0  0  0  0
  144.7090   75.6707  221.1681 H   0  0  0  0  0  0  0  0  0  0  0  0
  139.2224   69.9395  222.2753 H   0  0  0  0  0  0  0  0  0  0  0  0
  138.9251   68.5420  224.3049 H   0  0  0  0  0  0  0  0  0  0  0  0
  139.2106   68.1818  226.6777 H   0  0  0  0  0  0  0  0  0  0  0  0
  141.1613   71.1730  229.0537 H   0  0  0  0  0  0  0  0  0  0  0  0
  141.4547   72.5568  227.0202 H   0  0  0  0  0  0  0  0  0  0  0  0
  1  2  2  0
  2  3  1  0
  3  4  1  0
  4  5  1  0
  5  6  2  0
  5  7  1  0
  7  8  1  0
  8  9  1  0
  9 10  1  0
 10 11  1  0
 11 12  1  0
 12 13  1  0
 13 14  2  0
 14 15  1  0
 15 16  2  0
 16 17  1  0
 17 18  1  0
 17 19  2  0
  2 20  1  0
 20 21  2  0
 21 22  1  0
 22 23  2  0
 23 24  1  0
 24 25  2  0
 25 26  1  0
 25 27  1  0
 27 28  2  0
 28 29  1  0
 29 30  2  0
 12  7  1  0
 19 13  1  0
 30 20  1  0
 29 23  1  0
  3 31  1  0
  4 32  1  0
  4 33  1  0
  8 34  1  0
  8 35  1  0
  9 36  1  0
  9 37  1  0
 10 38  1  0
 10 39  1  0
 11 40  1  0
 11 41  1  0
 12 42  1  1
 14 43  1  0
 15 44  1  0
 16 45  1  0
 19 46  1  0
 21 47  1  0
 22 48  1  0
 24 49  1  0
 27 50  1  0
 28 51  1  0
M  END
>  <smiles>  (10) 
O=C(NCC(=O)N1CCCCC1c1cccc(Cl)c1)c1ccc2cc(F)ccc2n1

>  <score_type>  (10) 
oracle

>  <origin>  (10) 
autodockgpu

>  <m_score__min__energy>  (10) 
-9.3399999999999999

>  <m_primary>  (10) 
energy

>  <rmsd>  (10) 
2.417035205509958

>  <m_score__min__rmsd>  (10) 
2.417035205509958

>  <meeko>  (10) 
{"free_energy": -8.92, "intermolecular_energy": -10.41, "internal_energy": -2.08, "cluster_size": 24, "cluster_id": 2, "rank_in_cluster": 8}

>  <energy>  (10) 
-8.8

>  <cluster_rmsd>  (10) 
0.61

>  <cluster>  (10) 
1

$$$$

     RDKit          3D

 51 54  0  0  0  0  0  0  0  0999 V2000
  141.3980   72.5130  221.5500 O   0  0  0  0  0  0  0  0  0  0  0  0
  140.4640   72.6380  222.4080 C   0  0  0  0  0  0  0  0  0  0  0  0
  139.5640   73.7640  222.3550 N   0  0  0  0  0  0  0  0  0  0  0  0
  139.7220   74.7800  221.3030 C   0  0  0  0  0  0  0  0  0  0  0  0
  139.8120   76.1190  221.8820 C   0  0  0  0  0  0  0  0  0  0  0  0
  140.9760   76.6830  221.7760 O   0  0  0  0  0  0  0  0  0  0  0  0
  138.8450   76.8780  222.5320 N   0  0  0  0  0  0  0  0  0  0  0  0
  137.6780   76.0960  223.0580 C   0  0  0  0  0  0  0  0  0  0  0  0
  136.4680   76.9870  222.7490 C   0  0  0  0  0  0  0  0  0  0  0  0
  136.6890   77.7740  221.4940 C   0  0  0  0  0  0  0  0  0  0  0  0
  137.8000   78.7890  221.6410 C   0  0  0  0  0  0  0  0  0  0  0  0
  138.7360   78.2830  222.7510 C   0  0  2  0  0  0  0  0  0  0  0  0
  139.9390   79.0830  222.8490 C   0  0  0  0  0  0  0  0  0  0  0  0
  140.9850   78.7910  223.6930 C   0  0  0  0  0  0  0  0  0  0  0  0
  142.1300   79.5510  223.7910 C   0  0  0  0  0  0  0  0  0  0  0  0
  142.2820   80.6800  223.0190 C   0  0  0  0  0  0  0  0  0  0  0  0
  141.2580   81.0050  222.1620 C   0  0  0  0  0  0  0  0  0  0  0  0
  141.4590   82.4450  221.1800 Cl  0  0  0  0  0  0  0  0  0  0  0  0
  140.0960   80.2320  222.0640 C   0  0  0  0  0  0  0  0  0  0  0  0
  140.2790   71.6420  223.4710 C   0  0  0  0  0  0  0  0  0  0  0  0
  139.6460   70.4580  223.1550 C   0  0  0  0  0  0  0  0  0  0  0  0
  139.4860   69.5420  224.1750 C   0  0  0  0  0  0  0  0  0  0  0  0
  139.9280   69.7720  225.4610 C   0  0  0  0  0  0  0  0  0  0  0  0
  139.7670   68.8580  226.4700 C   0  0  0  0  0  0  0  0  0  0  0  0
  140.2170   69.1100  227.7570 C   0  0  0  0  0  0  0  0  0  0  0  0
  140.0520   68.1990  228.7440 F   0  0  0  0  0  0  0  0  0  0  0  0
  140.8420   70.3120  228.0140 C   0  0  0  0  0  0  0  0  0  0  0  0
  141.0040   71.2350  226.9900 C   0  0  0  0  0  0  0  0  0  0  0  0
  140.5510   70.9800  225.7030 C   0  0  0  0  0  0  0  0  0  0  0  0
  140.7090   71.8660  224.7260 N   0  0  0  0  0  0  0  0  0  0  0  0
  138.8270   73.8080  223.0810 H   0  0  0  0  0  0  0  0  0  0  0  0
  140.6403   74.5706  220.7348 H   0  0  0  0  0  0  0  0  0  0  0  0
  138.8442   74.7409  220.6413 H   0  0  0  0  0  0  0  0  0  0  0  0
  137.5923   75.1273  222.5439 H   0  0  0  0  0  0  0  0  0  0  0  0
  137.7712   75.8633  224.1291 H   0  0  0  0  0  0  0  0  0  0  0  0
  135.5772   76.3538  222.6246 H   0  0  0  0  0  0  0  0  0  0  0  0
  136.3272   77.6896  223.5836 H   0  0  0  0  0  0  0  0  0  0  0  0
  136.9499   77.0792  220.6821 H   0  0  0  0  0  0  0  0  0  0  0  0
  135.7608   78.3210  221.2721 H   0  0  0  0  0  0  0  0  0  0  0  0
  138.3533   78.8814  220.6948 H   0  0  0  0  0  0  0  0  0  0  0  0
  137.3928   79.7787  221.8954 H   0  0  0  0  0  0  0  0  0  0  0  0
  138.3575   78.4144  223.7754 H   0  0  0  0  0  0  0  0  0  0  0  0
  140.9024   77.8967  224.3281 H   0  0  0  0  0  0  0  0  0  0  0  0
  142.9262   79.2540  224.4895 H   0  0  0  0  0  0  0  0  0  0  0  0
  143.1889   81.2990  223.0854 H   0  0  0  0  0  0  0  0  0  0  0  0
  139.3000   80.5289  221.3653 H   0  0  0  0  0  0  0  0  0  0  0  0
  139.2851   70.2531  222.1363 H   0  0  0  0  0  0  0  0  0  0  0  0
  138.9848   68.5883  223.9528 H   0  0  0  0  0  0  0  0  0  0  0  0
  139.2688   67.9016  226.2533 H   0  0  0  0  0  0  0  0  0  0  0  0
  141.2104   70.5383  229.0255 H   0  0  0  0  0  0  0  0  0  0  0  0
  141.5034   72.1915  227.2036 H   0  0  0  0  0  0  0  0  0  0  0  0
  1  2  2  0
  2  3  1  0
  3  4  1  0
  4  5  1  0
  5  6  2  0
  5  7  1  0
  7  8  1  0
  8  9  1  0
  9 10  1  0
 10 11  1  0
 11 12  1  0
 12 13  1  0
 13 14  2  0
 14 15  1  0
 15 16  2  0
 16 17  1  0
 17 18  1  0
 17 19  2  0
  2 20  1  0
 20 21  2  0
 21 22  1  0
 22 23  2  0
 23 24  1  0
 24 25  2  0
 25 26  1  0
 25 27  1  0
 27 28  2  0
 28 29  1  0
 29 30  2  0
 12  7  1  0
 19 13  1  0
 30 20  1  0
 29 23  1  0
  3 31  1  0
  4 32  1  0
  4 33  1  0
  8 34  1  0
  8 35  1  0
  9 36  1  0
  9 37  1  0
 10 38  1  0
 10 39  1  0
 11 40  1  0
 11 41  1  0
 12 42  1  1
 14 43  1  0
 15 44  1  0
 16 45  1  0
 19 46  1  0
 21 47  1  0
 22 48  1  0
 24 49  1  0
 27 50  1  0
 28 51  1  0
M  END
>  <smiles>  (11) 
O=C(NCC(=O)N1CCCCC1c1cccc(Cl)c1)c1ccc2cc(F)ccc2n1

>  <score_type>  (11) 
oracle

>  <origin>  (11) 
autodockgpu

>  <m_score__min__energy>  (11) 
-9.3399999999999999

>  <m_primary>  (11) 
energy

>  <rmsd>  (11) 
3.278866410147455

>  <m_score__min__rmsd>  (11) 
3.278866410147455

>  <meeko>  (11) 
{"free_energy": -8.95, "intermolecular_energy": -10.44, "internal_energy": -1.26, "cluster_size": 18, "cluster_id": 1, "rank_in_cluster": 5}

>  <energy>  (11) 
-8.77

>  <cluster_rmsd>  (11) 
0.76

>  <cluster>  (11) 
1

$$$$

     RDKit          3D

 51 54  0  0  0  0  0  0  0  0999 V2000
  141.1800   71.3910  221.3690 O   0  0  0  0  0  0  0  0  0  0  0  0
  140.6290   72.0120  222.3360 C   0  0  0  0  0  0  0  0  0  0  0  0
  140.3350   73.4200  222.2330 N   0  0  0  0  0  0  0  0  0  0  0  0
  140.6700   74.1520  221.0020 C   0  0  0  0  0  0  0  0  0  0  0  0
  140.3430   75.5700  221.1330 C   0  0  0  0  0  0  0  0  0  0  0  0
  140.0300   75.9490  222.3340 O   0  0  0  0  0  0  0  0  0  0  0  0
  140.3110   76.5720  220.1700 N   0  0  0  0  0  0  0  0  0  0  0  0
  139.6430   76.1880  218.8830 C   0  0  0  0  0  0  0  0  0  0  0  0
  140.5310   76.8220  217.8040 C   0  0  0  0  0  0  0  0  0  0  0  0
  141.9630   76.8580  218.2420 C   0  0  0  0  0  0  0  0  0  0  0  0
  142.1800   77.7850  219.4160 C   0  0  0  0  0  0  0  0  0  0  0  0
  140.8420   77.8950  220.1660 C   0  0  2  0  0  0  0  0  0  0  0  0
  140.9810   78.6110  221.4160 C   0  0  0  0  0  0  0  0  0  0  0  0
  142.1890   78.8630  222.0230 C   0  0  0  0  0  0  0  0  0  0  0  0
  142.3250   79.5420  223.2140 C   0  0  0  0  0  0  0  0  0  0  0  0
  141.2140   80.0170  223.8740 C   0  0  0  0  0  0  0  0  0  0  0  0
  139.9870   79.7850  223.2970 C   0  0  0  0  0  0  0  0  0  0  0  0
  138.5760   80.3930  224.1440 Cl  0  0  0  0  0  0  0  0  0  0  0  0
  139.8520   79.0950  222.0890 C   0  0  0  0  0  0  0  0  0  0  0  0
  140.2810   71.3120  223.5800 C   0  0  0  0  0  0  0  0  0  0  0  0
  139.5750   70.1310  223.4890 C   0  0  0  0  0  0  0  0  0  0  0  0
  139.2620   69.4970  224.6750 C   0  0  0  0  0  0  0  0  0  0  0  0
  139.6250   69.9970  225.9070 C   0  0  0  0  0  0  0  0  0  0  0  0
  139.3110   69.3630  227.0820 C   0  0  0  0  0  0  0  0  0  0  0  0
  139.6840   69.8830  228.3110 C   0  0  0  0  0  0  0  0  0  0  0  0
  139.3690   69.2470  229.4620 F   0  0  0  0  0  0  0  0  0  0  0  0
  140.3890   71.0680  228.3390 C   0  0  0  0  0  0  0  0  0  0  0  0
  140.7050   71.7080  227.1480 C   0  0  0  0  0  0  0  0  0  0  0  0
  140.3290   71.1840  225.9190 C   0  0  0  0  0  0  0  0  0  0  0  0
  140.6340   71.7990  224.7820 N   0  0  0  0  0  0  0  0  0  0  0  0
  139.8880   73.8650  223.0540 H   0  0  0  0  0  0  0  0  0  0  0  0
  141.7468   74.0477  220.8027 H   0  0  0  0  0  0  0  0  0  0  0  0
  140.0830   73.7313  220.1723 H   0  0  0  0  0  0  0  0  0  0  0  0
  139.6101   75.0943  218.7701 H   0  0  0  0  0  0  0  0  0  0  0  0
  138.5988   76.5295  218.8282 H   0  0  0  0  0  0  0  0  0  0  0  0
  140.4521   76.2308  216.8797 H   0  0  0  0  0  0  0  0  0  0  0  0
  140.1908   77.8537  217.6311 H   0  0  0  0  0  0  0  0  0  0  0  0
  142.2701   75.8422  218.5317 H   0  0  0  0  0  0  0  0  0  0  0  0
  142.5632   77.2341  217.4004 H   0  0  0  0  0  0  0  0  0  0  0  0
  142.9523   77.3737  220.0826 H   0  0  0  0  0  0  0  0  0  0  0  0
  142.5166   78.7746  219.0734 H   0  0  0  0  0  0  0  0  0  0  0  0
  140.0883   78.5359  219.6851 H   0  0  0  0  0  0  0  0  0  0  0  0
  143.1018   78.5005  221.5276 H   0  0  0  0  0  0  0  0  0  0  0  0
  143.3260   79.7054  223.6397 H   0  0  0  0  0  0  0  0  0  0  0  0
  141.3040   80.5610  224.8258 H   0  0  0  0  0  0  0  0  0  0  0  0
  138.8511   78.9308  221.6634 H   0  0  0  0  0  0  0  0  0  0  0  0
  139.2751   69.7133  222.5166 H   0  0  0  0  0  0  0  0  0  0  0  0
  138.6990   68.5528  224.6349 H   0  0  0  0  0  0  0  0  0  0  0  0
  138.7490   68.4180  227.0478 H   0  0  0  0  0  0  0  0  0  0  0  0
  140.6994   71.5039  229.3000 H   0  0  0  0  0  0  0  0  0  0  0  0
  141.2669   72.6531  227.1792 H   0  0  0  0  0  0  0  0  0  0  0  0
  1  2  2  0
  2  3  1  0
  3  4  1  0
  4  5  1  0
  5  6  2  0
  5  7  1  0
  7  8  1  0
  8  9  1  0
  9 10  1  0
 10 11  1  0
 11 12  1  0
 12 13  1  0
 13 14  2  0
 14 15  1  0
 15 16  2  0
 16 17  1  0
 17 18  1  0
 17 19  2  0
  2 20  1  0
 20 21  2  0
 21 22  1  0
 22 23  2  0
 23 24  1  0
 24 25  2  0
 25 26  1  0
 25 27  1  0
 27 28  2  0
 28 29  1  0
 29 30  2  0
 12  7  1  0
 19 13  1  0
 30 20  1  0
 29 23  1  0
  3 31  1  0
  4 32  1  0
  4 33  1  0
  8 34  1  0
  8 35  1  0
  9 36  1  0
  9 37  1  0
 10 38  1  0
 10 39  1  0
 11 40  1  0
 11 41  1  0
 12 42  1  6
 14 43  1  0
 15 44  1  0
 16 45  1  0
 19 46  1  0
 21 47  1  0
 22 48  1  0
 24 49  1  0
 27 50  1  0
 28 51  1  0
M  END
>  <smiles>  (12) 
O=C(NCC(=O)N1CCCCC1c1cccc(Cl)c1)c1ccc2cc(F)ccc2n1

>  <score_type>  (12) 
oracle

>  <origin>  (12) 
autodockgpu

>  <m_score__min__energy>  (12) 
-9.3399999999999999

>  <m_primary>  (12) 
energy

>  <rmsd>  (12) 
1.69447280780949

>  <m_score__min__rmsd>  (12) 
1.69447280780949

>  <meeko>  (12) 
{"free_energy": -8.42, "intermolecular_energy": -9.91, "internal_energy": -1.99, "cluster_size": 18, "cluster_id": 1, "rank_in_cluster": 17}

>  <energy>  (12) 
-8.76

>  <cluster_rmsd>  (12) 
1.77

>  <cluster>  (12) 
1

$$$$

     RDKit          3D

 51 54  0  0  0  0  0  0  0  0999 V2000
  139.1210   71.3310  221.0820 O   0  0  0  0  0  0  0  0  0  0  0  0
  139.3590   71.9000  222.1980 C   0  0  0  0  0  0  0  0  0  0  0  0
  139.4260   73.3380  222.2890 N   0  0  0  0  0  0  0  0  0  0  0  0
  139.2180   74.1600  221.0870 C   0  0  0  0  0  0  0  0  0  0  0  0
  139.9100   75.4420  221.2070 C   0  0  0  0  0  0  0  0  0  0  0  0
  140.1750   75.8080  222.4240 O   0  0  0  0  0  0  0  0  0  0  0  0
  140.3240   76.3290  220.2200 N   0  0  0  0  0  0  0  0  0  0  0  0
  139.9450   75.9390  218.8220 C   0  0  0  0  0  0  0  0  0  0  0  0
  141.1860   76.2910  217.9930 C   0  0  0  0  0  0  0  0  0  0  0  0
  142.4370   76.1190  218.7990 C   0  0  0  0  0  0  0  0  0  0  0  0
  142.5260   77.1090  219.9380 C   0  0  0  0  0  0  0  0  0  0  0  0
  141.0900   77.5300  220.2910 C   0  0  2  0  0  0  0  0  0  0  0  0
  141.0430   78.3360  221.4930 C   0  0  0  0  0  0  0  0  0  0  0  0
  142.1580   78.7060  222.2090 C   0  0  0  0  0  0  0  0  0  0  0  0
  142.1170   79.4710  223.3540 C   0  0  0  0  0  0  0  0  0  0  0  0
  140.9130   79.9140  223.8510 C   0  0  0  0  0  0  0  0  0  0  0  0
  139.7750   79.5640  223.1620 C   0  0  0  0  0  0  0  0  0  0  0  0
  138.2440   80.1330  223.8010 Cl  0  0  0  0  0  0  0  0  0  0  0  0
  139.8200   78.7880  222.0000 C   0  0  0  0  0  0  0  0  0  0  0  0
  139.5710   71.1090  223.4170 C   0  0  0  0  0  0  0  0  0  0  0  0
  139.2190   69.7760  223.4010 C   0  0  0  0  0  0  0  0  0  0  0  0
  139.4300   69.0590  224.5610 C   0  0  0  0  0  0  0  0  0  0  0  0
  139.9660   69.6230  225.7000 C   0  0  0  0  0  0  0  0  0  0  0  0
  140.1730   68.9060  226.8500 C   0  0  0  0  0  0  0  0  0  0  0  0
  140.7120   69.4920  227.9850 C   0  0  0  0  0  0  0  0  0  0  0  0
  140.9120   68.7730  229.1130 F   0  0  0  0  0  0  0  0  0  0  0  0
  141.0440   70.8300  227.9410 C   0  0  0  0  0  0  0  0  0  0  0  0
  140.8330   71.5530  226.7750 C   0  0  0  0  0  0  0  0  0  0  0  0
  140.2930   70.9620  225.6420 C   0  0  0  0  0  0  0  0  0  0  0  0
  140.0930   71.6580  224.5280 N   0  0  0  0  0  0  0  0  0  0  0  0
  139.6240   73.7380  223.2230 H   0  0  0  0  0  0  0  0  0  0  0  0
  139.6068   73.6213  220.2103 H   0  0  0  0  0  0  0  0  0  0  0  0
  138.1407   74.3509  220.9733 H   0  0  0  0  0  0  0  0  0  0  0  0
  139.7260   74.8627  218.7615 H   0  0  0  0  0  0  0  0  0  0  0  0
  139.0386   76.4525  218.4688 H   0  0  0  0  0  0  0  0  0  0  0  0
  141.2307   75.6308  217.1143 H   0  0  0  0  0  0  0  0  0  0  0  0
  141.1121   77.3433  217.6812 H   0  0  0  0  0  0  0  0  0  0  0  0
  142.4535   75.1003  219.2136 H   0  0  0  0  0  0  0  0  0  0  0  0
  143.2939   76.2951  218.1322 H   0  0  0  0  0  0  0  0  0  0  0  0
  143.0053   76.6385  220.8092 H   0  0  0  0  0  0  0  0  0  0  0  0
  143.1280   77.9829  219.6483 H   0  0  0  0  0  0  0  0  0  0  0  0
  140.6267   78.2409  219.5909 H   0  0  0  0  0  0  0  0  0  0  0  0
  143.1407   78.3711  221.8456 H   0  0  0  0  0  0  0  0  0  0  0  0
  143.0517   79.7289  223.8735 H   0  0  0  0  0  0  0  0  0  0  0  0
  140.8623   80.5248  224.7645 H   0  0  0  0  0  0  0  0  0  0  0  0
  138.8856   78.5306  221.4798 H   0  0  0  0  0  0  0  0  0  0  0  0
  138.7895   69.3055  222.5043 H   0  0  0  0  0  0  0  0  0  0  0  0
  139.1594   67.9929  224.5781 H   0  0  0  0  0  0  0  0  0  0  0  0
  139.9048   67.8394  226.8728 H   0  0  0  0  0  0  0  0  0  0  0  0
  141.4741   71.3219  228.8259 H   0  0  0  0  0  0  0  0  0  0  0  0
  141.1002   72.6197  226.7487 H   0  0  0  0  0  0  0  0  0  0  0  0
  1  2  2  0
  2  3  1  0
  3  4  1  0
  4  5  1  0
  5  6  2  0
  5  7  1  0
  7  8  1  0
  8  9  1  0
  9 10  1  0
 10 11  1  0
 11 12  1  0
 12 13  1  0
 13 14  2  0
 14 15  1  0
 15 16  2  0
 16 17  1  0
 17 18  1  0
 17 19  2  0
  2 20  1  0
 20 21  2  0
 21 22  1  0
 22 23  2  0
 23 24  1  0
 24 25  2  0
 25 26  1  0
 25 27  1  0
 27 28  2  0
 28 29  1  0
 29 30  2  0
 12  7  1  0
 19 13  1  0
 30 20  1  0
 29 23  1  0
  3 31  1  0
  4 32  1  0
  4 33  1  0
  8 34  1  0
  8 35  1  0
  9 36  1  0
  9 37  1  0
 10 38  1  0
 10 39  1  0
 11 40  1  0
 11 41  1  0
 12 42  1  6
 14 43  1  0
 15 44  1  0
 16 45  1  0
 19 46  1  0
 21 47  1  0
 22 48  1  0
 24 49  1  0
 27 50  1  0
 28 51  1  0
M  END
>  <smiles>  (13) 
O=C(NCC(=O)N1CCCCC1c1cccc(Cl)c1)c1ccc2cc(F)ccc2n1

>  <score_type>  (13) 
oracle

>  <origin>  (13) 
autodockgpu

>  <m_score__min__energy>  (13) 
-9.3399999999999999

>  <m_primary>  (13) 
energy

>  <rmsd>  (13) 
1.2883234698943495

>  <m_score__min__rmsd>  (13) 
1.2883234698943495

>  <meeko>  (13) 
{"free_energy": -8.54, "intermolecular_energy": -10.03, "internal_energy": -2.06, "cluster_size": 18, "cluster_id": 1, "rank_in_cluster": 15}

>  <energy>  (13) 
-8.57

>  <cluster_rmsd>  (13) 
1.04

>  <cluster>  (13) 
1

$$$$

     RDKit          3D

 51 54  0  0  0  0  0  0  0  0999 V2000
  140.5310   71.7650  221.1550 O   0  0  0  0  0  0  0  0  0  0  0  0
  139.8660   72.0930  222.1910 C   0  0  0  0  0  0  0  0  0  0  0  0
  139.0700   73.2960  222.2020 N   0  0  0  0  0  0  0  0  0  0  0  0
  139.0200   74.1540  221.0080 C   0  0  0  0  0  0  0  0  0  0  0  0
  140.1500   75.0820  220.9880 C   0  0  0  0  0  0  0  0  0  0  0  0
  140.9510   74.9900  222.0040 O   0  0  0  0  0  0  0  0  0  0  0  0
  140.4940   76.0480  220.0500 N   0  0  0  0  0  0  0  0  0  0  0  0
  140.2500   75.6570  218.6220 C   0  0  0  0  0  0  0  0  0  0  0  0
  141.4770   76.2000  217.8780 C   0  0  0  0  0  0  0  0  0  0  0  0
  142.6920   76.1700  218.7520 C   0  0  0  0  0  0  0  0  0  0  0  0
  142.5820   77.1250  219.9190 C   0  0  0  0  0  0  0  0  0  0  0  0
  141.0850   77.3390  220.1960 C   0  0  2  0  0  0  0  0  0  0  0  0
  140.8620   78.0900  221.4130 C   0  0  0  0  0  0  0  0  0  0  0  0
  139.6650   78.1080  222.0920 C   0  0  0  0  0  0  0  0  0  0  0  0
  139.4490   78.8240  223.2490 C   0  0  0  0  0  0  0  0  0  0  0  0
  140.4590   79.5820  223.7970 C   0  0  0  0  0  0  0  0  0  0  0  0
  141.6700   79.5890  223.1460 C   0  0  0  0  0  0  0  0  0  0  0  0
  142.9520   80.5570  223.8500 Cl  0  0  0  0  0  0  0  0  0  0  0  0
  141.8870   78.8620  221.9720 C   0  0  0  0  0  0  0  0  0  0  0  0
  139.8930   71.2590  223.4000 C   0  0  0  0  0  0  0  0  0  0  0  0
  139.4000   69.9740  223.3180 C   0  0  0  0  0  0  0  0  0  0  0  0
  139.4380   69.2140  224.4700 C   0  0  0  0  0  0  0  0  0  0  0  0
  139.9400   69.6920  225.6620 C   0  0  0  0  0  0  0  0  0  0  0  0
  139.9750   68.9330  226.8040 C   0  0  0  0  0  0  0  0  0  0  0  0
  140.4820   69.4330  227.9930 C   0  0  0  0  0  0  0  0  0  0  0  0
  140.5120   68.6730  229.1120 F   0  0  0  0  0  0  0  0  0  0  0  0
  140.9600   70.7260  228.0140 C   0  0  0  0  0  0  0  0  0  0  0  0
  140.9240   71.4920  226.8570 C   0  0  0  0  0  0  0  0  0  0  0  0
  140.4140   70.9880  225.6680 C   0  0  0  0  0  0  0  0  0  0  0  0
  140.3810   71.7240  224.5630 N   0  0  0  0  0  0  0  0  0  0  0  0
  138.5540   73.5070  223.0750 H   0  0  0  0  0  0  0  0  0  0  0  0
  139.0561   73.5223  220.1082 H   0  0  0  0  0  0  0  0  0  0  0  0
  138.0865   74.7354  221.0303 H   0  0  0  0  0  0  0  0  0  0  0  0
  140.1830   74.5637  218.5212 H   0  0  0  0  0  0  0  0  0  0  0  0
  139.3034   76.0555  218.2281 H   0  0  0  0  0  0  0  0  0  0  0  0
  141.6598   75.5817  216.9868 H   0  0  0  0  0  0  0  0  0  0  0  0
  141.2786   77.2429  217.5900 H   0  0  0  0  0  0  0  0  0  0  0  0
  142.8230   75.1494  219.1410 H   0  0  0  0  0  0  0  0  0  0  0  0
  143.5533   76.4807  218.1424 H   0  0  0  0  0  0  0  0  0  0  0  0
  143.0708   76.6941  220.8052 H   0  0  0  0  0  0  0  0  0  0  0  0
  143.0754   78.0805  219.6878 H   0  0  0  0  0  0  0  0  0  0  0  0
  140.5704   78.0048  219.4876 H   0  0  0  0  0  0  0  0  0  0  0  0
  138.8314   77.5156  221.6869 H   0  0  0  0  0  0  0  0  0  0  0  0
  138.4641   78.7898  223.7376 H   0  0  0  0  0  0  0  0  0  0  0  0
  140.3032   80.1597  224.7200 H   0  0  0  0  0  0  0  0  0  0  0  0
  142.8718   78.8969  221.4832 H   0  0  0  0  0  0  0  0  0  0  0  0
  138.9948   69.5726  222.3774 H   0  0  0  0  0  0  0  0  0  0  0  0
  139.0519   68.1846  224.4355 H   0  0  0  0  0  0  0  0  0  0  0  0
  139.5914   67.9025  226.7754 H   0  0  0  0  0  0  0  0  0  0  0  0
  141.3682   71.1488  228.9438 H   0  0  0  0  0  0  0  0  0  0  0  0
  141.3085   72.5223  226.8827 H   0  0  0  0  0  0  0  0  0  0  0  0
  1  2  2  0
  2  3  1  0
  3  4  1  0
  4  5  1  0
  5  6  2  0
  5  7  1  0
  7  8  1  0
  8  9  1  0
  9 10  1  0
 10 11  1  0
 11 12  1  0
 12 13  1  0
 13 14  2  0
 14 15  1  0
 15 16  2  0
 16 17  1  0
 17 18  1  0
 17 19  2  0
  2 20  1  0
 20 21  2  0
 21 22  1  0
 22 23  2  0
 23 24  1  0
 24 25  2  0
 25 26  1  0
 25 27  1  0
 27 28  2  0
 28 29  1  0
 29 30  2  0
 12  7  1  0
 19 13  1  0
 30 20  1  0
 29 23  1  0
  3 31  1  0
  4 32  1  0
  4 33  1  0
  8 34  1  0
  8 35  1  0
  9 36  1  0
  9 37  1  0
 10 38  1  0
 10 39  1  0
 11 40  1  0
 11 41  1  0
 12 42  1  6
 14 43  1  0
 15 44  1  0
 16 45  1  0
 19 46  1  0
 21 47  1  0
 22 48  1  0
 24 49  1  0
 27 50  1  0
 28 51  1  0
M  END
>  <smiles>  (14) 
O=C(NCC(=O)N1CCCCC1c1cccc(Cl)c1)c1ccc2cc(F)ccc2n1

>  <score_type>  (14) 
oracle

>  <origin>  (14) 
autodockgpu

>  <m_score__min__energy>  (14) 
-9.3399999999999999

>  <m_primary>  (14) 
energy

>  <rmsd>  (14) 
1.3099370437125772

>  <m_score__min__rmsd>  (14) 
1.3099370437125772

>  <meeko>  (14) 
{"free_energy": -9.23, "intermolecular_energy": -10.72, "internal_energy": -1.52, "cluster_size": 18, "cluster_id": 1, "rank_in_cluster": 3}

>  <energy>  (14) 
-8.54

>  <cluster_rmsd>  (14) 
1.03

>  <cluster>  (14) 
1

$$$$

     RDKit          3D

 51 54  0  0  0  0  0  0  0  0999 V2000
  141.4750   71.9720  221.3200 O   0  0  0  0  0  0  0  0  0  0  0  0
  140.6050   72.3430  222.1740 C   0  0  0  0  0  0  0  0  0  0  0  0
  139.8780   73.5760  221.9940 N   0  0  0  0  0  0  0  0  0  0  0  0
  140.1390   74.4160  220.8140 C   0  0  0  0  0  0  0  0  0  0  0  0
  140.8720   75.6240  221.1880 C   0  0  0  0  0  0  0  0  0  0  0  0
  140.6530   76.0450  222.3960 O   0  0  0  0  0  0  0  0  0  0  0  0
  141.7630   76.3920  220.4470 N   0  0  0  0  0  0  0  0  0  0  0  0
  141.5640   77.8750  220.5610 C   0  0  0  0  0  0  0  0  0  0  0  0
  141.7810   78.3860  219.1320 C   0  0  0  0  0  0  0  0  0  0  0  0
  141.3370   77.3700  218.1250 C   0  0  0  0  0  0  0  0  0  0  0  0
  142.1960   76.1260  218.1500 C   0  0  0  0  0  0  0  0  0  0  0  0
  142.8130   76.0240  219.5540 C   0  0  2  0  0  0  0  0  0  0  0  0
  143.5060   74.7680  219.7500 C   0  0  0  0  0  0  0  0  0  0  0  0
  143.1320   73.5870  219.1520 C   0  0  0  0  0  0  0  0  0  0  0  0
  143.7880   72.3900  219.3370 C   0  0  0  0  0  0  0  0  0  0  0  0
  144.8890   72.3210  220.1610 C   0  0  0  0  0  0  0  0  0  0  0  0
  145.2940   73.4820  220.7770 C   0  0  0  0  0  0  0  0  0  0  0  0
  146.6970   73.3860  221.8250 Cl  0  0  0  0  0  0  0  0  0  0  0  0
  144.6260   74.6960  220.5870 C   0  0  0  0  0  0  0  0  0  0  0  0
  140.3200   71.5290  223.3630 C   0  0  0  0  0  0  0  0  0  0  0  0
  139.5500   70.3960  223.2090 C   0  0  0  0  0  0  0  0  0  0  0  0
  139.2990   69.6510  224.3440 C   0  0  0  0  0  0  0  0  0  0  0  0
  139.7830   70.0000  225.5870 C   0  0  0  0  0  0  0  0  0  0  0  0
  139.5300   69.2560  226.7110 C   0  0  0  0  0  0  0  0  0  0  0  0
  140.0250   69.6250  227.9530 C   0  0  0  0  0  0  0  0  0  0  0  0
  139.7680   68.8820  229.0540 F   0  0  0  0  0  0  0  0  0  0  0  0
  140.7890   70.7690  228.0450 C   0  0  0  0  0  0  0  0  0  0  0  0
  141.0430   71.5200  226.9050 C   0  0  0  0  0  0  0  0  0  0  0  0
  140.5450   71.1470  225.6640 C   0  0  0  0  0  0  0  0  0  0  0  0
  140.7910   71.8680  224.5760 N   0  0  0  0  0  0  0  0  0  0  0  0
  139.1860   73.8220  222.7240 H   0  0  0  0  0  0  0  0  0  0  0  0
  140.7347   73.8430  220.0882 H   0  0  0  0  0  0  0  0  0  0  0  0
  139.1761   74.7110  220.3715 H   0  0  0  0  0  0  0  0  0  0  0  0
  140.5471   78.1079  220.9099 H   0  0  0  0  0  0  0  0  0  0  0  0
  142.2470   78.3405  221.2868 H   0  0  0  0  0  0  0  0  0  0  0  0
  141.2026   79.3107  218.9890 H   0  0  0  0  0  0  0  0  0  0  0  0
  142.8547   78.5765  218.9874 H   0  0  0  0  0  0  0  0  0  0  0  0
  140.2968   77.0864  218.3432 H   0  0  0  0  0  0  0  0  0  0  0  0
  141.4282   77.8227  217.1266 H   0  0  0  0  0  0  0  0  0  0  0  0
  141.5793   75.2386  217.9446 H   0  0  0  0  0  0  0  0  0  0  0  0
  142.9821   76.1804  217.3824 H   0  0  0  0  0  0  0  0  0  0  0  0
  143.6485   76.7130  219.7470 H   0  0  0  0  0  0  0  0  0  0  0  0
  142.2565   73.5992  218.4861 H   0  0  0  0  0  0  0  0  0  0  0  0
  143.4306   71.4849  218.8241 H   0  0  0  0  0  0  0  0  0  0  0  0
  145.4243   71.3733  220.3205 H   0  0  0  0  0  0  0  0  0  0  0  0
  144.9834   75.6014  221.0993 H   0  0  0  0  0  0  0  0  0  0  0  0
  139.1537   70.0991  222.2268 H   0  0  0  0  0  0  0  0  0  0  0  0
  138.6875   68.7412  224.2528 H   0  0  0  0  0  0  0  0  0  0  0  0
  138.9199   68.3447  226.6254 H   0  0  0  0  0  0  0  0  0  0  0  0
  141.1955   71.0853  229.0170 H   0  0  0  0  0  0  0  0  0  0  0  0
  141.6530   72.4317  226.9871 H   0  0  0  0  0  0  0  0  0  0  0  0
  1  2  2  0
  2  3  1  0
  3  4  1  0
  4  5  1  0
  5  6  2  0
  5  7  1  0
  7  8  1  0
  8  9  1  0
  9 10  1  0
 10 11  1  0
 11 12  1  0
 12 13  1  0
 13 14  2  0
 14 15  1  0
 15 16  2  0
 16 17  1  0
 17 18  1  0
 17 19  2  0
  2 20  1  0
 20 21  2  0
 21 22  1  0
 22 23  2  0
 23 24  1  0
 24 25  2  0
 25 26  1  0
 25 27  1  0
 27 28  2  0
 28 29  1  0
 29 30  2  0
 12  7  1  0
 19 13  1  0
 30 20  1  0
 29 23  1  0
  3 31  1  0
  4 32  1  0
  4 33  1  0
  8 34  1  0
  8 35  1  0
  9 36  1  0
  9 37  1  0
 10 38  1  0
 10 39  1  0
 11 40  1  0
 11 41  1  0
 12 42  1  6
 14 43  1  0
 15 44  1  0
 16 45  1  0
 19 46  1  0
 21 47  1  0
 22 48  1  0
 24 49  1  0
 27 50  1  0
 28 51  1  0
M  END
>  <smiles>  (15) 
O=C(NCC(=O)N1CCCCC1c1cccc(Cl)c1)c1ccc2cc(F)ccc2n1

>  <score_type>  (15) 
oracle

>  <origin>  (15) 
autodockgpu

>  <m_score__min__energy>  (15) 
-9.3399999999999999

>  <m_primary>  (15) 
energy

>  <rmsd>  (15) 
2.3297620112745627

>  <m_score__min__rmsd>  (15) 
2.3297620112745627

>  <meeko>  (15) 
{"free_energy": -9.08, "intermolecular_energy": -10.57, "internal_energy": -1.92, "cluster_size": 24, "cluster_id": 2, "rank_in_cluster": 1}

>  <energy>  (15) 
-8.54

>  <cluster_rmsd>  (15) 
1.04

>  <cluster>  (15) 
1

$$$$

     RDKit          3D

 51 54  0  0  0  0  0  0  0  0999 V2000
  141.5230   72.2950  221.5220 O   0  0  0  0  0  0  0  0  0  0  0  0
  140.5500   72.5030  222.3190 C   0  0  0  0  0  0  0  0  0  0  0  0
  139.6590   73.6180  222.1150 N   0  0  0  0  0  0  0  0  0  0  0  0
  139.8690   74.5280  220.9790 C   0  0  0  0  0  0  0  0  0  0  0  0
  140.5720   75.7370  221.4030 C   0  0  0  0  0  0  0  0  0  0  0  0
  140.3520   76.0950  222.6310 O   0  0  0  0  0  0  0  0  0  0  0  0
  141.4360   76.5640  220.6930 N   0  0  0  0  0  0  0  0  0  0  0  0
  141.2790   78.0290  220.9720 C   0  0  0  0  0  0  0  0  0  0  0  0
  141.4220   78.6840  219.5930 C   0  0  0  0  0  0  0  0  0  0  0  0
  140.8970   77.7860  218.5150 C   0  0  0  0  0  0  0  0  0  0  0  0
  141.7250   76.5320  218.3580 C   0  0  0  0  0  0  0  0  0  0  0  0
  142.4220   76.2730  219.7040 C   0  0  2  0  0  0  0  0  0  0  0  0
  143.0960   74.9920  219.7260 C   0  0  0  0  0  0  0  0  0  0  0  0
  142.6500   73.8810  219.0470 C   0  0  0  0  0  0  0  0  0  0  0  0
  143.2870   72.6600  219.0670 C   0  0  0  0  0  0  0  0  0  0  0  0
  144.4430   72.4920  219.7950 C   0  0  0  0  0  0  0  0  0  0  0  0
  144.9210   73.5800  220.4870 C   0  0  0  0  0  0  0  0  0  0  0  0
  146.3950   73.3580  221.4120 Cl  0  0  0  0  0  0  0  0  0  0  0  0
  144.2720   74.8180  220.4650 C   0  0  0  0  0  0  0  0  0  0  0  0
  140.3110   71.6140  223.4630 C   0  0  0  0  0  0  0  0  0  0  0  0
  139.5760   70.4660  223.2570 C   0  0  0  0  0  0  0  0  0  0  0  0
  139.3670   69.6510  224.3520 C   0  0  0  0  0  0  0  0  0  0  0  0
  139.8600   69.9460  225.6060 C   0  0  0  0  0  0  0  0  0  0  0  0
  139.6500   69.1320  226.6900 C   0  0  0  0  0  0  0  0  0  0  0  0
  140.1530   69.4470  227.9430 C   0  0  0  0  0  0  0  0  0  0  0  0
  139.9390   68.6360  229.0030 F   0  0  0  0  0  0  0  0  0  0  0  0
  140.8810   70.6090  228.0880 C   0  0  0  0  0  0  0  0  0  0  0  0
  141.0920   71.4310  226.9880 C   0  0  0  0  0  0  0  0  0  0  0  0
  140.5860   71.1120  225.7360 C   0  0  0  0  0  0  0  0  0  0  0  0
  140.7900   71.9010  224.6860 N   0  0  0  0  0  0  0  0  0  0  0  0
  138.8890   73.7320  222.7980 H   0  0  0  0  0  0  0  0  0  0  0  0
  140.4666   74.0142  220.2116 H   0  0  0  0  0  0  0  0  0  0  0  0
  138.8880   74.8157  220.5729 H   0  0  0  0  0  0  0  0  0  0  0  0
  140.2906   78.2412  221.4055 H   0  0  0  0  0  0  0  0  0  0  0  0
  142.0151   78.4040  221.6983 H   0  0  0  0  0  0  0  0  0  0  0  0
  140.8564   79.6274  219.5825 H   0  0  0  0  0  0  0  0  0  0  0  0
  142.4891   78.8723  219.4034 H   0  0  0  0  0  0  0  0  0  0  0  0
  139.8650   77.4992  218.7653 H   0  0  0  0  0  0  0  0  0  0  0  0
  140.9418   78.3393  217.5653 H   0  0  0  0  0  0  0  0  0  0  0  0
  141.0759   75.6821  218.1005 H   0  0  0  0  0  0  0  0  0  0  0  0
  142.4649   76.6520  217.5529 H   0  0  0  0  0  0  0  0  0  0  0  0
  143.2835   76.9233  219.9157 H   0  0  0  0  0  0  0  0  0  0  0  0
  141.7292   73.9738  218.4524 H   0  0  0  0  0  0  0  0  0  0  0  0
  142.8701   71.8155  218.4987 H   0  0  0  0  0  0  0  0  0  0  0  0
  144.9648   71.5240  219.8222 H   0  0  0  0  0  0  0  0  0  0  0  0
  144.6890   75.6625  221.0332 H   0  0  0  0  0  0  0  0  0  0  0  0
  139.1742   70.2108  222.2653 H   0  0  0  0  0  0  0  0  0  0  0  0
  138.7832   68.7283  224.2187 H   0  0  0  0  0  0  0  0  0  0  0  0
  139.0685   68.2071  226.5620 H   0  0  0  0  0  0  0  0  0  0  0  0
  141.2929   70.8839  229.0702 H   0  0  0  0  0  0  0  0  0  0  0  0
  141.6737   72.3562  227.1125 H   0  0  0  0  0  0  0  0  0  0  0  0
  1  2  2  0
  2  3  1  0
  3  4  1  0
  4  5  1  0
  5  6  2  0
  5  7  1  0
  7  8  1  0
  8  9  1  0
  9 10  1  0
 10 11  1  0
 11 12  1  0
 12 13  1  0
 13 14  2  0
 14 15  1  0
 15 16  2  0
 16 17  1  0
 17 18  1  0
 17 19  2  0
  2 20  1  0
 20 21  2  0
 21 22  1  0
 22 23  2  0
 23 24  1  0
 24 25  2  0
 25 26  1  0
 25 27  1  0
 27 28  2  0
 28 29  1  0
 29 30  2  0
 12  7  1  0
 19 13  1  0
 30 20  1  0
 29 23  1  0
  3 31  1  0
  4 32  1  0
  4 33  1  0
  8 34  1  0
  8 35  1  0
  9 36  1  0
  9 37  1  0
 10 38  1  0
 10 39  1  0
 11 40  1  0
 11 41  1  0
 12 42  1  1
 14 43  1  0
 15 44  1  0
 16 45  1  0
 19 46  1  0
 21 47  1  0
 22 48  1  0
 24 49  1  0
 27 50  1  0
 28 51  1  0
M  END
>  <smiles>  (16) 
O=C(NCC(=O)N1CCCCC1c1cccc(Cl)c1)c1ccc2cc(F)ccc2n1

>  <score_type>  (16) 
oracle

>  <origin>  (16) 
autodockgpu

>  <m_score__min__energy>  (16) 
-9.3399999999999999

>  <m_primary>  (16) 
energy

>  <rmsd>  (16) 
2.3257768782108386

>  <m_score__min__rmsd>  (16) 
2.3257768782108386

>  <meeko>  (16) 
{"free_energy": -8.94, "intermolecular_energy": -10.44, "internal_energy": -1.9, "cluster_size": 24, "cluster_id": 2, "rank_in_cluster": 7}

>  <energy>  (16) 
-8.49

>  <cluster_rmsd>  (16) 
0.9

>  <cluster>  (16) 
1

$$$$

     RDKit          3D

 51 54  0  0  0  0  0  0  0  0999 V2000
  141.0980   72.0660  221.2770 O   0  0  0  0  0  0  0  0  0  0  0  0
  140.3250   72.4490  222.2160 C   0  0  0  0  0  0  0  0  0  0  0  0
  139.6430   73.7170  222.1350 N   0  0  0  0  0  0  0  0  0  0  0  0
  139.8370   74.5810  220.9600 C   0  0  0  0  0  0  0  0  0  0  0  0
  141.0310   75.4090  221.1130 C   0  0  0  0  0  0  0  0  0  0  0  0
  141.4580   75.5320  222.3330 O   0  0  0  0  0  0  0  0  0  0  0  0
  141.7770   76.0860  220.1550 N   0  0  0  0  0  0  0  0  0  0  0  0
  141.5090   77.5600  220.0730 C   0  0  0  0  0  0  0  0  0  0  0  0
  141.5150   77.8520  218.5680 C   0  0  0  0  0  0  0  0  0  0  0  0
  141.0090   76.6760  217.7910 C   0  0  0  0  0  0  0  0  0  0  0  0
  141.9340   75.4840  217.8860 C   0  0  0  0  0  0  0  0  0  0  0  0
  142.7260   75.6240  219.1960 C   0  0  2  0  0  0  0  0  0  0  0  0
  143.5100   74.4410  219.4830 C   0  0  0  0  0  0  0  0  0  0  0  0
  143.3260   73.2310  218.8550 C   0  0  0  0  0  0  0  0  0  0  0  0
  144.0680   72.1030  219.1260 C   0  0  0  0  0  0  0  0  0  0  0  0
  145.0650   72.1380  220.0750 C   0  0  0  0  0  0  0  0  0  0  0  0
  145.2800   73.3310  220.7240 C   0  0  0  0  0  0  0  0  0  0  0  0
  146.5520   73.3690  221.9310 Cl  0  0  0  0  0  0  0  0  0  0  0  0
  144.5250   74.4750  220.4470 C   0  0  0  0  0  0  0  0  0  0  0  0
  140.1100   71.6110  223.4030 C   0  0  0  0  0  0  0  0  0  0  0  0
  139.2990   70.5030  223.2820 C   0  0  0  0  0  0  0  0  0  0  0  0
  139.1150   69.7350  224.4150 C   0  0  0  0  0  0  0  0  0  0  0  0
  139.7030   70.0390  225.6250 C   0  0  0  0  0  0  0  0  0  0  0  0
  139.5170   69.2730  226.7470 C   0  0  0  0  0  0  0  0  0  0  0  0
  140.1150   69.5960  227.9550 C   0  0  0  0  0  0  0  0  0  0  0  0
  139.9240   68.8310  229.0540 F   0  0  0  0  0  0  0  0  0  0  0  0
  140.9160   70.7170  228.0150 C   0  0  0  0  0  0  0  0  0  0  0  0
  141.1030   71.4900  226.8770 C   0  0  0  0  0  0  0  0  0  0  0  0
  140.5010   71.1640  225.6700 C   0  0  0  0  0  0  0  0  0  0  0  0
  140.6820   71.9060  224.5830 N   0  0  0  0  0  0  0  0  0  0  0  0
  139.0310   73.9700  222.9310 H   0  0  0  0  0  0  0  0  0  0  0  0
  139.9475   73.9517  220.0646 H   0  0  0  0  0  0  0  0  0  0  0  0
  138.9623   75.2406  220.8606 H   0  0  0  0  0  0  0  0  0  0  0  0
  140.5323   77.8055  220.5155 H   0  0  0  0  0  0  0  0  0  0  0  0
  142.2500   78.1575  220.6243 H   0  0  0  0  0  0  0  0  0  0  0  0
  140.8699   78.7201  218.3674 H   0  0  0  0  0  0  0  0  0  0  0  0
  142.5490   78.0598  218.2555 H   0  0  0  0  0  0  0  0  0  0  0  0
  140.0223   76.3902  218.1845 H   0  0  0  0  0  0  0  0  0  0  0  0
  140.9496   76.9721  216.7333 H   0  0  0  0  0  0  0  0  0  0  0  0
  141.3484   74.5529  217.8977 H   0  0  0  0  0  0  0  0  0  0  0  0
  142.6135   75.4482  217.0217 H   0  0  0  0  0  0  0  0  0  0  0  0
  143.5378   76.3659  219.1725 H   0  0  0  0  0  0  0  0  0  0  0  0
  142.5386   73.1602  218.0901 H   0  0  0  0  0  0  0  0  0  0  0  0
  143.8632   71.1694  218.5816 H   0  0  0  0  0  0  0  0  0  0  0  0
  145.6663   71.2461  220.3051 H   0  0  0  0  0  0  0  0  0  0  0  0
  144.7301   75.4090  220.9907 H   0  0  0  0  0  0  0  0  0  0  0  0
  138.8202   70.2424  222.3266 H   0  0  0  0  0  0  0  0  0  0  0  0
  138.4731   68.8441  224.3497 H   0  0  0  0  0  0  0  0  0  0  0  0
  138.8774   68.3801  226.6869 H   0  0  0  0  0  0  0  0  0  0  0  0
  141.4044   70.9974  228.9599 H   0  0  0  0  0  0  0  0  0  0  0  0
  141.7438   72.3823  226.9335 H   0  0  0  0  0  0  0  0  0  0  0  0
  1  2  2  0
  2  3  1  0
  3  4  1  0
  4  5  1  0
  5  6  2  0
  5  7  1  0
  7  8  1  0
  8  9  1  0
  9 10  1  0
 10 11  1  0
 11 12  1  0
 12 13  1  0
 13 14  2  0
 14 15  1  0
 15 16  2  0
 16 17  1  0
 17 18  1  0
 17 19  2  0
  2 20  1  0
 20 21  2  0
 21 22  1  0
 22 23  2  0
 23 24  1  0
 24 25  2  0
 25 26  1  0
 25 27  1  0
 27 28  2  0
 28 29  1  0
 29 30  2  0
 12  7  1  0
 19 13  1  0
 30 20  1  0
 29 23  1  0
  3 31  1  0
  4 32  1  0
  4 33  1  0
  8 34  1  0
  8 35  1  0
  9 36  1  0
  9 37  1  0
 10 38  1  0
 10 39  1  0
 11 40  1  0
 11 41  1  0
 12 42  1  6
 14 43  1  0
 15 44  1  0
 16 45  1  0
 19 46  1  0
 21 47  1  0
 22 48  1  0
 24 49  1  0
 27 50  1  0
 28 51  1  0
M  END
>  <smiles>  (17) 
O=C(NCC(=O)N1CCCCC1c1cccc(Cl)c1)c1ccc2cc(F)ccc2n1

>  <score_type>  (17) 
oracle

>  <origin>  (17) 
autodockgpu

>  <m_score__min__energy>  (17) 
-9.3399999999999999

>  <m_primary>  (17) 
energy

>  <rmsd>  (17) 
2.1921370794125563

>  <m_score__min__rmsd>  (17) 
2.1921370794125563

>  <meeko>  (17) 
{"free_energy": -8.7, "intermolecular_energy": -10.19, "internal_energy": -1.84, "cluster_size": 24, "cluster_id": 2, "rank_in_cluster": 13}

>  <energy>  (17) 
-8.42

>  <cluster_rmsd>  (17) 
1.16

>  <cluster>  (17) 
1

$$$$

     RDKit          3D

 51 54  0  0  0  0  0  0  0  0999 V2000
  140.7180   71.8040  221.0780 O   0  0  0  0  0  0  0  0  0  0  0  0
  140.2890   72.2790  222.1800 C   0  0  0  0  0  0  0  0  0  0  0  0
  139.8910   73.6620  222.2790 N   0  0  0  0  0  0  0  0  0  0  0  0
  139.9800   74.5370  221.1000 C   0  0  0  0  0  0  0  0  0  0  0  0
  140.2620   75.9150  221.4950 C   0  0  0  0  0  0  0  0  0  0  0  0
  139.4390   76.4140  222.3650 O   0  0  0  0  0  0  0  0  0  0  0  0
  141.2740   76.7740  221.0790 N   0  0  0  0  0  0  0  0  0  0  0  0
  141.2490   78.1320  221.7150 C   0  0  0  0  0  0  0  0  0  0  0  0
  141.5930   79.0840  220.5630 C   0  0  0  0  0  0  0  0  0  0  0  0
  141.0790   78.5560  219.2590 C   0  0  0  0  0  0  0  0  0  0  0  0
  141.7800   77.2840  218.8390 C   0  0  0  0  0  0  0  0  0  0  0  0
  142.3130   76.6130  220.1150 C   0  0  2  0  0  0  0  0  0  0  0  0
  142.8400   75.2910  219.8510 C   0  0  0  0  0  0  0  0  0  0  0  0
  142.2370   74.3810  219.0130 C   0  0  0  0  0  0  0  0  0  0  0  0
  142.7350   73.1210  218.7610 C   0  0  0  0  0  0  0  0  0  0  0  0
  143.9020   72.7030  219.3580 C   0  0  0  0  0  0  0  0  0  0  0  0
  144.5350   73.5860  220.2020 C   0  0  0  0  0  0  0  0  0  0  0  0
  146.0220   73.0460  220.9590 Cl  0  0  0  0  0  0  0  0  0  0  0  0
  144.0270   74.8640  220.4570 C   0  0  0  0  0  0  0  0  0  0  0  0
  140.1870   71.4330  223.3760 C   0  0  0  0  0  0  0  0  0  0  0  0
  139.6050   70.1890  223.2500 C   0  0  0  0  0  0  0  0  0  0  0  0
  139.5230   69.4170  224.3920 C   0  0  0  0  0  0  0  0  0  0  0  0
  139.9930   69.8440  225.6160 C   0  0  0  0  0  0  0  0  0  0  0  0
  139.9100   69.0730  226.7470 C   0  0  0  0  0  0  0  0  0  0  0  0
  140.3880   69.5210  227.9680 C   0  0  0  0  0  0  0  0  0  0  0  0
  140.3000   68.7500  229.0760 F   0  0  0  0  0  0  0  0  0  0  0  0
  140.9600   70.7730  228.0330 C   0  0  0  0  0  0  0  0  0  0  0  0
  141.0440   71.5520  226.8870 C   0  0  0  0  0  0  0  0  0  0  0  0
  140.5630   71.1000  225.6650 C   0  0  0  0  0  0  0  0  0  0  0  0
  140.6450   71.8470  224.5710 N   0  0  0  0  0  0  0  0  0  0  0  0
  139.5520   73.9850  223.2020 H   0  0  0  0  0  0  0  0  0  0  0  0
  140.7871   74.1776  220.4446 H   0  0  0  0  0  0  0  0  0  0  0  0
  139.0162   74.5129  220.5703 H   0  0  0  0  0  0  0  0  0  0  0  0
  140.2520   78.3551  222.1228 H   0  0  0  0  0  0  0  0  0  0  0  0
  141.9479   78.2181  222.5601 H   0  0  0  0  0  0  0  0  0  0  0  0
  141.1365   80.0654  220.7588 H   0  0  0  0  0  0  0  0  0  0  0  0
  142.6873   79.1743  220.4977 H   0  0  0  0  0  0  0  0  0  0  0  0
  140.0031   78.3503  219.3600 H   0  0  0  0  0  0  0  0  0  0  0  0
  141.2717   79.3168  218.4883 H   0  0  0  0  0  0  0  0  0  0  0  0
  141.0715   76.6144  218.3294 H   0  0  0  0  0  0  0  0  0  0  0  0
  142.6023   77.5044  218.1424 H   0  0  0  0  0  0  0  0  0  0  0  0
  143.2153   77.0748  220.5423 H   0  0  0  0  0  0  0  0  0  0  0  0
  141.3020   74.6769  218.5148 H   0  0  0  0  0  0  0  0  0  0  0  0
  142.1968   72.4461  218.0792 H   0  0  0  0  0  0  0  0  0  0  0  0
  144.3133   71.7007  219.1677 H   0  0  0  0  0  0  0  0  0  0  0  0
  144.5647   75.5388  221.1393 H   0  0  0  0  0  0  0  0  0  0  0  0
  139.2234   69.8281  222.2835 H   0  0  0  0  0  0  0  0  0  0  0  0
  139.0636   68.4199  224.3224 H   0  0  0  0  0  0  0  0  0  0  0  0
  139.4528   68.0745  226.6834 H   0  0  0  0  0  0  0  0  0  0  0  0
  141.3485   71.1536  228.9891 H   0  0  0  0  0  0  0  0  0  0  0  0
  141.5021   72.5502  226.9482 H   0  0  0  0  0  0  0  0  0  0  0  0
  1  2  2  0
  2  3  1  0
  3  4  1  0
  4  5  1  0
  5  6  2  0
  5  7  1  0
  7  8  1  0
  8  9  1  0
  9 10  1  0
 10 11  1  0
 11 12  1  0
 12 13  1  0
 13 14  2  0
 14 15  1  0
 15 16  2  0
 16 17  1  0
 17 18  1  0
 17 19  2  0
  2 20  1  0
 20 21  2  0
 21 22  1  0
 22 23  2  0
 23 24  1  0
 24 25  2  0
 25 26  1  0
 25 27  1  0
 27 28  2  0
 28 29  1  0
 29 30  2  0
 12  7  1  0
 19 13  1  0
 30 20  1  0
 29 23  1  0
  3 31  1  0
  4 32  1  0
  4 33  1  0
  8 34  1  0
  8 35  1  0
  9 36  1  0
  9 37  1  0
 10 38  1  0
 10 39  1  0
 11 40  1  0
 11 41  1  0
 12 42  1  1
 14 43  1  0
 15 44  1  0
 16 45  1  0
 19 46  1  0
 21 47  1  0
 22 48  1  0
 24 49  1  0
 27 50  1  0
 28 51  1  0
M  END
>  <smiles>  (18) 
O=C(NCC(=O)N1CCCCC1c1cccc(Cl)c1)c1ccc2cc(F)ccc2n1

>  <score_type>  (18) 
oracle

>  <origin>  (18) 
autodockgpu

>  <m_score__min__energy>  (18) 
-9.3399999999999999

>  <m_primary>  (18) 
energy

>  <rmsd>  (18) 
2.49029693158918

>  <m_score__min__rmsd>  (18) 
2.49029693158918

>  <meeko>  (18) 
{"free_energy": -8.67, "intermolecular_energy": -10.17, "internal_energy": -1.91, "cluster_size": 24, "cluster_id": 2, "rank_in_cluster": 15}

>  <energy>  (18) 
-8.21

>  <cluster_rmsd>  (18) 
0.9

>  <cluster>  (18) 
1

$$$$

     RDKit          3D

 51 54  0  0  0  0  0  0  0  0999 V2000
  139.4430   71.3170  220.9460 O   0  0  0  0  0  0  0  0  0  0  0  0
  139.5270   71.9000  222.0760 C   0  0  0  0  0  0  0  0  0  0  0  0
  139.4780   73.3390  222.1650 N   0  0  0  0  0  0  0  0  0  0  0  0
  139.3290   74.1450  220.9440 C   0  0  0  0  0  0  0  0  0  0  0  0
  139.9330   75.4650  221.1150 C   0  0  0  0  0  0  0  0  0  0  0  0
  140.0730   75.8470  222.3470 O   0  0  0  0  0  0  0  0  0  0  0  0
  140.3760   76.3750  220.1610 N   0  0  0  0  0  0  0  0  0  0  0  0
  140.0230   76.0260  218.7450 C   0  0  0  0  0  0  0  0  0  0  0  0
  141.2840   76.3890  217.9520 C   0  0  0  0  0  0  0  0  0  0  0  0
  142.5160   76.1830  218.7780 C   0  0  0  0  0  0  0  0  0  0  0  0
  142.5900   77.1410  219.9450 C   0  0  0  0  0  0  0  0  0  0  0  0
  141.1510   77.5660  220.2800 C   0  0  2  0  0  0  0  0  0  0  0  0
  141.0860   78.3390  221.5020 C   0  0  0  0  0  0  0  0  0  0  0  0
  142.1870   78.6650  222.2600 C   0  0  0  0  0  0  0  0  0  0  0  0
  142.1290   79.3990  223.4250 C   0  0  0  0  0  0  0  0  0  0  0  0
  140.9210   79.8540  223.8990 C   0  0  0  0  0  0  0  0  0  0  0  0
  139.7960   79.5490  223.1690 C   0  0  0  0  0  0  0  0  0  0  0  0
  138.2600   80.1340  223.7790 Cl  0  0  0  0  0  0  0  0  0  0  0  0
  139.8580   78.8040  221.9870 C   0  0  0  0  0  0  0  0  0  0  0  0
  139.6760   71.1260  223.3150 C   0  0  0  0  0  0  0  0  0  0  0  0
  139.2430   69.8160  223.3240 C   0  0  0  0  0  0  0  0  0  0  0  0
  139.3960   69.1140  224.5020 C   0  0  0  0  0  0  0  0  0  0  0  0
  139.9530   69.6700  225.6350 C   0  0  0  0  0  0  0  0  0  0  0  0
  140.1020   68.9680  226.8030 C   0  0  0  0  0  0  0  0  0  0  0  0
  140.6630   69.5460  227.9320 C   0  0  0  0  0  0  0  0  0  0  0  0
  140.8050   68.8410  229.0770 F   0  0  0  0  0  0  0  0  0  0  0  0
  141.0770   70.8590  227.8630 C   0  0  0  0  0  0  0  0  0  0  0  0
  140.9250   71.5680  226.6790 C   0  0  0  0  0  0  0  0  0  0  0  0
  140.3620   70.9850  225.5520 C   0  0  0  0  0  0  0  0  0  0  0  0
  140.2180   71.6670  224.4200 N   0  0  0  0  0  0  0  0  0  0  0  0
  139.5530   73.7510  223.1120 H   0  0  0  0  0  0  0  0  0  0  0  0
  139.8233   73.6280  220.1083 H   0  0  0  0  0  0  0  0  0  0  0  0
  138.2566   74.2729  220.7353 H   0  0  0  0  0  0  0  0  0  0  0  0
  139.7963   74.9537  218.6508 H   0  0  0  0  0  0  0  0  0  0  0  0
  139.1285   76.5569  218.3870 H   0  0  0  0  0  0  0  0  0  0  0  0
  141.3411   75.7530  217.0563 H   0  0  0  0  0  0  0  0  0  0  0  0
  141.2259   77.4502  217.6684 H   0  0  0  0  0  0  0  0  0  0  0  0
  142.5146   75.1533  219.1649 H   0  0  0  0  0  0  0  0  0  0  0  0
  143.3883   76.3685  218.1340 H   0  0  0  0  0  0  0  0  0  0  0  0
  143.0469   76.6426  220.8127 H   0  0  0  0  0  0  0  0  0  0  0  0
  143.2055   78.0167  219.6914 H   0  0  0  0  0  0  0  0  0  0  0  0
  140.7093   78.3001  219.5901 H   0  0  0  0  0  0  0  0  0  0  0  0
  143.1727   78.3190  221.9155 H   0  0  0  0  0  0  0  0  0  0  0  0
  143.0533   79.6219  223.9782 H   0  0  0  0  0  0  0  0  0  0  0  0
  140.8569   80.4402  224.8276 H   0  0  0  0  0  0  0  0  0  0  0  0
  138.9337   78.5815  221.4336 H   0  0  0  0  0  0  0  0  0  0  0  0
  138.7960   69.3522  222.4323 H   0  0  0  0  0  0  0  0  0  0  0  0
  139.0598   68.0673  224.5392 H   0  0  0  0  0  0  0  0  0  0  0  0
  139.7685   67.9207  226.8458 H   0  0  0  0  0  0  0  0  0  0  0  0
  141.5261   71.3432  228.7427 H   0  0  0  0  0  0  0  0  0  0  0  0
  141.2582   72.6153  226.6330 H   0  0  0  0  0  0  0  0  0  0  0  0
  1  2  2  0
  2  3  1  0
  3  4  1  0
  4  5  1  0
  5  6  2  0
  5  7  1  0
  7  8  1  0
  8  9  1  0
  9 10  1  0
 10 11  1  0
 11 12  1  0
 12 13  1  0
 13 14  2  0
 14 15  1  0
 15 16  2  0
 16 17  1  0
 17 18  1  0
 17 19  2  0
  2 20  1  0
 20 21  2  0
 21 22  1  0
 22 23  2  0
 23 24  1  0
 24 25  2  0
 25 26  1  0
 25 27  1  0
 27 28  2  0
 28 29  1  0
 29 30  2  0
 12  7  1  0
 19 13  1  0
 30 20  1  0
 29 23  1  0
  3 31  1  0
  4 32  1  0
  4 33  1  0
  8 34  1  0
  8 35  1  0
  9 36  1  0
  9 37  1  0
 10 38  1  0
 10 39  1  0
 11 40  1  0
 11 41  1  0
 12 42  1  6
 14 43  1  0
 15 44  1  0
 16 45  1  0
 19 46  1  0
 21 47  1  0
 22 48  1  0
 24 49  1  0
 27 50  1  0
 28 51  1  0
M  END
>  <smiles>  (19) 
O=C(NCC(=O)N1CCCCC1c1cccc(Cl)c1)c1ccc2cc(F)ccc2n1

>  <score_type>  (19) 
oracle

>  <origin>  (19) 
autodockgpu

>  <m_score__min__energy>  (19) 
-9.3399999999999999

>  <m_primary>  (19) 
energy

>  <rmsd>  (19) 
1.332432316536333

>  <m_score__min__rmsd>  (19) 
1.332432316536333

>  <meeko>  (19) 
{"free_energy": -8.54, "intermolecular_energy": -10.04, "internal_energy": -2.01, "cluster_size": 18, "cluster_id": 1, "rank_in_cluster": 14}

>  <energy>  (19) 
-9.08

>  <cluster_rmsd>  (19) 
0.0

>  <cluster>  (19) 
2

$$$$

     RDKit          3D

 51 54  0  0  0  0  0  0  0  0999 V2000
  140.7310   71.8170  221.0290 O   0  0  0  0  0  0  0  0  0  0  0  0
  140.2930   72.3150  222.1170 C   0  0  0  0  0  0  0  0  0  0  0  0
  139.9400   73.7110  222.1970 N   0  0  0  0  0  0  0  0  0  0  0  0
  140.0850   74.5730  221.0140 C   0  0  0  0  0  0  0  0  0  0  0  0
  140.9850   75.6910  221.2910 C   0  0  0  0  0  0  0  0  0  0  0  0
  141.0070   76.0810  222.5290 O   0  0  0  0  0  0  0  0  0  0  0  0
  141.8160   76.4020  220.4330 N   0  0  0  0  0  0  0  0  0  0  0  0
  141.5290   77.8720  220.3520 C   0  0  0  0  0  0  0  0  0  0  0  0
  141.6920   78.1970  218.8610 C   0  0  0  0  0  0  0  0  0  0  0  0
  141.2950   77.0290  218.0110 C   0  0  0  0  0  0  0  0  0  0  0  0
  142.2280   75.8520  218.1830 C   0  0  0  0  0  0  0  0  0  0  0  0
  142.8720   75.9770  219.5730 C   0  0  2  0  0  0  0  0  0  0  0  0
  143.6430   74.8020  219.9200 C   0  0  0  0  0  0  0  0  0  0  0  0
  144.8960   74.8490  220.4870 C   0  0  0  0  0  0  0  0  0  0  0  0
  145.6330   73.7340  220.8160 C   0  0  0  0  0  0  0  0  0  0  0  0
  145.1300   72.4740  220.5820 C   0  0  0  0  0  0  0  0  0  0  0  0
  143.8800   72.3860  220.0170 C   0  0  0  0  0  0  0  0  0  0  0  0
  143.2450   70.7780  219.7220 Cl  0  0  0  0  0  0  0  0  0  0  0  0
  143.1330   73.5200  219.6830 C   0  0  0  0  0  0  0  0  0  0  0  0
  140.1360   71.4830  223.3170 C   0  0  0  0  0  0  0  0  0  0  0  0
  139.5110   70.2600  223.1880 C   0  0  0  0  0  0  0  0  0  0  0  0
  139.3780   69.5010  224.3330 C   0  0  0  0  0  0  0  0  0  0  0  0
  139.8390   69.9200  225.5640 C   0  0  0  0  0  0  0  0  0  0  0  0
  139.7040   69.1610  226.6980 C   0  0  0  0  0  0  0  0  0  0  0  0
  140.1720   69.6010  227.9260 C   0  0  0  0  0  0  0  0  0  0  0  0
  140.0330   68.8430  229.0380 F   0  0  0  0  0  0  0  0  0  0  0  0
  140.7880   70.8330  227.9940 C   0  0  0  0  0  0  0  0  0  0  0  0
  140.9240   71.5990  226.8440 C   0  0  0  0  0  0  0  0  0  0  0  0
  140.4520   71.1550  225.6160 C   0  0  0  0  0  0  0  0  0  0  0  0
  140.5840   71.8900  224.5180 N   0  0  0  0  0  0  0  0  0  0  0  0
  139.5910   74.0540  223.1100 H   0  0  0  0  0  0  0  0  0  0  0  0
  140.4936   73.9789  220.1833 H   0  0  0  0  0  0  0  0  0  0  0  0
  139.0961   74.9750  220.7485 H   0  0  0  0  0  0  0  0  0  0  0  0
  140.5055   78.0904  220.6908 H   0  0  0  0  0  0  0  0  0  0  0  0
  142.1938   78.4704  220.9923 H   0  0  0  0  0  0  0  0  0  0  0  0
  141.0559   79.0583  218.6088 H   0  0  0  0  0  0  0  0  0  0  0  0
  142.7494   78.4292  218.6662 H   0  0  0  0  0  0  0  0  0  0  0  0
  140.2775   76.7178  218.2901 H   0  0  0  0  0  0  0  0  0  0  0  0
  141.3432   77.3462  216.9588 H   0  0  0  0  0  0  0  0  0  0  0  0
  141.6630   74.9107  218.1134 H   0  0  0  0  0  0  0  0  0  0  0  0
  142.9974   75.8474  217.3969 H   0  0  0  0  0  0  0  0  0  0  0  0
  143.6675   76.7326  219.6515 H   0  0  0  0  0  0  0  0  0  0  0  0
  145.3350   75.8371  220.6895 H   0  0  0  0  0  0  0  0  0  0  0  0
  146.6290   73.8503  221.2682 H   0  0  0  0  0  0  0  0  0  0  0  0
  145.7062   71.5724  220.8373 H   0  0  0  0  0  0  0  0  0  0  0  0
  142.1371   73.4038  219.2306 H   0  0  0  0  0  0  0  0  0  0  0  0
  139.1356   69.9058  222.2166 H   0  0  0  0  0  0  0  0  0  0  0  0
  138.8837   68.5209  224.2611 H   0  0  0  0  0  0  0  0  0  0  0  0
  139.2124   68.1792  226.6314 H   0  0  0  0  0  0  0  0  0  0  0  0
  141.1700   71.2072  228.9553 H   0  0  0  0  0  0  0  0  0  0  0  0
  141.4171   72.5803  226.9072 H   0  0  0  0  0  0  0  0  0  0  0  0
  1  2  2  0
  2  3  1  0
  3  4  1  0
  4  5  1  0
  5  6  2  0
  5  7  1  0
  7  8  1  0
  8  9  1  0
  9 10  1  0
 10 11  1  0
 11 12  1  0
 12 13  1  0
 13 14  2  0
 14 15  1  0
 15 16  2  0
 16 17  1  0
 17 18  1  0
 17 19  2  0
  2 20  1  0
 20 21  2  0
 21 22  1  0
 22 23  2  0
 23 24  1  0
 24 25  2  0
 25 26  1  0
 25 27  1  0
 27 28  2  0
 28 29  1  0
 29 30  2  0
 12  7  1  0
 19 13  1  0
 30 20  1  0
 29 23  1  0
  3 31  1  0
  4 32  1  0
  4 33  1  0
  8 34  1  0
  8 35  1  0
  9 36  1  0
  9 37  1  0
 10 38  1  0
 10 39  1  0
 11 40  1  0
 11 41  1  0
 12 42  1  6
 14 43  1  0
 15 44  1  0
 16 45  1  0
 19 46  1  0
 21 47  1  0
 22 48  1  0
 24 49  1  0
 27 50  1  0
 28 51  1  0
M  END
>  <smiles>  (20) 
O=C(NCC(=O)N1CCCCC1c1cccc(Cl)c1)c1ccc2cc(F)ccc2n1

>  <score_type>  (20) 
oracle

>  <origin>  (20) 
autodockgpu

>  <m_score__min__energy>  (20) 
-9.3399999999999999

>  <m_primary>  (20) 
energy

>  <rmsd>  (20) 
2.249313977473556

>  <m_score__min__rmsd>  (20) 
2.249313977473556

>  <meeko>  (20) 
{"free_energy": -8.66, "intermolecular_energy": -10.15, "internal_energy": -2.15, "cluster_size": 24, "cluster_id": 2, "rank_in_cluster": 17}

>  <energy>  (20) 
-9.01

>  <cluster_rmsd>  (20) 
0.3

>  <cluster>  (20) 
2

$$$$

     RDKit          3D

 51 54  0  0  0  0  0  0  0  0999 V2000
  140.7490   72.1080  221.2510 O   0  0  0  0  0  0  0  0  0  0  0  0
  139.9610   72.3230  222.2300 C   0  0  0  0  0  0  0  0  0  0  0  0
  139.0260   73.4200  222.1920 N   0  0  0  0  0  0  0  0  0  0  0  0
  138.9760   74.3020  221.0160 C   0  0  0  0  0  0  0  0  0  0  0  0
  139.9130   75.4150  221.1590 C   0  0  0  0  0  0  0  0  0  0  0  0
  140.3360   75.6210  222.3680 O   0  0  0  0  0  0  0  0  0  0  0  0
  140.4160   76.2870  220.2000 N   0  0  0  0  0  0  0  0  0  0  0  0
  140.1160   75.9060  218.7810 C   0  0  0  0  0  0  0  0  0  0  0  0
  141.4180   76.2190  218.0330 C   0  0  0  0  0  0  0  0  0  0  0  0
  142.6090   76.0120  218.9180 C   0  0  0  0  0  0  0  0  0  0  0  0
  142.6530   77.0010  220.0610 C   0  0  0  0  0  0  0  0  0  0  0  0
  141.2110   77.4650  220.3200 C   0  0  2  0  0  0  0  0  0  0  0  0
  141.1110   78.2740  221.5170 C   0  0  0  0  0  0  0  0  0  0  0  0
  142.1940   78.6560  222.2750 C   0  0  0  0  0  0  0  0  0  0  0  0
  142.1020   79.4230  223.4150 C   0  0  0  0  0  0  0  0  0  0  0  0
  140.8750   79.8580  223.8630 C   0  0  0  0  0  0  0  0  0  0  0  0
  139.7690   79.4970  223.1310 C   0  0  0  0  0  0  0  0  0  0  0  0
  138.2090   80.0560  223.7080 Cl  0  0  0  0  0  0  0  0  0  0  0  0
  139.8640   78.7180  221.9740 C   0  0  0  0  0  0  0  0  0  0  0  0
  139.9850   71.4620  223.4200 C   0  0  0  0  0  0  0  0  0  0  0  0
  139.4750   70.1860  223.3140 C   0  0  0  0  0  0  0  0  0  0  0  0
  139.5110   69.4010  224.4490 C   0  0  0  0  0  0  0  0  0  0  0  0
  140.0260   69.8460  225.6470 C   0  0  0  0  0  0  0  0  0  0  0  0
  140.0590   69.0620  226.7720 C   0  0  0  0  0  0  0  0  0  0  0  0
  140.5800   69.5290  227.9690 C   0  0  0  0  0  0  0  0  0  0  0  0
  140.6070   68.7450  229.0700 F   0  0  0  0  0  0  0  0  0  0  0  0
  141.0760   70.8150  228.0140 C   0  0  0  0  0  0  0  0  0  0  0  0
  141.0410   71.6070  226.8740 C   0  0  0  0  0  0  0  0  0  0  0  0
  140.5180   71.1350  225.6780 C   0  0  0  0  0  0  0  0  0  0  0  0
  140.4870   71.8960  224.5900 N   0  0  0  0  0  0  0  0  0  0  0  0
  138.4150   73.5420  223.0190 H   0  0  0  0  0  0  0  0  0  0  0  0
  139.2397   73.7221  220.1193 H   0  0  0  0  0  0  0  0  0  0  0  0
  137.9581   74.7088  220.9246 H   0  0  0  0  0  0  0  0  0  0  0  0
  139.8690   74.8367  218.7066 H   0  0  0  0  0  0  0  0  0  0  0  0
  139.2500   76.4459  218.3704 H   0  0  0  0  0  0  0  0  0  0  0  0
  141.4994   75.5555  217.1594 H   0  0  0  0  0  0  0  0  0  0  0  0
  141.3956   77.2722  217.7164 H   0  0  0  0  0  0  0  0  0  0  0  0
  142.5691   74.9938  219.3324 H   0  0  0  0  0  0  0  0  0  0  0  0
  143.5119   76.1622  218.3079 H   0  0  0  0  0  0  0  0  0  0  0  0
  143.0604   76.5178  220.9613 H   0  0  0  0  0  0  0  0  0  0  0  0
  143.2982   77.8562  219.8113 H   0  0  0  0  0  0  0  0  0  0  0  0
  140.8151   78.1878  219.5914 H   0  0  0  0  0  0  0  0  0  0  0  0
  143.1931   78.3291  221.9509 H   0  0  0  0  0  0  0  0  0  0  0  0
  143.0133   79.6894  223.9704 H   0  0  0  0  0  0  0  0  0  0  0  0
  140.7833   80.4709  224.7718 H   0  0  0  0  0  0  0  0  0  0  0  0
  138.9526   78.4519  221.4186 H   0  0  0  0  0  0  0  0  0  0  0  0
  139.0582   69.8101  222.3679 H   0  0  0  0  0  0  0  0  0  0  0  0
  139.1118   68.3774  224.3947 H   0  0  0  0  0  0  0  0  0  0  0  0
  139.6622   68.0372  226.7233 H   0  0  0  0  0  0  0  0  0  0  0  0
  141.4977   71.2118  228.9493 H   0  0  0  0  0  0  0  0  0  0  0  0
  141.4369   72.6323  226.9197 H   0  0  0  0  0  0  0  0  0  0  0  0
  1  2  2  0
  2  3  1  0
  3  4  1  0
  4  5  1  0
  5  6  2  0
  5  7  1  0
  7  8  1  0
  8  9  1  0
  9 10  1  0
 10 11  1  0
 11 12  1  0
 12 13  1  0
 13 14  2  0
 14 15  1  0
 15 16  2  0
 16 17  1  0
 17 18  1  0
 17 19  2  0
  2 20  1  0
 20 21  2  0
 21 22  1  0
 22 23  2  0
 23 24  1  0
 24 25  2  0
 25 26  1  0
 25 27  1  0
 27 28  2  0
 28 29  1  0
 29 30  2  0
 12  7  1  0
 19 13  1  0
 30 20  1  0
 29 23  1  0
  3 31  1  0
  4 32  1  0
  4 33  1  0
  8 34  1  0
  8 35  1  0
  9 36  1  0
  9 37  1  0
 10 38  1  0
 10 39  1  0
 11 40  1  0
 11 41  1  0
 12 42  1  6
 14 43  1  0
 15 44  1  0
 16 45  1  0
 19 46  1  0
 21 47  1  0
 22 48  1  0
 24 49  1  0
 27 50  1  0
 28 51  1  0
M  END
>  <smiles>  (21) 
O=C(NCC(=O)N1CCCCC1c1cccc(Cl)c1)c1ccc2cc(F)ccc2n1

>  <score_type>  (21) 
oracle

>  <origin>  (21) 
autodockgpu

>  <m_score__min__energy>  (21) 
-9.3399999999999999

>  <m_primary>  (21) 
energy

>  <rmsd>  (21) 
1.4207755986762827

>  <m_score__min__rmsd>  (21) 
1.4207755986762827

>  <meeko>  (21) 
{"free_energy": -8.81, "intermolecular_energy": -10.3, "internal_energy": -1.53, "cluster_size": 18, "cluster_id": 1, "rank_in_cluster": 9}

>  <energy>  (21) 
-9.01

>  <cluster_rmsd>  (21) 
0.29

>  <cluster>  (21) 
2

$$$$

     RDKit          3D

 51 54  0  0  0  0  0  0  0  0999 V2000
  140.7250   77.4730  218.1290 O   0  0  0  0  0  0  0  0  0  0  0  0
  141.8260   77.3340  218.7560 C   0  0  0  0  0  0  0  0  0  0  0  0
  142.4070   78.4430  219.4720 N   0  0  0  0  0  0  0  0  0  0  0  0
  141.7270   79.7470  219.4830 C   0  0  0  0  0  0  0  0  0  0  0  0
  140.5910   79.7340  220.4020 C   0  0  0  0  0  0  0  0  0  0  0  0
  139.4300   79.6180  219.8330 O   0  0  0  0  0  0  0  0  0  0  0  0
  140.5620   79.8290  221.7880 N   0  0  0  0  0  0  0  0  0  0  0  0
  140.6000   81.2290  222.3250 C   0  0  0  0  0  0  0  0  0  0  0  0
  141.5340   81.1330  223.5370 C   0  0  0  0  0  0  0  0  0  0  0  0
  142.5900   80.0930  223.3200 C   0  0  0  0  0  0  0  0  0  0  0  0
  142.0130   78.6970  223.2540 C   0  0  0  0  0  0  0  0  0  0  0  0
  140.5490   78.8280  222.8040 C   0  0  2  0  0  0  0  0  0  0  0  0
  139.9520   77.5390  222.5260 C   0  0  0  0  0  0  0  0  0  0  0  0
  138.6110   77.2690  222.6760 C   0  0  0  0  0  0  0  0  0  0  0  0
  138.0390   76.0430  222.4140 C   0  0  0  0  0  0  0  0  0  0  0  0
  138.8150   74.9940  221.9750 C   0  0  0  0  0  0  0  0  0  0  0  0
  140.1610   75.2260  221.8120 C   0  0  0  0  0  0  0  0  0  0  0  0
  141.1420   73.8850  221.2520 Cl  0  0  0  0  0  0  0  0  0  0  0  0
  140.7380   76.4710  222.0790 C   0  0  0  0  0  0  0  0  0  0  0  0
  142.5310   76.0460  218.7660 C   0  0  0  0  0  0  0  0  0  0  0  0
  142.1330   75.0770  217.8690 C   0  0  0  0  0  0  0  0  0  0  0  0
  142.8140   73.8760  217.9020 C   0  0  0  0  0  0  0  0  0  0  0  0
  143.8480   73.6290  218.7800 C   0  0  0  0  0  0  0  0  0  0  0  0
  144.5210   72.4350  218.8090 C   0  0  0  0  0  0  0  0  0  0  0  0
  145.5570   72.2050  219.7010 C   0  0  0  0  0  0  0  0  0  0  0  0
  146.2130   71.0230  219.7180 F   0  0  0  0  0  0  0  0  0  0  0  0
  145.9100   73.2120  220.5740 C   0  0  0  0  0  0  0  0  0  0  0  0
  145.2270   74.4210  220.5430 C   0  0  0  0  0  0  0  0  0  0  0  0
  144.1890   74.6460  219.6490 C   0  0  0  0  0  0  0  0  0  0  0  0
  143.5390   75.8030  219.6220 N   0  0  0  0  0  0  0  0  0  0  0  0
  143.3030   78.2650  219.9600 H   0  0  0  0  0  0  0  0  0  0  0  0
  142.4394   80.5222  219.8017 H   0  0  0  0  0  0  0  0  0  0  0  0
  141.3569   79.9594  218.4691 H   0  0  0  0  0  0  0  0  0  0  0  0
  141.0026   81.9253  221.5746 H   0  0  0  0  0  0  0  0  0  0  0  0
  139.6021   81.6103  222.5872 H   0  0  0  0  0  0  0  0  0  0  0  0
  142.0171   82.1082  223.6970 H   0  0  0  0  0  0  0  0  0  0  0  0
  140.9381   80.8491  224.4170 H   0  0  0  0  0  0  0  0  0  0  0  0
  143.1085   80.3069  222.3738 H   0  0  0  0  0  0  0  0  0  0  0  0
  143.2822   80.1318  224.1740 H   0  0  0  0  0  0  0  0  0  0  0  0
  142.5766   78.0907  222.5296 H   0  0  0  0  0  0  0  0  0  0  0  0
  142.0761   78.2029  224.2347 H   0  0  0  0  0  0  0  0  0  0  0  0
  139.8519   79.1758  223.5806 H   0  0  0  0  0  0  0  0  0  0  0  0
  137.9563   78.0807  223.0261 H   0  0  0  0  0  0  0  0  0  0  0  0
  136.9574   75.9019  222.5563 H   0  0  0  0  0  0  0  0  0  0  0  0
  138.3755   74.0082  221.7628 H   0  0  0  0  0  0  0  0  0  0  0  0
  141.8195   76.6124  221.9364 H   0  0  0  0  0  0  0  0  0  0  0  0
  141.3108   75.2527  217.1597 H   0  0  0  0  0  0  0  0  0  0  0  0
  142.5192   73.0834  217.1985 H   0  0  0  0  0  0  0  0  0  0  0  0
  144.2316   71.6393  218.1067 H   0  0  0  0  0  0  0  0  0  0  0  0
  146.7291   73.0586  221.2920 H   0  0  0  0  0  0  0  0  0  0  0  0
  145.5153   75.2189  221.2432 H   0  0  0  0  0  0  0  0  0  0  0  0
  1  2  2  0
  2  3  1  0
  3  4  1  0
  4  5  1  0
  5  6  2  0
  5  7  1  0
  7  8  1  0
  8  9  1  0
  9 10  1  0
 10 11  1  0
 11 12  1  0
 12 13  1  0
 13 14  2  0
 14 15  1  0
 15 16  2  0
 16 17  1  0
 17 18  1  0
 17 19  2  0
  2 20  1  0
 20 21  2  0
 21 22  1  0
 22 23  2  0
 23 24  1  0
 24 25  2  0
 25 26  1  0
 25 27  1  0
 27 28  2  0
 28 29  1  0
 29 30  2  0
 12  7  1  0
 19 13  1  0
 30 20  1  0
 29 23  1  0
  3 31  1  0
  4 32  1  0
  4 33  1  0
  8 34  1  0
  8 35  1  0
  9 36  1  0
  9 37  1  0
 10 38  1  0
 10 39  1  0
 11 40  1  0
 11 41  1  0
 12 42  1  1
 14 43  1  0
 15 44  1  0
 16 45  1  0
 19 46  1  0
 21 47  1  0
 22 48  1  0
 24 49  1  0
 27 50  1  0
 28 51  1  0
M  END
>  <smiles>  (22) 
O=C(NCC(=O)N1CCCCC1c1cccc(Cl)c1)c1ccc2cc(F)ccc2n1

>  <score_type>  (22) 
oracle

>  <origin>  (22) 
autodockgpu

>  <m_score__min__energy>  (22) 
-9.3399999999999999

>  <m_primary>  (22) 
energy

>  <rmsd>  (22) 
7.8538939825659035

>  <m_score__min__rmsd>  (22) 
7.8538939825659035

>  <meeko>  (22) 
{"free_energy": -7.13, "intermolecular_energy": -8.63, "internal_energy": -2.88, "cluster_size": 3, "cluster_id": 5, "rank_in_cluster": 1}

>  <energy>  (22) 
-8.98

>  <cluster_rmsd>  (22) 
0.26

>  <cluster>  (22) 
2

$$$$

     RDKit          3D

 51 54  0  0  0  0  0  0  0  0999 V2000
  138.8120   71.1210  221.1930 O   0  0  0  0  0  0  0  0  0  0  0  0
  139.2060   71.6450  222.2850 C   0  0  0  0  0  0  0  0  0  0  0  0
  139.4570   73.0630  222.3710 N   0  0  0  0  0  0  0  0  0  0  0  0
  139.2570   73.9160  221.1890 C   0  0  0  0  0  0  0  0  0  0  0  0
  140.1730   75.0550  221.2090 C   0  0  0  0  0  0  0  0  0  0  0  0
  140.8110   75.2240  222.3260 O   0  0  0  0  0  0  0  0  0  0  0  0
  140.4610   75.9860  220.2170 N   0  0  0  0  0  0  0  0  0  0  0  0
  140.1870   75.5220  218.8180 C   0  0  0  0  0  0  0  0  0  0  0  0
  141.3740   76.0630  218.0120 C   0  0  0  0  0  0  0  0  0  0  0  0
  142.6150   76.1090  218.8490 C   0  0  0  0  0  0  0  0  0  0  0  0
  142.5110   77.1140  219.9740 C   0  0  0  0  0  0  0  0  0  0  0  0
  141.0170   77.2980  220.2860 C   0  0  2  0  0  0  0  0  0  0  0  0
  140.8070   78.0990  221.4730 C   0  0  0  0  0  0  0  0  0  0  0  0
  139.6060   78.1790  222.1400 C   0  0  0  0  0  0  0  0  0  0  0  0
  139.4020   78.9420  223.2680 C   0  0  0  0  0  0  0  0  0  0  0  0
  140.4310   79.6860  223.7990 C   0  0  0  0  0  0  0  0  0  0  0  0
  141.6480   79.6320  223.1610 C   0  0  0  0  0  0  0  0  0  0  0  0
  142.9540   80.5820  223.8430 Cl  0  0  0  0  0  0  0  0  0  0  0  0
  141.8520   78.8570  222.0150 C   0  0  0  0  0  0  0  0  0  0  0  0
  139.4160   70.8220  223.4840 C   0  0  0  0  0  0  0  0  0  0  0  0
  139.0040   69.5070  223.4540 C   0  0  0  0  0  0  0  0  0  0  0  0
  139.2140   68.7590  224.5950 C   0  0  0  0  0  0  0  0  0  0  0  0
  139.8060   69.2770  225.7270 C   0  0  0  0  0  0  0  0  0  0  0  0
  140.0130   68.5290  226.8580 C   0  0  0  0  0  0  0  0  0  0  0  0
  140.6080   69.0690  227.9880 C   0  0  0  0  0  0  0  0  0  0  0  0
  140.8070   68.3200  229.0960 F   0  0  0  0  0  0  0  0  0  0  0  0
  140.9990   70.3910  227.9590 C   0  0  0  0  0  0  0  0  0  0  0  0
  140.7900   71.1450  226.8120 C   0  0  0  0  0  0  0  0  0  0  0  0
  140.1920   70.6010  225.6840 C   0  0  0  0  0  0  0  0  0  0  0  0
  139.9930   71.3260  224.5890 N   0  0  0  0  0  0  0  0  0  0  0  0
  139.7760   73.4270  223.2860 H   0  0  0  0  0  0  0  0  0  0  0  0
  139.4396   73.3225  220.2810 H   0  0  0  0  0  0  0  0  0  0  0  0
  138.2242   74.2944  221.1983 H   0  0  0  0  0  0  0  0  0  0  0  0
  140.1492   74.4237  218.7701 H   0  0  0  0  0  0  0  0  0  0  0  0
  139.2179   75.8751  218.4357 H   0  0  0  0  0  0  0  0  0  0  0  0
  141.5486   75.4083  217.1455 H   0  0  0  0  0  0  0  0  0  0  0  0
  141.1363   77.0849  217.6814 H   0  0  0  0  0  0  0  0  0  0  0  0
  142.7881   75.1119  219.2801 H   0  0  0  0  0  0  0  0  0  0  0  0
  143.4481   76.4157  218.1994 H   0  0  0  0  0  0  0  0  0  0  0  0
  143.0379   76.7389  220.8637 H   0  0  0  0  0  0  0  0  0  0  0  0
  142.9692   78.0713  219.6846 H   0  0  0  0  0  0  0  0  0  0  0  0
  140.4622   77.9149  219.5638 H   0  0  0  0  0  0  0  0  0  0  0  0
  138.7577   77.5984  221.7484 H   0  0  0  0  0  0  0  0  0  0  0  0
  138.4119   78.9570  223.7470 H   0  0  0  0  0  0  0  0  0  0  0  0
  140.2854   80.3005  224.6996 H   0  0  0  0  0  0  0  0  0  0  0  0
  142.8418   78.8428  221.5353 H   0  0  0  0  0  0  0  0  0  0  0  0
  138.5294   69.0733  222.5614 H   0  0  0  0  0  0  0  0  0  0  0  0
  138.8958   67.7061  224.6012 H   0  0  0  0  0  0  0  0  0  0  0  0
  139.6992   67.4748  226.8688 H   0  0  0  0  0  0  0  0  0  0  0  0
  141.4743   70.8461  228.8405 H   0  0  0  0  0  0  0  0  0  0  0  0
  141.1059   72.1986  226.7970 H   0  0  0  0  0  0  0  0  0  0  0  0
  1  2  2  0
  2  3  1  0
  3  4  1  0
  4  5  1  0
  5  6  2  0
  5  7  1  0
  7  8  1  0
  8  9  1  0
  9 10  1  0
 10 11  1  0
 11 12  1  0
 12 13  1  0
 13 14  2  0
 14 15  1  0
 15 16  2  0
 16 17  1  0
 17 18  1  0
 17 19  2  0
  2 20  1  0
 20 21  2  0
 21 22  1  0
 22 23  2  0
 23 24  1  0
 24 25  2  0
 25 26  1  0
 25 27  1  0
 27 28  2  0
 28 29  1  0
 29 30  2  0
 12  7  1  0
 19 13  1  0
 30 20  1  0
 29 23  1  0
  3 31  1  0
  4 32  1  0
  4 33  1  0
  8 34  1  0
  8 35  1  0
  9 36  1  0
  9 37  1  0
 10 38  1  0
 10 39  1  0
 11 40  1  0
 11 41  1  0
 12 42  1  6
 14 43  1  0
 15 44  1  0
 16 45  1  0
 19 46  1  0
 21 47  1  0
 22 48  1  0
 24 49  1  0
 27 50  1  0
 28 51  1  0
M  END
>  <smiles>  (23) 
O=C(NCC(=O)N1CCCCC1c1cccc(Cl)c1)c1ccc2cc(F)ccc2n1

>  <score_type>  (23) 
oracle

>  <origin>  (23) 
autodockgpu

>  <m_score__min__energy>  (23) 
-9.3399999999999999

>  <m_primary>  (23) 
energy

>  <rmsd>  (23) 
1.2238490766450263

>  <m_score__min__rmsd>  (23) 
1.2238490766450263

>  <meeko>  (23) 
{"free_energy": -8.91, "intermolecular_energy": -10.4, "internal_energy": -2.12, "cluster_size": 18, "cluster_id": 1, "rank_in_cluster": 6}

>  <energy>  (23) 
-8.97

>  <cluster_rmsd>  (23) 
0.24

>  <cluster>  (23) 
2

$$$$

     RDKit          3D

 51 54  0  0  0  0  0  0  0  0999 V2000
  140.6630   71.4840  220.9850 O   0  0  0  0  0  0  0  0  0  0  0  0
  140.3190   72.0530  222.0730 C   0  0  0  0  0  0  0  0  0  0  0  0
  140.1200   73.4800  222.1240 N   0  0  0  0  0  0  0  0  0  0  0  0
  140.3120   74.2920  220.9120 C   0  0  0  0  0  0  0  0  0  0  0  0
  140.9850   75.5500  221.2300 C   0  0  0  0  0  0  0  0  0  0  0  0
  140.7550   76.0070  222.4230 O   0  0  0  0  0  0  0  0  0  0  0  0
  141.8290   76.3330  220.4500 N   0  0  0  0  0  0  0  0  0  0  0  0
  141.5020   77.7970  220.4420 C   0  0  0  0  0  0  0  0  0  0  0  0
  141.7160   78.2130  218.9810 C   0  0  0  0  0  0  0  0  0  0  0  0
  141.3890   77.0870  218.0490 C   0  0  0  0  0  0  0  0  0  0  0  0
  142.3480   75.9280  218.1910 C   0  0  0  0  0  0  0  0  0  0  0  0
  142.9310   75.9880  219.6130 C   0  0  2  0  0  0  0  0  0  0  0  0
  143.7220   74.8160  219.9230 C   0  0  0  0  0  0  0  0  0  0  0  0
  144.9860   74.8680  220.4650 C   0  0  0  0  0  0  0  0  0  0  0  0
  145.7420   73.7550  220.7600 C   0  0  0  0  0  0  0  0  0  0  0  0
  145.2480   72.4940  220.5150 C   0  0  0  0  0  0  0  0  0  0  0  0
  143.9870   72.4020  219.9730 C   0  0  0  0  0  0  0  0  0  0  0  0
  143.3640   70.7920  219.6640 Cl  0  0  0  0  0  0  0  0  0  0  0  0
  143.2210   73.5330  219.6750 C   0  0  0  0  0  0  0  0  0  0  0  0
  140.1190   71.2720  223.3000 C   0  0  0  0  0  0  0  0  0  0  0  0
  139.4770   70.0560  223.2040 C   0  0  0  0  0  0  0  0  0  0  0  0
  139.3030   69.3450  224.3750 C   0  0  0  0  0  0  0  0  0  0  0  0
  139.7390   69.8060  225.5990 C   0  0  0  0  0  0  0  0  0  0  0  0
  139.5640   69.0960  226.7590 C   0  0  0  0  0  0  0  0  0  0  0  0
  140.0090   69.5780  227.9800 C   0  0  0  0  0  0  0  0  0  0  0  0
  139.8300   68.8670  229.1170 F   0  0  0  0  0  0  0  0  0  0  0  0
  140.6440   70.8010  228.0140 C   0  0  0  0  0  0  0  0  0  0  0  0
  140.8210   71.5180  226.8380 C   0  0  0  0  0  0  0  0  0  0  0  0
  140.3720   71.0320  225.6180 C   0  0  0  0  0  0  0  0  0  0  0  0
  140.5440   71.7210  224.4950 N   0  0  0  0  0  0  0  0  0  0  0  0
  139.8420   73.8810  223.0370 H   0  0  0  0  0  0  0  0  0  0  0  0
  140.9240   73.7275  220.1932 H   0  0  0  0  0  0  0  0  0  0  0  0
  139.3260   74.5194  220.4807 H   0  0  0  0  0  0  0  0  0  0  0  0
  140.4595   77.9672  220.7490 H   0  0  0  0  0  0  0  0  0  0  0  0
  142.1219   78.3747  221.1435 H   0  0  0  0  0  0  0  0  0  0  0  0
  141.0655   79.0700  218.7520 H   0  0  0  0  0  0  0  0  0  0  0  0
  142.7732   78.4846  218.8452 H   0  0  0  0  0  0  0  0  0  0  0  0
  140.3707   76.7322  218.2664 H   0  0  0  0  0  0  0  0  0  0  0  0
  141.4709   77.4673  217.0201 H   0  0  0  0  0  0  0  0  0  0  0  0
  141.8144   74.9776  218.0428 H   0  0  0  0  0  0  0  0  0  0  0  0
  143.1485   75.9906  217.4391 H   0  0  0  0  0  0  0  0  0  0  0  0
  143.6999   76.7588  219.7699 H   0  0  0  0  0  0  0  0  0  0  0  0
  145.4183   75.8574  220.6751 H   0  0  0  0  0  0  0  0  0  0  0  0
  146.7458   73.8747  221.1936 H   0  0  0  0  0  0  0  0  0  0  0  0
  145.8386   71.5946  220.7437 H   0  0  0  0  0  0  0  0  0  0  0  0
  142.2168   73.4135  219.2423 H   0  0  0  0  0  0  0  0  0  0  0  0
  139.1194   69.6694  222.2382 H   0  0  0  0  0  0  0  0  0  0  0  0
  138.7954   68.3702  224.3293 H   0  0  0  0  0  0  0  0  0  0  0  0
  139.0581   68.1200  226.7196 H   0  0  0  0  0  0  0  0  0  0  0  0
  141.0090   71.2074  228.9688 H   0  0  0  0  0  0  0  0  0  0  0  0
  141.3286   72.4932  226.8742 H   0  0  0  0  0  0  0  0  0  0  0  0
  1  2  2  0
  2  3  1  0
  3  4  1  0
  4  5  1  0
  5  6  2  0
  5  7  1  0
  7  8  1  0
  8  9  1  0
  9 10  1  0
 10 11  1  0
 11 12  1  0
 12 13  1  0
 13 14  2  0
 14 15  1  0
 15 16  2  0
 16 17  1  0
 17 18  1  0
 17 19  2  0
  2 20  1  0
 20 21  2  0
 21 22  1  0
 22 23  2  0
 23 24  1  0
 24 25  2  0
 25 26  1  0
 25 27  1  0
 27 28  2  0
 28 29  1  0
 29 30  2  0
 12  7  1  0
 19 13  1  0
 30 20  1  0
 29 23  1  0
  3 31  1  0
  4 32  1  0
  4 33  1  0
  8 34  1  0
  8 35  1  0
  9 36  1  0
  9 37  1  0
 10 38  1  0
 10 39  1  0
 11 40  1  0
 11 41  1  0
 12 42  1  6
 14 43  1  0
 15 44  1  0
 16 45  1  0
 19 46  1  0
 21 47  1  0
 22 48  1  0
 24 49  1  0
 27 50  1  0
 28 51  1  0
M  END
>  <smiles>  (24) 
O=C(NCC(=O)N1CCCCC1c1cccc(Cl)c1)c1ccc2cc(F)ccc2n1

>  <score_type>  (24) 
oracle

>  <origin>  (24) 
autodockgpu

>  <m_score__min__energy>  (24) 
-9.3399999999999999

>  <m_primary>  (24) 
energy

>  <rmsd>  (24) 
2.2488573799516596

>  <m_score__min__rmsd>  (24) 
2.2488573799516596

>  <meeko>  (24) 
{"free_energy": -8.57, "intermolecular_energy": -10.06, "internal_energy": -2.23, "cluster_size": 24, "cluster_id": 2, "rank_in_cluster": 20}

>  <energy>  (24) 
-8.96

>  <cluster_rmsd>  (24) 
0.29

>  <cluster>  (24) 
2

$$$$

     RDKit          3D

 51 54  0  0  0  0  0  0  0  0999 V2000
  139.1800   71.0320  221.0750 O   0  0  0  0  0  0  0  0  0  0  0  0
  139.3650   71.6110  222.1960 C   0  0  0  0  0  0  0  0  0  0  0  0
  139.4360   73.0490  222.2770 N   0  0  0  0  0  0  0  0  0  0  0  0
  139.2940   73.8610  221.0590 C   0  0  0  0  0  0  0  0  0  0  0  0
  140.0770   75.0910  221.1590 C   0  0  0  0  0  0  0  0  0  0  0  0
  140.5180   75.3630  222.3490 O   0  0  0  0  0  0  0  0  0  0  0  0
  140.4170   76.0150  220.1780 N   0  0  0  0  0  0  0  0  0  0  0  0
  140.1640   75.5630  218.7700 C   0  0  0  0  0  0  0  0  0  0  0  0
  141.3870   76.0700  217.9960 C   0  0  0  0  0  0  0  0  0  0  0  0
  142.6070   76.0770  218.8640 C   0  0  0  0  0  0  0  0  0  0  0  0
  142.5050   77.0820  219.9880 C   0  0  0  0  0  0  0  0  0  0  0  0
  141.0100   77.3100  220.2640 C   0  0  2  0  0  0  0  0  0  0  0  0
  140.7950   78.1140  221.4480 C   0  0  0  0  0  0  0  0  0  0  0  0
  139.5870   78.2060  222.1010 C   0  0  0  0  0  0  0  0  0  0  0  0
  139.3780   78.9720  223.2270 C   0  0  0  0  0  0  0  0  0  0  0  0
  140.4080   79.7070  223.7680 C   0  0  0  0  0  0  0  0  0  0  0  0
  141.6310   79.6400  223.1440 C   0  0  0  0  0  0  0  0  0  0  0  0
  142.9390   80.5780  223.8400 Cl  0  0  0  0  0  0  0  0  0  0  0  0
  141.8410   78.8620  222.0010 C   0  0  0  0  0  0  0  0  0  0  0  0
  139.5100   70.8300  223.4310 C   0  0  0  0  0  0  0  0  0  0  0  0
  139.0520   69.5300  223.4410 C   0  0  0  0  0  0  0  0  0  0  0  0
  139.2030   68.8220  224.6170 C   0  0  0  0  0  0  0  0  0  0  0  0
  139.7800   69.3640  225.7450 C   0  0  0  0  0  0  0  0  0  0  0  0
  139.9270   68.6560  226.9100 C   0  0  0  0  0  0  0  0  0  0  0  0
  140.5100   69.2200  228.0350 C   0  0  0  0  0  0  0  0  0  0  0  0
  140.6490   68.5100  229.1770 F   0  0  0  0  0  0  0  0  0  0  0  0
  140.9490   70.5250  227.9650 C   0  0  0  0  0  0  0  0  0  0  0  0
  140.8000   71.2390  226.7840 C   0  0  0  0  0  0  0  0  0  0  0  0
  140.2150   70.6710  225.6610 C   0  0  0  0  0  0  0  0  0  0  0  0
  140.0730   71.3580  224.5330 N   0  0  0  0  0  0  0  0  0  0  0  0
  139.5890   73.4560  223.2170 H   0  0  0  0  0  0  0  0  0  0  0  0
  139.6464   73.2788  220.1948 H   0  0  0  0  0  0  0  0  0  0  0  0
  138.2340   74.1278  220.9356 H   0  0  0  0  0  0  0  0  0  0  0  0
  140.0942   74.4665  218.7173 H   0  0  0  0  0  0  0  0  0  0  0  0
  139.2160   75.9463  218.3647 H   0  0  0  0  0  0  0  0  0  0  0  0
  141.5640   75.4123  217.1323 H   0  0  0  0  0  0  0  0  0  0  0  0
  141.1885   77.0993  217.6627 H   0  0  0  0  0  0  0  0  0  0  0  0
  142.7391   75.0744  219.2968 H   0  0  0  0  0  0  0  0  0  0  0  0
  143.4650   76.3597  218.2364 H   0  0  0  0  0  0  0  0  0  0  0  0
  142.9986   76.6898  220.8894 H   0  0  0  0  0  0  0  0  0  0  0  0
  142.9982   78.0258  219.7122 H   0  0  0  0  0  0  0  0  0  0  0  0
  140.4918   77.9449  219.5302 H   0  0  0  0  0  0  0  0  0  0  0  0
  138.7375   77.6337  221.6999 H   0  0  0  0  0  0  0  0  0  0  0  0
  138.3832   78.9962  223.6957 H   0  0  0  0  0  0  0  0  0  0  0  0
  140.2583   80.3247  224.6658 H   0  0  0  0  0  0  0  0  0  0  0  0
  142.8361   78.8377  221.5328 H   0  0  0  0  0  0  0  0  0  0  0  0
  138.5874   69.0771  222.5527 H   0  0  0  0  0  0  0  0  0  0  0  0
  138.8478   67.7816  224.6550 H   0  0  0  0  0  0  0  0  0  0  0  0
  139.5739   67.6151  226.9534 H   0  0  0  0  0  0  0  0  0  0  0  0
  141.4155   70.9985  228.8415 H   0  0  0  0  0  0  0  0  0  0  0  0
  141.1539   72.2795  226.7371 H   0  0  0  0  0  0  0  0  0  0  0  0
  1  2  2  0
  2  3  1  0
  3  4  1  0
  4  5  1  0
  5  6  2  0
  5  7  1  0
  7  8  1  0
  8  9  1  0
  9 10  1  0
 10 11  1  0
 11 12  1  0
 12 13  1  0
 13 14  2  0
 14 15  1  0
 15 16  2  0
 16 17  1  0
 17 18  1  0
 17 19  2  0
  2 20  1  0
 20 21  2  0
 21 22  1  0
 22 23  2  0
 23 24  1  0
 24 25  2  0
 25 26  1  0
 25 27  1  0
 27 28  2  0
 28 29  1  0
 29 30  2  0
 12  7  1  0
 19 13  1  0
 30 20  1  0
 29 23  1  0
  3 31  1  0
  4 32  1  0
  4 33  1  0
  8 34  1  0
  8 35  1  0
  9 36  1  0
  9 37  1  0
 10 38  1  0
 10 39  1  0
 11 40  1  0
 11 41  1  0
 12 42  1  6
 14 43  1  0
 15 44  1  0
 16 45  1  0
 19 46  1  0
 21 47  1  0
 22 48  1  0
 24 49  1  0
 27 50  1  0
 28 51  1  0
M  END
>  <smiles>  (25) 
O=C(NCC(=O)N1CCCCC1c1cccc(Cl)c1)c1ccc2cc(F)ccc2n1

>  <score_type>  (25) 
oracle

>  <origin>  (25) 
autodockgpu

>  <m_score__min__energy>  (25) 
-9.3399999999999999

>  <m_primary>  (25) 
energy

>  <rmsd>  (25) 
1.2262586404446942

>  <m_score__min__rmsd>  (25) 
1.2262586404446942

>  <meeko>  (25) 
{"free_energy": -8.97, "intermolecular_energy": -10.46, "internal_energy": -2.04, "cluster_size": 18, "cluster_id": 1, "rank_in_cluster": 4}

>  <energy>  (25) 
-8.94

>  <cluster_rmsd>  (25) 
0.41

>  <cluster>  (25) 
2

$$$$

     RDKit          3D

 51 54  0  0  0  0  0  0  0  0999 V2000
  140.8320   71.8540  221.0780 O   0  0  0  0  0  0  0  0  0  0  0  0
  140.3440   72.3430  222.1490 C   0  0  0  0  0  0  0  0  0  0  0  0
  139.9330   73.7250  222.2050 N   0  0  0  0  0  0  0  0  0  0  0  0
  140.0770   74.5820  221.0180 C   0  0  0  0  0  0  0  0  0  0  0  0
  140.9450   75.7230  221.3020 C   0  0  0  0  0  0  0  0  0  0  0  0
  140.8820   76.1680  222.5200 O   0  0  0  0  0  0  0  0  0  0  0  0
  141.8230   76.4060  220.4680 N   0  0  0  0  0  0  0  0  0  0  0  0
  141.6670   77.8970  220.4740 C   0  0  0  0  0  0  0  0  0  0  0  0
  141.8350   78.2900  219.0010 C   0  0  0  0  0  0  0  0  0  0  0  0
  141.3240   77.2120  218.0960 C   0  0  0  0  0  0  0  0  0  0  0  0
  142.1500   75.9500  218.1830 C   0  0  0  0  0  0  0  0  0  0  0  0
  142.8240   75.9390  219.5650 C   0  0  2  0  0  0  0  0  0  0  0  0
  143.4930   74.6830  219.8310 C   0  0  0  0  0  0  0  0  0  0  0  0
  143.0770   73.4730  219.3240 C   0  0  0  0  0  0  0  0  0  0  0  0
  143.7100   72.2760  219.5760 C   0  0  0  0  0  0  0  0  0  0  0  0
  144.8280   72.2360  220.3770 C   0  0  0  0  0  0  0  0  0  0  0  0
  145.2750   73.4260  220.9010 C   0  0  0  0  0  0  0  0  0  0  0  0
  146.7020   73.3670  221.9200 Cl  0  0  0  0  0  0  0  0  0  0  0  0
  144.6310   74.6400  220.6440 C   0  0  0  0  0  0  0  0  0  0  0  0
  140.1870   71.5150  223.3520 C   0  0  0  0  0  0  0  0  0  0  0  0
  139.5480   70.2990  223.2300 C   0  0  0  0  0  0  0  0  0  0  0  0
  139.4160   69.5440  224.3780 C   0  0  0  0  0  0  0  0  0  0  0  0
  139.8900   69.9600  225.6040 C   0  0  0  0  0  0  0  0  0  0  0  0
  139.7560   69.2060  226.7410 C   0  0  0  0  0  0  0  0  0  0  0  0
  140.2390   69.6430  227.9640 C   0  0  0  0  0  0  0  0  0  0  0  0
  140.1000   68.8890  229.0780 F   0  0  0  0  0  0  0  0  0  0  0  0
  140.8690   70.8680  228.0250 C   0  0  0  0  0  0  0  0  0  0  0  0
  141.0040   71.6300  226.8720 C   0  0  0  0  0  0  0  0  0  0  0  0
  140.5180   71.1890  225.6490 C   0  0  0  0  0  0  0  0  0  0  0  0
  140.6490   71.9200  224.5480 N   0  0  0  0  0  0  0  0  0  0  0  0
  139.5460   74.0600  223.1050 H   0  0  0  0  0  0  0  0  0  0  0  0
  140.5137   73.9922  220.1986 H   0  0  0  0  0  0  0  0  0  0  0  0
  139.0834   74.9581  220.7329 H   0  0  0  0  0  0  0  0  0  0  0  0
  140.6724   78.1852  220.8452 H   0  0  0  0  0  0  0  0  0  0  0  0
  142.3923   78.3973  221.1325 H   0  0  0  0  0  0  0  0  0  0  0  0
  141.2736   79.2164  218.8096 H   0  0  0  0  0  0  0  0  0  0  0  0
  142.9058   78.4393  218.7982 H   0  0  0  0  0  0  0  0  0  0  0  0
  140.2871   76.9761  218.3774 H   0  0  0  0  0  0  0  0  0  0  0  0
  141.3855   77.5835  217.0625 H   0  0  0  0  0  0  0  0  0  0  0  0
  141.5022   75.0678  218.0731 H   0  0  0  0  0  0  0  0  0  0  0  0
  142.9034   75.9217  217.3820 H   0  0  0  0  0  0  0  0  0  0  0  0
  143.6847   76.6159  219.6693 H   0  0  0  0  0  0  0  0  0  0  0  0
  142.1859   73.4612  218.6792 H   0  0  0  0  0  0  0  0  0  0  0  0
  143.3197   71.3471  219.1346 H   0  0  0  0  0  0  0  0  0  0  0  0
  145.3444   71.2884  220.5900 H   0  0  0  0  0  0  0  0  0  0  0  0
  145.0221   75.5690  221.0845 H   0  0  0  0  0  0  0  0  0  0  0  0
  139.1613   69.9469  222.2623 H   0  0  0  0  0  0  0  0  0  0  0  0
  138.9111   68.5689  224.3119 H   0  0  0  0  0  0  0  0  0  0  0  0
  139.2525   68.2298  226.6810 H   0  0  0  0  0  0  0  0  0  0  0  0
  141.2628   71.2399  228.9824 H   0  0  0  0  0  0  0  0  0  0  0  0
  141.5080   72.6061  226.9293 H   0  0  0  0  0  0  0  0  0  0  0  0
  1  2  2  0
  2  3  1  0
  3  4  1  0
  4  5  1  0
  5  6  2  0
  5  7  1  0
  7  8  1  0
  8  9  1  0
  9 10  1  0
 10 11  1  0
 11 12  1  0
 12 13  1  0
 13 14  2  0
 14 15  1  0
 15 16  2  0
 16 17  1  0
 17 18  1  0
 17 19  2  0
  2 20  1  0
 20 21  2  0
 21 22  1  0
 22 23  2  0
 23 24  1  0
 24 25  2  0
 25 26  1  0
 25 27  1  0
 27 28  2  0
 28 29  1  0
 29 30  2  0
 12  7  1  0
 19 13  1  0
 30 20  1  0
 29 23  1  0
  3 31  1  0
  4 32  1  0
  4 33  1  0
  8 34  1  0
  8 35  1  0
  9 36  1  0
  9 37  1  0
 10 38  1  0
 10 39  1  0
 11 40  1  0
 11 41  1  0
 12 42  1  6
 14 43  1  0
 15 44  1  0
 16 45  1  0
 19 46  1  0
 21 47  1  0
 22 48  1  0
 24 49  1  0
 27 50  1  0
 28 51  1  0
M  END
>  <smiles>  (26) 
O=C(NCC(=O)N1CCCCC1c1cccc(Cl)c1)c1ccc2cc(F)ccc2n1

>  <score_type>  (26) 
oracle

>  <origin>  (26) 
autodockgpu

>  <m_score__min__energy>  (26) 
-9.3399999999999999

>  <m_primary>  (26) 
energy

>  <rmsd>  (26) 
2.3002418381902037

>  <m_score__min__rmsd>  (26) 
2.3002418381902037

>  <meeko>  (26) 
{"free_energy": -8.97, "intermolecular_energy": -10.46, "internal_energy": -2.06, "cluster_size": 24, "cluster_id": 2, "rank_in_cluster": 5}

>  <energy>  (26) 
-8.92

>  <cluster_rmsd>  (26) 
0.49

>  <cluster>  (26) 
2

$$$$

     RDKit          3D

 51 54  0  0  0  0  0  0  0  0999 V2000
  140.7210   71.8220  221.0470 O   0  0  0  0  0  0  0  0  0  0  0  0
  140.2900   72.3190  222.1390 C   0  0  0  0  0  0  0  0  0  0  0  0
  139.9170   73.7100  222.2170 N   0  0  0  0  0  0  0  0  0  0  0  0
  140.0310   74.5670  221.0280 C   0  0  0  0  0  0  0  0  0  0  0  0
  140.7990   75.7740  221.3280 C   0  0  0  0  0  0  0  0  0  0  0  0
  140.6000   76.2680  222.5120 O   0  0  0  0  0  0  0  0  0  0  0  0
  141.7050   76.4760  220.5400 N   0  0  0  0  0  0  0  0  0  0  0  0
  141.5620   77.9680  220.5910 C   0  0  0  0  0  0  0  0  0  0  0  0
  141.7720   78.4070  219.1370 C   0  0  0  0  0  0  0  0  0  0  0  0
  141.2750   77.3640  218.1840 C   0  0  0  0  0  0  0  0  0  0  0  0
  142.0880   76.0920  218.2510 C   0  0  0  0  0  0  0  0  0  0  0  0
  142.7250   76.0290  219.6490 C   0  0  2  0  0  0  0  0  0  0  0  0
  143.3750   74.7580  219.8900 C   0  0  0  0  0  0  0  0  0  0  0  0
  142.8840   73.5520  219.4490 C   0  0  0  0  0  0  0  0  0  0  0  0
  143.4990   72.3410  219.6780 C   0  0  0  0  0  0  0  0  0  0  0  0
  144.6770   72.2830  220.3860 C   0  0  0  0  0  0  0  0  0  0  0  0
  145.2010   73.4690  220.8430 C   0  0  0  0  0  0  0  0  0  0  0  0
  146.7040   73.3880  221.7440 Cl  0  0  0  0  0  0  0  0  0  0  0  0
  144.5740   74.6970  220.6090 C   0  0  0  0  0  0  0  0  0  0  0  0
  140.1640   71.4900  223.3450 C   0  0  0  0  0  0  0  0  0  0  0  0
  139.5500   70.2600  223.2330 C   0  0  0  0  0  0  0  0  0  0  0  0
  139.4460   69.5050  224.3830 C   0  0  0  0  0  0  0  0  0  0  0  0
  139.9240   69.9340  225.6030 C   0  0  0  0  0  0  0  0  0  0  0  0
  139.8180   69.1790  226.7430 C   0  0  0  0  0  0  0  0  0  0  0  0
  140.3040   69.6290  227.9610 C   0  0  0  0  0  0  0  0  0  0  0  0
  140.1930   68.8740  229.0770 F   0  0  0  0  0  0  0  0  0  0  0  0
  140.9080   70.8680  228.0120 C   0  0  0  0  0  0  0  0  0  0  0  0
  141.0150   71.6300  226.8560 C   0  0  0  0  0  0  0  0  0  0  0  0
  140.5260   71.1750  225.6390 C   0  0  0  0  0  0  0  0  0  0  0  0
  140.6300   71.9070  224.5360 N   0  0  0  0  0  0  0  0  0  0  0  0
  139.5760   74.0510  223.1330 H   0  0  0  0  0  0  0  0  0  0  0  0
  140.5373   74.0074  220.2277 H   0  0  0  0  0  0  0  0  0  0  0  0
  139.0206   74.8629  220.7093 H   0  0  0  0  0  0  0  0  0  0  0  0
  140.5606   78.2535  220.9455 H   0  0  0  0  0  0  0  0  0  0  0  0
  142.2741   78.4396  221.2842 H   0  0  0  0  0  0  0  0  0  0  0  0
  141.2242   79.3446  218.9617 H   0  0  0  0  0  0  0  0  0  0  0  0
  142.8490   78.5522  218.9670 H   0  0  0  0  0  0  0  0  0  0  0  0
  140.2292   77.1288  218.4309 H   0  0  0  0  0  0  0  0  0  0  0  0
  141.3660   77.7683  217.1651 H   0  0  0  0  0  0  0  0  0  0  0  0
  141.4360   75.2199  218.0949 H   0  0  0  0  0  0  0  0  0  0  0  0
  142.8623   76.0833  217.4697 H   0  0  0  0  0  0  0  0  0  0  0  0
  143.5887   76.6935  219.7988 H   0  0  0  0  0  0  0  0  0  0  0  0
  141.9433   73.5543  218.8789 H   0  0  0  0  0  0  0  0  0  0  0  0
  143.0459   71.4156  219.2928 H   0  0  0  0  0  0  0  0  0  0  0  0
  145.1805   71.3243  220.5791 H   0  0  0  0  0  0  0  0  0  0  0  0
  145.0271   75.6227  220.9933 H   0  0  0  0  0  0  0  0  0  0  0  0
  139.1608   69.8974  222.2702 H   0  0  0  0  0  0  0  0  0  0  0  0
  138.9613   68.5193  224.3241 H   0  0  0  0  0  0  0  0  0  0  0  0
  139.3354   68.1919  226.6897 H   0  0  0  0  0  0  0  0  0  0  0  0
  141.3033   71.2509  228.9644 H   0  0  0  0  0  0  0  0  0  0  0  0
  141.4984   72.6169  226.9058 H   0  0  0  0  0  0  0  0  0  0  0  0
  1  2  2  0
  2  3  1  0
  3  4  1  0
  4  5  1  0
  5  6  2  0
  5  7  1  0
  7  8  1  0
  8  9  1  0
  9 10  1  0
 10 11  1  0
 11 12  1  0
 12 13  1  0
 13 14  2  0
 14 15  1  0
 15 16  2  0
 16 17  1  0
 17 18  1  0
 17 19  2  0
  2 20  1  0
 20 21  2  0
 21 22  1  0
 22 23  2  0
 23 24  1  0
 24 25  2  0
 25 26  1  0
 25 27  1  0
 27 28  2  0
 28 29  1  0
 29 30  2  0
 12  7  1  0
 19 13  1  0
 30 20  1  0
 29 23  1  0
  3 31  1  0
  4 32  1  0
  4 33  1  0
  8 34  1  0
  8 35  1  0
  9 36  1  0
  9 37  1  0
 10 38  1  0
 10 39  1  0
 11 40  1  0
 11 41  1  0
 12 42  1  6
 14 43  1  0
 15 44  1  0
 16 45  1  0
 19 46  1  0
 21 47  1  0
 22 48  1  0
 24 49  1  0
 27 50  1  0
 28 51  1  0
M  END
>  <smiles>  (27) 
O=C(NCC(=O)N1CCCCC1c1cccc(Cl)c1)c1ccc2cc(F)ccc2n1

>  <score_type>  (27) 
oracle

>  <origin>  (27) 
autodockgpu

>  <m_score__min__energy>  (27) 
-9.3399999999999999

>  <m_primary>  (27) 
energy

>  <rmsd>  (27) 
2.286805084412356

>  <m_score__min__rmsd>  (27) 
2.286805084412356

>  <meeko>  (27) 
{"free_energy": -8.96, "intermolecular_energy": -10.45, "internal_energy": -2.09, "cluster_size": 24, "cluster_id": 2, "rank_in_cluster": 6}

>  <energy>  (27) 
-8.91

>  <cluster_rmsd>  (27) 
0.48

>  <cluster>  (27) 
2

$$$$

     RDKit          3D

 51 54  0  0  0  0  0  0  0  0999 V2000
  141.2300   71.9030  221.2100 O   0  0  0  0  0  0  0  0  0  0  0  0
  140.4890   72.3320  222.1550 C   0  0  0  0  0  0  0  0  0  0  0  0
  139.8720   73.6330  222.0720 N   0  0  0  0  0  0  0  0  0  0  0  0
  140.0950   74.4760  220.8880 C   0  0  0  0  0  0  0  0  0  0  0  0
  140.6750   75.7630  221.2670 C   0  0  0  0  0  0  0  0  0  0  0  0
  140.2950   76.2140  222.4230 O   0  0  0  0  0  0  0  0  0  0  0  0
  141.5660   76.5790  220.5790 N   0  0  0  0  0  0  0  0  0  0  0  0
  141.4020   78.0480  220.8330 C   0  0  0  0  0  0  0  0  0  0  0  0
  141.5990   78.6840  219.4510 C   0  0  0  0  0  0  0  0  0  0  0  0
  141.1120   77.7730  218.3670 C   0  0  0  0  0  0  0  0  0  0  0  0
  141.9430   76.5160  218.2570 C   0  0  0  0  0  0  0  0  0  0  0  0
  142.5880   76.2730  219.6320 C   0  0  2  0  0  0  0  0  0  0  0  0
  143.2580   74.9910  219.6960 C   0  0  0  0  0  0  0  0  0  0  0  0
  142.8400   73.8740  219.0090 C   0  0  0  0  0  0  0  0  0  0  0  0
  143.4730   72.6530  219.0690 C   0  0  0  0  0  0  0  0  0  0  0  0
  144.5960   72.4900  219.8480 C   0  0  0  0  0  0  0  0  0  0  0  0
  145.0460   73.5840  220.5490 C   0  0  0  0  0  0  0  0  0  0  0  0
  146.4770   73.3690  221.5400 Cl  0  0  0  0  0  0  0  0  0  0  0  0
  144.4000   74.8230  220.4870 C   0  0  0  0  0  0  0  0  0  0  0  0
  140.2460   71.5150  223.3510 C   0  0  0  0  0  0  0  0  0  0  0  0
  139.5340   70.3430  223.2090 C   0  0  0  0  0  0  0  0  0  0  0  0
  139.3200   69.5970  224.3510 C   0  0  0  0  0  0  0  0  0  0  0  0
  139.7860   69.9820  225.5900 C   0  0  0  0  0  0  0  0  0  0  0  0
  139.5720   69.2370  226.7220 C   0  0  0  0  0  0  0  0  0  0  0  0
  140.0470   69.6420  227.9590 C   0  0  0  0  0  0  0  0  0  0  0  0
  139.8290   68.8970  229.0670 F   0  0  0  0  0  0  0  0  0  0  0  0
  140.7530   70.8230  228.0400 C   0  0  0  0  0  0  0  0  0  0  0  0
  140.9690   71.5750  226.8930 C   0  0  0  0  0  0  0  0  0  0  0  0
  140.4900   71.1670  225.6560 C   0  0  0  0  0  0  0  0  0  0  0  0
  140.6990   71.8890  224.5600 N   0  0  0  0  0  0  0  0  0  0  0  0
  139.2840   73.9230  222.8730 H   0  0  0  0  0  0  0  0  0  0  0  0
  140.7821   73.9591  220.2019 H   0  0  0  0  0  0  0  0  0  0  0  0
  139.1272   74.6570  220.3975 H   0  0  0  0  0  0  0  0  0  0  0  0
  140.3983   78.2679  221.2258 H   0  0  0  0  0  0  0  0  0  0  0  0
  142.1106   78.4313  221.5820 H   0  0  0  0  0  0  0  0  0  0  0  0
  141.0373   79.6287  219.4064 H   0  0  0  0  0  0  0  0  0  0  0  0
  142.6730   78.8668  219.2991 H   0  0  0  0  0  0  0  0  0  0  0  0
  140.0710   77.4909  218.5833 H   0  0  0  0  0  0  0  0  0  0  0  0
  141.1921   78.3136  217.4123 H   0  0  0  0  0  0  0  0  0  0  0  0
  141.3026   75.6638  217.9856 H   0  0  0  0  0  0  0  0  0  0  0  0
  142.7131   76.6248  217.4791 H   0  0  0  0  0  0  0  0  0  0  0  0
  143.4425   76.9242  219.8680 H   0  0  0  0  0  0  0  0  0  0  0  0
  141.9463   73.9622  218.3738 H   0  0  0  0  0  0  0  0  0  0  0  0
  143.0794   71.8035  218.4916 H   0  0  0  0  0  0  0  0  0  0  0  0
  145.1138   71.5213  219.9075 H   0  0  0  0  0  0  0  0  0  0  0  0
  144.7930   75.6725  221.0649 H   0  0  0  0  0  0  0  0  0  0  0  0
  139.1534   70.0168  222.2298 H   0  0  0  0  0  0  0  0  0  0  0  0
  138.7546   68.6570  224.2688 H   0  0  0  0  0  0  0  0  0  0  0  0
  139.0094   68.2948  226.6457 H   0  0  0  0  0  0  0  0  0  0  0  0
  141.1435   71.1681  229.0087 H   0  0  0  0  0  0  0  0  0  0  0  0
  141.5331   72.5165  226.9665 H   0  0  0  0  0  0  0  0  0  0  0  0
  1  2  2  0
  2  3  1  0
  3  4  1  0
  4  5  1  0
  5  6  2  0
  5  7  1  0
  7  8  1  0
  8  9  1  0
  9 10  1  0
 10 11  1  0
 11 12  1  0
 12 13  1  0
 13 14  2  0
 14 15  1  0
 15 16  2  0
 16 17  1  0
 17 18  1  0
 17 19  2  0
  2 20  1  0
 20 21  2  0
 21 22  1  0
 22 23  2  0
 23 24  1  0
 24 25  2  0
 25 26  1  0
 25 27  1  0
 27 28  2  0
 28 29  1  0
 29 30  2  0
 12  7  1  0
 19 13  1  0
 30 20  1  0
 29 23  1  0
  3 31  1  0
  4 32  1  0
  4 33  1  0
  8 34  1  0
  8 35  1  0
  9 36  1  0
  9 37  1  0
 10 38  1  0
 10 39  1  0
 11 40  1  0
 11 41  1  0
 12 42  1  1
 14 43  1  0
 15 44  1  0
 16 45  1  0
 19 46  1  0
 21 47  1  0
 22 48  1  0
 24 49  1  0
 27 50  1  0
 28 51  1  0
M  END
>  <smiles>  (28) 
O=C(NCC(=O)N1CCCCC1c1cccc(Cl)c1)c1ccc2cc(F)ccc2n1

>  <score_type>  (28) 
oracle

>  <origin>  (28) 
autodockgpu

>  <m_score__min__energy>  (28) 
-9.3399999999999999

>  <m_primary>  (28) 
energy

>  <rmsd>  (28) 
2.3374895229506616

>  <m_score__min__rmsd>  (28) 
2.3374895229506616

>  <meeko>  (28) 
{"free_energy": -9.01, "intermolecular_energy": -10.5, "internal_energy": -2.0, "cluster_size": 24, "cluster_id": 2, "rank_in_cluster": 3}

>  <energy>  (28) 
-8.76

>  <cluster_rmsd>  (28) 
0.71

>  <cluster>  (28) 
2

$$$$

     RDKit          3D

 51 54  0  0  0  0  0  0  0  0999 V2000
  141.2720   71.3860  221.3560 O   0  0  0  0  0  0  0  0  0  0  0  0
  140.6970   71.9590  222.3390 C   0  0  0  0  0  0  0  0  0  0  0  0
  140.3630   73.3610  222.2780 N   0  0  0  0  0  0  0  0  0  0  0  0
  140.6870   74.1410  221.0740 C   0  0  0  0  0  0  0  0  0  0  0  0
  140.7690   75.5670  221.3840 C   0  0  0  0  0  0  0  0  0  0  0  0
  139.9800   75.9660  222.3340 O   0  0  0  0  0  0  0  0  0  0  0  0
  141.5580   76.5610  220.8160 N   0  0  0  0  0  0  0  0  0  0  0  0
  141.3140   77.9410  221.3470 C   0  0  0  0  0  0  0  0  0  0  0  0
  141.3780   78.8330  220.1010 C   0  0  0  0  0  0  0  0  0  0  0  0
  140.8830   78.1010  218.8920 C   0  0  0  0  0  0  0  0  0  0  0  0
  141.7870   76.9520  218.5070 C   0  0  0  0  0  0  0  0  0  0  0  0
  142.5340   76.5120  219.7770 C   0  0  2  0  0  0  0  0  0  0  0  0
  143.2900   75.2960  219.5660 C   0  0  0  0  0  0  0  0  0  0  0  0
  143.1110   74.4620  218.4860 C   0  0  0  0  0  0  0  0  0  0  0  0
  143.8270   73.3030  218.2830 C   0  0  0  0  0  0  0  0  0  0  0  0
  144.7900   72.9130  219.1860 C   0  0  0  0  0  0  0  0  0  0  0  0
  144.9990   73.7220  220.2780 C   0  0  0  0  0  0  0  0  0  0  0  0
  146.2280   73.2200  221.4240 Cl  0  0  0  0  0  0  0  0  0  0  0  0
  144.2700   74.8980  220.4820 C   0  0  0  0  0  0  0  0  0  0  0  0
  140.3590   71.2100  223.5560 C   0  0  0  0  0  0  0  0  0  0  0  0
  139.6170   70.0540  223.4280 C   0  0  0  0  0  0  0  0  0  0  0  0
  139.3150   69.3720  224.5890 C   0  0  0  0  0  0  0  0  0  0  0  0
  139.7230   69.8020  225.8340 C   0  0  0  0  0  0  0  0  0  0  0  0
  139.4200   69.1200  226.9850 C   0  0  0  0  0  0  0  0  0  0  0  0
  139.8380   69.5700  228.2270 C   0  0  0  0  0  0  0  0  0  0  0  0
  139.5330   68.8880  229.3550 F   0  0  0  0  0  0  0  0  0  0  0  0
  140.5780   70.7320  228.2930 C   0  0  0  0  0  0  0  0  0  0  0  0
  140.8830   71.4200  227.1270 C   0  0  0  0  0  0  0  0  0  0  0  0
  140.4610   70.9670  225.8840 C   0  0  0  0  0  0  0  0  0  0  0  0
  140.7560   71.6280  224.7700 N   0  0  0  0  0  0  0  0  0  0  0  0
  139.8980   73.7670  223.1090 H   0  0  0  0  0  0  0  0  0  0  0  0
  141.6547   73.8027  220.6751 H   0  0  0  0  0  0  0  0  0  0  0  0
  139.8908   73.9877  220.3306 H   0  0  0  0  0  0  0  0  0  0  0  0
  140.3256   78.0071  221.8252 H   0  0  0  0  0  0  0  0  0  0  0  0
  142.0434   78.2344  222.1164 H   0  0  0  0  0  0  0  0  0  0  0  0
  140.7531   79.7235  220.2634 H   0  0  0  0  0  0  0  0  0  0  0  0
  142.4252   79.1235  219.9309 H   0  0  0  0  0  0  0  0  0  0  0  0
  139.8789   77.7053  219.1045 H   0  0  0  0  0  0  0  0  0  0  0  0
  140.8653   78.8113  218.0523 H   0  0  0  0  0  0  0  0  0  0  0  0
  141.1880   76.1171  218.1144 H   0  0  0  0  0  0  0  0  0  0  0  0
  142.4966   77.2601  217.7250 H   0  0  0  0  0  0  0  0  0  0  0  0
  143.3574   77.1726  220.0862 H   0  0  0  0  0  0  0  0  0  0  0  0
  142.3507   74.7375  217.7403 H   0  0  0  0  0  0  0  0  0  0  0  0
  143.6282   72.6857  217.3945 H   0  0  0  0  0  0  0  0  0  0  0  0
  145.3699   71.9898  219.0396 H   0  0  0  0  0  0  0  0  0  0  0  0
  144.4688   75.5155  221.3704 H   0  0  0  0  0  0  0  0  0  0  0  0
  139.2813   69.6923  222.4449 H   0  0  0  0  0  0  0  0  0  0  0  0
  138.7242   68.4468  224.5184 H   0  0  0  0  0  0  0  0  0  0  0  0
  138.8308   68.1933  226.9204 H   0  0  0  0  0  0  0  0  0  0  0  0
  140.9249   71.1117  229.2654 H   0  0  0  0  0  0  0  0  0  0  0  0
  141.4731   72.3463  227.1889 H   0  0  0  0  0  0  0  0  0  0  0  0
  1  2  2  0
  2  3  1  0
  3  4  1  0
  4  5  1  0
  5  6  2  0
  5  7  1  0
  7  8  1  0
  8  9  1  0
  9 10  1  0
 10 11  1  0
 11 12  1  0
 12 13  1  0
 13 14  2  0
 14 15  1  0
 15 16  2  0
 16 17  1  0
 17 18  1  0
 17 19  2  0
  2 20  1  0
 20 21  2  0
 21 22  1  0
 22 23  2  0
 23 24  1  0
 24 25  2  0
 25 26  1  0
 25 27  1  0
 27 28  2  0
 28 29  1  0
 29 30  2  0
 12  7  1  0
 19 13  1  0
 30 20  1  0
 29 23  1  0
  3 31  1  0
  4 32  1  0
  4 33  1  0
  8 34  1  0
  8 35  1  0
  9 36  1  0
  9 37  1  0
 10 38  1  0
 10 39  1  0
 11 40  1  0
 11 41  1  0
 12 42  1  1
 14 43  1  0
 15 44  1  0
 16 45  1  0
 19 46  1  0
 21 47  1  0
 22 48  1  0
 24 49  1  0
 27 50  1  0
 28 51  1  0
M  END
>  <smiles>  (29) 
O=C(NCC(=O)N1CCCCC1c1cccc(Cl)c1)c1ccc2cc(F)ccc2n1

>  <score_type>  (29) 
oracle

>  <origin>  (29) 
autodockgpu

>  <m_score__min__energy>  (29) 
-9.3399999999999999

>  <m_primary>  (29) 
energy

>  <rmsd>  (29) 
2.4664246249841364

>  <m_score__min__rmsd>  (29) 
2.4664246249841364

>  <meeko>  (29) 
{"free_energy": -8.67, "intermolecular_energy": -10.16, "internal_energy": -2.05, "cluster_size": 24, "cluster_id": 2, "rank_in_cluster": 16}

>  <energy>  (29) 
-8.74

>  <cluster_rmsd>  (29) 
0.56

>  <cluster>  (29) 
2

$$$$

     RDKit          3D

 51 54  0  0  0  0  0  0  0  0999 V2000
  138.9100   71.0500  221.1430 O   0  0  0  0  0  0  0  0  0  0  0  0
  139.2440   71.6130  222.2370 C   0  0  0  0  0  0  0  0  0  0  0  0
  139.4600   73.0380  222.2940 N   0  0  0  0  0  0  0  0  0  0  0  0
  139.2930   73.8550  221.0830 C   0  0  0  0  0  0  0  0  0  0  0  0
  140.0890   75.0770  221.1660 C   0  0  0  0  0  0  0  0  0  0  0  0
  140.5660   75.3400  222.3440 O   0  0  0  0  0  0  0  0  0  0  0  0
  140.4100   76.0020  220.1780 N   0  0  0  0  0  0  0  0  0  0  0  0
  140.1560   75.5400  218.7740 C   0  0  0  0  0  0  0  0  0  0  0  0
  141.3670   76.0610  217.9900 C   0  0  0  0  0  0  0  0  0  0  0  0
  142.5920   76.0900  218.8520 C   0  0  0  0  0  0  0  0  0  0  0  0
  142.4820   77.0980  219.9720 C   0  0  0  0  0  0  0  0  0  0  0  0
  140.9850   77.3050  220.2560 C   0  0  2  0  0  0  0  0  0  0  0  0
  140.7650   78.1120  221.4380 C   0  0  0  0  0  0  0  0  0  0  0  0
  139.5550   78.2060  222.0850 C   0  0  0  0  0  0  0  0  0  0  0  0
  139.3410   78.9740  223.2090 C   0  0  0  0  0  0  0  0  0  0  0  0
  140.3690   79.7080  223.7540 C   0  0  0  0  0  0  0  0  0  0  0  0
  141.5950   79.6390  223.1350 C   0  0  0  0  0  0  0  0  0  0  0  0
  142.9010   80.5780  223.8360 Cl  0  0  0  0  0  0  0  0  0  0  0  0
  141.8090   78.8590  221.9940 C   0  0  0  0  0  0  0  0  0  0  0  0
  139.4200   70.8270  223.4650 C   0  0  0  0  0  0  0  0  0  0  0  0
  138.9900   69.5160  223.4700 C   0  0  0  0  0  0  0  0  0  0  0  0
  139.1680   68.8040  224.6390 C   0  0  0  0  0  0  0  0  0  0  0  0
  139.7460   69.3500  225.7650 C   0  0  0  0  0  0  0  0  0  0  0  0
  139.9200   68.6370  226.9230 C   0  0  0  0  0  0  0  0  0  0  0  0
  140.5020   69.2050  228.0460 C   0  0  0  0  0  0  0  0  0  0  0  0
  140.6680   68.4900  229.1820 F   0  0  0  0  0  0  0  0  0  0  0  0
  140.9120   70.5200  227.9820 C   0  0  0  0  0  0  0  0  0  0  0  0
  140.7340   71.2390  226.8080 C   0  0  0  0  0  0  0  0  0  0  0  0
  140.1500   70.6670  225.6860 C   0  0  0  0  0  0  0  0  0  0  0  0
  139.9830   71.3580  224.5650 N   0  0  0  0  0  0  0  0  0  0  0  0
  139.7310   73.4320  223.2130 H   0  0  0  0  0  0  0  0  0  0  0  0
  139.6171   73.2726  220.2079 H   0  0  0  0  0  0  0  0  0  0  0  0
  138.2325   74.1315  220.9885 H   0  0  0  0  0  0  0  0  0  0  0  0
  140.1019   74.4423  218.7268 H   0  0  0  0  0  0  0  0  0  0  0  0
  139.2002   75.9079  218.3725 H   0  0  0  0  0  0  0  0  0  0  0  0
  141.5487   75.4015  217.1286 H   0  0  0  0  0  0  0  0  0  0  0  0
  141.1517   77.0854  217.6521 H   0  0  0  0  0  0  0  0  0  0  0  0
  142.7410   75.0913  219.2884 H   0  0  0  0  0  0  0  0  0  0  0  0
  143.4422   76.3828  218.2184 H   0  0  0  0  0  0  0  0  0  0  0  0
  142.9867   76.7171  220.8721 H   0  0  0  0  0  0  0  0  0  0  0  0
  142.9595   78.0477  219.6893 H   0  0  0  0  0  0  0  0  0  0  0  0
  140.4531   77.9289  219.5227 H   0  0  0  0  0  0  0  0  0  0  0  0
  138.7070   77.6337  221.6809 H   0  0  0  0  0  0  0  0  0  0  0  0
  138.3438   79.0003  223.6725 H   0  0  0  0  0  0  0  0  0  0  0  0
  140.2161   80.3265  224.6507 H   0  0  0  0  0  0  0  0  0  0  0  0
  142.8061   78.8327  221.5301 H   0  0  0  0  0  0  0  0  0  0  0  0
  138.5266   69.0592  222.5831 H   0  0  0  0  0  0  0  0  0  0  0  0
  138.8344   67.7564  224.6735 H   0  0  0  0  0  0  0  0  0  0  0  0
  139.5897   67.5885  226.9622 H   0  0  0  0  0  0  0  0  0  0  0  0
  141.3778   70.9969  228.8569 H   0  0  0  0  0  0  0  0  0  0  0  0
  141.0637   72.2876  226.7657 H   0  0  0  0  0  0  0  0  0  0  0  0
  1  2  2  0
  2  3  1  0
  3  4  1  0
  4  5  1  0
  5  6  2  0
  5  7  1  0
  7  8  1  0
  8  9  1  0
  9 10  1  0
 10 11  1  0
 11 12  1  0
 12 13  1  0
 13 14  2  0
 14 15  1  0
 15 16  2  0
 16 17  1  0
 17 18  1  0
 17 19  2  0
  2 20  1  0
 20 21  2  0
 21 22  1  0
 22 23  2  0
 23 24  1  0
 24 25  2  0
 25 26  1  0
 25 27  1  0
 27 28  2  0
 28 29  1  0
 29 30  2  0
 12  7  1  0
 19 13  1  0
 30 20  1  0
 29 23  1  0
  3 31  1  0
  4 32  1  0
  4 33  1  0
  8 34  1  0
  8 35  1  0
  9 36  1  0
  9 37  1  0
 10 38  1  0
 10 39  1  0
 11 40  1  0
 11 41  1  0
 12 42  1  6
 14 43  1  0
 15 44  1  0
 16 45  1  0
 19 46  1  0
 21 47  1  0
 22 48  1  0
 24 49  1  0
 27 50  1  0
 28 51  1  0
M  END
>  <smiles>  (30) 
O=C(NCC(=O)N1CCCCC1c1cccc(Cl)c1)c1ccc2cc(F)ccc2n1

>  <score_type>  (30) 
oracle

>  <origin>  (30) 
autodockgpu

>  <m_score__min__energy>  (30) 
-9.3399999999999999

>  <m_primary>  (30) 
energy

>  <rmsd>  (30) 
1.219142021923368

>  <m_score__min__rmsd>  (30) 
1.219142021923368

>  <meeko>  (30) 
{"free_energy": -8.88, "intermolecular_energy": -10.37, "internal_energy": -2.11, "cluster_size": 18, "cluster_id": 1, "rank_in_cluster": 8}

>  <energy>  (30) 
-8.72

>  <cluster_rmsd>  (30) 
0.33

>  <cluster>  (30) 
2

$$$$

     RDKit          3D

 51 54  0  0  0  0  0  0  0  0999 V2000
  140.7500   71.7940  221.0480 O   0  0  0  0  0  0  0  0  0  0  0  0
  140.3000   72.3100  222.1240 C   0  0  0  0  0  0  0  0  0  0  0  0
  139.9530   73.7090  222.1780 N   0  0  0  0  0  0  0  0  0  0  0  0
  140.1190   74.5530  220.9850 C   0  0  0  0  0  0  0  0  0  0  0  0
  140.9440   75.7210  221.2850 C   0  0  0  0  0  0  0  0  0  0  0  0
  140.8690   76.1440  222.5090 O   0  0  0  0  0  0  0  0  0  0  0  0
  141.7920   76.4510  220.4590 N   0  0  0  0  0  0  0  0  0  0  0  0
  141.5290   77.9270  220.4310 C   0  0  0  0  0  0  0  0  0  0  0  0
  141.7070   78.3050  218.9550 C   0  0  0  0  0  0  0  0  0  0  0  0
  141.2970   77.1760  218.0600 C   0  0  0  0  0  0  0  0  0  0  0  0
  142.2100   75.9780  218.1920 C   0  0  0  0  0  0  0  0  0  0  0  0
  142.8460   76.0410  219.5900 C   0  0  2  0  0  0  0  0  0  0  0  0
  143.5970   74.8420  219.8970 C   0  0  0  0  0  0  0  0  0  0  0  0
  144.8480   74.8470  220.4690 C   0  0  0  0  0  0  0  0  0  0  0  0
  145.5660   73.7080  220.7600 C   0  0  0  0  0  0  0  0  0  0  0  0
  145.0420   72.4670  220.4800 C   0  0  0  0  0  0  0  0  0  0  0  0
  143.7930   72.4200  219.9080 C   0  0  0  0  0  0  0  0  0  0  0  0
  143.1320   70.8340  219.5550 Cl  0  0  0  0  0  0  0  0  0  0  0  0
  143.0660   73.5780  219.6130 C   0  0  0  0  0  0  0  0  0  0  0  0
  140.1230   71.4950  223.3330 C   0  0  0  0  0  0  0  0  0  0  0  0
  139.4650   70.2890  223.2180 C   0  0  0  0  0  0  0  0  0  0  0  0
  139.3130   69.5460  224.3720 C   0  0  0  0  0  0  0  0  0  0  0  0
  139.7870   69.9660  225.5970 C   0  0  0  0  0  0  0  0  0  0  0  0
  139.6340   69.2240  226.7400 C   0  0  0  0  0  0  0  0  0  0  0  0
  140.1170   69.6640  227.9620 C   0  0  0  0  0  0  0  0  0  0  0  0
  139.9600   68.9220  229.0820 F   0  0  0  0  0  0  0  0  0  0  0  0
  140.7670   70.8790  228.0150 C   0  0  0  0  0  0  0  0  0  0  0  0
  140.9210   71.6280  226.8560 C   0  0  0  0  0  0  0  0  0  0  0  0
  140.4350   71.1840  225.6350 C   0  0  0  0  0  0  0  0  0  0  0  0
  140.5840   71.9030  224.5280 N   0  0  0  0  0  0  0  0  0  0  0  0
  139.5940   74.0660  223.0810 H   0  0  0  0  0  0  0  0  0  0  0  0
  140.6026   73.9644  220.1915 H   0  0  0  0  0  0  0  0  0  0  0  0
  139.1273   74.8974  220.6567 H   0  0  0  0  0  0  0  0  0  0  0  0
  140.5068   78.1490  220.7714 H   0  0  0  0  0  0  0  0  0  0  0  0
  142.1991   78.4902  221.0971 H   0  0  0  0  0  0  0  0  0  0  0  0
  141.0863   79.1852  218.7315 H   0  0  0  0  0  0  0  0  0  0  0  0
  142.7691   78.5276  218.7752 H   0  0  0  0  0  0  0  0  0  0  0  0
  140.2731   76.8709  218.3219 H   0  0  0  0  0  0  0  0  0  0  0  0
  141.3570   77.5317  217.0208 H   0  0  0  0  0  0  0  0  0  0  0  0
  141.6307   75.0492  218.0833 H   0  0  0  0  0  0  0  0  0  0  0  0
  142.9842   75.9899  217.4106 H   0  0  0  0  0  0  0  0  0  0  0  0
  143.6523   76.7808  219.7021 H   0  0  0  0  0  0  0  0  0  0  0  0
  145.3026   75.8196  220.7086 H   0  0  0  0  0  0  0  0  0  0  0  0
  146.5626   73.7910  221.2182 H   0  0  0  0  0  0  0  0  0  0  0  0
  145.6015   71.5471  220.7054 H   0  0  0  0  0  0  0  0  0  0  0  0
  142.0696   73.4950  219.1544 H   0  0  0  0  0  0  0  0  0  0  0  0
  139.0786   69.9347  222.2509 H   0  0  0  0  0  0  0  0  0  0  0  0
  138.7922   68.5790  224.3116 H   0  0  0  0  0  0  0  0  0  0  0  0
  139.1151   68.2556  226.6855 H   0  0  0  0  0  0  0  0  0  0  0  0
  141.1617   71.2532  228.9711 H   0  0  0  0  0  0  0  0  0  0  0  0
  141.4406   72.5962  226.9073 H   0  0  0  0  0  0  0  0  0  0  0  0
  1  2  2  0
  2  3  1  0
  3  4  1  0
  4  5  1  0
  5  6  2  0
  5  7  1  0
  7  8  1  0
  8  9  1  0
  9 10  1  0
 10 11  1  0
 11 12  1  0
 12 13  1  0
 13 14  2  0
 14 15  1  0
 15 16  2  0
 16 17  1  0
 17 18  1  0
 17 19  2  0
  2 20  1  0
 20 21  2  0
 21 22  1  0
 22 23  2  0
 23 24  1  0
 24 25  2  0
 25 26  1  0
 25 27  1  0
 27 28  2  0
 28 29  1  0
 29 30  2  0
 12  7  1  0
 19 13  1  0
 30 20  1  0
 29 23  1  0
  3 31  1  0
  4 32  1  0
  4 33  1  0
  8 34  1  0
  8 35  1  0
  9 36  1  0
  9 37  1  0
 10 38  1  0
 10 39  1  0
 11 40  1  0
 11 41  1  0
 12 42  1  6
 14 43  1  0
 15 44  1  0
 16 45  1  0
 19 46  1  0
 21 47  1  0
 22 48  1  0
 24 49  1  0
 27 50  1  0
 28 51  1  0
M  END
>  <smiles>  (31) 
O=C(NCC(=O)N1CCCCC1c1cccc(Cl)c1)c1ccc2cc(F)ccc2n1

>  <score_type>  (31) 
oracle

>  <origin>  (31) 
autodockgpu

>  <m_score__min__energy>  (31) 
-9.3399999999999999

>  <m_primary>  (31) 
energy

>  <rmsd>  (31) 
2.274864666307845

>  <m_score__min__rmsd>  (31) 
2.274864666307845

>  <meeko>  (31) 
{"free_energy": -8.69, "intermolecular_energy": -10.18, "internal_energy": -2.14, "cluster_size": 24, "cluster_id": 2, "rank_in_cluster": 14}

>  <energy>  (31) 
-8.7

>  <cluster_rmsd>  (31) 
0.41

>  <cluster>  (31) 
2

$$$$

     RDKit          3D

 51 54  0  0  0  0  0  0  0  0999 V2000
  138.9520   70.7990  221.0750 O   0  0  0  0  0  0  0  0  0  0  0  0
  138.7810   71.3290  222.2220 C   0  0  0  0  0  0  0  0  0  0  0  0
  138.2120   72.6480  222.3450 N   0  0  0  0  0  0  0  0  0  0  0  0
  137.8220   73.3940  221.1390 C   0  0  0  0  0  0  0  0  0  0  0  0
  138.8920   74.2950  220.7160 C   0  0  0  0  0  0  0  0  0  0  0  0
  139.0910   74.3440  219.4350 O   0  0  0  0  0  0  0  0  0  0  0  0
  139.7320   75.1030  221.4750 N   0  0  0  0  0  0  0  0  0  0  0  0
  139.0280   76.0560  222.3940 C   0  0  0  0  0  0  0  0  0  0  0  0
  139.8460   77.3490  222.2820 C   0  0  0  0  0  0  0  0  0  0  0  0
  140.4320   77.4950  220.9110 C   0  0  0  0  0  0  0  0  0  0  0  0
  141.4690   76.4360  220.6150 C   0  0  0  0  0  0  0  0  0  0  0  0
  141.1520   75.2240  221.5060 C   0  0  2  0  0  0  0  0  0  0  0  0
  141.9720   74.0780  221.1710 C   0  0  0  0  0  0  0  0  0  0  0  0
  141.5150   72.7800  221.1860 C   0  0  0  0  0  0  0  0  0  0  0  0
  142.2920   71.6880  220.8700 C   0  0  0  0  0  0  0  0  0  0  0  0
  143.6110   71.8530  220.5130 C   0  0  0  0  0  0  0  0  0  0  0  0
  144.1040   73.1360  220.4860 C   0  0  0  0  0  0  0  0  0  0  0  0
  145.7850   73.3390  220.0290 Cl  0  0  0  0  0  0  0  0  0  0  0  0
  143.3130   74.2440  220.8070 C   0  0  0  0  0  0  0  0  0  0  0  0
  139.1590   70.6110  223.4460 C   0  0  0  0  0  0  0  0  0  0  0  0
  138.9040   69.2580  223.5170 C   0  0  0  0  0  0  0  0  0  0  0  0
  139.2700   68.6110  224.6800 C   0  0  0  0  0  0  0  0  0  0  0  0
  139.8660   69.2620  225.7390 C   0  0  0  0  0  0  0  0  0  0  0  0
  140.2280   68.6140  226.8930 C   0  0  0  0  0  0  0  0  0  0  0  0
  140.8240   69.2870  227.9470 C   0  0  0  0  0  0  0  0  0  0  0  0
  141.1770   68.6360  229.0790 F   0  0  0  0  0  0  0  0  0  0  0  0
  141.0550   70.6400  227.8200 C   0  0  0  0  0  0  0  0  0  0  0  0
  140.6880   71.2940  226.6510 C   0  0  0  0  0  0  0  0  0  0  0  0
  140.0890   70.6160  225.5970 C   0  0  0  0  0  0  0  0  0  0  0  0
  139.7400   71.2440  224.4810 N   0  0  0  0  0  0  0  0  0  0  0  0
  138.1010   73.0210  223.3050 H   0  0  0  0  0  0  0  0  0  0  0  0
  137.6087   72.6820  220.3281 H   0  0  0  0  0  0  0  0  0  0  0  0
  136.9281   73.9925  221.3689 H   0  0  0  0  0  0  0  0  0  0  0  0
  137.9904   76.2199  222.0677 H   0  0  0  0  0  0  0  0  0  0  0  0
  138.9656   75.6817  223.4265 H   0  0  0  0  0  0  0  0  0  0  0  0
  139.1906   78.2084  222.4867 H   0  0  0  0  0  0  0  0  0  0  0  0
  140.6675   77.3090  223.0124 H   0  0  0  0  0  0  0  0  0  0  0  0
  139.6230   77.4148  220.1700 H   0  0  0  0  0  0  0  0  0  0  0  0
  140.9280   78.4755  220.8595 H   0  0  0  0  0  0  0  0  0  0  0  0
  141.4198   76.1469  219.5548 H   0  0  0  0  0  0  0  0  0  0  0  0
  142.4815   76.8148  220.8186 H   0  0  0  0  0  0  0  0  0  0  0  0
  141.4361   75.3353  222.5628 H   0  0  0  0  0  0  0  0  0  0  0  0
  140.4662   72.6043  221.4673 H   0  0  0  0  0  0  0  0  0  0  0  0
  141.8563   70.6785  220.9030 H   0  0  0  0  0  0  0  0  0  0  0  0
  144.2461   70.9915  220.2591 H   0  0  0  0  0  0  0  0  0  0  0  0
  143.7484   75.2536  220.7731 H   0  0  0  0  0  0  0  0  0  0  0  0
  138.4300   68.7182  222.6840 H   0  0  0  0  0  0  0  0  0  0  0  0
  139.0782   67.5312  224.7654 H   0  0  0  0  0  0  0  0  0  0  0  0
  140.0404   67.5339  226.9834 H   0  0  0  0  0  0  0  0  0  0  0  0
  141.5278   71.1992  228.6408 H   0  0  0  0  0  0  0  0  0  0  0  0
  140.8760   72.3738  226.5577 H   0  0  0  0  0  0  0  0  0  0  0  0
  1  2  2  0
  2  3  1  0
  3  4  1  0
  4  5  1  0
  5  6  2  0
  5  7  1  0
  7  8  1  0
  8  9  1  0
  9 10  1  0
 10 11  1  0
 11 12  1  0
 12 13  1  0
 13 14  2  0
 14 15  1  0
 15 16  2  0
 16 17  1  0
 17 18  1  0
 17 19  2  0
  2 20  1  0
 20 21  2  0
 21 22  1  0
 22 23  2  0
 23 24  1  0
 24 25  2  0
 25 26  1  0
 25 27  1  0
 27 28  2  0
 28 29  1  0
 29 30  2  0
 12  7  1  0
 19 13  1  0
 30 20  1  0
 29 23  1  0
  3 31  1  0
  4 32  1  0
  4 33  1  0
  8 34  1  0
  8 35  1  0
  9 36  1  0
  9 37  1  0
 10 38  1  0
 10 39  1  0
 11 40  1  0
 11 41  1  0
 12 42  1  1
 14 43  1  0
 15 44  1  0
 16 45  1  0
 19 46  1  0
 21 47  1  0
 22 48  1  0
 24 49  1  0
 27 50  1  0
 28 51  1  0
M  END
>  <smiles>  (32) 
O=C(NCC(=O)N1CCCCC1c1cccc(Cl)c1)c1ccc2cc(F)ccc2n1

>  <score_type>  (32) 
oracle

>  <origin>  (32) 
autodockgpu

>  <m_score__min__energy>  (32) 
-9.3399999999999999

>  <m_primary>  (32) 
energy

>  <rmsd>  (32) 
2.3457581600761466

>  <m_score__min__rmsd>  (32) 
2.3457581600761466

>  <meeko>  (32) 
{"free_energy": -7.96, "intermolecular_energy": -9.45, "internal_energy": -2.02, "cluster_size": 24, "cluster_id": 2, "rank_in_cluster": 24}

>  <energy>  (32) 
-8.69

>  <cluster_rmsd>  (32) 
0.93

>  <cluster>  (32) 
2

$$$$

     RDKit          3D

 51 54  0  0  0  0  0  0  0  0999 V2000
  140.6930   71.7370  221.0170 O   0  0  0  0  0  0  0  0  0  0  0  0
  140.2950   72.2650  222.1070 C   0  0  0  0  0  0  0  0  0  0  0  0
  139.9950   73.6740  222.1740 N   0  0  0  0  0  0  0  0  0  0  0  0
  140.1460   74.5140  220.9760 C   0  0  0  0  0  0  0  0  0  0  0  0
  140.9320   75.7100  221.2750 C   0  0  0  0  0  0  0  0  0  0  0  0
  140.8170   76.1500  222.4900 O   0  0  0  0  0  0  0  0  0  0  0  0
  141.7790   76.4490  220.4570 N   0  0  0  0  0  0  0  0  0  0  0  0
  141.4980   77.9220  220.4240 C   0  0  0  0  0  0  0  0  0  0  0  0
  141.6860   78.2990  218.9490 C   0  0  0  0  0  0  0  0  0  0  0  0
  141.3010   77.1640  218.0510 C   0  0  0  0  0  0  0  0  0  0  0  0
  142.2270   75.9790  218.1950 C   0  0  0  0  0  0  0  0  0  0  0  0
  142.8480   76.0520  219.6000 C   0  0  2  0  0  0  0  0  0  0  0  0
  143.6100   74.8630  219.9160 C   0  0  0  0  0  0  0  0  0  0  0  0
  144.8680   74.8860  220.4740 C   0  0  0  0  0  0  0  0  0  0  0  0
  145.5970   73.7570  220.7750 C   0  0  0  0  0  0  0  0  0  0  0  0
  145.0800   72.5080  220.5200 C   0  0  0  0  0  0  0  0  0  0  0  0
  143.8240   72.4430  219.9630 C   0  0  0  0  0  0  0  0  0  0  0  0
  143.1710   70.8470  219.6420 Cl  0  0  0  0  0  0  0  0  0  0  0  0
  143.0860   73.5910  219.6590 C   0  0  0  0  0  0  0  0  0  0  0  0
  140.1340   71.4550  223.3210 C   0  0  0  0  0  0  0  0  0  0  0  0
  139.5310   70.2200  223.2080 C   0  0  0  0  0  0  0  0  0  0  0  0
  139.3920   69.4830  224.3670 C   0  0  0  0  0  0  0  0  0  0  0  0
  139.8270   69.9340  225.5950 C   0  0  0  0  0  0  0  0  0  0  0  0
  139.6870   69.1960  226.7420 C   0  0  0  0  0  0  0  0  0  0  0  0
  140.1310   69.6690  227.9680 C   0  0  0  0  0  0  0  0  0  0  0  0
  139.9870   68.9310  229.0930 F   0  0  0  0  0  0  0  0  0  0  0  0
  140.7260   70.9110  228.0190 C   0  0  0  0  0  0  0  0  0  0  0  0
  140.8670   71.6560  226.8560 C   0  0  0  0  0  0  0  0  0  0  0  0
  140.4210   71.1790  225.6310 C   0  0  0  0  0  0  0  0  0  0  0  0
  140.5570   71.8940  224.5200 N   0  0  0  0  0  0  0  0  0  0  0  0
  139.6780   74.0410  223.0880 H   0  0  0  0  0  0  0  0  0  0  0  0
  140.6552   73.9349  220.1915 H   0  0  0  0  0  0  0  0  0  0  0  0
  139.1472   74.8250  220.6358 H   0  0  0  0  0  0  0  0  0  0  0  0
  140.4699   78.1320  220.7539 H   0  0  0  0  0  0  0  0  0  0  0  0
  142.1542   78.4948  221.0958 H   0  0  0  0  0  0  0  0  0  0  0  0
  141.0559   79.1704  218.7175 H   0  0  0  0  0  0  0  0  0  0  0  0
  142.7472   78.5346  218.7803 H   0  0  0  0  0  0  0  0  0  0  0  0
  140.2782   76.8461  218.3015 H   0  0  0  0  0  0  0  0  0  0  0  0
  141.3684   77.5193  217.0121 H   0  0  0  0  0  0  0  0  0  0  0  0
  141.6607   75.0428  218.0819 H   0  0  0  0  0  0  0  0  0  0  0  0
  143.0092   75.9998  217.4219 H   0  0  0  0  0  0  0  0  0  0  0  0
  143.6436   76.8021  219.7199 H   0  0  0  0  0  0  0  0  0  0  0  0
  145.3184   75.8654  220.6928 H   0  0  0  0  0  0  0  0  0  0  0  0
  146.5976   73.8545  221.2215 H   0  0  0  0  0  0  0  0  0  0  0  0
  145.6493   71.5960  220.7527 H   0  0  0  0  0  0  0  0  0  0  0  0
  142.0848   73.4935  219.2139 H   0  0  0  0  0  0  0  0  0  0  0  0
  139.1769   69.8395  222.2386 H   0  0  0  0  0  0  0  0  0  0  0  0
  138.9139   68.4941  224.3082 H   0  0  0  0  0  0  0  0  0  0  0  0
  139.2114   68.2056  226.6887 H   0  0  0  0  0  0  0  0  0  0  0  0
  141.0879   71.3107  228.9778 H   0  0  0  0  0  0  0  0  0  0  0  0
  141.3428   72.6465  226.9064 H   0  0  0  0  0  0  0  0  0  0  0  0
  1  2  2  0
  2  3  1  0
  3  4  1  0
  4  5  1  0
  5  6  2  0
  5  7  1  0
  7  8  1  0
  8  9  1  0
  9 10  1  0
 10 11  1  0
 11 12  1  0
 12 13  1  0
 13 14  2  0
 14 15  1  0
 15 16  2  0
 16 17  1  0
 17 18  1  0
 17 19  2  0
  2 20  1  0
 20 21  2  0
 21 22  1  0
 22 23  2  0
 23 24  1  0
 24 25  2  0
 25 26  1  0
 25 27  1  0
 27 28  2  0
 28 29  1  0
 29 30  2  0
 12  7  1  0
 19 13  1  0
 30 20  1  0
 29 23  1  0
  3 31  1  0
  4 32  1  0
  4 33  1  0
  8 34  1  0
  8 35  1  0
  9 36  1  0
  9 37  1  0
 10 38  1  0
 10 39  1  0
 11 40  1  0
 11 41  1  0
 12 42  1  6
 14 43  1  0
 15 44  1  0
 16 45  1  0
 19 46  1  0
 21 47  1  0
 22 48  1  0
 24 49  1  0
 27 50  1  0
 28 51  1  0
M  END
>  <smiles>  (33) 
O=C(NCC(=O)N1CCCCC1c1cccc(Cl)c1)c1ccc2cc(F)ccc2n1

>  <score_type>  (33) 
oracle

>  <origin>  (33) 
autodockgpu

>  <m_score__min__energy>  (33) 
-9.3399999999999999

>  <m_primary>  (33) 
energy

>  <rmsd>  (33) 
2.262407979220389

>  <m_score__min__rmsd>  (33) 
2.262407979220389

>  <meeko>  (33) 
{"free_energy": -8.65, "intermolecular_energy": -10.14, "internal_energy": -2.18, "cluster_size": 24, "cluster_id": 2, "rank_in_cluster": 18}

>  <energy>  (33) 
-8.67

>  <cluster_rmsd>  (33) 
0.71

>  <cluster>  (33) 
2

$$$$

     RDKit          3D

 51 54  0  0  0  0  0  0  0  0999 V2000
  141.3330   71.7070  221.1650 O   0  0  0  0  0  0  0  0  0  0  0  0
  140.6220   72.2120  222.0950 C   0  0  0  0  0  0  0  0  0  0  0  0
  140.1100   73.5550  221.9810 N   0  0  0  0  0  0  0  0  0  0  0  0
  140.4070   74.3540  220.7820 C   0  0  0  0  0  0  0  0  0  0  0  0
  141.1870   75.5410  221.1270 C   0  0  0  0  0  0  0  0  0  0  0  0
  141.0280   75.9650  222.3430 O   0  0  0  0  0  0  0  0  0  0  0  0
  142.0680   76.2860  220.3520 N   0  0  0  0  0  0  0  0  0  0  0  0
  141.8330   77.7670  220.3770 C   0  0  0  0  0  0  0  0  0  0  0  0
  142.0550   78.2000  218.9230 C   0  0  0  0  0  0  0  0  0  0  0  0
  141.6470   77.1160  217.9730 C   0  0  0  0  0  0  0  0  0  0  0  0
  142.5350   75.8970  218.0790 C   0  0  0  0  0  0  0  0  0  0  0  0
  143.1370   75.8920  219.4940 C   0  0  2  0  0  0  0  0  0  0  0  0
  143.8580   74.6670  219.7700 C   0  0  0  0  0  0  0  0  0  0  0  0
  144.7620   74.5270  220.7970 C   0  0  0  0  0  0  0  0  0  0  0  0
  145.4510   73.3640  221.0620 C   0  0  0  0  0  0  0  0  0  0  0  0
  145.2570   72.2480  220.2800 C   0  0  0  0  0  0  0  0  0  0  0  0
  144.3600   72.3490  219.2430 C   0  0  0  0  0  0  0  0  0  0  0  0
  144.1180   70.9230  218.2510 Cl  0  0  0  0  0  0  0  0  0  0  0  0
  143.6620   73.5310  218.9760 C   0  0  0  0  0  0  0  0  0  0  0  0
  140.3080   71.4420  223.3060 C   0  0  0  0  0  0  0  0  0  0  0  0
  139.5780   70.2800  223.1700 C   0  0  0  0  0  0  0  0  0  0  0  0
  139.2970   69.5780  224.3250 C   0  0  0  0  0  0  0  0  0  0  0  0
  139.7140   69.9960  225.5710 C   0  0  0  0  0  0  0  0  0  0  0  0
  139.4330   69.2950  226.7160 C   0  0  0  0  0  0  0  0  0  0  0  0
  139.8600   69.7330  227.9600 C   0  0  0  0  0  0  0  0  0  0  0  0
  139.5760   69.0310  229.0810 F   0  0  0  0  0  0  0  0  0  0  0  0
  140.5860   70.9020  228.0330 C   0  0  0  0  0  0  0  0  0  0  0  0
  140.8700   71.6100  226.8730 C   0  0  0  0  0  0  0  0  0  0  0  0
  140.4390   71.1690  225.6290 C   0  0  0  0  0  0  0  0  0  0  0  0
  140.7130   71.8480  224.5220 N   0  0  0  0  0  0  0  0  0  0  0  0
  139.5410   73.9070  222.7710 H   0  0  0  0  0  0  0  0  0  0  0  0
  140.9808   73.7395  220.0726 H   0  0  0  0  0  0  0  0  0  0  0  0
  139.4574   74.6763  220.3300 H   0  0  0  0  0  0  0  0  0  0  0  0
  140.8068   77.9950  220.7010 H   0  0  0  0  0  0  0  0  0  0  0  0
  142.4964   78.2900  221.0815 H   0  0  0  0  0  0  0  0  0  0  0  0
  141.4565   79.1004  218.7202 H   0  0  0  0  0  0  0  0  0  0  0  0
  143.1253   78.4088  218.7785 H   0  0  0  0  0  0  0  0  0  0  0  0
  140.6116   76.8201  218.1973 H   0  0  0  0  0  0  0  0  0  0  0  0
  141.7388   77.5118  216.9508 H   0  0  0  0  0  0  0  0  0  0  0  0
  141.9423   74.9843  217.9188 H   0  0  0  0  0  0  0  0  0  0  0  0
  143.3288   75.9258  217.3180 H   0  0  0  0  0  0  0  0  0  0  0  0
  143.9533   76.6112  219.6565 H   0  0  0  0  0  0  0  0  0  0  0  0
  144.9459   75.3960  221.4458 H   0  0  0  0  0  0  0  0  0  0  0  0
  146.1596   73.3270  221.9025 H   0  0  0  0  0  0  0  0  0  0  0  0
  145.7989   71.3113  220.4772 H   0  0  0  0  0  0  0  0  0  0  0  0
  142.9534   73.5683  218.1355 H   0  0  0  0  0  0  0  0  0  0  0  0
  139.2351   69.9284  222.1857 H   0  0  0  0  0  0  0  0  0  0  0  0
  138.7165   68.6468  224.2481 H   0  0  0  0  0  0  0  0  0  0  0  0
  138.8545   68.3621  226.6454 H   0  0  0  0  0  0  0  0  0  0  0  0
  140.9391   71.2728  229.0066 H   0  0  0  0  0  0  0  0  0  0  0  0
  141.4500   72.5422  226.9411 H   0  0  0  0  0  0  0  0  0  0  0  0
  1  2  2  0
  2  3  1  0
  3  4  1  0
  4  5  1  0
  5  6  2  0
  5  7  1  0
  7  8  1  0
  8  9  1  0
  9 10  1  0
 10 11  1  0
 11 12  1  0
 12 13  1  0
 13 14  2  0
 14 15  1  0
 15 16  2  0
 16 17  1  0
 17 18  1  0
 17 19  2  0
  2 20  1  0
 20 21  2  0
 21 22  1  0
 22 23  2  0
 23 24  1  0
 24 25  2  0
 25 26  1  0
 25 27  1  0
 27 28  2  0
 28 29  1  0
 29 30  2  0
 12  7  1  0
 19 13  1  0
 30 20  1  0
 29 23  1  0
  3 31  1  0
  4 32  1  0
  4 33  1  0
  8 34  1  0
  8 35  1  0
  9 36  1  0
  9 37  1  0
 10 38  1  0
 10 39  1  0
 11 40  1  0
 11 41  1  0
 12 42  1  6
 14 43  1  0
 15 44  1  0
 16 45  1  0
 19 46  1  0
 21 47  1  0
 22 48  1  0
 24 49  1  0
 27 50  1  0
 28 51  1  0
M  END
>  <smiles>  (34) 
O=C(NCC(=O)N1CCCCC1c1cccc(Cl)c1)c1ccc2cc(F)ccc2n1

>  <score_type>  (34) 
oracle

>  <origin>  (34) 
autodockgpu

>  <m_score__min__energy>  (34) 
-9.3399999999999999

>  <m_primary>  (34) 
energy

>  <rmsd>  (34) 
2.394919299688371

>  <m_score__min__rmsd>  (34) 
2.394919299688371

>  <meeko>  (34) 
{"free_energy": -8.49, "intermolecular_energy": -9.98, "internal_energy": -2.03, "cluster_size": 24, "cluster_id": 2, "rank_in_cluster": 22}

>  <energy>  (34) 
-8.67

>  <cluster_rmsd>  (34) 
0.64

>  <cluster>  (34) 
2

$$$$

     RDKit          3D

 51 54  0  0  0  0  0  0  0  0999 V2000
  141.2570   72.1140  221.2670 O   0  0  0  0  0  0  0  0  0  0  0  0
  140.4080   72.4140  222.1690 C   0  0  0  0  0  0  0  0  0  0  0  0
  139.6030   73.6060  222.0540 N   0  0  0  0  0  0  0  0  0  0  0  0
  139.7590   74.4860  220.8860 C   0  0  0  0  0  0  0  0  0  0  0  0
  140.9160   75.3650  221.0480 C   0  0  0  0  0  0  0  0  0  0  0  0
  141.3160   75.5220  222.2720 O   0  0  0  0  0  0  0  0  0  0  0  0
  141.6490   76.0600  220.0930 N   0  0  0  0  0  0  0  0  0  0  0  0
  141.1800   77.4610  219.8340 C   0  0  0  0  0  0  0  0  0  0  0  0
  141.2970   77.6140  218.3130 C   0  0  0  0  0  0  0  0  0  0  0  0
  141.0480   76.3080  217.6220 C   0  0  0  0  0  0  0  0  0  0  0  0
  142.1210   75.2870  217.9210 C   0  0  0  0  0  0  0  0  0  0  0  0
  142.7480   75.6650  219.2740 C   0  0  2  0  0  0  0  0  0  0  0  0
  143.6610   74.6480  219.7490 C   0  0  0  0  0  0  0  0  0  0  0  0
  144.8230   74.9230  220.4340 C   0  0  0  0  0  0  0  0  0  0  0  0
  145.6960   73.9580  220.8860 C   0  0  0  0  0  0  0  0  0  0  0  0
  145.4340   72.6250  220.6640 C   0  0  0  0  0  0  0  0  0  0  0  0
  144.2810   72.3100  219.9840 C   0  0  0  0  0  0  0  0  0  0  0  0
  143.9530   70.6100  219.7060 Cl  0  0  0  0  0  0  0  0  0  0  0  0
  143.3970   73.2920  219.5250 C   0  0  0  0  0  0  0  0  0  0  0  0
  140.2270   71.5570  223.3480 C   0  0  0  0  0  0  0  0  0  0  0  0
  139.5440   70.3690  223.1940 C   0  0  0  0  0  0  0  0  0  0  0  0
  139.3900   69.5850  224.3200 C   0  0  0  0  0  0  0  0  0  0  0  0
  139.8850   69.9470  225.5540 C   0  0  0  0  0  0  0  0  0  0  0  0
  139.7290   69.1640  226.6690 C   0  0  0  0  0  0  0  0  0  0  0  0
  140.2330   69.5470  227.9030 C   0  0  0  0  0  0  0  0  0  0  0  0
  140.0720   68.7660  228.9940 F   0  0  0  0  0  0  0  0  0  0  0  0
  140.9070   70.7470  227.9960 C   0  0  0  0  0  0  0  0  0  0  0  0
  141.0640   71.5370  226.8650 C   0  0  0  0  0  0  0  0  0  0  0  0
  140.5560   71.1500  225.6320 C   0  0  0  0  0  0  0  0  0  0  0  0
  140.7090   71.9090  224.5530 N   0  0  0  0  0  0  0  0  0  0  0  0
  138.9330   73.7930  222.8210 H   0  0  0  0  0  0  0  0  0  0  0  0
  139.8982   73.8691  219.9859 H   0  0  0  0  0  0  0  0  0  0  0  0
  138.8559   75.1066  220.7895 H   0  0  0  0  0  0  0  0  0  0  0  0
  140.1380   77.5917  220.1614 H   0  0  0  0  0  0  0  0  0  0  0  0
  141.7666   78.2128  220.3823 H   0  0  0  0  0  0  0  0  0  0  0  0
  140.5569   78.3508  217.9675 H   0  0  0  0  0  0  0  0  0  0  0  0
  142.3163   77.9498  218.0716 H   0  0  0  0  0  0  0  0  0  0  0  0
  140.0784   75.9103  217.9561 H   0  0  0  0  0  0  0  0  0  0  0  0
  141.0538   76.4945  216.5379 H   0  0  0  0  0  0  0  0  0  0  0  0
  141.6783   74.2817  217.9790 H   0  0  0  0  0  0  0  0  0  0  0  0
  142.8828   75.2789  217.1275 H   0  0  0  0  0  0  0  0  0  0  0  0
  143.4424   76.5176  219.2448 H   0  0  0  0  0  0  0  0  0  0  0  0
  145.0692   75.9766  220.6324 H   0  0  0  0  0  0  0  0  0  0  0  0
  146.6069   74.2541  221.4270 H   0  0  0  0  0  0  0  0  0  0  0  0
  146.1208   71.8416  221.0171 H   0  0  0  0  0  0  0  0  0  0  0  0
  142.4865   72.9959  218.9833 H   0  0  0  0  0  0  0  0  0  0  0  0
  139.1403   70.0600  222.2185 H   0  0  0  0  0  0  0  0  0  0  0  0
  138.8495   68.6314  224.2282 H   0  0  0  0  0  0  0  0  0  0  0  0
  139.1908   68.2086  226.5825 H   0  0  0  0  0  0  0  0  0  0  0  0
  141.3181   71.0765  228.9616 H   0  0  0  0  0  0  0  0  0  0  0  0
  141.6036   72.4920  226.9477 H   0  0  0  0  0  0  0  0  0  0  0  0
  1  2  2  0
  2  3  1  0
  3  4  1  0
  4  5  1  0
  5  6  2  0
  5  7  1  0
  7  8  1  0
  8  9  1  0
  9 10  1  0
 10 11  1  0
 11 12  1  0
 12 13  1  0
 13 14  2  0
 14 15  1  0
 15 16  2  0
 16 17  1  0
 17 18  1  0
 17 19  2  0
  2 20  1  0
 20 21  2  0
 21 22  1  0
 22 23  2  0
 23 24  1  0
 24 25  2  0
 25 26  1  0
 25 27  1  0
 27 28  2  0
 28 29  1  0
 29 30  2  0
 12  7  1  0
 19 13  1  0
 30 20  1  0
 29 23  1  0
  3 31  1  0
  4 32  1  0
  4 33  1  0
  8 34  1  0
  8 35  1  0
  9 36  1  0
  9 37  1  0
 10 38  1  0
 10 39  1  0
 11 40  1  0
 11 41  1  0
 12 42  1  6
 14 43  1  0
 15 44  1  0
 16 45  1  0
 19 46  1  0
 21 47  1  0
 22 48  1  0
 24 49  1  0
 27 50  1  0
 28 51  1  0
M  END
>  <smiles>  (35) 
O=C(NCC(=O)N1CCCCC1c1cccc(Cl)c1)c1ccc2cc(F)ccc2n1

>  <score_type>  (35) 
oracle

>  <origin>  (35) 
autodockgpu

>  <m_score__min__energy>  (35) 
-9.3399999999999999

>  <m_primary>  (35) 
energy

>  <rmsd>  (35) 
2.0791294051595997

>  <m_score__min__rmsd>  (35) 
2.0791294051595997

>  <meeko>  (35) 
{"free_energy": -8.5, "intermolecular_energy": -9.99, "internal_energy": -1.94, "cluster_size": 24, "cluster_id": 2, "rank_in_cluster": 21}

>  <energy>  (35) 
-8.66

>  <cluster_rmsd>  (35) 
0.93

>  <cluster>  (35) 
2

$$$$

     RDKit          3D

 51 54  0  0  0  0  0  0  0  0999 V2000
  141.3350   72.3800  221.2990 O   0  0  0  0  0  0  0  0  0  0  0  0
  140.4590   72.6450  222.1870 C   0  0  0  0  0  0  0  0  0  0  0  0
  139.6540   73.8380  222.0920 N   0  0  0  0  0  0  0  0  0  0  0  0
  139.8390   74.7600  220.9610 C   0  0  0  0  0  0  0  0  0  0  0  0
  141.0090   75.6110  221.1710 C   0  0  0  0  0  0  0  0  0  0  0  0
  141.3400   75.7890  222.4130 O   0  0  0  0  0  0  0  0  0  0  0  0
  141.8170   76.2610  220.2450 N   0  0  0  0  0  0  0  0  0  0  0  0
  141.6150   77.7450  220.1630 C   0  0  0  0  0  0  0  0  0  0  0  0
  141.6890   78.0440  218.6610 C   0  0  0  0  0  0  0  0  0  0  0  0
  141.1600   76.8950  217.8580 C   0  0  0  0  0  0  0  0  0  0  0  0
  142.0290   75.6640  217.9790 C   0  0  0  0  0  0  0  0  0  0  0  0
  142.7800   75.7630  219.3170 C   0  0  2  0  0  0  0  0  0  0  0  0
  143.5010   74.5460  219.6230 C   0  0  0  0  0  0  0  0  0  0  0  0
  143.1950   73.3190  219.0820 C   0  0  0  0  0  0  0  0  0  0  0  0
  143.8780   72.1580  219.3730 C   0  0  0  0  0  0  0  0  0  0  0  0
  144.9370   72.1770  220.2510 C   0  0  0  0  0  0  0  0  0  0  0  0
  145.2740   73.3860  220.8130 C   0  0  0  0  0  0  0  0  0  0  0  0
  146.6250   73.4020  221.9310 Cl  0  0  0  0  0  0  0  0  0  0  0  0
  144.5790   74.5630  220.5160 C   0  0  0  0  0  0  0  0  0  0  0  0
  140.2480   71.7450  223.3290 C   0  0  0  0  0  0  0  0  0  0  0  0
  139.5670   70.5650  223.1150 C   0  0  0  0  0  0  0  0  0  0  0  0
  139.3840   69.7410  224.2070 C   0  0  0  0  0  0  0  0  0  0  0  0
  139.8500   70.0560  225.4650 C   0  0  0  0  0  0  0  0  0  0  0  0
  139.6650   69.2340  226.5470 C   0  0  0  0  0  0  0  0  0  0  0  0
  140.1400   69.5700  227.8050 C   0  0  0  0  0  0  0  0  0  0  0  0
  139.9510   68.7480  228.8630 F   0  0  0  0  0  0  0  0  0  0  0  0
  140.8130   70.7630  227.9590 C   0  0  0  0  0  0  0  0  0  0  0  0
  140.9990   71.5940  226.8620 C   0  0  0  0  0  0  0  0  0  0  0  0
  140.5210   71.2540  225.6040 C   0  0  0  0  0  0  0  0  0  0  0  0
  140.7010   72.0520  224.5570 N   0  0  0  0  0  0  0  0  0  0  0  0
  138.9610   73.9950  222.8460 H   0  0  0  0  0  0  0  0  0  0  0  0
  139.9783   74.1764  220.0390 H   0  0  0  0  0  0  0  0  0  0  0  0
  138.9480   75.3997  220.8782 H   0  0  0  0  0  0  0  0  0  0  0  0
  140.6339   78.0297  220.5710 H   0  0  0  0  0  0  0  0  0  0  0  0
  142.3598   78.3076  220.7450 H   0  0  0  0  0  0  0  0  0  0  0  0
  141.0907   78.9409  218.4429 H   0  0  0  0  0  0  0  0  0  0  0  0
  142.7419   78.2072  218.3877 H   0  0  0  0  0  0  0  0  0  0  0  0
  140.1483   76.6505  218.2139 H   0  0  0  0  0  0  0  0  0  0  0  0
  141.1508   77.1985  216.8008 H   0  0  0  0  0  0  0  0  0  0  0  0
  141.4037   74.7591  217.9645 H   0  0  0  0  0  0  0  0  0  0  0  0
  142.7368   75.6034  217.1392 H   0  0  0  0  0  0  0  0  0  0  0  0
  143.6237   76.4687  219.3278 H   0  0  0  0  0  0  0  0  0  0  0  0
  142.3547   73.2610  218.3746 H   0  0  0  0  0  0  0  0  0  0  0  0
  143.5751   71.2117  218.9011 H   0  0  0  0  0  0  0  0  0  0  0  0
  145.4932   71.2597  220.4943 H   0  0  0  0  0  0  0  0  0  0  0  0
  144.8819   75.5094  220.9878 H   0  0  0  0  0  0  0  0  0  0  0  0
  139.1869   70.2929  222.1193 H   0  0  0  0  0  0  0  0  0  0  0  0
  138.8436   68.7932  224.0673 H   0  0  0  0  0  0  0  0  0  0  0  0
  139.1262   68.2844  226.4132 H   0  0  0  0  0  0  0  0  0  0  0  0
  141.2009   71.0554  228.9460 H   0  0  0  0  0  0  0  0  0  0  0  0
  141.5378   72.5440  226.9931 H   0  0  0  0  0  0  0  0  0  0  0  0
  1  2  2  0
  2  3  1  0
  3  4  1  0
  4  5  1  0
  5  6  2  0
  5  7  1  0
  7  8  1  0
  8  9  1  0
  9 10  1  0
 10 11  1  0
 11 12  1  0
 12 13  1  0
 13 14  2  0
 14 15  1  0
 15 16  2  0
 16 17  1  0
 17 18  1  0
 17 19  2  0
  2 20  1  0
 20 21  2  0
 21 22  1  0
 22 23  2  0
 23 24  1  0
 24 25  2  0
 25 26  1  0
 25 27  1  0
 27 28  2  0
 28 29  1  0
 29 30  2  0
 12  7  1  0
 19 13  1  0
 30 20  1  0
 29 23  1  0
  3 31  1  0
  4 32  1  0
  4 33  1  0
  8 34  1  0
  8 35  1  0
  9 36  1  0
  9 37  1  0
 10 38  1  0
 10 39  1  0
 11 40  1  0
 11 41  1  0
 12 42  1  6
 14 43  1  0
 15 44  1  0
 16 45  1  0
 19 46  1  0
 21 47  1  0
 22 48  1  0
 24 49  1  0
 27 50  1  0
 28 51  1  0
M  END
>  <smiles>  (36) 
O=C(NCC(=O)N1CCCCC1c1cccc(Cl)c1)c1ccc2cc(F)ccc2n1

>  <score_type>  (36) 
oracle

>  <origin>  (36) 
autodockgpu

>  <m_score__min__energy>  (36) 
-9.3399999999999999

>  <m_primary>  (36) 
energy

>  <rmsd>  (36) 
2.269474228185925

>  <m_score__min__rmsd>  (36) 
2.269474228185925

>  <meeko>  (36) 
{"free_energy": -8.72, "intermolecular_energy": -10.21, "internal_energy": -1.92, "cluster_size": 24, "cluster_id": 2, "rank_in_cluster": 12}

>  <energy>  (36) 
-8.65

>  <cluster_rmsd>  (36) 
0.93

>  <cluster>  (36) 
2

$$$$

     RDKit          3D

 51 54  0  0  0  0  0  0  0  0999 V2000
  133.8980   70.1050  226.4210 O   0  0  0  0  0  0  0  0  0  0  0  0
  134.1370   71.2800  225.9870 C   0  0  0  0  0  0  0  0  0  0  0  0
  135.1430   71.4980  224.9760 N   0  0  0  0  0  0  0  0  0  0  0  0
  135.9030   70.3590  224.4380 C   0  0  0  0  0  0  0  0  0  0  0  0
  137.0970   70.8170  223.7310 C   0  0  0  0  0  0  0  0  0  0  0  0
  137.1930   72.1050  223.5980 O   0  0  0  0  0  0  0  0  0  0  0  0
  138.1420   70.0870  223.1770 N   0  0  0  0  0  0  0  0  0  0  0  0
  138.0660   69.9050  221.6910 C   0  0  0  0  0  0  0  0  0  0  0  0
  138.5100   68.4530  221.4740 C   0  0  0  0  0  0  0  0  0  0  0  0
  138.1090   67.5910  222.6320 C   0  0  0  0  0  0  0  0  0  0  0  0
  138.8400   67.9600  223.9020 C   0  0  0  0  0  0  0  0  0  0  0  0
  139.2600   69.4340  223.7760 C   0  0  2  0  0  0  0  0  0  0  0  0
  139.8050   69.9480  225.0150 C   0  0  0  0  0  0  0  0  0  0  0  0
  140.1880   71.2570  225.1970 C   0  0  0  0  0  0  0  0  0  0  0  0
  140.7090   71.7490  226.3730 C   0  0  0  0  0  0  0  0  0  0  0  0
  140.8770   70.9210  227.4590 C   0  0  0  0  0  0  0  0  0  0  0  0
  140.5040   69.6050  227.3160 C   0  0  0  0  0  0  0  0  0  0  0  0
  140.7200   68.5560  228.7050 Cl  0  0  0  0  0  0  0  0  0  0  0  0
  139.9760   69.1080  226.1210 C   0  0  0  0  0  0  0  0  0  0  0  0
  133.3970   72.4390  226.5020 C   0  0  0  0  0  0  0  0  0  0  0  0
  132.1840   72.2180  227.1200 C   0  0  0  0  0  0  0  0  0  0  0  0
  131.5120   73.3270  227.5930 C   0  0  0  0  0  0  0  0  0  0  0  0
  132.0060   74.6080  227.4690 C   0  0  0  0  0  0  0  0  0  0  0  0
  131.3340   75.7060  227.9420 C   0  0  0  0  0  0  0  0  0  0  0  0
  131.8480   76.9870  227.8060 C   0  0  0  0  0  0  0  0  0  0  0  0
  131.1750   78.0610  228.2770 F   0  0  0  0  0  0  0  0  0  0  0  0
  133.0660   77.1450  227.1790 C   0  0  0  0  0  0  0  0  0  0  0  0
  133.7440   76.0320  226.7020 C   0  0  0  0  0  0  0  0  0  0  0  0
  133.2260   74.7520  226.8390 C   0  0  0  0  0  0  0  0  0  0  0  0
  133.8780   73.6890  226.3810 N   0  0  0  0  0  0  0  0  0  0  0  0
  135.2900   72.4750  224.6670 H   0  0  0  0  0  0  0  0  0  0  0  0
  136.2050   69.7032  225.2679 H   0  0  0  0  0  0  0  0  0  0  0  0
  135.2630   69.8121  223.7299 H   0  0  0  0  0  0  0  0  0  0  0  0
  137.0383   70.0581  221.3300 H   0  0  0  0  0  0  0  0  0  0  0  0
  138.6903   70.6259  221.1428 H   0  0  0  0  0  0  0  0  0  0  0  0
  138.0402   68.0661  220.5577 H   0  0  0  0  0  0  0  0  0  0  0  0
  139.6060   68.4311  221.3834 H   0  0  0  0  0  0  0  0  0  0  0  0
  137.0279   67.7051  222.8002 H   0  0  0  0  0  0  0  0  0  0  0  0
  138.3695   66.5515  222.3838 H   0  0  0  0  0  0  0  0  0  0  0  0
  138.1763   67.8305  224.7696 H   0  0  0  0  0  0  0  0  0  0  0  0
  139.7196   67.3154  224.0464 H   0  0  0  0  0  0  0  0  0  0  0  0
  140.1229   69.6188  223.1193 H   0  0  0  0  0  0  0  0  0  0  0  0
  140.0710   71.9521  224.3525 H   0  0  0  0  0  0  0  0  0  0  0  0
  140.9923   72.8095  226.4445 H   0  0  0  0  0  0  0  0  0  0  0  0
  141.2936   71.2971  228.4051 H   0  0  0  0  0  0  0  0  0  0  0  0
  139.6925   68.0476  226.0494 H   0  0  0  0  0  0  0  0  0  0  0  0
  131.7711   71.2045  227.2308 H   0  0  0  0  0  0  0  0  0  0  0  0
  130.5413   73.1825  228.0899 H   0  0  0  0  0  0  0  0  0  0  0  0
  130.3638   75.5673  228.4414 H   0  0  0  0  0  0  0  0  0  0  0  0
  133.4984   78.1491  227.0574 H   0  0  0  0  0  0  0  0  0  0  0  0
  134.7151   76.1677  226.2035 H   0  0  0  0  0  0  0  0  0  0  0  0
  1  2  2  0
  2  3  1  0
  3  4  1  0
  4  5  1  0
  5  6  2  0
  5  7  1  0
  7  8  1  0
  8  9  1  0
  9 10  1  0
 10 11  1  0
 11 12  1  0
 12 13  1  0
 13 14  2  0
 14 15  1  0
 15 16  2  0
 16 17  1  0
 17 18  1  0
 17 19  2  0
  2 20  1  0
 20 21  2  0
 21 22  1  0
 22 23  2  0
 23 24  1  0
 24 25  2  0
 25 26  1  0
 25 27  1  0
 27 28  2  0
 28 29  1  0
 29 30  2  0
 12  7  1  0
 19 13  1  0
 30 20  1  0
 29 23  1  0
  3 31  1  0
  4 32  1  0
  4 33  1  0
  8 34  1  0
  8 35  1  0
  9 36  1  0
  9 37  1  0
 10 38  1  0
 10 39  1  0
 11 40  1  0
 11 41  1  0
 12 42  1  6
 14 43  1  0
 15 44  1  0
 16 45  1  0
 19 46  1  0
 21 47  1  0
 22 48  1  0
 24 49  1  0
 27 50  1  0
 28 51  1  0
M  END
>  <smiles>  (37) 
O=C(NCC(=O)N1CCCCC1c1cccc(Cl)c1)c1ccc2cc(F)ccc2n1

>  <score_type>  (37) 
oracle

>  <origin>  (37) 
autodockgpu

>  <m_score__min__energy>  (37) 
-9.3399999999999999

>  <m_primary>  (37) 
energy

>  <rmsd>  (37) 
8.633883471554466

>  <m_score__min__rmsd>  (37) 
8.633883471554466

>  <meeko>  (37) 
{"free_energy": -8.31, "intermolecular_energy": -9.8, "internal_energy": -2.19, "cluster_size": 4, "cluster_id": 3, "rank_in_cluster": 2}

>  <energy>  (37) 
-8.62

>  <cluster_rmsd>  (37) 
0.95

>  <cluster>  (37) 
2

$$$$

     RDKit          3D

 51 54  0  0  0  0  0  0  0  0999 V2000
  141.0700   71.8980  221.1530 O   0  0  0  0  0  0  0  0  0  0  0  0
  140.4520   72.3410  222.1770 C   0  0  0  0  0  0  0  0  0  0  0  0
  139.9230   73.6820  222.1920 N   0  0  0  0  0  0  0  0  0  0  0  0
  140.0940   74.5520  221.0180 C   0  0  0  0  0  0  0  0  0  0  0  0
  140.6210   75.8570  221.4100 C   0  0  0  0  0  0  0  0  0  0  0  0
  140.1740   76.3100  222.5410 O   0  0  0  0  0  0  0  0  0  0  0  0
  141.5240   76.6890  220.7570 N   0  0  0  0  0  0  0  0  0  0  0  0
  141.4230   78.1400  221.1220 C   0  0  0  0  0  0  0  0  0  0  0  0
  141.6060   78.8690  219.7850 C   0  0  0  0  0  0  0  0  0  0  0  0
  141.0540   78.0600  218.6520 C   0  0  0  0  0  0  0  0  0  0  0  0
  141.8340   76.7840  218.4260 C   0  0  0  0  0  0  0  0  0  0  0  0
  142.5070   76.4170  219.7590 C   0  0  2  0  0  0  0  0  0  0  0  0
  143.1290   75.1110  219.7090 C   0  0  0  0  0  0  0  0  0  0  0  0
  142.6310   74.0540  218.9820 C   0  0  0  0  0  0  0  0  0  0  0  0
  143.2190   72.8100  218.9340 C   0  0  0  0  0  0  0  0  0  0  0  0
  144.3740   72.5590  219.6380 C   0  0  0  0  0  0  0  0  0  0  0  0
  144.9040   73.5910  220.3760 C   0  0  0  0  0  0  0  0  0  0  0  0
  146.3770   73.2650  221.2700 Cl  0  0  0  0  0  0  0  0  0  0  0  0
  144.3040   74.8540  220.4240 C   0  0  0  0  0  0  0  0  0  0  0  0
  140.2640   71.4990  223.3650 C   0  0  0  0  0  0  0  0  0  0  0  0
  139.6120   70.2930  223.2160 C   0  0  0  0  0  0  0  0  0  0  0  0
  139.4490   69.5240  224.3510 C   0  0  0  0  0  0  0  0  0  0  0  0
  139.9070   69.9180  225.5900 C   0  0  0  0  0  0  0  0  0  0  0  0
  139.7420   69.1500  226.7140 C   0  0  0  0  0  0  0  0  0  0  0  0
  140.2090   69.5640  227.9520 C   0  0  0  0  0  0  0  0  0  0  0  0
  140.0400   68.7970  229.0530 F   0  0  0  0  0  0  0  0  0  0  0  0
  140.8530   70.7800  228.0400 C   0  0  0  0  0  0  0  0  0  0  0  0
  141.0180   71.5560  226.9000 C   0  0  0  0  0  0  0  0  0  0  0  0
  140.5490   71.1370  225.6630 C   0  0  0  0  0  0  0  0  0  0  0  0
  140.7090   71.8820  224.5750 N   0  0  0  0  0  0  0  0  0  0  0  0
  139.4320   73.9810  223.0530 H   0  0  0  0  0  0  0  0  0  0  0  0
  140.7948   74.0764  220.3160 H   0  0  0  0  0  0  0  0  0  0  0  0
  139.1132   74.6971  220.5416 H   0  0  0  0  0  0  0  0  0  0  0  0
  140.4396   78.3661  221.5599 H   0  0  0  0  0  0  0  0  0  0  0  0
  142.1660   78.4412  221.8751 H   0  0  0  0  0  0  0  0  0  0  0  0
  141.0805   79.8345  219.8270 H   0  0  0  0  0  0  0  0  0  0  0  0
  142.6818   79.0225  219.6142 H   0  0  0  0  0  0  0  0  0  0  0  0
  140.0092   77.8008  218.8782 H   0  0  0  0  0  0  0  0  0  0  0  0
  141.1278   78.6666  217.7374 H   0  0  0  0  0  0  0  0  0  0  0  0
  141.1543   75.9778  218.1130 H   0  0  0  0  0  0  0  0  0  0  0  0
  142.5861   76.9223  217.6352 H   0  0  0  0  0  0  0  0  0  0  0  0
  143.3920   77.0178  220.0156 H   0  0  0  0  0  0  0  0  0  0  0  0
  141.7081   74.2125  218.4048 H   0  0  0  0  0  0  0  0  0  0  0  0
  142.7627   72.0123  218.3294 H   0  0  0  0  0  0  0  0  0  0  0  0
  144.8552   71.5702  219.6115 H   0  0  0  0  0  0  0  0  0  0  0  0
  144.7598   75.6517  221.0289 H   0  0  0  0  0  0  0  0  0  0  0  0
  139.2386   69.9587  222.2368 H   0  0  0  0  0  0  0  0  0  0  0  0
  138.9323   68.5569  224.2629 H   0  0  0  0  0  0  0  0  0  0  0  0
  139.2265   68.1818  226.6314 H   0  0  0  0  0  0  0  0  0  0  0  0
  141.2345   71.1340  229.0091 H   0  0  0  0  0  0  0  0  0  0  0  0
  141.5323   72.5251  226.9795 H   0  0  0  0  0  0  0  0  0  0  0  0
  1  2  2  0
  2  3  1  0
  3  4  1  0
  4  5  1  0
  5  6  2  0
  5  7  1  0
  7  8  1  0
  8  9  1  0
  9 10  1  0
 10 11  1  0
 11 12  1  0
 12 13  1  0
 13 14  2  0
 14 15  1  0
 15 16  2  0
 16 17  1  0
 17 18  1  0
 17 19  2  0
  2 20  1  0
 20 21  2  0
 21 22  1  0
 22 23  2  0
 23 24  1  0
 24 25  2  0
 25 26  1  0
 25 27  1  0
 27 28  2  0
 28 29  1  0
 29 30  2  0
 12  7  1  0
 19 13  1  0
 30 20  1  0
 29 23  1  0
  3 31  1  0
  4 32  1  0
  4 33  1  0
  8 34  1  0
  8 35  1  0
  9 36  1  0
  9 37  1  0
 10 38  1  0
 10 39  1  0
 11 40  1  0
 11 41  1  0
 12 42  1  1
 14 43  1  0
 15 44  1  0
 16 45  1  0
 19 46  1  0
 21 47  1  0
 22 48  1  0
 24 49  1  0
 27 50  1  0
 28 51  1  0
M  END
>  <smiles>  (38) 
O=C(NCC(=O)N1CCCCC1c1cccc(Cl)c1)c1ccc2cc(F)ccc2n1

>  <score_type>  (38) 
oracle

>  <origin>  (38) 
autodockgpu

>  <m_score__min__energy>  (38) 
-9.3399999999999999

>  <m_primary>  (38) 
energy

>  <rmsd>  (38) 
2.3973596806015527

>  <m_score__min__rmsd>  (38) 
2.3973596806015527

>  <meeko>  (38) 
{"free_energy": -8.91, "intermolecular_energy": -10.4, "internal_energy": -2.03, "cluster_size": 24, "cluster_id": 2, "rank_in_cluster": 9}

>  <energy>  (38) 
-8.57

>  <cluster_rmsd>  (38) 
0.93

>  <cluster>  (38) 
2

$$$$

     RDKit          3D

 51 54  0  0  0  0  0  0  0  0999 V2000
  141.2370   71.8420  221.2970 O   0  0  0  0  0  0  0  0  0  0  0  0
  140.5870   72.3160  222.2850 C   0  0  0  0  0  0  0  0  0  0  0  0
  140.0890   73.6690  222.2560 N   0  0  0  0  0  0  0  0  0  0  0  0
  140.3300   74.5140  221.0760 C   0  0  0  0  0  0  0  0  0  0  0  0
  140.4840   75.9160  221.4630 C   0  0  0  0  0  0  0  0  0  0  0  0
  139.5780   76.3610  222.2770 O   0  0  0  0  0  0  0  0  0  0  0  0
  141.4490   76.8440  221.0880 N   0  0  0  0  0  0  0  0  0  0  0  0
  141.3810   78.1530  221.8170 C   0  0  0  0  0  0  0  0  0  0  0  0
  141.6600   79.1960  220.7280 C   0  0  0  0  0  0  0  0  0  0  0  0
  141.1410   78.7370  219.4000 C   0  0  0  0  0  0  0  0  0  0  0  0
  141.8850   77.5280  218.8800 C   0  0  0  0  0  0  0  0  0  0  0  0
  142.4730   76.7940  220.0970 C   0  0  2  0  0  0  0  0  0  0  0  0
  143.0500   75.5180  219.7310 C   0  0  0  0  0  0  0  0  0  0  0  0
  142.6110   74.7550  218.6740 C   0  0  0  0  0  0  0  0  0  0  0  0
  143.1560   73.5390  218.3250 C   0  0  0  0  0  0  0  0  0  0  0  0
  144.2040   73.0140  219.0460 C   0  0  0  0  0  0  0  0  0  0  0  0
  144.6720   73.7480  220.1100 C   0  0  0  0  0  0  0  0  0  0  0  0
  146.0080   73.0740  221.0240 Cl  0  0  0  0  0  0  0  0  0  0  0  0
  144.1160   74.9830  220.4630 C   0  0  0  0  0  0  0  0  0  0  0  0
  140.3280   71.4990  223.4780 C   0  0  0  0  0  0  0  0  0  0  0  0
  139.6540   70.3070  223.3210 C   0  0  0  0  0  0  0  0  0  0  0  0
  139.4260   69.5620  224.4600 C   0  0  0  0  0  0  0  0  0  0  0  0
  139.8400   69.9660  225.7110 C   0  0  0  0  0  0  0  0  0  0  0  0
  139.6100   69.2220  226.8400 C   0  0  0  0  0  0  0  0  0  0  0  0
  140.0340   69.6470  228.0900 C   0  0  0  0  0  0  0  0  0  0  0  0
  139.8010   68.9030  229.1950 F   0  0  0  0  0  0  0  0  0  0  0  0
  140.7030   70.8490  228.1850 C   0  0  0  0  0  0  0  0  0  0  0  0
  140.9340   71.6000  227.0410 C   0  0  0  0  0  0  0  0  0  0  0  0
  140.5070   71.1710  225.7920 C   0  0  0  0  0  0  0  0  0  0  0  0
  140.7310   71.8930  224.6990 N   0  0  0  0  0  0  0  0  0  0  0  0
  139.5700   73.9940  223.0900 H   0  0  0  0  0  0  0  0  0  0  0  0
  141.2476   74.1762  220.5721 H   0  0  0  0  0  0  0  0  0  0  0  0
  139.4672   74.4281  220.3991 H   0  0  0  0  0  0  0  0  0  0  0  0
  140.3846   78.3043  222.2578 H   0  0  0  0  0  0  0  0  0  0  0  0
  142.0939   78.2109  222.6527 H   0  0  0  0  0  0  0  0  0  0  0  0
  141.1668   80.1409  221.0000 H   0  0  0  0  0  0  0  0  0  0  0  0
  142.7479   79.3381  220.6491 H   0  0  0  0  0  0  0  0  0  0  0  0
  140.0770   78.4790  219.5060 H   0  0  0  0  0  0  0  0  0  0  0  0
  141.2859   79.5564  218.6806 H   0  0  0  0  0  0  0  0  0  0  0  0
  141.1941   76.8652  218.3384 H   0  0  0  0  0  0  0  0  0  0  0  0
  142.6824   77.8307  218.1853 H   0  0  0  0  0  0  0  0  0  0  0  0
  143.3640   77.2628  220.5402 H   0  0  0  0  0  0  0  0  0  0  0  0
  141.7746   75.1389  218.0714 H   0  0  0  0  0  0  0  0  0  0  0  0
  142.7514   72.9846  217.4654 H   0  0  0  0  0  0  0  0  0  0  0  0
  144.6502   72.0441  218.7811 H   0  0  0  0  0  0  0  0  0  0  0  0
  144.5202   75.5375  221.3227 H   0  0  0  0  0  0  0  0  0  0  0  0
  139.3133   69.9650  222.3326 H   0  0  0  0  0  0  0  0  0  0  0  0
  138.8913   68.6054  224.3655 H   0  0  0  0  0  0  0  0  0  0  0  0
  139.0760   68.2644  226.7517 H   0  0  0  0  0  0  0  0  0  0  0  0
  141.0521   71.2111  229.1633 H   0  0  0  0  0  0  0  0  0  0  0  0
  141.4681   72.5578  227.1262 H   0  0  0  0  0  0  0  0  0  0  0  0
  1  2  2  0
  2  3  1  0
  3  4  1  0
  4  5  1  0
  5  6  2  0
  5  7  1  0
  7  8  1  0
  8  9  1  0
  9 10  1  0
 10 11  1  0
 11 12  1  0
 12 13  1  0
 13 14  2  0
 14 15  1  0
 15 16  2  0
 16 17  1  0
 17 18  1  0
 17 19  2  0
  2 20  1  0
 20 21  2  0
 21 22  1  0
 22 23  2  0
 23 24  1  0
 24 25  2  0
 25 26  1  0
 25 27  1  0
 27 28  2  0
 28 29  1  0
 29 30  2  0
 12  7  1  0
 19 13  1  0
 30 20  1  0
 29 23  1  0
  3 31  1  0
  4 32  1  0
  4 33  1  0
  8 34  1  0
  8 35  1  0
  9 36  1  0
  9 37  1  0
 10 38  1  0
 10 39  1  0
 11 40  1  0
 11 41  1  0
 12 42  1  1
 14 43  1  0
 15 44  1  0
 16 45  1  0
 19 46  1  0
 21 47  1  0
 22 48  1  0
 24 49  1  0
 27 50  1  0
 28 51  1  0
M  END
>  <smiles>  (39) 
O=C(NCC(=O)N1CCCCC1c1cccc(Cl)c1)c1ccc2cc(F)ccc2n1

>  <score_type>  (39) 
oracle

>  <origin>  (39) 
autodockgpu

>  <m_score__min__energy>  (39) 
-9.3399999999999999

>  <m_primary>  (39) 
energy

>  <rmsd>  (39) 
2.633062277839323

>  <m_score__min__rmsd>  (39) 
2.633062277839323

>  <meeko>  (39) 
{"free_energy": -8.76, "intermolecular_energy": -10.25, "internal_energy": -1.94, "cluster_size": 24, "cluster_id": 2, "rank_in_cluster": 10}

>  <energy>  (39) 
-8.5

>  <cluster_rmsd>  (39) 
0.93

>  <cluster>  (39) 
2

$$$$

     RDKit          3D

 51 54  0  0  0  0  0  0  0  0999 V2000
  140.2300   77.6960  218.7730 O   0  0  0  0  0  0  0  0  0  0  0  0
  141.4660   77.6000  219.0680 C   0  0  0  0  0  0  0  0  0  0  0  0
  142.2280   78.7690  219.4350 N   0  0  0  0  0  0  0  0  0  0  0  0
  141.5770   80.0870  219.4710 C   0  0  0  0  0  0  0  0  0  0  0  0
  140.5540   80.1330  220.5140 C   0  0  0  0  0  0  0  0  0  0  0  0
  139.3310   80.1680  220.0790 O   0  0  0  0  0  0  0  0  0  0  0  0
  140.6890   80.1500  221.8970 N   0  0  0  0  0  0  0  0  0  0  0  0
  140.8940   81.5100  222.4950 C   0  0  0  0  0  0  0  0  0  0  0  0
  141.9500   81.2790  223.5830 C   0  0  0  0  0  0  0  0  0  0  0  0
  142.8920   80.1820  223.1920 C   0  0  0  0  0  0  0  0  0  0  0  0
  142.2070   78.8360  223.1240 C   0  0  0  0  0  0  0  0  0  0  0  0
  140.7160   79.0940  222.8560 C   0  0  2  0  0  0  0  0  0  0  0  0
  139.9950   77.8680  222.5860 C   0  0  0  0  0  0  0  0  0  0  0  0
  138.6260   77.7540  222.6620 C   0  0  0  0  0  0  0  0  0  0  0  0
  137.9370   76.5880  222.4070 C   0  0  0  0  0  0  0  0  0  0  0  0
  138.6140   75.4440  222.0530 C   0  0  0  0  0  0  0  0  0  0  0  0
  139.9840   75.5190  221.9670 C   0  0  0  0  0  0  0  0  0  0  0  0
  140.8400   74.0560  221.5150 Cl  0  0  0  0  0  0  0  0  0  0  0  0
  140.6810   76.7030  222.2260 C   0  0  0  0  0  0  0  0  0  0  0  0
  142.1480   76.2990  219.0420 C   0  0  0  0  0  0  0  0  0  0  0  0
  141.6200   75.3000  218.2500 C   0  0  0  0  0  0  0  0  0  0  0  0
  142.2820   74.0890  218.2470 C   0  0  0  0  0  0  0  0  0  0  0  0
  143.4200   73.8580  218.9900 C   0  0  0  0  0  0  0  0  0  0  0  0
  144.0730   72.6530  218.9830 C   0  0  0  0  0  0  0  0  0  0  0  0
  145.2160   72.4410  219.7390 C   0  0  0  0  0  0  0  0  0  0  0  0
  145.8510   71.2470  219.7220 F   0  0  0  0  0  0  0  0  0  0  0  0
  145.6960   73.4760  220.5120 C   0  0  0  0  0  0  0  0  0  0  0  0
  145.0330   74.6960  220.5170 C   0  0  0  0  0  0  0  0  0  0  0  0
  143.8890   74.9040  219.7590 C   0  0  0  0  0  0  0  0  0  0  0  0
  143.2570   76.0720  219.7670 N   0  0  0  0  0  0  0  0  0  0  0  0
  143.2280   78.6220  219.6620 H   0  0  0  0  0  0  0  0  0  0  0  0
  142.3347   80.8579  219.6749 H   0  0  0  0  0  0  0  0  0  0  0  0
  141.0968   80.2695  218.4983 H   0  0  0  0  0  0  0  0  0  0  0  0
  141.2605   82.2192  221.7382 H   0  0  0  0  0  0  0  0  0  0  0  0
  139.9641   81.9437  222.8915 H   0  0  0  0  0  0  0  0  0  0  0  0
  142.5210   82.2071  223.7330 H   0  0  0  0  0  0  0  0  0  0  0  0
  141.4383   80.9872  224.5119 H   0  0  0  0  0  0  0  0  0  0  0  0
  143.3149   80.4142  222.2035 H   0  0  0  0  0  0  0  0  0  0  0  0
  143.6770   80.1222  223.9602 H   0  0  0  0  0  0  0  0  0  0  0  0
  142.6374   78.2355  222.3090 H   0  0  0  0  0  0  0  0  0  0  0  0
  142.3431   78.2822  224.0647 H   0  0  0  0  0  0  0  0  0  0  0  0
  140.1399   79.4430  223.7257 H   0  0  0  0  0  0  0  0  0  0  0  0
  138.0472   78.6462  222.9429 H   0  0  0  0  0  0  0  0  0  0  0  0
  136.8400   76.5720  222.4869 H   0  0  0  0  0  0  0  0  0  0  0  0
  138.0795   74.5050  221.8466 H   0  0  0  0  0  0  0  0  0  0  0  0
  141.7780   76.7187  222.1461 H   0  0  0  0  0  0  0  0  0  0  0  0
  140.7132   75.4614  217.6487 H   0  0  0  0  0  0  0  0  0  0  0  0
  141.8846   73.2733  217.6252 H   0  0  0  0  0  0  0  0  0  0  0  0
  143.6807   71.8339  218.3624 H   0  0  0  0  0  0  0  0  0  0  0  0
  146.6004   73.3363  221.1224 H   0  0  0  0  0  0  0  0  0  0  0  0
  145.4236   75.5170  221.1362 H   0  0  0  0  0  0  0  0  0  0  0  0
  1  2  2  0
  2  3  1  0
  3  4  1  0
  4  5  1  0
  5  6  2  0
  5  7  1  0
  7  8  1  0
  8  9  1  0
  9 10  1  0
 10 11  1  0
 11 12  1  0
 12 13  1  0
 13 14  2  0
 14 15  1  0
 15 16  2  0
 16 17  1  0
 17 18  1  0
 17 19  2  0
  2 20  1  0
 20 21  2  0
 21 22  1  0
 22 23  2  0
 23 24  1  0
 24 25  2  0
 25 26  1  0
 25 27  1  0
 27 28  2  0
 28 29  1  0
 29 30  2  0
 12  7  1  0
 19 13  1  0
 30 20  1  0
 29 23  1  0
  3 31  1  0
  4 32  1  0
  4 33  1  0
  8 34  1  0
  8 35  1  0
  9 36  1  0
  9 37  1  0
 10 38  1  0
 10 39  1  0
 11 40  1  0
 11 41  1  0
 12 42  1  1
 14 43  1  0
 15 44  1  0
 16 45  1  0
 19 46  1  0
 21 47  1  0
 22 48  1  0
 24 49  1  0
 27 50  1  0
 28 51  1  0
M  END
>  <smiles>  (40) 
O=C(NCC(=O)N1CCCCC1c1cccc(Cl)c1)c1ccc2cc(F)ccc2n1

>  <score_type>  (40) 
oracle

>  <origin>  (40) 
autodockgpu

>  <m_score__min__energy>  (40) 
-9.3399999999999999

>  <m_primary>  (40) 
energy

>  <rmsd>  (40) 
7.873616609120721

>  <m_score__min__rmsd>  (40) 
7.873616609120721

>  <meeko>  (40) 
{"free_energy": -7.12, "intermolecular_energy": -8.61, "internal_energy": -3.04, "cluster_size": 3, "cluster_id": 5, "rank_in_cluster": 3}

>  <energy>  (40) 
-8.49

>  <cluster_rmsd>  (40) 
0.96

>  <cluster>  (40) 
2

$$$$

     RDKit          3D

 51 54  0  0  0  0  0  0  0  0999 V2000
  140.4410   71.7890  221.0170 O   0  0  0  0  0  0  0  0  0  0  0  0
  140.1170   72.2870  222.1450 C   0  0  0  0  0  0  0  0  0  0  0  0
  139.8200   73.6930  222.2690 N   0  0  0  0  0  0  0  0  0  0  0  0
  139.8890   74.5650  221.0860 C   0  0  0  0  0  0  0  0  0  0  0  0
  139.8440   75.9730  221.4750 C   0  0  0  0  0  0  0  0  0  0  0  0
  140.8320   76.6920  221.0370 O   0  0  0  0  0  0  0  0  0  0  0  0
  138.9110   76.6580  222.2440 N   0  0  0  0  0  0  0  0  0  0  0  0
  137.7570   75.8270  222.7240 C   0  0  0  0  0  0  0  0  0  0  0  0
  136.5460   76.7540  222.5660 C   0  0  0  0  0  0  0  0  0  0  0  0
  136.7250   77.6780  221.4010 C   0  0  0  0  0  0  0  0  0  0  0  0
  137.8510   78.6630  221.6190 C   0  0  0  0  0  0  0  0  0  0  0  0
  138.8250   78.0290  222.6260 C   0  0  2  0  0  0  0  0  0  0  0  0
  140.0380   78.8060  222.7680 C   0  0  0  0  0  0  0  0  0  0  0  0
  141.1440   78.3770  223.4650 C   0  0  0  0  0  0  0  0  0  0  0  0
  142.2990   79.1150  223.6030 C   0  0  0  0  0  0  0  0  0  0  0  0
  142.4010   80.3610  223.0290 C   0  0  0  0  0  0  0  0  0  0  0  0
  141.3160   80.8250  222.3230 C   0  0  0  0  0  0  0  0  0  0  0  0
  141.4530   82.4140  221.5930 Cl  0  0  0  0  0  0  0  0  0  0  0  0
  140.1440   80.0740  222.1840 C   0  0  0  0  0  0  0  0  0  0  0  0
  140.0390   71.4440  223.3450 C   0  0  0  0  0  0  0  0  0  0  0  0
  139.4930   70.1840  223.2250 C   0  0  0  0  0  0  0  0  0  0  0  0
  139.4330   69.4160  224.3710 C   0  0  0  0  0  0  0  0  0  0  0  0
  139.8900   69.8620  225.5920 C   0  0  0  0  0  0  0  0  0  0  0  0
  139.8270   69.0950  226.7270 C   0  0  0  0  0  0  0  0  0  0  0  0
  140.2910   69.5630  227.9470 C   0  0  0  0  0  0  0  0  0  0  0  0
  140.2240   68.7950  229.0590 F   0  0  0  0  0  0  0  0  0  0  0  0
  140.8270   70.8320  228.0060 C   0  0  0  0  0  0  0  0  0  0  0  0
  140.8890   71.6060  226.8550 C   0  0  0  0  0  0  0  0  0  0  0  0
  140.4230   71.1340  225.6360 C   0  0  0  0  0  0  0  0  0  0  0  0
  140.4840   71.8780  224.5370 N   0  0  0  0  0  0  0  0  0  0  0  0
  139.5650   74.0340  223.2130 H   0  0  0  0  0  0  0  0  0  0  0  0
  140.8285   74.3694  220.5483 H   0  0  0  0  0  0  0  0  0  0  0  0
  139.0255   74.3504  220.4393 H   0  0  0  0  0  0  0  0  0  0  0  0
  137.6417   74.9235  222.1072 H   0  0  0  0  0  0  0  0  0  0  0  0
  137.8891   75.4731  223.7571 H   0  0  0  0  0  0  0  0  0  0  0  0
  135.6447   76.1441  222.4060 H   0  0  0  0  0  0  0  0  0  0  0  0
  136.4458   77.3580  223.4798 H   0  0  0  0  0  0  0  0  0  0  0  0
  136.9469   77.0793  220.5053 H   0  0  0  0  0  0  0  0  0  0  0  0
  135.7943   78.2516  221.2797 H   0  0  0  0  0  0  0  0  0  0  0  0
  138.3680   78.8601  220.6683 H   0  0  0  0  0  0  0  0  0  0  0  0
  137.4635   79.6189  222.0011 H   0  0  0  0  0  0  0  0  0  0  0  0
  138.4886   78.0448  223.6732 H   0  0  0  0  0  0  0  0  0  0  0  0
  141.1035   77.3858  223.9403 H   0  0  0  0  0  0  0  0  0  0  0  0
  143.1445   78.7057  224.1754 H   0  0  0  0  0  0  0  0  0  0  0  0
  143.3158   80.9633  223.1309 H   0  0  0  0  0  0  0  0  0  0  0  0
  139.2987   80.4831  221.6111 H   0  0  0  0  0  0  0  0  0  0  0  0
  139.1220   69.8075  222.2603 H   0  0  0  0  0  0  0  0  0  0  0  0
  139.0023   68.4059  224.3065 H   0  0  0  0  0  0  0  0  0  0  0  0
  139.3979   68.0838  226.6682 H   0  0  0  0  0  0  0  0  0  0  0  0
  141.2036   71.2292  228.9602 H   0  0  0  0  0  0  0  0  0  0  0  0
  141.3177   72.6175  226.9107 H   0  0  0  0  0  0  0  0  0  0  0  0
  1  2  2  0
  2  3  1  0
  3  4  1  0
  4  5  1  0
  5  6  2  0
  5  7  1  0
  7  8  1  0
  8  9  1  0
  9 10  1  0
 10 11  1  0
 11 12  1  0
 12 13  1  0
 13 14  2  0
 14 15  1  0
 15 16  2  0
 16 17  1  0
 17 18  1  0
 17 19  2  0
  2 20  1  0
 20 21  2  0
 21 22  1  0
 22 23  2  0
 23 24  1  0
 24 25  2  0
 25 26  1  0
 25 27  1  0
 27 28  2  0
 28 29  1  0
 29 30  2  0
 12  7  1  0
 19 13  1  0
 30 20  1  0
 29 23  1  0
  3 31  1  0
  4 32  1  0
  4 33  1  0
  8 34  1  0
  8 35  1  0
  9 36  1  0
  9 37  1  0
 10 38  1  0
 10 39  1  0
 11 40  1  0
 11 41  1  0
 12 42  1  1
 14 43  1  0
 15 44  1  0
 16 45  1  0
 19 46  1  0
 21 47  1  0
 22 48  1  0
 24 49  1  0
 27 50  1  0
 28 51  1  0
M  END
>  <smiles>  (41) 
O=C(NCC(=O)N1CCCCC1c1cccc(Cl)c1)c1ccc2cc(F)ccc2n1

>  <score_type>  (41) 
oracle

>  <origin>  (41) 
autodockgpu

>  <m_score__min__energy>  (41) 
-9.3399999999999999

>  <m_primary>  (41) 
energy

>  <rmsd>  (41) 
3.113450622281427

>  <m_score__min__rmsd>  (41) 
3.113450622281427

>  <meeko>  (41) 
{"free_energy": -8.76, "intermolecular_energy": -10.25, "internal_energy": -1.43, "cluster_size": 18, "cluster_id": 1, "rank_in_cluster": 12}

>  <energy>  (41) 
-8.04

>  <cluster_rmsd>  (41) 
1.02

>  <cluster>  (41) 
2

$$$$

     RDKit          3D

 51 54  0  0  0  0  0  0  0  0999 V2000
  141.0500   71.4680  221.2570 O   0  0  0  0  0  0  0  0  0  0  0  0
  140.5210   72.0380  222.2670 C   0  0  0  0  0  0  0  0  0  0  0  0
  140.1950   73.4420  222.2320 N   0  0  0  0  0  0  0  0  0  0  0  0
  140.4740   74.2300  221.0210 C   0  0  0  0  0  0  0  0  0  0  0  0
  140.7040   75.6340  221.3560 C   0  0  0  0  0  0  0  0  0  0  0  0
  140.0370   76.0680  222.3810 O   0  0  0  0  0  0  0  0  0  0  0  0
  141.5230   76.5750  220.7420 N   0  0  0  0  0  0  0  0  0  0  0  0
  141.2930   77.9920  221.1780 C   0  0  0  0  0  0  0  0  0  0  0  0
  141.4010   78.7990  219.8780 C   0  0  0  0  0  0  0  0  0  0  0  0
  140.9190   77.9980  218.7080 C   0  0  0  0  0  0  0  0  0  0  0  0
  141.8100   76.8110  218.4190 C   0  0  0  0  0  0  0  0  0  0  0  0
  142.5210   76.4430  219.7320 C   0  0  2  0  0  0  0  0  0  0  0  0
  143.2590   75.2030  219.6170 C   0  0  0  0  0  0  0  0  0  0  0  0
  143.0150   74.2540  218.6510 C   0  0  0  0  0  0  0  0  0  0  0  0
  143.7140   73.0720  218.5400 C   0  0  0  0  0  0  0  0  0  0  0  0
  144.7260   72.7780  219.4250 C   0  0  0  0  0  0  0  0  0  0  0  0
  145.0010   73.7030  220.4050 C   0  0  0  0  0  0  0  0  0  0  0  0
  146.2920   73.3210  221.5280 Cl  0  0  0  0  0  0  0  0  0  0  0  0
  144.2900   74.9020  220.5150 C   0  0  0  0  0  0  0  0  0  0  0  0
  140.2290   71.2800  223.4910 C   0  0  0  0  0  0  0  0  0  0  0  0
  139.5420   70.0900  223.3760 C   0  0  0  0  0  0  0  0  0  0  0  0
  139.2830   69.4020  224.5450 C   0  0  0  0  0  0  0  0  0  0  0  0
  139.6800   69.8580  225.7830 C   0  0  0  0  0  0  0  0  0  0  0  0
  139.4200   69.1700  226.9400 C   0  0  0  0  0  0  0  0  0  0  0  0
  139.8270   69.6470  228.1770 C   0  0  0  0  0  0  0  0  0  0  0  0
  139.5640   68.9580  229.3100 F   0  0  0  0  0  0  0  0  0  0  0  0
  140.5100   70.8430  228.2290 C   0  0  0  0  0  0  0  0  0  0  0  0
  140.7730   71.5380  227.0560 C   0  0  0  0  0  0  0  0  0  0  0  0
  140.3620   71.0570  225.8200 C   0  0  0  0  0  0  0  0  0  0  0  0
  140.6160   71.7250  224.7000 N   0  0  0  0  0  0  0  0  0  0  0  0
  139.7690   73.8440  223.0850 H   0  0  0  0  0  0  0  0  0  0  0  0
  141.3696   73.8260  220.5264 H   0  0  0  0  0  0  0  0  0  0  0  0
  139.6042   74.1657  220.3507 H   0  0  0  0  0  0  0  0  0  0  0  0
  140.2958   78.1062  221.6280 H   0  0  0  0  0  0  0  0  0  0  0  0
  142.0103   78.3224  221.9437 H   0  0  0  0  0  0  0  0  0  0  0  0
  140.7895   79.7089  219.9675 H   0  0  0  0  0  0  0  0  0  0  0  0
  142.4570   79.0593  219.7136 H   0  0  0  0  0  0  0  0  0  0  0  0
  139.9034   77.6340  218.9228 H   0  0  0  0  0  0  0  0  0  0  0  0
  140.9327   78.6522  217.8238 H   0  0  0  0  0  0  0  0  0  0  0  0
  141.2045   75.9623  218.0681 H   0  0  0  0  0  0  0  0  0  0  0  0
  142.5418   77.0549  217.6348 H   0  0  0  0  0  0  0  0  0  0  0  0
  143.3488   77.1088  220.0174 H   0  0  0  0  0  0  0  0  0  0  0  0
  142.2136   74.4509  217.9236 H   0  0  0  0  0  0  0  0  0  0  0  0
  143.4620   72.3600  217.7403 H   0  0  0  0  0  0  0  0  0  0  0  0
  145.2936   71.8386  219.3514 H   0  0  0  0  0  0  0  0  0  0  0  0
  144.5429   75.6147  221.3138 H   0  0  0  0  0  0  0  0  0  0  0  0
  139.2153   69.7064  222.3982 H   0  0  0  0  0  0  0  0  0  0  0  0
  138.7364   68.4493  224.4852 H   0  0  0  0  0  0  0  0  0  0  0  0
  138.8751   68.2160  226.8858 H   0  0  0  0  0  0  0  0  0  0  0  0
  140.8455   71.2455  229.1962 H   0  0  0  0  0  0  0  0  0  0  0  0
  141.3194   72.4913  227.1071 H   0  0  0  0  0  0  0  0  0  0  0  0
  1  2  2  0
  2  3  1  0
  3  4  1  0
  4  5  1  0
  5  6  2  0
  5  7  1  0
  7  8  1  0
  8  9  1  0
  9 10  1  0
 10 11  1  0
 11 12  1  0
 12 13  1  0
 13 14  2  0
 14 15  1  0
 15 16  2  0
 16 17  1  0
 17 18  1  0
 17 19  2  0
  2 20  1  0
 20 21  2  0
 21 22  1  0
 22 23  2  0
 23 24  1  0
 24 25  2  0
 25 26  1  0
 25 27  1  0
 27 28  2  0
 28 29  1  0
 29 30  2  0
 12  7  1  0
 19 13  1  0
 30 20  1  0
 29 23  1  0
  3 31  1  0
  4 32  1  0
  4 33  1  0
  8 34  1  0
  8 35  1  0
  9 36  1  0
  9 37  1  0
 10 38  1  0
 10 39  1  0
 11 40  1  0
 11 41  1  0
 12 42  1  1
 14 43  1  0
 15 44  1  0
 16 45  1  0
 19 46  1  0
 21 47  1  0
 22 48  1  0
 24 49  1  0
 27 50  1  0
 28 51  1  0
M  END
>  <smiles>  (42) 
O=C(NCC(=O)N1CCCCC1c1cccc(Cl)c1)c1ccc2cc(F)ccc2n1

>  <score_type>  (42) 
oracle

>  <origin>  (42) 
autodockgpu

>  <m_score__min__energy>  (42) 
-9.3399999999999999

>  <m_primary>  (42) 
energy

>  <rmsd>  (42) 
2.3969263349497347

>  <m_score__min__rmsd>  (42) 
2.3969263349497347

>  <meeko>  (42) 
{"free_energy": -8.74, "intermolecular_energy": -10.23, "internal_energy": -2.07, "cluster_size": 24, "cluster_id": 2, "rank_in_cluster": 11}

>  <energy>  (42) 
-7.96

>  <cluster_rmsd>  (42) 
1.72

>  <cluster>  (42) 
2

$$$$

     RDKit          3D

 51 54  0  0  0  0  0  0  0  0999 V2000
  141.1670   71.4080  221.2440 O   0  0  0  0  0  0  0  0  0  0  0  0
  140.5960   71.9980  222.2200 C   0  0  0  0  0  0  0  0  0  0  0  0
  140.2370   73.3910  222.1280 N   0  0  0  0  0  0  0  0  0  0  0  0
  140.5290   74.1450  220.8980 C   0  0  0  0  0  0  0  0  0  0  0  0
  141.0890   75.4570  221.2130 C   0  0  0  0  0  0  0  0  0  0  0  0
  140.6960   75.9630  222.3420 O   0  0  0  0  0  0  0  0  0  0  0  0
  141.9730   76.2480  220.4880 N   0  0  0  0  0  0  0  0  0  0  0  0
  141.6910   77.7200  220.5390 C   0  0  0  0  0  0  0  0  0  0  0  0
  141.9500   78.1940  219.1030 C   0  0  0  0  0  0  0  0  0  0  0  0
  141.6110   77.1220  218.1140 C   0  0  0  0  0  0  0  0  0  0  0  0
  142.5310   75.9280  218.2250 C   0  0  0  0  0  0  0  0  0  0  0  0
  143.0830   75.9070  219.6600 C   0  0  2  0  0  0  0  0  0  0  0  0
  143.8320   74.6990  219.9330 C   0  0  0  0  0  0  0  0  0  0  0  0
  145.0490   74.6820  220.5750 C   0  0  0  0  0  0  0  0  0  0  0  0
  145.7650   73.5350  220.8350 C   0  0  0  0  0  0  0  0  0  0  0  0
  145.2760   72.3070  220.4500 C   0  0  0  0  0  0  0  0  0  0  0  0
  144.0610   72.2830  219.8070 C   0  0  0  0  0  0  0  0  0  0  0  0
  143.4430   70.7160  219.3190 Cl  0  0  0  0  0  0  0  0  0  0  0  0
  143.3360   73.4500  219.5430 C   0  0  0  0  0  0  0  0  0  0  0  0
  140.2900   71.2750  223.4620 C   0  0  0  0  0  0  0  0  0  0  0  0
  139.5760   70.0990  223.3750 C   0  0  0  0  0  0  0  0  0  0  0  0
  139.3030   69.4430  224.5590 C   0  0  0  0  0  0  0  0  0  0  0  0
  139.7130   69.9180  225.7860 C   0  0  0  0  0  0  0  0  0  0  0  0
  139.4400   69.2620  226.9590 C   0  0  0  0  0  0  0  0  0  0  0  0
  139.8600   69.7580  228.1840 C   0  0  0  0  0  0  0  0  0  0  0  0
  139.5840   69.1010  229.3330 F   0  0  0  0  0  0  0  0  0  0  0  0
  140.5710   70.9390  228.2080 C   0  0  0  0  0  0  0  0  0  0  0  0
  140.8460   71.6010  227.0190 C   0  0  0  0  0  0  0  0  0  0  0  0
  140.4230   71.1020  225.7950 C   0  0  0  0  0  0  0  0  0  0  0  0
  140.6890   71.7380  224.6590 N   0  0  0  0  0  0  0  0  0  0  0  0
  139.7770   73.8110  222.9550 H   0  0  0  0  0  0  0  0  0  0  0  0
  141.2529   73.5801  220.2923 H   0  0  0  0  0  0  0  0  0  0  0  0
  139.5911   74.2870  220.3411 H   0  0  0  0  0  0  0  0  0  0  0  0
  140.6476   77.9089  220.8315 H   0  0  0  0  0  0  0  0  0  0  0  0
  142.3125   78.2461  221.2785 H   0  0  0  0  0  0  0  0  0  0  0  0
  141.3305   79.0799  218.8995 H   0  0  0  0  0  0  0  0  0  0  0  0
  143.0177   78.4385  219.0022 H   0  0  0  0  0  0  0  0  0  0  0  0
  140.5775   76.7901  218.2923 H   0  0  0  0  0  0  0  0  0  0  0  0
  141.7285   77.5450  217.1054 H   0  0  0  0  0  0  0  0  0  0  0  0
  141.9721   75.0023  218.0232 H   0  0  0  0  0  0  0  0  0  0  0  0
  143.3500   75.9985  217.4940 H   0  0  0  0  0  0  0  0  0  0  0  0
  143.8704   76.6463  219.8684 H   0  0  0  0  0  0  0  0  0  0  0  0
  145.4755   75.6425  220.9000 H   0  0  0  0  0  0  0  0  0  0  0  0
  146.7331   73.6002  221.3532 H   0  0  0  0  0  0  0  0  0  0  0  0
  145.8356   71.3811  220.6491 H   0  0  0  0  0  0  0  0  0  0  0  0
  142.3680   73.3852  219.0245 H   0  0  0  0  0  0  0  0  0  0  0  0
  139.2391   69.7012  222.4064 H   0  0  0  0  0  0  0  0  0  0  0  0
  138.7345   68.5020  224.5213 H   0  0  0  0  0  0  0  0  0  0  0  0
  138.8740   68.3193  226.9274 H   0  0  0  0  0  0  0  0  0  0  0  0
  140.9189   71.3550  229.1650 H   0  0  0  0  0  0  0  0  0  0  0  0
  141.4126   72.5434  227.0478 H   0  0  0  0  0  0  0  0  0  0  0  0
  1  2  2  0
  2  3  1  0
  3  4  1  0
  4  5  1  0
  5  6  2  0
  5  7  1  0
  7  8  1  0
  8  9  1  0
  9 10  1  0
 10 11  1  0
 11 12  1  0
 12 13  1  0
 13 14  2  0
 14 15  1  0
 15 16  2  0
 16 17  1  0
 17 18  1  0
 17 19  2  0
  2 20  1  0
 20 21  2  0
 21 22  1  0
 22 23  2  0
 23 24  1  0
 24 25  2  0
 25 26  1  0
 25 27  1  0
 27 28  2  0
 28 29  1  0
 29 30  2  0
 12  7  1  0
 19 13  1  0
 30 20  1  0
 29 23  1  0
  3 31  1  0
  4 32  1  0
  4 33  1  0
  8 34  1  0
  8 35  1  0
  9 36  1  0
  9 37  1  0
 10 38  1  0
 10 39  1  0
 11 40  1  0
 11 41  1  0
 12 42  1  6
 14 43  1  0
 15 44  1  0
 16 45  1  0
 19 46  1  0
 21 47  1  0
 22 48  1  0
 24 49  1  0
 27 50  1  0
 28 51  1  0
M  END
>  <smiles>  (43) 
O=C(NCC(=O)N1CCCCC1c1cccc(Cl)c1)c1ccc2cc(F)ccc2n1

>  <score_type>  (43) 
oracle

>  <origin>  (43) 
autodockgpu

>  <m_score__min__energy>  (43) 
-9.3399999999999999

>  <m_primary>  (43) 
energy

>  <rmsd>  (43) 
2.3724472522405837

>  <m_score__min__rmsd>  (43) 
2.3724472522405837

>  <meeko>  (43) 
{"free_energy": -8.62, "intermolecular_energy": -10.11, "internal_energy": -2.12, "cluster_size": 24, "cluster_id": 2, "rank_in_cluster": 19}

>  <energy>  (43) 
-8.38

>  <cluster_rmsd>  (43) 
0.0

>  <cluster>  (43) 
3

$$$$

     RDKit          3D

 51 54  0  0  0  0  0  0  0  0999 V2000
  138.8520   71.0960  221.1930 O   0  0  0  0  0  0  0  0  0  0  0  0
  139.2110   71.6300  222.2940 C   0  0  0  0  0  0  0  0  0  0  0  0
  139.4250   73.0530  222.3850 N   0  0  0  0  0  0  0  0  0  0  0  0
  139.2260   73.9020  221.2000 C   0  0  0  0  0  0  0  0  0  0  0  0
  140.1640   75.0240  221.2010 C   0  0  0  0  0  0  0  0  0  0  0  0
  140.8020   75.2020  222.3170 O   0  0  0  0  0  0  0  0  0  0  0  0
  140.4720   75.9300  220.1930 N   0  0  0  0  0  0  0  0  0  0  0  0
  140.2210   75.4340  218.8000 C   0  0  0  0  0  0  0  0  0  0  0  0
  141.4240   75.9520  218.0030 C   0  0  0  0  0  0  0  0  0  0  0  0
  142.6500   76.0130  218.8600 C   0  0  0  0  0  0  0  0  0  0  0  0
  142.5310   77.0450  219.9590 C   0  0  0  0  0  0  0  0  0  0  0  0
  141.0320   77.2410  220.2410 C   0  0  2  0  0  0  0  0  0  0  0  0
  140.8060   78.0710  221.4050 C   0  0  0  0  0  0  0  0  0  0  0  0
  139.5840   78.2050  222.0230 C   0  0  0  0  0  0  0  0  0  0  0  0
  139.3640   78.9950  223.1300 C   0  0  0  0  0  0  0  0  0  0  0  0
  140.3970   79.7120  223.6870 C   0  0  0  0  0  0  0  0  0  0  0  0
  141.6350   79.6040  223.0980 C   0  0  0  0  0  0  0  0  0  0  0  0
  142.9470   80.5210  223.8150 Cl  0  0  0  0  0  0  0  0  0  0  0  0
  141.8560   78.8010  221.9740 C   0  0  0  0  0  0  0  0  0  0  0  0
  139.4180   70.8110  223.4960 C   0  0  0  0  0  0  0  0  0  0  0  0
  139.0030   69.4960  223.4700 C   0  0  0  0  0  0  0  0  0  0  0  0
  139.2100   68.7520  224.6150 C   0  0  0  0  0  0  0  0  0  0  0  0
  139.8020   69.2730  225.7460 C   0  0  0  0  0  0  0  0  0  0  0  0
  140.0050   68.5290  226.8800 C   0  0  0  0  0  0  0  0  0  0  0  0
  140.6010   69.0720  228.0080 C   0  0  0  0  0  0  0  0  0  0  0  0
  140.7960   68.3270  229.1200 F   0  0  0  0  0  0  0  0  0  0  0  0
  140.9950   70.3930  227.9740 C   0  0  0  0  0  0  0  0  0  0  0  0
  140.7890   71.1440  226.8240 C   0  0  0  0  0  0  0  0  0  0  0  0
  140.1900   70.5960  225.6980 C   0  0  0  0  0  0  0  0  0  0  0  0
  139.9950   71.3180  224.5990 N   0  0  0  0  0  0  0  0  0  0  0  0
  139.7160   73.4240  223.3070 H   0  0  0  0  0  0  0  0  0  0  0  0
  139.3857   73.2993  220.2937 H   0  0  0  0  0  0  0  0  0  0  0  0
  138.2007   74.2999  221.2197 H   0  0  0  0  0  0  0  0  0  0  0  0
  140.1800   74.3350  218.7771 H   0  0  0  0  0  0  0  0  0  0  0  0
  139.2601   75.7812  218.3923 H   0  0  0  0  0  0  0  0  0  0  0  0
  141.6112   75.2768  217.1550 H   0  0  0  0  0  0  0  0  0  0  0  0
  141.1961   76.9668  217.6450 H   0  0  0  0  0  0  0  0  0  0  0  0
  142.8112   75.0258  219.3177 H   0  0  0  0  0  0  0  0  0  0  0  0
  143.4955   76.3010  218.2180 H   0  0  0  0  0  0  0  0  0  0  0  0
  143.0415   76.6895  220.8662 H   0  0  0  0  0  0  0  0  0  0  0  0
  142.9977   77.9936  219.6550 H   0  0  0  0  0  0  0  0  0  0  0  0
  140.4909   77.8419  219.4952 H   0  0  0  0  0  0  0  0  0  0  0  0
  138.7312   77.6477  221.6081 H   0  0  0  0  0  0  0  0  0  0  0  0
  138.3576   79.0526  223.5704 H   0  0  0  0  0  0  0  0  0  0  0  0
  140.2389   80.3480  224.5705 H   0  0  0  0  0  0  0  0  0  0  0  0
  142.8625   78.7429  221.5340 H   0  0  0  0  0  0  0  0  0  0  0  0
  138.5290   69.0598  222.5783 H   0  0  0  0  0  0  0  0  0  0  0  0
  138.8892   67.6999  224.6251 H   0  0  0  0  0  0  0  0  0  0  0  0
  139.6873   67.4760  226.8951 H   0  0  0  0  0  0  0  0  0  0  0  0
  141.4706   70.8502  228.8542 H   0  0  0  0  0  0  0  0  0  0  0  0
  141.1077   72.1967  226.8050 H   0  0  0  0  0  0  0  0  0  0  0  0
  1  2  2  0
  2  3  1  0
  3  4  1  0
  4  5  1  0
  5  6  2  0
  5  7  1  0
  7  8  1  0
  8  9  1  0
  9 10  1  0
 10 11  1  0
 11 12  1  0
 12 13  1  0
 13 14  2  0
 14 15  1  0
 15 16  2  0
 16 17  1  0
 17 18  1  0
 17 19  2  0
  2 20  1  0
 20 21  2  0
 21 22  1  0
 22 23  2  0
 23 24  1  0
 24 25  2  0
 25 26  1  0
 25 27  1  0
 27 28  2  0
 28 29  1  0
 29 30  2  0
 12  7  1  0
 19 13  1  0
 30 20  1  0
 29 23  1  0
  3 31  1  0
  4 32  1  0
  4 33  1  0
  8 34  1  0
  8 35  1  0
  9 36  1  0
  9 37  1  0
 10 38  1  0
 10 39  1  0
 11 40  1  0
 11 41  1  0
 12 42  1  6
 14 43  1  0
 15 44  1  0
 16 45  1  0
 19 46  1  0
 21 47  1  0
 22 48  1  0
 24 49  1  0
 27 50  1  0
 28 51  1  0
M  END
>  <smiles>  (44) 
O=C(NCC(=O)N1CCCCC1c1cccc(Cl)c1)c1ccc2cc(F)ccc2n1

>  <score_type>  (44) 
oracle

>  <origin>  (44) 
autodockgpu

>  <m_score__min__energy>  (44) 
-9.3399999999999999

>  <m_primary>  (44) 
energy

>  <rmsd>  (44) 
1.2176585966884887

>  <m_score__min__rmsd>  (44) 
1.2176585966884887

>  <meeko>  (44) 
{"free_energy": -8.91, "intermolecular_energy": -10.4, "internal_energy": -2.09, "cluster_size": 18, "cluster_id": 1, "rank_in_cluster": 7}

>  <energy>  (44) 
-8.31

>  <cluster_rmsd>  (44) 
0.88

>  <cluster>  (44) 
3

$$$$

     RDKit          3D

 51 54  0  0  0  0  0  0  0  0999 V2000
  140.8880   71.7360  221.0620 O   0  0  0  0  0  0  0  0  0  0  0  0
  140.3840   72.2460  222.1160 C   0  0  0  0  0  0  0  0  0  0  0  0
  139.9850   73.6320  222.1420 N   0  0  0  0  0  0  0  0  0  0  0  0
  140.1580   74.4680  220.9450 C   0  0  0  0  0  0  0  0  0  0  0  0
  140.7530   75.7570  221.2920 C   0  0  0  0  0  0  0  0  0  0  0  0
  140.3560   76.2560  222.4230 O   0  0  0  0  0  0  0  0  0  0  0  0
  141.6750   76.5310  220.5970 N   0  0  0  0  0  0  0  0  0  0  0  0
  141.5240   78.0120  220.7830 C   0  0  0  0  0  0  0  0  0  0  0  0
  141.7690   78.5860  219.3820 C   0  0  0  0  0  0  0  0  0  0  0  0
  141.3000   77.6360  218.3230 C   0  0  0  0  0  0  0  0  0  0  0  0
  142.1180   76.3640  218.2920 C   0  0  0  0  0  0  0  0  0  0  0  0
  142.7190   76.1730  219.6940 C   0  0  2  0  0  0  0  0  0  0  0  0
  143.3700   74.8870  219.8320 C   0  0  0  0  0  0  0  0  0  0  0  0
  142.8860   73.7220  219.2830 C   0  0  0  0  0  0  0  0  0  0  0  0
  143.5010   72.4970  219.4140 C   0  0  0  0  0  0  0  0  0  0  0  0
  144.6720   72.3800  220.1270 C   0  0  0  0  0  0  0  0  0  0  0  0
  145.1880   73.5230  220.6900 C   0  0  0  0  0  0  0  0  0  0  0  0
  146.6810   73.3660  221.5970 Cl  0  0  0  0  0  0  0  0  0  0  0  0
  144.5620   74.7660  220.5560 C   0  0  0  0  0  0  0  0  0  0  0  0
  140.1970   71.4390  223.3290 C   0  0  0  0  0  0  0  0  0  0  0  0
  139.5520   70.2260  223.2140 C   0  0  0  0  0  0  0  0  0  0  0  0
  139.3900   69.4910  224.3710 C   0  0  0  0  0  0  0  0  0  0  0  0
  139.8430   69.9240  225.5990 C   0  0  0  0  0  0  0  0  0  0  0  0
  139.6800   69.1890  226.7460 C   0  0  0  0  0  0  0  0  0  0  0  0
  140.1410   69.6430  227.9710 C   0  0  0  0  0  0  0  0  0  0  0  0
  139.9740   68.9080  229.0940 F   0  0  0  0  0  0  0  0  0  0  0  0
  140.7790   70.8640  228.0250 C   0  0  0  0  0  0  0  0  0  0  0  0
  140.9420   71.6060  226.8620 C   0  0  0  0  0  0  0  0  0  0  0  0
  140.4780   71.1480  225.6370 C   0  0  0  0  0  0  0  0  0  0  0  0
  140.6370   71.8610  224.5270 N   0  0  0  0  0  0  0  0  0  0  0  0
  139.5830   73.9860  223.0290 H   0  0  0  0  0  0  0  0  0  0  0  0
  140.8159   73.9472  220.2338 H   0  0  0  0  0  0  0  0  0  0  0  0
  139.1705   74.6461  220.4944 H   0  0  0  0  0  0  0  0  0  0  0  0
  140.5126   78.2610  221.1367 H   0  0  0  0  0  0  0  0  0  0  0  0
  142.2164   78.4181  221.5351 H   0  0  0  0  0  0  0  0  0  0  0  0
  141.2222   79.5352  219.2815 H   0  0  0  0  0  0  0  0  0  0  0  0
  142.8494   78.7481  219.2538 H   0  0  0  0  0  0  0  0  0  0  0  0
  140.2494   77.3766  218.5202 H   0  0  0  0  0  0  0  0  0  0  0  0
  141.4139   78.1340  217.3488 H   0  0  0  0  0  0  0  0  0  0  0  0
  141.4745   75.5086  218.0385 H   0  0  0  0  0  0  0  0  0  0  0  0
  142.9119   76.4298  217.5335 H   0  0  0  0  0  0  0  0  0  0  0  0
  143.5743   76.8243  219.9270 H   0  0  0  0  0  0  0  0  0  0  0  0
  141.9516   73.7722  218.7047 H   0  0  0  0  0  0  0  0  0  0  0  0
  143.0539   71.6074  218.9463 H   0  0  0  0  0  0  0  0  0  0  0  0
  145.1759   71.4090  220.2421 H   0  0  0  0  0  0  0  0  0  0  0  0
  145.0096   75.6557  221.0231 H   0  0  0  0  0  0  0  0  0  0  0  0
  139.1832   69.8605  222.2442 H   0  0  0  0  0  0  0  0  0  0  0  0
  138.8781   68.5192  224.3108 H   0  0  0  0  0  0  0  0  0  0  0  0
  139.1708   68.2155  226.6916 H   0  0  0  0  0  0  0  0  0  0  0  0
  141.1569   71.2485  228.9838 H   0  0  0  0  0  0  0  0  0  0  0  0
  141.4510   72.5798  226.9133 H   0  0  0  0  0  0  0  0  0  0  0  0
  1  2  2  0
  2  3  1  0
  3  4  1  0
  4  5  1  0
  5  6  2  0
  5  7  1  0
  7  8  1  0
  8  9  1  0
  9 10  1  0
 10 11  1  0
 11 12  1  0
 12 13  1  0
 13 14  2  0
 14 15  1  0
 15 16  2  0
 16 17  1  0
 17 18  1  0
 17 19  2  0
  2 20  1  0
 20 21  2  0
 21 22  1  0
 22 23  2  0
 23 24  1  0
 24 25  2  0
 25 26  1  0
 25 27  1  0
 27 28  2  0
 28 29  1  0
 29 30  2  0
 12  7  1  0
 19 13  1  0
 30 20  1  0
 29 23  1  0
  3 31  1  0
  4 32  1  0
  4 33  1  0
  8 34  1  0
  8 35  1  0
  9 36  1  0
  9 37  1  0
 10 38  1  0
 10 39  1  0
 11 40  1  0
 11 41  1  0
 12 42  1  6
 14 43  1  0
 15 44  1  0
 16 45  1  0
 19 46  1  0
 21 47  1  0
 22 48  1  0
 24 49  1  0
 27 50  1  0
 28 51  1  0
M  END
>  <smiles>  (45) 
O=C(NCC(=O)N1CCCCC1c1cccc(Cl)c1)c1ccc2cc(F)ccc2n1

>  <score_type>  (45) 
oracle

>  <origin>  (45) 
autodockgpu

>  <m_score__min__energy>  (45) 
-9.3399999999999999

>  <m_primary>  (45) 
energy

>  <rmsd>  (45) 
2.3336873207217588

>  <m_score__min__rmsd>  (45) 
2.3336873207217588

>  <meeko>  (45) 
{"free_energy": -8.98, "intermolecular_energy": -10.47, "internal_energy": -2.07, "cluster_size": 24, "cluster_id": 2, "rank_in_cluster": 4}

>  <energy>  (45) 
-8.31

>  <cluster_rmsd>  (45) 
0.89

>  <cluster>  (45) 
3

$$$$

     RDKit          3D

 51 54  0  0  0  0  0  0  0  0999 V2000
  141.9230   72.4470  220.8930 O   0  0  0  0  0  0  0  0  0  0  0  0
  141.1570   73.2650  221.5010 C   0  0  0  0  0  0  0  0  0  0  0  0
  140.1440   72.7850  222.4100 N   0  0  0  0  0  0  0  0  0  0  0  0
  139.9900   71.3410  222.6410 C   0  0  0  0  0  0  0  0  0  0  0  0
  138.6060   71.0130  222.9770 C   0  0  0  0  0  0  0  0  0  0  0  0
  137.8130   72.0340  223.0880 O   0  0  0  0  0  0  0  0  0  0  0  0
  138.0110   69.7760  223.1990 N   0  0  0  0  0  0  0  0  0  0  0  0
  137.2790   69.2080  222.0190 C   0  0  0  0  0  0  0  0  0  0  0  0
  136.0120   68.5970  222.6320 C   0  0  0  0  0  0  0  0  0  0  0  0
  135.5680   69.3740  223.8330 C   0  0  0  0  0  0  0  0  0  0  0  0
  136.5520   69.2750  224.9760 C   0  0  0  0  0  0  0  0  0  0  0  0
  137.9300   68.9630  224.3680 C   0  0  2  0  0  0  0  0  0  0  0  0
  138.9850   69.0300  225.3560 C   0  0  0  0  0  0  0  0  0  0  0  0
  139.6010   67.9230  225.8930 C   0  0  0  0  0  0  0  0  0  0  0  0
  140.6040   67.9830  226.8360 C   0  0  0  0  0  0  0  0  0  0  0  0
  141.0500   69.1990  227.2990 C   0  0  0  0  0  0  0  0  0  0  0  0
  140.4590   70.3290  226.7860 C   0  0  0  0  0  0  0  0  0  0  0  0
  141.0330   71.8760  227.3810 Cl  0  0  0  0  0  0  0  0  0  0  0  0
  139.4410   70.2660  225.8290 C   0  0  0  0  0  0  0  0  0  0  0  0
  141.2840   74.7130  221.2940 C   0  0  0  0  0  0  0  0  0  0  0  0
  142.1020   75.1590  220.2770 C   0  0  0  0  0  0  0  0  0  0  0  0
  142.2020   76.5250  220.1070 C   0  0  0  0  0  0  0  0  0  0  0  0
  141.5260   77.4270  220.9010 C   0  0  0  0  0  0  0  0  0  0  0  0
  141.6280   78.7830  220.7270 C   0  0  0  0  0  0  0  0  0  0  0  0
  140.9410   79.6740  221.5370 C   0  0  0  0  0  0  0  0  0  0  0  0
  141.0500   81.0090  221.3540 F   0  0  0  0  0  0  0  0  0  0  0  0
  140.1370   79.1690  222.5370 C   0  0  0  0  0  0  0  0  0  0  0  0
  140.0350   77.7960  222.7110 C   0  0  0  0  0  0  0  0  0  0  0  0
  140.7260   76.9080  221.8980 C   0  0  0  0  0  0  0  0  0  0  0  0
  140.6250   75.5940  222.0670 N   0  0  0  0  0  0  0  0  0  0  0  0
  139.5540   73.5010  222.8710 H   0  0  0  0  0  0  0  0  0  0  0  0
  140.2781   70.7973  221.7292 H   0  0  0  0  0  0  0  0  0  0  0  0
  140.6356   71.0481  223.4821 H   0  0  0  0  0  0  0  0  0  0  0  0
  137.0233   69.9992  221.2988 H   0  0  0  0  0  0  0  0  0  0  0  0
  137.8779   68.4732  221.4610 H   0  0  0  0  0  0  0  0  0  0  0  0
  135.2086   68.6059  221.8807 H   0  0  0  0  0  0  0  0  0  0  0  0
  136.2360   67.5664  222.9447 H   0  0  0  0  0  0  0  0  0  0  0  0
  135.4597   70.4314  223.5500 H   0  0  0  0  0  0  0  0  0  0  0  0
  134.6122   68.9495  224.1740 H   0  0  0  0  0  0  0  0  0  0  0  0
  136.5895   70.2281  225.5240 H   0  0  0  0  0  0  0  0  0  0  0  0
  136.2506   68.4872  225.6820 H   0  0  0  0  0  0  0  0  0  0  0  0
  138.0697   67.9225  224.0397 H   0  0  0  0  0  0  0  0  0  0  0  0
  139.2732   66.9309  225.5490 H   0  0  0  0  0  0  0  0  0  0  0  0
  141.0502   67.0539  227.2204 H   0  0  0  0  0  0  0  0  0  0  0  0
  141.8496   69.2647  228.0515 H   0  0  0  0  0  0  0  0  0  0  0  0
  138.9951   71.1953  225.4449 H   0  0  0  0  0  0  0  0  0  0  0  0
  142.6500   74.4576  219.6306 H   0  0  0  0  0  0  0  0  0  0  0  0
  142.8481   76.9102  219.3044 H   0  0  0  0  0  0  0  0  0  0  0  0
  142.2710   79.1738  219.9247 H   0  0  0  0  0  0  0  0  0  0  0  0
  139.5786   79.8518  223.1943 H   0  0  0  0  0  0  0  0  0  0  0  0
  139.3917   77.4022  223.5117 H   0  0  0  0  0  0  0  0  0  0  0  0
  1  2  2  0
  2  3  1  0
  3  4  1  0
  4  5  1  0
  5  6  2  0
  5  7  1  0
  7  8  1  0
  8  9  1  0
  9 10  1  0
 10 11  1  0
 11 12  1  0
 12 13  1  0
 13 14  2  0
 14 15  1  0
 15 16  2  0
 16 17  1  0
 17 18  1  0
 17 19  2  0
  2 20  1  0
 20 21  2  0
 21 22  1  0
 22 23  2  0
 23 24  1  0
 24 25  2  0
 25 26  1  0
 25 27  1  0
 27 28  2  0
 28 29  1  0
 29 30  2  0
 12  7  1  0
 19 13  1  0
 30 20  1  0
 29 23  1  0
  3 31  1  0
  4 32  1  0
  4 33  1  0
  8 34  1  0
  8 35  1  0
  9 36  1  0
  9 37  1  0
 10 38  1  0
 10 39  1  0
 11 40  1  0
 11 41  1  0
 12 42  1  6
 14 43  1  0
 15 44  1  0
 16 45  1  0
 19 46  1  0
 21 47  1  0
 22 48  1  0
 24 49  1  0
 27 50  1  0
 28 51  1  0
M  END
>  <smiles>  (46) 
O=C(NCC(=O)N1CCCCC1c1cccc(Cl)c1)c1ccc2cc(F)ccc2n1

>  <score_type>  (46) 
oracle

>  <origin>  (46) 
autodockgpu

>  <m_score__min__energy>  (46) 
-9.3399999999999999

>  <m_primary>  (46) 
energy

>  <rmsd>  (46) 
8.61854062006194

>  <m_score__min__rmsd>  (46) 
8.61854062006194

>  <meeko>  (46) 
{"free_energy": -8.25, "intermolecular_energy": -9.74, "internal_energy": -2.12, "cluster_size": 1, "cluster_id": 4, "rank_in_cluster": 1}

>  <energy>  (46) 
-8.02

>  <cluster_rmsd>  (46) 
1.94

>  <cluster>  (46) 
3

$$$$

     RDKit          3D

 51 54  0  0  0  0  0  0  0  0999 V2000
  140.2370   71.8680  221.0000 O   0  0  0  0  0  0  0  0  0  0  0  0
  139.9860   72.3270  222.1620 C   0  0  0  0  0  0  0  0  0  0  0  0
  139.6900   73.7260  222.3520 N   0  0  0  0  0  0  0  0  0  0  0  0
  139.6750   74.6360  221.1970 C   0  0  0  0  0  0  0  0  0  0  0  0
  140.8900   75.4480  221.1580 C   0  0  0  0  0  0  0  0  0  0  0  0
  141.4290   75.6810  222.3160 O   0  0  0  0  0  0  0  0  0  0  0  0
  141.5540   76.0100  220.0740 N   0  0  0  0  0  0  0  0  0  0  0  0
  141.0660   77.3700  219.6720 C   0  0  0  0  0  0  0  0  0  0  0  0
  141.0760   77.3270  218.1390 C   0  0  0  0  0  0  0  0  0  0  0  0
  140.7810   75.9460  217.6390 C   0  0  0  0  0  0  0  0  0  0  0  0
  141.8740   74.9630  217.9910 C   0  0  0  0  0  0  0  0  0  0  0  0
  142.5930   75.5060  219.2370 C   0  0  2  0  0  0  0  0  0  0  0  0
  143.5390   74.5510  219.7740 C   0  0  0  0  0  0  0  0  0  0  0  0
  144.6550   74.9040  220.4980 C   0  0  0  0  0  0  0  0  0  0  0  0
  145.5580   73.9980  221.0090 C   0  0  0  0  0  0  0  0  0  0  0  0
  145.3780   72.6480  220.8090 C   0  0  0  0  0  0  0  0  0  0  0  0
  144.2730   72.2560  220.0900 C   0  0  0  0  0  0  0  0  0  0  0  0
  144.0490   70.5350  219.8400 Cl  0  0  0  0  0  0  0  0  0  0  0  0
  143.3570   73.1780  219.5720 C   0  0  0  0  0  0  0  0  0  0  0  0
  139.9920   71.4460  223.3370 C   0  0  0  0  0  0  0  0  0  0  0  0
  139.5560   70.1470  223.1830 C   0  0  0  0  0  0  0  0  0  0  0  0
  139.5730   69.3430  224.3050 C   0  0  0  0  0  0  0  0  0  0  0  0
  140.0010   69.7910  225.5370 C   0  0  0  0  0  0  0  0  0  0  0  0
  140.0160   68.9880  226.6480 C   0  0  0  0  0  0  0  0  0  0  0  0
  140.4490   69.4570  227.8780 C   0  0  0  0  0  0  0  0  0  0  0  0
  140.4590   68.6540  228.9670 F   0  0  0  0  0  0  0  0  0  0  0  0
  140.8740   70.7660  227.9720 C   0  0  0  0  0  0  0  0  0  0  0  0
  140.8580   71.5770  226.8450 C   0  0  0  0  0  0  0  0  0  0  0  0
  140.4220   71.1020  225.6150 C   0  0  0  0  0  0  0  0  0  0  0  0
  140.4090   71.8810  224.5390 N   0  0  0  0  0  0  0  0  0  0  0  0
  139.4960   74.0350  223.3210 H   0  0  0  0  0  0  0  0  0  0  0  0
  139.6076   74.0437  220.2725 H   0  0  0  0  0  0  0  0  0  0  0  0
  138.8070   75.3056  221.2879 H   0  0  0  0  0  0  0  0  0  0  0  0
  140.0493   77.5491  220.0519 H   0  0  0  0  0  0  0  0  0  0  0  0
  141.6884   78.1812  220.0778 H   0  0  0  0  0  0  0  0  0  0  0  0
  140.3126   78.0195  217.7547 H   0  0  0  0  0  0  0  0  0  0  0  0
  142.0756   77.6214  217.7866 H   0  0  0  0  0  0  0  0  0  0  0  0
  139.8375   75.6015  218.0874 H   0  0  0  0  0  0  0  0  0  0  0  0
  140.7109   75.9929  216.5422 H   0  0  0  0  0  0  0  0  0  0  0  0
  141.4378   73.9767  218.2079 H   0  0  0  0  0  0  0  0  0  0  0  0
  142.5784   74.8475  217.1541 H   0  0  0  0  0  0  0  0  0  0  0  0
  143.2817   76.3431  219.0498 H   0  0  0  0  0  0  0  0  0  0  0  0
  144.8367   75.9736  220.6794 H   0  0  0  0  0  0  0  0  0  0  0  0
  146.4277   74.3552  221.5800 H   0  0  0  0  0  0  0  0  0  0  0  0
  146.0903   71.9113  221.2088 H   0  0  0  0  0  0  0  0  0  0  0  0
  142.4869   72.8210  219.0015 H   0  0  0  0  0  0  0  0  0  0  0  0
  139.2102   69.7684  222.2098 H   0  0  0  0  0  0  0  0  0  0  0  0
  139.2309   68.3017  224.2125 H   0  0  0  0  0  0  0  0  0  0  0  0
  139.6759   67.9455  226.5609 H   0  0  0  0  0  0  0  0  0  0  0  0
  141.2239   71.1655  228.9353 H   0  0  0  0  0  0  0  0  0  0  0  0
  141.1985   72.6196  226.9284 H   0  0  0  0  0  0  0  0  0  0  0  0
  1  2  2  0
  2  3  1  0
  3  4  1  0
  4  5  1  0
  5  6  2  0
  5  7  1  0
  7  8  1  0
  8  9  1  0
  9 10  1  0
 10 11  1  0
 11 12  1  0
 12 13  1  0
 13 14  2  0
 14 15  1  0
 15 16  2  0
 16 17  1  0
 17 18  1  0
 17 19  2  0
  2 20  1  0
 20 21  2  0
 21 22  1  0
 22 23  2  0
 23 24  1  0
 24 25  2  0
 25 26  1  0
 25 27  1  0
 27 28  2  0
 28 29  1  0
 29 30  2  0
 12  7  1  0
 19 13  1  0
 30 20  1  0
 29 23  1  0
  3 31  1  0
  4 32  1  0
  4 33  1  0
  8 34  1  0
  8 35  1  0
  9 36  1  0
  9 37  1  0
 10 38  1  0
 10 39  1  0
 11 40  1  0
 11 41  1  0
 12 42  1  6
 14 43  1  0
 15 44  1  0
 16 45  1  0
 19 46  1  0
 21 47  1  0
 22 48  1  0
 24 49  1  0
 27 50  1  0
 28 51  1  0
M  END
>  <smiles>  (47) 
O=C(NCC(=O)N1CCCCC1c1cccc(Cl)c1)c1ccc2cc(F)ccc2n1

>  <score_type>  (47) 
oracle

>  <origin>  (47) 
autodockgpu

>  <m_score__min__energy>  (47) 
-9.3399999999999999

>  <m_primary>  (47) 
energy

>  <rmsd>  (47) 
1.9853311746055082

>  <m_score__min__rmsd>  (47) 
1.9853311746055082

>  <meeko>  (47) 
{"free_energy": -8.04, "intermolecular_energy": -9.53, "internal_energy": -2.08, "cluster_size": 24, "cluster_id": 2, "rank_in_cluster": 23}

>  <energy>  (47) 
-8.25

>  <cluster_rmsd>  (47) 
0.0

>  <cluster>  (47) 
4

$$$$

     RDKit          3D

 51 54  0  0  0  0  0  0  0  0999 V2000
  134.0680   69.7250  226.4370 O   0  0  0  0  0  0  0  0  0  0  0  0
  134.3150   70.9040  226.0190 C   0  0  0  0  0  0  0  0  0  0  0  0
  135.3750   71.1400  225.0710 N   0  0  0  0  0  0  0  0  0  0  0  0
  136.1820   70.0140  224.5760 C   0  0  0  0  0  0  0  0  0  0  0  0
  137.2510   70.4870  223.6990 C   0  0  0  0  0  0  0  0  0  0  0  0
  137.1530   71.7290  223.3360 O   0  0  0  0  0  0  0  0  0  0  0  0
  138.3540   69.8090  223.1920 N   0  0  0  0  0  0  0  0  0  0  0  0
  138.5910   70.0000  221.7230 C   0  0  0  0  0  0  0  0  0  0  0  0
  139.0000   68.6050  221.2320 C   0  0  0  0  0  0  0  0  0  0  0  0
  138.3180   67.5350  222.0270 C   0  0  0  0  0  0  0  0  0  0  0  0
  138.7760   67.5110  223.4670 C   0  0  0  0  0  0  0  0  0  0  0  0
  139.2840   68.9210  223.8100 C   0  0  2  0  0  0  0  0  0  0  0  0
  139.5740   69.0630  225.2210 C   0  0  0  0  0  0  0  0  0  0  0  0
  139.3840   68.0620  226.1450 C   0  0  0  0  0  0  0  0  0  0  0  0
  139.6580   68.1940  227.4890 C   0  0  0  0  0  0  0  0  0  0  0  0
  140.1520   69.3790  227.9840 C   0  0  0  0  0  0  0  0  0  0  0  0
  140.3570   70.4040  227.0900 C   0  0  0  0  0  0  0  0  0  0  0  0
  140.9870   71.9110  227.7280 Cl  0  0  0  0  0  0  0  0  0  0  0  0
  140.0780   70.2670  225.7260 C   0  0  0  0  0  0  0  0  0  0  0  0
  133.5280   72.0500  226.4930 C   0  0  0  0  0  0  0  0  0  0  0  0
  132.3410   71.8030  227.1490 C   0  0  0  0  0  0  0  0  0  0  0  0
  131.6240   72.9000  227.5820 C   0  0  0  0  0  0  0  0  0  0  0  0
  132.0500   74.1960  227.3820 C   0  0  0  0  0  0  0  0  0  0  0  0
  131.3340   75.2820  227.8140 C   0  0  0  0  0  0  0  0  0  0  0  0
  131.7800   76.5780  227.6010 C   0  0  0  0  0  0  0  0  0  0  0  0
  131.0630   77.6410  228.0330 F   0  0  0  0  0  0  0  0  0  0  0  0
  132.9750   76.7630  226.9390 C   0  0  0  0  0  0  0  0  0  0  0  0
  133.6980   75.6610  226.5020 C   0  0  0  0  0  0  0  0  0  0  0  0
  133.2480   74.3660  226.7170 C   0  0  0  0  0  0  0  0  0  0  0  0
  133.9430   73.3140  226.2980 N   0  0  0  0  0  0  0  0  0  0  0  0
  135.5250   72.1210  224.7730 H   0  0  0  0  0  0  0  0  0  0  0  0
  136.6257   69.4846  225.4321 H   0  0  0  0  0  0  0  0  0  0  0  0
  135.5299   69.3379  224.0036 H   0  0  0  0  0  0  0  0  0  0  0  0
  137.6738   70.3391  221.2192 H   0  0  0  0  0  0  0  0  0  0  0  0
  139.3528   70.7649  221.5116 H   0  0  0  0  0  0  0  0  0  0  0  0
  138.7204   68.5000  220.1733 H   0  0  0  0  0  0  0  0  0  0  0  0
  140.0874   68.4946  221.3562 H   0  0  0  0  0  0  0  0  0  0  0  0
  137.2329   67.7142  222.0038 H   0  0  0  0  0  0  0  0  0  0  0  0
  138.5745   66.5651  221.5759 H   0  0  0  0  0  0  0  0  0  0  0  0
  137.9358   67.2435  224.1246 H   0  0  0  0  0  0  0  0  0  0  0  0
  139.5721   66.7654  223.6096 H   0  0  0  0  0  0  0  0  0  0  0  0
  140.2762   69.1704  223.4058 H   0  0  0  0  0  0  0  0  0  0  0  0
  138.9897   67.0985  225.7898 H   0  0  0  0  0  0  0  0  0  0  0  0
  139.4810   67.3480  228.1694 H   0  0  0  0  0  0  0  0  0  0  0  0
  140.3745   69.5020  229.0542 H   0  0  0  0  0  0  0  0  0  0  0  0
  140.2562   71.1123  225.0450 H   0  0  0  0  0  0  0  0  0  0  0  0
  131.9814   70.7776  227.3197 H   0  0  0  0  0  0  0  0  0  0  0  0
  130.6728   72.7334  228.1087 H   0  0  0  0  0  0  0  0  0  0  0  0
  130.3826   75.1219  228.3424 H   0  0  0  0  0  0  0  0  0  0  0  0
  133.3542   77.7795  226.7577 H   0  0  0  0  0  0  0  0  0  0  0  0
  134.6496   75.8182  225.9731 H   0  0  0  0  0  0  0  0  0  0  0  0
  1  2  2  0
  2  3  1  0
  3  4  1  0
  4  5  1  0
  5  6  2  0
  5  7  1  0
  7  8  1  0
  8  9  1  0
  9 10  1  0
 10 11  1  0
 11 12  1  0
 12 13  1  0
 13 14  2  0
 14 15  1  0
 15 16  2  0
 16 17  1  0
 17 18  1  0
 17 19  2  0
  2 20  1  0
 20 21  2  0
 21 22  1  0
 22 23  2  0
 23 24  1  0
 24 25  2  0
 25 26  1  0
 25 27  1  0
 27 28  2  0
 28 29  1  0
 29 30  2  0
 12  7  1  0
 19 13  1  0
 30 20  1  0
 29 23  1  0
  3 31  1  0
  4 32  1  0
  4 33  1  0
  8 34  1  0
  8 35  1  0
  9 36  1  0
  9 37  1  0
 10 38  1  0
 10 39  1  0
 11 40  1  0
 11 41  1  0
 12 42  1  6
 14 43  1  0
 15 44  1  0
 16 45  1  0
 19 46  1  0
 21 47  1  0
 22 48  1  0
 24 49  1  0
 27 50  1  0
 28 51  1  0
M  END
>  <smiles>  (48) 
O=C(NCC(=O)N1CCCCC1c1cccc(Cl)c1)c1ccc2cc(F)ccc2n1

>  <score_type>  (48) 
oracle

>  <origin>  (48) 
autodockgpu

>  <m_score__min__energy>  (48) 
-9.3399999999999999

>  <m_primary>  (48) 
energy

>  <rmsd>  (48) 
8.573328628922837

>  <m_score__min__rmsd>  (48) 
8.573328628922837

>  <meeko>  (48) 
{"free_energy": -8.38, "intermolecular_energy": -9.88, "internal_energy": -2.25, "cluster_size": 4, "cluster_id": 3, "rank_in_cluster": 1}

>  <energy>  (48) 
-7.13

>  <cluster_rmsd>  (48) 
0.0

>  <cluster>  (48) 
5

$$$$

     RDKit          3D

 51 54  0  0  0  0  0  0  0  0999 V2000
  140.6930   72.0010  221.2290 O   0  0  0  0  0  0  0  0  0  0  0  0
  139.9420   72.2360  222.2320 C   0  0  0  0  0  0  0  0  0  0  0  0
  139.0390   73.3600  222.2270 N   0  0  0  0  0  0  0  0  0  0  0  0
  138.9800   74.2480  221.0550 C   0  0  0  0  0  0  0  0  0  0  0  0
  140.1500   75.1230  221.0060 C   0  0  0  0  0  0  0  0  0  0  0  0
  140.9830   74.9770  221.9900 O   0  0  0  0  0  0  0  0  0  0  0  0
  140.5040   76.0880  220.0700 N   0  0  0  0  0  0  0  0  0  0  0  0
  140.2670   75.6990  218.6420 C   0  0  0  0  0  0  0  0  0  0  0  0
  141.5000   76.2360  217.9040 C   0  0  0  0  0  0  0  0  0  0  0  0
  142.7100   76.2020  218.7860 C   0  0  0  0  0  0  0  0  0  0  0  0
  142.5970   77.1560  219.9530 C   0  0  0  0  0  0  0  0  0  0  0  0
  141.0990   77.3760  220.2210 C   0  0  2  0  0  0  0  0  0  0  0  0
  140.8720   78.1280  221.4370 C   0  0  0  0  0  0  0  0  0  0  0  0
  139.6800   78.1290  222.1240 C   0  0  0  0  0  0  0  0  0  0  0  0
  139.4600   78.8450  223.2800 C   0  0  0  0  0  0  0  0  0  0  0  0
  140.4610   79.6210  223.8190 C   0  0  0  0  0  0  0  0  0  0  0  0
  141.6680   79.6450  223.1600 C   0  0  0  0  0  0  0  0  0  0  0  0
  142.9390   80.6360  223.8520 Cl  0  0  0  0  0  0  0  0  0  0  0  0
  141.8890   78.9180  221.9860 C   0  0  0  0  0  0  0  0  0  0  0  0
  139.9760   71.3690  223.4180 C   0  0  0  0  0  0  0  0  0  0  0  0
  139.4770   70.0880  223.3060 C   0  0  0  0  0  0  0  0  0  0  0  0
  139.5220   69.2980  224.4370 C   0  0  0  0  0  0  0  0  0  0  0  0
  140.0360   69.7420  225.6370 C   0  0  0  0  0  0  0  0  0  0  0  0
  140.0780   68.9520  226.7570 C   0  0  0  0  0  0  0  0  0  0  0  0
  140.5980   69.4180  227.9550 C   0  0  0  0  0  0  0  0  0  0  0  0
  140.6340   68.6280  229.0520 F   0  0  0  0  0  0  0  0  0  0  0  0
  141.0820   70.7080  228.0060 C   0  0  0  0  0  0  0  0  0  0  0  0
  141.0380   71.5050  226.8700 C   0  0  0  0  0  0  0  0  0  0  0  0
  140.5160   71.0350  225.6730 C   0  0  0  0  0  0  0  0  0  0  0  0
  140.4760   71.8010  224.5890 N   0  0  0  0  0  0  0  0  0  0  0  0
  138.4570   73.4960  223.0720 H   0  0  0  0  0  0  0  0  0  0  0  0
  138.9484   73.6368  220.1409 H   0  0  0  0  0  0  0  0  0  0  0  0
  138.0769   74.8715  221.1307 H   0  0  0  0  0  0  0  0  0  0  0  0
  140.1955   74.6060  218.5408 H   0  0  0  0  0  0  0  0  0  0  0  0
  139.3246   76.1025  218.2431 H   0  0  0  0  0  0  0  0  0  0  0  0
  141.6855   75.6158  217.0147 H   0  0  0  0  0  0  0  0  0  0  0  0
  141.3076   77.2792  217.6128 H   0  0  0  0  0  0  0  0  0  0  0  0
  142.8355   75.1808  219.1750 H   0  0  0  0  0  0  0  0  0  0  0  0
  143.5755   76.5112  218.1815 H   0  0  0  0  0  0  0  0  0  0  0  0
  143.0786   76.7221  220.8417 H   0  0  0  0  0  0  0  0  0  0  0  0
  143.0959   78.1097  219.7259 H   0  0  0  0  0  0  0  0  0  0  0  0
  140.5907   78.0442  219.5103 H   0  0  0  0  0  0  0  0  0  0  0  0
  138.8534   77.5218  221.7264 H   0  0  0  0  0  0  0  0  0  0  0  0
  138.4790   78.7964  223.7752 H   0  0  0  0  0  0  0  0  0  0  0  0
  140.3018   80.1995  224.7410 H   0  0  0  0  0  0  0  0  0  0  0  0
  142.8696   78.9673  221.4900 H   0  0  0  0  0  0  0  0  0  0  0  0
  139.0622   69.7131  222.3587 H   0  0  0  0  0  0  0  0  0  0  0  0
  139.1315   68.2713  224.3786 H   0  0  0  0  0  0  0  0  0  0  0  0
  139.6899   67.9241  226.7039 H   0  0  0  0  0  0  0  0  0  0  0  0
  141.5012   71.1040  228.9427 H   0  0  0  0  0  0  0  0  0  0  0  0
  141.4260   72.5331  226.9199 H   0  0  0  0  0  0  0  0  0  0  0  0
  1  2  2  0
  2  3  1  0
  3  4  1  0
  4  5  1  0
  5  6  2  0
  5  7  1  0
  7  8  1  0
  8  9  1  0
  9 10  1  0
 10 11  1  0
 11 12  1  0
 12 13  1  0
 13 14  2  0
 14 15  1  0
 15 16  2  0
 16 17  1  0
 17 18  1  0
 17 19  2  0
  2 20  1  0
 20 21  2  0
 21 22  1  0
 22 23  2  0
 23 24  1  0
 24 25  2  0
 25 26  1  0
 25 27  1  0
 27 28  2  0
 28 29  1  0
 29 30  2  0
 12  7  1  0
 19 13  1  0
 30 20  1  0
 29 23  1  0
  3 31  1  0
  4 32  1  0
  4 33  1  0
  8 34  1  0
  8 35  1  0
  9 36  1  0
  9 37  1  0
 10 38  1  0
 10 39  1  0
 11 40  1  0
 11 41  1  0
 12 42  1  6
 14 43  1  0
 15 44  1  0
 16 45  1  0
 19 46  1  0
 21 47  1  0
 22 48  1  0
 24 49  1  0
 27 50  1  0
 28 51  1  0
M  END
>  <smiles>  (49) 
O=C(NCC(=O)N1CCCCC1c1cccc(Cl)c1)c1ccc2cc(F)ccc2n1

>  <score_type>  (49) 
oracle

>  <origin>  (49) 
autodockgpu

>  <m_score__min__energy>  (49) 
-9.3399999999999999

>  <m_primary>  (49) 
energy

>  <rmsd>  (49) 
1.3598082273189254

>  <m_score__min__rmsd>  (49) 
1.3598082273189254

>  <meeko>  (49) 
{"free_energy": -9.28, "intermolecular_energy": -10.78, "internal_energy": -1.47, "cluster_size": 18, "cluster_id": 1, "rank_in_cluster": 2}

>  <energy>  (49) 
-7.13

>  <cluster_rmsd>  (49) 
0.22

>  <cluster>  (49) 
5

$$$$

     RDKit          3D

 51 54  0  0  0  0  0  0  0  0999 V2000
  140.8470   72.2600  221.4360 O   0  0  0  0  0  0  0  0  0  0  0  0
  139.9690   72.3510  222.3550 C   0  0  0  0  0  0  0  0  0  0  0  0
  138.9240   73.3420  222.2760 N   0  0  0  0  0  0  0  0  0  0  0  0
  138.8660   74.2580  221.1270 C   0  0  0  0  0  0  0  0  0  0  0  0
  139.9930   75.1890  221.1450 C   0  0  0  0  0  0  0  0  0  0  0  0
  140.7080   75.1600  222.2280 O   0  0  0  0  0  0  0  0  0  0  0  0
  140.4120   76.1020  220.1840 N   0  0  0  0  0  0  0  0  0  0  0  0
  140.1880   75.6720  218.7650 C   0  0  0  0  0  0  0  0  0  0  0  0
  141.4610   76.1240  218.0380 C   0  0  0  0  0  0  0  0  0  0  0  0
  142.6480   76.0650  218.9490 C   0  0  0  0  0  0  0  0  0  0  0  0
  142.5560   77.0660  220.0780 C   0  0  0  0  0  0  0  0  0  0  0  0
  141.0640   77.3650  220.3030 C   0  0  2  0  0  0  0  0  0  0  0  0
  140.8470   78.1710  221.4850 C   0  0  0  0  0  0  0  0  0  0  0  0
  139.6460   78.2400  222.1530 C   0  0  0  0  0  0  0  0  0  0  0  0
  139.4350   79.0080  223.2780 C   0  0  0  0  0  0  0  0  0  0  0  0
  140.4560   79.7670  223.8020 C   0  0  0  0  0  0  0  0  0  0  0  0
  141.6720   79.7230  223.1620 C   0  0  0  0  0  0  0  0  0  0  0  0
  142.9680   80.6940  223.8370 Cl  0  0  0  0  0  0  0  0  0  0  0  0
  141.8840   78.9440  222.0210 C   0  0  0  0  0  0  0  0  0  0  0  0
  139.9980   71.4530  223.5170 C   0  0  0  0  0  0  0  0  0  0  0  0
  139.5220   70.1680  223.3620 C   0  0  0  0  0  0  0  0  0  0  0  0
  139.5620   69.3480  224.4710 C   0  0  0  0  0  0  0  0  0  0  0  0
  140.0490   69.7660  225.6910 C   0  0  0  0  0  0  0  0  0  0  0  0
  140.0860   68.9470  226.7900 C   0  0  0  0  0  0  0  0  0  0  0  0
  140.5790   69.3870  228.0090 C   0  0  0  0  0  0  0  0  0  0  0  0
  140.6110   68.5680  229.0850 F   0  0  0  0  0  0  0  0  0  0  0  0
  141.0420   70.6830  228.1030 C   0  0  0  0  0  0  0  0  0  0  0  0
  141.0030   71.5100  226.9890 C   0  0  0  0  0  0  0  0  0  0  0  0
  140.5080   71.0650  225.7710 C   0  0  0  0  0  0  0  0  0  0  0  0
  140.4730   71.8600  224.7070 N   0  0  0  0  0  0  0  0  0  0  0  0
  138.2430   73.3650  223.0560 H   0  0  0  0  0  0  0  0  0  0  0  0
  138.8980   73.6716  220.1969 H   0  0  0  0  0  0  0  0  0  0  0  0
  137.9317   74.8358  221.1848 H   0  0  0  0  0  0  0  0  0  0  0  0
  140.0673   74.5805  218.7011 H   0  0  0  0  0  0  0  0  0  0  0  0
  139.2746   76.1036  218.3298 H   0  0  0  0  0  0  0  0  0  0  0  0
  141.6363   75.4643  217.1754 H   0  0  0  0  0  0  0  0  0  0  0  0
  141.3249   77.1638  217.7060 H   0  0  0  0  0  0  0  0  0  0  0  0
  142.7151   75.0541  219.3774 H   0  0  0  0  0  0  0  0  0  0  0  0
  143.5405   76.3099  218.3545 H   0  0  0  0  0  0  0  0  0  0  0  0
  142.9975   76.6435  220.9927 H   0  0  0  0  0  0  0  0  0  0  0  0
  143.1045   77.9863  219.8285 H   0  0  0  0  0  0  0  0  0  0  0  0
  140.6030   78.0292  219.5571 H   0  0  0  0  0  0  0  0  0  0  0  0
  138.8042   77.6470  221.7662 H   0  0  0  0  0  0  0  0  0  0  0  0
  138.4458   79.0141  223.7591 H   0  0  0  0  0  0  0  0  0  0  0  0
  140.3051   80.3856  224.6990 H   0  0  0  0  0  0  0  0  0  0  0  0
  142.8734   78.9382  221.5404 H   0  0  0  0  0  0  0  0  0  0  0  0
  139.1284   69.8129  222.3982 H   0  0  0  0  0  0  0  0  0  0  0  0
  139.1895   68.3172  224.3776 H   0  0  0  0  0  0  0  0  0  0  0  0
  139.7153   67.9150  226.7024 H   0  0  0  0  0  0  0  0  0  0  0  0
  141.4404   71.0594  229.0567 H   0  0  0  0  0  0  0  0  0  0  0  0
  141.3731   72.5424  227.0734 H   0  0  0  0  0  0  0  0  0  0  0  0
  1  2  2  0
  2  3  1  0
  3  4  1  0
  4  5  1  0
  5  6  2  0
  5  7  1  0
  7  8  1  0
  8  9  1  0
  9 10  1  0
 10 11  1  0
 11 12  1  0
 12 13  1  0
 13 14  2  0
 14 15  1  0
 15 16  2  0
 16 17  1  0
 17 18  1  0
 17 19  2  0
  2 20  1  0
 20 21  2  0
 21 22  1  0
 22 23  2  0
 23 24  1  0
 24 25  2  0
 25 26  1  0
 25 27  1  0
 27 28  2  0
 28 29  1  0
 29 30  2  0
 12  7  1  0
 19 13  1  0
 30 20  1  0
 29 23  1  0
  3 31  1  0
  4 32  1  0
  4 33  1  0
  8 34  1  0
  8 35  1  0
  9 36  1  0
  9 37  1  0
 10 38  1  0
 10 39  1  0
 11 40  1  0
 11 41  1  0
 12 42  1  6
 14 43  1  0
 15 44  1  0
 16 45  1  0
 19 46  1  0
 21 47  1  0
 22 48  1  0
 24 49  1  0
 27 50  1  0
 28 51  1  0
M  END
>  <smiles>  (50) 
O=C(NCC(=O)N1CCCCC1c1cccc(Cl)c1)c1ccc2cc(F)ccc2n1

>  <score_type>  (50) 
oracle

>  <origin>  (50) 
autodockgpu

>  <m_score__min__energy>  (50) 
-9.3399999999999999

>  <m_primary>  (50) 
energy

>  <rmsd>  (50) 
1.3899562206420004

>  <m_score__min__rmsd>  (50) 
1.3899562206420004

>  <meeko>  (50) 
{"free_energy": -9.34, "intermolecular_energy": -10.83, "internal_energy": -1.46, "cluster_size": 18, "cluster_id": 1, "rank_in_cluster": 1}

>  <energy>  (50) 
-7.12

>  <cluster_rmsd>  (50) 
0.47

>  <cluster>  (50) 
5

$$$$

     RDKit          3D

 51 54  0  0  0  0  0  0  0  0999 V2000
  140.3910   71.4810  221.1110 O   0  0  0  0  0  0  0  0  0  0  0  0
  140.0870   72.0210  222.1990 C   0  0  0  0  0  0  0  0  0  0  0  0
  139.7690   73.4010  222.3380 N   0  0  0  0  0  0  0  0  0  0  0  0
  139.7830   74.2770  221.1830 C   0  0  0  0  0  0  0  0  0  0  0  0
  139.6920   75.6890  221.6330 C   0  0  0  0  0  0  0  0  0  0  0  0
  139.1500   75.8780  222.7660 O   0  0  0  0  0  0  0  0  0  0  0  0
  140.1860   76.7680  220.8370 N   0  0  0  0  0  0  0  0  0  0  0  0
  139.4170   77.1680  219.7040 C   0  0  0  0  0  0  0  0  0  0  0  0
  140.2650   77.6400  218.5460 C   0  0  0  0  0  0  0  0  0  0  0  0
  141.5130   78.3500  219.0230 C   0  0  0  0  0  0  0  0  0  0  0  0
  142.2780   77.4890  220.0040 C   0  0  0  0  0  0  0  0  0  0  0  0
  141.4380   77.3680  221.2540 C   0  0  1  0  0  0  0  0  0  0  0  0
  141.3140   78.6770  221.8810 C   0  0  0  0  0  0  0  0  0  0  0  0
  142.4720   79.2420  222.4260 C   0  0  0  0  0  0  0  0  0  0  0  0
  142.4720   80.4710  223.0320 C   0  0  0  0  0  0  0  0  0  0  0  0
  141.3200   81.2170  223.1340 C   0  0  0  0  0  0  0  0  0  0  0  0
  140.1610   80.6830  222.6030 C   0  0  0  0  0  0  0  0  0  0  0  0
  138.6880   81.6210  222.7250 Cl  0  0  0  0  0  0  0  0  0  0  0  0
  140.1730   79.4280  221.9880 C   0  0  0  0  0  0  0  0  0  0  0  0
  140.0560   71.1820  223.4100 C   0  0  0  0  0  0  0  0  0  0  0  0
  139.5670   69.8950  223.3720 C   0  0  0  0  0  0  0  0  0  0  0  0
  139.5140   69.0650  224.4710 C   0  0  0  0  0  0  0  0  0  0  0  0
  139.9740   69.5550  225.6610 C   0  0  0  0  0  0  0  0  0  0  0  0
  139.9190   68.7240  226.7600 C   0  0  0  0  0  0  0  0  0  0  0  0
  140.3860   69.2260  227.9570 C   0  0  0  0  0  0  0  0  0  0  0  0
  140.3510   68.4450  229.0570 F   0  0  0  0  0  0  0  0  0  0  0  0
  140.8770   70.5060  228.0140 C   0  0  0  0  0  0  0  0  0  0  0  0
  140.9200   71.3190  226.8980 C   0  0  0  0  0  0  0  0  0  0  0  0
  140.4600   70.8380  225.6930 C   0  0  0  0  0  0  0  0  0  0  0  0
  140.5010   71.6330  224.5950 N   0  0  0  0  0  0  0  0  0  0  0  0
  139.5240   73.7630  223.3060 H   0  0  0  0  0  0  0  0  0  0  0  0
  140.7180   74.1301  220.6225 H   0  0  0  0  0  0  0  0  0  0  0  0
  138.9264   74.0426  220.5340 H   0  0  0  0  0  0  0  0  0  0  0  0
  138.8148   76.3103  219.3697 H   0  0  0  0  0  0  0  0  0  0  0  0
  138.7901   78.0159  220.0171 H   0  0  0  0  0  0  0  0  0  0  0  0
  140.5586   76.7698  217.9405 H   0  0  0  0  0  0  0  0  0  0  0  0
  139.6712   78.3498  217.9514 H   0  0  0  0  0  0  0  0  0  0  0  0
  142.1560   78.5698  218.1580 H   0  0  0  0  0  0  0  0  0  0  0  0
  141.2180   79.2823  219.5268 H   0  0  0  0  0  0  0  0  0  0  0  0
  142.4537   76.4928  219.5718 H   0  0  0  0  0  0  0  0  0  0  0  0
  143.2542   77.9399  220.2356 H   0  0  0  0  0  0  0  0  0  0  0  0
  141.8832   76.7279  222.0299 H   0  0  0  0  0  0  0  0  0  0  0  0
  143.4156   78.6799  222.3659 H   0  0  0  0  0  0  0  0  0  0  0  0
  143.4107   80.8689  223.4448 H   0  0  0  0  0  0  0  0  0  0  0  0
  141.3216   82.2034  223.6209 H   0  0  0  0  0  0  0  0  0  0  0  0
  139.2342   79.0295  221.5758 H   0  0  0  0  0  0  0  0  0  0  0  0
  139.1981   69.5079  222.4107 H   0  0  0  0  0  0  0  0  0  0  0  0
  139.1150   68.0429  224.3930 H   0  0  0  0  0  0  0  0  0  0  0  0
  139.5189   67.7021  226.6852 H   0  0  0  0  0  0  0  0  0  0  0  0
  141.2463   70.8953  228.9743 H   0  0  0  0  0  0  0  0  0  0  0  0
  141.3183   72.3417  226.9716 H   0  0  0  0  0  0  0  0  0  0  0  0
  1  2  2  0
  2  3  1  0
  3  4  1  0
  4  5  1  0
  5  6  2  0
  5  7  1  0
  7  8  1  0
  8  9  1  0
  9 10  1  0
 10 11  1  0
 11 12  1  0
 12 13  1  0
 13 14  2  0
 14 15  1  0
 15 16  2  0
 16 17  1  0
 17 18  1  0
 17 19  2  0
  2 20  1  0
 20 21  2  0
 21 22  1  0
 22 23  2  0
 23 24  1  0
 24 25  2  0
 25 26  1  0
 25 27  1  0
 27 28  2  0
 28 29  1  0
 29 30  2  0
 12  7  1  0
 19 13  1  0
 30 20  1  0
 29 23  1  0
  3 31  1  0
  4 32  1  0
  4 33  1  0
  8 34  1  0
  8 35  1  0
  9 36  1  0
  9 37  1  0
 10 38  1  0
 10 39  1  0
 11 40  1  0
 11 41  1  0
 12 42  1  1
 14 43  1  0
 15 44  1  0
 16 45  1  0
 19 46  1  0
 21 47  1  0
 22 48  1  0
 24 49  1  0
 27 50  1  0
 28 51  1  0
M  END
>  <smiles>  (51) 
O=C(NCC(=O)N1CCCCC1c1cccc(Cl)c1)c1ccc2cc(F)ccc2n1

>  <score_type>  (51) 
oracle

>  <origin>  (51) 
autodockgpu

>  <m_score__min__energy>  (51) 
-9.2799999999999994

>  <m_primary>  (51) 
energy

>  <rmsd>  (51) 
1.6964025213636345

>  <m_score__min__rmsd>  (51) 
1.6964025213636345

>  <meeko>  (51) 
{"free_energy": -8.71, "intermolecular_energy": -10.2, "internal_energy": -2.06, "cluster_size": 36, "cluster_id": 1, "rank_in_cluster": 29}

>  <energy>  (51) 
-9.28

>  <cluster_rmsd>  (51) 
0.0

>  <cluster>  (51) 
1

$$$$

     RDKit          3D

 51 54  0  0  0  0  0  0  0  0999 V2000
  140.6030   71.4280  221.2470 O   0  0  0  0  0  0  0  0  0  0  0  0
  140.2210   71.9530  222.3190 C   0  0  0  0  0  0  0  0  0  0  0  0
  139.8580   73.3220  222.4470 N   0  0  0  0  0  0  0  0  0  0  0  0
  139.9150   74.2060  221.2990 C   0  0  0  0  0  0  0  0  0  0  0  0
  139.5690   75.5870  221.7230 C   0  0  0  0  0  0  0  0  0  0  0  0
  138.7970   75.6840  222.7260 O   0  0  0  0  0  0  0  0  0  0  0  0
  140.0770   76.7350  221.0390 N   0  0  0  0  0  0  0  0  0  0  0  0
  139.3310   77.2370  219.9320 C   0  0  0  0  0  0  0  0  0  0  0  0
  140.2010   77.8140  218.8400 C   0  0  0  0  0  0  0  0  0  0  0  0
  141.4370   78.4780  219.4060 C   0  0  0  0  0  0  0  0  0  0  0  0
  142.1840   77.5300  220.3190 C   0  0  0  0  0  0  0  0  0  0  0  0
  141.3180   77.2950  221.5360 C   0  0  1  0  0  0  0  0  0  0  0  0
  141.1780   78.5400  222.2770 C   0  0  0  0  0  0  0  0  0  0  0  0
  142.3280   79.3170  222.4530 C   0  0  0  0  0  0  0  0  0  0  0  0
  142.3100   80.5100  223.1270 C   0  0  0  0  0  0  0  0  0  0  0  0
  141.1460   81.0080  223.6680 C   0  0  0  0  0  0  0  0  0  0  0  0
  139.9940   80.2600  223.5080 C   0  0  0  0  0  0  0  0  0  0  0  0
  138.5060   80.8790  224.1910 Cl  0  0  0  0  0  0  0  0  0  0  0  0
  140.0260   79.0440  222.8200 C   0  0  0  0  0  0  0  0  0  0  0  0
  140.1420   71.1040  223.5210 C   0  0  0  0  0  0  0  0  0  0  0  0
  139.5710   69.8520  223.4730 C   0  0  0  0  0  0  0  0  0  0  0  0
  139.4690   69.0150  224.5630 C   0  0  0  0  0  0  0  0  0  0  0  0
  139.9670   69.4620  225.7560 C   0  0  0  0  0  0  0  0  0  0  0  0
  139.8640   68.6240  226.8460 C   0  0  0  0  0  0  0  0  0  0  0  0
  140.3690   69.0820  228.0460 C   0  0  0  0  0  0  0  0  0  0  0  0
  140.2900   68.2930  229.1380 F   0  0  0  0  0  0  0  0  0  0  0  0
  140.9420   70.3270  228.1130 C   0  0  0  0  0  0  0  0  0  0  0  0
  141.0320   71.1470  227.0060 C   0  0  0  0  0  0  0  0  0  0  0  0
  140.5350   70.7100  225.7990 C   0  0  0  0  0  0  0  0  0  0  0  0
  140.6220   71.5120  224.7080 N   0  0  0  0  0  0  0  0  0  0  0  0
  139.5460   73.6700  223.4010 H   0  0  0  0  0  0  0  0  0  0  0  0
  140.9309   74.1951  220.8773 H   0  0  0  0  0  0  0  0  0  0  0  0
  139.1992   73.8652  220.5365 H   0  0  0  0  0  0  0  0  0  0  0  0
  138.7380   76.4133  219.5079 H   0  0  0  0  0  0  0  0  0  0  0  0
  138.6960   78.0523  220.3088 H   0  0  0  0  0  0  0  0  0  0  0  0
  140.5092   77.0034  218.1633 H   0  0  0  0  0  0  0  0  0  0  0  0
  139.6176   78.5749  218.3009 H   0  0  0  0  0  0  0  0  0  0  0  0
  142.0970   78.7773  218.5785 H   0  0  0  0  0  0  0  0  0  0  0  0
  141.1295   79.3597  219.9875 H   0  0  0  0  0  0  0  0  0  0  0  0
  142.3700   76.5777  219.8007 H   0  0  0  0  0  0  0  0  0  0  0  0
  143.1548   77.9571  220.6107 H   0  0  0  0  0  0  0  0  0  0  0  0
  141.7483   76.5873  222.2599 H   0  0  0  0  0  0  0  0  0  0  0  0
  143.2802   78.9576  222.0357 H   0  0  0  0  0  0  0  0  0  0  0  0
  143.2437   81.0809  223.2380 H   0  0  0  0  0  0  0  0  0  0  0  0
  141.1329   81.9663  224.2080 H   0  0  0  0  0  0  0  0  0  0  0  0
  139.0931   78.4715  222.7107 H   0  0  0  0  0  0  0  0  0  0  0  0
  139.1736   69.4998  222.5097 H   0  0  0  0  0  0  0  0  0  0  0  0
  139.0034   68.0221  224.4767 H   0  0  0  0  0  0  0  0  0  0  0  0
  139.3983   67.6309  226.7626 H   0  0  0  0  0  0  0  0  0  0  0  0
  141.3405   70.6814  229.0751 H   0  0  0  0  0  0  0  0  0  0  0  0
  141.4967   72.1407  227.0878 H   0  0  0  0  0  0  0  0  0  0  0  0
  1  2  2  0
  2  3  1  0
  3  4  1  0
  4  5  1  0
  5  6  2  0
  5  7  1  0
  7  8  1  0
  8  9  1  0
  9 10  1  0
 10 11  1  0
 11 12  1  0
 12 13  1  0
 13 14  2  0
 14 15  1  0
 15 16  2  0
 16 17  1  0
 17 18  1  0
 17 19  2  0
  2 20  1  0
 20 21  2  0
 21 22  1  0
 22 23  2  0
 23 24  1  0
 24 25  2  0
 25 26  1  0
 25 27  1  0
 27 28  2  0
 28 29  1  0
 29 30  2  0
 12  7  1  0
 19 13  1  0
 30 20  1  0
 29 23  1  0
  3 31  1  0
  4 32  1  0
  4 33  1  0
  8 34  1  0
  8 35  1  0
  9 36  1  0
  9 37  1  0
 10 38  1  0
 10 39  1  0
 11 40  1  0
 11 41  1  0
 12 42  1  1
 14 43  1  0
 15 44  1  0
 16 45  1  0
 19 46  1  0
 21 47  1  0
 22 48  1  0
 24 49  1  0
 27 50  1  0
 28 51  1  0
M  END
>  <smiles>  (52) 
O=C(NCC(=O)N1CCCCC1c1cccc(Cl)c1)c1ccc2cc(F)ccc2n1

>  <score_type>  (52) 
oracle

>  <origin>  (52) 
autodockgpu

>  <m_score__min__energy>  (52) 
-9.2799999999999994

>  <m_primary>  (52) 
energy

>  <rmsd>  (52) 
1.8275361164464878

>  <m_score__min__rmsd>  (52) 
1.8275361164464878

>  <meeko>  (52) 
{"free_energy": -9.05, "intermolecular_energy": -10.54, "internal_energy": -1.99, "cluster_size": 36, "cluster_id": 1, "rank_in_cluster": 12}

>  <energy>  (52) 
-9.25

>  <cluster_rmsd>  (52) 
0.71

>  <cluster>  (52) 
1

$$$$

     RDKit          3D

 51 54  0  0  0  0  0  0  0  0999 V2000
  138.6070   74.7010  222.1850 O   0  0  0  0  0  0  0  0  0  0  0  0
  139.6480   75.2780  221.7930 C   0  0  0  0  0  0  0  0  0  0  0  0
  139.7670   76.6880  221.6460 N   0  0  0  0  0  0  0  0  0  0  0  0
  138.6470   77.5550  221.9570 C   0  0  0  0  0  0  0  0  0  0  0  0
  139.1280   78.7240  222.7350 C   0  0  0  0  0  0  0  0  0  0  0  0
  138.2910   79.2420  223.5360 O   0  0  0  0  0  0  0  0  0  0  0  0
  140.4560   79.2330  222.5880 N   0  0  0  0  0  0  0  0  0  0  0  0
  141.4850   78.6530  223.3880 C   0  0  0  0  0  0  0  0  0  0  0  0
  142.5450   79.6460  223.8060 C   0  0  0  0  0  0  0  0  0  0  0  0
  142.7820   80.6900  222.7360 C   0  0  0  0  0  0  0  0  0  0  0  0
  141.4810   81.3480  222.3320 C   0  0  0  0  0  0  0  0  0  0  0  0
  140.6430   80.3040  221.6300 C   0  0  1  0  0  0  0  0  0  0  0  0
  141.2980   79.9120  220.3900 C   0  0  0  0  0  0  0  0  0  0  0  0
  141.6880   80.9340  219.5170 C   0  0  0  0  0  0  0  0  0  0  0  0
  142.3190   80.6810  218.3280 C   0  0  0  0  0  0  0  0  0  0  0  0
  142.6030   79.3940  217.9300 C   0  0  0  0  0  0  0  0  0  0  0  0
  142.2280   78.3650  218.7730 C   0  0  0  0  0  0  0  0  0  0  0  0
  142.5830   76.7230  218.2810 Cl  0  0  0  0  0  0  0  0  0  0  0  0
  141.5850   78.6360  219.9840 C   0  0  0  0  0  0  0  0  0  0  0  0
  140.8210   74.4500  221.4620 C   0  0  0  0  0  0  0  0  0  0  0  0
  140.7550   73.0750  221.5000 C   0  0  0  0  0  0  0  0  0  0  0  0
  141.8190   72.2500  221.2010 C   0  0  0  0  0  0  0  0  0  0  0  0
  143.0000   72.8400  220.8480 C   0  0  0  0  0  0  0  0  0  0  0  0
  144.0640   72.0140  220.5500 C   0  0  0  0  0  0  0  0  0  0  0  0
  145.2530   72.6170  220.1940 C   0  0  0  0  0  0  0  0  0  0  0  0
  146.3180   71.8450  219.8940 F   0  0  0  0  0  0  0  0  0  0  0  0
  145.3370   73.9850  220.1500 C   0  0  0  0  0  0  0  0  0  0  0  0
  144.2570   74.7900  220.4540 C   0  0  0  0  0  0  0  0  0  0  0  0
  143.0600   74.2100  220.8110 C   0  0  0  0  0  0  0  0  0  0  0  0
  141.9970   74.9970  221.1100 N   0  0  0  0  0  0  0  0  0  0  0  0
  140.6940   77.0800  221.3070 H   0  0  0  0  0  0  0  0  0  0  0  0
  138.1817   77.9025  221.0228 H   0  0  0  0  0  0  0  0  0  0  0  0
  137.9063   76.9989  222.5505 H   0  0  0  0  0  0  0  0  0  0  0  0
  141.0267   78.2289  224.2936 H   0  0  0  0  0  0  0  0  0  0  0  0
  141.9801   77.8841  222.7767 H   0  0  0  0  0  0  0  0  0  0  0  0
  142.2198   80.1481  224.7291 H   0  0  0  0  0  0  0  0  0  0  0  0
  143.4853   79.0986  223.9675 H   0  0  0  0  0  0  0  0  0  0  0  0
  143.4684   81.4564  223.1252 H   0  0  0  0  0  0  0  0  0  0  0  0
  143.2183   80.1988  221.8537 H   0  0  0  0  0  0  0  0  0  0  0  0
  140.9531   81.7157  223.2243 H   0  0  0  0  0  0  0  0  0  0  0  0
  141.6697   82.2043  221.6678 H   0  0  0  0  0  0  0  0  0  0  0  0
  139.6511   80.6641  221.3195 H   0  0  0  0  0  0  0  0  0  0  0  0
  141.4804   81.9776  219.7957 H   0  0  0  0  0  0  0  0  0  0  0  0
  142.6042   81.5220  217.6788 H   0  0  0  0  0  0  0  0  0  0  0  0
  143.1103   79.1919  216.9751 H   0  0  0  0  0  0  0  0  0  0  0  0
  141.2996   77.7953  220.6334 H   0  0  0  0  0  0  0  0  0  0  0  0
  139.8003   72.6086  221.7847 H   0  0  0  0  0  0  0  0  0  0  0  0
  141.7204   71.1553  221.2451 H   0  0  0  0  0  0  0  0  0  0  0  0
  143.9684   70.9191  220.5944 H   0  0  0  0  0  0  0  0  0  0  0  0
  146.2904   74.4537  219.8648 H   0  0  0  0  0  0  0  0  0  0  0  0
  144.3519   75.8851  220.4114 H   0  0  0  0  0  0  0  0  0  0  0  0
  1  2  2  0
  2  3  1  0
  3  4  1  0
  4  5  1  0
  5  6  2  0
  5  7  1  0
  7  8  1  0
  8  9  1  0
  9 10  1  0
 10 11  1  0
 11 12  1  0
 12 13  1  0
 13 14  2  0
 14 15  1  0
 15 16  2  0
 16 17  1  0
 17 18  1  0
 17 19  2  0
  2 20  1  0
 20 21  2  0
 21 22  1  0
 22 23  2  0
 23 24  1  0
 24 25  2  0
 25 26  1  0
 25 27  1  0
 27 28  2  0
 28 29  1  0
 29 30  2  0
 12  7  1  0
 19 13  1  0
 30 20  1  0
 29 23  1  0
  3 31  1  0
  4 32  1  0
  4 33  1  0
  8 34  1  0
  8 35  1  0
  9 36  1  0
  9 37  1  0
 10 38  1  0
 10 39  1  0
 11 40  1  0
 11 41  1  0
 12 42  1  6
 14 43  1  0
 15 44  1  0
 16 45  1  0
 19 46  1  0
 21 47  1  0
 22 48  1  0
 24 49  1  0
 27 50  1  0
 28 51  1  0
M  END
>  <smiles>  (53) 
O=C(NCC(=O)N1CCCCC1c1cccc(Cl)c1)c1ccc2cc(F)ccc2n1

>  <score_type>  (53) 
oracle

>  <origin>  (53) 
autodockgpu

>  <m_score__min__energy>  (53) 
-9.2799999999999994

>  <m_primary>  (53) 
energy

>  <rmsd>  (53) 
6.511316517864406

>  <m_score__min__rmsd>  (53) 
6.511316517864406

>  <meeko>  (53) 
{"free_energy": -7.4, "intermolecular_energy": -8.89, "internal_energy": -2.53, "cluster_size": 4, "cluster_id": 4, "rank_in_cluster": 3}

>  <energy>  (53) 
-9.25

>  <cluster_rmsd>  (53) 
0.7

>  <cluster>  (53) 
1

$$$$

     RDKit          3D

 51 54  0  0  0  0  0  0  0  0999 V2000
  140.6280   70.9540  221.7740 O   0  0  0  0  0  0  0  0  0  0  0  0
  140.2990   71.6860  222.7370 C   0  0  0  0  0  0  0  0  0  0  0  0
  139.8590   73.0310  222.5980 N   0  0  0  0  0  0  0  0  0  0  0  0
  139.7660   73.6400  221.2850 C   0  0  0  0  0  0  0  0  0  0  0  0
  140.5810   74.8810  221.2590 C   0  0  0  0  0  0  0  0  0  0  0  0
  140.3560   75.7150  222.1900 O   0  0  0  0  0  0  0  0  0  0  0  0
  141.5600   75.1200  220.2450 N   0  0  0  0  0  0  0  0  0  0  0  0
  142.1650   76.4110  220.1920 C   0  0  0  0  0  0  0  0  0  0  0  0
  142.4890   76.8590  218.7860 C   0  0  0  0  0  0  0  0  0  0  0  0
  142.8890   75.6930  217.9090 C   0  0  0  0  0  0  0  0  0  0  0  0
  141.8410   74.6030  217.9550 C   0  0  0  0  0  0  0  0  0  0  0  0
  141.8540   74.0200  219.3490 C   0  0  1  0  0  0  0  0  0  0  0  0
  143.1310   73.3600  219.5850 C   0  0  0  0  0  0  0  0  0  0  0  0
  143.4750   72.3020  218.7360 C   0  0  0  0  0  0  0  0  0  0  0  0
  144.6540   71.6170  218.8610 C   0  0  0  0  0  0  0  0  0  0  0  0
  145.5680   71.9390  219.8400 C   0  0  0  0  0  0  0  0  0  0  0  0
  145.2530   72.9810  220.6920 C   0  0  0  0  0  0  0  0  0  0  0  0
  146.4050   73.4030  221.9410 Cl  0  0  0  0  0  0  0  0  0  0  0  0
  144.0460   73.6720  220.5540 C   0  0  0  0  0  0  0  0  0  0  0  0
  140.3730   71.1220  224.0970 C   0  0  0  0  0  0  0  0  0  0  0  0
  140.7830   71.8890  225.1640 C   0  0  0  0  0  0  0  0  0  0  0  0
  140.8710   71.4160  226.4560 C   0  0  0  0  0  0  0  0  0  0  0  0
  140.5290   70.1110  226.6800 C   0  0  0  0  0  0  0  0  0  0  0  0
  140.6180   69.6390  227.9730 C   0  0  0  0  0  0  0  0  0  0  0  0
  140.2710   68.3210  228.1900 C   0  0  0  0  0  0  0  0  0  0  0  0
  140.3430   67.8200  229.4400 F   0  0  0  0  0  0  0  0  0  0  0  0
  139.8600   67.5430  227.1390 C   0  0  0  0  0  0  0  0  0  0  0  0
  139.7800   68.0400  225.8530 C   0  0  0  0  0  0  0  0  0  0  0  0
  140.1210   69.3520  225.6130 C   0  0  0  0  0  0  0  0  0  0  0  0
  140.0440   69.8440  224.3510 N   0  0  0  0  0  0  0  0  0  0  0  0
  139.6030   73.5680  223.4780 H   0  0  0  0  0  0  0  0  0  0  0  0
  140.1426   72.9375  220.5269 H   0  0  0  0  0  0  0  0  0  0  0  0
  138.7161   73.8849  221.0667 H   0  0  0  0  0  0  0  0  0  0  0  0
  141.4738   77.1397  220.6406 H   0  0  0  0  0  0  0  0  0  0  0  0
  143.1152   76.3496  220.7427 H   0  0  0  0  0  0  0  0  0  0  0  0
  141.6020   77.3441  218.3525 H   0  0  0  0  0  0  0  0  0  0  0  0
  143.3355   77.5598  218.8343 H   0  0  0  0  0  0  0  0  0  0  0  0
  143.0003   76.0430  216.8721 H   0  0  0  0  0  0  0  0  0  0  0  0
  143.8407   75.2835  218.2787 H   0  0  0  0  0  0  0  0  0  0  0  0
  140.8497   75.0253  217.7336 H   0  0  0  0  0  0  0  0  0  0  0  0
  142.0572   73.8255  217.2075 H   0  0  0  0  0  0  0  0  0  0  0  0
  141.0999   73.2355  219.5101 H   0  0  0  0  0  0  0  0  0  0  0  0
  142.7736   72.0105  217.9403 H   0  0  0  0  0  0  0  0  0  0  0  0
  144.8756   70.7936  218.1661 H   0  0  0  0  0  0  0  0  0  0  0  0
  146.5142   71.3870  219.9402 H   0  0  0  0  0  0  0  0  0  0  0  0
  143.8236   74.4955  221.2485 H   0  0  0  0  0  0  0  0  0  0  0  0
  141.0556   72.9378  224.9753 H   0  0  0  0  0  0  0  0  0  0  0  0
  141.2048   72.0659  227.2783 H   0  0  0  0  0  0  0  0  0  0  0  0
  140.9518   70.2864  228.7973 H   0  0  0  0  0  0  0  0  0  0  0  0
  139.5864   66.4939  227.3250 H   0  0  0  0  0  0  0  0  0  0  0  0
  139.4468   67.3934  225.0279 H   0  0  0  0  0  0  0  0  0  0  0  0
  1  2  2  0
  2  3  1  0
  3  4  1  0
  4  5  1  0
  5  6  2  0
  5  7  1  0
  7  8  1  0
  8  9  1  0
  9 10  1  0
 10 11  1  0
 11 12  1  0
 12 13  1  0
 13 14  2  0
 14 15  1  0
 15 16  2  0
 16 17  1  0
 17 18  1  0
 17 19  2  0
  2 20  1  0
 20 21  2  0
 21 22  1  0
 22 23  2  0
 23 24  1  0
 24 25  2  0
 25 26  1  0
 25 27  1  0
 27 28  2  0
 28 29  1  0
 29 30  2  0
 12  7  1  0
 19 13  1  0
 30 20  1  0
 29 23  1  0
  3 31  1  0
  4 32  1  0
  4 33  1  0
  8 34  1  0
  8 35  1  0
  9 36  1  0
  9 37  1  0
 10 38  1  0
 10 39  1  0
 11 40  1  0
 11 41  1  0
 12 42  1  6
 14 43  1  0
 15 44  1  0
 16 45  1  0
 19 46  1  0
 21 47  1  0
 22 48  1  0
 24 49  1  0
 27 50  1  0
 28 51  1  0
M  END
>  <smiles>  (54) 
O=C(NCC(=O)N1CCCCC1c1cccc(Cl)c1)c1ccc2cc(F)ccc2n1

>  <score_type>  (54) 
oracle

>  <origin>  (54) 
autodockgpu

>  <m_score__min__energy>  (54) 
-9.2799999999999994

>  <m_primary>  (54) 
energy

>  <rmsd>  (54) 
3.1159195663040475

>  <m_score__min__rmsd>  (54) 
3.1159195663040475

>  <meeko>  (54) 
{"free_energy": -8.59, "intermolecular_energy": -10.08, "internal_energy": -1.81, "cluster_size": 8, "cluster_id": 2, "rank_in_cluster": 8}

>  <energy>  (54) 
-9.23

>  <cluster_rmsd>  (54) 
0.7

>  <cluster>  (54) 
1

$$$$

     RDKit          3D

 51 54  0  0  0  0  0  0  0  0999 V2000
  140.3190   71.3990  221.1650 O   0  0  0  0  0  0  0  0  0  0  0  0
  140.0500   71.9390  222.2630 C   0  0  0  0  0  0  0  0  0  0  0  0
  139.7740   73.3260  222.4180 N   0  0  0  0  0  0  0  0  0  0  0  0
  139.7910   74.2100  221.2690 C   0  0  0  0  0  0  0  0  0  0  0  0
  139.4840   75.5950  221.7080 C   0  0  0  0  0  0  0  0  0  0  0  0
  138.7270   75.7030  222.7220 O   0  0  0  0  0  0  0  0  0  0  0  0
  140.0110   76.7370  221.0270 N   0  0  0  0  0  0  0  0  0  0  0  0
  139.2770   77.2490  219.9170 C   0  0  0  0  0  0  0  0  0  0  0  0
  140.1600   77.8140  218.8290 C   0  0  0  0  0  0  0  0  0  0  0  0
  141.4020   78.4610  219.4010 C   0  0  0  0  0  0  0  0  0  0  0  0
  142.1320   77.5030  220.3170 C   0  0  0  0  0  0  0  0  0  0  0  0
  141.2570   77.2790  221.5290 C   0  0  1  0  0  0  0  0  0  0  0  0
  141.1310   78.5260  222.2700 C   0  0  0  0  0  0  0  0  0  0  0  0
  142.2860   79.2990  222.4320 C   0  0  0  0  0  0  0  0  0  0  0  0
  142.2800   80.4930  223.1030 C   0  0  0  0  0  0  0  0  0  0  0  0
  141.1240   80.9960  223.6580 C   0  0  0  0  0  0  0  0  0  0  0  0
  139.9680   80.2520  223.5130 C   0  0  0  0  0  0  0  0  0  0  0  0
  138.4900   80.8790  224.2120 Cl  0  0  0  0  0  0  0  0  0  0  0  0
  139.9870   79.0350  222.8260 C   0  0  0  0  0  0  0  0  0  0  0  0
  140.0180   71.0920  223.4680 C   0  0  0  0  0  0  0  0  0  0  0  0
  139.5470   69.7990  223.4170 C   0  0  0  0  0  0  0  0  0  0  0  0
  139.4940   68.9610  224.5100 C   0  0  0  0  0  0  0  0  0  0  0  0
  139.9350   69.4500  225.7080 C   0  0  0  0  0  0  0  0  0  0  0  0
  139.8810   68.6110  226.8010 C   0  0  0  0  0  0  0  0  0  0  0  0
  140.3290   69.1120  228.0070 C   0  0  0  0  0  0  0  0  0  0  0  0
  140.2930   68.3240  229.1010 F   0  0  0  0  0  0  0  0  0  0  0  0
  140.8010   70.3980  228.0760 C   0  0  0  0  0  0  0  0  0  0  0  0
  140.8450   71.2180  226.9660 C   0  0  0  0  0  0  0  0  0  0  0  0
  140.4030   70.7390  225.7540 C   0  0  0  0  0  0  0  0  0  0  0  0
  140.4450   71.5410  224.6610 N   0  0  0  0  0  0  0  0  0  0  0  0
  139.5570   73.6880  223.3930 H   0  0  0  0  0  0  0  0  0  0  0  0
  140.7864   74.1853  220.8016 H   0  0  0  0  0  0  0  0  0  0  0  0
  139.0364   73.8797  220.5400 H   0  0  0  0  0  0  0  0  0  0  0  0
  138.6746   76.4336  219.4901 H   0  0  0  0  0  0  0  0  0  0  0  0
  138.6514   78.0729  220.2909 H   0  0  0  0  0  0  0  0  0  0  0  0
  140.4604   76.9993  218.1538 H   0  0  0  0  0  0  0  0  0  0  0  0
  139.5897   78.5827  218.2869 H   0  0  0  0  0  0  0  0  0  0  0  0
  142.0698   78.7517  218.5766 H   0  0  0  0  0  0  0  0  0  0  0  0
  141.1036   79.3464  219.9815 H   0  0  0  0  0  0  0  0  0  0  0  0
  142.3082   76.5486  219.7992 H   0  0  0  0  0  0  0  0  0  0  0  0
  143.1070   77.9170  220.6137 H   0  0  0  0  0  0  0  0  0  0  0  0
  141.6740   76.5643  222.2539 H   0  0  0  0  0  0  0  0  0  0  0  0
  143.2323   78.9349  222.0054 H   0  0  0  0  0  0  0  0  0  0  0  0
  143.2167   81.0614  223.2006 H   0  0  0  0  0  0  0  0  0  0  0  0
  141.1208   81.9549  224.1970 H   0  0  0  0  0  0  0  0  0  0  0  0
  139.0507   78.4660  222.7283 H   0  0  0  0  0  0  0  0  0  0  0  0
  139.1931   69.4133  222.4495 H   0  0  0  0  0  0  0  0  0  0  0  0
  139.1101   67.9340  224.4214 H   0  0  0  0  0  0  0  0  0  0  0  0
  139.4965   67.5839  226.7155 H   0  0  0  0  0  0  0  0  0  0  0  0
  141.1543   70.7868  229.0424 H   0  0  0  0  0  0  0  0  0  0  0  0
  141.2299   72.2450  227.0497 H   0  0  0  0  0  0  0  0  0  0  0  0
  1  2  2  0
  2  3  1  0
  3  4  1  0
  4  5  1  0
  5  6  2  0
  5  7  1  0
  7  8  1  0
  8  9  1  0
  9 10  1  0
 10 11  1  0
 11 12  1  0
 12 13  1  0
 13 14  2  0
 14 15  1  0
 15 16  2  0
 16 17  1  0
 17 18  1  0
 17 19  2  0
  2 20  1  0
 20 21  2  0
 21 22  1  0
 22 23  2  0
 23 24  1  0
 24 25  2  0
 25 26  1  0
 25 27  1  0
 27 28  2  0
 28 29  1  0
 29 30  2  0
 12  7  1  0
 19 13  1  0
 30 20  1  0
 29 23  1  0
  3 31  1  0
  4 32  1  0
  4 33  1  0
  8 34  1  0
  8 35  1  0
  9 36  1  0
  9 37  1  0
 10 38  1  0
 10 39  1  0
 11 40  1  0
 11 41  1  0
 12 42  1  1
 14 43  1  0
 15 44  1  0
 16 45  1  0
 19 46  1  0
 21 47  1  0
 22 48  1  0
 24 49  1  0
 27 50  1  0
 28 51  1  0
M  END
>  <smiles>  (55) 
O=C(NCC(=O)N1CCCCC1c1cccc(Cl)c1)c1ccc2cc(F)ccc2n1

>  <score_type>  (55) 
oracle

>  <origin>  (55) 
autodockgpu

>  <m_score__min__energy>  (55) 
-9.2799999999999994

>  <m_primary>  (55) 
energy

>  <rmsd>  (55) 
1.7864782409371611

>  <m_score__min__rmsd>  (55) 
1.7864782409371611

>  <meeko>  (55) 
{"free_energy": -9.01, "intermolecular_energy": -10.5, "internal_energy": -2.0, "cluster_size": 36, "cluster_id": 1, "rank_in_cluster": 13}

>  <energy>  (55) 
-9.21

>  <cluster_rmsd>  (55) 
0.7

>  <cluster>  (55) 
1

$$$$

     RDKit          3D

 51 54  0  0  0  0  0  0  0  0999 V2000
  140.9680   72.1840  221.4830 O   0  0  0  0  0  0  0  0  0  0  0  0
  140.0990   72.4660  222.3410 C   0  0  0  0  0  0  0  0  0  0  0  0
  139.2150   73.5770  222.2400 N   0  0  0  0  0  0  0  0  0  0  0  0
  139.2820   74.4650  221.0960 C   0  0  0  0  0  0  0  0  0  0  0  0
  140.3700   75.4540  221.3020 C   0  0  0  0  0  0  0  0  0  0  0  0
  141.3550   75.0600  222.0010 O   0  0  0  0  0  0  0  0  0  0  0  0
  140.3090   76.7700  220.7480 N   0  0  0  0  0  0  0  0  0  0  0  0
  139.1320   77.1380  220.0310 C   0  0  0  0  0  0  0  0  0  0  0  0
  139.4070   78.0690  218.8730 C   0  0  0  0  0  0  0  0  0  0  0  0
  140.5510   79.0120  219.1770 C   0  0  0  0  0  0  0  0  0  0  0  0
  141.7760   78.2440  219.6220 C   0  0  0  0  0  0  0  0  0  0  0  0
  141.4600   77.6240  220.9640 C   0  0  1  0  0  0  0  0  0  0  0  0
  141.2670   78.6780  221.9490 C   0  0  0  0  0  0  0  0  0  0  0  0
  142.3990   79.3920  222.3590 C   0  0  0  0  0  0  0  0  0  0  0  0
  142.3320   80.4090  223.2740 C   0  0  0  0  0  0  0  0  0  0  0  0
  141.1340   80.7820  223.8410 C   0  0  0  0  0  0  0  0  0  0  0  0
  140.0000   80.0940  223.4540 C   0  0  0  0  0  0  0  0  0  0  0  0
  138.4690   80.5580  224.1660 Cl  0  0  0  0  0  0  0  0  0  0  0  0
  140.0810   79.0580  222.5200 C   0  0  0  0  0  0  0  0  0  0  0  0
  139.9830   71.5990  223.5270 C   0  0  0  0  0  0  0  0  0  0  0  0
  139.2680   70.4240  223.4820 C   0  0  0  0  0  0  0  0  0  0  0  0
  139.1260   69.5740  224.5580 C   0  0  0  0  0  0  0  0  0  0  0  0
  139.7330   69.9270  225.7310 C   0  0  0  0  0  0  0  0  0  0  0  0
  139.5890   69.0760  226.8070 C   0  0  0  0  0  0  0  0  0  0  0  0
  140.2060   69.4390  227.9870 C   0  0  0  0  0  0  0  0  0  0  0  0
  140.0910   68.6350  229.0640 F   0  0  0  0  0  0  0  0  0  0  0  0
  140.9230   70.6070  228.0500 C   0  0  0  0  0  0  0  0  0  0  0  0
  141.0520   71.4420  226.9570 C   0  0  0  0  0  0  0  0  0  0  0  0
  140.4450   71.0990  225.7700 C   0  0  0  0  0  0  0  0  0  0  0  0
  140.5680   71.9160  224.6940 N   0  0  0  0  0  0  0  0  0  0  0  0
  138.5130   73.7300  223.0220 H   0  0  0  0  0  0  0  0  0  0  0  0
  139.4861   73.8787  220.1879 H   0  0  0  0  0  0  0  0  0  0  0  0
  138.3230   74.9920  220.9835 H   0  0  0  0  0  0  0  0  0  0  0  0
  138.6605   76.2241  219.6405 H   0  0  0  0  0  0  0  0  0  0  0  0
  138.4760   77.6740  220.7327 H   0  0  0  0  0  0  0  0  0  0  0  0
  139.6636   77.4703  217.9866 H   0  0  0  0  0  0  0  0  0  0  0  0
  138.5037   78.6702  218.6924 H   0  0  0  0  0  0  0  0  0  0  0  0
  140.7949   79.5869  218.2715 H   0  0  0  0  0  0  0  0  0  0  0  0
  140.2445   79.6882  219.9887 H   0  0  0  0  0  0  0  0  0  0  0  0
  142.0121   77.4569  218.8907 H   0  0  0  0  0  0  0  0  0  0  0  0
  142.6460   78.9127  219.6990 H   0  0  0  0  0  0  0  0  0  0  0  0
  142.2735   77.0062  221.3721 H   0  0  0  0  0  0  0  0  0  0  0  0
  143.3771   79.1269  221.9312 H   0  0  0  0  0  0  0  0  0  0  0  0
  143.2528   80.9378  223.5613 H   0  0  0  0  0  0  0  0  0  0  0  0
  141.0816   81.5987  224.5760 H   0  0  0  0  0  0  0  0  0  0  0  0
  139.1603   78.5289  222.2331 H   0  0  0  0  0  0  0  0  0  0  0  0
  138.7826   70.1476  222.5344 H   0  0  0  0  0  0  0  0  0  0  0  0
  138.5445   68.6439  224.4756 H   0  0  0  0  0  0  0  0  0  0  0  0
  139.0064   68.1463  226.7279 H   0  0  0  0  0  0  0  0  0  0  0  0
  141.4085   70.8863  228.9968 H   0  0  0  0  0  0  0  0  0  0  0  0
  141.6342   72.3721  227.0345 H   0  0  0  0  0  0  0  0  0  0  0  0
  1  2  2  0
  2  3  1  0
  3  4  1  0
  4  5  1  0
  5  6  2  0
  5  7  1  0
  7  8  1  0
  8  9  1  0
  9 10  1  0
 10 11  1  0
 11 12  1  0
 12 13  1  0
 13 14  2  0
 14 15  1  0
 15 16  2  0
 16 17  1  0
 17 18  1  0
 17 19  2  0
  2 20  1  0
 20 21  2  0
 21 22  1  0
 22 23  2  0
 23 24  1  0
 24 25  2  0
 25 26  1  0
 25 27  1  0
 27 28  2  0
 28 29  1  0
 29 30  2  0
 12  7  1  0
 19 13  1  0
 30 20  1  0
 29 23  1  0
  3 31  1  0
  4 32  1  0
  4 33  1  0
  8 34  1  0
  8 35  1  0
  9 36  1  0
  9 37  1  0
 10 38  1  0
 10 39  1  0
 11 40  1  0
 11 41  1  0
 12 42  1  1
 14 43  1  0
 15 44  1  0
 16 45  1  0
 19 46  1  0
 21 47  1  0
 22 48  1  0
 24 49  1  0
 27 50  1  0
 28 51  1  0
M  END
>  <smiles>  (56) 
O=C(NCC(=O)N1CCCCC1c1cccc(Cl)c1)c1ccc2cc(F)ccc2n1

>  <score_type>  (56) 
oracle

>  <origin>  (56) 
autodockgpu

>  <m_score__min__energy>  (56) 
-9.2799999999999994

>  <m_primary>  (56) 
energy

>  <rmsd>  (56) 
1.7351155903895505

>  <m_score__min__rmsd>  (56) 
1.7351155903895505

>  <meeko>  (56) 
{"free_energy": -9.28, "intermolecular_energy": -10.77, "internal_energy": -1.36, "cluster_size": 36, "cluster_id": 1, "rank_in_cluster": 1}

>  <energy>  (56) 
-9.15

>  <cluster_rmsd>  (56) 
0.7

>  <cluster>  (56) 
1

$$$$

     RDKit          3D

 51 54  0  0  0  0  0  0  0  0999 V2000
  140.5130   71.7330  221.1230 O   0  0  0  0  0  0  0  0  0  0  0  0
  140.1380   72.2720  222.1910 C   0  0  0  0  0  0  0  0  0  0  0  0
  139.7710   73.6420  222.3020 N   0  0  0  0  0  0  0  0  0  0  0  0
  139.8160   74.5100  221.1410 C   0  0  0  0  0  0  0  0  0  0  0  0
  140.9820   75.4220  221.2520 C   0  0  0  0  0  0  0  0  0  0  0  0
  141.0660   76.0900  222.3280 O   0  0  0  0  0  0  0  0  0  0  0  0
  141.9500   75.5390  220.2060 N   0  0  0  0  0  0  0  0  0  0  0  0
  142.5640   76.8100  220.0040 C   0  0  0  0  0  0  0  0  0  0  0  0
  142.8740   77.0970  218.5530 C   0  0  0  0  0  0  0  0  0  0  0  0
  143.2560   75.8370  217.8070 C   0  0  0  0  0  0  0  0  0  0  0  0
  142.2010   74.7680  217.9850 C   0  0  0  0  0  0  0  0  0  0  0  0
  142.2270   74.3430  219.4350 C   0  0  1  0  0  0  0  0  0  0  0  0
  143.5010   73.7030  219.7290 C   0  0  0  0  0  0  0  0  0  0  0  0
  144.3840   74.3850  220.5740 C   0  0  0  0  0  0  0  0  0  0  0  0
  145.6050   73.8730  220.9240 C   0  0  0  0  0  0  0  0  0  0  0  0
  146.0280   72.6490  220.4550 C   0  0  0  0  0  0  0  0  0  0  0  0
  145.1750   71.9530  219.6190 C   0  0  0  0  0  0  0  0  0  0  0  0
  145.6980   70.3960  219.0150 Cl  0  0  0  0  0  0  0  0  0  0  0  0
  143.9310   72.4870  219.2690 C   0  0  0  0  0  0  0  0  0  0  0  0
  140.0720   71.4400  223.4050 C   0  0  0  0  0  0  0  0  0  0  0  0
  139.5510   70.1670  223.3690 C   0  0  0  0  0  0  0  0  0  0  0  0
  139.4640   69.3440  224.4720 C   0  0  0  0  0  0  0  0  0  0  0  0
  139.9250   69.8290  225.6640 C   0  0  0  0  0  0  0  0  0  0  0  0
  139.8380   69.0060  226.7670 C   0  0  0  0  0  0  0  0  0  0  0  0
  140.3060   69.5020  227.9660 C   0  0  0  0  0  0  0  0  0  0  0  0
  140.2400   68.7290  229.0690 F   0  0  0  0  0  0  0  0  0  0  0  0
  140.8300   70.7690  228.0210 C   0  0  0  0  0  0  0  0  0  0  0  0
  140.9060   71.5740  226.9020 C   0  0  0  0  0  0  0  0  0  0  0  0
  140.4450   71.0990  225.6950 C   0  0  0  0  0  0  0  0  0  0  0  0
  140.5180   71.8860  224.5920 N   0  0  0  0  0  0  0  0  0  0  0  0
  139.4670   74.0030  223.2530 H   0  0  0  0  0  0  0  0  0  0  0  0
  139.9123   73.9003  220.2305 H   0  0  0  0  0  0  0  0  0  0  0  0
  138.8903   75.1019  221.0887 H   0  0  0  0  0  0  0  0  0  0  0  0
  141.8842   77.5901  220.3773 H   0  0  0  0  0  0  0  0  0  0  0  0
  143.5204   76.8013  220.5473 H   0  0  0  0  0  0  0  0  0  0  0  0
  141.9850   77.5378  218.0781 H   0  0  0  0  0  0  0  0  0  0  0  0
  143.7251   77.7927  218.5133 H   0  0  0  0  0  0  0  0  0  0  0  0
  143.3582   76.0684  216.7365 H   0  0  0  0  0  0  0  0  0  0  0  0
  144.2088   75.4632  218.2100 H   0  0  0  0  0  0  0  0  0  0  0  0
  141.2102   75.1716  217.7294 H   0  0  0  0  0  0  0  0  0  0  0  0
  142.4022   73.9107  217.3258 H   0  0  0  0  0  0  0  0  0  0  0  0
  141.4704   73.5867  219.6910 H   0  0  0  0  0  0  0  0  0  0  0  0
  144.0868   75.3669  220.9710 H   0  0  0  0  0  0  0  0  0  0  0  0
  146.2605   74.4504  221.5925 H   0  0  0  0  0  0  0  0  0  0  0  0
  147.0097   72.2398  220.7357 H   0  0  0  0  0  0  0  0  0  0  0  0
  143.2748   71.9101  218.6007 H   0  0  0  0  0  0  0  0  0  0  0  0
  139.1830   69.7841  222.4057 H   0  0  0  0  0  0  0  0  0  0  0  0
  139.0385   68.3325  224.3953 H   0  0  0  0  0  0  0  0  0  0  0  0
  139.4124   67.9943  226.6936 H   0  0  0  0  0  0  0  0  0  0  0  0
  141.1996   71.1538  228.9829 H   0  0  0  0  0  0  0  0  0  0  0  0
  141.3312   72.5859  226.9742 H   0  0  0  0  0  0  0  0  0  0  0  0
  1  2  2  0
  2  3  1  0
  3  4  1  0
  4  5  1  0
  5  6  2  0
  5  7  1  0
  7  8  1  0
  8  9  1  0
  9 10  1  0
 10 11  1  0
 11 12  1  0
 12 13  1  0
 13 14  2  0
 14 15  1  0
 15 16  2  0
 16 17  1  0
 17 18  1  0
 17 19  2  0
  2 20  1  0
 20 21  2  0
 21 22  1  0
 22 23  2  0
 23 24  1  0
 24 25  2  0
 25 26  1  0
 25 27  1  0
 27 28  2  0
 28 29  1  0
 29 30  2  0
 12  7  1  0
 19 13  1  0
 30 20  1  0
 29 23  1  0
  3 31  1  0
  4 32  1  0
  4 33  1  0
  8 34  1  0
  8 35  1  0
  9 36  1  0
  9 37  1  0
 10 38  1  0
 10 39  1  0
 11 40  1  0
 11 41  1  0
 12 42  1  6
 14 43  1  0
 15 44  1  0
 16 45  1  0
 19 46  1  0
 21 47  1  0
 22 48  1  0
 24 49  1  0
 27 50  1  0
 28 51  1  0
M  END
>  <smiles>  (57) 
O=C(NCC(=O)N1CCCCC1c1cccc(Cl)c1)c1ccc2cc(F)ccc2n1

>  <score_type>  (57) 
oracle

>  <origin>  (57) 
autodockgpu

>  <m_score__min__energy>  (57) 
-9.2799999999999994

>  <m_primary>  (57) 
energy

>  <rmsd>  (57) 
2.294156100016808

>  <m_score__min__rmsd>  (57) 
2.294156100016808

>  <meeko>  (57) 
{"free_energy": -8.98, "intermolecular_energy": -10.47, "internal_energy": -1.85, "cluster_size": 8, "cluster_id": 2, "rank_in_cluster": 6}

>  <energy>  (57) 
-9.15

>  <cluster_rmsd>  (57) 
0.7

>  <cluster>  (57) 
1

$$$$

     RDKit          3D

 51 54  0  0  0  0  0  0  0  0999 V2000
  140.0930   72.2030  221.7570 O   0  0  0  0  0  0  0  0  0  0  0  0
  139.2290   72.0920  222.6590 C   0  0  0  0  0  0  0  0  0  0  0  0
  137.9900   72.7910  222.6610 N   0  0  0  0  0  0  0  0  0  0  0  0
  137.6580   73.6970  221.5790 C   0  0  0  0  0  0  0  0  0  0  0  0
  137.9950   75.0870  221.9790 C   0  0  0  0  0  0  0  0  0  0  0  0
  137.2710   75.5960  222.8890 O   0  0  0  0  0  0  0  0  0  0  0  0
  139.0720   75.8060  221.3730 N   0  0  0  0  0  0  0  0  0  0  0  0
  138.9560   76.1430  219.9920 C   0  0  0  0  0  0  0  0  0  0  0  0
  140.2780   76.1210  219.2610 C   0  0  0  0  0  0  0  0  0  0  0  0
  141.4160   76.5650  220.1540 C   0  0  0  0  0  0  0  0  0  0  0  0
  141.4350   75.7610  221.4360 C   0  0  0  0  0  0  0  0  0  0  0  0
  140.2000   76.1320  222.2240 C   0  0  1  0  0  0  0  0  0  0  0  0
  140.2830   77.5300  222.6240 C   0  0  0  0  0  0  0  0  0  0  0  0
  139.0810   78.2290  222.7760 C   0  0  0  0  0  0  0  0  0  0  0  0
  139.0410   79.5440  223.1570 C   0  0  0  0  0  0  0  0  0  0  0  0
  140.1970   80.2490  223.4110 C   0  0  0  0  0  0  0  0  0  0  0  0
  141.3990   79.5820  223.2690 C   0  0  0  0  0  0  0  0  0  0  0  0
  142.8760   80.4650  223.5900 Cl  0  0  0  0  0  0  0  0  0  0  0  0
  141.4260   78.2400  222.8800 C   0  0  0  0  0  0  0  0  0  0  0  0
  139.5100   71.1840  223.7850 C   0  0  0  0  0  0  0  0  0  0  0  0
  139.2410   69.8370  223.6990 C   0  0  0  0  0  0  0  0  0  0  0  0
  139.4830   68.9420  224.7190 C   0  0  0  0  0  0  0  0  0  0  0  0
  140.0210   69.4290  225.8770 C   0  0  0  0  0  0  0  0  0  0  0  0
  140.2620   68.5320  226.8970 C   0  0  0  0  0  0  0  0  0  0  0  0
  140.8060   69.0320  228.0630 C   0  0  0  0  0  0  0  0  0  0  0  0
  141.0570   68.1890  229.0860 F   0  0  0  0  0  0  0  0  0  0  0  0
  141.0810   70.3720  228.1670 C   0  0  0  0  0  0  0  0  0  0  0  0
  140.8300   71.2490  227.1310 C   0  0  0  0  0  0  0  0  0  0  0  0
  140.2880   70.7720  225.9580 C   0  0  0  0  0  0  0  0  0  0  0  0
  140.0390   71.6300  224.9370 N   0  0  0  0  0  0  0  0  0  0  0  0
  137.3250   72.6270  223.4730 H   0  0  0  0  0  0  0  0  0  0  0  0
  138.2329   73.4236  220.6819 H   0  0  0  0  0  0  0  0  0  0  0  0
  136.5824   73.6283  221.3590 H   0  0  0  0  0  0  0  0  0  0  0  0
  138.2789   75.4213  219.5117 H   0  0  0  0  0  0  0  0  0  0  0  0
  138.5695   77.1714  219.9378 H   0  0  0  0  0  0  0  0  0  0  0  0
  140.4763   75.0966  218.9128 H   0  0  0  0  0  0  0  0  0  0  0  0
  140.2138   76.8188  218.4131 H   0  0  0  0  0  0  0  0  0  0  0  0
  142.3687   76.4210  219.6233 H   0  0  0  0  0  0  0  0  0  0  0  0
  141.2753   77.6268  220.4045 H   0  0  0  0  0  0  0  0  0  0  0  0
  141.4239   74.6856  221.2049 H   0  0  0  0  0  0  0  0  0  0  0  0
  142.3441   75.9784  222.0159 H   0  0  0  0  0  0  0  0  0  0  0  0
  140.0909   75.5777  223.1679 H   0  0  0  0  0  0  0  0  0  0  0  0
  138.1340   77.7038  222.5826 H   0  0  0  0  0  0  0  0  0  0  0  0
  138.0681   80.0464  223.2621 H   0  0  0  0  0  0  0  0  0  0  0  0
  140.1644   81.3054  223.7160 H   0  0  0  0  0  0  0  0  0  0  0  0
  142.3985   77.7366  222.7759 H   0  0  0  0  0  0  0  0  0  0  0  0
  138.8084   69.4529  222.7634 H   0  0  0  0  0  0  0  0  0  0  0  0
  139.2511   67.8728  224.6048 H   0  0  0  0  0  0  0  0  0  0  0  0
  140.0302   67.4625  226.7858 H   0  0  0  0  0  0  0  0  0  0  0  0
  141.5134   70.7582  229.1018 H   0  0  0  0  0  0  0  0  0  0  0  0
  141.0607   72.3189  227.2412 H   0  0  0  0  0  0  0  0  0  0  0  0
  1  2  2  0
  2  3  1  0
  3  4  1  0
  4  5  1  0
  5  6  2  0
  5  7  1  0
  7  8  1  0
  8  9  1  0
  9 10  1  0
 10 11  1  0
 11 12  1  0
 12 13  1  0
 13 14  2  0
 14 15  1  0
 15 16  2  0
 16 17  1  0
 17 18  1  0
 17 19  2  0
  2 20  1  0
 20 21  2  0
 21 22  1  0
 22 23  2  0
 23 24  1  0
 24 25  2  0
 25 26  1  0
 25 27  1  0
 27 28  2  0
 28 29  1  0
 29 30  2  0
 12  7  1  0
 19 13  1  0
 30 20  1  0
 29 23  1  0
  3 31  1  0
  4 32  1  0
  4 33  1  0
  8 34  1  0
  8 35  1  0
  9 36  1  0
  9 37  1  0
 10 38  1  0
 10 39  1  0
 11 40  1  0
 11 41  1  0
 12 42  1  1
 14 43  1  0
 15 44  1  0
 16 45  1  0
 19 46  1  0
 21 47  1  0
 22 48  1  0
 24 49  1  0
 27 50  1  0
 28 51  1  0
M  END
>  <smiles>  (58) 
O=C(NCC(=O)N1CCCCC1c1cccc(Cl)c1)c1ccc2cc(F)ccc2n1

>  <score_type>  (58) 
oracle

>  <origin>  (58) 
autodockgpu

>  <m_score__min__energy>  (58) 
-9.2799999999999994

>  <m_primary>  (58) 
energy

>  <rmsd>  (58) 
1.9217627806493083

>  <m_score__min__rmsd>  (58) 
1.9217627806493083

>  <meeko>  (58) 
{"free_energy": -8.74, "intermolecular_energy": -10.23, "internal_energy": -1.65, "cluster_size": 36, "cluster_id": 1, "rank_in_cluster": 28}

>  <energy>  (58) 
-9.12

>  <cluster_rmsd>  (58) 
0.71

>  <cluster>  (58) 
1

$$$$

     RDKit          3D

 51 54  0  0  0  0  0  0  0  0999 V2000
  137.0010   75.8530  223.0170 O   0  0  0  0  0  0  0  0  0  0  0  0
  138.1500   76.0530  222.5580 C   0  0  0  0  0  0  0  0  0  0  0  0
  138.9790   75.0300  222.0190 N   0  0  0  0  0  0  0  0  0  0  0  0
  138.5140   73.6570  221.9740 C   0  0  0  0  0  0  0  0  0  0  0  0
  139.6590   72.7410  222.2080 C   0  0  0  0  0  0  0  0  0  0  0  0
  140.8120   73.2200  221.9760 O   0  0  0  0  0  0  0  0  0  0  0  0
  139.4710   71.4010  222.6680 N   0  0  0  0  0  0  0  0  0  0  0  0
  140.0080   70.3420  221.8770 C   0  0  0  0  0  0  0  0  0  0  0  0
  139.1630   69.0900  221.9050 C   0  0  0  0  0  0  0  0  0  0  0  0
  138.5000   68.8960  223.2520 C   0  0  0  0  0  0  0  0  0  0  0  0
  137.7330   70.1370  223.6550 C   0  0  0  0  0  0  0  0  0  0  0  0
  138.7430   71.2320  223.9100 C   0  0  1  0  0  0  0  0  0  0  0  0
  139.5620   70.8750  225.0590 C   0  0  0  0  0  0  0  0  0  0  0  0
  140.6280   71.7240  225.3780 C   0  0  0  0  0  0  0  0  0  0  0  0
  141.4580   71.4890  226.4420 C   0  0  0  0  0  0  0  0  0  0  0  0
  141.2810   70.3950  227.2590 C   0  0  0  0  0  0  0  0  0  0  0  0
  140.2350   69.5400  226.9670 C   0  0  0  0  0  0  0  0  0  0  0  0
  139.9970   68.1440  227.9970 Cl  0  0  0  0  0  0  0  0  0  0  0  0
  139.3960   69.7900  225.8780 C   0  0  0  0  0  0  0  0  0  0  0  0
  138.6780   77.4290  222.5760 C   0  0  0  0  0  0  0  0  0  0  0  0
  137.8540   78.5040  222.8240 C   0  0  0  0  0  0  0  0  0  0  0  0
  138.2920   79.8110  222.8540 C   0  0  0  0  0  0  0  0  0  0  0  0
  139.6190   80.0420  222.6240 C   0  0  0  0  0  0  0  0  0  0  0  0
  140.0560   81.3500  222.6530 C   0  0  0  0  0  0  0  0  0  0  0  0
  141.3970   81.5750  222.4210 C   0  0  0  0  0  0  0  0  0  0  0  0
  141.8650   82.8400  222.4410 F   0  0  0  0  0  0  0  0  0  0  0  0
  142.2320   80.5160  222.1720 C   0  0  0  0  0  0  0  0  0  0  0  0
  141.7700   79.2150  222.1480 C   0  0  0  0  0  0  0  0  0  0  0  0
  140.4350   78.9670  222.3780 C   0  0  0  0  0  0  0  0  0  0  0  0
  139.9770   77.6910  222.3550 N   0  0  0  0  0  0  0  0  0  0  0  0
  139.9380   75.3030  221.6550 H   0  0  0  0  0  0  0  0  0  0  0  0
  137.7539   73.5011  222.7537 H   0  0  0  0  0  0  0  0  0  0  0  0
  138.0735   73.4502  220.9875 H   0  0  0  0  0  0  0  0  0  0  0  0
  140.0854   70.6882  220.8358 H   0  0  0  0  0  0  0  0  0  0  0  0
  140.9895   70.0831  222.3008 H   0  0  0  0  0  0  0  0  0  0  0  0
  138.3846   69.1672  221.1316 H   0  0  0  0  0  0  0  0  0  0  0  0
  139.8191   68.2274  221.7167 H   0  0  0  0  0  0  0  0  0  0  0  0
  137.8051   68.0453  223.1931 H   0  0  0  0  0  0  0  0  0  0  0  0
  139.2785   68.7018  224.0044 H   0  0  0  0  0  0  0  0  0  0  0  0
  137.0508   70.4363  222.8457 H   0  0  0  0  0  0  0  0  0  0  0  0
  137.1326   69.9458  224.5567 H   0  0  0  0  0  0  0  0  0  0  0  0
  138.2932   72.1995  224.1778 H   0  0  0  0  0  0  0  0  0  0  0  0
  140.8055   72.6111  224.7523 H   0  0  0  0  0  0  0  0  0  0  0  0
  142.2821   72.1880  226.6478 H   0  0  0  0  0  0  0  0  0  0  0  0
  141.9481   70.2081  228.1134 H   0  0  0  0  0  0  0  0  0  0  0  0
  138.5728   69.0904  225.6711 H   0  0  0  0  0  0  0  0  0  0  0  0
  136.7872   78.3092  223.0084 H   0  0  0  0  0  0  0  0  0  0  0  0
  137.5971   80.6394  223.0562 H   0  0  0  0  0  0  0  0  0  0  0  0
  139.3629   82.1804  222.8531 H   0  0  0  0  0  0  0  0  0  0  0  0
  143.2990   80.7083  221.9863 H   0  0  0  0  0  0  0  0  0  0  0  0
  142.4621   78.3840  221.9469 H   0  0  0  0  0  0  0  0  0  0  0  0
  1  2  2  0
  2  3  1  0
  3  4  1  0
  4  5  1  0
  5  6  2  0
  5  7  1  0
  7  8  1  0
  8  9  1  0
  9 10  1  0
 10 11  1  0
 11 12  1  0
 12 13  1  0
 13 14  2  0
 14 15  1  0
 15 16  2  0
 16 17  1  0
 17 18  1  0
 17 19  2  0
  2 20  1  0
 20 21  2  0
 21 22  1  0
 22 23  2  0
 23 24  1  0
 24 25  2  0
 25 26  1  0
 25 27  1  0
 27 28  2  0
 28 29  1  0
 29 30  2  0
 12  7  1  0
 19 13  1  0
 30 20  1  0
 29 23  1  0
  3 31  1  0
  4 32  1  0
  4 33  1  0
  8 34  1  0
  8 35  1  0
  9 36  1  0
  9 37  1  0
 10 38  1  0
 10 39  1  0
 11 40  1  0
 11 41  1  0
 12 42  1  1
 14 43  1  0
 15 44  1  0
 16 45  1  0
 19 46  1  0
 21 47  1  0
 22 48  1  0
 24 49  1  0
 27 50  1  0
 28 51  1  0
M  END
>  <smiles>  (59) 
O=C(NCC(=O)N1CCCCC1c1cccc(Cl)c1)c1ccc2cc(F)ccc2n1

>  <score_type>  (59) 
oracle

>  <origin>  (59) 
autodockgpu

>  <m_score__min__energy>  (59) 
-9.2799999999999994

>  <m_primary>  (59) 
energy

>  <rmsd>  (59) 
8.780737439633386

>  <m_score__min__rmsd>  (59) 
8.780737439633386

>  <meeko>  (59) 
{"free_energy": -7.71, "intermolecular_energy": -9.21, "internal_energy": -1.98, "cluster_size": 2, "cluster_id": 3, "rank_in_cluster": 2}

>  <energy>  (59) 
-9.11

>  <cluster_rmsd>  (59) 
0.72

>  <cluster>  (59) 
1

$$$$

     RDKit          3D

 51 54  0  0  0  0  0  0  0  0999 V2000
  138.3580   71.2600  221.5560 O   0  0  0  0  0  0  0  0  0  0  0  0
  138.9860   71.7370  222.5300 C   0  0  0  0  0  0  0  0  0  0  0  0
  139.4400   73.0840  222.5980 N   0  0  0  0  0  0  0  0  0  0  0  0
  139.1840   74.0000  221.5030 C   0  0  0  0  0  0  0  0  0  0  0  0
  140.2420   75.0420  221.4750 C   0  0  0  0  0  0  0  0  0  0  0  0
  141.3550   74.7180  221.9930 O   0  0  0  0  0  0  0  0  0  0  0  0
  140.0160   76.3310  220.8990 N   0  0  0  0  0  0  0  0  0  0  0  0
  138.7220   76.6070  220.3670 C   0  0  0  0  0  0  0  0  0  0  0  0
  138.7570   77.5070  219.1540 C   0  0  0  0  0  0  0  0  0  0  0  0
  139.8760   78.5220  219.2460 C   0  0  0  0  0  0  0  0  0  0  0  0
  141.1990   77.8380  219.5140 C   0  0  0  0  0  0  0  0  0  0  0  0
  141.1340   77.2540  220.9060 C   0  0  1  0  0  0  0  0  0  0  0  0
  141.0350   78.3320  221.8790 C   0  0  0  0  0  0  0  0  0  0  0  0
  142.2120   79.0120  222.2090 C   0  0  0  0  0  0  0  0  0  0  0  0
  142.2340   80.0470  223.1060 C   0  0  0  0  0  0  0  0  0  0  0  0
  141.0840   80.4740  223.7320 C   0  0  0  0  0  0  0  0  0  0  0  0
  139.9060   79.8200  223.4230 C   0  0  0  0  0  0  0  0  0  0  0  0
  138.4350   80.3520  224.2110 Cl  0  0  0  0  0  0  0  0  0  0  0  0
  139.8970   78.7650  222.5070 C   0  0  0  0  0  0  0  0  0  0  0  0
  139.2760   70.8540  223.6730 C   0  0  0  0  0  0  0  0  0  0  0  0
  138.9150   69.5260  223.6560 C   0  0  0  0  0  0  0  0  0  0  0  0
  139.1600   68.6540  224.6960 C   0  0  0  0  0  0  0  0  0  0  0  0
  139.7980   69.1450  225.8010 C   0  0  0  0  0  0  0  0  0  0  0  0
  140.0420   68.2720  226.8400 C   0  0  0  0  0  0  0  0  0  0  0  0
  140.6870   68.7750  227.9510 C   0  0  0  0  0  0  0  0  0  0  0  0
  140.9450   67.9550  228.9900 F   0  0  0  0  0  0  0  0  0  0  0  0
  141.0540   70.0970  227.9850 C   0  0  0  0  0  0  0  0  0  0  0  0
  140.7970   70.9510  226.9310 C   0  0  0  0  0  0  0  0  0  0  0  0
  140.1560   70.4690  225.8120 C   0  0  0  0  0  0  0  0  0  0  0  0
  139.9020   71.3050  224.7740 N   0  0  0  0  0  0  0  0  0  0  0  0
  139.9640   73.3920  223.4680 H   0  0  0  0  0  0  0  0  0  0  0  0
  139.1887   73.4464  220.5525 H   0  0  0  0  0  0  0  0  0  0  0  0
  138.2024   74.4762  221.6437 H   0  0  0  0  0  0  0  0  0  0  0  0
  138.2506   75.6548  220.0824 H   0  0  0  0  0  0  0  0  0  0  0  0
  138.1527   77.1326  221.1478 H   0  0  0  0  0  0  0  0  0  0  0  0
  138.9075   76.8900  218.2558 H   0  0  0  0  0  0  0  0  0  0  0  0
  137.8023   78.0509  219.1012 H   0  0  0  0  0  0  0  0  0  0  0  0
  139.9411   79.0745  218.2971 H   0  0  0  0  0  0  0  0  0  0  0  0
  139.6603   79.2115  220.0755 H   0  0  0  0  0  0  0  0  0  0  0  0
  141.3638   77.0373  218.7780 H   0  0  0  0  0  0  0  0  0  0  0  0
  142.0294   78.5548  219.4328 H   0  0  0  0  0  0  0  0  0  0  0  0
  142.0369   76.6977  221.1982 H   0  0  0  0  0  0  0  0  0  0  0  0
  143.1538   78.7045  221.7310 H   0  0  0  0  0  0  0  0  0  0  0  0
  143.1880   80.5464  223.3305 H   0  0  0  0  0  0  0  0  0  0  0  0
  141.1022   81.3055  224.4519 H   0  0  0  0  0  0  0  0  0  0  0  0
  138.9434   78.2649  222.2824 H   0  0  0  0  0  0  0  0  0  0  0  0
  138.4025   69.1385  222.7632 H   0  0  0  0  0  0  0  0  0  0  0  0
  138.8526   67.5994  224.6384 H   0  0  0  0  0  0  0  0  0  0  0  0
  139.7348   67.2172  226.7853 H   0  0  0  0  0  0  0  0  0  0  0  0
  141.5670   70.4869  228.8765 H   0  0  0  0  0  0  0  0  0  0  0  0
  141.1015   72.0066  226.9848 H   0  0  0  0  0  0  0  0  0  0  0  0
  1  2  2  0
  2  3  1  0
  3  4  1  0
  4  5  1  0
  5  6  2  0
  5  7  1  0
  7  8  1  0
  8  9  1  0
  9 10  1  0
 10 11  1  0
 11 12  1  0
 12 13  1  0
 13 14  2  0
 14 15  1  0
 15 16  2  0
 16 17  1  0
 17 18  1  0
 17 19  2  0
  2 20  1  0
 20 21  2  0
 21 22  1  0
 22 23  2  0
 23 24  1  0
 24 25  2  0
 25 26  1  0
 25 27  1  0
 27 28  2  0
 28 29  1  0
 29 30  2  0
 12  7  1  0
 19 13  1  0
 30 20  1  0
 29 23  1  0
  3 31  1  0
  4 32  1  0
  4 33  1  0
  8 34  1  0
  8 35  1  0
  9 36  1  0
  9 37  1  0
 10 38  1  0
 10 39  1  0
 11 40  1  0
 11 41  1  0
 12 42  1  1
 14 43  1  0
 15 44  1  0
 16 45  1  0
 19 46  1  0
 21 47  1  0
 22 48  1  0
 24 49  1  0
 27 50  1  0
 28 51  1  0
M  END
>  <smiles>  (60) 
O=C(NCC(=O)N1CCCCC1c1cccc(Cl)c1)c1ccc2cc(F)ccc2n1

>  <score_type>  (60) 
oracle

>  <origin>  (60) 
autodockgpu

>  <m_score__min__energy>  (60) 
-9.2799999999999994

>  <m_primary>  (60) 
energy

>  <rmsd>  (60) 
1.4836851333953753

>  <m_score__min__rmsd>  (60) 
1.4836851333953753

>  <meeko>  (60) 
{"free_energy": -8.54, "intermolecular_energy": -10.03, "internal_energy": -1.96, "cluster_size": 36, "cluster_id": 1, "rank_in_cluster": 32}

>  <energy>  (60) 
-9.11

>  <cluster_rmsd>  (60) 
0.72

>  <cluster>  (60) 
1

$$$$

     RDKit          3D

 51 54  0  0  0  0  0  0  0  0999 V2000
  139.9740   73.5720  222.3880 O   0  0  0  0  0  0  0  0  0  0  0  0
  140.3100   72.3690  222.2920 C   0  0  0  0  0  0  0  0  0  0  0  0
  140.7940   71.7740  221.0930 N   0  0  0  0  0  0  0  0  0  0  0  0
  140.9250   72.5630  219.8840 C   0  0  0  0  0  0  0  0  0  0  0  0
  141.8260   73.7140  220.1420 C   0  0  0  0  0  0  0  0  0  0  0  0
  142.8930   73.4540  220.7800 O   0  0  0  0  0  0  0  0  0  0  0  0
  141.5080   75.0360  219.6990 N   0  0  0  0  0  0  0  0  0  0  0  0
  140.6970   75.1710  218.5330 C   0  0  0  0  0  0  0  0  0  0  0  0
  141.0550   76.3770  217.6960 C   0  0  0  0  0  0  0  0  0  0  0  0
  141.5140   77.5350  218.5550 C   0  0  0  0  0  0  0  0  0  0  0  0
  142.6300   77.1050  219.4820 C   0  0  0  0  0  0  0  0  0  0  0  0
  142.0440   76.1330  220.4790 C   0  0  1  0  0  0  0  0  0  0  0  0
  141.0720   76.8250  221.3140 C   0  0  0  0  0  0  0  0  0  0  0  0
  141.4710   78.0310  221.9010 C   0  0  0  0  0  0  0  0  0  0  0  0
  140.6360   78.7700  222.6970 C   0  0  0  0  0  0  0  0  0  0  0  0
  139.3500   78.3550  222.9630 C   0  0  0  0  0  0  0  0  0  0  0  0
  138.9300   77.1660  222.3960 C   0  0  0  0  0  0  0  0  0  0  0  0
  137.2970   76.6260  222.7240 Cl  0  0  0  0  0  0  0  0  0  0  0  0
  139.7920   76.4220  221.5850 C   0  0  0  0  0  0  0  0  0  0  0  0
  140.1990   71.5160  223.4880 C   0  0  0  0  0  0  0  0  0  0  0  0
  139.5790   70.2880  223.4320 C   0  0  0  0  0  0  0  0  0  0  0  0
  139.4460   69.4480  224.5170 C   0  0  0  0  0  0  0  0  0  0  0  0
  139.9610   69.8680  225.7120 C   0  0  0  0  0  0  0  0  0  0  0  0
  139.8270   69.0270  226.7970 C   0  0  0  0  0  0  0  0  0  0  0  0
  140.3510   69.4570  227.9990 C   0  0  0  0  0  0  0  0  0  0  0  0
  140.2410   68.6650  229.0860 F   0  0  0  0  0  0  0  0  0  0  0  0
  140.9730   70.6770  228.0740 C   0  0  0  0  0  0  0  0  0  0  0  0
  141.0940   71.5010  226.9720 C   0  0  0  0  0  0  0  0  0  0  0  0
  140.5790   71.0920  225.7620 C   0  0  0  0  0  0  0  0  0  0  0  0
  140.6960   71.8970  224.6770 N   0  0  0  0  0  0  0  0  0  0  0  0
  141.0530   70.7440  221.1150 H   0  0  0  0  0  0  0  0  0  0  0  0
  141.3470   71.9390  219.0824 H   0  0  0  0  0  0  0  0  0  0  0  0
  139.9354   72.9325  219.5772 H   0  0  0  0  0  0  0  0  0  0  0  0
  140.8187   74.2685  217.9160 H   0  0  0  0  0  0  0  0  0  0  0  0
  139.6585   75.3036  218.8704 H   0  0  0  0  0  0  0  0  0  0  0  0
  141.8647   76.1033  217.0036 H   0  0  0  0  0  0  0  0  0  0  0  0
  140.1566   76.6923  217.1451 H   0  0  0  0  0  0  0  0  0  0  0  0
  141.8766   78.3450  217.9051 H   0  0  0  0  0  0  0  0  0  0  0  0
  140.6651   77.8830  219.1618 H   0  0  0  0  0  0  0  0  0  0  0  0
  143.4291   76.6157  218.9058 H   0  0  0  0  0  0  0  0  0  0  0  0
  143.0618   77.9754  219.9977 H   0  0  0  0  0  0  0  0  0  0  0  0
  142.7797   75.7236  221.1869 H   0  0  0  0  0  0  0  0  0  0  0  0
  142.4912   78.3987  221.7168 H   0  0  0  0  0  0  0  0  0  0  0  0
  140.9996   79.7127  223.1319 H   0  0  0  0  0  0  0  0  0  0  0  0
  138.6810   78.9483  223.6036 H   0  0  0  0  0  0  0  0  0  0  0  0
  139.4290   75.4795  221.1492 H   0  0  0  0  0  0  0  0  0  0  0  0
  139.1664   69.9585  222.4670 H   0  0  0  0  0  0  0  0  0  0  0  0
  138.9432   68.4740  224.4246 H   0  0  0  0  0  0  0  0  0  0  0  0
  139.3230   68.0533  226.7078 H   0  0  0  0  0  0  0  0  0  0  0  0
  141.3868   71.0083  229.0379 H   0  0  0  0  0  0  0  0  0  0  0  0
  141.5972   72.4752  227.0601 H   0  0  0  0  0  0  0  0  0  0  0  0
  1  2  2  0
  2  3  1  0
  3  4  1  0
  4  5  1  0
  5  6  2  0
  5  7  1  0
  7  8  1  0
  8  9  1  0
  9 10  1  0
 10 11  1  0
 11 12  1  0
 12 13  1  0
 13 14  2  0
 14 15  1  0
 15 16  2  0
 16 17  1  0
 17 18  1  0
 17 19  2  0
  2 20  1  0
 20 21  2  0
 21 22  1  0
 22 23  2  0
 23 24  1  0
 24 25  2  0
 25 26  1  0
 25 27  1  0
 27 28  2  0
 28 29  1  0
 29 30  2  0
 12  7  1  0
 19 13  1  0
 30 20  1  0
 29 23  1  0
  3 31  1  0
  4 32  1  0
  4 33  1  0
  8 34  1  0
  8 35  1  0
  9 36  1  0
  9 37  1  0
 10 38  1  0
 10 39  1  0
 11 40  1  0
 11 41  1  0
 12 42  1  1
 14 43  1  0
 15 44  1  0
 16 45  1  0
 19 46  1  0
 21 47  1  0
 22 48  1  0
 24 49  1  0
 27 50  1  0
 28 51  1  0
M  END
>  <smiles>  (61) 
O=C(NCC(=O)N1CCCCC1c1cccc(Cl)c1)c1ccc2cc(F)ccc2n1

>  <score_type>  (61) 
oracle

>  <origin>  (61) 
autodockgpu

>  <m_score__min__energy>  (61) 
-9.2799999999999994

>  <m_primary>  (61) 
energy

>  <rmsd>  (61) 
1.9735620509570775

>  <m_score__min__rmsd>  (61) 
1.9735620509570775

>  <meeko>  (61) 
{"free_energy": -7.94, "intermolecular_energy": -9.43, "internal_energy": -1.77, "cluster_size": 36, "cluster_id": 1, "rank_in_cluster": 35}

>  <energy>  (61) 
-9.06

>  <cluster_rmsd>  (61) 
0.74

>  <cluster>  (61) 
1

$$$$

     RDKit          3D

 51 54  0  0  0  0  0  0  0  0999 V2000
  141.1340   71.6970  221.4240 O   0  0  0  0  0  0  0  0  0  0  0  0
  140.4360   72.1490  222.3610 C   0  0  0  0  0  0  0  0  0  0  0  0
  139.8120   73.4270  222.3400 N   0  0  0  0  0  0  0  0  0  0  0  0
  139.9590   74.2970  221.1890 C   0  0  0  0  0  0  0  0  0  0  0  0
  139.4250   75.6430  221.5170 C   0  0  0  0  0  0  0  0  0  0  0  0
  138.4820   75.6760  222.3670 O   0  0  0  0  0  0  0  0  0  0  0  0
  139.9440   76.8290  220.9100 N   0  0  0  0  0  0  0  0  0  0  0  0
  139.2000   77.4110  219.8410 C   0  0  0  0  0  0  0  0  0  0  0  0
  140.0740   78.0500  218.7870 C   0  0  0  0  0  0  0  0  0  0  0  0
  141.3190   78.6620  219.3920 C   0  0  0  0  0  0  0  0  0  0  0  0
  142.0570   77.6470  220.2380 C   0  0  0  0  0  0  0  0  0  0  0  0
  141.1920   77.3410  221.4380 C   0  0  1  0  0  0  0  0  0  0  0  0
  141.0680   78.5350  222.2620 C   0  0  0  0  0  0  0  0  0  0  0  0
  142.2400   79.2410  222.5530 C   0  0  0  0  0  0  0  0  0  0  0  0
  142.2390   80.3820  223.3110 C   0  0  0  0  0  0  0  0  0  0  0  0
  141.0710   80.8950  223.8280 C   0  0  0  0  0  0  0  0  0  0  0  0
  139.8970   80.2180  223.5550 C   0  0  0  0  0  0  0  0  0  0  0  0
  138.4030   80.8580  224.2050 Cl  0  0  0  0  0  0  0  0  0  0  0  0
  139.9120   79.0540  222.7810 C   0  0  0  0  0  0  0  0  0  0  0  0
  140.2500   71.3110  223.5590 C   0  0  0  0  0  0  0  0  0  0  0  0
  139.6180   70.0900  223.4820 C   0  0  0  0  0  0  0  0  0  0  0  0
  139.4150   69.2640  224.5670 C   0  0  0  0  0  0  0  0  0  0  0  0
  139.8710   69.6900  225.7830 C   0  0  0  0  0  0  0  0  0  0  0  0
  139.6680   68.8630  226.8680 C   0  0  0  0  0  0  0  0  0  0  0  0
  140.1320   69.2990  228.0920 C   0  0  0  0  0  0  0  0  0  0  0  0
  139.9540   68.5200  229.1790 F   0  0  0  0  0  0  0  0  0  0  0  0
  140.7640   70.5130  228.1870 C   0  0  0  0  0  0  0  0  0  0  0  0
  140.9550   71.3230  227.0850 C   0  0  0  0  0  0  0  0  0  0  0  0
  140.5010   70.9070  225.8540 C   0  0  0  0  0  0  0  0  0  0  0  0
  140.6870   71.6990  224.7690 N   0  0  0  0  0  0  0  0  0  0  0  0
  139.2400   73.7190  223.1860 H   0  0  0  0  0  0  0  0  0  0  0  0
  141.0236   74.3790  220.9245 H   0  0  0  0  0  0  0  0  0  0  0  0
  139.4019   73.8780  220.3381 H   0  0  0  0  0  0  0  0  0  0  0  0
  138.5972   76.6235  219.3651 H   0  0  0  0  0  0  0  0  0  0  0  0
  138.5741   78.2058  220.2728 H   0  0  0  0  0  0  0  0  0  0  0  0
  140.3718   77.2829  218.0571 H   0  0  0  0  0  0  0  0  0  0  0  0
  139.4977   78.8513  218.3015 H   0  0  0  0  0  0  0  0  0  0  0  0
  141.9805   79.0080  218.5841 H   0  0  0  0  0  0  0  0  0  0  0  0
  141.0230   79.5069  220.0311 H   0  0  0  0  0  0  0  0  0  0  0  0
  142.2313   76.7294  219.6569 H   0  0  0  0  0  0  0  0  0  0  0  0
  143.0330   78.0432  220.5549 H   0  0  0  0  0  0  0  0  0  0  0  0
  141.6166   76.5815  222.1110 H   0  0  0  0  0  0  0  0  0  0  0  0
  143.1964   78.8666  222.1591 H   0  0  0  0  0  0  0  0  0  0  0  0
  143.1897   80.8981  223.5103 H   0  0  0  0  0  0  0  0  0  0  0  0
  141.0717   81.8112  224.4368 H   0  0  0  0  0  0  0  0  0  0  0  0
  138.9618   78.5368  222.5819 H   0  0  0  0  0  0  0  0  0  0  0  0
  139.2546   69.7548  222.4994 H   0  0  0  0  0  0  0  0  0  0  0  0
  138.9039   68.2961  224.4579 H   0  0  0  0  0  0  0  0  0  0  0  0
  139.1568   67.8948  226.7617 H   0  0  0  0  0  0  0  0  0  0  0  0
  141.1288   70.8505  229.1683 H   0  0  0  0  0  0  0  0  0  0  0  0
  141.4653   72.2918  227.1900 H   0  0  0  0  0  0  0  0  0  0  0  0
  1  2  2  0
  2  3  1  0
  3  4  1  0
  4  5  1  0
  5  6  2  0
  5  7  1  0
  7  8  1  0
  8  9  1  0
  9 10  1  0
 10 11  1  0
 11 12  1  0
 12 13  1  0
 13 14  2  0
 14 15  1  0
 15 16  2  0
 16 17  1  0
 17 18  1  0
 17 19  2  0
  2 20  1  0
 20 21  2  0
 21 22  1  0
 22 23  2  0
 23 24  1  0
 24 25  2  0
 25 26  1  0
 25 27  1  0
 27 28  2  0
 28 29  1  0
 29 30  2  0
 12  7  1  0
 19 13  1  0
 30 20  1  0
 29 23  1  0
  3 31  1  0
  4 32  1  0
  4 33  1  0
  8 34  1  0
  8 35  1  0
  9 36  1  0
  9 37  1  0
 10 38  1  0
 10 39  1  0
 11 40  1  0
 11 41  1  0
 12 42  1  1
 14 43  1  0
 15 44  1  0
 16 45  1  0
 19 46  1  0
 21 47  1  0
 22 48  1  0
 24 49  1  0
 27 50  1  0
 28 51  1  0
M  END
>  <smiles>  (62) 
O=C(NCC(=O)N1CCCCC1c1cccc(Cl)c1)c1ccc2cc(F)ccc2n1

>  <score_type>  (62) 
oracle

>  <origin>  (62) 
autodockgpu

>  <m_score__min__energy>  (62) 
-9.2799999999999994

>  <m_primary>  (62) 
energy

>  <rmsd>  (62) 
1.9028308590406557

>  <m_score__min__rmsd>  (62) 
1.9028308590406557

>  <meeko>  (62) 
{"free_energy": -9.12, "intermolecular_energy": -10.61, "internal_energy": -1.93, "cluster_size": 36, "cluster_id": 1, "rank_in_cluster": 8}

>  <energy>  (62) 
-9.05

>  <cluster_rmsd>  (62) 
0.74

>  <cluster>  (62) 
1

$$$$

     RDKit          3D

 51 54  0  0  0  0  0  0  0  0999 V2000
  140.9190   71.5480  221.3430 O   0  0  0  0  0  0  0  0  0  0  0  0
  140.3200   72.0040  222.3450 C   0  0  0  0  0  0  0  0  0  0  0  0
  139.7460   73.3050  222.4010 N   0  0  0  0  0  0  0  0  0  0  0  0
  139.8320   74.1950  221.2600 C   0  0  0  0  0  0  0  0  0  0  0  0
  139.5120   75.5800  221.6890 C   0  0  0  0  0  0  0  0  0  0  0  0
  138.7450   75.6870  222.6960 O   0  0  0  0  0  0  0  0  0  0  0  0
  140.0360   76.7220  221.0070 N   0  0  0  0  0  0  0  0  0  0  0  0
  139.3030   77.2280  219.8930 C   0  0  0  0  0  0  0  0  0  0  0  0
  140.1880   77.7940  218.8060 C   0  0  0  0  0  0  0  0  0  0  0  0
  141.4260   78.4470  219.3810 C   0  0  0  0  0  0  0  0  0  0  0  0
  142.1560   77.4950  220.3020 C   0  0  0  0  0  0  0  0  0  0  0  0
  141.2780   77.2710  221.5120 C   0  0  1  0  0  0  0  0  0  0  0  0
  141.1440   78.5190  222.2490 C   0  0  0  0  0  0  0  0  0  0  0  0
  142.2970   79.2920  222.4220 C   0  0  0  0  0  0  0  0  0  0  0  0
  142.2840   80.4880  223.0910 C   0  0  0  0  0  0  0  0  0  0  0  0
  141.1230   80.9910  223.6320 C   0  0  0  0  0  0  0  0  0  0  0  0
  139.9680   80.2480  223.4760 C   0  0  0  0  0  0  0  0  0  0  0  0
  138.4830   80.8760  224.1580 Cl  0  0  0  0  0  0  0  0  0  0  0  0
  139.9940   79.0300  222.7910 C   0  0  0  0  0  0  0  0  0  0  0  0
  140.2000   71.1460  223.5360 C   0  0  0  0  0  0  0  0  0  0  0  0
  139.5780   69.9200  223.4710 C   0  0  0  0  0  0  0  0  0  0  0  0
  139.4370   69.0750  224.5510 C   0  0  0  0  0  0  0  0  0  0  0  0
  139.9470   69.4880  225.7510 C   0  0  0  0  0  0  0  0  0  0  0  0
  139.8050   68.6420  226.8320 C   0  0  0  0  0  0  0  0  0  0  0  0
  140.3230   69.0660  228.0390 C   0  0  0  0  0  0  0  0  0  0  0  0
  140.2050   68.2690  229.1200 F   0  0  0  0  0  0  0  0  0  0  0  0
  140.9460   70.2850  228.1220 C   0  0  0  0  0  0  0  0  0  0  0  0
  141.0750   71.1130  227.0250 C   0  0  0  0  0  0  0  0  0  0  0  0
  140.5660   70.7100  225.8110 C   0  0  0  0  0  0  0  0  0  0  0  0
  140.6910   71.5210  224.7300 N   0  0  0  0  0  0  0  0  0  0  0  0
  139.2580   73.5980  223.2980 H   0  0  0  0  0  0  0  0  0  0  0  0
  140.8512   74.1650  220.8473 H   0  0  0  0  0  0  0  0  0  0  0  0
  139.1154   73.8744  220.4894 H   0  0  0  0  0  0  0  0  0  0  0  0
  138.7055   76.4089  219.4664 H   0  0  0  0  0  0  0  0  0  0  0  0
  138.6724   78.0500  220.2625 H   0  0  0  0  0  0  0  0  0  0  0  0
  140.4937   76.9788  218.1336 H   0  0  0  0  0  0  0  0  0  0  0  0
  139.6167   78.5593  218.2601 H   0  0  0  0  0  0  0  0  0  0  0  0
  142.0957   78.7377  218.5582 H   0  0  0  0  0  0  0  0  0  0  0  0
  141.1221   79.3328  219.9580 H   0  0  0  0  0  0  0  0  0  0  0  0
  142.3375   76.5398  219.7876 H   0  0  0  0  0  0  0  0  0  0  0  0
  143.1282   77.9139  220.6008 H   0  0  0  0  0  0  0  0  0  0  0  0
  141.6958   76.5606  222.2405 H   0  0  0  0  0  0  0  0  0  0  0  0
  143.2478   78.9269  222.0063 H   0  0  0  0  0  0  0  0  0  0  0  0
  143.2195   81.0568  223.1976 H   0  0  0  0  0  0  0  0  0  0  0  0
  141.1144   81.9506  224.1697 H   0  0  0  0  0  0  0  0  0  0  0  0
  139.0584   78.4617  222.6832 H   0  0  0  0  0  0  0  0  0  0  0  0
  139.1702   69.5960  222.5021 H   0  0  0  0  0  0  0  0  0  0  0  0
  138.9321   68.1028  224.4512 H   0  0  0  0  0  0  0  0  0  0  0  0
  139.2997   67.6697  226.7357 H   0  0  0  0  0  0  0  0  0  0  0  0
  141.3543   70.6120  229.0897 H   0  0  0  0  0  0  0  0  0  0  0  0
  141.5798   72.0857  227.1200 H   0  0  0  0  0  0  0  0  0  0  0  0
  1  2  2  0
  2  3  1  0
  3  4  1  0
  4  5  1  0
  5  6  2  0
  5  7  1  0
  7  8  1  0
  8  9  1  0
  9 10  1  0
 10 11  1  0
 11 12  1  0
 12 13  1  0
 13 14  2  0
 14 15  1  0
 15 16  2  0
 16 17  1  0
 17 18  1  0
 17 19  2  0
  2 20  1  0
 20 21  2  0
 21 22  1  0
 22 23  2  0
 23 24  1  0
 24 25  2  0
 25 26  1  0
 25 27  1  0
 27 28  2  0
 28 29  1  0
 29 30  2  0
 12  7  1  0
 19 13  1  0
 30 20  1  0
 29 23  1  0
  3 31  1  0
  4 32  1  0
  4 33  1  0
  8 34  1  0
  8 35  1  0
  9 36  1  0
  9 37  1  0
 10 38  1  0
 10 39  1  0
 11 40  1  0
 11 41  1  0
 12 42  1  1
 14 43  1  0
 15 44  1  0
 16 45  1  0
 19 46  1  0
 21 47  1  0
 22 48  1  0
 24 49  1  0
 27 50  1  0
 28 51  1  0
M  END
>  <smiles>  (63) 
O=C(NCC(=O)N1CCCCC1c1cccc(Cl)c1)c1ccc2cc(F)ccc2n1

>  <score_type>  (63) 
oracle

>  <origin>  (63) 
autodockgpu

>  <m_score__min__energy>  (63) 
-9.2799999999999994

>  <m_primary>  (63) 
energy

>  <rmsd>  (63) 
1.8202554260834485

>  <m_score__min__rmsd>  (63) 
1.8202554260834485

>  <meeko>  (63) 
{"free_energy": -9.11, "intermolecular_energy": -10.6, "internal_energy": -1.95, "cluster_size": 36, "cluster_id": 1, "rank_in_cluster": 10}

>  <energy>  (63) 
-9.01

>  <cluster_rmsd>  (63) 
0.76

>  <cluster>  (63) 
1

$$$$

     RDKit          3D

 51 54  0  0  0  0  0  0  0  0999 V2000
  140.7290   72.2800  222.1990 O   0  0  0  0  0  0  0  0  0  0  0  0
  139.7830   72.0170  222.9790 C   0  0  0  0  0  0  0  0  0  0  0  0
  138.4220   72.3280  222.7080 N   0  0  0  0  0  0  0  0  0  0  0  0
  138.0520   72.9880  221.4710 C   0  0  0  0  0  0  0  0  0  0  0  0
  138.0850   74.4600  221.6690 C   0  0  0  0  0  0  0  0  0  0  0  0
  137.1530   74.9460  222.3810 O   0  0  0  0  0  0  0  0  0  0  0  0
  139.1050   75.2760  221.0900 N   0  0  0  0  0  0  0  0  0  0  0  0
  138.9680   75.6440  219.7190 C   0  0  0  0  0  0  0  0  0  0  0  0
  140.2900   75.7450  218.9940 C   0  0  0  0  0  0  0  0  0  0  0  0
  141.3880   76.2470  219.9060 C   0  0  0  0  0  0  0  0  0  0  0  0
  141.4650   75.4100  221.1640 C   0  0  0  0  0  0  0  0  0  0  0  0
  140.2020   75.6630  221.9550 C   0  0  1  0  0  0  0  0  0  0  0  0
  140.1780   77.0500  222.3970 C   0  0  0  0  0  0  0  0  0  0  0  0
  138.9250   77.6420  222.5900 C   0  0  0  0  0  0  0  0  0  0  0  0
  138.7840   78.9370  223.0120 C   0  0  0  0  0  0  0  0  0  0  0  0
  139.8820   79.7290  223.2680 C   0  0  0  0  0  0  0  0  0  0  0  0
  141.1320   79.1690  223.0850 C   0  0  0  0  0  0  0  0  0  0  0  0
  142.5370   80.1620  223.4080 Cl  0  0  0  0  0  0  0  0  0  0  0  0
  141.2620   77.8450  222.6540 C   0  0  0  0  0  0  0  0  0  0  0  0
  140.0960   71.3450  224.2530 C   0  0  0  0  0  0  0  0  0  0  0  0
  140.9740   71.9030  225.1540 C   0  0  0  0  0  0  0  0  0  0  0  0
  141.3040   71.3220  226.3600 C   0  0  0  0  0  0  0  0  0  0  0  0
  140.7220   70.1240  226.6680 C   0  0  0  0  0  0  0  0  0  0  0  0
  141.0540   69.5430  227.8740 C   0  0  0  0  0  0  0  0  0  0  0  0
  140.4610   68.3340  228.1790 C   0  0  0  0  0  0  0  0  0  0  0  0
  140.7570   67.7320  229.3490 F   0  0  0  0  0  0  0  0  0  0  0  0
  139.5830   67.7640  227.2920 C   0  0  0  0  0  0  0  0  0  0  0  0
  139.2680   68.3660  226.0900 C   0  0  0  0  0  0  0  0  0  0  0  0
  139.8480   69.5730  225.7660 C   0  0  0  0  0  0  0  0  0  0  0  0
  139.5410   70.1680  224.5870 N   0  0  0  0  0  0  0  0  0  0  0  0
  137.6940   72.0630  223.4350 H   0  0  0  0  0  0  0  0  0  0  0  0
  138.7621   72.7081  220.6789 H   0  0  0  0  0  0  0  0  0  0  0  0
  137.0377   72.6789  221.1784 H   0  0  0  0  0  0  0  0  0  0  0  0
  138.3495   74.8873  219.2142 H   0  0  0  0  0  0  0  0  0  0  0  0
  138.5045   76.6412  219.6933 H   0  0  0  0  0  0  0  0  0  0  0  0
  140.5669   74.7498  218.6161 H   0  0  0  0  0  0  0  0  0  0  0  0
  140.1752   76.4611  218.1670 H   0  0  0  0  0  0  0  0  0  0  0  0
  142.3505   76.1916  219.3763 H   0  0  0  0  0  0  0  0  0  0  0  0
  141.1654   77.2869  220.1871 H   0  0  0  0  0  0  0  0  0  0  0  0
  141.5372   74.3440  220.9022 H   0  0  0  0  0  0  0  0  0  0  0  0
  142.3530   75.6788  221.7549 H   0  0  0  0  0  0  0  0  0  0  0  0
  140.1313   75.0746  222.8817 H   0  0  0  0  0  0  0  0  0  0  0  0
  138.0211   77.0459  222.3958 H   0  0  0  0  0  0  0  0  0  0  0  0
  137.7749   79.3529  223.1492 H   0  0  0  0  0  0  0  0  0  0  0  0
  139.7677   80.7696  223.6059 H   0  0  0  0  0  0  0  0  0  0  0  0
  142.2706   77.4280  222.5168 H   0  0  0  0  0  0  0  0  0  0  0  0
  141.4385   72.8666  224.8976 H   0  0  0  0  0  0  0  0  0  0  0  0
  142.0109   71.8056  227.0503 H   0  0  0  0  0  0  0  0  0  0  0  0
  141.7625   70.0233  228.5648 H   0  0  0  0  0  0  0  0  0  0  0  0
  139.1170   66.8004  227.5456 H   0  0  0  0  0  0  0  0  0  0  0  0
  138.5606   67.8864  225.3975 H   0  0  0  0  0  0  0  0  0  0  0  0
  1  2  2  0
  2  3  1  0
  3  4  1  0
  4  5  1  0
  5  6  2  0
  5  7  1  0
  7  8  1  0
  8  9  1  0
  9 10  1  0
 10 11  1  0
 11 12  1  0
 12 13  1  0
 13 14  2  0
 14 15  1  0
 15 16  2  0
 16 17  1  0
 17 18  1  0
 17 19  2  0
  2 20  1  0
 20 21  2  0
 21 22  1  0
 22 23  2  0
 23 24  1  0
 24 25  2  0
 25 26  1  0
 25 27  1  0
 27 28  2  0
 28 29  1  0
 29 30  2  0
 12  7  1  0
 19 13  1  0
 30 20  1  0
 29 23  1  0
  3 31  1  0
  4 32  1  0
  4 33  1  0
  8 34  1  0
  8 35  1  0
  9 36  1  0
  9 37  1  0
 10 38  1  0
 10 39  1  0
 11 40  1  0
 11 41  1  0
 12 42  1  1
 14 43  1  0
 15 44  1  0
 16 45  1  0
 19 46  1  0
 21 47  1  0
 22 48  1  0
 24 49  1  0
 27 50  1  0
 28 51  1  0
M  END
>  <smiles>  (64) 
O=C(NCC(=O)N1CCCCC1c1cccc(Cl)c1)c1ccc2cc(F)ccc2n1

>  <score_type>  (64) 
oracle

>  <origin>  (64) 
autodockgpu

>  <m_score__min__energy>  (64) 
-9.2799999999999994

>  <m_primary>  (64) 
energy

>  <rmsd>  (64) 
2.8959952726623017

>  <m_score__min__rmsd>  (64) 
2.8959952726623017

>  <meeko>  (64) 
{"free_energy": -8.45, "intermolecular_energy": -9.94, "internal_energy": -1.77, "cluster_size": 36, "cluster_id": 1, "rank_in_cluster": 34}

>  <energy>  (64) 
-9.01

>  <cluster_rmsd>  (64) 
0.76

>  <cluster>  (64) 
1

$$$$

     RDKit          3D

 51 54  0  0  0  0  0  0  0  0999 V2000
  140.6280   71.4440  221.2140 O   0  0  0  0  0  0  0  0  0  0  0  0
  140.2350   71.9650  222.2850 C   0  0  0  0  0  0  0  0  0  0  0  0
  139.8600   73.3310  222.4120 N   0  0  0  0  0  0  0  0  0  0  0  0
  139.9180   74.2170  221.2660 C   0  0  0  0  0  0  0  0  0  0  0  0
  139.5740   75.5970  221.6920 C   0  0  0  0  0  0  0  0  0  0  0  0
  138.8030   75.6940  222.6970 O   0  0  0  0  0  0  0  0  0  0  0  0
  140.0810   76.7460  221.0090 N   0  0  0  0  0  0  0  0  0  0  0  0
  139.3330   77.2510  219.9050 C   0  0  0  0  0  0  0  0  0  0  0  0
  140.2010   77.8280  218.8110 C   0  0  0  0  0  0  0  0  0  0  0  0
  141.4400   78.4900  219.3760 C   0  0  0  0  0  0  0  0  0  0  0  0
  142.1870   77.5400  220.2860 C   0  0  0  0  0  0  0  0  0  0  0  0
  141.3240   77.3040  221.5030 C   0  0  1  0  0  0  0  0  0  0  0  0
  141.1870   78.5480  222.2470 C   0  0  0  0  0  0  0  0  0  0  0  0
  142.3390   79.3220  222.4240 C   0  0  0  0  0  0  0  0  0  0  0  0
  142.3240   80.5140  223.1000 C   0  0  0  0  0  0  0  0  0  0  0  0
  141.1620   81.0120  223.6430 C   0  0  0  0  0  0  0  0  0  0  0  0
  140.0080   80.2680  223.4830 C   0  0  0  0  0  0  0  0  0  0  0  0
  138.5220   80.8890  224.1680 Cl  0  0  0  0  0  0  0  0  0  0  0  0
  140.0370   79.0530  222.7920 C   0  0  0  0  0  0  0  0  0  0  0  0
  140.1560   71.1140  223.4850 C   0  0  0  0  0  0  0  0  0  0  0  0
  139.5810   69.8640  223.4350 C   0  0  0  0  0  0  0  0  0  0  0  0
  139.4790   69.0250  224.5250 C   0  0  0  0  0  0  0  0  0  0  0  0
  139.9800   69.4680  225.7170 C   0  0  0  0  0  0  0  0  0  0  0  0
  139.8770   68.6280  226.8060 C   0  0  0  0  0  0  0  0  0  0  0  0
  140.3860   69.0830  228.0060 C   0  0  0  0  0  0  0  0  0  0  0  0
  140.3060   68.2920  229.0960 F   0  0  0  0  0  0  0  0  0  0  0  0
  140.9630   70.3250  228.0740 C   0  0  0  0  0  0  0  0  0  0  0  0
  141.0530   71.1480  226.9680 C   0  0  0  0  0  0  0  0  0  0  0  0
  140.5520   70.7140  225.7610 C   0  0  0  0  0  0  0  0  0  0  0  0
  140.6390   71.5180  224.6720 N   0  0  0  0  0  0  0  0  0  0  0  0
  139.5400   73.6760  223.3640 H   0  0  0  0  0  0  0  0  0  0  0  0
  140.9339   74.2055  220.8443 H   0  0  0  0  0  0  0  0  0  0  0  0
  139.2015   73.8785  220.5031 H   0  0  0  0  0  0  0  0  0  0  0  0
  138.7371   76.4291  219.4814 H   0  0  0  0  0  0  0  0  0  0  0  0
  138.7008   78.0671  220.2849 H   0  0  0  0  0  0  0  0  0  0  0  0
  140.5066   77.0178  218.1326 H   0  0  0  0  0  0  0  0  0  0  0  0
  139.6175   78.5900  218.2736 H   0  0  0  0  0  0  0  0  0  0  0  0
  142.0989   78.7894  218.5476 H   0  0  0  0  0  0  0  0  0  0  0  0
  141.1349   79.3714  219.9592 H   0  0  0  0  0  0  0  0  0  0  0  0
  142.3710   76.5884  219.7658 H   0  0  0  0  0  0  0  0  0  0  0  0
  143.1587   77.9657  220.5768 H   0  0  0  0  0  0  0  0  0  0  0  0
  141.7556   76.5942  222.2241 H   0  0  0  0  0  0  0  0  0  0  0  0
  143.2902   78.9610  222.0058 H   0  0  0  0  0  0  0  0  0  0  0  0
  143.2586   81.0834  223.2106 H   0  0  0  0  0  0  0  0  0  0  0  0
  141.1517   81.9688  224.1855 H   0  0  0  0  0  0  0  0  0  0  0  0
  139.1029   78.4826  222.6823 H   0  0  0  0  0  0  0  0  0  0  0  0
  139.1805   69.5149  222.4718 H   0  0  0  0  0  0  0  0  0  0  0  0
  139.0106   68.0335  224.4380 H   0  0  0  0  0  0  0  0  0  0  0  0
  139.4086   67.6363  226.7219 H   0  0  0  0  0  0  0  0  0  0  0  0
  141.3654   70.6758  229.0358 H   0  0  0  0  0  0  0  0  0  0  0  0
  141.5203   72.1404  227.0508 H   0  0  0  0  0  0  0  0  0  0  0  0
  1  2  2  0
  2  3  1  0
  3  4  1  0
  4  5  1  0
  5  6  2  0
  5  7  1  0
  7  8  1  0
  8  9  1  0
  9 10  1  0
 10 11  1  0
 11 12  1  0
 12 13  1  0
 13 14  2  0
 14 15  1  0
 15 16  2  0
 16 17  1  0
 17 18  1  0
 17 19  2  0
  2 20  1  0
 20 21  2  0
 21 22  1  0
 22 23  2  0
 23 24  1  0
 24 25  2  0
 25 26  1  0
 25 27  1  0
 27 28  2  0
 28 29  1  0
 29 30  2  0
 12  7  1  0
 19 13  1  0
 30 20  1  0
 29 23  1  0
  3 31  1  0
  4 32  1  0
  4 33  1  0
  8 34  1  0
  8 35  1  0
  9 36  1  0
  9 37  1  0
 10 38  1  0
 10 39  1  0
 11 40  1  0
 11 41  1  0
 12 42  1  1
 14 43  1  0
 15 44  1  0
 16 45  1  0
 19 46  1  0
 21 47  1  0
 22 48  1  0
 24 49  1  0
 27 50  1  0
 28 51  1  0
M  END
>  <smiles>  (65) 
O=C(NCC(=O)N1CCCCC1c1cccc(Cl)c1)c1ccc2cc(F)ccc2n1

>  <score_type>  (65) 
oracle

>  <origin>  (65) 
autodockgpu

>  <m_score__min__energy>  (65) 
-9.2799999999999994

>  <m_primary>  (65) 
energy

>  <rmsd>  (65) 
1.8209138078546896

>  <m_score__min__rmsd>  (65) 
1.8209138078546896

>  <meeko>  (65) 
{"free_energy": -9.06, "intermolecular_energy": -10.55, "internal_energy": -1.98, "cluster_size": 36, "cluster_id": 1, "rank_in_cluster": 11}

>  <energy>  (65) 
-8.98

>  <cluster_rmsd>  (65) 
0.76

>  <cluster>  (65) 
1

$$$$

     RDKit          3D

 51 54  0  0  0  0  0  0  0  0999 V2000
  140.5020   71.7110  221.1310 O   0  0  0  0  0  0  0  0  0  0  0  0
  140.1570   72.2590  222.2040 C   0  0  0  0  0  0  0  0  0  0  0  0
  139.8150   73.6350  222.3180 N   0  0  0  0  0  0  0  0  0  0  0  0
  139.8500   74.4980  221.1540 C   0  0  0  0  0  0  0  0  0  0  0  0
  141.0040   75.4260  221.2630 C   0  0  0  0  0  0  0  0  0  0  0  0
  141.0760   76.1010  222.3360 O   0  0  0  0  0  0  0  0  0  0  0  0
  141.9730   75.5510  220.2200 N   0  0  0  0  0  0  0  0  0  0  0  0
  142.5890   76.8230  220.0300 C   0  0  0  0  0  0  0  0  0  0  0  0
  142.9020   77.1220  218.5820 C   0  0  0  0  0  0  0  0  0  0  0  0
  143.2820   75.8690  217.8240 C   0  0  0  0  0  0  0  0  0  0  0  0
  142.2250   74.8000  217.9920 C   0  0  0  0  0  0  0  0  0  0  0  0
  142.2480   74.3610  219.4380 C   0  0  1  0  0  0  0  0  0  0  0  0
  143.5210   73.7160  219.7270 C   0  0  0  0  0  0  0  0  0  0  0  0
  144.4080   74.3920  220.5720 C   0  0  0  0  0  0  0  0  0  0  0  0
  145.6290   73.8750  220.9170 C   0  0  0  0  0  0  0  0  0  0  0  0
  146.0460   72.6510  220.4450 C   0  0  0  0  0  0  0  0  0  0  0  0
  145.1880   71.9610  219.6080 C   0  0  0  0  0  0  0  0  0  0  0  0
  145.7040   70.4030  218.9990 Cl  0  0  0  0  0  0  0  0  0  0  0  0
  143.9460   72.5000  219.2630 C   0  0  0  0  0  0  0  0  0  0  0  0
  140.1030   71.4320  223.4230 C   0  0  0  0  0  0  0  0  0  0  0  0
  139.5790   70.1590  223.3970 C   0  0  0  0  0  0  0  0  0  0  0  0
  139.5030   69.3410  224.5040 C   0  0  0  0  0  0  0  0  0  0  0  0
  139.9770   69.8300  225.6890 C   0  0  0  0  0  0  0  0  0  0  0  0
  139.8990   69.0100  226.7960 C   0  0  0  0  0  0  0  0  0  0  0  0
  140.3810   69.5110  227.9890 C   0  0  0  0  0  0  0  0  0  0  0  0
  140.3240   68.7420  229.0950 F   0  0  0  0  0  0  0  0  0  0  0  0
  140.9060   70.7770  228.0330 C   0  0  0  0  0  0  0  0  0  0  0  0
  140.9720   71.5780  226.9100 C   0  0  0  0  0  0  0  0  0  0  0  0
  140.4980   71.0980  225.7090 C   0  0  0  0  0  0  0  0  0  0  0  0
  140.5610   71.8810  224.6030 N   0  0  0  0  0  0  0  0  0  0  0  0
  139.5360   74.0030  223.2750 H   0  0  0  0  0  0  0  0  0  0  0  0
  139.9558   73.8858  220.2462 H   0  0  0  0  0  0  0  0  0  0  0  0
  138.9166   75.0772  221.0977 H   0  0  0  0  0  0  0  0  0  0  0  0
  141.9095   77.6007  220.4087 H   0  0  0  0  0  0  0  0  0  0  0  0
  143.5444   76.8084  220.5749 H   0  0  0  0  0  0  0  0  0  0  0  0
  142.0148   77.5694  218.1101 H   0  0  0  0  0  0  0  0  0  0  0  0
  143.7555   77.8152  218.5506 H   0  0  0  0  0  0  0  0  0  0  0  0
  143.3844   76.1105  216.7557 H   0  0  0  0  0  0  0  0  0  0  0  0
  144.2344   75.4899  218.2231 H   0  0  0  0  0  0  0  0  0  0  0  0
  141.2351   75.2077  217.7391 H   0  0  0  0  0  0  0  0  0  0  0  0
  142.4262   73.9484  217.3255 H   0  0  0  0  0  0  0  0  0  0  0  0
  141.4894   73.6040  219.6862 H   0  0  0  0  0  0  0  0  0  0  0  0
  144.1147   75.3732  220.9735 H   0  0  0  0  0  0  0  0  0  0  0  0
  146.2888   74.4491  221.5841 H   0  0  0  0  0  0  0  0  0  0  0  0
  147.0262   72.2367  220.7235 H   0  0  0  0  0  0  0  0  0  0  0  0
  143.2862   71.9271  218.5949 H   0  0  0  0  0  0  0  0  0  0  0  0
  139.1998   69.7731  222.4393 H   0  0  0  0  0  0  0  0  0  0  0  0
  139.0757   68.3297  224.4360 H   0  0  0  0  0  0  0  0  0  0  0  0
  139.4705   67.9990  226.7308 H   0  0  0  0  0  0  0  0  0  0  0  0
  141.2853   71.1655  228.9897 H   0  0  0  0  0  0  0  0  0  0  0  0
  141.3990   72.5897  226.9739 H   0  0  0  0  0  0  0  0  0  0  0  0
  1  2  2  0
  2  3  1  0
  3  4  1  0
  4  5  1  0
  5  6  2  0
  5  7  1  0
  7  8  1  0
  8  9  1  0
  9 10  1  0
 10 11  1  0
 11 12  1  0
 12 13  1  0
 13 14  2  0
 14 15  1  0
 15 16  2  0
 16 17  1  0
 17 18  1  0
 17 19  2  0
  2 20  1  0
 20 21  2  0
 21 22  1  0
 22 23  2  0
 23 24  1  0
 24 25  2  0
 25 26  1  0
 25 27  1  0
 27 28  2  0
 28 29  1  0
 29 30  2  0
 12  7  1  0
 19 13  1  0
 30 20  1  0
 29 23  1  0
  3 31  1  0
  4 32  1  0
  4 33  1  0
  8 34  1  0
  8 35  1  0
  9 36  1  0
  9 37  1  0
 10 38  1  0
 10 39  1  0
 11 40  1  0
 11 41  1  0
 12 42  1  6
 14 43  1  0
 15 44  1  0
 16 45  1  0
 19 46  1  0
 21 47  1  0
 22 48  1  0
 24 49  1  0
 27 50  1  0
 28 51  1  0
M  END
>  <smiles>  (66) 
O=C(NCC(=O)N1CCCCC1c1cccc(Cl)c1)c1ccc2cc(F)ccc2n1

>  <score_type>  (66) 
oracle

>  <origin>  (66) 
autodockgpu

>  <m_score__min__energy>  (66) 
-9.2799999999999994

>  <m_primary>  (66) 
energy

>  <rmsd>  (66) 
2.306256299117521

>  <m_score__min__rmsd>  (66) 
2.306256299117521

>  <meeko>  (66) 
{"free_energy": -8.99, "intermolecular_energy": -10.48, "internal_energy": -1.84, "cluster_size": 8, "cluster_id": 2, "rank_in_cluster": 5}

>  <energy>  (66) 
-8.94

>  <cluster_rmsd>  (66) 
0.82

>  <cluster>  (66) 
1

$$$$

     RDKit          3D

 51 54  0  0  0  0  0  0  0  0999 V2000
  141.3680   71.9780  221.6810 O   0  0  0  0  0  0  0  0  0  0  0  0
  140.4380   72.2300  222.4820 C   0  0  0  0  0  0  0  0  0  0  0  0
  139.5450   73.3280  222.3390 N   0  0  0  0  0  0  0  0  0  0  0  0
  139.6740   74.2390  221.2180 C   0  0  0  0  0  0  0  0  0  0  0  0
  139.3530   75.6180  221.6640 C   0  0  0  0  0  0  0  0  0  0  0  0
  138.5510   75.7140  222.6430 O   0  0  0  0  0  0  0  0  0  0  0  0
  139.9140   76.7670  221.0250 N   0  0  0  0  0  0  0  0  0  0  0  0
  139.2080   77.3290  219.9210 C   0  0  0  0  0  0  0  0  0  0  0  0
  140.1190   77.9060  218.8630 C   0  0  0  0  0  0  0  0  0  0  0  0
  141.3680   78.5070  219.4720 C   0  0  0  0  0  0  0  0  0  0  0  0
  142.0620   77.5060  220.3690 C   0  0  0  0  0  0  0  0  0  0  0  0
  141.1650   77.2660  221.5610 C   0  0  1  0  0  0  0  0  0  0  0  0
  141.0560   78.4930  222.3380 C   0  0  0  0  0  0  0  0  0  0  0  0
  142.2340   79.2050  222.5860 C   0  0  0  0  0  0  0  0  0  0  0  0
  142.2470   80.3750  223.2980 C   0  0  0  0  0  0  0  0  0  0  0  0
  141.0870   80.9130  223.8090 C   0  0  0  0  0  0  0  0  0  0  0  0
  139.9070   80.2300  223.5790 C   0  0  0  0  0  0  0  0  0  0  0  0
  138.4240   80.9010  224.2220 Cl  0  0  0  0  0  0  0  0  0  0  0  0
  139.9080   79.0360  222.8510 C   0  0  0  0  0  0  0  0  0  0  0  0
  140.2570   71.3400  223.6420 C   0  0  0  0  0  0  0  0  0  0  0  0
  139.5670   70.1540  223.5280 C   0  0  0  0  0  0  0  0  0  0  0  0
  139.3660   69.2820  224.5770 C   0  0  0  0  0  0  0  0  0  0  0  0
  139.8850   69.6240  225.7950 C   0  0  0  0  0  0  0  0  0  0  0  0
  139.6830   68.7520  226.8440 C   0  0  0  0  0  0  0  0  0  0  0  0
  140.2100   69.1030  228.0700 C   0  0  0  0  0  0  0  0  0  0  0  0
  140.0350   68.2780  229.1220 F   0  0  0  0  0  0  0  0  0  0  0  0
  140.9000   70.2820  228.2020 C   0  0  0  0  0  0  0  0  0  0  0  0
  141.0880   71.1380  227.1350 C   0  0  0  0  0  0  0  0  0  0  0  0
  140.5710   70.8070  225.9030 C   0  0  0  0  0  0  0  0  0  0  0  0
  140.7540   71.6450  224.8520 N   0  0  0  0  0  0  0  0  0  0  0  0
  138.7880   73.4560  223.0740 H   0  0  0  0  0  0  0  0  0  0  0  0
  140.7051   74.2074  220.8362 H   0  0  0  0  0  0  0  0  0  0  0  0
  138.9790   73.9399  220.4195 H   0  0  0  0  0  0  0  0  0  0  0  0
  138.5936   76.5409  219.4612 H   0  0  0  0  0  0  0  0  0  0  0  0
  138.5959   78.1555  220.3112 H   0  0  0  0  0  0  0  0  0  0  0  0
  140.4105   77.1053  218.1674 H   0  0  0  0  0  0  0  0  0  0  0  0
  139.5741   78.7037  218.3369 H   0  0  0  0  0  0  0  0  0  0  0  0
  142.0544   78.8061  218.6661 H   0  0  0  0  0  0  0  0  0  0  0  0
  141.0814   79.3817  220.0744 H   0  0  0  0  0  0  0  0  0  0  0  0
  142.2242   76.5636  219.8253 H   0  0  0  0  0  0  0  0  0  0  0  0
  143.0413   77.8889  220.6919 H   0  0  0  0  0  0  0  0  0  0  0  0
  141.5553   76.5209  222.2699 H   0  0  0  0  0  0  0  0  0  0  0  0
  143.1839   78.8113  222.1953 H   0  0  0  0  0  0  0  0  0  0  0  0
  143.2021   80.8946  223.4648 H   0  0  0  0  0  0  0  0  0  0  0  0
  141.0987   81.8531  224.3801 H   0  0  0  0  0  0  0  0  0  0  0  0
  138.9537   78.5148  222.6846 H   0  0  0  0  0  0  0  0  0  0  0  0
  139.1527   69.8871  222.5446 H   0  0  0  0  0  0  0  0  0  0  0  0
  138.8078   68.3443  224.4389 H   0  0  0  0  0  0  0  0  0  0  0  0
  139.1242   67.8142  226.7088 H   0  0  0  0  0  0  0  0  0  0  0  0
  141.3145   70.5524  229.1844 H   0  0  0  0  0  0  0  0  0  0  0  0
  141.6462   72.0764  227.2684 H   0  0  0  0  0  0  0  0  0  0  0  0
  1  2  2  0
  2  3  1  0
  3  4  1  0
  4  5  1  0
  5  6  2  0
  5  7  1  0
  7  8  1  0
  8  9  1  0
  9 10  1  0
 10 11  1  0
 11 12  1  0
 12 13  1  0
 13 14  2  0
 14 15  1  0
 15 16  2  0
 16 17  1  0
 17 18  1  0
 17 19  2  0
  2 20  1  0
 20 21  2  0
 21 22  1  0
 22 23  2  0
 23 24  1  0
 24 25  2  0
 25 26  1  0
 25 27  1  0
 27 28  2  0
 28 29  1  0
 29 30  2  0
 12  7  1  0
 19 13  1  0
 30 20  1  0
 29 23  1  0
  3 31  1  0
  4 32  1  0
  4 33  1  0
  8 34  1  0
  8 35  1  0
  9 36  1  0
  9 37  1  0
 10 38  1  0
 10 39  1  0
 11 40  1  0
 11 41  1  0
 12 42  1  1
 14 43  1  0
 15 44  1  0
 16 45  1  0
 19 46  1  0
 21 47  1  0
 22 48  1  0
 24 49  1  0
 27 50  1  0
 28 51  1  0
M  END
>  <smiles>  (67) 
O=C(NCC(=O)N1CCCCC1c1cccc(Cl)c1)c1ccc2cc(F)ccc2n1

>  <score_type>  (67) 
oracle

>  <origin>  (67) 
autodockgpu

>  <m_score__min__energy>  (67) 
-9.2799999999999994

>  <m_primary>  (67) 
energy

>  <rmsd>  (67) 
1.8918868375681386

>  <m_score__min__rmsd>  (67) 
1.8918868375681386

>  <meeko>  (67) 
{"free_energy": -9.23, "intermolecular_energy": -10.72, "internal_energy": -1.83, "cluster_size": 36, "cluster_id": 1, "rank_in_cluster": 4}

>  <energy>  (67) 
-8.92

>  <cluster_rmsd>  (67) 
1.41

>  <cluster>  (67) 
1

$$$$

     RDKit          3D

 51 54  0  0  0  0  0  0  0  0999 V2000
  140.9600   71.4780  221.9450 O   0  0  0  0  0  0  0  0  0  0  0  0
  140.1410   71.7950  222.8400 C   0  0  0  0  0  0  0  0  0  0  0  0
  139.0610   72.6990  222.6430 N   0  0  0  0  0  0  0  0  0  0  0  0
  138.8500   73.3180  221.3480 C   0  0  0  0  0  0  0  0  0  0  0  0
  138.5770   74.7660  221.5330 C   0  0  0  0  0  0  0  0  0  0  0  0
  137.5470   75.0550  222.2170 O   0  0  0  0  0  0  0  0  0  0  0  0
  139.4240   75.7710  220.9730 N   0  0  0  0  0  0  0  0  0  0  0  0
  139.0730   76.3060  219.6980 C   0  0  0  0  0  0  0  0  0  0  0  0
  140.2720   76.6630  218.8510 C   0  0  0  0  0  0  0  0  0  0  0  0
  141.4220   77.1640  219.6980 C   0  0  0  0  0  0  0  0  0  0  0  0
  141.7470   76.1760  220.7980 C   0  0  0  0  0  0  0  0  0  0  0  0
  140.5790   76.1640  221.7560 C   0  0  1  0  0  0  0  0  0  0  0  0
  140.4700   77.4630  222.4030 C   0  0  0  0  0  0  0  0  0  0  0  0
  139.1860   77.9220  222.7150 C   0  0  0  0  0  0  0  0  0  0  0  0
  138.9670   79.1260  223.3310 C   0  0  0  0  0  0  0  0  0  0  0  0
  140.0130   79.9520  223.6770 C   0  0  0  0  0  0  0  0  0  0  0  0
  141.2930   79.5230  223.3810 C   0  0  0  0  0  0  0  0  0  0  0  0
  142.6340   80.5620  223.8150 Cl  0  0  0  0  0  0  0  0  0  0  0  0
  141.5030   78.2930  222.7510 C   0  0  0  0  0  0  0  0  0  0  0  0
  140.3050   71.1980  224.1770 C   0  0  0  0  0  0  0  0  0  0  0  0
  140.8940   71.9010  225.2040 C   0  0  0  0  0  0  0  0  0  0  0  0
  141.0720   71.3950  226.4730 C   0  0  0  0  0  0  0  0  0  0  0  0
  140.6370   70.1220  226.7170 C   0  0  0  0  0  0  0  0  0  0  0  0
  140.8170   69.6160  227.9870 C   0  0  0  0  0  0  0  0  0  0  0  0
  140.3740   68.3310  228.2250 C   0  0  0  0  0  0  0  0  0  0  0  0
  140.5300   67.7980  229.4550 F   0  0  0  0  0  0  0  0  0  0  0  0
  139.7840   67.6160  227.2140 C   0  0  0  0  0  0  0  0  0  0  0  0
  139.6160   68.1450  225.9500 C   0  0  0  0  0  0  0  0  0  0  0  0
  140.0500   69.4260  225.6910 C   0  0  0  0  0  0  0  0  0  0  0  0
  139.8870   69.9500  224.4500 N   0  0  0  0  0  0  0  0  0  0  0  0
  138.4220   72.9030  223.4660 H   0  0  0  0  0  0  0  0  0  0  0  0
  139.7503   73.1903  220.7290 H   0  0  0  0  0  0  0  0  0  0  0  0
  137.9927   72.8430  220.8486 H   0  0  0  0  0  0  0  0  0  0  0  0
  138.4739   75.5580  219.1580 H   0  0  0  0  0  0  0  0  0  0  0  0
  138.5114   77.2348  219.8769 H   0  0  0  0  0  0  0  0  0  0  0  0
  140.5980   75.7693  218.2988 H   0  0  0  0  0  0  0  0  0  0  0  0
  139.9782   77.4662  218.1592 H   0  0  0  0  0  0  0  0  0  0  0  0
  142.3081   77.2987  219.0603 H   0  0  0  0  0  0  0  0  0  0  0  0
  141.1325   78.1210  220.1566 H   0  0  0  0  0  0  0  0  0  0  0  0
  141.8930   75.1729  220.3709 H   0  0  0  0  0  0  0  0  0  0  0  0
  142.6722   76.4652  221.3181 H   0  0  0  0  0  0  0  0  0  0  0  0
  140.6908   75.4492  222.5846 H   0  0  0  0  0  0  0  0  0  0  0  0
  138.3210   77.2936  222.4565 H   0  0  0  0  0  0  0  0  0  0  0  0
  137.9361   79.4387  223.5534 H   0  0  0  0  0  0  0  0  0  0  0  0
  139.8362   80.9187  224.1713 H   0  0  0  0  0  0  0  0  0  0  0  0
  142.5336   77.9805  222.5268 H   0  0  0  0  0  0  0  0  0  0  0  0
  141.2420   72.9243  224.9997 H   0  0  0  0  0  0  0  0  0  0  0  0
  141.5479   71.9947  227.2629 H   0  0  0  0  0  0  0  0  0  0  0  0
  141.2944   70.2125  228.7783 H   0  0  0  0  0  0  0  0  0  0  0  0
  139.4350   66.5926  227.4160 H   0  0  0  0  0  0  0  0  0  0  0  0
  139.1401   67.5490  225.1574 H   0  0  0  0  0  0  0  0  0  0  0  0
  1  2  2  0
  2  3  1  0
  3  4  1  0
  4  5  1  0
  5  6  2  0
  5  7  1  0
  7  8  1  0
  8  9  1  0
  9 10  1  0
 10 11  1  0
 11 12  1  0
 12 13  1  0
 13 14  2  0
 14 15  1  0
 15 16  2  0
 16 17  1  0
 17 18  1  0
 17 19  2  0
  2 20  1  0
 20 21  2  0
 21 22  1  0
 22 23  2  0
 23 24  1  0
 24 25  2  0
 25 26  1  0
 25 27  1  0
 27 28  2  0
 28 29  1  0
 29 30  2  0
 12  7  1  0
 19 13  1  0
 30 20  1  0
 29 23  1  0
  3 31  1  0
  4 32  1  0
  4 33  1  0
  8 34  1  0
  8 35  1  0
  9 36  1  0
  9 37  1  0
 10 38  1  0
 10 39  1  0
 11 40  1  0
 11 41  1  0
 12 42  1  1
 14 43  1  0
 15 44  1  0
 16 45  1  0
 19 46  1  0
 21 47  1  0
 22 48  1  0
 24 49  1  0
 27 50  1  0
 28 51  1  0
M  END
>  <smiles>  (68) 
O=C(NCC(=O)N1CCCCC1c1cccc(Cl)c1)c1ccc2cc(F)ccc2n1

>  <score_type>  (68) 
oracle

>  <origin>  (68) 
autodockgpu

>  <m_score__min__energy>  (68) 
-9.2799999999999994

>  <m_primary>  (68) 
energy

>  <rmsd>  (68) 
2.812777449634729

>  <m_score__min__rmsd>  (68) 
2.812777449634729

>  <meeko>  (68) 
{"free_energy": -8.84, "intermolecular_energy": -10.33, "internal_energy": -1.6, "cluster_size": 36, "cluster_id": 1, "rank_in_cluster": 19}

>  <energy>  (68) 
-8.87

>  <cluster_rmsd>  (68) 
0.45

>  <cluster>  (68) 
1

$$$$

     RDKit          3D

 51 54  0  0  0  0  0  0  0  0999 V2000
  140.4410   71.6600  221.1200 O   0  0  0  0  0  0  0  0  0  0  0  0
  140.1010   72.2190  222.1890 C   0  0  0  0  0  0  0  0  0  0  0  0
  139.7710   73.5990  222.2930 N   0  0  0  0  0  0  0  0  0  0  0  0
  139.8140   74.4530  221.1220 C   0  0  0  0  0  0  0  0  0  0  0  0
  140.9450   75.4070  221.2480 C   0  0  0  0  0  0  0  0  0  0  0  0
  140.9820   76.0890  222.3180 O   0  0  0  0  0  0  0  0  0  0  0  0
  141.9320   75.5460  220.2240 N   0  0  0  0  0  0  0  0  0  0  0  0
  142.5570   76.8180  220.0670 C   0  0  0  0  0  0  0  0  0  0  0  0
  142.8960   77.1430  218.6310 C   0  0  0  0  0  0  0  0  0  0  0  0
  143.2820   75.9020  217.8560 C   0  0  0  0  0  0  0  0  0  0  0  0
  142.2170   74.8350  217.9870 C   0  0  0  0  0  0  0  0  0  0  0  0
  142.2150   74.3700  219.4240 C   0  0  1  0  0  0  0  0  0  0  0  0
  143.4790   73.7130  219.7220 C   0  0  0  0  0  0  0  0  0  0  0  0
  144.3560   74.3690  220.5930 C   0  0  0  0  0  0  0  0  0  0  0  0
  145.5680   73.8400  220.9490 C   0  0  0  0  0  0  0  0  0  0  0  0
  145.9870   72.6220  220.4610 C   0  0  0  0  0  0  0  0  0  0  0  0
  145.1400   71.9520  219.5980 C   0  0  0  0  0  0  0  0  0  0  0  0
  145.6590   70.4030  218.9700 Cl  0  0  0  0  0  0  0  0  0  0  0  0
  143.9060   72.5030  219.2430 C   0  0  0  0  0  0  0  0  0  0  0  0
  140.0400   71.4020  223.4140 C   0  0  0  0  0  0  0  0  0  0  0  0
  139.5200   70.1270  223.3940 C   0  0  0  0  0  0  0  0  0  0  0  0
  139.4380   69.3180  224.5070 C   0  0  0  0  0  0  0  0  0  0  0  0
  139.9000   69.8180  225.6920 C   0  0  0  0  0  0  0  0  0  0  0  0
  139.8160   69.0080  226.8050 C   0  0  0  0  0  0  0  0  0  0  0  0
  140.2850   69.5200  227.9980 C   0  0  0  0  0  0  0  0  0  0  0  0
  140.2220   68.7600  229.1100 F   0  0  0  0  0  0  0  0  0  0  0  0
  140.8060   70.7880  228.0360 C   0  0  0  0  0  0  0  0  0  0  0  0
  140.8780   71.5800  226.9070 C   0  0  0  0  0  0  0  0  0  0  0  0
  140.4160   71.0890  225.7070 C   0  0  0  0  0  0  0  0  0  0  0  0
  140.4860   71.8630  224.5950 N   0  0  0  0  0  0  0  0  0  0  0  0
  139.4950   73.9770  223.2460 H   0  0  0  0  0  0  0  0  0  0  0  0
  139.9534   73.8355  220.2224 H   0  0  0  0  0  0  0  0  0  0  0  0
  138.8699   75.0115  221.0399 H   0  0  0  0  0  0  0  0  0  0  0  0
  141.8748   77.5919  220.4486 H   0  0  0  0  0  0  0  0  0  0  0  0
  143.5034   76.7878  220.6268 H   0  0  0  0  0  0  0  0  0  0  0  0
  142.0194   77.6044  218.1528 H   0  0  0  0  0  0  0  0  0  0  0  0
  143.7534   77.8321  218.6270 H   0  0  0  0  0  0  0  0  0  0  0  0
  143.4029   76.1627  216.7942 H   0  0  0  0  0  0  0  0  0  0  0  0
  144.2258   75.5106  218.2635 H   0  0  0  0  0  0  0  0  0  0  0  0
  141.2332   75.2521  217.7258 H   0  0  0  0  0  0  0  0  0  0  0  0
  142.4246   73.9948  217.3081 H   0  0  0  0  0  0  0  0  0  0  0  0
  141.4490   73.6123  219.6454 H   0  0  0  0  0  0  0  0  0  0  0  0
  144.0613   75.3447  221.0066 H   0  0  0  0  0  0  0  0  0  0  0  0
  146.2192   74.3983  221.6377 H   0  0  0  0  0  0  0  0  0  0  0  0
  146.9605   72.1977  220.7476 H   0  0  0  0  0  0  0  0  0  0  0  0
  143.2544   71.9452  218.5544 H   0  0  0  0  0  0  0  0  0  0  0  0
  139.1495   69.7322  222.4365 H   0  0  0  0  0  0  0  0  0  0  0  0
  139.0151   68.3045  224.4436 H   0  0  0  0  0  0  0  0  0  0  0  0
  139.3923   67.9947  226.7445 H   0  0  0  0  0  0  0  0  0  0  0  0
  141.1769   71.1853  228.9924 H   0  0  0  0  0  0  0  0  0  0  0  0
  141.3007   72.5938  226.9662 H   0  0  0  0  0  0  0  0  0  0  0  0
  1  2  2  0
  2  3  1  0
  3  4  1  0
  4  5  1  0
  5  6  2  0
  5  7  1  0
  7  8  1  0
  8  9  1  0
  9 10  1  0
 10 11  1  0
 11 12  1  0
 12 13  1  0
 13 14  2  0
 14 15  1  0
 15 16  2  0
 16 17  1  0
 17 18  1  0
 17 19  2  0
  2 20  1  0
 20 21  2  0
 21 22  1  0
 22 23  2  0
 23 24  1  0
 24 25  2  0
 25 26  1  0
 25 27  1  0
 27 28  2  0
 28 29  1  0
 29 30  2  0
 12  7  1  0
 19 13  1  0
 30 20  1  0
 29 23  1  0
  3 31  1  0
  4 32  1  0
  4 33  1  0
  8 34  1  0
  8 35  1  0
  9 36  1  0
  9 37  1  0
 10 38  1  0
 10 39  1  0
 11 40  1  0
 11 41  1  0
 12 42  1  6
 14 43  1  0
 15 44  1  0
 16 45  1  0
 19 46  1  0
 21 47  1  0
 22 48  1  0
 24 49  1  0
 27 50  1  0
 28 51  1  0
M  END
>  <smiles>  (69) 
O=C(NCC(=O)N1CCCCC1c1cccc(Cl)c1)c1ccc2cc(F)ccc2n1

>  <score_type>  (69) 
oracle

>  <origin>  (69) 
autodockgpu

>  <m_score__min__energy>  (69) 
-9.2799999999999994

>  <m_primary>  (69) 
energy

>  <rmsd>  (69) 
2.286125708711544

>  <m_score__min__rmsd>  (69) 
2.286125708711544

>  <meeko>  (69) 
{"free_energy": -8.97, "intermolecular_energy": -10.46, "internal_energy": -1.85, "cluster_size": 8, "cluster_id": 2, "rank_in_cluster": 7}

>  <energy>  (69) 
-8.84

>  <cluster_rmsd>  (69) 
1.52

>  <cluster>  (69) 
1

$$$$

     RDKit          3D

 51 54  0  0  0  0  0  0  0  0999 V2000
  138.4040   72.0080  221.3950 O   0  0  0  0  0  0  0  0  0  0  0  0
  139.4450   72.1110  222.0850 C   0  0  0  0  0  0  0  0  0  0  0  0
  140.5640   72.9100  221.7200 N   0  0  0  0  0  0  0  0  0  0  0  0
  140.5490   73.6730  220.4870 C   0  0  0  0  0  0  0  0  0  0  0  0
  141.4270   74.8620  220.6310 C   0  0  0  0  0  0  0  0  0  0  0  0
  142.5570   74.6560  221.1710 O   0  0  0  0  0  0  0  0  0  0  0  0
  141.0200   76.1590  220.1890 N   0  0  0  0  0  0  0  0  0  0  0  0
  139.7870   76.2650  219.4790 C   0  0  0  0  0  0  0  0  0  0  0  0
  139.8060   77.3330  218.4100 C   0  0  0  0  0  0  0  0  0  0  0  0
  140.6600   78.5140  218.8190 C   0  0  0  0  0  0  0  0  0  0  0  0
  142.0450   78.0590  219.2250 C   0  0  0  0  0  0  0  0  0  0  0  0
  141.9040   77.2630  220.5020 C   0  0  1  0  0  0  0  0  0  0  0  0
  141.4400   78.1390  221.5690 C   0  0  0  0  0  0  0  0  0  0  0  0
  140.1620   77.9020  222.0860 C   0  0  0  0  0  0  0  0  0  0  0  0
  139.6280   78.6580  223.0960 C   0  0  0  0  0  0  0  0  0  0  0  0
  140.3330   79.7000  223.6570 C   0  0  0  0  0  0  0  0  0  0  0  0
  141.5990   79.9560  223.1650 C   0  0  0  0  0  0  0  0  0  0  0  0
  142.5070   81.2770  223.8690 Cl  0  0  0  0  0  0  0  0  0  0  0  0
  142.1320   79.1770  222.1340 C   0  0  0  0  0  0  0  0  0  0  0  0
  139.5200   71.3590  223.3500 C   0  0  0  0  0  0  0  0  0  0  0  0
  138.8770   70.1500  223.4990 C   0  0  0  0  0  0  0  0  0  0  0  0
  138.9120   69.4030  224.6570 C   0  0  0  0  0  0  0  0  0  0  0  0
  139.6270   69.8990  225.7110 C   0  0  0  0  0  0  0  0  0  0  0  0
  139.6610   69.1510  226.8700 C   0  0  0  0  0  0  0  0  0  0  0  0
  140.3860   69.6580  227.9290 C   0  0  0  0  0  0  0  0  0  0  0  0
  140.4450   68.9580  229.0810 F   0  0  0  0  0  0  0  0  0  0  0  0
  141.0330   70.8600  227.7990 C   0  0  0  0  0  0  0  0  0  0  0  0
  140.9830   71.5900  226.6270 C   0  0  0  0  0  0  0  0  0  0  0  0
  140.2660   71.1030  225.5580 C   0  0  0  0  0  0  0  0  0  0  0  0
  140.2150   71.8170  224.4050 N   0  0  0  0  0  0  0  0  0  0  0  0
  141.4000   72.9300  222.3740 H   0  0  0  0  0  0  0  0  0  0  0  0
  140.9153   73.0443  219.6621 H   0  0  0  0  0  0  0  0  0  0  0  0
  139.5213   73.9997  220.2700 H   0  0  0  0  0  0  0  0  0  0  0  0
  139.5736   75.2969  219.0023 H   0  0  0  0  0  0  0  0  0  0  0  0
  139.0128   76.5458  220.2082 H   0  0  0  0  0  0  0  0  0  0  0  0
  140.2119   76.9029  217.4825 H   0  0  0  0  0  0  0  0  0  0  0  0
  138.7759   77.6883  218.2596 H   0  0  0  0  0  0  0  0  0  0  0  0
  140.7429   79.2102  217.9714 H   0  0  0  0  0  0  0  0  0  0  0  0
  140.1860   79.0120  219.6777 H   0  0  0  0  0  0  0  0  0  0  0  0
  142.4800   77.4287  218.4354 H   0  0  0  0  0  0  0  0  0  0  0  0
  142.7081   78.9233  219.3777 H   0  0  0  0  0  0  0  0  0  0  0  0
  142.8520   76.8477  220.8746 H   0  0  0  0  0  0  0  0  0  0  0  0
  139.5644   77.0792  221.6666 H   0  0  0  0  0  0  0  0  0  0  0  0
  138.6177   78.4287  223.4658 H   0  0  0  0  0  0  0  0  0  0  0  0
  139.9036   80.3068  224.4678 H   0  0  0  0  0  0  0  0  0  0  0  0
  143.1422   79.4056  221.7637 H   0  0  0  0  0  0  0  0  0  0  0  0
  138.3033   69.7586  222.6459 H   0  0  0  0  0  0  0  0  0  0  0  0
  138.3830   68.4413  224.7302 H   0  0  0  0  0  0  0  0  0  0  0  0
  139.1317   68.1897  226.9466 H   0  0  0  0  0  0  0  0  0  0  0  0
  141.6072   71.2536  228.6506 H   0  0  0  0  0  0  0  0  0  0  0  0
  141.5114   72.5516  226.5491 H   0  0  0  0  0  0  0  0  0  0  0  0
  1  2  2  0
  2  3  1  0
  3  4  1  0
  4  5  1  0
  5  6  2  0
  5  7  1  0
  7  8  1  0
  8  9  1  0
  9 10  1  0
 10 11  1  0
 11 12  1  0
 12 13  1  0
 13 14  2  0
 14 15  1  0
 15 16  2  0
 16 17  1  0
 17 18  1  0
 17 19  2  0
  2 20  1  0
 20 21  2  0
 21 22  1  0
 22 23  2  0
 23 24  1  0
 24 25  2  0
 25 26  1  0
 25 27  1  0
 27 28  2  0
 28 29  1  0
 29 30  2  0
 12  7  1  0
 19 13  1  0
 30 20  1  0
 29 23  1  0
  3 31  1  0
  4 32  1  0
  4 33  1  0
  8 34  1  0
  8 35  1  0
  9 36  1  0
  9 37  1  0
 10 38  1  0
 10 39  1  0
 11 40  1  0
 11 41  1  0
 12 42  1  1
 14 43  1  0
 15 44  1  0
 16 45  1  0
 19 46  1  0
 21 47  1  0
 22 48  1  0
 24 49  1  0
 27 50  1  0
 28 51  1  0
M  END
>  <smiles>  (70) 
O=C(NCC(=O)N1CCCCC1c1cccc(Cl)c1)c1ccc2cc(F)ccc2n1

>  <score_type>  (70) 
oracle

>  <origin>  (70) 
autodockgpu

>  <m_score__min__energy>  (70) 
-9.2799999999999994

>  <m_primary>  (70) 
energy

>  <rmsd>  (70) 
1.6584162062961878

>  <m_score__min__rmsd>  (70) 
1.6584162062961878

>  <meeko>  (70) 
{"free_energy": -7.91, "intermolecular_energy": -9.4, "internal_energy": -1.86, "cluster_size": 36, "cluster_id": 1, "rank_in_cluster": 36}

>  <energy>  (70) 
-8.84

>  <cluster_rmsd>  (70) 
1.41

>  <cluster>  (70) 
1

$$$$

     RDKit          3D

 51 54  0  0  0  0  0  0  0  0999 V2000
  141.3290   71.9730  221.6360 O   0  0  0  0  0  0  0  0  0  0  0  0
  140.4320   72.2700  222.4590 C   0  0  0  0  0  0  0  0  0  0  0  0
  139.5720   73.3950  222.3230 N   0  0  0  0  0  0  0  0  0  0  0  0
  139.6990   74.2820  221.1830 C   0  0  0  0  0  0  0  0  0  0  0  0
  139.3510   75.6660  221.5940 C   0  0  0  0  0  0  0  0  0  0  0  0
  138.4870   75.7710  222.5180 O   0  0  0  0  0  0  0  0  0  0  0  0
  139.9540   76.8090  220.9830 N   0  0  0  0  0  0  0  0  0  0  0  0
  139.2990   77.3860  219.8550 C   0  0  0  0  0  0  0  0  0  0  0  0
  140.2590   77.9530  218.8350 C   0  0  0  0  0  0  0  0  0  0  0  0
  141.4920   78.5320  219.4940 C   0  0  0  0  0  0  0  0  0  0  0  0
  142.1370   77.5160  220.4120 C   0  0  0  0  0  0  0  0  0  0  0  0
  141.1910   77.2860  221.5680 C   0  0  1  0  0  0  0  0  0  0  0  0
  141.0710   78.5110  222.3460 C   0  0  0  0  0  0  0  0  0  0  0  0
  142.2430   79.2340  222.5930 C   0  0  0  0  0  0  0  0  0  0  0  0
  142.2460   80.4040  223.3050 C   0  0  0  0  0  0  0  0  0  0  0  0
  141.0820   80.9300  223.8190 C   0  0  0  0  0  0  0  0  0  0  0  0
  139.9080   80.2360  223.5890 C   0  0  0  0  0  0  0  0  0  0  0  0
  138.4200   80.8930  224.2350 Cl  0  0  0  0  0  0  0  0  0  0  0  0
  139.9190   79.0430  222.8610 C   0  0  0  0  0  0  0  0  0  0  0  0
  140.2550   71.4060  223.6390 C   0  0  0  0  0  0  0  0  0  0  0  0
  139.6240   70.1860  223.5400 C   0  0  0  0  0  0  0  0  0  0  0  0
  139.4300   69.3360  224.6080 C   0  0  0  0  0  0  0  0  0  0  0  0
  139.8940   69.7360  225.8300 C   0  0  0  0  0  0  0  0  0  0  0  0
  139.6990   68.8860  226.8990 C   0  0  0  0  0  0  0  0  0  0  0  0
  140.1710   69.2960  228.1290 C   0  0  0  0  0  0  0  0  0  0  0  0
  140.0010   68.4940  229.1990 F   0  0  0  0  0  0  0  0  0  0  0  0
  140.8020   70.5080  228.2460 C   0  0  0  0  0  0  0  0  0  0  0  0
  140.9850   71.3420  227.1600 C   0  0  0  0  0  0  0  0  0  0  0  0
  140.5220   70.9520  225.9240 C   0  0  0  0  0  0  0  0  0  0  0  0
  140.6990   71.7680  224.8540 N   0  0  0  0  0  0  0  0  0  0  0  0
  138.8420   73.5610  223.0770 H   0  0  0  0  0  0  0  0  0  0  0  0
  140.7347   74.2584  220.8132 H   0  0  0  0  0  0  0  0  0  0  0  0
  139.0179   73.9536  220.3841 H   0  0  0  0  0  0  0  0  0  0  0  0
  138.6908   76.6091  219.3687 H   0  0  0  0  0  0  0  0  0  0  0  0
  138.6848   78.2202  220.2250 H   0  0  0  0  0  0  0  0  0  0  0  0
  140.5648   77.1506  218.1476 H   0  0  0  0  0  0  0  0  0  0  0  0
  139.7470   78.7609  218.2917 H   0  0  0  0  0  0  0  0  0  0  0  0
  142.2130   78.8246  218.7164 H   0  0  0  0  0  0  0  0  0  0  0  0
  141.1955   79.4079  220.0897 H   0  0  0  0  0  0  0  0  0  0  0  0
  142.3050   76.5734  219.8705 H   0  0  0  0  0  0  0  0  0  0  0  0
  143.1097   77.8814  220.7731 H   0  0  0  0  0  0  0  0  0  0  0  0
  141.5429   76.5322  222.2877 H   0  0  0  0  0  0  0  0  0  0  0  0
  143.1961   78.8490  222.2014 H   0  0  0  0  0  0  0  0  0  0  0  0
  143.1962   80.9334  223.4693 H   0  0  0  0  0  0  0  0  0  0  0  0
  141.0857   81.8688  224.3922 H   0  0  0  0  0  0  0  0  0  0  0  0
  138.9694   78.5130  222.6960 H   0  0  0  0  0  0  0  0  0  0  0  0
  139.2538   69.8719  222.5529 H   0  0  0  0  0  0  0  0  0  0  0  0
  138.9197   68.3698  224.4812 H   0  0  0  0  0  0  0  0  0  0  0  0
  139.1876   67.9199  226.7757 H   0  0  0  0  0  0  0  0  0  0  0  0
  141.1727   70.8249  229.2320 H   0  0  0  0  0  0  0  0  0  0  0  0
  141.4959   72.3085  227.2820 H   0  0  0  0  0  0  0  0  0  0  0  0
  1  2  2  0
  2  3  1  0
  3  4  1  0
  4  5  1  0
  5  6  2  0
  5  7  1  0
  7  8  1  0
  8  9  1  0
  9 10  1  0
 10 11  1  0
 11 12  1  0
 12 13  1  0
 13 14  2  0
 14 15  1  0
 15 16  2  0
 16 17  1  0
 17 18  1  0
 17 19  2  0
  2 20  1  0
 20 21  2  0
 21 22  1  0
 22 23  2  0
 23 24  1  0
 24 25  2  0
 25 26  1  0
 25 27  1  0
 27 28  2  0
 28 29  1  0
 29 30  2  0
 12  7  1  0
 19 13  1  0
 30 20  1  0
 29 23  1  0
  3 31  1  0
  4 32  1  0
  4 33  1  0
  8 34  1  0
  8 35  1  0
  9 36  1  0
  9 37  1  0
 10 38  1  0
 10 39  1  0
 11 40  1  0
 11 41  1  0
 12 42  1  1
 14 43  1  0
 15 44  1  0
 16 45  1  0
 19 46  1  0
 21 47  1  0
 22 48  1  0
 24 49  1  0
 27 50  1  0
 28 51  1  0
M  END
>  <smiles>  (71) 
O=C(NCC(=O)N1CCCCC1c1cccc(Cl)c1)c1ccc2cc(F)ccc2n1

>  <score_type>  (71) 
oracle

>  <origin>  (71) 
autodockgpu

>  <m_score__min__energy>  (71) 
-9.2799999999999994

>  <m_primary>  (71) 
energy

>  <rmsd>  (71) 
1.919389867551797

>  <m_score__min__rmsd>  (71) 
1.919389867551797

>  <meeko>  (71) 
{"free_energy": -9.25, "intermolecular_energy": -10.74, "internal_energy": -1.83, "cluster_size": 36, "cluster_id": 1, "rank_in_cluster": 3}

>  <energy>  (71) 
-8.83

>  <cluster_rmsd>  (71) 
1.3

>  <cluster>  (71) 
1

$$$$

     RDKit          3D

 51 54  0  0  0  0  0  0  0  0999 V2000
  138.2190   70.9060  221.4390 O   0  0  0  0  0  0  0  0  0  0  0  0
  138.7100   71.5720  222.3800 C   0  0  0  0  0  0  0  0  0  0  0  0
  138.8620   72.9860  222.3570 N   0  0  0  0  0  0  0  0  0  0  0  0
  138.4380   73.7500  221.2000 C   0  0  0  0  0  0  0  0  0  0  0  0
  138.3930   75.1920  221.5510 C   0  0  0  0  0  0  0  0  0  0  0  0
  137.4810   75.5400  222.3630 O   0  0  0  0  0  0  0  0  0  0  0  0
  139.3230   76.1310  221.0050 N   0  0  0  0  0  0  0  0  0  0  0  0
  139.0170   76.7160  219.7410 C   0  0  0  0  0  0  0  0  0  0  0  0
  140.2410   76.9840  218.8970 C   0  0  0  0  0  0  0  0  0  0  0  0
  141.4310   77.3690  219.7490 C   0  0  0  0  0  0  0  0  0  0  0  0
  141.6720   76.3380  220.8300 C   0  0  0  0  0  0  0  0  0  0  0  0
  140.5090   76.4090  221.7920 C   0  0  1  0  0  0  0  0  0  0  0  0
  140.5130   77.7020  222.4610 C   0  0  0  0  0  0  0  0  0  0  0  0
  139.2740   78.2500  222.8110 C   0  0  0  0  0  0  0  0  0  0  0  0
  139.1610   79.4560  223.4510 C   0  0  0  0  0  0  0  0  0  0  0  0
  140.2740   80.1950  223.7850 C   0  0  0  0  0  0  0  0  0  0  0  0
  141.5110   79.6760  223.4510 C   0  0  0  0  0  0  0  0  0  0  0  0
  142.9360   80.6040  223.8690 Cl  0  0  0  0  0  0  0  0  0  0  0  0
  141.6130   78.4450  222.7980 C   0  0  0  0  0  0  0  0  0  0  0  0
  139.1600   70.8500  223.5840 C   0  0  0  0  0  0  0  0  0  0  0  0
  139.0370   69.4830  223.6820 C   0  0  0  0  0  0  0  0  0  0  0  0
  139.4400   68.7550  224.7820 C   0  0  0  0  0  0  0  0  0  0  0  0
  139.9900   69.4400  225.8290 C   0  0  0  0  0  0  0  0  0  0  0  0
  140.3920   68.7110  226.9290 C   0  0  0  0  0  0  0  0  0  0  0  0
  140.9490   69.4100  227.9810 C   0  0  0  0  0  0  0  0  0  0  0  0
  141.3550   68.7350  229.0760 F   0  0  0  0  0  0  0  0  0  0  0  0
  141.0790   70.7730  227.9010 C   0  0  0  0  0  0  0  0  0  0  0  0
  140.6690   71.4790  226.7880 C   0  0  0  0  0  0  0  0  0  0  0  0
  140.1110   70.8030  225.7260 C   0  0  0  0  0  0  0  0  0  0  0  0
  139.7070   71.4920  224.6300 N   0  0  0  0  0  0  0  0  0  0  0  0
  139.2900   73.4580  223.2070 H   0  0  0  0  0  0  0  0  0  0  0  0
  139.1505   73.5948  220.3764 H   0  0  0  0  0  0  0  0  0  0  0  0
  137.4378   73.4168  220.8859 H   0  0  0  0  0  0  0  0  0  0  0  0
  138.3555   76.0314  219.1899 H   0  0  0  0  0  0  0  0  0  0  0  0
  138.5368   77.6860  219.9375 H   0  0  0  0  0  0  0  0  0  0  0  0
  140.4882   76.0757  218.3279 H   0  0  0  0  0  0  0  0  0  0  0  0
  140.0162   77.8219  218.2207 H   0  0  0  0  0  0  0  0  0  0  0  0
  142.3243   77.4385  219.1109 H   0  0  0  0  0  0  0  0  0  0  0  0
  141.2253   78.3389  220.2254 H   0  0  0  0  0  0  0  0  0  0  0  0
  141.7306   75.3338  220.3850 H   0  0  0  0  0  0  0  0  0  0  0  0
  142.6195   76.5377  221.3519 H   0  0  0  0  0  0  0  0  0  0  0  0
  140.5604   75.6729  222.6078 H   0  0  0  0  0  0  0  0  0  0  0  0
  138.3584   77.6928  222.5635 H   0  0  0  0  0  0  0  0  0  0  0  0
  138.1620   79.8415  223.7029 H   0  0  0  0  0  0  0  0  0  0  0  0
  140.1821   81.1632  224.2989 H   0  0  0  0  0  0  0  0  0  0  0  0
  142.6117   78.0591  222.5458 H   0  0  0  0  0  0  0  0  0  0  0  0
  138.5921   68.9401  222.8351 H   0  0  0  0  0  0  0  0  0  0  0  0
  139.3229   67.6618  224.8154 H   0  0  0  0  0  0  0  0  0  0  0  0
  140.2736   67.6180  226.9663 H   0  0  0  0  0  0  0  0  0  0  0  0
  141.5222   71.3186  228.7471 H   0  0  0  0  0  0  0  0  0  0  0  0
  140.7870   72.5720  226.7497 H   0  0  0  0  0  0  0  0  0  0  0  0
  1  2  2  0
  2  3  1  0
  3  4  1  0
  4  5  1  0
  5  6  2  0
  5  7  1  0
  7  8  1  0
  8  9  1  0
  9 10  1  0
 10 11  1  0
 11 12  1  0
 12 13  1  0
 13 14  2  0
 14 15  1  0
 15 16  2  0
 16 17  1  0
 17 18  1  0
 17 19  2  0
  2 20  1  0
 20 21  2  0
 21 22  1  0
 22 23  2  0
 23 24  1  0
 24 25  2  0
 25 26  1  0
 25 27  1  0
 27 28  2  0
 28 29  1  0
 29 30  2  0
 12  7  1  0
 19 13  1  0
 30 20  1  0
 29 23  1  0
  3 31  1  0
  4 32  1  0
  4 33  1  0
  8 34  1  0
  8 35  1  0
  9 36  1  0
  9 37  1  0
 10 38  1  0
 10 39  1  0
 11 40  1  0
 11 41  1  0
 12 42  1  1
 14 43  1  0
 15 44  1  0
 16 45  1  0
 19 46  1  0
 21 47  1  0
 22 48  1  0
 24 49  1  0
 27 50  1  0
 28 51  1  0
M  END
>  <smiles>  (72) 
O=C(NCC(=O)N1CCCCC1c1cccc(Cl)c1)c1ccc2cc(F)ccc2n1

>  <score_type>  (72) 
oracle

>  <origin>  (72) 
autodockgpu

>  <m_score__min__energy>  (72) 
-9.2799999999999994

>  <m_primary>  (72) 
energy

>  <rmsd>  (72) 
1.671746948924686

>  <m_score__min__rmsd>  (72) 
1.671746948924686

>  <meeko>  (72) 
{"free_energy": -8.61, "intermolecular_energy": -10.1, "internal_energy": -1.74, "cluster_size": 36, "cluster_id": 1, "rank_in_cluster": 30}

>  <energy>  (72) 
-8.83

>  <cluster_rmsd>  (72) 
1.63

>  <cluster>  (72) 
1

$$$$

     RDKit          3D

 51 54  0  0  0  0  0  0  0  0999 V2000
  140.2450   71.4010  221.1530 O   0  0  0  0  0  0  0  0  0  0  0  0
  140.0070   71.9480  222.2550 C   0  0  0  0  0  0  0  0  0  0  0  0
  139.7510   73.3380  222.4130 N   0  0  0  0  0  0  0  0  0  0  0  0
  139.7540   74.2200  221.2620 C   0  0  0  0  0  0  0  0  0  0  0  0
  139.4650   75.6080  221.7030 C   0  0  0  0  0  0  0  0  0  0  0  0
  138.7150   75.7230  222.7210 O   0  0  0  0  0  0  0  0  0  0  0  0
  140.0020   76.7430  221.0200 N   0  0  0  0  0  0  0  0  0  0  0  0
  139.2800   77.2510  219.9000 C   0  0  0  0  0  0  0  0  0  0  0  0
  140.1750   77.8070  218.8170 C   0  0  0  0  0  0  0  0  0  0  0  0
  141.4140   78.4540  219.3970 C   0  0  0  0  0  0  0  0  0  0  0  0
  142.1320   77.4990  220.3260 C   0  0  0  0  0  0  0  0  0  0  0  0
  141.2450   77.2860  221.5310 C   0  0  1  0  0  0  0  0  0  0  0  0
  141.1150   78.5370  222.2630 C   0  0  0  0  0  0  0  0  0  0  0  0
  142.2680   79.3150  222.4190 C   0  0  0  0  0  0  0  0  0  0  0  0
  142.2590   80.5140  223.0820 C   0  0  0  0  0  0  0  0  0  0  0  0
  141.1020   81.0170  223.6330 C   0  0  0  0  0  0  0  0  0  0  0  0
  139.9470   80.2690  223.4940 C   0  0  0  0  0  0  0  0  0  0  0  0
  138.4680   80.8950  224.1900 Cl  0  0  0  0  0  0  0  0  0  0  0  0
  139.9700   79.0470  222.8160 C   0  0  0  0  0  0  0  0  0  0  0  0
  139.9900   71.1030  223.4620 C   0  0  0  0  0  0  0  0  0  0  0  0
  139.5480   69.8000  223.4130 C   0  0  0  0  0  0  0  0  0  0  0  0
  139.5110   68.9630  224.5090 C   0  0  0  0  0  0  0  0  0  0  0  0
  139.9370   69.4650  225.7060 C   0  0  0  0  0  0  0  0  0  0  0  0
  139.8980   68.6280  226.8020 C   0  0  0  0  0  0  0  0  0  0  0  0
  140.3320   69.1420  228.0070 C   0  0  0  0  0  0  0  0  0  0  0  0
  140.3100   68.3560  229.1030 F   0  0  0  0  0  0  0  0  0  0  0  0
  140.7750   70.4380  228.0740 C   0  0  0  0  0  0  0  0  0  0  0  0
  140.8040   71.2570  226.9620 C   0  0  0  0  0  0  0  0  0  0  0  0
  140.3770   70.7640  225.7500 C   0  0  0  0  0  0  0  0  0  0  0  0
  140.4030   71.5650  224.6550 N   0  0  0  0  0  0  0  0  0  0  0  0
  139.5590   73.7040  223.3910 H   0  0  0  0  0  0  0  0  0  0  0  0
  140.7408   74.1870  220.7771 H   0  0  0  0  0  0  0  0  0  0  0  0
  138.9839   73.8939  220.5474 H   0  0  0  0  0  0  0  0  0  0  0  0
  138.6791   76.4350  219.4722 H   0  0  0  0  0  0  0  0  0  0  0  0
  138.6536   78.0790  220.2633 H   0  0  0  0  0  0  0  0  0  0  0  0
  140.4793   76.9874  218.1494 H   0  0  0  0  0  0  0  0  0  0  0  0
  139.6121   78.5742  218.2651 H   0  0  0  0  0  0  0  0  0  0  0  0
  142.0906   78.7374  218.5773 H   0  0  0  0  0  0  0  0  0  0  0  0
  141.1131   79.3441  219.9689 H   0  0  0  0  0  0  0  0  0  0  0  0
  142.3094   76.5407  219.8159 H   0  0  0  0  0  0  0  0  0  0  0  0
  143.1057   77.9113  220.6292 H   0  0  0  0  0  0  0  0  0  0  0  0
  141.6534   76.5757  222.2650 H   0  0  0  0  0  0  0  0  0  0  0  0
  143.2151   78.9509  221.9942 H   0  0  0  0  0  0  0  0  0  0  0  0
  143.1941   81.0856  223.1758 H   0  0  0  0  0  0  0  0  0  0  0  0
  141.0964   81.9798  224.1650 H   0  0  0  0  0  0  0  0  0  0  0  0
  139.0354   78.4743  222.7231 H   0  0  0  0  0  0  0  0  0  0  0  0
  139.2051   69.4041  222.4457 H   0  0  0  0  0  0  0  0  0  0  0  0
  139.1509   67.9272  224.4221 H   0  0  0  0  0  0  0  0  0  0  0  0
  139.5356   67.5927  226.7188 H   0  0  0  0  0  0  0  0  0  0  0  0
  141.1169   70.8367  229.0405 H   0  0  0  0  0  0  0  0  0  0  0  0
  141.1648   72.2929  227.0443 H   0  0  0  0  0  0  0  0  0  0  0  0
  1  2  2  0
  2  3  1  0
  3  4  1  0
  4  5  1  0
  5  6  2  0
  5  7  1  0
  7  8  1  0
  8  9  1  0
  9 10  1  0
 10 11  1  0
 11 12  1  0
 12 13  1  0
 13 14  2  0
 14 15  1  0
 15 16  2  0
 16 17  1  0
 17 18  1  0
 17 19  2  0
  2 20  1  0
 20 21  2  0
 21 22  1  0
 22 23  2  0
 23 24  1  0
 24 25  2  0
 25 26  1  0
 25 27  1  0
 27 28  2  0
 28 29  1  0
 29 30  2  0
 12  7  1  0
 19 13  1  0
 30 20  1  0
 29 23  1  0
  3 31  1  0
  4 32  1  0
  4 33  1  0
  8 34  1  0
  8 35  1  0
  9 36  1  0
  9 37  1  0
 10 38  1  0
 10 39  1  0
 11 40  1  0
 11 41  1  0
 12 42  1  1
 14 43  1  0
 15 44  1  0
 16 45  1  0
 19 46  1  0
 21 47  1  0
 22 48  1  0
 24 49  1  0
 27 50  1  0
 28 51  1  0
M  END
>  <smiles>  (73) 
O=C(NCC(=O)N1CCCCC1c1cccc(Cl)c1)c1ccc2cc(F)ccc2n1

>  <score_type>  (73) 
oracle

>  <origin>  (73) 
autodockgpu

>  <m_score__min__energy>  (73) 
-9.2799999999999994

>  <m_primary>  (73) 
energy

>  <rmsd>  (73) 
1.7797124503261539

>  <m_score__min__rmsd>  (73) 
1.7797124503261539

>  <meeko>  (73) 
{"free_energy": -9.01, "intermolecular_energy": -10.5, "internal_energy": -2.0, "cluster_size": 36, "cluster_id": 1, "rank_in_cluster": 14}

>  <energy>  (73) 
-8.81

>  <cluster_rmsd>  (73) 
1.31

>  <cluster>  (73) 
1

$$$$

     RDKit          3D

 51 54  0  0  0  0  0  0  0  0999 V2000
  139.6670   70.9330  221.1470 O   0  0  0  0  0  0  0  0  0  0  0  0
  139.5410   71.5160  222.2490 C   0  0  0  0  0  0  0  0  0  0  0  0
  139.3080   72.9130  222.3850 N   0  0  0  0  0  0  0  0  0  0  0  0
  139.2010   73.7570  221.2110 C   0  0  0  0  0  0  0  0  0  0  0  0
  138.9560   75.1590  221.6320 C   0  0  0  0  0  0  0  0  0  0  0  0
  138.1380   75.3180  222.5910 O   0  0  0  0  0  0  0  0  0  0  0  0
  139.6040   76.2620  220.9950 N   0  0  0  0  0  0  0  0  0  0  0  0
  138.9820   76.8280  219.8430 C   0  0  0  0  0  0  0  0  0  0  0  0
  139.9710   77.3320  218.8190 C   0  0  0  0  0  0  0  0  0  0  0  0
  141.2160   77.8890  219.4750 C   0  0  0  0  0  0  0  0  0  0  0  0
  141.8160   76.8800  220.4300 C   0  0  0  0  0  0  0  0  0  0  0  0
  140.8500   76.7150  221.5810 C   0  0  1  0  0  0  0  0  0  0  0  0
  140.7630   77.9660  222.3210 C   0  0  0  0  0  0  0  0  0  0  0  0
  139.4860   78.4260  222.6590 C   0  0  0  0  0  0  0  0  0  0  0  0
  139.2870   79.5860  223.3610 C   0  0  0  0  0  0  0  0  0  0  0  0
  140.3460   80.3630  223.7720 C   0  0  0  0  0  0  0  0  0  0  0  0
  141.6200   79.9310  223.4520 C   0  0  0  0  0  0  0  0  0  0  0  0
  142.9780   80.9090  223.9680 Cl  0  0  0  0  0  0  0  0  0  0  0  0
  141.8100   78.7470  222.7350 C   0  0  0  0  0  0  0  0  0  0  0  0
  139.6400   70.7110  223.4790 C   0  0  0  0  0  0  0  0  0  0  0  0
  139.1980   69.4070  223.5140 C   0  0  0  0  0  0  0  0  0  0  0  0
  139.2660   68.6070  224.6350 C   0  0  0  0  0  0  0  0  0  0  0  0
  139.8030   69.1470  225.7700 C   0  0  0  0  0  0  0  0  0  0  0  0
  139.8690   68.3460  226.8900 C   0  0  0  0  0  0  0  0  0  0  0  0
  140.4140   68.8980  228.0320 C   0  0  0  0  0  0  0  0  0  0  0  0
  140.4980   68.1480  229.1500 F   0  0  0  0  0  0  0  0  0  0  0  0
  140.8590   70.1950  228.0150 C   0  0  0  0  0  0  0  0  0  0  0  0
  140.7810   70.9770  226.8790 C   0  0  0  0  0  0  0  0  0  0  0  0
  140.2420   70.4460  225.7290 C   0  0  0  0  0  0  0  0  0  0  0  0
  140.1630   71.2100  224.6110 N   0  0  0  0  0  0  0  0  0  0  0  0
  139.2160   73.3110  223.3650 H   0  0  0  0  0  0  0  0  0  0  0  0
  140.1368   73.7050  220.6352 H   0  0  0  0  0  0  0  0  0  0  0  0
  138.3660   73.4104  220.5844 H   0  0  0  0  0  0  0  0  0  0  0  0
  138.3528   76.0584  219.3719 H   0  0  0  0  0  0  0  0  0  0  0  0
  138.3932   77.6932  220.1817 H   0  0  0  0  0  0  0  0  0  0  0  0
  140.2570   76.4998  218.1589 H   0  0  0  0  0  0  0  0  0  0  0  0
  139.4923   78.1403  218.2466 H   0  0  0  0  0  0  0  0  0  0  0  0
  141.9548   78.1338  218.6976 H   0  0  0  0  0  0  0  0  0  0  0  0
  140.9431   78.7919  220.0409 H   0  0  0  0  0  0  0  0  0  0  0  0
  141.9586   75.9168  219.9182 H   0  0  0  0  0  0  0  0  0  0  0  0
  142.7960   77.2240  220.7924 H   0  0  0  0  0  0  0  0  0  0  0  0
  141.1679   75.9713  222.3266 H   0  0  0  0  0  0  0  0  0  0  0  0
  138.6105   77.8358  222.3504 H   0  0  0  0  0  0  0  0  0  0  0  0
  138.2610   79.9022  223.6006 H   0  0  0  0  0  0  0  0  0  0  0  0
  140.1847   81.2942  224.3349 H   0  0  0  0  0  0  0  0  0  0  0  0
  142.8358   78.4308  222.4945 H   0  0  0  0  0  0  0  0  0  0  0  0
  138.7667   68.9800  222.5966 H   0  0  0  0  0  0  0  0  0  0  0  0
  138.9006   67.5696  224.6165 H   0  0  0  0  0  0  0  0  0  0  0  0
  139.5023   67.3090  226.8744 H   0  0  0  0  0  0  0  0  0  0  0  0
  141.2900   70.6246  228.9314 H   0  0  0  0  0  0  0  0  0  0  0  0
  141.1462   72.0145  226.8932 H   0  0  0  0  0  0  0  0  0  0  0  0
  1  2  2  0
  2  3  1  0
  3  4  1  0
  4  5  1  0
  5  6  2  0
  5  7  1  0
  7  8  1  0
  8  9  1  0
  9 10  1  0
 10 11  1  0
 11 12  1  0
 12 13  1  0
 13 14  2  0
 14 15  1  0
 15 16  2  0
 16 17  1  0
 17 18  1  0
 17 19  2  0
  2 20  1  0
 20 21  2  0
 21 22  1  0
 22 23  2  0
 23 24  1  0
 24 25  2  0
 25 26  1  0
 25 27  1  0
 27 28  2  0
 28 29  1  0
 29 30  2  0
 12  7  1  0
 19 13  1  0
 30 20  1  0
 29 23  1  0
  3 31  1  0
  4 32  1  0
  4 33  1  0
  8 34  1  0
  8 35  1  0
  9 36  1  0
  9 37  1  0
 10 38  1  0
 10 39  1  0
 11 40  1  0
 11 41  1  0
 12 42  1  1
 14 43  1  0
 15 44  1  0
 16 45  1  0
 19 46  1  0
 21 47  1  0
 22 48  1  0
 24 49  1  0
 27 50  1  0
 28 51  1  0
M  END
>  <smiles>  (74) 
O=C(NCC(=O)N1CCCCC1c1cccc(Cl)c1)c1ccc2cc(F)ccc2n1

>  <score_type>  (74) 
oracle

>  <origin>  (74) 
autodockgpu

>  <m_score__min__energy>  (74) 
-9.2799999999999994

>  <m_primary>  (74) 
energy

>  <rmsd>  (74) 
1.583301499723792

>  <m_score__min__rmsd>  (74) 
1.583301499723792

>  <meeko>  (74) 
{"free_energy": -8.76, "intermolecular_energy": -10.25, "internal_energy": -1.86, "cluster_size": 36, "cluster_id": 1, "rank_in_cluster": 27}

>  <energy>  (74) 
-8.8

>  <cluster_rmsd>  (74) 
1.37

>  <cluster>  (74) 
1

$$$$

     RDKit          3D

 51 54  0  0  0  0  0  0  0  0999 V2000
  141.0280   71.8480  221.2890 O   0  0  0  0  0  0  0  0  0  0  0  0
  140.3530   72.2940  222.2470 C   0  0  0  0  0  0  0  0  0  0  0  0
  139.7120   73.5640  222.2410 N   0  0  0  0  0  0  0  0  0  0  0  0
  139.8130   74.4320  221.0840 C   0  0  0  0  0  0  0  0  0  0  0  0
  140.9820   75.3330  221.2440 C   0  0  0  0  0  0  0  0  0  0  0  0
  141.0550   75.9590  222.3470 O   0  0  0  0  0  0  0  0  0  0  0  0
  141.9640   75.4850  220.2170 N   0  0  0  0  0  0  0  0  0  0  0  0
  142.5760   76.7640  220.0620 C   0  0  0  0  0  0  0  0  0  0  0  0
  142.9060   77.0960  218.6260 C   0  0  0  0  0  0  0  0  0  0  0  0
  143.3030   75.8610  217.8460 C   0  0  0  0  0  0  0  0  0  0  0  0
  142.2490   74.7830  217.9770 C   0  0  0  0  0  0  0  0  0  0  0  0
  142.2560   74.3140  219.4140 C   0  0  1  0  0  0  0  0  0  0  0  0
  143.5280   73.6700  219.7060 C   0  0  0  0  0  0  0  0  0  0  0  0
  144.3920   74.3230  220.5920 C   0  0  0  0  0  0  0  0  0  0  0  0
  145.6100   73.8040  220.9440 C   0  0  0  0  0  0  0  0  0  0  0  0
  146.0470   72.6000  220.4370 C   0  0  0  0  0  0  0  0  0  0  0  0
  145.2130   71.9340  219.5590 C   0  0  0  0  0  0  0  0  0  0  0  0
  145.7560   70.4030  218.9060 Cl  0  0  0  0  0  0  0  0  0  0  0  0
  143.9730   72.4740  219.2080 C   0  0  0  0  0  0  0  0  0  0  0  0
  140.2140   71.4570  223.4510 C   0  0  0  0  0  0  0  0  0  0  0  0
  139.5990   70.2270  223.3960 C   0  0  0  0  0  0  0  0  0  0  0  0
  139.4410   69.4010  224.4890 C   0  0  0  0  0  0  0  0  0  0  0  0
  139.9250   69.8380  225.6910 C   0  0  0  0  0  0  0  0  0  0  0  0
  139.7660   69.0120  226.7840 C   0  0  0  0  0  0  0  0  0  0  0  0
  140.2580   69.4600  227.9930 C   0  0  0  0  0  0  0  0  0  0  0  0
  140.1230   68.6820  229.0860 F   0  0  0  0  0  0  0  0  0  0  0  0
  140.8730   70.6840  228.0660 C   0  0  0  0  0  0  0  0  0  0  0  0
  141.0200   71.4920  226.9560 C   0  0  0  0  0  0  0  0  0  0  0  0
  140.5370   71.0650  225.7400 C   0  0  0  0  0  0  0  0  0  0  0  0
  140.6790   71.8560  224.6470 N   0  0  0  0  0  0  0  0  0  0  0  0
  139.1620   73.8510  223.1040 H   0  0  0  0  0  0  0  0  0  0  0  0
  139.9412   73.8220  220.1777 H   0  0  0  0  0  0  0  0  0  0  0  0
  138.8958   75.0326  220.9941 H   0  0  0  0  0  0  0  0  0  0  0  0
  141.8877   77.5300  220.4486 H   0  0  0  0  0  0  0  0  0  0  0  0
  143.5246   76.7419  220.6185 H   0  0  0  0  0  0  0  0  0  0  0  0
  142.0226   77.5489  218.1522 H   0  0  0  0  0  0  0  0  0  0  0  0
  143.7559   77.7944  218.6207 H   0  0  0  0  0  0  0  0  0  0  0  0
  143.4183   76.1260  216.7846 H   0  0  0  0  0  0  0  0  0  0  0  0
  144.2520   75.4782  218.2494 H   0  0  0  0  0  0  0  0  0  0  0  0
  141.2604   75.1909  217.7198 H   0  0  0  0  0  0  0  0  0  0  0  0
  142.4628   73.9467  217.2952 H   0  0  0  0  0  0  0  0  0  0  0  0
  141.4986   73.5479  219.6363 H   0  0  0  0  0  0  0  0  0  0  0  0
  144.0822   75.2873  221.0211 H   0  0  0  0  0  0  0  0  0  0  0  0
  146.2511   74.3591  221.6446 H   0  0  0  0  0  0  0  0  0  0  0  0
  147.0248   72.1836  220.7208 H   0  0  0  0  0  0  0  0  0  0  0  0
  143.3317   71.9193  218.5072 H   0  0  0  0  0  0  0  0  0  0  0  0
  139.2116   69.8834  222.4255 H   0  0  0  0  0  0  0  0  0  0  0  0
  138.9429   68.4245  224.3971 H   0  0  0  0  0  0  0  0  0  0  0  0
  139.2672   68.0356  226.6956 H   0  0  0  0  0  0  0  0  0  0  0  0
  141.2597   71.0314  229.0354 H   0  0  0  0  0  0  0  0  0  0  0  0
  141.5188   72.4685  227.0428 H   0  0  0  0  0  0  0  0  0  0  0  0
  1  2  2  0
  2  3  1  0
  3  4  1  0
  4  5  1  0
  5  6  2  0
  5  7  1  0
  7  8  1  0
  8  9  1  0
  9 10  1  0
 10 11  1  0
 11 12  1  0
 12 13  1  0
 13 14  2  0
 14 15  1  0
 15 16  2  0
 16 17  1  0
 17 18  1  0
 17 19  2  0
  2 20  1  0
 20 21  2  0
 21 22  1  0
 22 23  2  0
 23 24  1  0
 24 25  2  0
 25 26  1  0
 25 27  1  0
 27 28  2  0
 28 29  1  0
 29 30  2  0
 12  7  1  0
 19 13  1  0
 30 20  1  0
 29 23  1  0
  3 31  1  0
  4 32  1  0
  4 33  1  0
  8 34  1  0
  8 35  1  0
  9 36  1  0
  9 37  1  0
 10 38  1  0
 10 39  1  0
 11 40  1  0
 11 41  1  0
 12 42  1  6
 14 43  1  0
 15 44  1  0
 16 45  1  0
 19 46  1  0
 21 47  1  0
 22 48  1  0
 24 49  1  0
 27 50  1  0
 28 51  1  0
M  END
>  <smiles>  (75) 
O=C(NCC(=O)N1CCCCC1c1cccc(Cl)c1)c1ccc2cc(F)ccc2n1

>  <score_type>  (75) 
oracle

>  <origin>  (75) 
autodockgpu

>  <m_score__min__energy>  (75) 
-9.2799999999999994

>  <m_primary>  (75) 
energy

>  <rmsd>  (75) 
2.3222917556980485

>  <m_score__min__rmsd>  (75) 
2.3222917556980485

>  <meeko>  (75) 
{"free_energy": -9.11, "intermolecular_energy": -10.6, "internal_energy": -1.79, "cluster_size": 8, "cluster_id": 2, "rank_in_cluster": 2}

>  <energy>  (75) 
-8.76

>  <cluster_rmsd>  (75) 
1.54

>  <cluster>  (75) 
1

$$$$

     RDKit          3D

 51 54  0  0  0  0  0  0  0  0999 V2000
  141.3280   71.9230  221.6070 O   0  0  0  0  0  0  0  0  0  0  0  0
  140.4590   72.2600  222.4450 C   0  0  0  0  0  0  0  0  0  0  0  0
  139.6440   73.4190  222.3210 N   0  0  0  0  0  0  0  0  0  0  0  0
  139.7860   74.2960  221.1760 C   0  0  0  0  0  0  0  0  0  0  0  0
  139.3460   75.6650  221.5460 C   0  0  0  0  0  0  0  0  0  0  0  0
  138.4440   75.7380  222.4370 O   0  0  0  0  0  0  0  0  0  0  0  0
  139.9050   76.8290  220.9330 N   0  0  0  0  0  0  0  0  0  0  0  0
  139.1910   77.4220  219.8500 C   0  0  0  0  0  0  0  0  0  0  0  0
  140.0950   78.0250  218.8000 C   0  0  0  0  0  0  0  0  0  0  0  0
  141.3510   78.6060  219.4130 C   0  0  0  0  0  0  0  0  0  0  0  0
  142.0500   77.5790  220.2770 C   0  0  0  0  0  0  0  0  0  0  0  0
  141.1630   77.3100  221.4710 C   0  0  1  0  0  0  0  0  0  0  0  0
  141.0640   78.5160  222.2810 C   0  0  0  0  0  0  0  0  0  0  0  0
  142.2490   79.2090  222.5500 C   0  0  0  0  0  0  0  0  0  0  0  0
  142.2720   80.3600  223.2930 C   0  0  0  0  0  0  0  0  0  0  0  0
  141.1170   80.8940  223.8180 C   0  0  0  0  0  0  0  0  0  0  0  0
  139.9310   80.2290  223.5670 C   0  0  0  0  0  0  0  0  0  0  0  0
  138.4540   80.8970  224.2270 Cl  0  0  0  0  0  0  0  0  0  0  0  0
  139.9210   79.0560  222.8070 C   0  0  0  0  0  0  0  0  0  0  0  0
  140.2680   71.4070  223.6320 C   0  0  0  0  0  0  0  0  0  0  0  0
  139.6260   70.1930  223.5400 C   0  0  0  0  0  0  0  0  0  0  0  0
  139.4200   69.3540  224.6140 C   0  0  0  0  0  0  0  0  0  0  0  0
  139.8820   69.7590  225.8350 C   0  0  0  0  0  0  0  0  0  0  0  0
  139.6740   68.9200  226.9090 C   0  0  0  0  0  0  0  0  0  0  0  0
  140.1450   69.3360  228.1380 C   0  0  0  0  0  0  0  0  0  0  0  0
  139.9630   68.5440  229.2150 F   0  0  0  0  0  0  0  0  0  0  0  0
  140.7880   70.5430  228.2480 C   0  0  0  0  0  0  0  0  0  0  0  0
  140.9830   71.3660  227.1560 C   0  0  0  0  0  0  0  0  0  0  0  0
  140.5220   70.9700  225.9210 C   0  0  0  0  0  0  0  0  0  0  0  0
  140.7110   71.7750  224.8460 N   0  0  0  0  0  0  0  0  0  0  0  0
  138.9350   73.6170  223.0870 H   0  0  0  0  0  0  0  0  0  0  0  0
  140.8398   74.3216  220.8617 H   0  0  0  0  0  0  0  0  0  0  0  0
  139.1663   73.9221  220.3476 H   0  0  0  0  0  0  0  0  0  0  0  0
  138.5709   76.6478  219.3746 H   0  0  0  0  0  0  0  0  0  0  0  0
  138.5841   78.2391  220.2671 H   0  0  0  0  0  0  0  0  0  0  0  0
  140.3780   77.2425  218.0805 H   0  0  0  0  0  0  0  0  0  0  0  0
  139.5478   78.8383  218.3009 H   0  0  0  0  0  0  0  0  0  0  0  0
  142.0310   78.9243  218.6091 H   0  0  0  0  0  0  0  0  0  0  0  0
  141.0728   79.4653  220.0408 H   0  0  0  0  0  0  0  0  0  0  0  0
  142.2040   76.6509  219.7069 H   0  0  0  0  0  0  0  0  0  0  0  0
  143.0335   77.9502  220.6009 H   0  0  0  0  0  0  0  0  0  0  0  0
  141.5580   76.5455  222.1562 H   0  0  0  0  0  0  0  0  0  0  0  0
  143.1957   78.8160  222.1510 H   0  0  0  0  0  0  0  0  0  0  0  0
  143.2315   80.8668  223.4733 H   0  0  0  0  0  0  0  0  0  0  0  0
  141.1368   81.8170  224.4160 H   0  0  0  0  0  0  0  0  0  0  0  0
  138.9618   78.5492  222.6252 H   0  0  0  0  0  0  0  0  0  0  0  0
  139.2566   69.8745  222.5540 H   0  0  0  0  0  0  0  0  0  0  0  0
  138.9015   68.3915  224.4927 H   0  0  0  0  0  0  0  0  0  0  0  0
  139.1537   67.9580  226.7913 H   0  0  0  0  0  0  0  0  0  0  0  0
  141.1583   70.8641  229.2328 H   0  0  0  0  0  0  0  0  0  0  0  0
  141.5019   72.3289  227.2722 H   0  0  0  0  0  0  0  0  0  0  0  0
  1  2  2  0
  2  3  1  0
  3  4  1  0
  4  5  1  0
  5  6  2  0
  5  7  1  0
  7  8  1  0
  8  9  1  0
  9 10  1  0
 10 11  1  0
 11 12  1  0
 12 13  1  0
 13 14  2  0
 14 15  1  0
 15 16  2  0
 16 17  1  0
 17 18  1  0
 17 19  2  0
  2 20  1  0
 20 21  2  0
 21 22  1  0
 22 23  2  0
 23 24  1  0
 24 25  2  0
 25 26  1  0
 25 27  1  0
 27 28  2  0
 28 29  1  0
 29 30  2  0
 12  7  1  0
 19 13  1  0
 30 20  1  0
 29 23  1  0
  3 31  1  0
  4 32  1  0
  4 33  1  0
  8 34  1  0
  8 35  1  0
  9 36  1  0
  9 37  1  0
 10 38  1  0
 10 39  1  0
 11 40  1  0
 11 41  1  0
 12 42  1  1
 14 43  1  0
 15 44  1  0
 16 45  1  0
 19 46  1  0
 21 47  1  0
 22 48  1  0
 24 49  1  0
 27 50  1  0
 28 51  1  0
M  END
>  <smiles>  (76) 
O=C(NCC(=O)N1CCCCC1c1cccc(Cl)c1)c1ccc2cc(F)ccc2n1

>  <score_type>  (76) 
oracle

>  <origin>  (76) 
autodockgpu

>  <m_score__min__energy>  (76) 
-9.2799999999999994

>  <m_primary>  (76) 
energy

>  <rmsd>  (76) 
1.9135900085484931

>  <m_score__min__rmsd>  (76) 
1.9135900085484931

>  <meeko>  (76) 
{"free_energy": -9.21, "intermolecular_energy": -10.7, "internal_energy": -1.89, "cluster_size": 36, "cluster_id": 1, "rank_in_cluster": 5}

>  <energy>  (76) 
-8.76

>  <cluster_rmsd>  (76) 
1.67

>  <cluster>  (76) 
1

$$$$

     RDKit          3D

 51 54  0  0  0  0  0  0  0  0999 V2000
  138.1940   71.3120  221.6490 O   0  0  0  0  0  0  0  0  0  0  0  0
  138.8930   71.7670  222.5840 C   0  0  0  0  0  0  0  0  0  0  0  0
  139.4060   73.0930  222.6190 N   0  0  0  0  0  0  0  0  0  0  0  0
  139.1320   74.0140  221.5330 C   0  0  0  0  0  0  0  0  0  0  0  0
  140.1910   75.0540  221.4890 C   0  0  0  0  0  0  0  0  0  0  0  0
  141.3140   74.7260  221.9820 O   0  0  0  0  0  0  0  0  0  0  0  0
  139.9570   76.3460  220.9240 N   0  0  0  0  0  0  0  0  0  0  0  0
  138.6490   76.6330  220.4320 C   0  0  0  0  0  0  0  0  0  0  0  0
  138.6530   77.5360  219.2210 C   0  0  0  0  0  0  0  0  0  0  0  0
  139.7800   78.5440  219.2830 C   0  0  0  0  0  0  0  0  0  0  0  0
  141.1060   77.8510  219.5090 C   0  0  0  0  0  0  0  0  0  0  0  0
  141.0800   77.2620  220.9010 C   0  0  1  0  0  0  0  0  0  0  0  0
  141.0160   78.3380  221.8800 C   0  0  0  0  0  0  0  0  0  0  0  0
  142.2160   78.9760  222.2130 C   0  0  0  0  0  0  0  0  0  0  0  0
  142.2720   80.0050  223.1150 C   0  0  0  0  0  0  0  0  0  0  0  0
  141.1370   80.4670  223.7440 C   0  0  0  0  0  0  0  0  0  0  0  0
  139.9380   79.8540  223.4330 C   0  0  0  0  0  0  0  0  0  0  0  0
  138.4860   80.4310  224.2240 Cl  0  0  0  0  0  0  0  0  0  0  0  0
  139.8940   78.8050  222.5110 C   0  0  0  0  0  0  0  0  0  0  0  0
  139.2060   70.8780  223.7170 C   0  0  0  0  0  0  0  0  0  0  0  0
  138.8400   69.5510  223.7020 C   0  0  0  0  0  0  0  0  0  0  0  0
  139.1060   68.6730  224.7320 C   0  0  0  0  0  0  0  0  0  0  0  0
  139.7700   69.1570  225.8240 C   0  0  0  0  0  0  0  0  0  0  0  0
  140.0350   68.2780  226.8540 C   0  0  0  0  0  0  0  0  0  0  0  0
  140.7070   68.7740  227.9520 C   0  0  0  0  0  0  0  0  0  0  0  0
  140.9860   67.9480  228.9810 F   0  0  0  0  0  0  0  0  0  0  0  0
  141.0800   70.0940  227.9840 C   0  0  0  0  0  0  0  0  0  0  0  0
  140.8020   70.9540  226.9390 C   0  0  0  0  0  0  0  0  0  0  0  0
  140.1330   70.4800  225.8330 C   0  0  0  0  0  0  0  0  0  0  0  0
  139.8590   71.3210  224.8050 N   0  0  0  0  0  0  0  0  0  0  0  0
  139.9900   73.3830  223.4580 H   0  0  0  0  0  0  0  0  0  0  0  0
  139.1178   73.4642  220.5804 H   0  0  0  0  0  0  0  0  0  0  0  0
  138.1544   74.4918  221.6943 H   0  0  0  0  0  0  0  0  0  0  0  0
  138.1623   75.6849  220.1594 H   0  0  0  0  0  0  0  0  0  0  0  0
  138.1079   77.1608  221.2312 H   0  0  0  0  0  0  0  0  0  0  0  0
  138.7733   76.9208  218.3171 H   0  0  0  0  0  0  0  0  0  0  0  0
  137.7003   78.0853  219.1976 H   0  0  0  0  0  0  0  0  0  0  0  0
  139.8200   79.0996  218.3345 H   0  0  0  0  0  0  0  0  0  0  0  0
  139.5933   79.2319  220.1208 H   0  0  0  0  0  0  0  0  0  0  0  0
  141.2435   77.0519  218.7657 H   0  0  0  0  0  0  0  0  0  0  0  0
  141.9378   78.5633  219.4054 H   0  0  0  0  0  0  0  0  0  0  0  0
  141.9879   76.6996  221.1645 H   0  0  0  0  0  0  0  0  0  0  0  0
  143.1470   78.6393  221.7335 H   0  0  0  0  0  0  0  0  0  0  0  0
  143.2421   80.4715  223.3416 H   0  0  0  0  0  0  0  0  0  0  0  0
  141.1832   81.2941  224.4678 H   0  0  0  0  0  0  0  0  0  0  0  0
  138.9242   78.3380  222.2841 H   0  0  0  0  0  0  0  0  0  0  0  0
  138.3056   69.1696  222.8194 H   0  0  0  0  0  0  0  0  0  0  0  0
  138.7944   67.6195  224.6764 H   0  0  0  0  0  0  0  0  0  0  0  0
  139.7231   67.2244  226.8018 H   0  0  0  0  0  0  0  0  0  0  0  0
  141.6147   70.4779  228.8653 H   0  0  0  0  0  0  0  0  0  0  0  0
  141.1124   72.0080  226.9902 H   0  0  0  0  0  0  0  0  0  0  0  0
  1  2  2  0
  2  3  1  0
  3  4  1  0
  4  5  1  0
  5  6  2  0
  5  7  1  0
  7  8  1  0
  8  9  1  0
  9 10  1  0
 10 11  1  0
 11 12  1  0
 12 13  1  0
 13 14  2  0
 14 15  1  0
 15 16  2  0
 16 17  1  0
 17 18  1  0
 17 19  2  0
  2 20  1  0
 20 21  2  0
 21 22  1  0
 22 23  2  0
 23 24  1  0
 24 25  2  0
 25 26  1  0
 25 27  1  0
 27 28  2  0
 28 29  1  0
 29 30  2  0
 12  7  1  0
 19 13  1  0
 30 20  1  0
 29 23  1  0
  3 31  1  0
  4 32  1  0
  4 33  1  0
  8 34  1  0
  8 35  1  0
  9 36  1  0
  9 37  1  0
 10 38  1  0
 10 39  1  0
 11 40  1  0
 11 41  1  0
 12 42  1  1
 14 43  1  0
 15 44  1  0
 16 45  1  0
 19 46  1  0
 21 47  1  0
 22 48  1  0
 24 49  1  0
 27 50  1  0
 28 51  1  0
M  END
>  <smiles>  (77) 
O=C(NCC(=O)N1CCCCC1c1cccc(Cl)c1)c1ccc2cc(F)ccc2n1

>  <score_type>  (77) 
oracle

>  <origin>  (77) 
autodockgpu

>  <m_score__min__energy>  (77) 
-9.2799999999999994

>  <m_primary>  (77) 
energy

>  <rmsd>  (77) 
1.5146089156067646

>  <m_score__min__rmsd>  (77) 
1.5146089156067646

>  <meeko>  (77) 
{"free_energy": -8.51, "intermolecular_energy": -10.0, "internal_energy": -1.97, "cluster_size": 36, "cluster_id": 1, "rank_in_cluster": 33}

>  <energy>  (77) 
-8.76

>  <cluster_rmsd>  (77) 
1.31

>  <cluster>  (77) 
1

$$$$

     RDKit          3D

 51 54  0  0  0  0  0  0  0  0999 V2000
  138.3070   70.7320  221.8700 O   0  0  0  0  0  0  0  0  0  0  0  0
  138.9430   71.2580  222.8130 C   0  0  0  0  0  0  0  0  0  0  0  0
  139.3530   72.6200  222.8300 N   0  0  0  0  0  0  0  0  0  0  0  0
  139.0420   73.4940  221.7160 C   0  0  0  0  0  0  0  0  0  0  0  0
  139.8180   74.7530  221.8460 C   0  0  0  0  0  0  0  0  0  0  0  0
  141.0760   74.6230  221.9570 O   0  0  0  0  0  0  0  0  0  0  0  0
  139.1830   76.0340  221.8460 N   0  0  0  0  0  0  0  0  0  0  0  0
  137.9780   76.1820  222.5950 C   0  0  0  0  0  0  0  0  0  0  0  0
  136.9970   77.1400  221.9610 C   0  0  0  0  0  0  0  0  0  0  0  0
  137.7060   78.2750  221.2540 C   0  0  0  0  0  0  0  0  0  0  0  0
  138.7280   77.7410  220.2740 C   0  0  0  0  0  0  0  0  0  0  0  0
  139.8250   77.0820  221.0770 C   0  0  1  0  0  0  0  0  0  0  0  0
  140.5160   78.0900  221.8690 C   0  0  0  0  0  0  0  0  0  0  0  0
  141.1360   77.6670  223.0500 C   0  0  0  0  0  0  0  0  0  0  0  0
  141.8200   78.5280  223.8670 C   0  0  0  0  0  0  0  0  0  0  0  0
  141.9330   79.8660  223.5610 C   0  0  0  0  0  0  0  0  0  0  0  0
  141.3300   80.3100  222.3990 C   0  0  0  0  0  0  0  0  0  0  0  0
  141.4650   82.0090  221.9960 Cl  0  0  0  0  0  0  0  0  0  0  0  0
  140.6340   79.4220  221.5740 C   0  0  0  0  0  0  0  0  0  0  0  0
  139.2880   70.4190  223.9740 C   0  0  0  0  0  0  0  0  0  0  0  0
  139.0320   69.0670  223.9770 C   0  0  0  0  0  0  0  0  0  0  0  0
  139.3330   68.2340  225.0330 C   0  0  0  0  0  0  0  0  0  0  0  0
  139.9190   68.7910  226.1350 C   0  0  0  0  0  0  0  0  0  0  0  0
  140.2190   67.9570  227.1920 C   0  0  0  0  0  0  0  0  0  0  0  0
  140.8110   68.5280  228.3000 C   0  0  0  0  0  0  0  0  0  0  0  0
  141.1210   67.7470  229.3550 F   0  0  0  0  0  0  0  0  0  0  0  0
  141.0740   69.8740  228.3150 C   0  0  0  0  0  0  0  0  0  0  0  0
  140.7630   70.6880  227.2430 C   0  0  0  0  0  0  0  0  0  0  0  0
  140.1720   70.1400  226.1270 C   0  0  0  0  0  0  0  0  0  0  0  0
  139.8650   70.9350  225.0720 N   0  0  0  0  0  0  0  0  0  0  0  0
  139.8890   72.9710  223.6780 H   0  0  0  0  0  0  0  0  0  0  0  0
  139.3077   72.9948  220.7725 H   0  0  0  0  0  0  0  0  0  0  0  0
  137.9662   73.7234  221.7179 H   0  0  0  0  0  0  0  0  0  0  0  0
  137.4974   75.1964  222.6824 H   0  0  0  0  0  0  0  0  0  0  0  0
  138.2520   76.5966  223.5763 H   0  0  0  0  0  0  0  0  0  0  0  0
  136.3837   76.5919  221.2306 H   0  0  0  0  0  0  0  0  0  0  0  0
  136.3700   77.5681  222.7570 H   0  0  0  0  0  0  0  0  0  0  0  0
  136.9656   78.8796  220.7097 H   0  0  0  0  0  0  0  0  0  0  0  0
  138.2242   78.8898  222.0047 H   0  0  0  0  0  0  0  0  0  0  0  0
  138.2582   77.0050  219.6050 H   0  0  0  0  0  0  0  0  0  0  0  0
  139.1352   78.5551  219.6563 H   0  0  0  0  0  0  0  0  0  0  0  0
  140.6124   76.6223  220.4616 H   0  0  0  0  0  0  0  0  0  0  0  0
  141.0719   76.6058  223.3323 H   0  0  0  0  0  0  0  0  0  0  0  0
  142.2880   78.1432  224.7851 H   0  0  0  0  0  0  0  0  0  0  0  0
  142.4831   80.5563  224.2174 H   0  0  0  0  0  0  0  0  0  0  0  0
  140.1649   79.8063  220.6563 H   0  0  0  0  0  0  0  0  0  0  0  0
  138.5605   68.6261  223.0863 H   0  0  0  0  0  0  0  0  0  0  0  0
  139.1093   67.1578  224.9904 H   0  0  0  0  0  0  0  0  0  0  0  0
  139.9954   66.8807  227.1532 H   0  0  0  0  0  0  0  0  0  0  0  0
  141.5453   70.3173  229.2046 H   0  0  0  0  0  0  0  0  0  0  0  0
  140.9857   71.7646  227.2808 H   0  0  0  0  0  0  0  0  0  0  0  0
  1  2  2  0
  2  3  1  0
  3  4  1  0
  4  5  1  0
  5  6  2  0
  5  7  1  0
  7  8  1  0
  8  9  1  0
  9 10  1  0
 10 11  1  0
 11 12  1  0
 12 13  1  0
 13 14  2  0
 14 15  1  0
 15 16  2  0
 16 17  1  0
 17 18  1  0
 17 19  2  0
  2 20  1  0
 20 21  2  0
 21 22  1  0
 22 23  2  0
 23 24  1  0
 24 25  2  0
 25 26  1  0
 25 27  1  0
 27 28  2  0
 28 29  1  0
 29 30  2  0
 12  7  1  0
 19 13  1  0
 30 20  1  0
 29 23  1  0
  3 31  1  0
  4 32  1  0
  4 33  1  0
  8 34  1  0
  8 35  1  0
  9 36  1  0
  9 37  1  0
 10 38  1  0
 10 39  1  0
 11 40  1  0
 11 41  1  0
 12 42  1  6
 14 43  1  0
 15 44  1  0
 16 45  1  0
 19 46  1  0
 21 47  1  0
 22 48  1  0
 24 49  1  0
 27 50  1  0
 28 51  1  0
M  END
>  <smiles>  (78) 
O=C(NCC(=O)N1CCCCC1c1cccc(Cl)c1)c1ccc2cc(F)ccc2n1

>  <score_type>  (78) 
oracle

>  <origin>  (78) 
autodockgpu

>  <m_score__min__energy>  (78) 
-9.2799999999999994

>  <m_primary>  (78) 
energy

>  <rmsd>  (78) 
2.475187603781676

>  <m_score__min__rmsd>  (78) 
2.475187603781676

>  <meeko>  (78) 
{"free_energy": -8.83, "intermolecular_energy": -10.32, "internal_energy": -1.75, "cluster_size": 36, "cluster_id": 1, "rank_in_cluster": 22}

>  <energy>  (78) 
-8.74

>  <cluster_rmsd>  (78) 
1.56

>  <cluster>  (78) 
1

$$$$

     RDKit          3D

 51 54  0  0  0  0  0  0  0  0999 V2000
  139.7880   71.6770  221.0640 O   0  0  0  0  0  0  0  0  0  0  0  0
  139.7440   72.2440  222.1800 C   0  0  0  0  0  0  0  0  0  0  0  0
  139.5870   73.6470  222.3520 N   0  0  0  0  0  0  0  0  0  0  0  0
  139.4650   74.5180  221.1990 C   0  0  0  0  0  0  0  0  0  0  0  0
  140.6230   75.4450  221.1570 C   0  0  0  0  0  0  0  0  0  0  0  0
  141.7210   74.9860  221.6010 O   0  0  0  0  0  0  0  0  0  0  0  0
  140.5070   76.7760  220.6470 N   0  0  0  0  0  0  0  0  0  0  0  0
  139.3050   77.1260  219.9630 C   0  0  0  0  0  0  0  0  0  0  0  0
  139.5260   78.1020  218.8320 C   0  0  0  0  0  0  0  0  0  0  0  0
  140.6430   79.0740  219.1460 C   0  0  0  0  0  0  0  0  0  0  0  0
  141.9010   78.3340  219.5440 C   0  0  0  0  0  0  0  0  0  0  0  0
  141.6320   77.6620  220.8700 C   0  0  1  0  0  0  0  0  0  0  0  0
  141.4220   78.6760  221.8930 C   0  0  0  0  0  0  0  0  0  0  0  0
  142.5480   79.3640  222.3580 C   0  0  0  0  0  0  0  0  0  0  0  0
  142.4660   80.3430  223.3130 C   0  0  0  0  0  0  0  0  0  0  0  0
  141.2570   80.7030  223.8650 C   0  0  0  0  0  0  0  0  0  0  0  0
  140.1280   80.0390  223.4230 C   0  0  0  0  0  0  0  0  0  0  0  0
  138.5830   80.4860  224.1160 Cl  0  0  0  0  0  0  0  0  0  0  0  0
  140.2250   79.0410  222.4490 C   0  0  0  0  0  0  0  0  0  0  0  0
  139.8630   71.4110  223.3900 C   0  0  0  0  0  0  0  0  0  0  0  0
  139.4670   70.0920  223.3880 C   0  0  0  0  0  0  0  0  0  0  0  0
  139.5550   69.2660  224.4880 C   0  0  0  0  0  0  0  0  0  0  0  0
  140.0640   69.7950  225.6410 C   0  0  0  0  0  0  0  0  0  0  0  0
  140.1510   68.9680  226.7410 C   0  0  0  0  0  0  0  0  0  0  0  0
  140.6680   69.5090  227.9010 C   0  0  0  0  0  0  0  0  0  0  0  0
  140.7700   68.7330  229.0000 F   0  0  0  0  0  0  0  0  0  0  0  0
  141.0670   70.8210  227.9210 C   0  0  0  0  0  0  0  0  0  0  0  0
  140.9700   71.6290  226.8050 C   0  0  0  0  0  0  0  0  0  0  0  0
  140.4580   71.1090  225.6370 C   0  0  0  0  0  0  0  0  0  0  0  0
  140.3600   71.8990  224.5390 N   0  0  0  0  0  0  0  0  0  0  0  0
  139.5610   74.0310  223.3420 H   0  0  0  0  0  0  0  0  0  0  0  0
  139.4467   73.9117  220.2813 H   0  0  0  0  0  0  0  0  0  0  0  0
  138.5329   75.0974  221.2732 H   0  0  0  0  0  0  0  0  0  0  0  0
  138.8576   76.2093  219.5512 H   0  0  0  0  0  0  0  0  0  0  0  0
  138.6446   77.6164  220.6933 H   0  0  0  0  0  0  0  0  0  0  0  0
  139.7859   77.5412  217.9220 H   0  0  0  0  0  0  0  0  0  0  0  0
  138.5995   78.6771  218.6875 H   0  0  0  0  0  0  0  0  0  0  0  0
  140.8504   79.6854  218.2554 H   0  0  0  0  0  0  0  0  0  0  0  0
  140.3294   79.7137  219.9841 H   0  0  0  0  0  0  0  0  0  0  0  0
  142.1490   77.5788  218.7837 H   0  0  0  0  0  0  0  0  0  0  0  0
  142.7496   79.0290  219.6269 H   0  0  0  0  0  0  0  0  0  0  0  0
  142.4742   77.0607  221.2430 H   0  0  0  0  0  0  0  0  0  0  0  0
  143.5341   79.1099  221.9421 H   0  0  0  0  0  0  0  0  0  0  0  0
  143.3834   80.8510  223.6451 H   0  0  0  0  0  0  0  0  0  0  0  0
  141.1919   81.4906  224.6301 H   0  0  0  0  0  0  0  0  0  0  0  0
  139.3082   78.5313  222.1178 H   0  0  0  0  0  0  0  0  0  0  0  0
  139.0575   69.6742  222.4564 H   0  0  0  0  0  0  0  0  0  0  0  0
  139.2269   68.2172  224.4396 H   0  0  0  0  0  0  0  0  0  0  0  0
  139.8217   67.9194  226.6959 H   0  0  0  0  0  0  0  0  0  0  0  0
  141.4756   71.2415  228.8517 H   0  0  0  0  0  0  0  0  0  0  0  0
  141.2986   72.6779  226.8487 H   0  0  0  0  0  0  0  0  0  0  0  0
  1  2  2  0
  2  3  1  0
  3  4  1  0
  4  5  1  0
  5  6  2  0
  5  7  1  0
  7  8  1  0
  8  9  1  0
  9 10  1  0
 10 11  1  0
 11 12  1  0
 12 13  1  0
 13 14  2  0
 14 15  1  0
 15 16  2  0
 16 17  1  0
 17 18  1  0
 17 19  2  0
  2 20  1  0
 20 21  2  0
 21 22  1  0
 22 23  2  0
 23 24  1  0
 24 25  2  0
 25 26  1  0
 25 27  1  0
 27 28  2  0
 28 29  1  0
 29 30  2  0
 12  7  1  0
 19 13  1  0
 30 20  1  0
 29 23  1  0
  3 31  1  0
  4 32  1  0
  4 33  1  0
  8 34  1  0
  8 35  1  0
  9 36  1  0
  9 37  1  0
 10 38  1  0
 10 39  1  0
 11 40  1  0
 11 41  1  0
 12 42  1  1
 14 43  1  0
 15 44  1  0
 16 45  1  0
 19 46  1  0
 21 47  1  0
 22 48  1  0
 24 49  1  0
 27 50  1  0
 28 51  1  0
M  END
>  <smiles>  (79) 
O=C(NCC(=O)N1CCCCC1c1cccc(Cl)c1)c1ccc2cc(F)ccc2n1

>  <score_type>  (79) 
oracle

>  <origin>  (79) 
autodockgpu

>  <m_score__min__energy>  (79) 
-9.2799999999999994

>  <m_primary>  (79) 
energy

>  <rmsd>  (79) 
1.685712422155018

>  <m_score__min__rmsd>  (79) 
1.685712422155018

>  <meeko>  (79) 
{"free_energy": -8.87, "intermolecular_energy": -10.36, "internal_energy": -1.61, "cluster_size": 36, "cluster_id": 1, "rank_in_cluster": 18}

>  <energy>  (79) 
-8.71

>  <cluster_rmsd>  (79) 
0.8

>  <cluster>  (79) 
1

$$$$

     RDKit          3D

 51 54  0  0  0  0  0  0  0  0999 V2000
  139.2130   75.0140  222.6820 O   0  0  0  0  0  0  0  0  0  0  0  0
  139.8740   75.2840  221.6520 C   0  0  0  0  0  0  0  0  0  0  0  0
  139.6050   76.3940  220.8050 N   0  0  0  0  0  0  0  0  0  0  0  0
  138.5120   77.2980  221.1050 C   0  0  0  0  0  0  0  0  0  0  0  0
  138.9420   78.2610  222.1510 C   0  0  0  0  0  0  0  0  0  0  0  0
  138.0570   78.5950  222.9980 O   0  0  0  0  0  0  0  0  0  0  0  0
  140.2730   78.7790  222.1980 N   0  0  0  0  0  0  0  0  0  0  0  0
  141.2040   78.1490  223.0770 C   0  0  0  0  0  0  0  0  0  0  0  0
  142.1970   79.1130  223.6820 C   0  0  0  0  0  0  0  0  0  0  0  0
  142.5520   80.2240  222.7180 C   0  0  0  0  0  0  0  0  0  0  0  0
  141.3040   80.9070  222.2030 C   0  0  0  0  0  0  0  0  0  0  0  0
  140.5650   79.9100  221.3400 C   0  0  1  0  0  0  0  0  0  0  0  0
  141.3670   79.6000  220.1650 C   0  0  0  0  0  0  0  0  0  0  0  0
  141.7940   80.6740  219.3760 C   0  0  0  0  0  0  0  0  0  0  0  0
  142.5600   80.4990  218.2530 C   0  0  0  0  0  0  0  0  0  0  0  0
  142.9510   79.2440  217.8440 C   0  0  0  0  0  0  0  0  0  0  0  0
  142.5430   78.1650  218.6060 C   0  0  0  0  0  0  0  0  0  0  0  0
  143.0330   76.5630  218.0980 Cl  0  0  0  0  0  0  0  0  0  0  0  0
  141.7620   78.3570  219.7490 C   0  0  0  0  0  0  0  0  0  0  0  0
  140.9980   74.4010  221.2950 C   0  0  0  0  0  0  0  0  0  0  0  0
  140.8350   73.0360  221.2150 C   0  0  0  0  0  0  0  0  0  0  0  0
  141.8490   72.1620  220.8850 C   0  0  0  0  0  0  0  0  0  0  0  0
  143.0820   72.6900  220.6240 C   0  0  0  0  0  0  0  0  0  0  0  0
  144.0960   71.8150  220.2950 C   0  0  0  0  0  0  0  0  0  0  0  0
  145.3390   72.3550  220.0330 C   0  0  0  0  0  0  0  0  0  0  0  0
  146.3580   71.5340  219.7070 F   0  0  0  0  0  0  0  0  0  0  0  0
  145.5200   73.7130  220.1070 C   0  0  0  0  0  0  0  0  0  0  0  0
  144.4880   74.5680  220.4390 C   0  0  0  0  0  0  0  0  0  0  0  0
  143.2400   74.0500  220.7050 C   0  0  0  0  0  0  0  0  0  0  0  0
  142.2230   74.8870  221.0310 N   0  0  0  0  0  0  0  0  0  0  0  0
  140.2250   76.5370  219.9540 H   0  0  0  0  0  0  0  0  0  0  0  0
  138.2291   77.8469  220.1946 H   0  0  0  0  0  0  0  0  0  0  0  0
  137.6478   76.7223  221.4681 H   0  0  0  0  0  0  0  0  0  0  0  0
  140.6442   77.6666  223.8917 H   0  0  0  0  0  0  0  0  0  0  0  0
  141.7755   77.4219  222.4813 H   0  0  0  0  0  0  0  0  0  0  0  0
  141.7591   79.5541  224.5896 H   0  0  0  0  0  0  0  0  0  0  0  0
  143.1158   78.5568  223.9199 H   0  0  0  0  0  0  0  0  0  0  0  0
  143.1805   80.9636  223.2356 H   0  0  0  0  0  0  0  0  0  0  0  0
  143.0947   79.7908  221.8649 H   0  0  0  0  0  0  0  0  0  0  0  0
  140.6697   81.2166  223.0467 H   0  0  0  0  0  0  0  0  0  0  0  0
  141.5644   81.8044  221.6227 H   0  0  0  0  0  0  0  0  0  0  0  0
  139.6143   80.2885  220.9363 H   0  0  0  0  0  0  0  0  0  0  0  0
  141.5047   81.6945  219.6673 H   0  0  0  0  0  0  0  0  0  0  0  0
  142.8681   81.3778  217.6675 H   0  0  0  0  0  0  0  0  0  0  0  0
  143.5662   79.1047  216.9428 H   0  0  0  0  0  0  0  0  0  0  0  0
  141.4539   77.4785  220.3349 H   0  0  0  0  0  0  0  0  0  0  0  0
  139.8392   72.6192  221.4264 H   0  0  0  0  0  0  0  0  0  0  0  0
  141.6716   71.0776  220.8336 H   0  0  0  0  0  0  0  0  0  0  0  0
  143.9212   70.7302  220.2434 H   0  0  0  0  0  0  0  0  0  0  0  0
  146.5149   74.1322  219.8960 H   0  0  0  0  0  0  0  0  0  0  0  0
  144.6611   75.6531  220.4906 H   0  0  0  0  0  0  0  0  0  0  0  0
  1  2  2  0
  2  3  1  0
  3  4  1  0
  4  5  1  0
  5  6  2  0
  5  7  1  0
  7  8  1  0
  8  9  1  0
  9 10  1  0
 10 11  1  0
 11 12  1  0
 12 13  1  0
 13 14  2  0
 14 15  1  0
 15 16  2  0
 16 17  1  0
 17 18  1  0
 17 19  2  0
  2 20  1  0
 20 21  2  0
 21 22  1  0
 22 23  2  0
 23 24  1  0
 24 25  2  0
 25 26  1  0
 25 27  1  0
 27 28  2  0
 28 29  1  0
 29 30  2  0
 12  7  1  0
 19 13  1  0
 30 20  1  0
 29 23  1  0
  3 31  1  0
  4 32  1  0
  4 33  1  0
  8 34  1  0
  8 35  1  0
  9 36  1  0
  9 37  1  0
 10 38  1  0
 10 39  1  0
 11 40  1  0
 11 41  1  0
 12 42  1  6
 14 43  1  0
 15 44  1  0
 16 45  1  0
 19 46  1  0
 21 47  1  0
 22 48  1  0
 24 49  1  0
 27 50  1  0
 28 51  1  0
M  END
>  <smiles>  (80) 
O=C(NCC(=O)N1CCCCC1c1cccc(Cl)c1)c1ccc2cc(F)ccc2n1

>  <score_type>  (80) 
oracle

>  <origin>  (80) 
autodockgpu

>  <m_score__min__energy>  (80) 
-9.2799999999999994

>  <m_primary>  (80) 
energy

>  <rmsd>  (80) 
6.3688503612384935

>  <m_score__min__rmsd>  (80) 
6.3688503612384935

>  <meeko>  (80) 
{"free_energy": -7.46, "intermolecular_energy": -8.95, "internal_energy": -2.53, "cluster_size": 4, "cluster_id": 4, "rank_in_cluster": 2}

>  <energy>  (80) 
-8.61

>  <cluster_rmsd>  (80) 
1.52

>  <cluster>  (80) 
1

$$$$

     RDKit          3D

 51 54  0  0  0  0  0  0  0  0999 V2000
  139.1970   75.0780  222.6910 O   0  0  0  0  0  0  0  0  0  0  0  0
  139.9070   75.3670  221.6990 C   0  0  0  0  0  0  0  0  0  0  0  0
  139.6960   76.5100  220.8790 N   0  0  0  0  0  0  0  0  0  0  0  0
  138.6100   77.4270  221.1640 C   0  0  0  0  0  0  0  0  0  0  0  0
  139.0370   78.3850  222.2150 C   0  0  0  0  0  0  0  0  0  0  0  0
  138.1700   78.6640  223.1000 O   0  0  0  0  0  0  0  0  0  0  0  0
  140.3470   78.9580  222.2260 N   0  0  0  0  0  0  0  0  0  0  0  0
  141.3160   78.3890  223.1040 C   0  0  0  0  0  0  0  0  0  0  0  0
  142.2790   79.4080  223.6690 C   0  0  0  0  0  0  0  0  0  0  0  0
  142.5720   80.5080  222.6720 C   0  0  0  0  0  0  0  0  0  0  0  0
  141.2880   81.1260  222.1620 C   0  0  0  0  0  0  0  0  0  0  0  0
  140.5770   80.0790  221.3360 C   0  0  1  0  0  0  0  0  0  0  0  0
  141.3730   79.7730  220.1560 C   0  0  0  0  0  0  0  0  0  0  0  0
  141.7980   80.8490  219.3690 C   0  0  0  0  0  0  0  0  0  0  0  0
  142.5570   80.6780  218.2420 C   0  0  0  0  0  0  0  0  0  0  0  0
  142.9430   79.4240  217.8240 C   0  0  0  0  0  0  0  0  0  0  0  0
  142.5360   78.3420  218.5830 C   0  0  0  0  0  0  0  0  0  0  0  0
  143.0200   76.7410  218.0640 Cl  0  0  0  0  0  0  0  0  0  0  0  0
  141.7620   78.5300  219.7310 C   0  0  0  0  0  0  0  0  0  0  0  0
  141.0270   74.4720  221.3590 C   0  0  0  0  0  0  0  0  0  0  0  0
  140.8790   73.1030  221.3900 C   0  0  0  0  0  0  0  0  0  0  0  0
  141.8900   72.2180  221.0820 C   0  0  0  0  0  0  0  0  0  0  0  0
  143.1040   72.7380  220.7270 C   0  0  0  0  0  0  0  0  0  0  0  0
  144.1150   71.8510  220.4200 C   0  0  0  0  0  0  0  0  0  0  0  0
  145.3360   72.3840  220.0620 C   0  0  0  0  0  0  0  0  0  0  0  0
  146.3520   71.5510  219.7530 F   0  0  0  0  0  0  0  0  0  0  0  0
  145.5010   73.7450  220.0250 C   0  0  0  0  0  0  0  0  0  0  0  0
  144.4730   74.6120  220.3380 C   0  0  0  0  0  0  0  0  0  0  0  0
  143.2450   74.1020  220.6980 C   0  0  0  0  0  0  0  0  0  0  0  0
  142.2320   74.9500  221.0050 N   0  0  0  0  0  0  0  0  0  0  0  0
  140.3550   76.6660  220.0600 H   0  0  0  0  0  0  0  0  0  0  0  0
  138.3460   77.9788  220.2498 H   0  0  0  0  0  0  0  0  0  0  0  0
  137.7343   76.8618  221.5156 H   0  0  0  0  0  0  0  0  0  0  0  0
  140.7891   77.9050  223.9396 H   0  0  0  0  0  0  0  0  0  0  0  0
  141.9073   77.6709  222.5169 H   0  0  0  0  0  0  0  0  0  0  0  0
  141.8381   79.8534  224.5730 H   0  0  0  0  0  0  0  0  0  0  0  0
  143.2236   78.8959  223.9048 H   0  0  0  0  0  0  0  0  0  0  0  0
  143.1776   81.2857  223.1604 H   0  0  0  0  0  0  0  0  0  0  0  0
  143.1184   80.0762  221.8205 H   0  0  0  0  0  0  0  0  0  0  0  0
  140.6551   81.4298  223.0089 H   0  0  0  0  0  0  0  0  0  0  0  0
  141.5016   82.0186  221.5557 H   0  0  0  0  0  0  0  0  0  0  0  0
  139.6050   80.4081  220.9398 H   0  0  0  0  0  0  0  0  0  0  0  0
  141.5122   81.8688  219.6662 H   0  0  0  0  0  0  0  0  0  0  0  0
  142.8642   81.5592  217.6596 H   0  0  0  0  0  0  0  0  0  0  0  0
  143.5531   79.2878  216.9189 H   0  0  0  0  0  0  0  0  0  0  0  0
  141.4543   77.6493  220.3138 H   0  0  0  0  0  0  0  0  0  0  0  0
  139.8993   72.6930  221.6765 H   0  0  0  0  0  0  0  0  0  0  0  0
  141.7259   71.1310  221.1204 H   0  0  0  0  0  0  0  0  0  0  0  0
  143.9542   70.7635  220.4591 H   0  0  0  0  0  0  0  0  0  0  0  0
  146.4796   74.1574  219.7380 H   0  0  0  0  0  0  0  0  0  0  0  0
  144.6331   75.6996  220.3003 H   0  0  0  0  0  0  0  0  0  0  0  0
  1  2  2  0
  2  3  1  0
  3  4  1  0
  4  5  1  0
  5  6  2  0
  5  7  1  0
  7  8  1  0
  8  9  1  0
  9 10  1  0
 10 11  1  0
 11 12  1  0
 12 13  1  0
 13 14  2  0
 14 15  1  0
 15 16  2  0
 16 17  1  0
 17 18  1  0
 17 19  2  0
  2 20  1  0
 20 21  2  0
 21 22  1  0
 22 23  2  0
 23 24  1  0
 24 25  2  0
 25 26  1  0
 25 27  1  0
 27 28  2  0
 28 29  1  0
 29 30  2  0
 12  7  1  0
 19 13  1  0
 30 20  1  0
 29 23  1  0
  3 31  1  0
  4 32  1  0
  4 33  1  0
  8 34  1  0
  8 35  1  0
  9 36  1  0
  9 37  1  0
 10 38  1  0
 10 39  1  0
 11 40  1  0
 11 41  1  0
 12 42  1  6
 14 43  1  0
 15 44  1  0
 16 45  1  0
 19 46  1  0
 21 47  1  0
 22 48  1  0
 24 49  1  0
 27 50  1  0
 28 51  1  0
M  END
>  <smiles>  (81) 
O=C(NCC(=O)N1CCCCC1c1cccc(Cl)c1)c1ccc2cc(F)ccc2n1

>  <score_type>  (81) 
oracle

>  <origin>  (81) 
autodockgpu

>  <m_score__min__energy>  (81) 
-9.2799999999999994

>  <m_primary>  (81) 
energy

>  <rmsd>  (81) 
6.4349036697240445

>  <m_score__min__rmsd>  (81) 
6.4349036697240445

>  <meeko>  (81) 
{"free_energy": -7.5, "intermolecular_energy": -8.99, "internal_energy": -2.49, "cluster_size": 4, "cluster_id": 4, "rank_in_cluster": 1}

>  <energy>  (81) 
-8.57

>  <cluster_rmsd>  (81) 
1.32

>  <cluster>  (81) 
1

$$$$

     RDKit          3D

 51 54  0  0  0  0  0  0  0  0999 V2000
  140.4890   70.9680  221.7710 O   0  0  0  0  0  0  0  0  0  0  0  0
  140.2200   71.7110  222.7440 C   0  0  0  0  0  0  0  0  0  0  0  0
  139.8100   73.0680  222.6160 N   0  0  0  0  0  0  0  0  0  0  0  0
  139.6800   73.6740  221.3050 C   0  0  0  0  0  0  0  0  0  0  0  0
  140.2570   75.0420  221.3360 C   0  0  0  0  0  0  0  0  0  0  0  0
  141.4870   75.1350  221.0310 O   0  0  0  0  0  0  0  0  0  0  0  0
  139.4730   76.1840  221.6880 N   0  0  0  0  0  0  0  0  0  0  0  0
  138.4720   76.0230  222.6910 C   0  0  0  0  0  0  0  0  0  0  0  0
  137.2480   76.8760  222.4540 C   0  0  0  0  0  0  0  0  0  0  0  0
  137.6080   78.1990  221.8140 C   0  0  0  0  0  0  0  0  0  0  0  0
  138.4310   77.9830  220.5620 C   0  0  0  0  0  0  0  0  0  0  0  0
  139.7670   77.4190  220.9890 C   0  0  1  0  0  0  0  0  0  0  0  0
  140.4830   78.4150  221.7740 C   0  0  0  0  0  0  0  0  0  0  0  0
  141.1360   77.9750  222.9300 C   0  0  0  0  0  0  0  0  0  0  0  0
  141.8460   78.8240  223.7380 C   0  0  0  0  0  0  0  0  0  0  0  0
  141.9530   80.1650  223.4470 C   0  0  0  0  0  0  0  0  0  0  0  0
  141.3170   80.6270  222.3100 C   0  0  0  0  0  0  0  0  0  0  0  0
  141.4440   82.3300  221.9260 Cl  0  0  0  0  0  0  0  0  0  0  0  0
  140.5950   79.7510  221.4940 C   0  0  0  0  0  0  0  0  0  0  0  0
  140.3330   71.1510  224.1020 C   0  0  0  0  0  0  0  0  0  0  0  0
  140.8650   71.8900  225.1350 C   0  0  0  0  0  0  0  0  0  0  0  0
  140.9950   71.4180  226.4240 C   0  0  0  0  0  0  0  0  0  0  0  0
  140.5700   70.1450  226.6810 C   0  0  0  0  0  0  0  0  0  0  0  0
  140.7020   69.6740  227.9710 C   0  0  0  0  0  0  0  0  0  0  0  0
  140.2690   68.3880  228.2220 C   0  0  0  0  0  0  0  0  0  0  0  0
  140.3800   67.8890  229.4700 F   0  0  0  0  0  0  0  0  0  0  0  0
  139.7360   67.6380  227.2050 C   0  0  0  0  0  0  0  0  0  0  0  0
  139.6160   68.1320  225.9210 C   0  0  0  0  0  0  0  0  0  0  0  0
  140.0400   69.4130  225.6480 C   0  0  0  0  0  0  0  0  0  0  0  0
  139.9240   69.9040  224.3890 N   0  0  0  0  0  0  0  0  0  0  0  0
  139.6040   73.6140  223.5030 H   0  0  0  0  0  0  0  0  0  0  0  0
  140.2184   73.0650  220.5639 H   0  0  0  0  0  0  0  0  0  0  0  0
  138.6166   73.7293  221.0289 H   0  0  0  0  0  0  0  0  0  0  0  0
  138.1637   74.9673  222.7106 H   0  0  0  0  0  0  0  0  0  0  0  0
  138.9129   76.3431  223.6466 H   0  0  0  0  0  0  0  0  0  0  0  0
  136.5581   76.3342  221.7904 H   0  0  0  0  0  0  0  0  0  0  0  0
  136.7770   77.0806  223.4268 H   0  0  0  0  0  0  0  0  0  0  0  0
  136.6846   78.7356  221.5507 H   0  0  0  0  0  0  0  0  0  0  0  0
  138.2014   78.7874  222.5294 H   0  0  0  0  0  0  0  0  0  0  0  0
  137.9200   77.2739  219.8942 H   0  0  0  0  0  0  0  0  0  0  0  0
  138.5657   78.9298  220.0184 H   0  0  0  0  0  0  0  0  0  0  0  0
  140.4413   77.1869  220.1515 H   0  0  0  0  0  0  0  0  0  0  0  0
  141.0776   76.9102  223.1999 H   0  0  0  0  0  0  0  0  0  0  0  0
  142.3400   78.4261  224.6367 H   0  0  0  0  0  0  0  0  0  0  0  0
  142.5243   80.8449  224.0961 H   0  0  0  0  0  0  0  0  0  0  0  0
  140.0997   80.1486  220.5959 H   0  0  0  0  0  0  0  0  0  0  0  0
  141.2052   72.9137  224.9199 H   0  0  0  0  0  0  0  0  0  0  0  0
  141.4261   72.0449  227.2184 H   0  0  0  0  0  0  0  0  0  0  0  0
  141.1347   70.2980  228.7669 H   0  0  0  0  0  0  0  0  0  0  0  0
  139.3945   66.6143  227.4180 H   0  0  0  0  0  0  0  0  0  0  0  0
  139.1857   67.5079  225.1239 H   0  0  0  0  0  0  0  0  0  0  0  0
  1  2  2  0
  2  3  1  0
  3  4  1  0
  4  5  1  0
  5  6  2  0
  5  7  1  0
  7  8  1  0
  8  9  1  0
  9 10  1  0
 10 11  1  0
 11 12  1  0
 12 13  1  0
 13 14  2  0
 14 15  1  0
 15 16  2  0
 16 17  1  0
 17 18  1  0
 17 19  2  0
  2 20  1  0
 20 21  2  0
 21 22  1  0
 22 23  2  0
 23 24  1  0
 24 25  2  0
 25 26  1  0
 25 27  1  0
 27 28  2  0
 28 29  1  0
 29 30  2  0
 12  7  1  0
 19 13  1  0
 30 20  1  0
 29 23  1  0
  3 31  1  0
  4 32  1  0
  4 33  1  0
  8 34  1  0
  8 35  1  0
  9 36  1  0
  9 37  1  0
 10 38  1  0
 10 39  1  0
 11 40  1  0
 11 41  1  0
 12 42  1  6
 14 43  1  0
 15 44  1  0
 16 45  1  0
 19 46  1  0
 21 47  1  0
 22 48  1  0
 24 49  1  0
 27 50  1  0
 28 51  1  0
M  END
>  <smiles>  (82) 
O=C(NCC(=O)N1CCCCC1c1cccc(Cl)c1)c1ccc2cc(F)ccc2n1

>  <score_type>  (82) 
oracle

>  <origin>  (82) 
autodockgpu

>  <m_score__min__energy>  (82) 
-9.2799999999999994

>  <m_primary>  (82) 
energy

>  <rmsd>  (82) 
3.4278856649166998

>  <m_score__min__rmsd>  (82) 
3.4278856649166998

>  <meeko>  (82) 
{"free_energy": -8.76, "intermolecular_energy": -10.26, "internal_energy": -1.36, "cluster_size": 36, "cluster_id": 1, "rank_in_cluster": 25}

>  <energy>  (82) 
-8.54

>  <cluster_rmsd>  (82) 
0.88

>  <cluster>  (82) 
1

$$$$

     RDKit          3D

 51 54  0  0  0  0  0  0  0  0999 V2000
  140.8040   73.0730  222.4010 O   0  0  0  0  0  0  0  0  0  0  0  0
  139.7590   72.4440  222.6880 C   0  0  0  0  0  0  0  0  0  0  0  0
  138.5240   72.6000  222.0000 N   0  0  0  0  0  0  0  0  0  0  0  0
  138.4140   73.5300  220.8920 C   0  0  0  0  0  0  0  0  0  0  0  0
  138.4360   74.9200  221.4120 C   0  0  0  0  0  0  0  0  0  0  0  0
  137.6180   75.1770  222.3490 O   0  0  0  0  0  0  0  0  0  0  0  0
  139.3250   75.9080  220.8860 N   0  0  0  0  0  0  0  0  0  0  0  0
  139.0040   76.4930  219.6260 C   0  0  0  0  0  0  0  0  0  0  0  0
  140.2220   76.8290  218.7970 C   0  0  0  0  0  0  0  0  0  0  0  0
  141.3840   77.2600  219.6660 C   0  0  0  0  0  0  0  0  0  0  0  0
  141.6630   76.2300  220.7380 C   0  0  0  0  0  0  0  0  0  0  0  0
  140.4880   76.2340  221.6890 C   0  0  1  0  0  0  0  0  0  0  0  0
  140.4230   77.5170  222.3720 C   0  0  0  0  0  0  0  0  0  0  0  0
  139.1570   77.9960  222.7250 C   0  0  0  0  0  0  0  0  0  0  0  0
  138.9800   79.1870  223.3790 C   0  0  0  0  0  0  0  0  0  0  0  0
  140.0520   79.9790  223.7230 C   0  0  0  0  0  0  0  0  0  0  0  0
  141.3150   79.5300  223.3860 C   0  0  0  0  0  0  0  0  0  0  0  0
  142.6890   80.5270  223.8170 Cl  0  0  0  0  0  0  0  0  0  0  0  0
  141.4820   78.3130  222.7190 C   0  0  0  0  0  0  0  0  0  0  0  0
  139.8090   71.4840  223.8050 C   0  0  0  0  0  0  0  0  0  0  0  0
  139.2470   70.2320  223.6940 C   0  0  0  0  0  0  0  0  0  0  0  0
  139.2630   69.2940  224.7040 C   0  0  0  0  0  0  0  0  0  0  0  0
  139.8730   69.6360  225.8780 C   0  0  0  0  0  0  0  0  0  0  0  0
  139.8890   68.6970  226.8890 C   0  0  0  0  0  0  0  0  0  0  0  0
  140.5070   69.0490  228.0710 C   0  0  0  0  0  0  0  0  0  0  0  0
  140.5440   68.1590  229.0840 F   0  0  0  0  0  0  0  0  0  0  0  0
  141.0720   70.2920  228.2000 C   0  0  0  0  0  0  0  0  0  0  0  0
  141.0440   71.2150  227.1730 C   0  0  0  0  0  0  0  0  0  0  0  0
  140.4320   70.8840  225.9840 C   0  0  0  0  0  0  0  0  0  0  0  0
  140.4010   71.7870  224.9720 N   0  0  0  0  0  0  0  0  0  0  0  0
  137.6950   72.0190  222.3210 H   0  0  0  0  0  0  0  0  0  0  0  0
  139.2590   73.3822  220.2034 H   0  0  0  0  0  0  0  0  0  0  0  0
  137.4701   73.3529  220.3556 H   0  0  0  0  0  0  0  0  0  0  0  0
  138.3809   75.7845  219.0604 H   0  0  0  0  0  0  0  0  0  0  0  0
  138.4768   77.4368  219.8291 H   0  0  0  0  0  0  0  0  0  0  0  0
  140.5177   75.9404  218.2200 H   0  0  0  0  0  0  0  0  0  0  0  0
  139.9641   77.6630  218.1277 H   0  0  0  0  0  0  0  0  0  0  0  0
  142.2794   77.3789  219.0382 H   0  0  0  0  0  0  0  0  0  0  0  0
  141.1275   78.2135  220.1509 H   0  0  0  0  0  0  0  0  0  0  0  0
  141.7743   75.2348  220.2828 H   0  0  0  0  0  0  0  0  0  0  0  0
  142.5944   76.4693  221.2721 H   0  0  0  0  0  0  0  0  0  0  0  0
  140.5665   75.4923  222.4975 H   0  0  0  0  0  0  0  0  0  0  0  0
  138.2720   77.3951  222.4684 H   0  0  0  0  0  0  0  0  0  0  0  0
  137.9619   79.5165  223.6339 H   0  0  0  0  0  0  0  0  0  0  0  0
  139.9086   80.9352  224.2475 H   0  0  0  0  0  0  0  0  0  0  0  0
  142.4998   77.9830  222.4638 H   0  0  0  0  0  0  0  0  0  0  0  0
  138.7575   69.9652  222.7457 H   0  0  0  0  0  0  0  0  0  0  0  0
  138.8009   68.3048  224.5696 H   0  0  0  0  0  0  0  0  0  0  0  0
  139.4274   67.7072  226.7576 H   0  0  0  0  0  0  0  0  0  0  0  0
  141.5611   70.5613  229.1478 H   0  0  0  0  0  0  0  0  0  0  0  0
  141.5059   72.2048  227.3032 H   0  0  0  0  0  0  0  0  0  0  0  0
  1  2  2  0
  2  3  1  0
  3  4  1  0
  4  5  1  0
  5  6  2  0
  5  7  1  0
  7  8  1  0
  8  9  1  0
  9 10  1  0
 10 11  1  0
 11 12  1  0
 12 13  1  0
 13 14  2  0
 14 15  1  0
 15 16  2  0
 16 17  1  0
 17 18  1  0
 17 19  2  0
  2 20  1  0
 20 21  2  0
 21 22  1  0
 22 23  2  0
 23 24  1  0
 24 25  2  0
 25 26  1  0
 25 27  1  0
 27 28  2  0
 28 29  1  0
 29 30  2  0
 12  7  1  0
 19 13  1  0
 30 20  1  0
 29 23  1  0
  3 31  1  0
  4 32  1  0
  4 33  1  0
  8 34  1  0
  8 35  1  0
  9 36  1  0
  9 37  1  0
 10 38  1  0
 10 39  1  0
 11 40  1  0
 11 41  1  0
 12 42  1  1
 14 43  1  0
 15 44  1  0
 16 45  1  0
 19 46  1  0
 21 47  1  0
 22 48  1  0
 24 49  1  0
 27 50  1  0
 28 51  1  0
M  END
>  <smiles>  (83) 
O=C(NCC(=O)N1CCCCC1c1cccc(Cl)c1)c1ccc2cc(F)ccc2n1

>  <score_type>  (83) 
oracle

>  <origin>  (83) 
autodockgpu

>  <m_score__min__energy>  (83) 
-9.2799999999999994

>  <m_primary>  (83) 
energy

>  <rmsd>  (83) 
1.757639930450171

>  <m_score__min__rmsd>  (83) 
1.757639930450171

>  <meeko>  (83) 
{"free_energy": -8.84, "intermolecular_energy": -10.33, "internal_energy": -1.62, "cluster_size": 36, "cluster_id": 1, "rank_in_cluster": 20}

>  <energy>  (83) 
-8.51

>  <cluster_rmsd>  (83) 
0.91

>  <cluster>  (83) 
1

$$$$

     RDKit          3D

 51 54  0  0  0  0  0  0  0  0999 V2000
  141.1120   71.9610  221.3380 O   0  0  0  0  0  0  0  0  0  0  0  0
  140.3740   72.3740  222.2630 C   0  0  0  0  0  0  0  0  0  0  0  0
  139.6710   73.6110  222.2260 N   0  0  0  0  0  0  0  0  0  0  0  0
  139.7810   74.4820  221.0720 C   0  0  0  0  0  0  0  0  0  0  0  0
  140.9510   75.3800  221.2420 C   0  0  0  0  0  0  0  0  0  0  0  0
  141.0290   75.9900  222.3530 O   0  0  0  0  0  0  0  0  0  0  0  0
  141.9300   75.5470  220.2130 N   0  0  0  0  0  0  0  0  0  0  0  0
  142.5270   76.8330  220.0630 C   0  0  0  0  0  0  0  0  0  0  0  0
  142.8510   77.1750  218.6270 C   0  0  0  0  0  0  0  0  0  0  0  0
  143.2600   75.9480  217.8420 C   0  0  0  0  0  0  0  0  0  0  0  0
  142.2180   74.8580  217.9700 C   0  0  0  0  0  0  0  0  0  0  0  0
  142.2320   74.3830  219.4040 C   0  0  1  0  0  0  0  0  0  0  0  0
  143.5120   73.7510  219.6910 C   0  0  0  0  0  0  0  0  0  0  0  0
  144.3910   74.4320  220.5410 C   0  0  0  0  0  0  0  0  0  0  0  0
  145.6170   73.9270  220.8850 C   0  0  0  0  0  0  0  0  0  0  0  0
  146.0480   72.7100  220.4060 C   0  0  0  0  0  0  0  0  0  0  0  0
  145.2000   72.0150  219.5640 C   0  0  0  0  0  0  0  0  0  0  0  0
  145.7340   70.4670  218.9470 Cl  0  0  0  0  0  0  0  0  0  0  0  0
  143.9520   72.5420  219.2200 C   0  0  0  0  0  0  0  0  0  0  0  0
  140.2230   71.5320  223.4630 C   0  0  0  0  0  0  0  0  0  0  0  0
  139.5940   70.3090  223.3990 C   0  0  0  0  0  0  0  0  0  0  0  0
  139.4250   69.4790  224.4870 C   0  0  0  0  0  0  0  0  0  0  0  0
  139.9110   69.9030  225.6920 C   0  0  0  0  0  0  0  0  0  0  0  0
  139.7400   69.0730  226.7800 C   0  0  0  0  0  0  0  0  0  0  0  0
  140.2340   69.5080  227.9920 C   0  0  0  0  0  0  0  0  0  0  0  0
  140.0880   68.7260  229.0810 F   0  0  0  0  0  0  0  0  0  0  0  0
  140.8630   70.7240  228.0740 C   0  0  0  0  0  0  0  0  0  0  0  0
  141.0220   71.5380  226.9700 C   0  0  0  0  0  0  0  0  0  0  0  0
  140.5360   71.1230  225.7500 C   0  0  0  0  0  0  0  0  0  0  0  0
  140.6900   71.9190  224.6620 N   0  0  0  0  0  0  0  0  0  0  0  0
  139.0710   73.8710  223.0620 H   0  0  0  0  0  0  0  0  0  0  0  0
  139.9135   73.8743  220.1648 H   0  0  0  0  0  0  0  0  0  0  0  0
  138.8657   75.0848  220.9779 H   0  0  0  0  0  0  0  0  0  0  0  0
  141.8307   77.5895  220.4540 H   0  0  0  0  0  0  0  0  0  0  0  0
  143.4766   76.8194  220.6181 H   0  0  0  0  0  0  0  0  0  0  0  0
  141.9619   77.6201  218.1565 H   0  0  0  0  0  0  0  0  0  0  0  0
  143.6929   77.8830  218.6230 H   0  0  0  0  0  0  0  0  0  0  0  0
  143.3710   76.2184  216.7815 H   0  0  0  0  0  0  0  0  0  0  0  0
  144.2136   75.5739  218.2428 H   0  0  0  0  0  0  0  0  0  0  0  0
  141.2246   75.2563  217.7159 H   0  0  0  0  0  0  0  0  0  0  0  0
  142.4401   74.0270  217.2843 H   0  0  0  0  0  0  0  0  0  0  0  0
  141.4825   73.6085  219.6238 H   0  0  0  0  0  0  0  0  0  0  0  0
  144.0864   75.4077  220.9474 H   0  0  0  0  0  0  0  0  0  0  0  0
  146.2695   74.5045  221.5564 H   0  0  0  0  0  0  0  0  0  0  0  0
  147.0324   72.3051  220.6836 H   0  0  0  0  0  0  0  0  0  0  0  0
  143.2999   71.9656  218.5472 H   0  0  0  0  0  0  0  0  0  0  0  0
  139.2046   69.9755  222.4258 H   0  0  0  0  0  0  0  0  0  0  0  0
  138.9164   68.5086  224.3885 H   0  0  0  0  0  0  0  0  0  0  0  0
  139.2301   68.1030  226.6850 H   0  0  0  0  0  0  0  0  0  0  0  0
  141.2517   71.0603  229.0465 H   0  0  0  0  0  0  0  0  0  0  0  0
  141.5317   72.5082  227.0640 H   0  0  0  0  0  0  0  0  0  0  0  0
  1  2  2  0
  2  3  1  0
  3  4  1  0
  4  5  1  0
  5  6  2  0
  5  7  1  0
  7  8  1  0
  8  9  1  0
  9 10  1  0
 10 11  1  0
 11 12  1  0
 12 13  1  0
 13 14  2  0
 14 15  1  0
 15 16  2  0
 16 17  1  0
 17 18  1  0
 17 19  2  0
  2 20  1  0
 20 21  2  0
 21 22  1  0
 22 23  2  0
 23 24  1  0
 24 25  2  0
 25 26  1  0
 25 27  1  0
 27 28  2  0
 28 29  1  0
 29 30  2  0
 12  7  1  0
 19 13  1  0
 30 20  1  0
 29 23  1  0
  3 31  1  0
  4 32  1  0
  4 33  1  0
  8 34  1  0
  8 35  1  0
  9 36  1  0
  9 37  1  0
 10 38  1  0
 10 39  1  0
 11 40  1  0
 11 41  1  0
 12 42  1  6
 14 43  1  0
 15 44  1  0
 16 45  1  0
 19 46  1  0
 21 47  1  0
 22 48  1  0
 24 49  1  0
 27 50  1  0
 28 51  1  0
M  END
>  <smiles>  (84) 
O=C(NCC(=O)N1CCCCC1c1cccc(Cl)c1)c1ccc2cc(F)ccc2n1

>  <score_type>  (84) 
oracle

>  <origin>  (84) 
autodockgpu

>  <m_score__min__energy>  (84) 
-9.2799999999999994

>  <m_primary>  (84) 
energy

>  <rmsd>  (84) 
2.3175557610940705

>  <m_score__min__rmsd>  (84) 
2.3175557610940705

>  <meeko>  (84) 
{"free_energy": -9.15, "intermolecular_energy": -10.64, "internal_energy": -1.76, "cluster_size": 8, "cluster_id": 2, "rank_in_cluster": 1}

>  <energy>  (84) 
-8.45

>  <cluster_rmsd>  (84) 
1.71

>  <cluster>  (84) 
1

$$$$

     RDKit          3D

 51 54  0  0  0  0  0  0  0  0999 V2000
  141.2590   71.9660  221.4430 O   0  0  0  0  0  0  0  0  0  0  0  0
  140.4240   72.3320  222.3040 C   0  0  0  0  0  0  0  0  0  0  0  0
  139.6380   73.5130  222.1960 N   0  0  0  0  0  0  0  0  0  0  0  0
  139.7720   74.3800  221.0410 C   0  0  0  0  0  0  0  0  0  0  0  0
  140.9660   75.2450  221.2100 C   0  0  0  0  0  0  0  0  0  0  0  0
  141.0690   75.8400  222.3270 O   0  0  0  0  0  0  0  0  0  0  0  0
  141.9400   75.3970  220.1740 N   0  0  0  0  0  0  0  0  0  0  0  0
  142.6080   76.6530  220.0660 C   0  0  0  0  0  0  0  0  0  0  0  0
  142.9330   77.0330  218.6400 C   0  0  0  0  0  0  0  0  0  0  0  0
  143.2610   75.8170  217.8010 C   0  0  0  0  0  0  0  0  0  0  0  0
  142.1610   74.7830  217.9020 C   0  0  0  0  0  0  0  0  0  0  0  0
  142.1660   74.2510  219.3170 C   0  0  1  0  0  0  0  0  0  0  0  0
  143.4120   73.5370  219.5600 C   0  0  0  0  0  0  0  0  0  0  0  0
  143.7380   72.4960  218.6840 C   0  0  0  0  0  0  0  0  0  0  0  0
  144.8880   71.7630  218.8140 C   0  0  0  0  0  0  0  0  0  0  0  0
  145.7890   72.0200  219.8230 C   0  0  0  0  0  0  0  0  0  0  0  0
  145.4910   73.0440  220.7030 C   0  0  0  0  0  0  0  0  0  0  0  0
  146.6270   73.3830  221.9910 Cl  0  0  0  0  0  0  0  0  0  0  0  0
  144.3140   73.7840  220.5600 C   0  0  0  0  0  0  0  0  0  0  0  0
  140.2440   71.4910  223.5000 C   0  0  0  0  0  0  0  0  0  0  0  0
  139.5790   70.2880  223.4310 C   0  0  0  0  0  0  0  0  0  0  0  0
  139.3800   69.4600  224.5160 C   0  0  0  0  0  0  0  0  0  0  0  0
  139.8750   69.8670  225.7240 C   0  0  0  0  0  0  0  0  0  0  0  0
  139.6760   69.0380  226.8090 C   0  0  0  0  0  0  0  0  0  0  0  0
  140.1790   69.4550  228.0240 C   0  0  0  0  0  0  0  0  0  0  0  0
  140.0060   68.6750  229.1100 F   0  0  0  0  0  0  0  0  0  0  0  0
  140.8450   70.6510  228.1110 C   0  0  0  0  0  0  0  0  0  0  0  0
  141.0310   71.4630  227.0100 C   0  0  0  0  0  0  0  0  0  0  0  0
  140.5380   71.0660  225.7870 C   0  0  0  0  0  0  0  0  0  0  0  0
  140.7190   71.8600  224.7020 N   0  0  0  0  0  0  0  0  0  0  0  0
  138.9580   73.7340  222.9810 H   0  0  0  0  0  0  0  0  0  0  0  0
  139.8875   73.7681  220.1342 H   0  0  0  0  0  0  0  0  0  0  0  0
  138.8737   75.0079  220.9466 H   0  0  0  0  0  0  0  0  0  0  0  0
  141.9609   77.4314  220.4966 H   0  0  0  0  0  0  0  0  0  0  0  0
  143.5620   76.5637  220.6063 H   0  0  0  0  0  0  0  0  0  0  0  0
  142.0651   77.5464  218.2006 H   0  0  0  0  0  0  0  0  0  0  0  0
  143.8142   77.6913  218.6514 H   0  0  0  0  0  0  0  0  0  0  0  0
  143.3731   76.1231  216.7504 H   0  0  0  0  0  0  0  0  0  0  0  0
  144.1969   75.3741  218.1722 H   0  0  0  0  0  0  0  0  0  0  0  0
  141.1886   75.2460  217.6783 H   0  0  0  0  0  0  0  0  0  0  0  0
  142.3273   73.9687  217.1814 H   0  0  0  0  0  0  0  0  0  0  0  0
  141.3771   73.5113  219.5183 H   0  0  0  0  0  0  0  0  0  0  0  0
  143.0468   72.2578  217.8622 H   0  0  0  0  0  0  0  0  0  0  0  0
  145.0956   70.9536  218.0986 H   0  0  0  0  0  0  0  0  0  0  0  0
  146.7128   71.4317  219.9253 H   0  0  0  0  0  0  0  0  0  0  0  0
  144.1051   74.5928  221.2756 H   0  0  0  0  0  0  0  0  0  0  0  0
  139.1838   69.9688  222.4553 H   0  0  0  0  0  0  0  0  0  0  0  0
  138.8421   68.5060  224.4132 H   0  0  0  0  0  0  0  0  0  0  0  0
  139.1382   68.0836  226.7092 H   0  0  0  0  0  0  0  0  0  0  0  0
  141.2420   70.9722  229.0853 H   0  0  0  0  0  0  0  0  0  0  0  0
  141.5679   72.4180  227.1088 H   0  0  0  0  0  0  0  0  0  0  0  0
  1  2  2  0
  2  3  1  0
  3  4  1  0
  4  5  1  0
  5  6  2  0
  5  7  1  0
  7  8  1  0
  8  9  1  0
  9 10  1  0
 10 11  1  0
 11 12  1  0
 12 13  1  0
 13 14  2  0
 14 15  1  0
 15 16  2  0
 16 17  1  0
 17 18  1  0
 17 19  2  0
  2 20  1  0
 20 21  2  0
 21 22  1  0
 22 23  2  0
 23 24  1  0
 24 25  2  0
 25 26  1  0
 25 27  1  0
 27 28  2  0
 28 29  1  0
 29 30  2  0
 12  7  1  0
 19 13  1  0
 30 20  1  0
 29 23  1  0
  3 31  1  0
  4 32  1  0
  4 33  1  0
  8 34  1  0
  8 35  1  0
  9 36  1  0
  9 37  1  0
 10 38  1  0
 10 39  1  0
 11 40  1  0
 11 41  1  0
 12 42  1  6
 14 43  1  0
 15 44  1  0
 16 45  1  0
 19 46  1  0
 21 47  1  0
 22 48  1  0
 24 49  1  0
 27 50  1  0
 28 51  1  0
M  END
>  <smiles>  (85) 
O=C(NCC(=O)N1CCCCC1c1cccc(Cl)c1)c1ccc2cc(F)ccc2n1

>  <score_type>  (85) 
oracle

>  <origin>  (85) 
autodockgpu

>  <m_score__min__energy>  (85) 
-9.2799999999999994

>  <m_primary>  (85) 
energy

>  <rmsd>  (85) 
2.331690196418459

>  <m_score__min__rmsd>  (85) 
2.331690196418459

>  <meeko>  (85) 
{"free_energy": -9.03, "intermolecular_energy": -10.52, "internal_energy": -1.87, "cluster_size": 8, "cluster_id": 2, "rank_in_cluster": 4}

>  <energy>  (85) 
-7.94

>  <cluster_rmsd>  (85) 
1.91

>  <cluster>  (85) 
1

$$$$

     RDKit          3D

 51 54  0  0  0  0  0  0  0  0999 V2000
  139.8100   71.3320  221.1710 O   0  0  0  0  0  0  0  0  0  0  0  0
  139.7410   71.9020  222.2850 C   0  0  0  0  0  0  0  0  0  0  0  0
  139.5860   73.3070  222.4500 N   0  0  0  0  0  0  0  0  0  0  0  0
  139.4960   74.1750  221.2920 C   0  0  0  0  0  0  0  0  0  0  0  0
  139.2690   75.5720  221.7400 C   0  0  0  0  0  0  0  0  0  0  0  0
  138.5200   75.7160  222.7560 O   0  0  0  0  0  0  0  0  0  0  0  0
  139.8590   76.6860  221.0660 N   0  0  0  0  0  0  0  0  0  0  0  0
  139.1770   77.2180  219.9320 C   0  0  0  0  0  0  0  0  0  0  0  0
  140.1120   77.7380  218.8650 C   0  0  0  0  0  0  0  0  0  0  0  0
  141.3630   78.3400  219.4680 C   0  0  0  0  0  0  0  0  0  0  0  0
  142.0280   77.3620  220.4110 C   0  0  0  0  0  0  0  0  0  0  0  0
  141.1120   77.1840  221.6000 C   0  0  1  0  0  0  0  0  0  0  0  0
  141.0140   78.4410  222.3280 C   0  0  0  0  0  0  0  0  0  0  0  0
  142.1920   79.1760  222.5030 C   0  0  0  0  0  0  0  0  0  0  0  0
  142.2150   80.3750  223.1650 C   0  0  0  0  0  0  0  0  0  0  0  0
  141.0670   80.9210  223.6940 C   0  0  0  0  0  0  0  0  0  0  0  0
  139.8890   80.2150  223.5350 C   0  0  0  0  0  0  0  0  0  0  0  0
  138.4210   80.8970  224.2030 Cl  0  0  0  0  0  0  0  0  0  0  0  0
  139.8790   78.9920  222.8590 C   0  0  0  0  0  0  0  0  0  0  0  0
  139.8250   71.0710  223.4990 C   0  0  0  0  0  0  0  0  0  0  0  0
  139.4600   69.7440  223.4810 C   0  0  0  0  0  0  0  0  0  0  0  0
  139.5180   68.9200  224.5850 C   0  0  0  0  0  0  0  0  0  0  0  0
  139.9650   69.4600  225.7580 C   0  0  0  0  0  0  0  0  0  0  0  0
  140.0230   68.6340  226.8620 C   0  0  0  0  0  0  0  0  0  0  0  0
  140.4760   69.1870  228.0420 C   0  0  0  0  0  0  0  0  0  0  0  0
  140.5480   68.4140  229.1450 F   0  0  0  0  0  0  0  0  0  0  0  0
  140.8440   70.5070  228.0790 C   0  0  0  0  0  0  0  0  0  0  0  0
  140.7770   71.3130  226.9600 C   0  0  0  0  0  0  0  0  0  0  0  0
  140.3280   70.7830  225.7710 C   0  0  0  0  0  0  0  0  0  0  0  0
  140.2610   71.5710  224.6690 N   0  0  0  0  0  0  0  0  0  0  0  0
  139.5370   73.6920  223.4380 H   0  0  0  0  0  0  0  0  0  0  0  0
  140.4334   74.1210  220.7190 H   0  0  0  0  0  0  0  0  0  0  0  0
  138.6591   73.8526  220.6550 H   0  0  0  0  0  0  0  0  0  0  0  0
  138.5542   76.4239  219.4943 H   0  0  0  0  0  0  0  0  0  0  0  0
  138.5751   78.0694  220.2824 H   0  0  0  0  0  0  0  0  0  0  0  0
  140.3983   76.9062  218.2046 H   0  0  0  0  0  0  0  0  0  0  0  0
  139.5884   78.5240  218.3010 H   0  0  0  0  0  0  0  0  0  0  0  0
  142.0648   78.5970  218.6609 H   0  0  0  0  0  0  0  0  0  0  0  0
  141.0838   79.2412  220.0335 H   0  0  0  0  0  0  0  0  0  0  0  0
  142.1795   76.3968  219.9057 H   0  0  0  0  0  0  0  0  0  0  0  0
  143.0103   77.7393  220.7314 H   0  0  0  0  0  0  0  0  0  0  0  0
  141.4808   76.4609  222.3424 H   0  0  0  0  0  0  0  0  0  0  0  0
  143.1322   78.7770  222.0947 H   0  0  0  0  0  0  0  0  0  0  0  0
  143.1687   80.9118  223.2761 H   0  0  0  0  0  0  0  0  0  0  0  0
  141.0864   81.8846  224.2242 H   0  0  0  0  0  0  0  0  0  0  0  0
  138.9261   78.4534  222.7498 H   0  0  0  0  0  0  0  0  0  0  0  0
  139.1019   69.3169  222.5327 H   0  0  0  0  0  0  0  0  0  0  0  0
  139.2149   67.8644  224.5236 H   0  0  0  0  0  0  0  0  0  0  0  0
  139.7205   67.5780  226.8036 H   0  0  0  0  0  0  0  0  0  0  0  0
  141.2026   70.9359  229.0263 H   0  0  0  0  0  0  0  0  0  0  0  0
  141.0795   72.3690  227.0178 H   0  0  0  0  0  0  0  0  0  0  0  0
  1  2  2  0
  2  3  1  0
  3  4  1  0
  4  5  1  0
  5  6  2  0
  5  7  1  0
  7  8  1  0
  8  9  1  0
  9 10  1  0
 10 11  1  0
 11 12  1  0
 12 13  1  0
 13 14  2  0
 14 15  1  0
 15 16  2  0
 16 17  1  0
 17 18  1  0
 17 19  2  0
  2 20  1  0
 20 21  2  0
 21 22  1  0
 22 23  2  0
 23 24  1  0
 24 25  2  0
 25 26  1  0
 25 27  1  0
 27 28  2  0
 28 29  1  0
 29 30  2  0
 12  7  1  0
 19 13  1  0
 30 20  1  0
 29 23  1  0
  3 31  1  0
  4 32  1  0
  4 33  1  0
  8 34  1  0
  8 35  1  0
  9 36  1  0
  9 37  1  0
 10 38  1  0
 10 39  1  0
 11 40  1  0
 11 41  1  0
 12 42  1  1
 14 43  1  0
 15 44  1  0
 16 45  1  0
 19 46  1  0
 21 47  1  0
 22 48  1  0
 24 49  1  0
 27 50  1  0
 28 51  1  0
M  END
>  <smiles>  (86) 
O=C(NCC(=O)N1CCCCC1c1cccc(Cl)c1)c1ccc2cc(F)ccc2n1

>  <score_type>  (86) 
oracle

>  <origin>  (86) 
autodockgpu

>  <m_score__min__energy>  (86) 
-9.2799999999999994

>  <m_primary>  (86) 
energy

>  <rmsd>  (86) 
1.7395331903353677

>  <m_score__min__rmsd>  (86) 
1.7395331903353677

>  <meeko>  (86) 
{"free_energy": -8.94, "intermolecular_energy": -10.43, "internal_energy": -1.95, "cluster_size": 36, "cluster_id": 1, "rank_in_cluster": 16}

>  <energy>  (86) 
-7.91

>  <cluster_rmsd>  (86) 
1.31

>  <cluster>  (86) 
1

$$$$

     RDKit          3D

 51 54  0  0  0  0  0  0  0  0999 V2000
  140.7530   73.0920  222.3550 O   0  0  0  0  0  0  0  0  0  0  0  0
  139.7140   72.5090  222.7430 C   0  0  0  0  0  0  0  0  0  0  0  0
  138.4230   72.7340  222.1890 N   0  0  0  0  0  0  0  0  0  0  0  0
  138.2440   73.6830  221.1070 C   0  0  0  0  0  0  0  0  0  0  0  0
  138.3770   75.0640  221.6370 C   0  0  0  0  0  0  0  0  0  0  0  0
  137.6470   75.3500  222.6360 O   0  0  0  0  0  0  0  0  0  0  0  0
  139.2730   76.0120  221.0530 N   0  0  0  0  0  0  0  0  0  0  0  0
  138.9240   76.5710  219.7890 C   0  0  0  0  0  0  0  0  0  0  0  0
  140.1210   76.8510  218.9100 C   0  0  0  0  0  0  0  0  0  0  0  0
  141.3230   77.2730  219.7260 C   0  0  0  0  0  0  0  0  0  0  0  0
  141.6120   76.2650  220.8160 C   0  0  0  0  0  0  0  0  0  0  0  0
  140.4720   76.3270  221.8060 C   0  0  1  0  0  0  0  0  0  0  0  0
  140.4660   77.6300  222.4550 C   0  0  0  0  0  0  0  0  0  0  0  0
  139.2230   78.1720  222.7980 C   0  0  0  0  0  0  0  0  0  0  0  0
  139.1000   79.3870  223.4200 C   0  0  0  0  0  0  0  0  0  0  0  0
  140.2070   80.1410  223.7400 C   0  0  0  0  0  0  0  0  0  0  0  0
  141.4480   79.6280  223.4130 C   0  0  0  0  0  0  0  0  0  0  0  0
  142.8650   80.5750  223.8140 Cl  0  0  0  0  0  0  0  0  0  0  0  0
  141.5600   78.3880  222.7780 C   0  0  0  0  0  0  0  0  0  0  0  0
  139.8320   71.5330  223.8400 C   0  0  0  0  0  0  0  0  0  0  0  0
  139.4160   70.2300  223.6820 C   0  0  0  0  0  0  0  0  0  0  0  0
  139.5030   69.2730  224.6710 C   0  0  0  0  0  0  0  0  0  0  0  0
  140.0320   69.6500  225.8740 C   0  0  0  0  0  0  0  0  0  0  0  0
  140.1170   68.6930  226.8640 C   0  0  0  0  0  0  0  0  0  0  0  0
  140.6540   69.0810  228.0750 C   0  0  0  0  0  0  0  0  0  0  0  0
  140.7550   68.1750  229.0690 F   0  0  0  0  0  0  0  0  0  0  0  0
  141.0730   70.3750  228.2500 C   0  0  0  0  0  0  0  0  0  0  0  0
  140.9760   71.3150  227.2430 C   0  0  0  0  0  0  0  0  0  0  0  0
  140.4450   70.9490  226.0270 C   0  0  0  0  0  0  0  0  0  0  0  0
  140.3480   71.8690  225.0350 N   0  0  0  0  0  0  0  0  0  0  0  0
  137.6050   72.1880  222.5890 H   0  0  0  0  0  0  0  0  0  0  0  0
  139.0096   73.5100  220.3364 H   0  0  0  0  0  0  0  0  0  0  0  0
  137.2452   73.5530  220.6649 H   0  0  0  0  0  0  0  0  0  0  0  0
  138.2632   75.8647  219.2650 H   0  0  0  0  0  0  0  0  0  0  0  0
  138.4292   77.5340  219.9833 H   0  0  0  0  0  0  0  0  0  0  0  0
  140.3728   75.9393  218.3483 H   0  0  0  0  0  0  0  0  0  0  0  0
  139.8621   77.6735  218.2270 H   0  0  0  0  0  0  0  0  0  0  0  0
  142.1987   77.3505  219.0648 H   0  0  0  0  0  0  0  0  0  0  0  0
  141.1088   78.2458  220.1927 H   0  0  0  0  0  0  0  0  0  0  0  0
  141.6807   75.2552  220.3851 H   0  0  0  0  0  0  0  0  0  0  0  0
  142.5676   76.4928  221.3108 H   0  0  0  0  0  0  0  0  0  0  0  0
  140.5585   75.6052  222.6315 H   0  0  0  0  0  0  0  0  0  0  0  0
  138.3121   77.6030  222.5601 H   0  0  0  0  0  0  0  0  0  0  0  0
  138.0981   79.7671  223.6683 H   0  0  0  0  0  0  0  0  0  0  0  0
  140.1071   81.1167  224.2381 H   0  0  0  0  0  0  0  0  0  0  0  0
  142.5617   78.0076  222.5290 H   0  0  0  0  0  0  0  0  0  0  0  0
  138.9900   69.9356  222.7115 H   0  0  0  0  0  0  0  0  0  0  0  0
  139.1589   68.2426  224.4981 H   0  0  0  0  0  0  0  0  0  0  0  0
  139.7709   67.6626  226.6952 H   0  0  0  0  0  0  0  0  0  0  0  0
  141.4983   70.6726  229.2198 H   0  0  0  0  0  0  0  0  0  0  0  0
  141.3198   72.3463  227.4110 H   0  0  0  0  0  0  0  0  0  0  0  0
  1  2  2  0
  2  3  1  0
  3  4  1  0
  4  5  1  0
  5  6  2  0
  5  7  1  0
  7  8  1  0
  8  9  1  0
  9 10  1  0
 10 11  1  0
 11 12  1  0
 12 13  1  0
 13 14  2  0
 14 15  1  0
 15 16  2  0
 16 17  1  0
 17 18  1  0
 17 19  2  0
  2 20  1  0
 20 21  2  0
 21 22  1  0
 22 23  2  0
 23 24  1  0
 24 25  2  0
 25 26  1  0
 25 27  1  0
 27 28  2  0
 28 29  1  0
 29 30  2  0
 12  7  1  0
 19 13  1  0
 30 20  1  0
 29 23  1  0
  3 31  1  0
  4 32  1  0
  4 33  1  0
  8 34  1  0
  8 35  1  0
  9 36  1  0
  9 37  1  0
 10 38  1  0
 10 39  1  0
 11 40  1  0
 11 41  1  0
 12 42  1  1
 14 43  1  0
 15 44  1  0
 16 45  1  0
 19 46  1  0
 21 47  1  0
 22 48  1  0
 24 49  1  0
 27 50  1  0
 28 51  1  0
M  END
>  <smiles>  (87) 
O=C(NCC(=O)N1CCCCC1c1cccc(Cl)c1)c1ccc2cc(F)ccc2n1

>  <score_type>  (87) 
oracle

>  <origin>  (87) 
autodockgpu

>  <m_score__min__energy>  (87) 
-9.2799999999999994

>  <m_primary>  (87) 
energy

>  <rmsd>  (87) 
1.7966622565311734

>  <m_score__min__rmsd>  (87) 
1.7966622565311734

>  <meeko>  (87) 
{"free_energy": -8.92, "intermolecular_energy": -10.41, "internal_energy": -1.62, "cluster_size": 36, "cluster_id": 1, "rank_in_cluster": 17}

>  <energy>  (87) 
-9.15

>  <cluster_rmsd>  (87) 
0.0

>  <cluster>  (87) 
2

$$$$

     RDKit          3D

 51 54  0  0  0  0  0  0  0  0999 V2000
  137.8300   71.0640  222.1540 O   0  0  0  0  0  0  0  0  0  0  0  0
  138.7250   71.4670  222.9340 C   0  0  0  0  0  0  0  0  0  0  0  0
  139.3930   72.7150  222.7980 N   0  0  0  0  0  0  0  0  0  0  0  0
  139.0550   73.6130  221.7100 C   0  0  0  0  0  0  0  0  0  0  0  0
  139.8140   74.8800  221.8630 C   0  0  0  0  0  0  0  0  0  0  0  0
  141.0760   74.7650  221.9570 O   0  0  0  0  0  0  0  0  0  0  0  0
  139.1620   76.1510  221.9010 N   0  0  0  0  0  0  0  0  0  0  0  0
  137.9920   76.2760  222.7090 C   0  0  0  0  0  0  0  0  0  0  0  0
  136.9680   77.2240  222.1300 C   0  0  0  0  0  0  0  0  0  0  0  0
  137.6250   78.3720  221.3950 C   0  0  0  0  0  0  0  0  0  0  0  0
  138.6050   77.8590  220.3640 C   0  0  0  0  0  0  0  0  0  0  0  0
  139.7500   77.2120  221.1090 C   0  0  1  0  0  0  0  0  0  0  0  0
  140.4640   78.2260  221.8720 C   0  0  0  0  0  0  0  0  0  0  0  0
  141.1000   77.8160  223.0490 C   0  0  0  0  0  0  0  0  0  0  0  0
  141.8070   78.6830  223.8400 C   0  0  0  0  0  0  0  0  0  0  0  0
  141.9260   80.0150  223.5110 C   0  0  0  0  0  0  0  0  0  0  0  0
  141.3080   80.4470  222.3520 C   0  0  0  0  0  0  0  0  0  0  0  0
  141.4520   82.1370  221.9200 Cl  0  0  0  0  0  0  0  0  0  0  0  0
  140.5900   79.5520  221.5540 C   0  0  0  0  0  0  0  0  0  0  0  0
  139.1110   70.5980  224.0590 C   0  0  0  0  0  0  0  0  0  0  0  0
  138.8470   69.2470  224.0400 C   0  0  0  0  0  0  0  0  0  0  0  0
  139.1850   68.3860  225.0620 C   0  0  0  0  0  0  0  0  0  0  0  0
  139.8180   68.9130  226.1530 C   0  0  0  0  0  0  0  0  0  0  0  0
  140.1560   68.0520  227.1760 C   0  0  0  0  0  0  0  0  0  0  0  0
  140.7960   68.5910  228.2730 C   0  0  0  0  0  0  0  0  0  0  0  0
  141.1430   67.7830  229.2950 F   0  0  0  0  0  0  0  0  0  0  0  0
  141.0670   69.9350  228.3100 C   0  0  0  0  0  0  0  0  0  0  0  0
  140.7190   70.7770  227.2720 C   0  0  0  0  0  0  0  0  0  0  0  0
  140.0800   70.2600  226.1680 C   0  0  0  0  0  0  0  0  0  0  0  0
  139.7360   71.0830  225.1460 N   0  0  0  0  0  0  0  0  0  0  0  0
  140.1380   72.9650  223.5120 H   0  0  0  0  0  0  0  0  0  0  0  0
  139.3162   73.1422  220.7508 H   0  0  0  0  0  0  0  0  0  0  0  0
  137.9760   73.8260  221.7309 H   0  0  0  0  0  0  0  0  0  0  0  0
  137.5304   75.2829  222.8119 H   0  0  0  0  0  0  0  0  0  0  0  0
  138.3070   76.6875  223.6793 H   0  0  0  0  0  0  0  0  0  0  0  0
  136.3264   76.6712  221.4281 H   0  0  0  0  0  0  0  0  0  0  0  0
  136.3763   77.6397  222.9589 H   0  0  0  0  0  0  0  0  0  0  0  0
  136.8501   78.9680  220.8907 H   0  0  0  0  0  0  0  0  0  0  0  0
  138.1706   78.9905  222.1229 H   0  0  0  0  0  0  0  0  0  0  0  0
  138.1140   77.1196  219.7142 H   0  0  0  0  0  0  0  0  0  0  0  0
  138.9695   78.6823  219.7322 H   0  0  0  0  0  0  0  0  0  0  0  0
  140.5134   76.7673  220.4536 H   0  0  0  0  0  0  0  0  0  0  0  0
  141.0299   76.7603  223.3499 H   0  0  0  0  0  0  0  0  0  0  0  0
  142.2887   78.3081  224.7551 H   0  0  0  0  0  0  0  0  0  0  0  0
  142.4925   80.7105  224.1476 H   0  0  0  0  0  0  0  0  0  0  0  0
  140.1091   79.9260  220.6381 H   0  0  0  0  0  0  0  0  0  0  0  0
  138.3371   68.8307  223.1587 H   0  0  0  0  0  0  0  0  0  0  0  0
  138.9535   67.3123  225.0018 H   0  0  0  0  0  0  0  0  0  0  0  0
  139.9245   66.9781  227.1195 H   0  0  0  0  0  0  0  0  0  0  0  0
  141.5756   70.3539  229.1908 H   0  0  0  0  0  0  0  0  0  0  0  0
  140.9504   71.8510  227.3271 H   0  0  0  0  0  0  0  0  0  0  0  0
  1  2  2  0
  2  3  1  0
  3  4  1  0
  4  5  1  0
  5  6  2  0
  5  7  1  0
  7  8  1  0
  8  9  1  0
  9 10  1  0
 10 11  1  0
 11 12  1  0
 12 13  1  0
 13 14  2  0
 14 15  1  0
 15 16  2  0
 16 17  1  0
 17 18  1  0
 17 19  2  0
  2 20  1  0
 20 21  2  0
 21 22  1  0
 22 23  2  0
 23 24  1  0
 24 25  2  0
 25 26  1  0
 25 27  1  0
 27 28  2  0
 28 29  1  0
 29 30  2  0
 12  7  1  0
 19 13  1  0
 30 20  1  0
 29 23  1  0
  3 31  1  0
  4 32  1  0
  4 33  1  0
  8 34  1  0
  8 35  1  0
  9 36  1  0
  9 37  1  0
 10 38  1  0
 10 39  1  0
 11 40  1  0
 11 41  1  0
 12 42  1  6
 14 43  1  0
 15 44  1  0
 16 45  1  0
 19 46  1  0
 21 47  1  0
 22 48  1  0
 24 49  1  0
 27 50  1  0
 28 51  1  0
M  END
>  <smiles>  (88) 
O=C(NCC(=O)N1CCCCC1c1cccc(Cl)c1)c1ccc2cc(F)ccc2n1

>  <score_type>  (88) 
oracle

>  <origin>  (88) 
autodockgpu

>  <m_score__min__energy>  (88) 
-9.2799999999999994

>  <m_primary>  (88) 
energy

>  <rmsd>  (88) 
2.561569774903744

>  <m_score__min__rmsd>  (88) 
2.561569774903744

>  <meeko>  (88) 
{"free_energy": -8.76, "intermolecular_energy": -10.26, "internal_energy": -1.79, "cluster_size": 36, "cluster_id": 1, "rank_in_cluster": 26}

>  <energy>  (88) 
-9.11

>  <cluster_rmsd>  (88) 
0.08

>  <cluster>  (88) 
2

$$$$

     RDKit          3D

 51 54  0  0  0  0  0  0  0  0999 V2000
  141.3600   71.9910  221.6940 O   0  0  0  0  0  0  0  0  0  0  0  0
  140.4410   72.2640  222.5010 C   0  0  0  0  0  0  0  0  0  0  0  0
  139.5530   73.3650  222.3510 N   0  0  0  0  0  0  0  0  0  0  0  0
  139.6760   74.2560  221.2140 C   0  0  0  0  0  0  0  0  0  0  0  0
  139.3440   75.6410  221.6340 C   0  0  0  0  0  0  0  0  0  0  0  0
  138.5030   75.7490  222.5790 O   0  0  0  0  0  0  0  0  0  0  0  0
  139.9370   76.7810  221.0090 N   0  0  0  0  0  0  0  0  0  0  0  0
  139.2690   77.3480  219.8830 C   0  0  0  0  0  0  0  0  0  0  0  0
  140.2170   77.9110  218.8500 C   0  0  0  0  0  0  0  0  0  0  0  0
  141.4540   78.5000  219.4930 C   0  0  0  0  0  0  0  0  0  0  0  0
  142.1110   77.4940  220.4130 C   0  0  0  0  0  0  0  0  0  0  0  0
  141.1770   77.2680  221.5790 C   0  0  1  0  0  0  0  0  0  0  0  0
  141.0590   78.4980  222.3490 C   0  0  0  0  0  0  0  0  0  0  0  0
  142.2330   79.2190  222.5940 C   0  0  0  0  0  0  0  0  0  0  0  0
  142.2370   80.3940  223.3000 C   0  0  0  0  0  0  0  0  0  0  0  0
  141.0730   80.9270  223.8070 C   0  0  0  0  0  0  0  0  0  0  0  0
  139.8990   80.2350  223.5790 C   0  0  0  0  0  0  0  0  0  0  0  0
  138.4110   80.9010  224.2170 Cl  0  0  0  0  0  0  0  0  0  0  0  0
  139.9080   79.0370  222.8580 C   0  0  0  0  0  0  0  0  0  0  0  0
  140.2660   71.3940  223.6780 C   0  0  0  0  0  0  0  0  0  0  0  0
  139.6390   70.1730  223.5740 C   0  0  0  0  0  0  0  0  0  0  0  0
  139.4480   69.3180  224.6390 C   0  0  0  0  0  0  0  0  0  0  0  0
  139.9110   69.7150  225.8630 C   0  0  0  0  0  0  0  0  0  0  0  0
  139.7190   68.8590  226.9280 C   0  0  0  0  0  0  0  0  0  0  0  0
  140.1900   69.2660  228.1590 C   0  0  0  0  0  0  0  0  0  0  0  0
  140.0230   68.4590  229.2270 F   0  0  0  0  0  0  0  0  0  0  0  0
  140.8170   70.4800  228.2810 C   0  0  0  0  0  0  0  0  0  0  0  0
  140.9970   71.3180  227.1990 C   0  0  0  0  0  0  0  0  0  0  0  0
  140.5360   70.9320  225.9610 C   0  0  0  0  0  0  0  0  0  0  0  0
  140.7100   71.7530  224.8950 N   0  0  0  0  0  0  0  0  0  0  0  0
  138.8060   73.5100  223.0920 H   0  0  0  0  0  0  0  0  0  0  0  0
  140.7077   74.2253  220.8337 H   0  0  0  0  0  0  0  0  0  0  0  0
  138.9839   73.9369  220.4208 H   0  0  0  0  0  0  0  0  0  0  0  0
  138.6589   76.5656  219.4080 H   0  0  0  0  0  0  0  0  0  0  0  0
  138.6555   78.1827  220.2530 H   0  0  0  0  0  0  0  0  0  0  0  0
  140.5196   77.1046  218.1658 H   0  0  0  0  0  0  0  0  0  0  0  0
  139.6967   78.7128  218.3056 H   0  0  0  0  0  0  0  0  0  0  0  0
  142.1667   78.7890  218.7065 H   0  0  0  0  0  0  0  0  0  0  0  0
  141.1597   79.3796  220.0843 H   0  0  0  0  0  0  0  0  0  0  0  0
  142.2785   76.5481  219.8770 H   0  0  0  0  0  0  0  0  0  0  0  0
  143.0848   77.8670  220.7630 H   0  0  0  0  0  0  0  0  0  0  0  0
  141.5386   76.5210  222.3009 H   0  0  0  0  0  0  0  0  0  0  0  0
  143.1859   78.8293  222.2065 H   0  0  0  0  0  0  0  0  0  0  0  0
  143.1883   80.9212  223.4647 H   0  0  0  0  0  0  0  0  0  0  0  0
  141.0776   81.8700  224.3733 H   0  0  0  0  0  0  0  0  0  0  0  0
  138.9570   78.5091  222.6940 H   0  0  0  0  0  0  0  0  0  0  0  0
  139.2695   69.8617  222.5858 H   0  0  0  0  0  0  0  0  0  0  0  0
  138.9410   68.3506  224.5085 H   0  0  0  0  0  0  0  0  0  0  0  0
  139.2111   67.8916  226.8006 H   0  0  0  0  0  0  0  0  0  0  0  0
  141.1865   70.7943  229.2683 H   0  0  0  0  0  0  0  0  0  0  0  0
  141.5044   72.2858  227.3251 H   0  0  0  0  0  0  0  0  0  0  0  0
  1  2  2  0
  2  3  1  0
  3  4  1  0
  4  5  1  0
  5  6  2  0
  5  7  1  0
  7  8  1  0
  8  9  1  0
  9 10  1  0
 10 11  1  0
 11 12  1  0
 12 13  1  0
 13 14  2  0
 14 15  1  0
 15 16  2  0
 16 17  1  0
 17 18  1  0
 17 19  2  0
  2 20  1  0
 20 21  2  0
 21 22  1  0
 22 23  2  0
 23 24  1  0
 24 25  2  0
 25 26  1  0
 25 27  1  0
 27 28  2  0
 28 29  1  0
 29 30  2  0
 12  7  1  0
 19 13  1  0
 30 20  1  0
 29 23  1  0
  3 31  1  0
  4 32  1  0
  4 33  1  0
  8 34  1  0
  8 35  1  0
  9 36  1  0
  9 37  1  0
 10 38  1  0
 10 39  1  0
 11 40  1  0
 11 41  1  0
 12 42  1  1
 14 43  1  0
 15 44  1  0
 16 45  1  0
 19 46  1  0
 21 47  1  0
 22 48  1  0
 24 49  1  0
 27 50  1  0
 28 51  1  0
M  END
>  <smiles>  (89) 
O=C(NCC(=O)N1CCCCC1c1cccc(Cl)c1)c1ccc2cc(F)ccc2n1

>  <score_type>  (89) 
oracle

>  <origin>  (89) 
autodockgpu

>  <m_score__min__energy>  (89) 
-9.2799999999999994

>  <m_primary>  (89) 
energy

>  <rmsd>  (89) 
1.912177100481868

>  <m_score__min__rmsd>  (89) 
1.912177100481868

>  <meeko>  (89) 
{"free_energy": -9.25, "intermolecular_energy": -10.74, "internal_energy": -1.82, "cluster_size": 36, "cluster_id": 1, "rank_in_cluster": 2}

>  <energy>  (89) 
-9.1

>  <cluster_rmsd>  (89) 
0.14

>  <cluster>  (89) 
2

$$$$

     RDKit          3D

 51 54  0  0  0  0  0  0  0  0999 V2000
  138.6590   74.6770  222.3470 O   0  0  0  0  0  0  0  0  0  0  0  0
  139.6640   75.2450  221.8580 C   0  0  0  0  0  0  0  0  0  0  0  0
  139.7470   76.6450  221.6210 N   0  0  0  0  0  0  0  0  0  0  0  0
  138.6300   77.5110  221.9450 C   0  0  0  0  0  0  0  0  0  0  0  0
  139.1240   78.6880  222.7040 C   0  0  0  0  0  0  0  0  0  0  0  0
  138.2850   79.2430  223.4790 O   0  0  0  0  0  0  0  0  0  0  0  0
  140.4640   79.1660  222.5660 N   0  0  0  0  0  0  0  0  0  0  0  0
  141.4770   78.5480  223.3570 C   0  0  0  0  0  0  0  0  0  0  0  0
  142.5610   79.5070  223.7920 C   0  0  0  0  0  0  0  0  0  0  0  0
  142.8250   80.5630  222.7410 C   0  0  0  0  0  0  0  0  0  0  0  0
  141.5410   81.2600  222.3470 C   0  0  0  0  0  0  0  0  0  0  0  0
  140.6780   80.2490  221.6270 C   0  0  1  0  0  0  0  0  0  0  0  0
  141.3240   79.8630  220.3800 C   0  0  0  0  0  0  0  0  0  0  0  0
  141.7000   80.8880  219.5050 C   0  0  0  0  0  0  0  0  0  0  0  0
  142.3210   80.6400  218.3100 C   0  0  0  0  0  0  0  0  0  0  0  0
  142.6100   79.3550  217.9080 C   0  0  0  0  0  0  0  0  0  0  0  0
  142.2500   78.3230  218.7540 C   0  0  0  0  0  0  0  0  0  0  0  0
  142.6110   76.6830  218.2570 Cl  0  0  0  0  0  0  0  0  0  0  0  0
  141.6160   78.5890  219.9710 C   0  0  0  0  0  0  0  0  0  0  0  0
  140.8310   74.4160  221.5080 C   0  0  0  0  0  0  0  0  0  0  0  0
  140.7630   73.0420  221.5340 C   0  0  0  0  0  0  0  0  0  0  0  0
  141.8210   72.2170  221.2160 C   0  0  0  0  0  0  0  0  0  0  0  0
  143.0000   72.8070  220.8560 C   0  0  0  0  0  0  0  0  0  0  0  0
  144.0580   71.9810  220.5390 C   0  0  0  0  0  0  0  0  0  0  0  0
  145.2450   72.5840  220.1760 C   0  0  0  0  0  0  0  0  0  0  0  0
  146.3050   71.8120  219.8580 F   0  0  0  0  0  0  0  0  0  0  0  0
  145.3320   73.9520  220.1440 C   0  0  0  0  0  0  0  0  0  0  0  0
  144.2570   74.7570  220.4670 C   0  0  0  0  0  0  0  0  0  0  0  0
  143.0630   74.1770  220.8310 C   0  0  0  0  0  0  0  0  0  0  0  0
  142.0050   74.9640  221.1490 N   0  0  0  0  0  0  0  0  0  0  0  0
  140.6440   77.0300  221.2030 H   0  0  0  0  0  0  0  0  0  0  0  0
  138.1463   77.8492  221.0168 H   0  0  0  0  0  0  0  0  0  0  0  0
  137.9012   76.9585  222.5562 H   0  0  0  0  0  0  0  0  0  0  0  0
  141.0071   78.1208  224.2552 H   0  0  0  0  0  0  0  0  0  0  0  0
  141.9536   77.7772  222.7335 H   0  0  0  0  0  0  0  0  0  0  0  0
  142.2478   80.0010  224.7236 H   0  0  0  0  0  0  0  0  0  0  0  0
  143.4873   78.9334  223.9437 H   0  0  0  0  0  0  0  0  0  0  0  0
  143.5295   81.3053  223.1443 H   0  0  0  0  0  0  0  0  0  0  0  0
  143.2503   80.0766  221.8507 H   0  0  0  0  0  0  0  0  0  0  0  0
  141.0214   81.6258  223.2449 H   0  0  0  0  0  0  0  0  0  0  0  0
  141.7517   82.1223  221.6974 H   0  0  0  0  0  0  0  0  0  0  0  0
  139.6952   80.6385  221.3231 H   0  0  0  0  0  0  0  0  0  0  0  0
  141.4893   81.9301  219.7871 H   0  0  0  0  0  0  0  0  0  0  0  0
  142.5942   81.4833  217.6587 H   0  0  0  0  0  0  0  0  0  0  0  0
  143.1094   79.1570  216.9481 H   0  0  0  0  0  0  0  0  0  0  0  0
  141.3422   77.7461  220.6226 H   0  0  0  0  0  0  0  0  0  0  0  0
  139.8104   72.5752  221.8250 H   0  0  0  0  0  0  0  0  0  0  0  0
  141.7196   71.1222  221.2509 H   0  0  0  0  0  0  0  0  0  0  0  0
  143.9597   70.8860  220.5741 H   0  0  0  0  0  0  0  0  0  0  0  0
  146.2835   74.4211  219.8533 H   0  0  0  0  0  0  0  0  0  0  0  0
  144.3543   75.8522  220.4336 H   0  0  0  0  0  0  0  0  0  0  0  0
  1  2  2  0
  2  3  1  0
  3  4  1  0
  4  5  1  0
  5  6  2  0
  5  7  1  0
  7  8  1  0
  8  9  1  0
  9 10  1  0
 10 11  1  0
 11 12  1  0
 12 13  1  0
 13 14  2  0
 14 15  1  0
 15 16  2  0
 16 17  1  0
 17 18  1  0
 17 19  2  0
  2 20  1  0
 20 21  2  0
 21 22  1  0
 22 23  2  0
 23 24  1  0
 24 25  2  0
 25 26  1  0
 25 27  1  0
 27 28  2  0
 28 29  1  0
 29 30  2  0
 12  7  1  0
 19 13  1  0
 30 20  1  0
 29 23  1  0
  3 31  1  0
  4 32  1  0
  4 33  1  0
  8 34  1  0
  8 35  1  0
  9 36  1  0
  9 37  1  0
 10 38  1  0
 10 39  1  0
 11 40  1  0
 11 41  1  0
 12 42  1  6
 14 43  1  0
 15 44  1  0
 16 45  1  0
 19 46  1  0
 21 47  1  0
 22 48  1  0
 24 49  1  0
 27 50  1  0
 28 51  1  0
M  END
>  <smiles>  (90) 
O=C(NCC(=O)N1CCCCC1c1cccc(Cl)c1)c1ccc2cc(F)ccc2n1

>  <score_type>  (90) 
oracle

>  <origin>  (90) 
autodockgpu

>  <m_score__min__energy>  (90) 
-9.2799999999999994

>  <m_primary>  (90) 
energy

>  <rmsd>  (90) 
6.47818822307253

>  <m_score__min__rmsd>  (90) 
6.47818822307253

>  <meeko>  (90) 
{"free_energy": -7.39, "intermolecular_energy": -8.88, "internal_energy": -2.53, "cluster_size": 4, "cluster_id": 4, "rank_in_cluster": 4}

>  <energy>  (90) 
-9.03

>  <cluster_rmsd>  (90) 
0.83

>  <cluster>  (90) 
2

$$$$

     RDKit          3D

 51 54  0  0  0  0  0  0  0  0999 V2000
  141.2140   72.1140  221.4460 O   0  0  0  0  0  0  0  0  0  0  0  0
  140.3560   72.4310  222.3030 C   0  0  0  0  0  0  0  0  0  0  0  0
  139.5300   73.5850  222.2100 N   0  0  0  0  0  0  0  0  0  0  0  0
  139.6470   74.4820  221.0760 C   0  0  0  0  0  0  0  0  0  0  0  0
  140.8680   75.3120  221.2290 C   0  0  0  0  0  0  0  0  0  0  0  0
  141.0110   75.8910  222.3500 O   0  0  0  0  0  0  0  0  0  0  0  0
  141.8240   75.4500  220.1740 N   0  0  0  0  0  0  0  0  0  0  0  0
  142.3970   76.7370  219.9570 C   0  0  0  0  0  0  0  0  0  0  0  0
  142.6870   77.0230  218.5020 C   0  0  0  0  0  0  0  0  0  0  0  0
  143.1000   75.7690  217.7610 C   0  0  0  0  0  0  0  0  0  0  0  0
  142.0790   74.6700  217.9570 C   0  0  0  0  0  0  0  0  0  0  0  0
  142.1290   74.2570  219.4100 C   0  0  1  0  0  0  0  0  0  0  0  0
  143.4250   73.6580  219.6970 C   0  0  0  0  0  0  0  0  0  0  0  0
  144.2910   74.3680  220.5360 C   0  0  0  0  0  0  0  0  0  0  0  0
  145.5300   73.8950  220.8790 C   0  0  0  0  0  0  0  0  0  0  0  0
  145.9870   72.6830  220.4100 C   0  0  0  0  0  0  0  0  0  0  0  0
  145.1520   71.9610  219.5790 C   0  0  0  0  0  0  0  0  0  0  0  0
  145.7190   70.4190  218.9750 Cl  0  0  0  0  0  0  0  0  0  0  0  0
  143.8900   72.4550  219.2360 C   0  0  0  0  0  0  0  0  0  0  0  0
  140.1900   71.5580  223.4780 C   0  0  0  0  0  0  0  0  0  0  0  0
  139.5460   70.3450  223.3790 C   0  0  0  0  0  0  0  0  0  0  0  0
  139.3630   69.4870  224.4430 C   0  0  0  0  0  0  0  0  0  0  0  0
  139.8500   69.8730  225.6610 C   0  0  0  0  0  0  0  0  0  0  0  0
  139.6650   69.0150  226.7250 C   0  0  0  0  0  0  0  0  0  0  0  0
  140.1600   69.4110  227.9510 C   0  0  0  0  0  0  0  0  0  0  0  0
  140.0010   68.6010  229.0180 F   0  0  0  0  0  0  0  0  0  0  0  0
  140.8040   70.6160  228.0680 C   0  0  0  0  0  0  0  0  0  0  0  0
  140.9770   71.4580  226.9860 C   0  0  0  0  0  0  0  0  0  0  0  0
  140.4900   71.0830  225.7540 C   0  0  0  0  0  0  0  0  0  0  0  0
  140.6580   71.9060  224.6890 N   0  0  0  0  0  0  0  0  0  0  0  0
  138.8320   73.7650  222.9900 H   0  0  0  0  0  0  0  0  0  0  0  0
  139.7163   73.8944  220.1487 H   0  0  0  0  0  0  0  0  0  0  0  0
  138.7623   75.1341  221.0301 H   0  0  0  0  0  0  0  0  0  0  0  0
  141.6965   77.4987  220.3299 H   0  0  0  0  0  0  0  0  0  0  0  0
  143.3578   76.7610  220.4921 H   0  0  0  0  0  0  0  0  0  0  0  0
  141.7818   77.4344  218.0314 H   0  0  0  0  0  0  0  0  0  0  0  0
  143.5171   77.7430  218.4508 H   0  0  0  0  0  0  0  0  0  0  0  0
  143.1851   75.9954  216.6879 H   0  0  0  0  0  0  0  0  0  0  0  0
  144.0675   75.4270  218.1573 H   0  0  0  0  0  0  0  0  0  0  0  0
  141.0744   75.0417  217.7066 H   0  0  0  0  0  0  0  0  0  0  0  0
  142.3011   73.8138  217.3031 H   0  0  0  0  0  0  0  0  0  0  0  0
  141.3970   73.4811  219.6785 H   0  0  0  0  0  0  0  0  0  0  0  0
  143.9654   75.3403  220.9342 H   0  0  0  0  0  0  0  0  0  0  0  0
  146.1721   74.4942  221.5414 H   0  0  0  0  0  0  0  0  0  0  0  0
  146.9815   72.3034  220.6873 H   0  0  0  0  0  0  0  0  0  0  0  0
  143.2481   71.8567  218.5727 H   0  0  0  0  0  0  0  0  0  0  0  0
  139.1555   70.0434  222.3959 H   0  0  0  0  0  0  0  0  0  0  0  0
  138.8435   68.5257  224.3163 H   0  0  0  0  0  0  0  0  0  0  0  0
  139.1440   68.0541  226.6014 H   0  0  0  0  0  0  0  0  0  0  0  0
  141.1937   70.9208  229.0504 H   0  0  0  0  0  0  0  0  0  0  0  0
  141.4988   72.4187  227.1078 H   0  0  0  0  0  0  0  0  0  0  0  0
  1  2  2  0
  2  3  1  0
  3  4  1  0
  4  5  1  0
  5  6  2  0
  5  7  1  0
  7  8  1  0
  8  9  1  0
  9 10  1  0
 10 11  1  0
 11 12  1  0
 12 13  1  0
 13 14  2  0
 14 15  1  0
 15 16  2  0
 16 17  1  0
 17 18  1  0
 17 19  2  0
  2 20  1  0
 20 21  2  0
 21 22  1  0
 22 23  2  0
 23 24  1  0
 24 25  2  0
 25 26  1  0
 25 27  1  0
 27 28  2  0
 28 29  1  0
 29 30  2  0
 12  7  1  0
 19 13  1  0
 30 20  1  0
 29 23  1  0
  3 31  1  0
  4 32  1  0
  4 33  1  0
  8 34  1  0
  8 35  1  0
  9 36  1  0
  9 37  1  0
 10 38  1  0
 10 39  1  0
 11 40  1  0
 11 41  1  0
 12 42  1  6
 14 43  1  0
 15 44  1  0
 16 45  1  0
 19 46  1  0
 21 47  1  0
 22 48  1  0
 24 49  1  0
 27 50  1  0
 28 51  1  0
M  END
>  <smiles>  (91) 
O=C(NCC(=O)N1CCCCC1c1cccc(Cl)c1)c1ccc2cc(F)ccc2n1

>  <score_type>  (91) 
oracle

>  <origin>  (91) 
autodockgpu

>  <m_score__min__energy>  (91) 
-9.2799999999999994

>  <m_primary>  (91) 
energy

>  <rmsd>  (91) 
2.2753823369792454

>  <m_score__min__rmsd>  (91) 
2.2753823369792454

>  <meeko>  (91) 
{"free_energy": -9.1, "intermolecular_energy": -10.6, "internal_energy": -1.77, "cluster_size": 8, "cluster_id": 2, "rank_in_cluster": 3}

>  <energy>  (91) 
-8.99

>  <cluster_rmsd>  (91) 
0.19

>  <cluster>  (91) 
2

$$$$

     RDKit          3D

 51 54  0  0  0  0  0  0  0  0999 V2000
  139.7150   70.9130  221.1400 O   0  0  0  0  0  0  0  0  0  0  0  0
  139.5610   71.5070  222.2320 C   0  0  0  0  0  0  0  0  0  0  0  0
  139.3150   72.9030  222.3490 N   0  0  0  0  0  0  0  0  0  0  0  0
  139.2260   73.7340  221.1630 C   0  0  0  0  0  0  0  0  0  0  0  0
  138.9340   75.1330  221.5620 C   0  0  0  0  0  0  0  0  0  0  0  0
  138.0560   75.2820  222.4680 O   0  0  0  0  0  0  0  0  0  0  0  0
  139.6010   76.2450  220.9610 N   0  0  0  0  0  0  0  0  0  0  0  0
  139.0080   76.8350  219.8060 C   0  0  0  0  0  0  0  0  0  0  0  0
  140.0220   77.3530  218.8130 C   0  0  0  0  0  0  0  0  0  0  0  0
  141.2550   77.8910  219.5080 C   0  0  0  0  0  0  0  0  0  0  0  0
  141.8280   76.8610  220.4570 C   0  0  0  0  0  0  0  0  0  0  0  0
  140.8360   76.6800  221.5830 C   0  0  1  0  0  0  0  0  0  0  0  0
  140.7380   77.9170  222.3440 C   0  0  0  0  0  0  0  0  0  0  0  0
  139.4600   78.3430  222.7200 C   0  0  0  0  0  0  0  0  0  0  0  0
  139.2510   79.4870  223.4440 C   0  0  0  0  0  0  0  0  0  0  0  0
  140.3030   80.2820  223.8420 C   0  0  0  0  0  0  0  0  0  0  0  0
  141.5780   79.8850  223.4840 C   0  0  0  0  0  0  0  0  0  0  0  0
  142.9250   80.8860  223.9820 Cl  0  0  0  0  0  0  0  0  0  0  0  0
  141.7770   78.7160  222.7440 C   0  0  0  0  0  0  0  0  0  0  0  0
  139.6400   70.7160  223.4730 C   0  0  0  0  0  0  0  0  0  0  0  0
  139.1770   69.4200  223.5220 C   0  0  0  0  0  0  0  0  0  0  0  0
  139.2260   68.6330  224.6530 C   0  0  0  0  0  0  0  0  0  0  0  0
  139.7640   69.1790  225.7840 C   0  0  0  0  0  0  0  0  0  0  0  0
  139.8110   68.3910  226.9150 C   0  0  0  0  0  0  0  0  0  0  0  0
  140.3570   68.9490  228.0530 C   0  0  0  0  0  0  0  0  0  0  0  0
  140.4230   68.2120  229.1810 F   0  0  0  0  0  0  0  0  0  0  0  0
  140.8230   70.2390  228.0230 C   0  0  0  0  0  0  0  0  0  0  0  0
  140.7640   71.0070  226.8770 C   0  0  0  0  0  0  0  0  0  0  0  0
  140.2240   70.4700  225.7300 C   0  0  0  0  0  0  0  0  0  0  0  0
  140.1640   71.2220  224.6020 N   0  0  0  0  0  0  0  0  0  0  0  0
  139.1980   73.3120  223.3220 H   0  0  0  0  0  0  0  0  0  0  0  0
  140.1810   73.6995  220.6182 H   0  0  0  0  0  0  0  0  0  0  0  0
  138.4204   73.3616  220.5131 H   0  0  0  0  0  0  0  0  0  0  0  0
  138.3860   76.0773  219.3070 H   0  0  0  0  0  0  0  0  0  0  0  0
  138.4162   77.6970  220.1475 H   0  0  0  0  0  0  0  0  0  0  0  0
  140.3186   76.5319  218.1438 H   0  0  0  0  0  0  0  0  0  0  0  0
  139.5603   78.1740  218.2449 H   0  0  0  0  0  0  0  0  0  0  0  0
  142.0126   78.1464  218.7524 H   0  0  0  0  0  0  0  0  0  0  0  0
  140.9737   78.7845  220.0846 H   0  0  0  0  0  0  0  0  0  0  0  0
  141.9769   75.9068  219.9305 H   0  0  0  0  0  0  0  0  0  0  0  0
  142.8014   77.1927  220.8475 H   0  0  0  0  0  0  0  0  0  0  0  0
  141.1341   75.9210  222.3213 H   0  0  0  0  0  0  0  0  0  0  0  0
  138.5910   77.7373  222.4235 H   0  0  0  0  0  0  0  0  0  0  0  0
  138.2242   79.7760  223.7124 H   0  0  0  0  0  0  0  0  0  0  0  0
  140.1347   81.2001  224.4240 H   0  0  0  0  0  0  0  0  0  0  0  0
  142.8033   78.4273  222.4733 H   0  0  0  0  0  0  0  0  0  0  0  0
  138.7438   68.9885  222.6076 H   0  0  0  0  0  0  0  0  0  0  0  0
  138.8451   67.6011  224.6450 H   0  0  0  0  0  0  0  0  0  0  0  0
  139.4288   67.3596  226.9101 H   0  0  0  0  0  0  0  0  0  0  0  0
  141.2553   70.6732  228.9365 H   0  0  0  0  0  0  0  0  0  0  0  0
  141.1451   72.0389  226.8804 H   0  0  0  0  0  0  0  0  0  0  0  0
  1  2  2  0
  2  3  1  0
  3  4  1  0
  4  5  1  0
  5  6  2  0
  5  7  1  0
  7  8  1  0
  8  9  1  0
  9 10  1  0
 10 11  1  0
 11 12  1  0
 12 13  1  0
 13 14  2  0
 14 15  1  0
 15 16  2  0
 16 17  1  0
 17 18  1  0
 17 19  2  0
  2 20  1  0
 20 21  2  0
 21 22  1  0
 22 23  2  0
 23 24  1  0
 24 25  2  0
 25 26  1  0
 25 27  1  0
 27 28  2  0
 28 29  1  0
 29 30  2  0
 12  7  1  0
 19 13  1  0
 30 20  1  0
 29 23  1  0
  3 31  1  0
  4 32  1  0
  4 33  1  0
  8 34  1  0
  8 35  1  0
  9 36  1  0
  9 37  1  0
 10 38  1  0
 10 39  1  0
 11 40  1  0
 11 41  1  0
 12 42  1  1
 14 43  1  0
 15 44  1  0
 16 45  1  0
 19 46  1  0
 21 47  1  0
 22 48  1  0
 24 49  1  0
 27 50  1  0
 28 51  1  0
M  END
>  <smiles>  (92) 
O=C(NCC(=O)N1CCCCC1c1cccc(Cl)c1)c1ccc2cc(F)ccc2n1

>  <score_type>  (92) 
oracle

>  <origin>  (92) 
autodockgpu

>  <m_score__min__energy>  (92) 
-9.2799999999999994

>  <m_primary>  (92) 
energy

>  <rmsd>  (92) 
1.5923466973211104

>  <m_score__min__rmsd>  (92) 
1.5923466973211104

>  <meeko>  (92) 
{"free_energy": -8.81, "intermolecular_energy": -10.31, "internal_energy": -1.84, "cluster_size": 36, "cluster_id": 1, "rank_in_cluster": 23}

>  <energy>  (92) 
-8.98

>  <cluster_rmsd>  (92) 
0.19

>  <cluster>  (92) 
2

$$$$

     RDKit          3D

 51 54  0  0  0  0  0  0  0  0999 V2000
  138.5460   70.6960  221.7020 O   0  0  0  0  0  0  0  0  0  0  0  0
  139.0460   71.2550  222.7060 C   0  0  0  0  0  0  0  0  0  0  0  0
  139.3680   72.6390  222.7660 N   0  0  0  0  0  0  0  0  0  0  0  0
  139.1220   73.4990  221.6250 C   0  0  0  0  0  0  0  0  0  0  0  0
  140.2280   74.4810  221.5000 C   0  0  0  0  0  0  0  0  0  0  0  0
  141.3500   74.1190  221.9730 O   0  0  0  0  0  0  0  0  0  0  0  0
  140.0390   75.7570  220.8850 N   0  0  0  0  0  0  0  0  0  0  0  0
  138.8080   75.9940  220.2040 C   0  0  0  0  0  0  0  0  0  0  0  0
  138.9600   76.8810  218.9900 C   0  0  0  0  0  0  0  0  0  0  0  0
  140.0360   77.9260  219.1960 C   0  0  0  0  0  0  0  0  0  0  0  0
  141.3350   77.2810  219.6240 C   0  0  0  0  0  0  0  0  0  0  0  0
  141.1250   76.7100  221.0070 C   0  0  1  0  0  0  0  0  0  0  0  0
  140.8870   77.7960  221.9470 C   0  0  0  0  0  0  0  0  0  0  0  0
  139.5960   77.9220  222.4710 C   0  0  0  0  0  0  0  0  0  0  0  0
  139.2630   78.9020  223.3690 C   0  0  0  0  0  0  0  0  0  0  0  0
  140.1930   79.8190  223.8040 C   0  0  0  0  0  0  0  0  0  0  0  0
  141.4770   79.7170  223.3030 C   0  0  0  0  0  0  0  0  0  0  0  0
  142.6720   80.8750  223.8470 Cl  0  0  0  0  0  0  0  0  0  0  0  0
  141.8050   78.7130  222.3870 C   0  0  0  0  0  0  0  0  0  0  0  0
  139.3190   70.4320  223.8980 C   0  0  0  0  0  0  0  0  0  0  0  0
  138.9430   69.1090  223.9510 C   0  0  0  0  0  0  0  0  0  0  0  0
  139.1730   68.2910  225.0370 C   0  0  0  0  0  0  0  0  0  0  0  0
  139.8090   68.8350  226.1180 C   0  0  0  0  0  0  0  0  0  0  0  0
  140.0370   68.0160  227.2050 C   0  0  0  0  0  0  0  0  0  0  0  0
  140.6810   68.5720  228.2910 C   0  0  0  0  0  0  0  0  0  0  0  0
  140.9240   67.8060  229.3740 F   0  0  0  0  0  0  0  0  0  0  0  0
  141.0630   69.8890  228.2560 C   0  0  0  0  0  0  0  0  0  0  0  0
  140.8220   70.6880  227.1550 C   0  0  0  0  0  0  0  0  0  0  0  0
  140.1820   70.1540  226.0600 C   0  0  0  0  0  0  0  0  0  0  0  0
  139.9430   70.9340  224.9770 N   0  0  0  0  0  0  0  0  0  0  0  0
  139.7890   73.0170  223.6650 H   0  0  0  0  0  0  0  0  0  0  0  0
  139.0675   72.8894  220.7110 H   0  0  0  0  0  0  0  0  0  0  0  0
  138.1707   74.0331  221.7659 H   0  0  0  0  0  0  0  0  0  0  0  0
  138.3955   75.0268  219.8808 H   0  0  0  0  0  0  0  0  0  0  0  0
  138.1406   76.5139  220.9070 H   0  0  0  0  0  0  0  0  0  0  0  0
  139.2281   76.2582  218.1239 H   0  0  0  0  0  0  0  0  0  0  0  0
  138.0046   77.3990  218.8199 H   0  0  0  0  0  0  0  0  0  0  0  0
  140.1965   78.4693  218.2531 H   0  0  0  0  0  0  0  0  0  0  0  0
  139.7089   78.6185  219.9856 H   0  0  0  0  0  0  0  0  0  0  0  0
  141.6041   76.4773  218.9228 H   0  0  0  0  0  0  0  0  0  0  0  0
  142.1505   78.0192  219.6295 H   0  0  0  0  0  0  0  0  0  0  0  0
  142.0020   76.1809  221.4082 H   0  0  0  0  0  0  0  0  0  0  0  0
  138.8213   77.2096  222.1510 H   0  0  0  0  0  0  0  0  0  0  0  0
  138.2324   78.9570  223.7497 H   0  0  0  0  0  0  0  0  0  0  0  0
  139.9237   80.6051  224.5248 H   0  0  0  0  0  0  0  0  0  0  0  0
  142.8356   78.6574  222.0064 H   0  0  0  0  0  0  0  0  0  0  0  0
  138.4300   68.6800  223.0776 H   0  0  0  0  0  0  0  0  0  0  0  0
  138.8559   67.2377  225.0337 H   0  0  0  0  0  0  0  0  0  0  0  0
  139.7184   66.9632  227.2055 H   0  0  0  0  0  0  0  0  0  0  0  0
  141.5753   70.3208  229.1285 H   0  0  0  0  0  0  0  0  0  0  0  0
  141.1388   71.7414  227.1537 H   0  0  0  0  0  0  0  0  0  0  0  0
  1  2  2  0
  2  3  1  0
  3  4  1  0
  4  5  1  0
  5  6  2  0
  5  7  1  0
  7  8  1  0
  8  9  1  0
  9 10  1  0
 10 11  1  0
 11 12  1  0
 12 13  1  0
 13 14  2  0
 14 15  1  0
 15 16  2  0
 16 17  1  0
 17 18  1  0
 17 19  2  0
  2 20  1  0
 20 21  2  0
 21 22  1  0
 22 23  2  0
 23 24  1  0
 24 25  2  0
 25 26  1  0
 25 27  1  0
 27 28  2  0
 28 29  1  0
 29 30  2  0
 12  7  1  0
 19 13  1  0
 30 20  1  0
 29 23  1  0
  3 31  1  0
  4 32  1  0
  4 33  1  0
  8 34  1  0
  8 35  1  0
  9 36  1  0
  9 37  1  0
 10 38  1  0
 10 39  1  0
 11 40  1  0
 11 41  1  0
 12 42  1  1
 14 43  1  0
 15 44  1  0
 16 45  1  0
 19 46  1  0
 21 47  1  0
 22 48  1  0
 24 49  1  0
 27 50  1  0
 28 51  1  0
M  END
>  <smiles>  (93) 
O=C(NCC(=O)N1CCCCC1c1cccc(Cl)c1)c1ccc2cc(F)ccc2n1

>  <score_type>  (93) 
oracle

>  <origin>  (93) 
autodockgpu

>  <m_score__min__energy>  (93) 
-9.2799999999999994

>  <m_primary>  (93) 
energy

>  <rmsd>  (93) 
1.384519962209532

>  <m_score__min__rmsd>  (93) 
1.384519962209532

>  <meeko>  (93) 
{"free_energy": -8.8, "intermolecular_energy": -10.3, "internal_energy": -1.77, "cluster_size": 36, "cluster_id": 1, "rank_in_cluster": 24}

>  <energy>  (93) 
-8.97

>  <cluster_rmsd>  (93) 
0.2

>  <cluster>  (93) 
2

$$$$

     RDKit          3D

 51 54  0  0  0  0  0  0  0  0999 V2000
  141.4310   71.8860  221.6110 O   0  0  0  0  0  0  0  0  0  0  0  0
  140.5740   72.2520  222.4490 C   0  0  0  0  0  0  0  0  0  0  0  0
  139.8040   73.4420  222.3280 N   0  0  0  0  0  0  0  0  0  0  0  0
  139.9810   74.3180  221.1860 C   0  0  0  0  0  0  0  0  0  0  0  0
  139.4360   75.6610  221.5050 C   0  0  0  0  0  0  0  0  0  0  0  0
  138.4850   75.6900  222.3470 O   0  0  0  0  0  0  0  0  0  0  0  0
  139.9520   76.8490  220.8990 N   0  0  0  0  0  0  0  0  0  0  0  0
  139.1990   77.4390  219.8410 C   0  0  0  0  0  0  0  0  0  0  0  0
  140.0640   78.0810  218.7810 C   0  0  0  0  0  0  0  0  0  0  0  0
  141.3170   78.6850  219.3770 C   0  0  0  0  0  0  0  0  0  0  0  0
  142.0610   77.6640  220.2090 C   0  0  0  0  0  0  0  0  0  0  0  0
  141.2070   77.3540  221.4170 C   0  0  1  0  0  0  0  0  0  0  0  0
  141.0950   78.5450  222.2480 C   0  0  0  0  0  0  0  0  0  0  0  0
  142.2740   79.2400  222.5380 C   0  0  0  0  0  0  0  0  0  0  0  0
  142.2840   80.3770  223.3020 C   0  0  0  0  0  0  0  0  0  0  0  0
  141.1210   80.8960  223.8280 C   0  0  0  0  0  0  0  0  0  0  0  0
  139.9420   80.2280  223.5560 C   0  0  0  0  0  0  0  0  0  0  0  0
  138.4550   80.8750  224.2170 Cl  0  0  0  0  0  0  0  0  0  0  0  0
  139.9450   79.0680  222.7750 C   0  0  0  0  0  0  0  0  0  0  0  0
  140.3490   71.4030  223.6320 C   0  0  0  0  0  0  0  0  0  0  0  0
  139.6530   70.2190  223.5360 C   0  0  0  0  0  0  0  0  0  0  0  0
  139.4130   69.3850  224.6070 C   0  0  0  0  0  0  0  0  0  0  0  0
  139.8950   69.7640  225.8280 C   0  0  0  0  0  0  0  0  0  0  0  0
  139.6530   68.9290  226.8990 C   0  0  0  0  0  0  0  0  0  0  0  0
  140.1440   69.3180  228.1290 C   0  0  0  0  0  0  0  0  0  0  0  0
  139.9290   68.5300  229.2020 F   0  0  0  0  0  0  0  0  0  0  0  0
  140.8390   70.4950  228.2430 C   0  0  0  0  0  0  0  0  0  0  0  0
  141.0680   71.3140  227.1550 C   0  0  0  0  0  0  0  0  0  0  0  0
  140.5870   70.9450  225.9190 C   0  0  0  0  0  0  0  0  0  0  0  0
  140.8100   71.7460  224.8470 N   0  0  0  0  0  0  0  0  0  0  0  0
  139.1020   73.6640  223.0930 H   0  0  0  0  0  0  0  0  0  0  0  0
  141.0523   74.4031  220.9514 H   0  0  0  0  0  0  0  0  0  0  0  0
  139.4481   73.9022  220.3182 H   0  0  0  0  0  0  0  0  0  0  0  0
  138.5888   76.6559  219.3673 H   0  0  0  0  0  0  0  0  0  0  0  0
  138.5804   78.2336  220.2836 H   0  0  0  0  0  0  0  0  0  0  0  0
  140.3515   77.3171  218.0436 H   0  0  0  0  0  0  0  0  0  0  0  0
  139.4855   78.8868  218.3056 H   0  0  0  0  0  0  0  0  0  0  0  0
  141.9711   79.0340  218.5643 H   0  0  0  0  0  0  0  0  0  0  0  0
  141.0297   79.5264  220.0247 H   0  0  0  0  0  0  0  0  0  0  0  0
  142.2266   76.7491  219.6212 H   0  0  0  0  0  0  0  0  0  0  0  0
  143.0416   78.0555  220.5176 H   0  0  0  0  0  0  0  0  0  0  0  0
  141.6359   76.5896  222.0817 H   0  0  0  0  0  0  0  0  0  0  0  0
  143.2260   78.8603  222.1387 H   0  0  0  0  0  0  0  0  0  0  0  0
  143.2392   80.8856  223.4994 H   0  0  0  0  0  0  0  0  0  0  0  0
  141.1306   81.8087  224.4420 H   0  0  0  0  0  0  0  0  0  0  0  0
  138.9905   78.5583  222.5774 H   0  0  0  0  0  0  0  0  0  0  0  0
  139.2669   69.9220  222.5497 H   0  0  0  0  0  0  0  0  0  0  0  0
  138.8527   68.4466  224.4829 H   0  0  0  0  0  0  0  0  0  0  0  0
  139.0914   67.9910  226.7777 H   0  0  0  0  0  0  0  0  0  0  0  0
  141.2247   70.7949  229.2285 H   0  0  0  0  0  0  0  0  0  0  0  0
  141.6294   72.2523  227.2748 H   0  0  0  0  0  0  0  0  0  0  0  0
  1  2  2  0
  2  3  1  0
  3  4  1  0
  4  5  1  0
  5  6  2  0
  5  7  1  0
  7  8  1  0
  8  9  1  0
  9 10  1  0
 10 11  1  0
 11 12  1  0
 12 13  1  0
 13 14  2  0
 14 15  1  0
 15 16  2  0
 16 17  1  0
 17 18  1  0
 17 19  2  0
  2 20  1  0
 20 21  2  0
 21 22  1  0
 22 23  2  0
 23 24  1  0
 24 25  2  0
 25 26  1  0
 25 27  1  0
 27 28  2  0
 28 29  1  0
 29 30  2  0
 12  7  1  0
 19 13  1  0
 30 20  1  0
 29 23  1  0
  3 31  1  0
  4 32  1  0
  4 33  1  0
  8 34  1  0
  8 35  1  0
  9 36  1  0
  9 37  1  0
 10 38  1  0
 10 39  1  0
 11 40  1  0
 11 41  1  0
 12 42  1  1
 14 43  1  0
 15 44  1  0
 16 45  1  0
 19 46  1  0
 21 47  1  0
 22 48  1  0
 24 49  1  0
 27 50  1  0
 28 51  1  0
M  END
>  <smiles>  (94) 
O=C(NCC(=O)N1CCCCC1c1cccc(Cl)c1)c1ccc2cc(F)ccc2n1

>  <score_type>  (94) 
oracle

>  <origin>  (94) 
autodockgpu

>  <m_score__min__energy>  (94) 
-9.2799999999999994

>  <m_primary>  (94) 
energy

>  <rmsd>  (94) 
1.946614255070683

>  <m_score__min__rmsd>  (94) 
1.946614255070683

>  <meeko>  (94) 
{"free_energy": -9.15, "intermolecular_energy": -10.64, "internal_energy": -1.9, "cluster_size": 36, "cluster_id": 1, "rank_in_cluster": 6}

>  <energy>  (94) 
-8.59

>  <cluster_rmsd>  (94) 
1.18

>  <cluster>  (94) 
2

$$$$

     RDKit          3D

 51 54  0  0  0  0  0  0  0  0999 V2000
  137.0970   76.1040  222.1850 O   0  0  0  0  0  0  0  0  0  0  0  0
  138.3400   76.1320  222.3390 C   0  0  0  0  0  0  0  0  0  0  0  0
  139.1850   74.9970  222.1900 N   0  0  0  0  0  0  0  0  0  0  0  0
  138.6240   73.7070  221.8370 C   0  0  0  0  0  0  0  0  0  0  0  0
  139.7020   72.6870  221.8300 C   0  0  0  0  0  0  0  0  0  0  0  0
  140.8260   73.0670  221.3760 O   0  0  0  0  0  0  0  0  0  0  0  0
  139.4850   71.3570  222.3070 N   0  0  0  0  0  0  0  0  0  0  0  0
  140.0060   70.2770  221.5330 C   0  0  0  0  0  0  0  0  0  0  0  0
  139.1360   69.0420  221.5740 C   0  0  0  0  0  0  0  0  0  0  0  0
  138.4630   68.8800  222.9200 C   0  0  0  0  0  0  0  0  0  0  0  0
  137.7180   70.1410  223.3020 C   0  0  0  0  0  0  0  0  0  0  0  0
  138.7480   71.2190  223.5480 C   0  0  1  0  0  0  0  0  0  0  0  0
  139.5550   70.8620  224.7060 C   0  0  0  0  0  0  0  0  0  0  0  0
  140.6360   71.6940  225.0180 C   0  0  0  0  0  0  0  0  0  0  0  0
  141.4560   71.4570  226.0900 C   0  0  0  0  0  0  0  0  0  0  0  0
  141.2530   70.3780  226.9210 C   0  0  0  0  0  0  0  0  0  0  0  0
  140.1910   69.5400  226.6350 C   0  0  0  0  0  0  0  0  0  0  0  0
  139.9200   68.1640  227.6830 Cl  0  0  0  0  0  0  0  0  0  0  0  0
  139.3620   69.7920  225.5380 C   0  0  0  0  0  0  0  0  0  0  0  0
  138.9680   77.4160  222.6980 C   0  0  0  0  0  0  0  0  0  0  0  0
  138.2060   78.5230  222.9960 C   0  0  0  0  0  0  0  0  0  0  0  0
  138.7380   79.7480  223.3380 C   0  0  0  0  0  0  0  0  0  0  0  0
  140.1000   79.8600  223.3800 C   0  0  0  0  0  0  0  0  0  0  0  0
  140.6310   81.0860  223.7220 C   0  0  0  0  0  0  0  0  0  0  0  0
  142.0060   81.1910  223.7640 C   0  0  0  0  0  0  0  0  0  0  0  0
  142.5660   82.3730  224.0940 F   0  0  0  0  0  0  0  0  0  0  0  0
  142.7810   80.0980  223.4700 C   0  0  0  0  0  0  0  0  0  0  0  0
  142.2250   78.8810  223.1300 C   0  0  0  0  0  0  0  0  0  0  0  0
  140.8550   78.7540  223.0830 C   0  0  0  0  0  0  0  0  0  0  0  0
  140.3030   77.5600  222.7500 N   0  0  0  0  0  0  0  0  0  0  0  0
  140.2280   75.1260  222.3420 H   0  0  0  0  0  0  0  0  0  0  0  0
  137.8573   73.4259  222.5740 H   0  0  0  0  0  0  0  0  0  0  0  0
  138.1666   73.7656  220.8383 H   0  0  0  0  0  0  0  0  0  0  0  0
  140.0954   70.6072  220.4876 H   0  0  0  0  0  0  0  0  0  0  0  0
  140.9804   70.0052  221.9649 H   0  0  0  0  0  0  0  0  0  0  0  0
  138.3630   69.1237  220.7957 H   0  0  0  0  0  0  0  0  0  0  0  0
  139.7758   68.1641  221.4010 H   0  0  0  0  0  0  0  0  0  0  0  0
  137.7521   68.0421  222.8695 H   0  0  0  0  0  0  0  0  0  0  0  0
  139.2342   68.6817  223.6789 H   0  0  0  0  0  0  0  0  0  0  0  0
  137.0462   70.4426  222.4849 H   0  0  0  0  0  0  0  0  0  0  0  0
  137.1088   69.9738  224.2026 H   0  0  0  0  0  0  0  0  0  0  0  0
  138.3159   72.1983  223.8013 H   0  0  0  0  0  0  0  0  0  0  0  0
  140.8344   72.5684  224.3808 H   0  0  0  0  0  0  0  0  0  0  0  0
  142.2928   72.1422  226.2906 H   0  0  0  0  0  0  0  0  0  0  0  0
  141.9120   70.1895  227.7814 H   0  0  0  0  0  0  0  0  0  0  0  0
  138.5255   69.1067  225.3362 H   0  0  0  0  0  0  0  0  0  0  0  0
  137.1110   78.4247  222.9592 H   0  0  0  0  0  0  0  0  0  0  0  0
  138.0891   80.6057  223.5691 H   0  0  0  0  0  0  0  0  0  0  0  0
  139.9843   81.9455  223.9520 H   0  0  0  0  0  0  0  0  0  0  0  0
  143.8762   80.1939  223.5062 H   0  0  0  0  0  0  0  0  0  0  0  0
  142.8706   78.0209  222.8988 H   0  0  0  0  0  0  0  0  0  0  0  0
  1  2  2  0
  2  3  1  0
  3  4  1  0
  4  5  1  0
  5  6  2  0
  5  7  1  0
  7  8  1  0
  8  9  1  0
  9 10  1  0
 10 11  1  0
 11 12  1  0
 12 13  1  0
 13 14  2  0
 14 15  1  0
 15 16  2  0
 16 17  1  0
 17 18  1  0
 17 19  2  0
  2 20  1  0
 20 21  2  0
 21 22  1  0
 22 23  2  0
 23 24  1  0
 24 25  2  0
 25 26  1  0
 25 27  1  0
 27 28  2  0
 28 29  1  0
 29 30  2  0
 12  7  1  0
 19 13  1  0
 30 20  1  0
 29 23  1  0
  3 31  1  0
  4 32  1  0
  4 33  1  0
  8 34  1  0
  8 35  1  0
  9 36  1  0
  9 37  1  0
 10 38  1  0
 10 39  1  0
 11 40  1  0
 11 41  1  0
 12 42  1  1
 14 43  1  0
 15 44  1  0
 16 45  1  0
 19 46  1  0
 21 47  1  0
 22 48  1  0
 24 49  1  0
 27 50  1  0
 28 51  1  0
M  END
>  <smiles>  (95) 
O=C(NCC(=O)N1CCCCC1c1cccc(Cl)c1)c1ccc2cc(F)ccc2n1

>  <score_type>  (95) 
oracle

>  <origin>  (95) 
autodockgpu

>  <m_score__min__energy>  (95) 
-9.2799999999999994

>  <m_primary>  (95) 
energy

>  <rmsd>  (95) 
8.469503888693163

>  <m_score__min__rmsd>  (95) 
8.469503888693163

>  <meeko>  (95) 
{"free_energy": -8.15, "intermolecular_energy": -9.64, "internal_energy": -1.92, "cluster_size": 2, "cluster_id": 3, "rank_in_cluster": 1}

>  <energy>  (95) 
-8.15

>  <cluster_rmsd>  (95) 
0.0

>  <cluster>  (95) 
3

$$$$

     RDKit          3D

 51 54  0  0  0  0  0  0  0  0999 V2000
  140.2610   71.4030  221.1780 O   0  0  0  0  0  0  0  0  0  0  0  0
  140.0220   71.9510  222.2790 C   0  0  0  0  0  0  0  0  0  0  0  0
  139.7640   73.3410  222.4340 N   0  0  0  0  0  0  0  0  0  0  0  0
  139.7660   74.2200  221.2810 C   0  0  0  0  0  0  0  0  0  0  0  0
  139.4780   75.6090  221.7200 C   0  0  0  0  0  0  0  0  0  0  0  0
  138.7300   75.7270  222.7400 O   0  0  0  0  0  0  0  0  0  0  0  0
  140.0120   76.7440  221.0330 N   0  0  0  0  0  0  0  0  0  0  0  0
  139.2870   77.2480  219.9130 C   0  0  0  0  0  0  0  0  0  0  0  0
  140.1790   77.8010  218.8270 C   0  0  0  0  0  0  0  0  0  0  0  0
  141.4190   78.4500  219.4020 C   0  0  0  0  0  0  0  0  0  0  0  0
  142.1400   77.4990  220.3320 C   0  0  0  0  0  0  0  0  0  0  0  0
  141.2560   77.2880  221.5400 C   0  0  1  0  0  0  0  0  0  0  0  0
  141.1270   78.5420  222.2690 C   0  0  0  0  0  0  0  0  0  0  0  0
  142.2800   79.3190  222.4210 C   0  0  0  0  0  0  0  0  0  0  0  0
  142.2720   80.5200  223.0810 C   0  0  0  0  0  0  0  0  0  0  0  0
  141.1160   81.0240  223.6330 C   0  0  0  0  0  0  0  0  0  0  0  0
  139.9610   80.2760  223.4970 C   0  0  0  0  0  0  0  0  0  0  0  0
  138.4830   80.9040  224.1930 Cl  0  0  0  0  0  0  0  0  0  0  0  0
  139.9830   79.0520  222.8220 C   0  0  0  0  0  0  0  0  0  0  0  0
  140.0070   71.1080  223.4880 C   0  0  0  0  0  0  0  0  0  0  0  0
  139.5860   69.7980  223.4380 C   0  0  0  0  0  0  0  0  0  0  0  0
  139.5510   68.9640  224.5350 C   0  0  0  0  0  0  0  0  0  0  0  0
  139.9580   69.4750  225.7350 C   0  0  0  0  0  0  0  0  0  0  0  0
  139.9210   68.6400  226.8320 C   0  0  0  0  0  0  0  0  0  0  0  0
  140.3350   69.1630  228.0400 C   0  0  0  0  0  0  0  0  0  0  0  0
  140.3150   68.3800  229.1380 F   0  0  0  0  0  0  0  0  0  0  0  0
  140.7570   70.4670  228.1090 C   0  0  0  0  0  0  0  0  0  0  0  0
  140.7840   71.2830  226.9960 C   0  0  0  0  0  0  0  0  0  0  0  0
  140.3760   70.7810  225.7800 C   0  0  0  0  0  0  0  0  0  0  0  0
  140.4010   71.5790  224.6830 N   0  0  0  0  0  0  0  0  0  0  0  0
  139.5720   73.7090  223.4120 H   0  0  0  0  0  0  0  0  0  0  0  0
  140.7522   74.1857  220.7949 H   0  0  0  0  0  0  0  0  0  0  0  0
  138.9953   73.8926  220.5677 H   0  0  0  0  0  0  0  0  0  0  0  0
  138.6858   76.4302  219.4890 H   0  0  0  0  0  0  0  0  0  0  0  0
  138.6606   78.0766  220.2750 H   0  0  0  0  0  0  0  0  0  0  0  0
  140.4820   76.9796  218.1611 H   0  0  0  0  0  0  0  0  0  0  0  0
  139.6145   78.5665  218.2744 H   0  0  0  0  0  0  0  0  0  0  0  0
  142.0934   78.7312  218.5797 H   0  0  0  0  0  0  0  0  0  0  0  0
  141.1187   79.3415  219.9722 H   0  0  0  0  0  0  0  0  0  0  0  0
  142.3176   76.5395  219.8243 H   0  0  0  0  0  0  0  0  0  0  0  0
  143.1137   77.9138  220.6319 H   0  0  0  0  0  0  0  0  0  0  0  0
  141.6663   76.5794  222.2745 H   0  0  0  0  0  0  0  0  0  0  0  0
  143.2263   78.9533  221.9959 H   0  0  0  0  0  0  0  0  0  0  0  0
  143.2071   81.0922  223.1714 H   0  0  0  0  0  0  0  0  0  0  0  0
  141.1113   81.9876  224.1635 H   0  0  0  0  0  0  0  0  0  0  0  0
  139.0486   78.4786  222.7320 H   0  0  0  0  0  0  0  0  0  0  0  0
  139.2593   69.3943  222.4683 H   0  0  0  0  0  0  0  0  0  0  0  0
  139.2072   67.9228  224.4473 H   0  0  0  0  0  0  0  0  0  0  0  0
  139.5754   67.5991  226.7474 H   0  0  0  0  0  0  0  0  0  0  0  0
  141.0827   70.8732  229.0780 H   0  0  0  0  0  0  0  0  0  0  0  0
  141.1281   72.3244  227.0794 H   0  0  0  0  0  0  0  0  0  0  0  0
  1  2  2  0
  2  3  1  0
  3  4  1  0
  4  5  1  0
  5  6  2  0
  5  7  1  0
  7  8  1  0
  8  9  1  0
  9 10  1  0
 10 11  1  0
 11 12  1  0
 12 13  1  0
 13 14  2  0
 14 15  1  0
 15 16  2  0
 16 17  1  0
 17 18  1  0
 17 19  2  0
  2 20  1  0
 20 21  2  0
 21 22  1  0
 22 23  2  0
 23 24  1  0
 24 25  2  0
 25 26  1  0
 25 27  1  0
 27 28  2  0
 28 29  1  0
 29 30  2  0
 12  7  1  0
 19 13  1  0
 30 20  1  0
 29 23  1  0
  3 31  1  0
  4 32  1  0
  4 33  1  0
  8 34  1  0
  8 35  1  0
  9 36  1  0
  9 37  1  0
 10 38  1  0
 10 39  1  0
 11 40  1  0
 11 41  1  0
 12 42  1  1
 14 43  1  0
 15 44  1  0
 16 45  1  0
 19 46  1  0
 21 47  1  0
 22 48  1  0
 24 49  1  0
 27 50  1  0
 28 51  1  0
M  END
>  <smiles>  (96) 
O=C(NCC(=O)N1CCCCC1c1cccc(Cl)c1)c1ccc2cc(F)ccc2n1

>  <score_type>  (96) 
oracle

>  <origin>  (96) 
autodockgpu

>  <m_score__min__energy>  (96) 
-9.2799999999999994

>  <m_primary>  (96) 
energy

>  <rmsd>  (96) 
1.7883756026503088

>  <m_score__min__rmsd>  (96) 
1.7883756026503088

>  <meeko>  (96) 
{"free_energy": -8.98, "intermolecular_energy": -10.47, "internal_energy": -2.01, "cluster_size": 36, "cluster_id": 1, "rank_in_cluster": 15}

>  <energy>  (96) 
-7.71

>  <cluster_rmsd>  (96) 
0.74

>  <cluster>  (96) 
3

$$$$

     RDKit          3D

 51 54  0  0  0  0  0  0  0  0999 V2000
  141.1420   71.7130  221.4120 O   0  0  0  0  0  0  0  0  0  0  0  0
  140.4360   72.1580  222.3470 C   0  0  0  0  0  0  0  0  0  0  0  0
  139.8010   73.4310  222.3260 N   0  0  0  0  0  0  0  0  0  0  0  0
  139.9450   74.3040  221.1770 C   0  0  0  0  0  0  0  0  0  0  0  0
  139.4620   75.6630  221.5270 C   0  0  0  0  0  0  0  0  0  0  0  0
  138.5360   75.7190  222.3940 O   0  0  0  0  0  0  0  0  0  0  0  0
  140.0090   76.8370  220.9220 N   0  0  0  0  0  0  0  0  0  0  0  0
  139.2940   77.4230  219.8360 C   0  0  0  0  0  0  0  0  0  0  0  0
  140.1960   78.0420  218.7940 C   0  0  0  0  0  0  0  0  0  0  0  0
  141.4390   78.6400  219.4180 C   0  0  0  0  0  0  0  0  0  0  0  0
  142.1470   77.6210  220.2840 C   0  0  0  0  0  0  0  0  0  0  0  0
  141.2550   77.3350  221.4710 C   0  0  1  0  0  0  0  0  0  0  0  0
  141.1320   78.5370  222.2830 C   0  0  0  0  0  0  0  0  0  0  0  0
  142.3050   79.2460  222.5650 C   0  0  0  0  0  0  0  0  0  0  0  0
  142.3060   80.3940  223.3120 C   0  0  0  0  0  0  0  0  0  0  0  0
  141.1380   80.9110  223.8280 C   0  0  0  0  0  0  0  0  0  0  0  0
  139.9640   80.2300  223.5650 C   0  0  0  0  0  0  0  0  0  0  0  0
  138.4720   80.8760  224.2130 Cl  0  0  0  0  0  0  0  0  0  0  0  0
  139.9770   79.0600  222.8010 C   0  0  0  0  0  0  0  0  0  0  0  0
  140.2520   71.3160  223.5420 C   0  0  0  0  0  0  0  0  0  0  0  0
  139.6120   70.0990  223.4640 C   0  0  0  0  0  0  0  0  0  0  0  0
  139.4120   69.2690  224.5470 C   0  0  0  0  0  0  0  0  0  0  0  0
  139.8770   69.6880  225.7620 C   0  0  0  0  0  0  0  0  0  0  0  0
  139.6750   68.8580  226.8450 C   0  0  0  0  0  0  0  0  0  0  0  0
  140.1490   69.2860  228.0680 C   0  0  0  0  0  0  0  0  0  0  0  0
  139.9720   68.5040  229.1530 F   0  0  0  0  0  0  0  0  0  0  0  0
  140.7880   70.4960  228.1650 C   0  0  0  0  0  0  0  0  0  0  0  0
  140.9780   71.3090  227.0650 C   0  0  0  0  0  0  0  0  0  0  0  0
  140.5140   70.9010  225.8350 C   0  0  0  0  0  0  0  0  0  0  0  0
  140.6980   71.6960  224.7510 N   0  0  0  0  0  0  0  0  0  0  0  0
  139.2230   73.7160  223.1700 H   0  0  0  0  0  0  0  0  0  0  0  0
  141.0044   74.3549  220.8852 H   0  0  0  0  0  0  0  0  0  0  0  0
  139.3532   73.9083  220.3384 H   0  0  0  0  0  0  0  0  0  0  0  0
  138.6882   76.6415  219.3541 H   0  0  0  0  0  0  0  0  0  0  0  0
  138.6728   78.2302  220.2515 H   0  0  0  0  0  0  0  0  0  0  0  0
  140.4957   77.2657  218.0746 H   0  0  0  0  0  0  0  0  0  0  0  0
  139.6404   78.8483  218.2928 H   0  0  0  0  0  0  0  0  0  0  0  0
  142.1200   78.9709  218.6200 H   0  0  0  0  0  0  0  0  0  0  0  0
  141.1434   79.4932  220.0463 H   0  0  0  0  0  0  0  0  0  0  0  0
  142.3191   76.6971  219.7123 H   0  0  0  0  0  0  0  0  0  0  0  0
  143.1224   78.0059  220.6162 H   0  0  0  0  0  0  0  0  0  0  0  0
  141.6560   76.5746  222.1573 H   0  0  0  0  0  0  0  0  0  0  0  0
  143.2605   78.8678  222.1727 H   0  0  0  0  0  0  0  0  0  0  0  0
  143.2569   80.9127  223.5034 H   0  0  0  0  0  0  0  0  0  0  0  0
  141.1394   81.8330  224.4280 H   0  0  0  0  0  0  0  0  0  0  0  0
  139.0264   78.5409  222.6089 H   0  0  0  0  0  0  0  0  0  0  0  0
  139.2394   69.7705  222.4826 H   0  0  0  0  0  0  0  0  0  0  0  0
  138.8963   68.3036  224.4369 H   0  0  0  0  0  0  0  0  0  0  0  0
  139.1568   67.8936  226.7379 H   0  0  0  0  0  0  0  0  0  0  0  0
  141.1592   70.8278  229.1459 H   0  0  0  0  0  0  0  0  0  0  0  0
  141.4955   72.2739  227.1708 H   0  0  0  0  0  0  0  0  0  0  0  0
  1  2  2  0
  2  3  1  0
  3  4  1  0
  4  5  1  0
  5  6  2  0
  5  7  1  0
  7  8  1  0
  8  9  1  0
  9 10  1  0
 10 11  1  0
 11 12  1  0
 12 13  1  0
 13 14  2  0
 14 15  1  0
 15 16  2  0
 16 17  1  0
 17 18  1  0
 17 19  2  0
  2 20  1  0
 20 21  2  0
 21 22  1  0
 22 23  2  0
 23 24  1  0
 24 25  2  0
 25 26  1  0
 25 27  1  0
 27 28  2  0
 28 29  1  0
 29 30  2  0
 12  7  1  0
 19 13  1  0
 30 20  1  0
 29 23  1  0
  3 31  1  0
  4 32  1  0
  4 33  1  0
  8 34  1  0
  8 35  1  0
  9 36  1  0
  9 37  1  0
 10 38  1  0
 10 39  1  0
 11 40  1  0
 11 41  1  0
 12 42  1  1
 14 43  1  0
 15 44  1  0
 16 45  1  0
 19 46  1  0
 21 47  1  0
 22 48  1  0
 24 49  1  0
 27 50  1  0
 28 51  1  0
M  END
>  <smiles>  (97) 
O=C(NCC(=O)N1CCCCC1c1cccc(Cl)c1)c1ccc2cc(F)ccc2n1

>  <score_type>  (97) 
oracle

>  <origin>  (97) 
autodockgpu

>  <m_score__min__energy>  (97) 
-9.2799999999999994

>  <m_primary>  (97) 
energy

>  <rmsd>  (97) 
1.9127478778061893

>  <m_score__min__rmsd>  (97) 
1.9127478778061893

>  <meeko>  (97) 
{"free_energy": -9.15, "intermolecular_energy": -10.64, "internal_energy": -1.92, "cluster_size": 36, "cluster_id": 1, "rank_in_cluster": 7}

>  <energy>  (97) 
-7.5

>  <cluster_rmsd>  (97) 
0.0

>  <cluster>  (97) 
4

$$$$

     RDKit          3D

 51 54  0  0  0  0  0  0  0  0999 V2000
  140.0030   70.9300  221.1650 O   0  0  0  0  0  0  0  0  0  0  0  0
  139.7330   71.5050  222.2450 C   0  0  0  0  0  0  0  0  0  0  0  0
  139.3780   72.8780  222.3460 N   0  0  0  0  0  0  0  0  0  0  0  0
  139.3080   73.7070  221.1580 C   0  0  0  0  0  0  0  0  0  0  0  0
  139.0050   75.1070  221.5510 C   0  0  0  0  0  0  0  0  0  0  0  0
  138.1200   75.2540  222.4490 O   0  0  0  0  0  0  0  0  0  0  0  0
  139.6730   76.2200  220.9510 N   0  0  0  0  0  0  0  0  0  0  0  0
  139.0840   76.8050  219.7920 C   0  0  0  0  0  0  0  0  0  0  0  0
  140.1030   77.3250  218.8050 C   0  0  0  0  0  0  0  0  0  0  0  0
  141.3290   77.8690  219.5050 C   0  0  0  0  0  0  0  0  0  0  0  0
  141.9000   76.8430  220.4600 C   0  0  0  0  0  0  0  0  0  0  0  0
  140.9020   76.6600  221.5800 C   0  0  1  0  0  0  0  0  0  0  0  0
  140.7950   77.8990  222.3380 C   0  0  0  0  0  0  0  0  0  0  0  0
  139.5150   78.3050  222.7300 C   0  0  0  0  0  0  0  0  0  0  0  0
  139.2980   79.4480  223.4540 C   0  0  0  0  0  0  0  0  0  0  0  0
  140.3430   80.2610  223.8340 C   0  0  0  0  0  0  0  0  0  0  0  0
  141.6190   79.8830  223.4600 C   0  0  0  0  0  0  0  0  0  0  0  0
  142.9560   80.9070  223.9370 Cl  0  0  0  0  0  0  0  0  0  0  0  0
  141.8260   78.7150  222.7220 C   0  0  0  0  0  0  0  0  0  0  0  0
  139.7860   70.7140  223.4880 C   0  0  0  0  0  0  0  0  0  0  0  0
  139.2430   69.4510  223.5520 C   0  0  0  0  0  0  0  0  0  0  0  0
  139.2640   68.6660  224.6850 C   0  0  0  0  0  0  0  0  0  0  0  0
  139.8600   69.1790  225.8020 C   0  0  0  0  0  0  0  0  0  0  0  0
  139.8790   68.3930  226.9360 C   0  0  0  0  0  0  0  0  0  0  0  0
  140.4840   68.9190  228.0600 C   0  0  0  0  0  0  0  0  0  0  0  0
  140.5250   68.1820  229.1890 F   0  0  0  0  0  0  0  0  0  0  0  0
  141.0310   70.1750  228.0140 C   0  0  0  0  0  0  0  0  0  0  0  0
  140.9980   70.9430  226.8660 C   0  0  0  0  0  0  0  0  0  0  0  0
  140.4000   70.4380  225.7330 C   0  0  0  0  0  0  0  0  0  0  0  0
  140.3660   71.1880  224.6030 N   0  0  0  0  0  0  0  0  0  0  0  0
  139.1670   73.2710  223.3100 H   0  0  0  0  0  0  0  0  0  0  0  0
  140.2726   73.6744  220.6303 H   0  0  0  0  0  0  0  0  0  0  0  0
  138.5152   73.3318  220.4941 H   0  0  0  0  0  0  0  0  0  0  0  0
  138.4683   76.0438  219.2906 H   0  0  0  0  0  0  0  0  0  0  0  0
  138.4855   77.6647  220.1278 H   0  0  0  0  0  0  0  0  0  0  0  0
  140.4069   76.5036  218.1395 H   0  0  0  0  0  0  0  0  0  0  0  0
  139.6416   78.1436  218.2331 H   0  0  0  0  0  0  0  0  0  0  0  0
  142.0900   78.1252  218.7532 H   0  0  0  0  0  0  0  0  0  0  0  0
  141.0414   78.7631  220.0775 H   0  0  0  0  0  0  0  0  0  0  0  0
  142.0560   75.8883  219.9363 H   0  0  0  0  0  0  0  0  0  0  0  0
  142.8694   77.1796  220.8561 H   0  0  0  0  0  0  0  0  0  0  0  0
  141.1979   75.9033  222.3215 H   0  0  0  0  0  0  0  0  0  0  0  0
  138.6519   77.6846  222.4470 H   0  0  0  0  0  0  0  0  0  0  0  0
  138.2707   79.7212  223.7368 H   0  0  0  0  0  0  0  0  0  0  0  0
  140.1683   81.1788  224.4147 H   0  0  0  0  0  0  0  0  0  0  0  0
  142.8531   78.4410  222.4393 H   0  0  0  0  0  0  0  0  0  0  0  0
  138.7653   69.0450  222.6481 H   0  0  0  0  0  0  0  0  0  0  0  0
  138.8163   67.6612  224.6895 H   0  0  0  0  0  0  0  0  0  0  0  0
  139.4305   67.3886  226.9441 H   0  0  0  0  0  0  0  0  0  0  0  0
  141.5097   70.5829  228.9165 H   0  0  0  0  0  0  0  0  0  0  0  0
  141.4450   71.9480  226.8571 H   0  0  0  0  0  0  0  0  0  0  0  0
  1  2  2  0
  2  3  1  0
  3  4  1  0
  4  5  1  0
  5  6  2  0
  5  7  1  0
  7  8  1  0
  8  9  1  0
  9 10  1  0
 10 11  1  0
 11 12  1  0
 12 13  1  0
 13 14  2  0
 14 15  1  0
 15 16  2  0
 16 17  1  0
 17 18  1  0
 17 19  2  0
  2 20  1  0
 20 21  2  0
 21 22  1  0
 22 23  2  0
 23 24  1  0
 24 25  2  0
 25 26  1  0
 25 27  1  0
 27 28  2  0
 28 29  1  0
 29 30  2  0
 12  7  1  0
 19 13  1  0
 30 20  1  0
 29 23  1  0
  3 31  1  0
  4 32  1  0
  4 33  1  0
  8 34  1  0
  8 35  1  0
  9 36  1  0
  9 37  1  0
 10 38  1  0
 10 39  1  0
 11 40  1  0
 11 41  1  0
 12 42  1  1
 14 43  1  0
 15 44  1  0
 16 45  1  0
 19 46  1  0
 21 47  1  0
 22 48  1  0
 24 49  1  0
 27 50  1  0
 28 51  1  0
M  END
>  <smiles>  (98) 
O=C(NCC(=O)N1CCCCC1c1cccc(Cl)c1)c1ccc2cc(F)ccc2n1

>  <score_type>  (98) 
oracle

>  <origin>  (98) 
autodockgpu

>  <m_score__min__energy>  (98) 
-9.2799999999999994

>  <m_primary>  (98) 
energy

>  <rmsd>  (98) 
1.6068917326331884

>  <m_score__min__rmsd>  (98) 
1.6068917326331884

>  <meeko>  (98) 
{"free_energy": -8.83, "intermolecular_energy": -10.32, "internal_energy": -1.82, "cluster_size": 36, "cluster_id": 1, "rank_in_cluster": 21}

>  <energy>  (98) 
-7.46

>  <cluster_rmsd>  (98) 
0.17

>  <cluster>  (98) 
4

$$$$

     RDKit          3D

 51 54  0  0  0  0  0  0  0  0999 V2000
  140.9900   72.5930  221.2340 O   0  0  0  0  0  0  0  0  0  0  0  0
  140.2060   72.8690  222.1720 C   0  0  0  0  0  0  0  0  0  0  0  0
  139.4650   74.0800  222.2580 N   0  0  0  0  0  0  0  0  0  0  0  0
  139.5880   75.0900  221.2240 C   0  0  0  0  0  0  0  0  0  0  0  0
  140.8720   75.8160  221.3940 C   0  0  0  0  0  0  0  0  0  0  0  0
  141.8960   75.0950  221.6030 O   0  0  0  0  0  0  0  0  0  0  0  0
  140.9460   77.2420  221.3270 N   0  0  0  0  0  0  0  0  0  0  0  0
  140.9490   77.8500  220.0370 C   0  0  0  0  0  0  0  0  0  0  0  0
  141.7940   79.1010  219.9700 C   0  0  0  0  0  0  0  0  0  0  0  0
  141.7580   79.8680  221.2740 C   0  0  0  0  0  0  0  0  0  0  0  0
  142.1230   78.9680  222.4350 C   0  0  0  0  0  0  0  0  0  0  0  0
  141.0140   77.9530  222.5890 C   0  0  1  0  0  0  0  0  0  0  0  0
  139.7870   78.6330  222.9780 C   0  0  0  0  0  0  0  0  0  0  0  0
  139.9090   79.7760  223.7740 C   0  0  0  0  0  0  0  0  0  0  0  0
  138.8220   80.4990  224.1910 C   0  0  0  0  0  0  0  0  0  0  0  0
  137.5420   80.1300  223.8420 C   0  0  0  0  0  0  0  0  0  0  0  0
  137.3920   79.0030  223.0550 C   0  0  0  0  0  0  0  0  0  0  0  0
  135.7710   78.5220  222.6030 Cl  0  0  0  0  0  0  0  0  0  0  0  0
  138.5090   78.2750  222.6360 C   0  0  0  0  0  0  0  0  0  0  0  0
  140.0390   71.8810  223.2530 C   0  0  0  0  0  0  0  0  0  0  0  0
  139.2650   70.7570  223.0770 C   0  0  0  0  0  0  0  0  0  0  0  0
  139.0730   69.8000  224.0510 C   0  0  0  0  0  0  0  0  0  0  0  0
  139.6900   69.9880  225.2560 C   0  0  0  0  0  0  0  0  0  0  0  0
  139.4970   69.0310  226.2310 C   0  0  0  0  0  0  0  0  0  0  0  0
  140.1230   69.2280  227.4440 C   0  0  0  0  0  0  0  0  0  0  0  0
  139.9610   68.3150  228.4240 F   0  0  0  0  0  0  0  0  0  0  0  0
  140.8980   70.3430  227.6380 C   0  0  0  0  0  0  0  0  0  0  0  0
  141.0760   71.2870  226.6460 C   0  0  0  0  0  0  0  0  0  0  0  0
  140.4600   71.1110  225.4270 C   0  0  0  0  0  0  0  0  0  0  0  0
  140.6320   72.0350  224.4490 N   0  0  0  0  0  0  0  0  0  0  0  0
  138.8270   74.2190  223.0950 H   0  0  0  0  0  0  0  0  0  0  0  0
  139.5672   74.6077  220.2356 H   0  0  0  0  0  0  0  0  0  0  0  0
  138.7514   75.7999  221.3024 H   0  0  0  0  0  0  0  0  0  0  0  0
  141.3410   77.1241  219.3094 H   0  0  0  0  0  0  0  0  0  0  0  0
  139.9130   78.1431  219.8116 H   0  0  0  0  0  0  0  0  0  0  0  0
  142.8341   78.8179  219.7510 H   0  0  0  0  0  0  0  0  0  0  0  0
  141.3881   79.7484  219.1787 H   0  0  0  0  0  0  0  0  0  0  0  0
  142.4753   80.7004  221.2231 H   0  0  0  0  0  0  0  0  0  0  0  0
  140.7388   80.2511  221.4306 H   0  0  0  0  0  0  0  0  0  0  0  0
  143.0746   78.4562  222.2287 H   0  0  0  0  0  0  0  0  0  0  0  0
  142.2419   79.5549  223.3577 H   0  0  0  0  0  0  0  0  0  0  0  0
  141.1907   77.2180  223.3881 H   0  0  0  0  0  0  0  0  0  0  0  0
  140.9135   80.1068  224.0764 H   0  0  0  0  0  0  0  0  0  0  0  0
  138.9749   81.3910  224.8163 H   0  0  0  0  0  0  0  0  0  0  0  0
  136.6702   80.7109  224.1773 H   0  0  0  0  0  0  0  0  0  0  0  0
  138.3571   77.3835  222.0098 H   0  0  0  0  0  0  0  0  0  0  0  0
  138.7716   70.6138  222.1044 H   0  0  0  0  0  0  0  0  0  0  0  0
  138.4452   68.9162  223.8647 H   0  0  0  0  0  0  0  0  0  0  0  0
  138.8691   68.1465  226.0482 H   0  0  0  0  0  0  0  0  0  0  0  0
  141.3912   70.4892  228.6103 H   0  0  0  0  0  0  0  0  0  0  0  0
  141.7041   72.1715  226.8278 H   0  0  0  0  0  0  0  0  0  0  0  0
  1  2  2  0
  2  3  1  0
  3  4  1  0
  4  5  1  0
  5  6  2  0
  5  7  1  0
  7  8  1  0
  8  9  1  0
  9 10  1  0
 10 11  1  0
 11 12  1  0
 12 13  1  0
 13 14  2  0
 14 15  1  0
 15 16  2  0
 16 17  1  0
 17 18  1  0
 17 19  2  0
  2 20  1  0
 20 21  2  0
 21 22  1  0
 22 23  2  0
 23 24  1  0
 24 25  2  0
 25 26  1  0
 25 27  1  0
 27 28  2  0
 28 29  1  0
 29 30  2  0
 12  7  1  0
 19 13  1  0
 30 20  1  0
 29 23  1  0
  3 31  1  0
  4 32  1  0
  4 33  1  0
  8 34  1  0
  8 35  1  0
  9 36  1  0
  9 37  1  0
 10 38  1  0
 10 39  1  0
 11 40  1  0
 11 41  1  0
 12 42  1  1
 14 43  1  0
 15 44  1  0
 16 45  1  0
 19 46  1  0
 21 47  1  0
 22 48  1  0
 24 49  1  0
 27 50  1  0
 28 51  1  0
M  END
>  <smiles>  (99) 
O=C(NCC(=O)N1CCCCC1c1cccc(Cl)c1)c1ccc2cc(F)ccc2n1

>  <score_type>  (99) 
oracle

>  <origin>  (99) 
autodockgpu

>  <m_score__min__energy>  (99) 
-9.2799999999999994

>  <m_primary>  (99) 
energy

>  <rmsd>  (99) 
2.771723946785269

>  <m_score__min__rmsd>  (99) 
2.771723946785269

>  <meeko>  (99) 
{"free_energy": -8.57, "intermolecular_energy": -10.07, "internal_energy": -1.33, "cluster_size": 36, "cluster_id": 1, "rank_in_cluster": 31}

>  <energy>  (99) 
-7.4

>  <cluster_rmsd>  (99) 
0.48

>  <cluster>  (99) 
4

$$$$

     RDKit          3D

 51 54  0  0  0  0  0  0  0  0999 V2000
  140.9260   71.5550  221.3480 O   0  0  0  0  0  0  0  0  0  0  0  0
  140.3230   72.0060  222.3500 C   0  0  0  0  0  0  0  0  0  0  0  0
  139.7480   73.3060  222.4120 N   0  0  0  0  0  0  0  0  0  0  0  0
  139.8370   74.2020  221.2750 C   0  0  0  0  0  0  0  0  0  0  0  0
  139.5120   75.5840  221.7100 C   0  0  0  0  0  0  0  0  0  0  0  0
  138.7410   75.6850  222.7140 O   0  0  0  0  0  0  0  0  0  0  0  0
  140.0360   76.7300  221.0350 N   0  0  0  0  0  0  0  0  0  0  0  0
  139.3050   77.2420  219.9230 C   0  0  0  0  0  0  0  0  0  0  0  0
  140.1920   77.8150  218.8410 C   0  0  0  0  0  0  0  0  0  0  0  0
  141.4280   78.4660  219.4220 C   0  0  0  0  0  0  0  0  0  0  0  0
  142.1570   77.5090  220.3390 C   0  0  0  0  0  0  0  0  0  0  0  0
  141.2780   77.2770  221.5460 C   0  0  1  0  0  0  0  0  0  0  0  0
  141.1410   78.5210  222.2900 C   0  0  0  0  0  0  0  0  0  0  0  0
  142.2930   79.2950  222.4660 C   0  0  0  0  0  0  0  0  0  0  0  0
  142.2780   80.4870  223.1420 C   0  0  0  0  0  0  0  0  0  0  0  0
  141.1160   80.9850  223.6870 C   0  0  0  0  0  0  0  0  0  0  0  0
  139.9630   80.2400  223.5280 C   0  0  0  0  0  0  0  0  0  0  0  0
  138.4770   80.8600  224.2150 Cl  0  0  0  0  0  0  0  0  0  0  0  0
  139.9910   79.0260  222.8360 C   0  0  0  0  0  0  0  0  0  0  0  0
  140.2000   71.1420  223.5370 C   0  0  0  0  0  0  0  0  0  0  0  0
  139.5770   69.9170  223.4650 C   0  0  0  0  0  0  0  0  0  0  0  0
  139.4330   69.0670  224.5410 C   0  0  0  0  0  0  0  0  0  0  0  0
  139.9420   69.4720  225.7430 C   0  0  0  0  0  0  0  0  0  0  0  0
  139.7970   68.6210  226.8190 C   0  0  0  0  0  0  0  0  0  0  0  0
  140.3140   69.0380  228.0290 C   0  0  0  0  0  0  0  0  0  0  0  0
  140.1940   68.2350  229.1060 F   0  0  0  0  0  0  0  0  0  0  0  0
  140.9390   70.2550  228.1200 C   0  0  0  0  0  0  0  0  0  0  0  0
  141.0700   71.0890  227.0270 C   0  0  0  0  0  0  0  0  0  0  0  0
  140.5620   70.6940  225.8100 C   0  0  0  0  0  0  0  0  0  0  0  0
  140.6900   71.5100  224.7340 N   0  0  0  0  0  0  0  0  0  0  0  0
  139.2570   73.5940  223.3080 H   0  0  0  0  0  0  0  0  0  0  0  0
  140.8580   74.1763  220.8665 H   0  0  0  0  0  0  0  0  0  0  0  0
  139.1248   73.8837  220.4995 H   0  0  0  0  0  0  0  0  0  0  0  0
  138.7088   76.4251  219.4903 H   0  0  0  0  0  0  0  0  0  0  0  0
  138.6731   78.0614  220.2961 H   0  0  0  0  0  0  0  0  0  0  0  0
  140.4999   77.0038  218.1648 H   0  0  0  0  0  0  0  0  0  0  0  0
  139.6211   78.5828  218.2983 H   0  0  0  0  0  0  0  0  0  0  0  0
  142.0991   78.7621  218.6023 H   0  0  0  0  0  0  0  0  0  0  0  0
  141.1222   79.3483  220.0034 H   0  0  0  0  0  0  0  0  0  0  0  0
  142.3400   76.5570  219.8193 H   0  0  0  0  0  0  0  0  0  0  0  0
  143.1282   77.9272  220.6420 H   0  0  0  0  0  0  0  0  0  0  0  0
  141.6957   76.5628  222.2709 H   0  0  0  0  0  0  0  0  0  0  0  0
  143.2440   78.9342  222.0472 H   0  0  0  0  0  0  0  0  0  0  0  0
  143.2125   81.0569  223.2513 H   0  0  0  0  0  0  0  0  0  0  0  0
  141.1057   81.9418  224.2297 H   0  0  0  0  0  0  0  0  0  0  0  0
  139.0566   78.4561  222.7261 H   0  0  0  0  0  0  0  0  0  0  0  0
  139.1708   69.5979  222.4938 H   0  0  0  0  0  0  0  0  0  0  0  0
  138.9260   68.0965  224.4357 H   0  0  0  0  0  0  0  0  0  0  0  0
  139.2902   67.6500  226.7169 H   0  0  0  0  0  0  0  0  0  0  0  0
  141.3471   70.5758  229.0898 H   0  0  0  0  0  0  0  0  0  0  0  0
  141.5759   72.0605  227.1280 H   0  0  0  0  0  0  0  0  0  0  0  0
  1  2  2  0
  2  3  1  0
  3  4  1  0
  4  5  1  0
  5  6  2  0
  5  7  1  0
  7  8  1  0
  8  9  1  0
  9 10  1  0
 10 11  1  0
 11 12  1  0
 12 13  1  0
 13 14  2  0
 14 15  1  0
 15 16  2  0
 16 17  1  0
 17 18  1  0
 17 19  2  0
  2 20  1  0
 20 21  2  0
 21 22  1  0
 22 23  2  0
 23 24  1  0
 24 25  2  0
 25 26  1  0
 25 27  1  0
 27 28  2  0
 28 29  1  0
 29 30  2  0
 12  7  1  0
 19 13  1  0
 30 20  1  0
 29 23  1  0
  3 31  1  0
  4 32  1  0
  4 33  1  0
  8 34  1  0
  8 35  1  0
  9 36  1  0
  9 37  1  0
 10 38  1  0
 10 39  1  0
 11 40  1  0
 11 41  1  0
 12 42  1  1
 14 43  1  0
 15 44  1  0
 16 45  1  0
 19 46  1  0
 21 47  1  0
 22 48  1  0
 24 49  1  0
 27 50  1  0
 28 51  1  0
M  END
>  <smiles>  (100) 
O=C(NCC(=O)N1CCCCC1c1cccc(Cl)c1)c1ccc2cc(F)ccc2n1

>  <score_type>  (100) 
oracle

>  <origin>  (100) 
autodockgpu

>  <m_score__min__energy>  (100) 
-9.2799999999999994

>  <m_primary>  (100) 
energy

>  <rmsd>  (100) 
1.8364649844322696

>  <m_score__min__rmsd>  (100) 
1.8364649844322696

>  <meeko>  (100) 
{"free_energy": -9.11, "intermolecular_energy": -10.6, "internal_energy": -1.95, "cluster_size": 36, "cluster_id": 1, "rank_in_cluster": 9}

>  <energy>  (100) 
-7.39

>  <cluster_rmsd>  (100) 
0.45

>  <cluster>  (100) 
4

$$$$
