
     RDKit          3D

 59 62  0  0  0  0  0  0  0  0999 V2000
  141.4300   68.2620  228.5650 C   0  0  0  0  0  0  0  0  0  0  0  0
  141.3700   68.1970  227.0620 C   0  0  0  0  0  0  0  0  0  0  0  0
  139.7170   68.6210  226.5740 S   0  0  0  0  0  0  0  0  0  0  0  0
  138.9990   69.1070  227.7950 O   0  0  0  0  0  0  0  0  0  0  0  0
  139.0510   67.3910  226.0670 O   0  0  0  0  0  0  0  0  0  0  0  0
  139.6930   69.8490  225.3270 C   0  0  0  0  0  0  0  0  0  0  0  0
  138.7750   69.8600  224.2990 C   0  0  0  0  0  0  0  0  0  0  0  0
  138.8040   70.8510  223.3450 C   0  0  0  0  0  0  0  0  0  0  0  0
  139.7400   71.8820  223.3550 C   0  0  0  0  0  0  0  0  0  0  0  0
  139.7090   72.9030  222.3050 C   0  0  0  0  0  0  0  0  0  0  0  0
  140.7460   73.3640  221.6780 C   0  0  0  0  0  0  0  0  0  0  0  0
  141.1520   74.6770  221.2860 C   0  0  0  0  0  0  0  0  0  0  0  0
  140.6690   75.6820  222.0880 N   0  0  0  0  0  0  0  0  0  0  0  0
  140.8530   76.9720  221.8990 C   0  0  0  0  0  0  0  0  0  0  0  0
  140.3080   77.8690  222.7860 C   0  0  0  0  0  0  0  0  0  0  0  0
  140.5500   79.2160  222.5110 C   0  0  0  0  0  0  0  0  0  0  0  0
  141.2770   79.6400  221.4360 C   0  0  0  0  0  0  0  0  0  0  0  0
  141.5160   80.9450  221.1620 F   0  0  0  0  0  0  0  0  0  0  0  0
  141.8100   78.7060  220.5650 C   0  0  0  0  0  0  0  0  0  0  0  0
  141.5850   77.3750  220.8160 C   0  0  0  0  0  0  0  0  0  0  0  0
  142.0820   76.3930  219.9970 C   0  0  0  0  0  0  0  0  0  0  0  0
  142.7470   76.7950  219.0030 O   0  0  0  0  0  0  0  0  0  0  0  0
  141.8750   75.0490  220.2240 N   0  0  0  0  0  0  0  0  0  0  0  0
  142.4700   74.1690  219.2830 C   0  0  0  0  0  0  0  0  0  0  0  0
  143.6760   73.3970  219.6600 C   0  0  0  0  0  0  0  0  0  0  0  0
  144.6440   74.1620  220.5710 C   0  0  0  0  0  0  0  0  0  0  0  0
  145.8180   73.2030  220.8280 C   0  0  0  0  0  0  0  0  0  0  0  0
  145.9580   72.1740  219.7340 C   0  0  0  0  0  0  0  0  0  0  0  0
  144.7740   71.2310  219.7210 C   0  0  0  0  0  0  0  0  0  0  0  0
  143.5670   72.0490  220.2390 C   0  0  0  0  0  0  0  0  0  0  0  0
  140.6520   71.8650  224.3800 C   0  0  0  0  0  0  0  0  0  0  0  0
  140.6300   70.8590  225.3570 C   0  0  0  0  0  0  0  0  0  0  0  0
  140.7424   67.5171  228.9920 H   0  0  0  0  0  0  0  0  0  0  0  0
  142.4557   68.0490  228.9006 H   0  0  0  0  0  0  0  0  0  0  0  0
  141.1357   69.2674  228.9006 H   0  0  0  0  0  0  0  0  0  0  0  0
  142.0847   68.9108  226.6266 H   0  0  0  0  0  0  0  0  0  0  0  0
  141.6317   67.1891  226.7075 H   0  0  0  0  0  0  0  0  0  0  0  0
  138.0124   69.0694  224.2407 H   0  0  0  0  0  0  0  0  0  0  0  0
  138.0553   70.8279  222.5394 H   0  0  0  0  0  0  0  0  0  0  0  0
  138.7265   73.3116  222.0259 H   0  0  0  0  0  0  0  0  0  0  0  0
  141.4625   72.5816  221.3872 H   0  0  0  0  0  0  0  0  0  0  0  0
  139.7187   77.5462  223.6570 H   0  0  0  0  0  0  0  0  0  0  0  0
  140.1349   79.9723  223.1934 H   0  0  0  0  0  0  0  0  0  0  0  0
  142.4000   79.0225  219.6922 H   0  0  0  0  0  0  0  0  0  0  0  0
  141.6992   73.4375  218.9988 H   0  0  0  0  0  0  0  0  0  0  0  0
  142.8349   74.8451  218.4957 H   0  0  0  0  0  0  0  0  0  0  0  0
  144.0372   73.2512  218.6313 H   0  0  0  0  0  0  0  0  0  0  0  0
  144.9978   75.0767  220.0729 H   0  0  0  0  0  0  0  0  0  0  0  0
  144.1600   74.4722  221.5088 H   0  0  0  0  0  0  0  0  0  0  0  0
  146.7478   73.7878  220.8864 H   0  0  0  0  0  0  0  0  0  0  0  0
  145.6219   72.6714  221.7709 H   0  0  0  0  0  0  0  0  0  0  0  0
  146.0195   72.6874  218.7631 H   0  0  0  0  0  0  0  0  0  0  0  0
  146.8704   71.5881  219.9189 H   0  0  0  0  0  0  0  0  0  0  0  0
  144.5821   70.8735  218.6986 H   0  0  0  0  0  0  0  0  0  0  0  0
  144.9584   70.3464  220.3482 H   0  0  0  0  0  0  0  0  0  0  0  0
  142.6263   71.5764  219.9199 H   0  0  0  0  0  0  0  0  0  0  0  0
  143.5681   72.0943  221.3381 H   0  0  0  0  0  0  0  0  0  0  0  0
  141.4149   72.6554  224.4366 H   0  0  0  0  0  0  0  0  0  0  0  0
  141.3767   70.8766  226.1645 H   0  0  0  0  0  0  0  0  0  0  0  0
  1  2  1  0
  2  3  1  0
  3  4  2  0
  3  5  2  0
  3  6  1  0
  6  7  2  0
  7  8  1  0
  8  9  2  0
  9 10  1  0
 10 11  2  0
 11 12  1  0
 12 13  2  0
 13 14  1  0
 14 15  2  0
 15 16  1  0
 16 17  2  0
 17 18  1  0
 17 19  1  0
 19 20  2  0
 20 21  1  0
 21 22  2  0
 21 23  1  0
 23 24  1  0
 24 25  1  0
 25 26  1  0
 26 27  1  0
 27 28  1  0
 28 29  1  0
 29 30  1  0
  9 31  1  0
 31 32  2  0
 32  6  1  0
 23 12  1  0
 30 25  1  0
 20 14  1  0
  1 33  1  0
  1 34  1  0
  1 35  1  0
  2 36  1  0
  2 37  1  0
  7 38  1  0
  8 39  1  0
 10 40  1  0
 11 41  1  0
 15 42  1  0
 16 43  1  0
 19 44  1  0
 24 45  1  0
 24 46  1  0
 25 47  1  0
 26 48  1  0
 26 49  1  0
 27 50  1  0
 27 51  1  0
 28 52  1  0
 28 53  1  0
 29 54  1  0
 29 55  1  0
 30 56  1  0
 30 57  1  0
 31 58  1  0
 32 59  1  0
M  END
>  <smiles>  (1) 
CCS(=O)(=O)c1ccc(/C=C/c2nc3ccc(F)cc3c(=O)n2CC2CCCCC2)cc1

>  <score_type>  (1) 
oracle

>  <origin>  (1) 
autodockgpu

>  <m_score__min__energy>  (1) 
-9.5

>  <m_primary>  (1) 
energy

>  <rmsd>  (1) 
5.356166016188765

>  <m_score__min__rmsd>  (1) 
5.356166016188765

>  <meeko>  (1) 
{"free_energy": -9.1, "intermolecular_energy": -11.19, "internal_energy": -1.45, "cluster_size": 17, "cluster_id": 2, "rank_in_cluster": 4}

>  <energy>  (1) 
-9.5

>  <cluster_rmsd>  (1) 
0.0

>  <cluster>  (1) 
1

$$$$

     RDKit          3D

 59 62  0  0  0  0  0  0  0  0999 V2000
  141.0250   71.8190  227.6540 C   0  0  0  0  0  0  0  0  0  0  0  0
  140.3190   70.5140  227.9070 C   0  0  0  0  0  0  0  0  0  0  0  0
  140.3850   69.5700  226.4050 S   0  0  0  0  0  0  0  0  0  0  0  0
  139.5260   68.3580  226.5980 O   0  0  0  0  0  0  0  0  0  0  0  0
  141.7940   69.1460  226.1830 O   0  0  0  0  0  0  0  0  0  0  0  0
  139.8320   70.4910  225.0240 C   0  0  0  0  0  0  0  0  0  0  0  0
  138.5830   70.3310  224.4640 C   0  0  0  0  0  0  0  0  0  0  0  0
  138.2020   71.0830  223.3760 C   0  0  0  0  0  0  0  0  0  0  0  0
  139.0320   72.0320  222.7860 C   0  0  0  0  0  0  0  0  0  0  0  0
  138.5580   72.7960  221.6290 C   0  0  0  0  0  0  0  0  0  0  0  0
  139.1140   73.8690  221.1610 C   0  0  0  0  0  0  0  0  0  0  0  0
  140.4610   74.2120  220.8290 C   0  0  0  0  0  0  0  0  0  0  0  0
  141.3410   73.1580  220.8760 N   0  0  0  0  0  0  0  0  0  0  0  0
  142.6400   73.2310  220.6710 C   0  0  0  0  0  0  0  0  0  0  0  0
  143.4010   72.0900  220.7520 C   0  0  0  0  0  0  0  0  0  0  0  0
  144.7680   72.2570  220.5220 C   0  0  0  0  0  0  0  0  0  0  0  0
  145.3350   73.4650  220.2340 C   0  0  0  0  0  0  0  0  0  0  0  0
  146.6600   73.6350  220.0100 F   0  0  0  0  0  0  0  0  0  0  0  0
  144.5350   74.5920  220.1620 C   0  0  0  0  0  0  0  0  0  0  0  0
  143.1870   74.4510  220.3840 C   0  0  0  0  0  0  0  0  0  0  0  0
  142.3320   75.5220  220.3290 C   0  0  0  0  0  0  0  0  0  0  0  0
  142.8660   76.6350  220.0690 O   0  0  0  0  0  0  0  0  0  0  0  0
  140.9750   75.4130  220.5450 N   0  0  0  0  0  0  0  0  0  0  0  0
  140.2380   76.6210  220.4380 C   0  0  0  0  0  0  0  0  0  0  0  0
  140.2850   77.6110  221.5390 C   0  0  0  0  0  0  0  0  0  0  0  0
  138.9030   78.0670  222.0230 C   0  0  0  0  0  0  0  0  0  0  0  0
  139.1710   79.0890  223.1410 C   0  0  0  0  0  0  0  0  0  0  0  0
  140.5290   79.7300  223.0050 C   0  0  0  0  0  0  0  0  0  0  0  0
  141.6330   78.7190  223.2280 C   0  0  0  0  0  0  0  0  0  0  0  0
  141.0690   77.3580  222.7570 C   0  0  0  0  0  0  0  0  0  0  0  0
  140.2750   72.1860  223.3470 C   0  0  0  0  0  0  0  0  0  0  0  0
  140.6720   71.4240  224.4550 C   0  0  0  0  0  0  0  0  0  0  0  0
  141.2799   72.2902  228.6147 H   0  0  0  0  0  0  0  0  0  0  0  0
  141.9455   71.6329  227.0812 H   0  0  0  0  0  0  0  0  0  0  0  0
  140.3656   72.4876  227.0812 H   0  0  0  0  0  0  0  0  0  0  0  0
  140.8222   69.9659  228.7172 H   0  0  0  0  0  0  0  0  0  0  0  0
  139.2757   70.6904  228.2076 H   0  0  0  0  0  0  0  0  0  0  0  0
  137.8845   69.5959  224.8903 H   0  0  0  0  0  0  0  0  0  0  0  0
  137.1980   70.9273  222.9544 H   0  0  0  0  0  0  0  0  0  0  0  0
  137.6569   72.4289  221.1159 H   0  0  0  0  0  0  0  0  0  0  0  0
  138.4000   74.6864  220.9819 H   0  0  0  0  0  0  0  0  0  0  0  0
  142.9617   71.1083  220.9831 H   0  0  0  0  0  0  0  0  0  0  0  0
  145.4196   71.3724  220.5755 H   0  0  0  0  0  0  0  0  0  0  0  0
  144.9682   75.5767  219.9326 H   0  0  0  0  0  0  0  0  0  0  0  0
  140.5960   77.1336  219.5330 H   0  0  0  0  0  0  0  0  0  0  0  0
  139.1913   76.2829  220.4429 H   0  0  0  0  0  0  0  0  0  0  0  0
  140.8455   78.3726  220.9770 H   0  0  0  0  0  0  0  0  0  0  0  0
  138.3438   78.5363  221.2001 H   0  0  0  0  0  0  0  0  0  0  0  0
  138.2986   77.2210  222.3821 H   0  0  0  0  0  0  0  0  0  0  0  0
  138.4016   79.8739  223.0969 H   0  0  0  0  0  0  0  0  0  0  0  0
  139.1408   78.5566  224.1031 H   0  0  0  0  0  0  0  0  0  0  0  0
  140.6274   80.1524  221.9941 H   0  0  0  0  0  0  0  0  0  0  0  0
  140.6201   80.5204  223.7646 H   0  0  0  0  0  0  0  0  0  0  0  0
  142.5221   78.9883  222.6390 H   0  0  0  0  0  0  0  0  0  0  0  0
  141.9387   78.6838  224.2841 H   0  0  0  0  0  0  0  0  0  0  0  0
  141.8936   76.6639  222.5372 H   0  0  0  0  0  0  0  0  0  0  0  0
  140.4418   76.9036  223.5381 H   0  0  0  0  0  0  0  0  0  0  0  0
  140.9728   72.9210  222.9194 H   0  0  0  0  0  0  0  0  0  0  0  0
  141.6757   71.5741  224.8794 H   0  0  0  0  0  0  0  0  0  0  0  0
  1  2  1  0
  2  3  1  0
  3  4  2  0
  3  5  2  0
  3  6  1  0
  6  7  2  0
  7  8  1  0
  8  9  2  0
  9 10  1  0
 10 11  2  0
 11 12  1  0
 12 13  2  0
 13 14  1  0
 14 15  2  0
 15 16  1  0
 16 17  2  0
 17 18  1  0
 17 19  1  0
 19 20  2  0
 20 21  1  0
 21 22  2  0
 21 23  1  0
 23 24  1  0
 24 25  1  0
 25 26  1  0
 26 27  1  0
 27 28  1  0
 28 29  1  0
 29 30  1  0
  9 31  1  0
 31 32  2  0
 32  6  1  0
 23 12  1  0
 30 25  1  0
 20 14  1  0
  1 33  1  0
  1 34  1  0
  1 35  1  0
  2 36  1  0
  2 37  1  0
  7 38  1  0
  8 39  1  0
 10 40  1  0
 11 41  1  0
 15 42  1  0
 16 43  1  0
 19 44  1  0
 24 45  1  0
 24 46  1  0
 25 47  1  0
 26 48  1  0
 26 49  1  0
 27 50  1  0
 27 51  1  0
 28 52  1  0
 28 53  1  0
 29 54  1  0
 29 55  1  0
 30 56  1  0
 30 57  1  0
 31 58  1  0
 32 59  1  0
M  END
>  <smiles>  (2) 
CCS(=O)(=O)c1ccc(/C=C/c2nc3ccc(F)cc3c(=O)n2CC2CCCCC2)cc1

>  <score_type>  (2) 
oracle

>  <origin>  (2) 
autodockgpu

>  <m_score__min__energy>  (2) 
-9.5

>  <m_primary>  (2) 
energy

>  <rmsd>  (2) 
7.301563772015269

>  <m_score__min__rmsd>  (2) 
7.301563772015269

>  <meeko>  (2) 
{"free_energy": -8.56, "intermolecular_energy": -10.64, "internal_energy": -1.63, "cluster_size": 6, "cluster_id": 1, "rank_in_cluster": 5}

>  <energy>  (2) 
-9.17

>  <cluster_rmsd>  (2) 
0.5

>  <cluster>  (2) 
1

$$$$

     RDKit          3D

 59 62  0  0  0  0  0  0  0  0999 V2000
  140.5770   68.5500  228.6340 C   0  0  0  0  0  0  0  0  0  0  0  0
  139.5850   69.1200  227.6570 C   0  0  0  0  0  0  0  0  0  0  0  0
  139.9840   68.4770  226.0520 S   0  0  0  0  0  0  0  0  0  0  0  0
  138.9840   67.4080  225.7350 O   0  0  0  0  0  0  0  0  0  0  0  0
  141.3440   67.8760  226.1160 O   0  0  0  0  0  0  0  0  0  0  0  0
  139.9570   69.7180  224.8190 C   0  0  0  0  0  0  0  0  0  0  0  0
  140.7080   70.8720  224.8950 C   0  0  0  0  0  0  0  0  0  0  0  0
  140.6460   71.8160  223.8960 C   0  0  0  0  0  0  0  0  0  0  0  0
  139.8400   71.6700  222.7700 C   0  0  0  0  0  0  0  0  0  0  0  0
  139.8250   72.7180  221.7450 C   0  0  0  0  0  0  0  0  0  0  0  0
  139.5780   73.9720  221.9600 C   0  0  0  0  0  0  0  0  0  0  0  0
  140.2730   75.1790  221.6390 C   0  0  0  0  0  0  0  0  0  0  0  0
  139.9030   76.2640  222.3950 N   0  0  0  0  0  0  0  0  0  0  0  0
  140.3530   77.4930  222.2500 C   0  0  0  0  0  0  0  0  0  0  0  0
  139.8920   78.4850  223.0820 C   0  0  0  0  0  0  0  0  0  0  0  0
  140.4210   79.7570  222.8580 C   0  0  0  0  0  0  0  0  0  0  0  0
  141.3370   80.0240  221.8820 C   0  0  0  0  0  0  0  0  0  0  0  0
  141.8550   81.2560  221.6590 F   0  0  0  0  0  0  0  0  0  0  0  0
  141.7780   78.9990  221.0640 C   0  0  0  0  0  0  0  0  0  0  0  0
  141.2710   77.7390  221.2670 C   0  0  0  0  0  0  0  0  0  0  0  0
  141.6620   76.6730  220.4960 C   0  0  0  0  0  0  0  0  0  0  0  0
  142.5050   76.9310  219.5920 O   0  0  0  0  0  0  0  0  0  0  0  0
  141.1740   75.3960  220.6750 N   0  0  0  0  0  0  0  0  0  0  0  0
  141.6940   74.4110  219.7950 C   0  0  0  0  0  0  0  0  0  0  0  0
  143.0030   73.7830  220.0890 C   0  0  0  0  0  0  0  0  0  0  0  0
  143.0540   72.2810  219.7810 C   0  0  0  0  0  0  0  0  0  0  0  0
  144.4720   71.8260  220.1640 C   0  0  0  0  0  0  0  0  0  0  0  0
  145.0970   72.7340  221.1920 C   0  0  0  0  0  0  0  0  0  0  0  0
  145.3500   74.1120  220.6190 C   0  0  0  0  0  0  0  0  0  0  0  0
  144.2530   74.3410  219.5520 C   0  0  0  0  0  0  0  0  0  0  0  0
  139.0940   70.5210  222.7000 C   0  0  0  0  0  0  0  0  0  0  0  0
  139.1510   69.5550  223.7140 C   0  0  0  0  0  0  0  0  0  0  0  0
  140.2348   68.7466  229.6608 H   0  0  0  0  0  0  0  0  0  0  0  0
  140.6633   67.4646  228.4778 H   0  0  0  0  0  0  0  0  0  0  0  0
  141.5582   69.0221  228.4778 H   0  0  0  0  0  0  0  0  0  0  0  0
  138.5653   68.8190  227.9389 H   0  0  0  0  0  0  0  0  0  0  0  0
  139.6314   70.2190  227.6557 H   0  0  0  0  0  0  0  0  0  0  0  0
  141.3630   71.0395  225.7627 H   0  0  0  0  0  0  0  0  0  0  0  0
  141.2590   72.7244  223.9908 H   0  0  0  0  0  0  0  0  0  0  0  0
  140.0408   72.4156  220.7096 H   0  0  0  0  0  0  0  0  0  0  0  0
  138.6368   74.1432  222.5030 H   0  0  0  0  0  0  0  0  0  0  0  0
  139.1536   78.2891  223.8735 H   0  0  0  0  0  0  0  0  0  0  0  0
  140.0833   80.5845  223.4992 H   0  0  0  0  0  0  0  0  0  0  0  0
  142.5163   79.1886  220.2709 H   0  0  0  0  0  0  0  0  0  0  0  0
  140.9531   73.5991  219.7511 H   0  0  0  0  0  0  0  0  0  0  0  0
  141.8804   74.9697  218.8659 H   0  0  0  0  0  0  0  0  0  0  0  0
  143.0035   74.0293  221.1611 H   0  0  0  0  0  0  0  0  0  0  0  0
  142.3037   71.7414  220.3776 H   0  0  0  0  0  0  0  0  0  0  0  0
  142.8334   72.0756  218.7231 H   0  0  0  0  0  0  0  0  0  0  0  0
  144.4193   70.8071  220.5751 H   0  0  0  0  0  0  0  0  0  0  0  0
  145.0956   71.8574  219.2584 H   0  0  0  0  0  0  0  0  0  0  0  0
  144.4188   72.8220  222.0536 H   0  0  0  0  0  0  0  0  0  0  0  0
  146.0601   72.3016  221.5011 H   0  0  0  0  0  0  0  0  0  0  0  0
  145.2783   74.8733  221.4097 H   0  0  0  0  0  0  0  0  0  0  0  0
  146.3570   74.1872  220.1827 H   0  0  0  0  0  0  0  0  0  0  0  0
  144.1333   75.4173  219.3591 H   0  0  0  0  0  0  0  0  0  0  0  0
  144.5227   73.8543  218.6031 H   0  0  0  0  0  0  0  0  0  0  0  0
  138.4390   70.3547  221.8321 H   0  0  0  0  0  0  0  0  0  0  0  0
  138.5380   68.6459  223.6253 H   0  0  0  0  0  0  0  0  0  0  0  0
  1  2  1  0
  2  3  1  0
  3  4  2  0
  3  5  2  0
  3  6  1  0
  6  7  2  0
  7  8  1  0
  8  9  2  0
  9 10  1  0
 10 11  2  0
 11 12  1  0
 12 13  2  0
 13 14  1  0
 14 15  2  0
 15 16  1  0
 16 17  2  0
 17 18  1  0
 17 19  1  0
 19 20  2  0
 20 21  1  0
 21 22  2  0
 21 23  1  0
 23 24  1  0
 24 25  1  0
 25 26  1  0
 26 27  1  0
 27 28  1  0
 28 29  1  0
 29 30  1  0
  9 31  1  0
 31 32  2  0
 32  6  1  0
 23 12  1  0
 30 25  1  0
 20 14  1  0
  1 33  1  0
  1 34  1  0
  1 35  1  0
  2 36  1  0
  2 37  1  0
  7 38  1  0
  8 39  1  0
 10 40  1  0
 11 41  1  0
 15 42  1  0
 16 43  1  0
 19 44  1  0
 24 45  1  0
 24 46  1  0
 25 47  1  0
 26 48  1  0
 26 49  1  0
 27 50  1  0
 27 51  1  0
 28 52  1  0
 28 53  1  0
 29 54  1  0
 29 55  1  0
 30 56  1  0
 30 57  1  0
 31 58  1  0
 32 59  1  0
M  END
>  <smiles>  (3) 
CCS(=O)(=O)c1ccc(/C=C/c2nc3ccc(F)cc3c(=O)n2CC2CCCCC2)cc1

>  <score_type>  (3) 
oracle

>  <origin>  (3) 
autodockgpu

>  <m_score__min__energy>  (3) 
-9.5

>  <m_primary>  (3) 
energy

>  <rmsd>  (3) 
5.002762129809449

>  <m_score__min__rmsd>  (3) 
5.002762129809449

>  <meeko>  (3) 
{"free_energy": -8.99, "intermolecular_energy": -11.08, "internal_energy": -1.54, "cluster_size": 17, "cluster_id": 2, "rank_in_cluster": 6}

>  <energy>  (3) 
-8.91

>  <cluster_rmsd>  (3) 
0.57

>  <cluster>  (3) 
1

$$$$

     RDKit          3D

 59 62  0  0  0  0  0  0  0  0999 V2000
  140.4400   71.8960  228.3340 C   0  0  0  0  0  0  0  0  0  0  0  0
  141.2900   70.6690  228.1390 C   0  0  0  0  0  0  0  0  0  0  0  0
  140.3370   69.5020  227.2020 S   0  0  0  0  0  0  0  0  0  0  0  0
  139.1360   69.1420  228.0220 O   0  0  0  0  0  0  0  0  0  0  0  0
  141.1680   68.2870  226.9860 O   0  0  0  0  0  0  0  0  0  0  0  0
  139.8410   70.1480  225.6530 C   0  0  0  0  0  0  0  0  0  0  0  0
  140.5500   71.1220  224.9830 C   0  0  0  0  0  0  0  0  0  0  0  0
  140.1120   71.5940  223.7660 C   0  0  0  0  0  0  0  0  0  0  0  0
  138.9540   71.1300  223.1490 C   0  0  0  0  0  0  0  0  0  0  0  0
  138.5500   71.6810  221.8520 C   0  0  0  0  0  0  0  0  0  0  0  0
  138.9370   72.8190  221.3680 C   0  0  0  0  0  0  0  0  0  0  0  0
  138.6940   74.1780  221.7410 C   0  0  0  0  0  0  0  0  0  0  0  0
  139.8310   74.9170  221.9600 N   0  0  0  0  0  0  0  0  0  0  0  0
  139.8670   76.1680  222.3680 C   0  0  0  0  0  0  0  0  0  0  0  0
  141.0830   76.7850  222.5470 C   0  0  0  0  0  0  0  0  0  0  0  0
  141.0300   78.1100  222.9820 C   0  0  0  0  0  0  0  0  0  0  0  0
  139.8610   78.7720  223.2220 C   0  0  0  0  0  0  0  0  0  0  0  0
  139.8020   80.0580  223.6450 F   0  0  0  0  0  0  0  0  0  0  0  0
  138.6570   78.1170  223.0310 C   0  0  0  0  0  0  0  0  0  0  0  0
  138.6840   76.8130  222.6030 C   0  0  0  0  0  0  0  0  0  0  0  0
  137.5320   76.1000  222.3910 C   0  0  0  0  0  0  0  0  0  0  0  0
  136.4560   76.7180  222.6210 O   0  0  0  0  0  0  0  0  0  0  0  0
  137.5260   74.7900  221.9590 N   0  0  0  0  0  0  0  0  0  0  0  0
  136.2430   74.2090  221.7810 C   0  0  0  0  0  0  0  0  0  0  0  0
  135.6350   73.4220  222.8780 C   0  0  0  0  0  0  0  0  0  0  0  0
  135.2900   74.2520  224.1210 C   0  0  0  0  0  0  0  0  0  0  0  0
  134.6930   73.2580  225.1310 C   0  0  0  0  0  0  0  0  0  0  0  0
  135.1560   71.8460  224.8760 C   0  0  0  0  0  0  0  0  0  0  0  0
  134.6150   71.3260  223.5620 C   0  0  0  0  0  0  0  0  0  0  0  0
  134.4670   72.5590  222.6400 C   0  0  0  0  0  0  0  0  0  0  0  0
  138.2520   70.1620  223.8220 C   0  0  0  0  0  0  0  0  0  0  0  0
  138.6910   69.6750  225.0610 C   0  0  0  0  0  0  0  0  0  0  0  0
  140.3095   72.0844  229.4098 H   0  0  0  0  0  0  0  0  0  0  0  0
  140.9330   72.7615  227.8673 H   0  0  0  0  0  0  0  0  0  0  0  0
  139.4564   71.7386  227.8673 H   0  0  0  0  0  0  0  0  0  0  0  0
  142.2071   70.9309  227.5910 H   0  0  0  0  0  0  0  0  0  0  0  0
  141.5802   70.2409  229.1099 H   0  0  0  0  0  0  0  0  0  0  0  0
  141.4733   71.5255  225.4243 H   0  0  0  0  0  0  0  0  0  0  0  0
  140.7028   72.3714  223.2595 H   0  0  0  0  0  0  0  0  0  0  0  0
  137.8622   71.0793  221.2397 H   0  0  0  0  0  0  0  0  0  0  0  0
  139.5878   72.7189  220.4869 H   0  0  0  0  0  0  0  0  0  0  0  0
  142.0355   76.2677  222.3595 H   0  0  0  0  0  0  0  0  0  0  0  0
  141.9770   78.6471  223.1391 H   0  0  0  0  0  0  0  0  0  0  0  0
  137.7014   78.6289  223.2177 H   0  0  0  0  0  0  0  0  0  0  0  0
  135.5486   75.0320  221.5562 H   0  0  0  0  0  0  0  0  0  0  0  0
  136.4079   73.4617  220.9908 H   0  0  0  0  0  0  0  0  0  0  0  0
  136.4881   72.7398  223.0075 H   0  0  0  0  0  0  0  0  0  0  0  0
  136.1959   74.7204  224.5332 H   0  0  0  0  0  0  0  0  0  0  0  0
  134.5863   75.0639  223.8852 H   0  0  0  0  0  0  0  0  0  0  0  0
  134.9999   73.5546  226.1448 H   0  0  0  0  0  0  0  0  0  0  0  0
  133.5985   73.2810  225.0235 H   0  0  0  0  0  0  0  0  0  0  0  0
  136.2554   71.8283  224.8444 H   0  0  0  0  0  0  0  0  0  0  0  0
  134.7829   71.2034  225.6871 H   0  0  0  0  0  0  0  0  0  0  0  0
  135.3154   70.6015  223.1209 H   0  0  0  0  0  0  0  0  0  0  0  0
  133.6534   70.8099  223.6998 H   0  0  0  0  0  0  0  0  0  0  0  0
  134.4411   72.2415  221.5871 H   0  0  0  0  0  0  0  0  0  0  0  0
  133.5325   73.0980  222.8551 H   0  0  0  0  0  0  0  0  0  0  0  0
  137.3276   69.7607  223.3811 H   0  0  0  0  0  0  0  0  0  0  0  0
  138.1038   68.8977  225.5719 H   0  0  0  0  0  0  0  0  0  0  0  0
  1  2  1  0
  2  3  1  0
  3  4  2  0
  3  5  2  0
  3  6  1  0
  6  7  2  0
  7  8  1  0
  8  9  2  0
  9 10  1  0
 10 11  2  0
 11 12  1  0
 12 13  2  0
 13 14  1  0
 14 15  2  0
 15 16  1  0
 16 17  2  0
 17 18  1  0
 17 19  1  0
 19 20  2  0
 20 21  1  0
 21 22  2  0
 21 23  1  0
 23 24  1  0
 24 25  1  0
 25 26  1  0
 26 27  1  0
 27 28  1  0
 28 29  1  0
 29 30  1  0
  9 31  1  0
 31 32  2  0
 32  6  1  0
 23 12  1  0
 30 25  1  0
 20 14  1  0
  1 33  1  0
  1 34  1  0
  1 35  1  0
  2 36  1  0
  2 37  1  0
  7 38  1  0
  8 39  1  0
 10 40  1  0
 11 41  1  0
 15 42  1  0
 16 43  1  0
 19 44  1  0
 24 45  1  0
 24 46  1  0
 25 47  1  0
 26 48  1  0
 26 49  1  0
 27 50  1  0
 27 51  1  0
 28 52  1  0
 28 53  1  0
 29 54  1  0
 29 55  1  0
 30 56  1  0
 30 57  1  0
 31 58  1  0
 32 59  1  0
M  END
>  <smiles>  (4) 
CCS(=O)(=O)c1ccc(/C=C/c2nc3ccc(F)cc3c(=O)n2CC2CCCCC2)cc1

>  <score_type>  (4) 
oracle

>  <origin>  (4) 
autodockgpu

>  <m_score__min__energy>  (4) 
-9.5

>  <m_primary>  (4) 
energy

>  <rmsd>  (4) 
7.120772363267658

>  <m_score__min__rmsd>  (4) 
7.120772363267658

>  <meeko>  (4) 
{"free_energy": -7.24, "intermolecular_energy": -9.33, "internal_energy": -2.17, "cluster_size": 10, "cluster_id": 4, "rank_in_cluster": 10}

>  <energy>  (4) 
-8.84

>  <cluster_rmsd>  (4) 
0.8

>  <cluster>  (4) 
1

$$$$

     RDKit          3D

 59 62  0  0  0  0  0  0  0  0999 V2000
  131.1450   73.9740  224.8910 C   0  0  0  0  0  0  0  0  0  0  0  0
  131.7670   72.8550  225.6830 C   0  0  0  0  0  0  0  0  0  0  0  0
  133.2340   73.4950  226.4510 S   0  0  0  0  0  0  0  0  0  0  0  0
  133.9090   72.3550  227.1500 O   0  0  0  0  0  0  0  0  0  0  0  0
  132.8260   74.5160  227.4540 O   0  0  0  0  0  0  0  0  0  0  0  0
  134.3200   74.2240  225.2900 C   0  0  0  0  0  0  0  0  0  0  0  0
  134.5550   75.5810  225.2280 C   0  0  0  0  0  0  0  0  0  0  0  0
  135.4210   76.1000  224.2920 C   0  0  0  0  0  0  0  0  0  0  0  0
  136.0990   75.3080  223.3700 C   0  0  0  0  0  0  0  0  0  0  0  0
  137.0060   75.9310  222.4020 C   0  0  0  0  0  0  0  0  0  0  0  0
  138.2590   76.1910  222.6100 C   0  0  0  0  0  0  0  0  0  0  0  0
  139.4610   75.8470  221.9160 C   0  0  0  0  0  0  0  0  0  0  0  0
  139.8200   74.5260  222.0270 N   0  0  0  0  0  0  0  0  0  0  0  0
  140.9120   73.9820  221.5310 C   0  0  0  0  0  0  0  0  0  0  0  0
  141.1440   72.6400  221.7210 C   0  0  0  0  0  0  0  0  0  0  0  0
  142.3240   72.1460  221.1630 C   0  0  0  0  0  0  0  0  0  0  0  0
  143.2060   72.9230  220.4700 C   0  0  0  0  0  0  0  0  0  0  0  0
  144.3530   72.4510  219.9260 F   0  0  0  0  0  0  0  0  0  0  0  0
  142.9370   74.2710  220.3000 C   0  0  0  0  0  0  0  0  0  0  0  0
  141.7820   74.7790  220.8400 C   0  0  0  0  0  0  0  0  0  0  0  0
  141.4490   76.1030  220.7110 C   0  0  0  0  0  0  0  0  0  0  0  0
  142.2730   76.8160  220.0750 O   0  0  0  0  0  0  0  0  0  0  0  0
  140.2950   76.6430  221.2400 N   0  0  0  0  0  0  0  0  0  0  0  0
  140.1020   78.0300  221.0030 C   0  0  0  0  0  0  0  0  0  0  0  0
  140.8030   79.0240  221.8480 C   0  0  0  0  0  0  0  0  0  0  0  0
  141.4340   78.4290  223.1130 C   0  0  0  0  0  0  0  0  0  0  0  0
  142.0890   79.6120  223.8460 C   0  0  0  0  0  0  0  0  0  0  0  0
  141.4480   80.9270  223.4800 C   0  0  0  0  0  0  0  0  0  0  0  0
  141.7050   81.2720  222.0290 C   0  0  0  0  0  0  0  0  0  0  0  0
  141.8200   79.9230  221.2810 C   0  0  0  0  0  0  0  0  0  0  0  0
  135.8600   73.9580  223.4360 C   0  0  0  0  0  0  0  0  0  0  0  0
  134.9810   73.4210  224.3860 C   0  0  0  0  0  0  0  0  0  0  0  0
  130.7284   74.7234  225.5801 H   0  0  0  0  0  0  0  0  0  0  0  0
  131.9111   74.4445  224.2571 H   0  0  0  0  0  0  0  0  0  0  0  0
  130.3410   73.5718  224.2571 H   0  0  0  0  0  0  0  0  0  0  0  0
  131.0636   72.5032  226.4520 H   0  0  0  0  0  0  0  0  0  0  0  0
  132.0120   72.0064  225.0274 H   0  0  0  0  0  0  0  0  0  0  0  0
  134.0460   76.2551  225.9326 H   0  0  0  0  0  0  0  0  0  0  0  0
  135.5841   77.1877  224.2720 H   0  0  0  0  0  0  0  0  0  0  0  0
  136.5901   76.1997  221.4197 H   0  0  0  0  0  0  0  0  0  0  0  0
  138.4338   76.8036  223.5068 H   0  0  0  0  0  0  0  0  0  0  0  0
  140.4450   71.9976  222.2766 H   0  0  0  0  0  0  0  0  0  0  0  0
  142.5544   71.0777  221.2880 H   0  0  0  0  0  0  0  0  0  0  0  0
  143.6322   74.9187  219.7457 H   0  0  0  0  0  0  0  0  0  0  0  0
  140.4088   78.2217  219.9642 H   0  0  0  0  0  0  0  0  0  0  0  0
  139.0416   78.1866  221.2501 H   0  0  0  0  0  0  0  0  0  0  0  0
  139.9194   79.6528  222.0322 H   0  0  0  0  0  0  0  0  0  0  0  0
  140.6623   77.9656  223.7453 H   0  0  0  0  0  0  0  0  0  0  0  0
  142.1665   77.6447  222.8715 H   0  0  0  0  0  0  0  0  0  0  0  0
  141.9888   79.4575  224.9305 H   0  0  0  0  0  0  0  0  0  0  0  0
  143.1466   79.6542  223.5466 H   0  0  0  0  0  0  0  0  0  0  0  0
  140.3629   80.8565  223.6459 H   0  0  0  0  0  0  0  0  0  0  0  0
  141.8844   81.7162  224.1098 H   0  0  0  0  0  0  0  0  0  0  0  0
  140.8707   81.8633  221.6237 H   0  0  0  0  0  0  0  0  0  0  0  0
  142.6186   81.8739  221.9149 H   0  0  0  0  0  0  0  0  0  0  0  0
  141.6358   80.0707  220.2066 H   0  0  0  0  0  0  0  0  0  0  0  0
  142.8272   79.4963  221.3972 H   0  0  0  0  0  0  0  0  0  0  0  0
  136.3681   73.2849  222.7298 H   0  0  0  0  0  0  0  0  0  0  0  0
  134.8149   72.3339  224.4107 H   0  0  0  0  0  0  0  0  0  0  0  0
  1  2  1  0
  2  3  1  0
  3  4  2  0
  3  5  2  0
  3  6  1  0
  6  7  2  0
  7  8  1  0
  8  9  2  0
  9 10  1  0
 10 11  2  0
 11 12  1  0
 12 13  2  0
 13 14  1  0
 14 15  2  0
 15 16  1  0
 16 17  2  0
 17 18  1  0
 17 19  1  0
 19 20  2  0
 20 21  1  0
 21 22  2  0
 21 23  1  0
 23 24  1  0
 24 25  1  0
 25 26  1  0
 26 27  1  0
 27 28  1  0
 28 29  1  0
 29 30  1  0
  9 31  1  0
 31 32  2  0
 32  6  1  0
 23 12  1  0
 30 25  1  0
 20 14  1  0
  1 33  1  0
  1 34  1  0
  1 35  1  0
  2 36  1  0
  2 37  1  0
  7 38  1  0
  8 39  1  0
 10 40  1  0
 11 41  1  0
 15 42  1  0
 16 43  1  0
 19 44  1  0
 24 45  1  0
 24 46  1  0
 25 47  1  0
 26 48  1  0
 26 49  1  0
 27 50  1  0
 27 51  1  0
 28 52  1  0
 28 53  1  0
 29 54  1  0
 29 55  1  0
 30 56  1  0
 30 57  1  0
 31 58  1  0
 32 59  1  0
M  END
>  <smiles>  (5) 
CCS(=O)(=O)c1ccc(/C=C/c2nc3ccc(F)cc3c(=O)n2CC2CCCCC2)cc1

>  <score_type>  (5) 
oracle

>  <origin>  (5) 
autodockgpu

>  <m_score__min__energy>  (5) 
-9.5

>  <m_primary>  (5) 
energy

>  <rmsd>  (5) 
7.299511477533587

>  <m_score__min__rmsd>  (5) 
7.299511477533587

>  <meeko>  (5) 
{"free_energy": -8.23, "intermolecular_energy": -10.31, "internal_energy": -1.41, "cluster_size": 1, "cluster_id": 6, "rank_in_cluster": 1}

>  <energy>  (5) 
-8.56

>  <cluster_rmsd>  (5) 
0.95

>  <cluster>  (5) 
1

$$$$

     RDKit          3D

 59 62  0  0  0  0  0  0  0  0999 V2000
  141.1020   68.4920  228.7190 C   0  0  0  0  0  0  0  0  0  0  0  0
  139.9190   69.0080  227.9450 C   0  0  0  0  0  0  0  0  0  0  0  0
  140.0490   68.3830  226.2890 S   0  0  0  0  0  0  0  0  0  0  0  0
  138.9130   67.4280  226.0790 O   0  0  0  0  0  0  0  0  0  0  0  0
  141.3380   67.6500  226.1680 O   0  0  0  0  0  0  0  0  0  0  0  0
  139.9940   69.6610  225.0960 C   0  0  0  0  0  0  0  0  0  0  0  0
  140.7470   70.8120  225.1910 C   0  0  0  0  0  0  0  0  0  0  0  0
  140.6630   71.7860  224.2220 C   0  0  0  0  0  0  0  0  0  0  0  0
  139.8330   71.6750  223.1100 C   0  0  0  0  0  0  0  0  0  0  0  0
  139.7970   72.7530  222.1190 C   0  0  0  0  0  0  0  0  0  0  0  0
  138.7990   73.5580  221.9240 C   0  0  0  0  0  0  0  0  0  0  0  0
  138.5990   74.9520  222.1690 C   0  0  0  0  0  0  0  0  0  0  0  0
  139.7600   75.6750  222.2990 N   0  0  0  0  0  0  0  0  0  0  0  0
  139.8380   76.9580  222.5860 C   0  0  0  0  0  0  0  0  0  0  0  0
  141.0730   77.5540  222.6850 C   0  0  0  0  0  0  0  0  0  0  0  0
  141.0640   78.9150  222.9930 C   0  0  0  0  0  0  0  0  0  0  0  0
  139.9180   79.6300  223.1890 C   0  0  0  0  0  0  0  0  0  0  0  0
  139.9020   80.9510  223.4880 F   0  0  0  0  0  0  0  0  0  0  0  0
  138.6940   78.9950  223.0800 C   0  0  0  0  0  0  0  0  0  0  0  0
  138.6780   77.6560  222.7770 C   0  0  0  0  0  0  0  0  0  0  0  0
  137.5020   76.9590  222.6530 C   0  0  0  0  0  0  0  0  0  0  0  0
  136.4480   77.6270  222.8420 O   0  0  0  0  0  0  0  0  0  0  0  0
  137.4530   75.6160  222.3480 N   0  0  0  0  0  0  0  0  0  0  0  0
  136.1520   75.0570  222.2470 C   0  0  0  0  0  0  0  0  0  0  0  0
  135.4430   74.6220  223.4720 C   0  0  0  0  0  0  0  0  0  0  0  0
  135.5020   73.1090  223.7200 C   0  0  0  0  0  0  0  0  0  0  0  0
  134.7040   72.8690  225.0120 C   0  0  0  0  0  0  0  0  0  0  0  0
  133.6960   73.9610  225.2660 C   0  0  0  0  0  0  0  0  0  0  0  0
  134.3830   75.2780  225.5570 C   0  0  0  0  0  0  0  0  0  0  0  0
  135.7160   75.2480  224.7740 C   0  0  0  0  0  0  0  0  0  0  0  0
  139.0850   70.5280  223.0220 C   0  0  0  0  0  0  0  0  0  0  0  0
  139.1640   69.5310  224.0040 C   0  0  0  0  0  0  0  0  0  0  0  0
  140.9013   68.5795  229.7970 H   0  0  0  0  0  0  0  0  0  0  0  0
  141.2756   67.4364  228.4629 H   0  0  0  0  0  0  0  0  0  0  0  0
  141.9938   69.0829  228.4629 H   0  0  0  0  0  0  0  0  0  0  0  0
  138.9853   68.6551  228.4071 H   0  0  0  0  0  0  0  0  0  0  0  0
  139.9077   70.1079  227.9435 H   0  0  0  0  0  0  0  0  0  0  0  0
  141.4209   70.9532  226.0488 H   0  0  0  0  0  0  0  0  0  0  0  0
  141.2784   72.6912  224.3311 H   0  0  0  0  0  0  0  0  0  0  0  0
  140.6884   72.8909  221.4894 H   0  0  0  0  0  0  0  0  0  0  0  0
  137.9234   73.0650  221.4765 H   0  0  0  0  0  0  0  0  0  0  0  0
  142.0075   76.9944  222.5314 H   0  0  0  0  0  0  0  0  0  0  0  0
  142.0279   79.4373  223.0822 H   0  0  0  0  0  0  0  0  0  0  0  0
  137.7562   79.5494  223.2324 H   0  0  0  0  0  0  0  0  0  0  0  0
  135.5168   75.8130  221.7623 H   0  0  0  0  0  0  0  0  0  0  0  0
  136.3189   74.1171  221.7004 H   0  0  0  0  0  0  0  0  0  0  0  0
  134.4558   74.9963  223.1632 H   0  0  0  0  0  0  0  0  0  0  0  0
  135.0456   72.5644  222.8803 H   0  0  0  0  0  0  0  0  0  0  0  0
  136.5385   72.7520  223.8102 H   0  0  0  0  0  0  0  0  0  0  0  0
  134.1736   71.9089  224.9283 H   0  0  0  0  0  0  0  0  0  0  0  0
  135.4137   72.8604  225.8523 H   0  0  0  0  0  0  0  0  0  0  0  0
  133.0593   74.0765  224.3765 H   0  0  0  0  0  0  0  0  0  0  0  0
  133.0902   73.6815  226.1406 H   0  0  0  0  0  0  0  0  0  0  0  0
  133.7590   76.1175  225.2166 H   0  0  0  0  0  0  0  0  0  0  0  0
  134.5531   75.4131  226.6353 H   0  0  0  0  0  0  0  0  0  0  0  0
  136.0904   76.2720  224.6284 H   0  0  0  0  0  0  0  0  0  0  0  0
  136.4801   74.6814  225.3265 H   0  0  0  0  0  0  0  0  0  0  0  0
  138.4105   70.3883  222.1644 H   0  0  0  0  0  0  0  0  0  0  0  0
  138.5496   68.6245  223.9005 H   0  0  0  0  0  0  0  0  0  0  0  0
  1  2  1  0
  2  3  1  0
  3  4  2  0
  3  5  2  0
  3  6  1  0
  6  7  2  0
  7  8  1  0
  8  9  2  0
  9 10  1  0
 10 11  2  0
 11 12  1  0
 12 13  2  0
 13 14  1  0
 14 15  2  0
 15 16  1  0
 16 17  2  0
 17 18  1  0
 17 19  1  0
 19 20  2  0
 20 21  1  0
 21 22  2  0
 21 23  1  0
 23 24  1  0
 24 25  1  0
 25 26  1  0
 26 27  1  0
 27 28  1  0
 28 29  1  0
 29 30  1  0
  9 31  1  0
 31 32  2  0
 32  6  1  0
 23 12  1  0
 30 25  1  0
 20 14  1  0
  1 33  1  0
  1 34  1  0
  1 35  1  0
  2 36  1  0
  2 37  1  0
  7 38  1  0
  8 39  1  0
 10 40  1  0
 11 41  1  0
 15 42  1  0
 16 43  1  0
 19 44  1  0
 24 45  1  0
 24 46  1  0
 25 47  1  0
 26 48  1  0
 26 49  1  0
 27 50  1  0
 27 51  1  0
 28 52  1  0
 28 53  1  0
 29 54  1  0
 29 55  1  0
 30 56  1  0
 30 57  1  0
 31 58  1  0
 32 59  1  0
M  END
>  <smiles>  (6) 
CCS(=O)(=O)c1ccc(/C=C/c2nc3ccc(F)cc3c(=O)n2CC2CCCCC2)cc1

>  <score_type>  (6) 
oracle

>  <origin>  (6) 
autodockgpu

>  <m_score__min__energy>  (6) 
-9.5

>  <m_primary>  (6) 
energy

>  <rmsd>  (6) 
7.108801735132853

>  <m_score__min__rmsd>  (6) 
7.108801735132853

>  <meeko>  (6) 
{"free_energy": -8.64, "intermolecular_energy": -10.73, "internal_energy": -1.62, "cluster_size": 10, "cluster_id": 4, "rank_in_cluster": 1}

>  <energy>  (6) 
-8.24

>  <cluster_rmsd>  (6) 
0.65

>  <cluster>  (6) 
1

$$$$

     RDKit          3D

 59 62  0  0  0  0  0  0  0  0999 V2000
  135.4370   81.9490  228.2680 C   0  0  0  0  0  0  0  0  0  0  0  0
  135.0280   82.0420  226.8220 C   0  0  0  0  0  0  0  0  0  0  0  0
  136.4920   82.3610  225.8710 S   0  0  0  0  0  0  0  0  0  0  0  0
  137.6080   82.6140  226.8380 O   0  0  0  0  0  0  0  0  0  0  0  0
  136.2600   83.5840  225.0550 O   0  0  0  0  0  0  0  0  0  0  0  0
  136.8950   81.0270  224.8150 C   0  0  0  0  0  0  0  0  0  0  0  0
  138.1910   80.6930  224.4840 C   0  0  0  0  0  0  0  0  0  0  0  0
  138.4490   79.6320  223.6460 C   0  0  0  0  0  0  0  0  0  0  0  0
  137.4420   78.8450  223.0930 C   0  0  0  0  0  0  0  0  0  0  0  0
  137.7930   77.7310  222.2090 C   0  0  0  0  0  0  0  0  0  0  0  0
  138.6530   76.7990  222.4820 C   0  0  0  0  0  0  0  0  0  0  0  0
  139.8030   76.2940  221.7990 C   0  0  0  0  0  0  0  0  0  0  0  0
  140.0160   74.9480  221.9700 N   0  0  0  0  0  0  0  0  0  0  0  0
  141.0360   74.2640  221.4940 C   0  0  0  0  0  0  0  0  0  0  0  0
  141.1210   72.9150  221.7450 C   0  0  0  0  0  0  0  0  0  0  0  0
  142.2340   72.2690  221.2050 C   0  0  0  0  0  0  0  0  0  0  0  0
  143.1890   72.9120  220.4720 C   0  0  0  0  0  0  0  0  0  0  0  0
  144.2720   72.2920  219.9450 F   0  0  0  0  0  0  0  0  0  0  0  0
  143.0680   74.2710  220.2400 C   0  0  0  0  0  0  0  0  0  0  0  0
  141.9810   74.9280  220.7620 C   0  0  0  0  0  0  0  0  0  0  0  0
  141.7940   76.2740  220.5730 C   0  0  0  0  0  0  0  0  0  0  0  0
  142.6850   76.8610  219.9000 O   0  0  0  0  0  0  0  0  0  0  0  0
  140.7120   76.9610  221.0820 N   0  0  0  0  0  0  0  0  0  0  0  0
  140.6710   78.3480  220.7820 C   0  0  0  0  0  0  0  0  0  0  0  0
  141.1800   79.3290  221.7670 C   0  0  0  0  0  0  0  0  0  0  0  0
  141.7860   78.6900  223.0230 C   0  0  0  0  0  0  0  0  0  0  0  0
  142.2340   79.8630  223.9100 C   0  0  0  0  0  0  0  0  0  0  0  0
  141.4650   81.1250  223.6100 C   0  0  0  0  0  0  0  0  0  0  0  0
  141.7830   81.6370  222.2210 C   0  0  0  0  0  0  0  0  0  0  0  0
  142.1180   80.3900  221.3700 C   0  0  0  0  0  0  0  0  0  0  0  0
  136.1540   79.1830  223.4250 C   0  0  0  0  0  0  0  0  0  0  0  0
  135.8820   80.2620  224.2770 C   0  0  0  0  0  0  0  0  0  0  0  0
  134.5654   82.1472  228.9091 H   0  0  0  0  0  0  0  0  0  0  0  0
  135.8231   80.9401  228.4757 H   0  0  0  0  0  0  0  0  0  0  0  0
  136.2214   82.6917  228.4757 H   0  0  0  0  0  0  0  0  0  0  0  0
  134.5702   81.0951  226.4999 H   0  0  0  0  0  0  0  0  0  0  0  0
  134.2913   82.8463  226.6794 H   0  0  0  0  0  0  0  0  0  0  0  0
  139.0265   81.2798  224.8934 H   0  0  0  0  0  0  0  0  0  0  0  0
  139.4954   79.3956  223.4027 H   0  0  0  0  0  0  0  0  0  0  0  0
  137.2860   77.6806  221.2341 H   0  0  0  0  0  0  0  0  0  0  0  0
  138.4566   76.2916  223.4380 H   0  0  0  0  0  0  0  0  0  0  0  0
  140.3612   72.3796  222.3332 H   0  0  0  0  0  0  0  0  0  0  0  0
  142.3471   71.1887  221.3786 H   0  0  0  0  0  0  0  0  0  0  0  0
  143.8241   74.8117  219.6518 H   0  0  0  0  0  0  0  0  0  0  0  0
  141.2527   78.4917  219.8595 H   0  0  0  0  0  0  0  0  0  0  0  0
  139.5941   78.5674  220.7365 H   0  0  0  0  0  0  0  0  0  0  0  0
  140.2146   79.8304  221.9302 H   0  0  0  0  0  0  0  0  0  0  0  0
  141.0336   78.0801  223.5444 H   0  0  0  0  0  0  0  0  0  0  0  0
  142.6255   78.0237  222.7755 H   0  0  0  0  0  0  0  0  0  0  0  0
  142.0743   79.5921  224.9641 H   0  0  0  0  0  0  0  0  0  0  0  0
  143.2973   80.0566  223.7052 H   0  0  0  0  0  0  0  0  0  0  0  0
  140.3875   80.9144  223.6778 H   0  0  0  0  0  0  0  0  0  0  0  0
  141.7541   81.8939  224.3416 H   0  0  0  0  0  0  0  0  0  0  0  0
  140.9140   82.1640  221.8002 H   0  0  0  0  0  0  0  0  0  0  0  0
  142.6213   82.3490  222.2375 H   0  0  0  0  0  0  0  0  0  0  0  0
  141.9972   80.6195  220.3010 H   0  0  0  0  0  0  0  0  0  0  0  0
  143.1586   80.0731  221.5336 H   0  0  0  0  0  0  0  0  0  0  0  0
  135.3193   78.5958  223.0146 H   0  0  0  0  0  0  0  0  0  0  0  0
  134.8372   80.5039  224.5219 H   0  0  0  0  0  0  0  0  0  0  0  0
  1  2  1  0
  2  3  1  0
  3  4  2  0
  3  5  2  0
  3  6  1  0
  6  7  2  0
  7  8  1  0
  8  9  2  0
  9 10  1  0
 10 11  2  0
 11 12  1  0
 12 13  2  0
 13 14  1  0
 14 15  2  0
 15 16  1  0
 16 17  2  0
 17 18  1  0
 17 19  1  0
 19 20  2  0
 20 21  1  0
 21 22  2  0
 21 23  1  0
 23 24  1  0
 24 25  1  0
 25 26  1  0
 26 27  1  0
 27 28  1  0
 28 29  1  0
 29 30  1  0
  9 31  1  0
 31 32  2  0
 32  6  1  0
 23 12  1  0
 30 25  1  0
 20 14  1  0
  1 33  1  0
  1 34  1  0
  1 35  1  0
  2 36  1  0
  2 37  1  0
  7 38  1  0
  8 39  1  0
 10 40  1  0
 11 41  1  0
 15 42  1  0
 16 43  1  0
 19 44  1  0
 24 45  1  0
 24 46  1  0
 25 47  1  0
 26 48  1  0
 26 49  1  0
 27 50  1  0
 27 51  1  0
 28 52  1  0
 28 53  1  0
 29 54  1  0
 29 55  1  0
 30 56  1  0
 30 57  1  0
 31 58  1  0
 32 59  1  0
M  END
>  <smiles>  (7) 
CCS(=O)(=O)c1ccc(/C=C/c2nc3ccc(F)cc3c(=O)n2CC2CCCCC2)cc1

>  <score_type>  (7) 
oracle

>  <origin>  (7) 
autodockgpu

>  <m_score__min__energy>  (7) 
-9.5

>  <m_primary>  (7) 
energy

>  <rmsd>  (7) 
7.281377099673461

>  <m_score__min__rmsd>  (7) 
7.281377099673461

>  <meeko>  (7) 
{"free_energy": -7.7, "intermolecular_energy": -9.79, "internal_energy": -1.99, "cluster_size": 1, "cluster_id": 8, "rank_in_cluster": 1}

>  <energy>  (7) 
-9.46

>  <cluster_rmsd>  (7) 
0.0

>  <cluster>  (7) 
2

$$$$

     RDKit          3D

 59 62  0  0  0  0  0  0  0  0999 V2000
  141.2870   71.4640  228.3560 C   0  0  0  0  0  0  0  0  0  0  0  0
  141.3750   69.9720  228.1830 C   0  0  0  0  0  0  0  0  0  0  0  0
  139.9930   69.4660  227.1900 S   0  0  0  0  0  0  0  0  0  0  0  0
  138.7530   69.6910  228.0000 O   0  0  0  0  0  0  0  0  0  0  0  0
  140.1350   68.0140  226.8990 O   0  0  0  0  0  0  0  0  0  0  0  0
  139.9040   70.3530  225.6850 C   0  0  0  0  0  0  0  0  0  0  0  0
  140.8370   71.2960  225.3100 C   0  0  0  0  0  0  0  0  0  0  0  0
  140.7160   71.9640  224.1130 C   0  0  0  0  0  0  0  0  0  0  0  0
  139.6700   71.7370  223.2240 C   0  0  0  0  0  0  0  0  0  0  0  0
  139.6070   72.4870  221.9670 C   0  0  0  0  0  0  0  0  0  0  0  0
  140.6240   73.0020  221.3500 C   0  0  0  0  0  0  0  0  0  0  0  0
  141.0380   74.3460  221.0920 C   0  0  0  0  0  0  0  0  0  0  0  0
  140.4790   75.2800  221.9290 N   0  0  0  0  0  0  0  0  0  0  0  0
  140.6560   76.5830  221.8540 C   0  0  0  0  0  0  0  0  0  0  0  0
  140.0300   77.4030  222.7630 C   0  0  0  0  0  0  0  0  0  0  0  0
  140.2720   78.7690  222.6110 C   0  0  0  0  0  0  0  0  0  0  0  0
  141.0720   79.2830  221.6320 C   0  0  0  0  0  0  0  0  0  0  0  0
  141.3110   80.6070  221.4770 F   0  0  0  0  0  0  0  0  0  0  0  0
  141.6850   78.4240  220.7350 C   0  0  0  0  0  0  0  0  0  0  0  0
  141.4620   77.0760  220.8660 C   0  0  0  0  0  0  0  0  0  0  0  0
  142.0360   76.1660  220.0150 C   0  0  0  0  0  0  0  0  0  0  0  0
  142.7690   76.6490  219.1090 O   0  0  0  0  0  0  0  0  0  0  0  0
  141.8340   74.8060  220.1220 N   0  0  0  0  0  0  0  0  0  0  0  0
  142.5140   74.0080  219.1650 C   0  0  0  0  0  0  0  0  0  0  0  0
  143.7060   73.2290  219.5710 C   0  0  0  0  0  0  0  0  0  0  0  0
  144.6520   73.9880  220.5110 C   0  0  0  0  0  0  0  0  0  0  0  0
  145.8150   73.0230  220.7960 C   0  0  0  0  0  0  0  0  0  0  0  0
  145.9800   71.9970  219.7030 C   0  0  0  0  0  0  0  0  0  0  0  0
  144.7930   71.0590  219.6550 C   0  0  0  0  0  0  0  0  0  0  0  0
  143.5760   71.8800  220.1420 C   0  0  0  0  0  0  0  0  0  0  0  0
  138.7430   70.7980  223.6030 C   0  0  0  0  0  0  0  0  0  0  0  0
  138.8590   70.1120  224.8200 C   0  0  0  0  0  0  0  0  0  0  0  0
  141.2726   71.7086  229.4284 H   0  0  0  0  0  0  0  0  0  0  0  0
  142.1586   71.9400  227.8831 H   0  0  0  0  0  0  0  0  0  0  0  0
  140.3655   71.8342  227.8831 H   0  0  0  0  0  0  0  0  0  0  0  0
  142.3162   69.7075  227.6789 H   0  0  0  0  0  0  0  0  0  0  0  0
  141.3547   69.4673  229.1602 H   0  0  0  0  0  0  0  0  0  0  0  0
  141.6860   71.5165  225.9737 H   0  0  0  0  0  0  0  0  0  0  0  0
  141.4795   72.7100  223.8474 H   0  0  0  0  0  0  0  0  0  0  0  0
  138.6160   72.6242  221.5096 H   0  0  0  0  0  0  0  0  0  0  0  0
  141.3117   72.2481  220.9394 H   0  0  0  0  0  0  0  0  0  0  0  0
  139.3807   77.0080  223.5583 H   0  0  0  0  0  0  0  0  0  0  0  0
  139.7942   79.4660  223.3152 H   0  0  0  0  0  0  0  0  0  0  0  0
  142.3348   78.8126  219.9370 H   0  0  0  0  0  0  0  0  0  0  0  0
  141.7812   73.2877  218.7723 H   0  0  0  0  0  0  0  0  0  0  0  0
  142.9203   74.7470  218.4587 H   0  0  0  0  0  0  0  0  0  0  0  0
  144.0943   73.0840  218.5521 H   0  0  0  0  0  0  0  0  0  0  0  0
  145.0226   74.9030  220.0258 H   0  0  0  0  0  0  0  0  0  0  0  0
  144.1441   74.2973  221.4364 H   0  0  0  0  0  0  0  0  0  0  0  0
  146.7453   73.6037  220.8811 H   0  0  0  0  0  0  0  0  0  0  0  0
  145.5915   72.4892  221.7315 H   0  0  0  0  0  0  0  0  0  0  0  0
  146.0698   72.5132  218.7358 H   0  0  0  0  0  0  0  0  0  0  0  0
  146.8847   71.4067  219.9105 H   0  0  0  0  0  0  0  0  0  0  0  0
  144.6277   70.7051  218.6267 H   0  0  0  0  0  0  0  0  0  0  0  0
  144.9567   70.1720  220.2846 H   0  0  0  0  0  0  0  0  0  0  0  0
  142.6426   71.4123  219.7955 H   0  0  0  0  0  0  0  0  0  0  0  0
  143.5472   71.9218  221.2408 H   0  0  0  0  0  0  0  0  0  0  0  0
  137.8933   70.5798  222.9393 H   0  0  0  0  0  0  0  0  0  0  0  0
  138.0986   69.3645  225.0905 H   0  0  0  0  0  0  0  0  0  0  0  0
  1  2  1  0
  2  3  1  0
  3  4  2  0
  3  5  2  0
  3  6  1  0
  6  7  2  0
  7  8  1  0
  8  9  2  0
  9 10  1  0
 10 11  2  0
 11 12  1  0
 12 13  2  0
 13 14  1  0
 14 15  2  0
 15 16  1  0
 16 17  2  0
 17 18  1  0
 17 19  1  0
 19 20  2  0
 20 21  1  0
 21 22  2  0
 21 23  1  0
 23 24  1  0
 24 25  1  0
 25 26  1  0
 26 27  1  0
 27 28  1  0
 28 29  1  0
 29 30  1  0
  9 31  1  0
 31 32  2  0
 32  6  1  0
 23 12  1  0
 30 25  1  0
 20 14  1  0
  1 33  1  0
  1 34  1  0
  1 35  1  0
  2 36  1  0
  2 37  1  0
  7 38  1  0
  8 39  1  0
 10 40  1  0
 11 41  1  0
 15 42  1  0
 16 43  1  0
 19 44  1  0
 24 45  1  0
 24 46  1  0
 25 47  1  0
 26 48  1  0
 26 49  1  0
 27 50  1  0
 27 51  1  0
 28 52  1  0
 28 53  1  0
 29 54  1  0
 29 55  1  0
 30 56  1  0
 30 57  1  0
 31 58  1  0
 32 59  1  0
M  END
>  <smiles>  (8) 
CCS(=O)(=O)c1ccc(/C=C/c2nc3ccc(F)cc3c(=O)n2CC2CCCCC2)cc1

>  <score_type>  (8) 
oracle

>  <origin>  (8) 
autodockgpu

>  <m_score__min__energy>  (8) 
-9.5

>  <m_primary>  (8) 
energy

>  <rmsd>  (8) 
5.508114758383334

>  <m_score__min__rmsd>  (8) 
5.508114758383334

>  <meeko>  (8) 
{"free_energy": -8.38, "intermolecular_energy": -10.47, "internal_energy": -1.47, "cluster_size": 17, "cluster_id": 2, "rank_in_cluster": 12}

>  <energy>  (8) 
-9.15

>  <cluster_rmsd>  (8) 
0.5

>  <cluster>  (8) 
2

$$$$

     RDKit          3D

 59 62  0  0  0  0  0  0  0  0999 V2000
  142.4310   80.4320  223.6030 C   0  0  0  0  0  0  0  0  0  0  0  0
  142.1680   79.3580  222.5820 C   0  0  0  0  0  0  0  0  0  0  0  0
  140.4220   79.0370  222.5820 S   0  0  0  0  0  0  0  0  0  0  0  0
  139.8180   79.8420  221.4730 O   0  0  0  0  0  0  0  0  0  0  0  0
  139.8650   79.4930  223.8840 O   0  0  0  0  0  0  0  0  0  0  0  0
  140.0660   77.3380  222.3610 C   0  0  0  0  0  0  0  0  0  0  0  0
  138.8090   76.8020  222.5480 C   0  0  0  0  0  0  0  0  0  0  0  0
  138.5870   75.4570  222.3610 C   0  0  0  0  0  0  0  0  0  0  0  0
  139.5910   74.5720  221.9800 C   0  0  0  0  0  0  0  0  0  0  0  0
  139.2800   73.1510  221.8000 C   0  0  0  0  0  0  0  0  0  0  0  0
  139.9970   72.1650  222.2390 C   0  0  0  0  0  0  0  0  0  0  0  0
  139.8530   71.2580  223.3350 C   0  0  0  0  0  0  0  0  0  0  0  0
  140.4080   71.7000  224.5110 N   0  0  0  0  0  0  0  0  0  0  0  0
  140.4580   71.0230  225.6400 C   0  0  0  0  0  0  0  0  0  0  0  0
  141.0470   71.5930  226.7440 C   0  0  0  0  0  0  0  0  0  0  0  0
  141.0570   70.8060  227.8970 C   0  0  0  0  0  0  0  0  0  0  0  0
  140.5240   69.5510  227.9500 C   0  0  0  0  0  0  0  0  0  0  0  0
  140.5310   68.7820  229.0650 F   0  0  0  0  0  0  0  0  0  0  0  0
  139.9390   69.0120  226.8180 C   0  0  0  0  0  0  0  0  0  0  0  0
  139.9180   69.7670  225.6710 C   0  0  0  0  0  0  0  0  0  0  0  0
  139.3550   69.3000  224.5110 C   0  0  0  0  0  0  0  0  0  0  0  0
  138.8710   68.1360  224.5680 O   0  0  0  0  0  0  0  0  0  0  0  0
  139.3150   70.0350  223.3450 N   0  0  0  0  0  0  0  0  0  0  0  0
  138.6850   69.4010  222.2420 C   0  0  0  0  0  0  0  0  0  0  0  0
  139.5110   68.7930  221.1740 C   0  0  0  0  0  0  0  0  0  0  0  0
  139.3750   67.2690  221.0740 C   0  0  0  0  0  0  0  0  0  0  0  0
  140.3110   66.8420  219.9320 C   0  0  0  0  0  0  0  0  0  0  0  0
  141.4200   67.8380  219.7080 C   0  0  0  0  0  0  0  0  0  0  0  0
  140.8740   69.1540  219.1960 C   0  0  0  0  0  0  0  0  0  0  0  0
  139.4530   69.2890  219.7900 C   0  0  0  0  0  0  0  0  0  0  0  0
  140.8400   75.1110  221.7970 C   0  0  0  0  0  0  0  0  0  0  0  0
  141.0760   76.4790  221.9850 C   0  0  0  0  0  0  0  0  0  0  0  0
  142.3277   80.0103  224.6137 H   0  0  0  0  0  0  0  0  0  0  0  0
  143.4511   80.8217  223.4708 H   0  0  0  0  0  0  0  0  0  0  0  0
  141.7064   81.2490  223.4708 H   0  0  0  0  0  0  0  0  0  0  0  0
  142.4869   79.7002  221.5864 H   0  0  0  0  0  0  0  0  0  0  0  0
  142.7296   78.4446  222.8274 H   0  0  0  0  0  0  0  0  0  0  0  0
  137.9769   77.4553  222.8492 H   0  0  0  0  0  0  0  0  0  0  0  0
  137.5718   75.0643  222.5195 H   0  0  0  0  0  0  0  0  0  0  0  0
  138.3626   72.9011  221.2468 H   0  0  0  0  0  0  0  0  0  0  0  0
  140.9058   71.9890  221.6447 H   0  0  0  0  0  0  0  0  0  0  0  0
  141.4819   72.6031  226.7202 H   0  0  0  0  0  0  0  0  0  0  0  0
  141.5171   71.2178  228.8074 H   0  0  0  0  0  0  0  0  0  0  0  0
  139.5012   68.0030  226.8362 H   0  0  0  0  0  0  0  0  0  0  0  0
  138.0545   68.5988  222.6530 H   0  0  0  0  0  0  0  0  0  0  0  0
  138.1734   70.2289  221.7294 H   0  0  0  0  0  0  0  0  0  0  0  0
  140.4754   69.1392  221.5741 H   0  0  0  0  0  0  0  0  0  0  0  0
  139.6802   66.7939  222.0180 H   0  0  0  0  0  0  0  0  0  0  0  0
  138.3352   66.9659  220.8816 H   0  0  0  0  0  0  0  0  0  0  0  0
  140.7546   65.8670  220.1822 H   0  0  0  0  0  0  0  0  0  0  0  0
  139.7157   66.7834  219.0089 H   0  0  0  0  0  0  0  0  0  0  0  0
  141.9444   68.0121  220.6592 H   0  0  0  0  0  0  0  0  0  0  0  0
  142.1106   67.4293  218.9556 H   0  0  0  0  0  0  0  0  0  0  0  0
  141.5088   69.9872  219.5318 H   0  0  0  0  0  0  0  0  0  0  0  0
  140.8540   69.1802  218.0965 H   0  0  0  0  0  0  0  0  0  0  0  0
  139.1391   70.3432  219.7803 H   0  0  0  0  0  0  0  0  0  0  0  0
  138.7263   68.7125  219.1988 H   0  0  0  0  0  0  0  0  0  0  0  0
  141.6715   74.4563  221.4970 H   0  0  0  0  0  0  0  0  0  0  0  0
  142.0898   76.8763  221.8291 H   0  0  0  0  0  0  0  0  0  0  0  0
  1  2  1  0
  2  3  1  0
  3  4  2  0
  3  5  2  0
  3  6  1  0
  6  7  2  0
  7  8  1  0
  8  9  2  0
  9 10  1  0
 10 11  2  0
 11 12  1  0
 12 13  2  0
 13 14  1  0
 14 15  2  0
 15 16  1  0
 16 17  2  0
 17 18  1  0
 17 19  1  0
 19 20  2  0
 20 21  1  0
 21 22  2  0
 21 23  1  0
 23 24  1  0
 24 25  1  0
 25 26  1  0
 26 27  1  0
 27 28  1  0
 28 29  1  0
 29 30  1  0
  9 31  1  0
 31 32  2  0
 32  6  1  0
 23 12  1  0
 30 25  1  0
 20 14  1  0
  1 33  1  0
  1 34  1  0
  1 35  1  0
  2 36  1  0
  2 37  1  0
  7 38  1  0
  8 39  1  0
 10 40  1  0
 11 41  1  0
 15 42  1  0
 16 43  1  0
 19 44  1  0
 24 45  1  0
 24 46  1  0
 25 47  1  0
 26 48  1  0
 26 49  1  0
 27 50  1  0
 27 51  1  0
 28 52  1  0
 28 53  1  0
 29 54  1  0
 29 55  1  0
 30 56  1  0
 30 57  1  0
 31 58  1  0
 32 59  1  0
M  END
>  <smiles>  (9) 
CCS(=O)(=O)c1ccc(/C=C/c2nc3ccc(F)cc3c(=O)n2CC2CCCCC2)cc1

>  <score_type>  (9) 
oracle

>  <origin>  (9) 
autodockgpu

>  <m_score__min__energy>  (9) 
-9.5

>  <m_primary>  (9) 
energy

>  <rmsd>  (9) 
10.892464763618367

>  <m_score__min__rmsd>  (9) 
10.892464763618367

>  <meeko>  (9) 
{"free_energy": -8.24, "intermolecular_energy": -10.32, "internal_energy": -1.39, "cluster_size": 5, "cluster_id": 5, "rank_in_cluster": 1}

>  <energy>  (9) 
-9.12

>  <cluster_rmsd>  (9) 
0.85

>  <cluster>  (9) 
2

$$$$

     RDKit          3D

 59 62  0  0  0  0  0  0  0  0999 V2000
  140.8230   68.1540  227.2340 C   0  0  0  0  0  0  0  0  0  0  0  0
  139.5720   68.9730  227.0630 C   0  0  0  0  0  0  0  0  0  0  0  0
  138.9440   68.6580  225.4330 S   0  0  0  0  0  0  0  0  0  0  0  0
  137.4560   68.5280  225.5430 O   0  0  0  0  0  0  0  0  0  0  0  0
  139.5180   67.3710  224.9540 O   0  0  0  0  0  0  0  0  0  0  0  0
  139.3610   69.9320  224.3090 C   0  0  0  0  0  0  0  0  0  0  0  0
  138.7750   70.0620  223.0680 C   0  0  0  0  0  0  0  0  0  0  0  0
  139.1430   71.0850  222.2240 C   0  0  0  0  0  0  0  0  0  0  0  0
  140.1060   72.0320  222.5600 C   0  0  0  0  0  0  0  0  0  0  0  0
  140.4460   73.0930  221.6090 C   0  0  0  0  0  0  0  0  0  0  0  0
  140.0450   74.3240  221.6850 C   0  0  0  0  0  0  0  0  0  0  0  0
  140.6780   75.5800  221.4340 C   0  0  0  0  0  0  0  0  0  0  0  0
  140.3960   76.5520  222.3630 N   0  0  0  0  0  0  0  0  0  0  0  0
  140.8090   77.8010  222.3180 C   0  0  0  0  0  0  0  0  0  0  0  0
  140.4480   78.6680  223.3220 C   0  0  0  0  0  0  0  0  0  0  0  0
  140.9270   79.9730  223.1960 C   0  0  0  0  0  0  0  0  0  0  0  0
  141.7060   80.3860  222.1540 C   0  0  0  0  0  0  0  0  0  0  0  0
  142.1750   81.6500  222.0240 F   0  0  0  0  0  0  0  0  0  0  0  0
  142.0490   79.4830  221.1620 C   0  0  0  0  0  0  0  0  0  0  0  0
  141.5880   78.1940  221.2660 C   0  0  0  0  0  0  0  0  0  0  0  0
  141.8880   77.2440  220.3220 C   0  0  0  0  0  0  0  0  0  0  0  0
  142.6030   77.6360  219.3590 O   0  0  0  0  0  0  0  0  0  0  0  0
  141.4420   75.9410  220.3980 N   0  0  0  0  0  0  0  0  0  0  0  0
  141.8560   75.0890  219.3410 C   0  0  0  0  0  0  0  0  0  0  0  0
  143.0730   74.2600  219.5000 C   0  0  0  0  0  0  0  0  0  0  0  0
  144.1360   74.8840  220.4130 C   0  0  0  0  0  0  0  0  0  0  0  0
  145.3050   73.8860  220.4320 C   0  0  0  0  0  0  0  0  0  0  0  0
  145.3230   73.0140  219.2020 C   0  0  0  0  0  0  0  0  0  0  0  0
  144.1210   72.0940  219.1710 C   0  0  0  0  0  0  0  0  0  0  0  0
  142.9850   72.8470  219.9010 C   0  0  0  0  0  0  0  0  0  0  0  0
  140.6870   71.8960  223.7960 C   0  0  0  0  0  0  0  0  0  0  0  0
  140.3190   70.8570  224.6620 C   0  0  0  0  0  0  0  0  0  0  0  0
  141.0292   68.0190  228.3060 H   0  0  0  0  0  0  0  0  0  0  0  0
  140.6851   67.1708  226.7605 H   0  0  0  0  0  0  0  0  0  0  0  0
  141.6690   68.6736  226.7605 H   0  0  0  0  0  0  0  0  0  0  0  0
  138.8256   68.6796  227.8159 H   0  0  0  0  0  0  0  0  0  0  0  0
  139.7898   70.0433  227.1933 H   0  0  0  0  0  0  0  0  0  0  0  0
  138.0067   69.3420  222.7496 H   0  0  0  0  0  0  0  0  0  0  0  0
  138.6547   71.1573  221.2410 H   0  0  0  0  0  0  0  0  0  0  0  0
  141.0939   72.8238  220.7618 H   0  0  0  0  0  0  0  0  0  0  0  0
  138.9989   74.4214  222.0108 H   0  0  0  0  0  0  0  0  0  0  0  0
  139.8220   78.3535  224.1701 H   0  0  0  0  0  0  0  0  0  0  0  0
  140.6639   80.7043  223.9744 H   0  0  0  0  0  0  0  0  0  0  0  0
  142.6753   79.7907  220.3117 H   0  0  0  0  0  0  0  0  0  0  0  0
  141.0231   74.3981  219.1434 H   0  0  0  0  0  0  0  0  0  0  0  0
  142.1272   75.7904  218.5382 H   0  0  0  0  0  0  0  0  0  0  0  0
  143.3377   74.2512  218.4324 H   0  0  0  0  0  0  0  0  0  0  0  0
  144.4657   75.8534  220.0111 H   0  0  0  0  0  0  0  0  0  0  0  0
  143.7445   75.0703  221.4239 H   0  0  0  0  0  0  0  0  0  0  0  0
  146.2499   74.4467  220.4837 H   0  0  0  0  0  0  0  0  0  0  0  0
  145.1809   73.2339  221.3091 H   0  0  0  0  0  0  0  0  0  0  0  0
  145.3093   73.6538  218.3073 H   0  0  0  0  0  0  0  0  0  0  0  0
  146.2346   72.3987  219.2221 H   0  0  0  0  0  0  0  0  0  0  0  0
  143.8308   71.8801  218.1318 H   0  0  0  0  0  0  0  0  0  0  0  0
  144.3400   71.1307  219.6548 H   0  0  0  0  0  0  0  0  0  0  0  0
  142.0090   72.4322  219.6087 H   0  0  0  0  0  0  0  0  0  0  0  0
  143.0850   72.7432  220.9915 H   0  0  0  0  0  0  0  0  0  0  0  0
  141.4559   72.6159  224.1130 H   0  0  0  0  0  0  0  0  0  0  0  0
  140.8059   70.7785  225.6452 H   0  0  0  0  0  0  0  0  0  0  0  0
  1  2  1  0
  2  3  1  0
  3  4  2  0
  3  5  2  0
  3  6  1  0
  6  7  2  0
  7  8  1  0
  8  9  2  0
  9 10  1  0
 10 11  2  0
 11 12  1  0
 12 13  2  0
 13 14  1  0
 14 15  2  0
 15 16  1  0
 16 17  2  0
 17 18  1  0
 17 19  1  0
 19 20  2  0
 20 21  1  0
 21 22  2  0
 21 23  1  0
 23 24  1  0
 24 25  1  0
 25 26  1  0
 26 27  1  0
 27 28  1  0
 28 29  1  0
 29 30  1  0
  9 31  1  0
 31 32  2  0
 32  6  1  0
 23 12  1  0
 30 25  1  0
 20 14  1  0
  1 33  1  0
  1 34  1  0
  1 35  1  0
  2 36  1  0
  2 37  1  0
  7 38  1  0
  8 39  1  0
 10 40  1  0
 11 41  1  0
 15 42  1  0
 16 43  1  0
 19 44  1  0
 24 45  1  0
 24 46  1  0
 25 47  1  0
 26 48  1  0
 26 49  1  0
 27 50  1  0
 27 51  1  0
 28 52  1  0
 28 53  1  0
 29 54  1  0
 29 55  1  0
 30 56  1  0
 30 57  1  0
 31 58  1  0
 32 59  1  0
M  END
>  <smiles>  (10) 
CCS(=O)(=O)c1ccc(/C=C/c2nc3ccc(F)cc3c(=O)n2CC2CCCCC2)cc1

>  <score_type>  (10) 
oracle

>  <origin>  (10) 
autodockgpu

>  <m_score__min__energy>  (10) 
-9.5

>  <m_primary>  (10) 
energy

>  <rmsd>  (10) 
4.660318736240428

>  <m_score__min__rmsd>  (10) 
4.660318736240428

>  <meeko>  (10) 
{"free_energy": -8.39, "intermolecular_energy": -10.47, "internal_energy": -1.48, "cluster_size": 17, "cluster_id": 2, "rank_in_cluster": 11}

>  <energy>  (10) 
-9.1

>  <cluster_rmsd>  (10) 
0.73

>  <cluster>  (10) 
2

$$$$

     RDKit          3D

 59 62  0  0  0  0  0  0  0  0999 V2000
  140.2970   70.3090  227.9100 C   0  0  0  0  0  0  0  0  0  0  0  0
  139.6580   69.0210  227.4620 C   0  0  0  0  0  0  0  0  0  0  0  0
  140.2000   68.7050  225.8020 S   0  0  0  0  0  0  0  0  0  0  0  0
  139.5370   67.4400  225.3470 O   0  0  0  0  0  0  0  0  0  0  0  0
  141.6740   68.5090  225.8220 O   0  0  0  0  0  0  0  0  0  0  0  0
  139.8040   70.0200  224.7180 C   0  0  0  0  0  0  0  0  0  0  0  0
  140.6890   71.0310  224.4080 C   0  0  0  0  0  0  0  0  0  0  0  0
  140.3230   72.0430  223.5490 C   0  0  0  0  0  0  0  0  0  0  0  0
  139.0670   72.1080  222.9520 C   0  0  0  0  0  0  0  0  0  0  0  0
  138.7490   73.2160  222.0470 C   0  0  0  0  0  0  0  0  0  0  0  0
  139.4000   73.5110  220.9660 C   0  0  0  0  0  0  0  0  0  0  0  0
  140.7400   73.9400  220.7130 C   0  0  0  0  0  0  0  0  0  0  0  0
  141.6820   72.9460  220.8230 N   0  0  0  0  0  0  0  0  0  0  0  0
  142.9830   73.1030  220.6970 C   0  0  0  0  0  0  0  0  0  0  0  0
  143.8120   72.0150  220.8340 C   0  0  0  0  0  0  0  0  0  0  0  0
  145.1760   72.2700  220.6860 C   0  0  0  0  0  0  0  0  0  0  0  0
  145.6800   73.5110  220.4230 C   0  0  0  0  0  0  0  0  0  0  0  0
  147.0020   73.7670  220.2790 F   0  0  0  0  0  0  0  0  0  0  0  0
  144.8130   74.5830  220.2920 C   0  0  0  0  0  0  0  0  0  0  0  0
  143.4670   74.3550  220.4340 C   0  0  0  0  0  0  0  0  0  0  0  0
  142.5490   75.3680  220.3160 C   0  0  0  0  0  0  0  0  0  0  0  0
  143.0240   76.5120  220.0800 O   0  0  0  0  0  0  0  0  0  0  0  0
  141.1910   75.1700  220.4510 N   0  0  0  0  0  0  0  0  0  0  0  0
  140.3840   76.3270  220.2880 C   0  0  0  0  0  0  0  0  0  0  0  0
  140.5400   77.4680  221.2190 C   0  0  0  0  0  0  0  0  0  0  0  0
  141.0550   77.0710  222.6080 C   0  0  0  0  0  0  0  0  0  0  0  0
  141.1310   78.3800  223.4120 C   0  0  0  0  0  0  0  0  0  0  0  0
  140.1920   79.4290  222.8730 C   0  0  0  0  0  0  0  0  0  0  0  0
  140.6160   79.8800  221.4920 C   0  0  0  0  0  0  0  0  0  0  0  0
  141.3090   78.6630  220.8370 C   0  0  0  0  0  0  0  0  0  0  0  0
  138.1910   71.1000  223.2660 C   0  0  0  0  0  0  0  0  0  0  0  0
  138.5550   70.0660  224.1400 C   0  0  0  0  0  0  0  0  0  0  0  0
  140.3155   70.3462  229.0092 H   0  0  0  0  0  0  0  0  0  0  0  0
  141.3257   70.3616  227.5240 H   0  0  0  0  0  0  0  0  0  0  0  0
  139.7166   71.1599  227.5240 H   0  0  0  0  0  0  0  0  0  0  0  0
  139.9696   68.1979  228.1218 H   0  0  0  0  0  0  0  0  0  0  0  0
  138.5615   69.0980  227.5032 H   0  0  0  0  0  0  0  0  0  0  0  0
  141.6960   71.0290  224.8507 H   0  0  0  0  0  0  0  0  0  0  0  0
  141.0541   72.8337  223.3249 H   0  0  0  0  0  0  0  0  0  0  0  0
  137.8875   73.8488  222.3065 H   0  0  0  0  0  0  0  0  0  0  0  0
  138.7954   73.4103  220.0526 H   0  0  0  0  0  0  0  0  0  0  0  0
  143.4248   71.0076  221.0467 H   0  0  0  0  0  0  0  0  0  0  0  0
  145.8792   71.4301  220.7862 H   0  0  0  0  0  0  0  0  0  0  0  0
  145.1939   75.5928  220.0793 H   0  0  0  0  0  0  0  0  0  0  0  0
  140.5792   76.7120  219.2762 H   0  0  0  0  0  0  0  0  0  0  0  0
  139.3679   75.9620  220.4985 H   0  0  0  0  0  0  0  0  0  0  0  0
  139.4834   77.7728  221.1946 H   0  0  0  0  0  0  0  0  0  0  0  0
  140.3604   76.3658  223.0877 H   0  0  0  0  0  0  0  0  0  0  0  0
  142.0333   76.5713  222.5513 H   0  0  0  0  0  0  0  0  0  0  0  0
  140.8657   78.1699  224.4586 H   0  0  0  0  0  0  0  0  0  0  0  0
  142.1569   78.7688  223.3320 H   0  0  0  0  0  0  0  0  0  0  0  0
  139.1769   79.0088  222.8181 H   0  0  0  0  0  0  0  0  0  0  0  0
  140.2140   80.2980  223.5471 H   0  0  0  0  0  0  0  0  0  0  0  0
  139.7376   80.1819  220.9027 H   0  0  0  0  0  0  0  0  0  0  0  0
  141.2906   80.7474  221.5422 H   0  0  0  0  0  0  0  0  0  0  0  0
  141.3128   78.7751  219.7427 H   0  0  0  0  0  0  0  0  0  0  0  0
  142.3531   78.5800  221.1732 H   0  0  0  0  0  0  0  0  0  0  0  0
  137.1839   71.1031  222.8236 H   0  0  0  0  0  0  0  0  0  0  0  0
  137.8268   69.2740  224.3691 H   0  0  0  0  0  0  0  0  0  0  0  0
  1  2  1  0
  2  3  1  0
  3  4  2  0
  3  5  2  0
  3  6  1  0
  6  7  2  0
  7  8  1  0
  8  9  2  0
  9 10  1  0
 10 11  2  0
 11 12  1  0
 12 13  2  0
 13 14  1  0
 14 15  2  0
 15 16  1  0
 16 17  2  0
 17 18  1  0
 17 19  1  0
 19 20  2  0
 20 21  1  0
 21 22  2  0
 21 23  1  0
 23 24  1  0
 24 25  1  0
 25 26  1  0
 26 27  1  0
 27 28  1  0
 28 29  1  0
 29 30  1  0
  9 31  1  0
 31 32  2  0
 32  6  1  0
 23 12  1  0
 30 25  1  0
 20 14  1  0
  1 33  1  0
  1 34  1  0
  1 35  1  0
  2 36  1  0
  2 37  1  0
  7 38  1  0
  8 39  1  0
 10 40  1  0
 11 41  1  0
 15 42  1  0
 16 43  1  0
 19 44  1  0
 24 45  1  0
 24 46  1  0
 25 47  1  0
 26 48  1  0
 26 49  1  0
 27 50  1  0
 27 51  1  0
 28 52  1  0
 28 53  1  0
 29 54  1  0
 29 55  1  0
 30 56  1  0
 30 57  1  0
 31 58  1  0
 32 59  1  0
M  END
>  <smiles>  (11) 
CCS(=O)(=O)c1ccc(/C=C/c2nc3ccc(F)cc3c(=O)n2CC2CCCCC2)cc1

>  <score_type>  (11) 
oracle

>  <origin>  (11) 
autodockgpu

>  <m_score__min__energy>  (11) 
-9.5

>  <m_primary>  (11) 
energy

>  <rmsd>  (11) 
7.400015531607157

>  <m_score__min__rmsd>  (11) 
7.400015531607157

>  <meeko>  (11) 
{"free_energy": -8.24, "intermolecular_energy": -10.33, "internal_energy": -1.64, "cluster_size": 6, "cluster_id": 1, "rank_in_cluster": 6}

>  <energy>  (11) 
-9.0

>  <cluster_rmsd>  (11) 
0.5

>  <cluster>  (11) 
2

$$$$

     RDKit          3D

 59 62  0  0  0  0  0  0  0  0999 V2000
  142.7200   80.1590  223.1820 C   0  0  0  0  0  0  0  0  0  0  0  0
  141.7610   79.0450  223.5080 C   0  0  0  0  0  0  0  0  0  0  0  0
  140.8830   78.6420  222.0190 S   0  0  0  0  0  0  0  0  0  0  0  0
  141.7870   78.9560  220.8670 O   0  0  0  0  0  0  0  0  0  0  0  0
  139.6720   79.5040  221.9450 O   0  0  0  0  0  0  0  0  0  0  0  0
  140.4020   76.9610  221.9730 C   0  0  0  0  0  0  0  0  0  0  0  0
  141.2470   75.9460  221.5770 C   0  0  0  0  0  0  0  0  0  0  0  0
  140.8130   74.6400  221.5600 C   0  0  0  0  0  0  0  0  0  0  0  0
  139.5250   74.2680  221.9320 C   0  0  0  0  0  0  0  0  0  0  0  0
  139.1340   72.8560  221.8880 C   0  0  0  0  0  0  0  0  0  0  0  0
  139.8710   71.8620  222.2770 C   0  0  0  0  0  0  0  0  0  0  0  0
  139.7900   70.9520  223.3770 C   0  0  0  0  0  0  0  0  0  0  0  0
  140.3220   71.4320  224.5490 N   0  0  0  0  0  0  0  0  0  0  0  0
  140.4200   70.7640  225.6790 C   0  0  0  0  0  0  0  0  0  0  0  0
  140.9770   71.3730  226.7780 C   0  0  0  0  0  0  0  0  0  0  0  0
  141.0430   70.5930  227.9330 C   0  0  0  0  0  0  0  0  0  0  0  0
  140.5910   69.3070  227.9940 C   0  0  0  0  0  0  0  0  0  0  0  0
  140.6520   68.5440  229.1110 F   0  0  0  0  0  0  0  0  0  0  0  0
  140.0360   68.7280  226.8660 C   0  0  0  0  0  0  0  0  0  0  0  0
  139.9600   69.4770  225.7170 C   0  0  0  0  0  0  0  0  0  0  0  0
  139.4220   68.9700  224.5620 C   0  0  0  0  0  0  0  0  0  0  0  0
  139.0130   67.7780  224.6250 O   0  0  0  0  0  0  0  0  0  0  0  0
  139.3310   69.6970  223.3930 N   0  0  0  0  0  0  0  0  0  0  0  0
  138.7360   69.0210  222.2960 C   0  0  0  0  0  0  0  0  0  0  0  0
  139.5830   68.5540  221.1750 C   0  0  0  0  0  0  0  0  0  0  0  0
  139.4580   67.0530  220.8840 C   0  0  0  0  0  0  0  0  0  0  0  0
  140.4160   66.7760  219.7140 C   0  0  0  0  0  0  0  0  0  0  0  0
  141.5220   67.7980  219.6340 C   0  0  0  0  0  0  0  0  0  0  0  0
  140.9750   69.1640  219.2800 C   0  0  0  0  0  0  0  0  0  0  0  0
  139.5430   69.2170  219.8620 C   0  0  0  0  0  0  0  0  0  0  0  0
  138.6880   75.2820  222.3240 C   0  0  0  0  0  0  0  0  0  0  0  0
  139.1210   76.6150  222.3440 C   0  0  0  0  0  0  0  0  0  0  0  0
  143.1000   80.6005  224.1151 H   0  0  0  0  0  0  0  0  0  0  0  0
  143.5610   79.7592  222.5964 H   0  0  0  0  0  0  0  0  0  0  0  0
  142.1996   80.9312  222.5964 H   0  0  0  0  0  0  0  0  0  0  0  0
  142.3155   78.1653  223.8665 H   0  0  0  0  0  0  0  0  0  0  0  0
  141.0612   79.3557  224.2978 H   0  0  0  0  0  0  0  0  0  0  0  0
  142.2771   76.1821  221.2719 H   0  0  0  0  0  0  0  0  0  0  0  0
  141.5148   73.8564  221.2384 H   0  0  0  0  0  0  0  0  0  0  0  0
  138.1347   72.6202  221.4932 H   0  0  0  0  0  0  0  0  0  0  0  0
  140.7386   71.6816  221.6252 H   0  0  0  0  0  0  0  0  0  0  0  0
  141.3469   72.4085  226.7489 H   0  0  0  0  0  0  0  0  0  0  0  0
  141.4811   71.0367  228.8392 H   0  0  0  0  0  0  0  0  0  0  0  0
  139.6646   67.6928  226.8890 H   0  0  0  0  0  0  0  0  0  0  0  0
  138.2300   68.1338  222.7045 H   0  0  0  0  0  0  0  0  0  0  0  0
  138.1017   69.7918  221.8338 H   0  0  0  0  0  0  0  0  0  0  0  0
  140.5385   68.8522  221.6310 H   0  0  0  0  0  0  0  0  0  0  0  0
  139.7504   66.4654  221.7667 H   0  0  0  0  0  0  0  0  0  0  0  0
  138.4235   66.7715  220.6376 H   0  0  0  0  0  0  0  0  0  0  0  0
  140.8624   65.7798  219.8490 H   0  0  0  0  0  0  0  0  0  0  0  0
  139.8362   66.8297  218.7807 H   0  0  0  0  0  0  0  0  0  0  0  0
  142.0296   67.8554  220.6082 H   0  0  0  0  0  0  0  0  0  0  0  0
  142.2277   67.4893  218.8487 H   0  0  0  0  0  0  0  0  0  0  0  0
  141.5982   69.9524  219.7273 H   0  0  0  0  0  0  0  0  0  0  0  0
  140.9727   69.3262  218.1920 H   0  0  0  0  0  0  0  0  0  0  0  0
  139.2213   70.2626  219.9773 H   0  0  0  0  0  0  0  0  0  0  0  0
  138.8300   68.7144  219.1920 H   0  0  0  0  0  0  0  0  0  0  0  0
  137.6580   75.0445  222.6283 H   0  0  0  0  0  0  0  0  0  0  0  0
  138.4224   77.4025  222.6630 H   0  0  0  0  0  0  0  0  0  0  0  0
  1  2  1  0
  2  3  1  0
  3  4  2  0
  3  5  2  0
  3  6  1  0
  6  7  2  0
  7  8  1  0
  8  9  2  0
  9 10  1  0
 10 11  2  0
 11 12  1  0
 12 13  2  0
 13 14  1  0
 14 15  2  0
 15 16  1  0
 16 17  2  0
 17 18  1  0
 17 19  1  0
 19 20  2  0
 20 21  1  0
 21 22  2  0
 21 23  1  0
 23 24  1  0
 24 25  1  0
 25 26  1  0
 26 27  1  0
 27 28  1  0
 28 29  1  0
 29 30  1  0
  9 31  1  0
 31 32  2  0
 32  6  1  0
 23 12  1  0
 30 25  1  0
 20 14  1  0
  1 33  1  0
  1 34  1  0
  1 35  1  0
  2 36  1  0
  2 37  1  0
  7 38  1  0
  8 39  1  0
 10 40  1  0
 11 41  1  0
 15 42  1  0
 16 43  1  0
 19 44  1  0
 24 45  1  0
 24 46  1  0
 25 47  1  0
 26 48  1  0
 26 49  1  0
 27 50  1  0
 27 51  1  0
 28 52  1  0
 28 53  1  0
 29 54  1  0
 29 55  1  0
 30 56  1  0
 30 57  1  0
 31 58  1  0
 32 59  1  0
M  END
>  <smiles>  (12) 
CCS(=O)(=O)c1ccc(/C=C/c2nc3ccc(F)cc3c(=O)n2CC2CCCCC2)cc1

>  <score_type>  (12) 
oracle

>  <origin>  (12) 
autodockgpu

>  <m_score__min__energy>  (12) 
-9.5

>  <m_primary>  (12) 
energy

>  <rmsd>  (12) 
11.084606662483392

>  <m_score__min__rmsd>  (12) 
11.084606662483392

>  <meeko>  (12) 
{"free_energy": -8.19, "intermolecular_energy": -10.27, "internal_energy": -1.39, "cluster_size": 5, "cluster_id": 5, "rank_in_cluster": 2}

>  <energy>  (12) 
-8.99

>  <cluster_rmsd>  (12) 
0.68

>  <cluster>  (12) 
2

$$$$

     RDKit          3D

 59 62  0  0  0  0  0  0  0  0999 V2000
  140.3570   70.5800  227.9920 C   0  0  0  0  0  0  0  0  0  0  0  0
  139.7660   69.2020  227.8610 C   0  0  0  0  0  0  0  0  0  0  0  0
  140.1010   68.6310  226.2140 S   0  0  0  0  0  0  0  0  0  0  0  0
  139.2000   67.4640  225.9510 O   0  0  0  0  0  0  0  0  0  0  0  0
  141.5190   68.1820  226.1560 O   0  0  0  0  0  0  0  0  0  0  0  0
  139.8400   69.8810  225.0180 C   0  0  0  0  0  0  0  0  0  0  0  0
  138.6630   70.0130  224.3120 C   0  0  0  0  0  0  0  0  0  0  0  0
  138.5140   71.0160  223.3810 C   0  0  0  0  0  0  0  0  0  0  0  0
  139.5160   71.9400  223.1000 C   0  0  0  0  0  0  0  0  0  0  0  0
  139.2840   72.9810  222.0950 C   0  0  0  0  0  0  0  0  0  0  0  0
  140.1880   73.4790  221.3100 C   0  0  0  0  0  0  0  0  0  0  0  0
  140.7580   74.7830  221.1730 C   0  0  0  0  0  0  0  0  0  0  0  0
  140.2710   75.7100  222.0620 N   0  0  0  0  0  0  0  0  0  0  0  0
  140.5930   76.9860  222.0950 C   0  0  0  0  0  0  0  0  0  0  0  0
  140.0250   77.8020  223.0440 C   0  0  0  0  0  0  0  0  0  0  0  0
  140.4210   79.1390  223.0080 C   0  0  0  0  0  0  0  0  0  0  0  0
  141.3130   79.6310  222.0990 C   0  0  0  0  0  0  0  0  0  0  0  0
  141.7020   80.9280  222.0570 F   0  0  0  0  0  0  0  0  0  0  0  0
  141.8640   78.7780  221.1590 C   0  0  0  0  0  0  0  0  0  0  0  0
  141.4890   77.4570  221.1760 C   0  0  0  0  0  0  0  0  0  0  0  0
  141.9940   76.5540  220.2750 C   0  0  0  0  0  0  0  0  0  0  0  0
  142.8130   77.0180  219.4350 O   0  0  0  0  0  0  0  0  0  0  0  0
  141.6390   75.2210  220.2680 N   0  0  0  0  0  0  0  0  0  0  0  0
  142.2660   74.4250  219.2740 C   0  0  0  0  0  0  0  0  0  0  0  0
  143.6070   73.8510  219.5300 C   0  0  0  0  0  0  0  0  0  0  0  0
  144.4180   73.5740  218.2590 C   0  0  0  0  0  0  0  0  0  0  0  0
  145.7510   72.9760  218.7380 C   0  0  0  0  0  0  0  0  0  0  0  0
  145.6250   72.3300  220.0950 C   0  0  0  0  0  0  0  0  0  0  0  0
  145.3370   73.3630  221.1640 C   0  0  0  0  0  0  0  0  0  0  0  0
  144.5430   74.4920  220.4670 C   0  0  0  0  0  0  0  0  0  0  0  0
  140.6850   71.8020  223.8040 C   0  0  0  0  0  0  0  0  0  0  0  0
  140.8470   70.7840  224.7540 C   0  0  0  0  0  0  0  0  0  0  0  0
  140.4654   70.8327  229.0571 H   0  0  0  0  0  0  0  0  0  0  0  0
  141.3442   70.6032  227.5073 H   0  0  0  0  0  0  0  0  0  0  0  0
  139.6933   71.3112  227.5073 H   0  0  0  0  0  0  0  0  0  0  0  0
  140.2274   68.5243  228.5944 H   0  0  0  0  0  0  0  0  0  0  0  0
  138.6825   69.2260  228.0494 H   0  0  0  0  0  0  0  0  0  0  0  0
  137.8361   69.3109  224.4943 H   0  0  0  0  0  0  0  0  0  0  0  0
  137.5617   71.0904  222.8355 H   0  0  0  0  0  0  0  0  0  0  0  0
  138.2602   73.3715  221.9988 H   0  0  0  0  0  0  0  0  0  0  0  0
  140.6025   72.7458  220.6024 H   0  0  0  0  0  0  0  0  0  0  0  0
  139.3043   77.4249  223.7845 H   0  0  0  0  0  0  0  0  0  0  0  0
  139.9935   79.8311  223.7485 H   0  0  0  0  0  0  0  0  0  0  0  0
  142.5851   79.1492  220.4159 H   0  0  0  0  0  0  0  0  0  0  0  0
  141.5915   73.5804  219.0697 H   0  0  0  0  0  0  0  0  0  0  0  0
  142.4445   75.1351  218.4531 H   0  0  0  0  0  0  0  0  0  0  0  0
  143.2423   72.9487  220.0428 H   0  0  0  0  0  0  0  0  0  0  0  0
  143.8869   72.8591  217.6134 H   0  0  0  0  0  0  0  0  0  0  0  0
  144.5725   74.4891  217.6685 H   0  0  0  0  0  0  0  0  0  0  0  0
  146.0810   72.2176  218.0128 H   0  0  0  0  0  0  0  0  0  0  0  0
  146.4815   73.7945  218.8178 H   0  0  0  0  0  0  0  0  0  0  0  0
  144.8032   71.5992  220.0704 H   0  0  0  0  0  0  0  0  0  0  0  0
  146.5762   71.8328  220.3358 H   0  0  0  0  0  0  0  0  0  0  0  0
  144.7384   72.9186  221.9728 H   0  0  0  0  0  0  0  0  0  0  0  0
  146.2652   73.7440  221.6149 H   0  0  0  0  0  0  0  0  0  0  0  0
  143.9868   75.0779  221.2136 H   0  0  0  0  0  0  0  0  0  0  0  0
  145.2212   75.1755  219.9352 H   0  0  0  0  0  0  0  0  0  0  0  0
  141.5116   72.5039  223.6195 H   0  0  0  0  0  0  0  0  0  0  0  0
  141.7983   70.7042  225.3005 H   0  0  0  0  0  0  0  0  0  0  0  0
  1  2  1  0
  2  3  1  0
  3  4  2  0
  3  5  2  0
  3  6  1  0
  6  7  2  0
  7  8  1  0
  8  9  2  0
  9 10  1  0
 10 11  2  0
 11 12  1  0
 12 13  2  0
 13 14  1  0
 14 15  2  0
 15 16  1  0
 16 17  2  0
 17 18  1  0
 17 19  1  0
 19 20  2  0
 20 21  1  0
 21 22  2  0
 21 23  1  0
 23 24  1  0
 24 25  1  0
 25 26  1  0
 26 27  1  0
 27 28  1  0
 28 29  1  0
 29 30  1  0
  9 31  1  0
 31 32  2  0
 32  6  1  0
 23 12  1  0
 30 25  1  0
 20 14  1  0
  1 33  1  0
  1 34  1  0
  1 35  1  0
  2 36  1  0
  2 37  1  0
  7 38  1  0
  8 39  1  0
 10 40  1  0
 11 41  1  0
 15 42  1  0
 16 43  1  0
 19 44  1  0
 24 45  1  0
 24 46  1  0
 25 47  1  0
 26 48  1  0
 26 49  1  0
 27 50  1  0
 27 51  1  0
 28 52  1  0
 28 53  1  0
 29 54  1  0
 29 55  1  0
 30 56  1  0
 30 57  1  0
 31 58  1  0
 32 59  1  0
M  END
>  <smiles>  (13) 
CCS(=O)(=O)c1ccc(/C=C/c2nc3ccc(F)cc3c(=O)n2CC2CCCCC2)cc1

>  <score_type>  (13) 
oracle

>  <origin>  (13) 
autodockgpu

>  <m_score__min__energy>  (13) 
-9.5

>  <m_primary>  (13) 
energy

>  <rmsd>  (13) 
5.095317807204053

>  <m_score__min__rmsd>  (13) 
5.095317807204053

>  <meeko>  (13) 
{"free_energy": -9.0, "intermolecular_energy": -11.09, "internal_energy": -1.44, "cluster_size": 17, "cluster_id": 2, "rank_in_cluster": 5}

>  <energy>  (13) 
-8.69

>  <cluster_rmsd>  (13) 
0.71

>  <cluster>  (13) 
2

$$$$

     RDKit          3D

 59 62  0  0  0  0  0  0  0  0999 V2000
  140.9310   68.5130  228.7250 C   0  0  0  0  0  0  0  0  0  0  0  0
  139.8730   69.1160  227.8390 C   0  0  0  0  0  0  0  0  0  0  0  0
  140.1030   68.4580  226.2070 S   0  0  0  0  0  0  0  0  0  0  0  0
  139.0910   67.3700  226.0160 O   0  0  0  0  0  0  0  0  0  0  0  0
  141.4710   67.8790  226.1270 O   0  0  0  0  0  0  0  0  0  0  0  0
  139.9180   69.6820  224.9710 C   0  0  0  0  0  0  0  0  0  0  0  0
  138.9430   69.6280  223.9990 C   0  0  0  0  0  0  0  0  0  0  0  0
  138.8450   70.6210  223.0490 C   0  0  0  0  0  0  0  0  0  0  0  0
  139.7030   71.7160  223.0110 C   0  0  0  0  0  0  0  0  0  0  0  0
  139.5380   72.7340  221.9700 C   0  0  0  0  0  0  0  0  0  0  0  0
  138.5560   73.5770  221.8960 C   0  0  0  0  0  0  0  0  0  0  0  0
  138.4450   74.9800  222.1460 C   0  0  0  0  0  0  0  0  0  0  0  0
  139.6490   75.6340  222.2430 N   0  0  0  0  0  0  0  0  0  0  0  0
  139.8100   76.9090  222.5270 C   0  0  0  0  0  0  0  0  0  0  0  0
  141.0800   77.4320  222.5910 C   0  0  0  0  0  0  0  0  0  0  0  0
  141.1600   78.7910  222.8990 C   0  0  0  0  0  0  0  0  0  0  0  0
  140.0640   79.5720  223.1270 C   0  0  0  0  0  0  0  0  0  0  0  0
  140.1330   80.8910  223.4260 F   0  0  0  0  0  0  0  0  0  0  0  0
  138.8010   79.0090  223.0520 C   0  0  0  0  0  0  0  0  0  0  0  0
  138.6990   77.6730  222.7510 C   0  0  0  0  0  0  0  0  0  0  0  0
  137.4820   77.0470  222.6600 C   0  0  0  0  0  0  0  0  0  0  0  0
  136.4740   77.7750  222.8780 O   0  0  0  0  0  0  0  0  0  0  0  0
  137.3450   75.7090  222.3570 N   0  0  0  0  0  0  0  0  0  0  0  0
  136.0110   75.2280  222.2920 C   0  0  0  0  0  0  0  0  0  0  0  0
  135.3590   74.7060  223.5150 C   0  0  0  0  0  0  0  0  0  0  0  0
  135.4660   73.1840  223.6760 C   0  0  0  0  0  0  0  0  0  0  0  0
  134.7230   72.8510  224.9800 C   0  0  0  0  0  0  0  0  0  0  0  0
  133.6970   73.8990  225.3290 C   0  0  0  0  0  0  0  0  0  0  0  0
  134.3600   75.2170  225.6690 C   0  0  0  0  0  0  0  0  0  0  0  0
  135.6640   75.2680  224.8400 C   0  0  0  0  0  0  0  0  0  0  0  0
  140.6730   71.7630  223.9810 C   0  0  0  0  0  0  0  0  0  0  0  0
  140.7800   70.7570  224.9510 C   0  0  0  0  0  0  0  0  0  0  0  0
  140.6585   68.6683  229.7793 H   0  0  0  0  0  0  0  0  0  0  0  0
  141.0089   67.4348  228.5214 H   0  0  0  0  0  0  0  0  0  0  0  0
  141.8984   68.9954  228.5214 H   0  0  0  0  0  0  0  0  0  0  0  0
  138.8735   68.8500  228.2135 H   0  0  0  0  0  0  0  0  0  0  0  0
  139.9558   70.2128  227.8291 H   0  0  0  0  0  0  0  0  0  0  0  0
  138.2368   68.7848  223.9813 H   0  0  0  0  0  0  0  0  0  0  0  0
  138.0546   70.5450  222.2878 H   0  0  0  0  0  0  0  0  0  0  0  0
  140.3099   72.7872  221.1881 H   0  0  0  0  0  0  0  0  0  0  0  0
  137.6106   73.1164  221.5734 H   0  0  0  0  0  0  0  0  0  0  0  0
  141.9754   76.8188  222.4111 H   0  0  0  0  0  0  0  0  0  0  0  0
  142.1552   79.2555  222.9610 H   0  0  0  0  0  0  0  0  0  0  0  0
  137.9016   79.6170  223.2292 H   0  0  0  0  0  0  0  0  0  0  0  0
  135.3893   76.0598  221.9293 H   0  0  0  0  0  0  0  0  0  0  0  0
  136.0895   74.3417  221.6453 H   0  0  0  0  0  0  0  0  0  0  0  0
  134.3514   75.0678  223.2625 H   0  0  0  0  0  0  0  0  0  0  0  0
  134.9930   72.6739  222.8239 H   0  0  0  0  0  0  0  0  0  0  0  0
  136.5141   72.8517  223.7094 H   0  0  0  0  0  0  0  0  0  0  0  0
  134.2152   71.8824  224.8620 H   0  0  0  0  0  0  0  0  0  0  0  0
  135.4630   72.8160  225.7932 H   0  0  0  0  0  0  0  0  0  0  0  0
  133.0259   74.0453  224.4698 H   0  0  0  0  0  0  0  0  0  0  0  0
  133.1305   73.5554  226.2071 H   0  0  0  0  0  0  0  0  0  0  0  0
  133.7024   76.0561  225.3981 H   0  0  0  0  0  0  0  0  0  0  0  0
  134.5657   75.2969  226.7466 H   0  0  0  0  0  0  0  0  0  0  0  0
  136.0057   76.3086  224.7385 H   0  0  0  0  0  0  0  0  0  0  0  0
  136.4630   74.6947  225.3330 H   0  0  0  0  0  0  0  0  0  0  0  0
  141.3796   72.6059  223.9974 H   0  0  0  0  0  0  0  0  0  0  0  0
  141.5698   70.8271  225.7135 H   0  0  0  0  0  0  0  0  0  0  0  0
  1  2  1  0
  2  3  1  0
  3  4  2  0
  3  5  2  0
  3  6  1  0
  6  7  2  0
  7  8  1  0
  8  9  2  0
  9 10  1  0
 10 11  2  0
 11 12  1  0
 12 13  2  0
 13 14  1  0
 14 15  2  0
 15 16  1  0
 16 17  2  0
 17 18  1  0
 17 19  1  0
 19 20  2  0
 20 21  1  0
 21 22  2  0
 21 23  1  0
 23 24  1  0
 24 25  1  0
 25 26  1  0
 26 27  1  0
 27 28  1  0
 28 29  1  0
 29 30  1  0
  9 31  1  0
 31 32  2  0
 32  6  1  0
 23 12  1  0
 30 25  1  0
 20 14  1  0
  1 33  1  0
  1 34  1  0
  1 35  1  0
  2 36  1  0
  2 37  1  0
  7 38  1  0
  8 39  1  0
 10 40  1  0
 11 41  1  0
 15 42  1  0
 16 43  1  0
 19 44  1  0
 24 45  1  0
 24 46  1  0
 25 47  1  0
 26 48  1  0
 26 49  1  0
 27 50  1  0
 27 51  1  0
 28 52  1  0
 28 53  1  0
 29 54  1  0
 29 55  1  0
 30 56  1  0
 30 57  1  0
 31 58  1  0
 32 59  1  0
M  END
>  <smiles>  (14) 
CCS(=O)(=O)c1ccc(/C=C/c2nc3ccc(F)cc3c(=O)n2CC2CCCCC2)cc1

>  <score_type>  (14) 
oracle

>  <origin>  (14) 
autodockgpu

>  <m_score__min__energy>  (14) 
-9.5

>  <m_primary>  (14) 
energy

>  <rmsd>  (14) 
7.1193350614397435

>  <m_score__min__rmsd>  (14) 
7.1193350614397435

>  <meeko>  (14) 
{"free_energy": -8.55, "intermolecular_energy": -10.64, "internal_energy": -1.65, "cluster_size": 10, "cluster_id": 4, "rank_in_cluster": 3}

>  <energy>  (14) 
-8.66

>  <cluster_rmsd>  (14) 
0.63

>  <cluster>  (14) 
2

$$$$

     RDKit          3D

 59 62  0  0  0  0  0  0  0  0999 V2000
  140.3220   70.6220  227.9600 C   0  0  0  0  0  0  0  0  0  0  0  0
  139.7430   69.2340  227.9060 C   0  0  0  0  0  0  0  0  0  0  0  0
  140.0400   68.5940  226.2780 S   0  0  0  0  0  0  0  0  0  0  0  0
  139.1700   67.3870  226.1040 O   0  0  0  0  0  0  0  0  0  0  0  0
  141.4690   68.1880  226.1900 O   0  0  0  0  0  0  0  0  0  0  0  0
  139.6950   69.7740  225.0340 C   0  0  0  0  0  0  0  0  0  0  0  0
  140.5370   70.8250  224.7380 C   0  0  0  0  0  0  0  0  0  0  0  0
  140.2130   71.7250  223.7480 C   0  0  0  0  0  0  0  0  0  0  0  0
  139.0440   71.6350  222.9990 C   0  0  0  0  0  0  0  0  0  0  0  0
  138.7660   72.6300  221.9610 C   0  0  0  0  0  0  0  0  0  0  0  0
  139.4020   73.7500  221.8070 C   0  0  0  0  0  0  0  0  0  0  0  0
  139.0620   75.1140  222.0630 C   0  0  0  0  0  0  0  0  0  0  0  0
  140.1410   75.9290  222.3110 N   0  0  0  0  0  0  0  0  0  0  0  0
  140.0830   77.2050  222.6310 C   0  0  0  0  0  0  0  0  0  0  0  0
  141.2480   77.8990  222.8520 C   0  0  0  0  0  0  0  0  0  0  0  0
  141.0960   79.2450  223.1870 C   0  0  0  0  0  0  0  0  0  0  0  0
  139.8800   79.8560  223.2940 C   0  0  0  0  0  0  0  0  0  0  0  0
  139.7240   81.1620  223.6190 F   0  0  0  0  0  0  0  0  0  0  0  0
  138.7280   79.1230  223.0630 C   0  0  0  0  0  0  0  0  0  0  0  0
  138.8540   77.7970  222.7320 C   0  0  0  0  0  0  0  0  0  0  0  0
  137.7590   77.0080  222.4880 C   0  0  0  0  0  0  0  0  0  0  0  0
  136.6380   77.5790  222.5960 O   0  0  0  0  0  0  0  0  0  0  0  0
  137.8520   75.6740  222.1520 N   0  0  0  0  0  0  0  0  0  0  0  0
  136.6180   75.0120  221.9230 C   0  0  0  0  0  0  0  0  0  0  0  0
  135.7710   74.6180  223.0730 C   0  0  0  0  0  0  0  0  0  0  0  0
  135.8540   73.1270  223.4240 C   0  0  0  0  0  0  0  0  0  0  0  0
  134.9040   72.9280  224.6170 C   0  0  0  0  0  0  0  0  0  0  0  0
  133.8310   73.9860  224.6670 C   0  0  0  0  0  0  0  0  0  0  0  0
  134.4240   75.3480  224.9570 C   0  0  0  0  0  0  0  0  0  0  0  0
  135.8490   75.3330  224.3560 C   0  0  0  0  0  0  0  0  0  0  0  0
  138.2090   70.5870  223.2990 C   0  0  0  0  0  0  0  0  0  0  0  0
  138.5300   69.6660  224.3050 C   0  0  0  0  0  0  0  0  0  0  0  0
  140.4488   70.9258  229.0096 H   0  0  0  0  0  0  0  0  0  0  0  0
  141.2992   70.6316  227.4550 H   0  0  0  0  0  0  0  0  0  0  0  0
  139.6413   71.3231  227.4550 H   0  0  0  0  0  0  0  0  0  0  0  0
  140.2313   68.5941  228.6558 H   0  0  0  0  0  0  0  0  0  0  0  0
  138.6647   69.2557  228.1226 H   0  0  0  0  0  0  0  0  0  0  0  0
  141.4761   70.9454  225.2980 H   0  0  0  0  0  0  0  0  0  0  0  0
  140.9087   72.5513  223.5401 H   0  0  0  0  0  0  0  0  0  0  0  0
  137.9520   72.4097  221.2547 H   0  0  0  0  0  0  0  0  0  0  0  0
  140.4133   73.6234  221.3933 H   0  0  0  0  0  0  0  0  0  0  0  0
  142.2368   77.4241  222.7701 H   0  0  0  0  0  0  0  0  0  0  0  0
  142.0002   79.8429  223.3740 H   0  0  0  0  0  0  0  0  0  0  0  0
  137.7362   79.5920  223.1429 H   0  0  0  0  0  0  0  0  0  0  0  0
  136.0106   75.6787  221.2933 H   0  0  0  0  0  0  0  0  0  0  0  0
  136.9215   74.0488  221.4871 H   0  0  0  0  0  0  0  0  0  0  0  0
  134.8186   74.9265  222.6172 H   0  0  0  0  0  0  0  0  0  0  0  0
  135.5314   72.5132  222.5701 H   0  0  0  0  0  0  0  0  0  0  0  0
  136.8827   72.8236  223.6685 H   0  0  0  0  0  0  0  0  0  0  0  0
  134.4260   71.9412  224.5296 H   0  0  0  0  0  0  0  0  0  0  0  0
  135.4976   73.0021  225.5401 H   0  0  0  0  0  0  0  0  0  0  0  0
  133.3127   74.0186  223.6973 H   0  0  0  0  0  0  0  0  0  0  0  0
  133.1264   73.7322  225.4727 H   0  0  0  0  0  0  0  0  0  0  0  0
  133.8190   76.1360  224.4849 H   0  0  0  0  0  0  0  0  0  0  0  0
  134.4459   75.5547  226.0372 H   0  0  0  0  0  0  0  0  0  0  0  0
  136.2005   76.3625  224.1932 H   0  0  0  0  0  0  0  0  0  0  0  0
  136.5557   74.8371  225.0377 H   0  0  0  0  0  0  0  0  0  0  0  0
  137.2699   70.4682  222.7387 H   0  0  0  0  0  0  0  0  0  0  0  0
  137.8371   68.8386  224.5177 H   0  0  0  0  0  0  0  0  0  0  0  0
  1  2  1  0
  2  3  1  0
  3  4  2  0
  3  5  2  0
  3  6  1  0
  6  7  2  0
  7  8  1  0
  8  9  2  0
  9 10  1  0
 10 11  2  0
 11 12  1  0
 12 13  2  0
 13 14  1  0
 14 15  2  0
 15 16  1  0
 16 17  2  0
 17 18  1  0
 17 19  1  0
 19 20  2  0
 20 21  1  0
 21 22  2  0
 21 23  1  0
 23 24  1  0
 24 25  1  0
 25 26  1  0
 26 27  1  0
 27 28  1  0
 28 29  1  0
 29 30  1  0
  9 31  1  0
 31 32  2  0
 32  6  1  0
 23 12  1  0
 30 25  1  0
 20 14  1  0
  1 33  1  0
  1 34  1  0
  1 35  1  0
  2 36  1  0
  2 37  1  0
  7 38  1  0
  8 39  1  0
 10 40  1  0
 11 41  1  0
 15 42  1  0
 16 43  1  0
 19 44  1  0
 24 45  1  0
 24 46  1  0
 25 47  1  0
 26 48  1  0
 26 49  1  0
 27 50  1  0
 27 51  1  0
 28 52  1  0
 28 53  1  0
 29 54  1  0
 29 55  1  0
 30 56  1  0
 30 57  1  0
 31 58  1  0
 32 59  1  0
M  END
>  <smiles>  (15) 
CCS(=O)(=O)c1ccc(/C=C/c2nc3ccc(F)cc3c(=O)n2CC2CCCCC2)cc1

>  <score_type>  (15) 
oracle

>  <origin>  (15) 
autodockgpu

>  <m_score__min__energy>  (15) 
-9.5

>  <m_primary>  (15) 
energy

>  <rmsd>  (15) 
6.7584919329583375

>  <m_score__min__rmsd>  (15) 
6.7584919329583375

>  <meeko>  (15) 
{"free_energy": -8.46, "intermolecular_energy": -10.55, "internal_energy": -1.75, "cluster_size": 10, "cluster_id": 4, "rank_in_cluster": 4}

>  <energy>  (15) 
-8.65

>  <cluster_rmsd>  (15) 
1.54

>  <cluster>  (15) 
2

$$$$

     RDKit          3D

 59 62  0  0  0  0  0  0  0  0999 V2000
  141.0970   68.5210  228.7230 C   0  0  0  0  0  0  0  0  0  0  0  0
  140.0210   69.1400  227.8710 C   0  0  0  0  0  0  0  0  0  0  0  0
  140.2050   68.4970  226.2270 S   0  0  0  0  0  0  0  0  0  0  0  0
  139.2090   67.3890  226.0650 O   0  0  0  0  0  0  0  0  0  0  0  0
  141.5810   67.9470  226.0930 O   0  0  0  0  0  0  0  0  0  0  0  0
  139.9500   69.7250  225.0080 C   0  0  0  0  0  0  0  0  0  0  0  0
  140.8440   70.7470  224.7690 C   0  0  0  0  0  0  0  0  0  0  0  0
  140.5910   71.6870  223.7970 C   0  0  0  0  0  0  0  0  0  0  0  0
  139.4430   71.6680  223.0090 C   0  0  0  0  0  0  0  0  0  0  0  0
  139.2410   72.7030  221.9920 C   0  0  0  0  0  0  0  0  0  0  0  0
  140.1640   73.1840  221.2200 C   0  0  0  0  0  0  0  0  0  0  0  0
  140.7380   74.4850  221.0680 C   0  0  0  0  0  0  0  0  0  0  0  0
  140.1900   75.4430  221.8860 N   0  0  0  0  0  0  0  0  0  0  0  0
  140.5060   76.7220  221.8900 C   0  0  0  0  0  0  0  0  0  0  0  0
  139.8730   77.5710  222.7660 C   0  0  0  0  0  0  0  0  0  0  0  0
  140.2670   78.9080  222.7030 C   0  0  0  0  0  0  0  0  0  0  0  0
  141.2160   79.3690  221.8360 C   0  0  0  0  0  0  0  0  0  0  0  0
  141.6030   80.6650  221.7690 F   0  0  0  0  0  0  0  0  0  0  0  0
  141.8310   78.4820  220.9690 C   0  0  0  0  0  0  0  0  0  0  0  0
  141.4590   77.1610  221.0130 C   0  0  0  0  0  0  0  0  0  0  0  0
  142.0250   76.2260  220.1850 C   0  0  0  0  0  0  0  0  0  0  0  0
  142.8960   76.6610  219.3820 O   0  0  0  0  0  0  0  0  0  0  0  0
  141.6750   74.8920  220.2070 N   0  0  0  0  0  0  0  0  0  0  0  0
  142.3690   74.0610  219.2880 C   0  0  0  0  0  0  0  0  0  0  0  0
  143.6330   73.4080  219.6990 C   0  0  0  0  0  0  0  0  0  0  0  0
  144.4110   74.1800  220.7730 C   0  0  0  0  0  0  0  0  0  0  0  0
  145.6780   73.3520  221.0430 C   0  0  0  0  0  0  0  0  0  0  0  0
  146.0440   72.4790  219.8680 C   0  0  0  0  0  0  0  0  0  0  0  0
  145.0030   71.4030  219.6450 C   0  0  0  0  0  0  0  0  0  0  0  0
  143.6590   72.0000  220.1250 C   0  0  0  0  0  0  0  0  0  0  0  0
  138.5560   70.6500  223.2520 C   0  0  0  0  0  0  0  0  0  0  0  0
  138.8050   69.6880  224.2410 C   0  0  0  0  0  0  0  0  0  0  0  0
  140.8503   68.6629  229.7856 H   0  0  0  0  0  0  0  0  0  0  0  0
  141.1655   67.4454  228.5030 H   0  0  0  0  0  0  0  0  0  0  0  0
  142.0613   69.0024  228.5030 H   0  0  0  0  0  0  0  0  0  0  0  0
  139.0296   68.8767  228.2683 H   0  0  0  0  0  0  0  0  0  0  0  0
  140.1107   70.2363  227.8701 H   0  0  0  0  0  0  0  0  0  0  0  0
  141.7686   70.8114  225.3614 H   0  0  0  0  0  0  0  0  0  0  0  0
  141.3272   72.4881  223.6352 H   0  0  0  0  0  0  0  0  0  0  0  0
  138.2236   73.1043  221.8742 H   0  0  0  0  0  0  0  0  0  0  0  0
  140.5961   72.4354  220.5397 H   0  0  0  0  0  0  0  0  0  0  0  0
  139.1055   77.2192  223.4711 H   0  0  0  0  0  0  0  0  0  0  0  0
  139.7895   79.6264  223.3856 H   0  0  0  0  0  0  0  0  0  0  0  0
  142.5994   78.8273  220.2617 H   0  0  0  0  0  0  0  0  0  0  0  0
  141.6753   73.2584  218.9970 H   0  0  0  0  0  0  0  0  0  0  0  0
  142.6863   74.7598  218.5000 H   0  0  0  0  0  0  0  0  0  0  0  0
  144.0942   73.4262  218.7005 H   0  0  0  0  0  0  0  0  0  0  0  0
  144.6783   75.1823  220.4071 H   0  0  0  0  0  0  0  0  0  0  0  0
  143.8140   74.3190  221.6863 H   0  0  0  0  0  0  0  0  0  0  0  0
  146.5130   74.0377  221.2497 H   0  0  0  0  0  0  0  0  0  0  0  0
  145.4786   72.6969  221.9038 H   0  0  0  0  0  0  0  0  0  0  0  0
  146.1152   73.1030  218.9649 H   0  0  0  0  0  0  0  0  0  0  0  0
  147.0086   71.9943  220.0793 H   0  0  0  0  0  0  0  0  0  0  0  0
  144.9456   71.1427  218.5778 H   0  0  0  0  0  0  0  0  0  0  0  0
  145.2525   70.4827  220.1935 H   0  0  0  0  0  0  0  0  0  0  0  0
  142.8197   71.4530  219.6707 H   0  0  0  0  0  0  0  0  0  0  0  0
  143.5639   71.9203  221.2180 H   0  0  0  0  0  0  0  0  0  0  0  0
  137.6314   70.5873  222.6593 H   0  0  0  0  0  0  0  0  0  0  0  0
  138.0708   68.8862  224.4086 H   0  0  0  0  0  0  0  0  0  0  0  0
  1  2  1  0
  2  3  1  0
  3  4  2  0
  3  5  2  0
  3  6  1  0
  6  7  2  0
  7  8  1  0
  8  9  2  0
  9 10  1  0
 10 11  2  0
 11 12  1  0
 12 13  2  0
 13 14  1  0
 14 15  2  0
 15 16  1  0
 16 17  2  0
 17 18  1  0
 17 19  1  0
 19 20  2  0
 20 21  1  0
 21 22  2  0
 21 23  1  0
 23 24  1  0
 24 25  1  0
 25 26  1  0
 26 27  1  0
 27 28  1  0
 28 29  1  0
 29 30  1  0
  9 31  1  0
 31 32  2  0
 32  6  1  0
 23 12  1  0
 30 25  1  0
 20 14  1  0
  1 33  1  0
  1 34  1  0
  1 35  1  0
  2 36  1  0
  2 37  1  0
  7 38  1  0
  8 39  1  0
 10 40  1  0
 11 41  1  0
 15 42  1  0
 16 43  1  0
 19 44  1  0
 24 45  1  0
 24 46  1  0
 25 47  1  0
 26 48  1  0
 26 49  1  0
 27 50  1  0
 27 51  1  0
 28 52  1  0
 28 53  1  0
 29 54  1  0
 29 55  1  0
 30 56  1  0
 30 57  1  0
 31 58  1  0
 32 59  1  0
M  END
>  <smiles>  (16) 
CCS(=O)(=O)c1ccc(/C=C/c2nc3ccc(F)cc3c(=O)n2CC2CCCCC2)cc1

>  <score_type>  (16) 
oracle

>  <origin>  (16) 
autodockgpu

>  <m_score__min__energy>  (16) 
-9.5

>  <m_primary>  (16) 
energy

>  <rmsd>  (16) 
5.387598457416431

>  <m_score__min__rmsd>  (16) 
5.387598457416431

>  <meeko>  (16) 
{"free_energy": -9.15, "intermolecular_energy": -11.24, "internal_energy": -1.49, "cluster_size": 17, "cluster_id": 2, "rank_in_cluster": 2}

>  <energy>  (16) 
-8.52

>  <cluster_rmsd>  (16) 
0.96

>  <cluster>  (16) 
2

$$$$

     RDKit          3D

 59 62  0  0  0  0  0  0  0  0999 V2000
  140.3150   70.6530  227.9880 C   0  0  0  0  0  0  0  0  0  0  0  0
  139.6340   69.3160  227.8740 C   0  0  0  0  0  0  0  0  0  0  0  0
  140.0130   68.6590  226.2690 S   0  0  0  0  0  0  0  0  0  0  0  0
  139.1840   67.4250  226.0820 O   0  0  0  0  0  0  0  0  0  0  0  0
  141.4550   68.2930  226.2440 O   0  0  0  0  0  0  0  0  0  0  0  0
  139.6850   69.8090  224.9930 C   0  0  0  0  0  0  0  0  0  0  0  0
  138.5240   69.7970  224.2490 C   0  0  0  0  0  0  0  0  0  0  0  0
  138.3200   70.7280  223.2550 C   0  0  0  0  0  0  0  0  0  0  0  0
  139.2480   71.7170  222.9440 C   0  0  0  0  0  0  0  0  0  0  0  0
  138.9620   72.6730  221.8720 C   0  0  0  0  0  0  0  0  0  0  0  0
  139.5810   73.7970  221.6850 C   0  0  0  0  0  0  0  0  0  0  0  0
  139.2580   75.1570  221.9820 C   0  0  0  0  0  0  0  0  0  0  0  0
  140.3360   75.9310  222.3340 N   0  0  0  0  0  0  0  0  0  0  0  0
  140.2870   77.1930  222.7080 C   0  0  0  0  0  0  0  0  0  0  0  0
  141.4520   77.8460  223.0340 C   0  0  0  0  0  0  0  0  0  0  0  0
  141.3090   79.1800  223.4200 C   0  0  0  0  0  0  0  0  0  0  0  0
  140.1040   79.8170  223.4780 C   0  0  0  0  0  0  0  0  0  0  0  0
  139.9570   81.1100  223.8520 F   0  0  0  0  0  0  0  0  0  0  0  0
  138.9530   79.1250  223.1420 C   0  0  0  0  0  0  0  0  0  0  0  0
  139.0690   77.8120  222.7590 C   0  0  0  0  0  0  0  0  0  0  0  0
  137.9730   77.0640  222.4110 C   0  0  0  0  0  0  0  0  0  0  0  0
  136.8620   77.6580  222.4740 O   0  0  0  0  0  0  0  0  0  0  0  0
  138.0570   75.7440  222.0200 N   0  0  0  0  0  0  0  0  0  0  0  0
  136.8250   75.1240  221.6840 C   0  0  0  0  0  0  0  0  0  0  0  0
  136.1080   74.3180  222.6980 C   0  0  0  0  0  0  0  0  0  0  0  0
  135.6740   75.1170  223.9340 C   0  0  0  0  0  0  0  0  0  0  0  0
  134.9710   74.1070  224.8560 C   0  0  0  0  0  0  0  0  0  0  0  0
  135.4250   72.6930  224.5950 C   0  0  0  0  0  0  0  0  0  0  0  0
  134.9890   72.2270  223.2220 C   0  0  0  0  0  0  0  0  0  0  0  0
  134.9470   73.4910  222.3330 C   0  0  0  0  0  0  0  0  0  0  0  0
  140.4020   71.7220  223.6870 C   0  0  0  0  0  0  0  0  0  0  0  0
  140.6190   70.7790  224.7010 C   0  0  0  0  0  0  0  0  0  0  0  0
  140.4453   70.9088  229.0499 H   0  0  0  0  0  0  0  0  0  0  0  0
  141.2991   70.6062  227.4987 H   0  0  0  0  0  0  0  0  0  0  0  0
  139.6985   71.4214  227.4987 H   0  0  0  0  0  0  0  0  0  0  0  0
  140.0064   68.6370  228.6552 H   0  0  0  0  0  0  0  0  0  0  0  0
  138.5467   69.4230  228.0019 H   0  0  0  0  0  0  0  0  0  0  0  0
  137.7544   69.0375  224.4512 H   0  0  0  0  0  0  0  0  0  0  0  0
  137.3821   70.6880  222.6816 H   0  0  0  0  0  0  0  0  0  0  0  0
  138.1565   72.4167  221.1681 H   0  0  0  0  0  0  0  0  0  0  0  0
  140.5590   73.6790  221.1955 H   0  0  0  0  0  0  0  0  0  0  0  0
  142.4329   77.3498  222.9934 H   0  0  0  0  0  0  0  0  0  0  0  0
  142.2128   79.7455  223.6908 H   0  0  0  0  0  0  0  0  0  0  0  0
  137.9692   79.6155  223.1810 H   0  0  0  0  0  0  0  0  0  0  0  0
  136.1397   75.9255  221.3710 H   0  0  0  0  0  0  0  0  0  0  0  0
  137.1109   74.3826  220.9234 H   0  0  0  0  0  0  0  0  0  0  0  0
  136.9325   73.6121  222.8768 H   0  0  0  0  0  0  0  0  0  0  0  0
  136.5505   75.5507  224.4376 H   0  0  0  0  0  0  0  0  0  0  0  0
  135.0103   75.9521  223.6654 H   0  0  0  0  0  0  0  0  0  0  0  0
  135.1952   74.3647  225.9016 H   0  0  0  0  0  0  0  0  0  0  0  0
  133.8905   74.1593  224.6563 H   0  0  0  0  0  0  0  0  0  0  0  0
  136.5224   72.6504  224.6575 H   0  0  0  0  0  0  0  0  0  0  0  0
  134.9698   72.0343  225.3492 H   0  0  0  0  0  0  0  0  0  0  0  0
  135.7099   71.5005  222.8188 H   0  0  0  0  0  0  0  0  0  0  0  0
  134.0087   71.7294  223.2593 H   0  0  0  0  0  0  0  0  0  0  0  0
  135.0049   73.2075  221.2717 H   0  0  0  0  0  0  0  0  0  0  0  0
  134.0092   74.0451  222.4859 H   0  0  0  0  0  0  0  0  0  0  0  0
  141.1716   72.4809  223.4827 H   0  0  0  0  0  0  0  0  0  0  0  0
  141.5558   70.8141  225.2765 H   0  0  0  0  0  0  0  0  0  0  0  0
  1  2  1  0
  2  3  1  0
  3  4  2  0
  3  5  2  0
  3  6  1  0
  6  7  2  0
  7  8  1  0
  8  9  2  0
  9 10  1  0
 10 11  2  0
 11 12  1  0
 12 13  2  0
 13 14  1  0
 14 15  2  0
 15 16  1  0
 16 17  2  0
 17 18  1  0
 17 19  1  0
 19 20  2  0
 20 21  1  0
 21 22  2  0
 21 23  1  0
 23 24  1  0
 24 25  1  0
 25 26  1  0
 26 27  1  0
 27 28  1  0
 28 29  1  0
 29 30  1  0
  9 31  1  0
 31 32  2  0
 32  6  1  0
 23 12  1  0
 30 25  1  0
 20 14  1  0
  1 33  1  0
  1 34  1  0
  1 35  1  0
  2 36  1  0
  2 37  1  0
  7 38  1  0
  8 39  1  0
 10 40  1  0
 11 41  1  0
 15 42  1  0
 16 43  1  0
 19 44  1  0
 24 45  1  0
 24 46  1  0
 25 47  1  0
 26 48  1  0
 26 49  1  0
 27 50  1  0
 27 51  1  0
 28 52  1  0
 28 53  1  0
 29 54  1  0
 29 55  1  0
 30 56  1  0
 30 57  1  0
 31 58  1  0
 32 59  1  0
M  END
>  <smiles>  (17) 
CCS(=O)(=O)c1ccc(/C=C/c2nc3ccc(F)cc3c(=O)n2CC2CCCCC2)cc1

>  <score_type>  (17) 
oracle

>  <origin>  (17) 
autodockgpu

>  <m_score__min__energy>  (17) 
-9.5

>  <m_primary>  (17) 
energy

>  <rmsd>  (17) 
6.482439156270434

>  <m_score__min__rmsd>  (17) 
6.482439156270434

>  <meeko>  (17) 
{"free_energy": -8.24, "intermolecular_energy": -10.33, "internal_energy": -1.97, "cluster_size": 10, "cluster_id": 4, "rank_in_cluster": 6}

>  <energy>  (17) 
-8.39

>  <cluster_rmsd>  (17) 
0.96

>  <cluster>  (17) 
2

$$$$

     RDKit          3D

 59 62  0  0  0  0  0  0  0  0999 V2000
  140.2570   70.6700  227.9960 C   0  0  0  0  0  0  0  0  0  0  0  0
  139.7170   69.2690  227.8870 C   0  0  0  0  0  0  0  0  0  0  0  0
  140.0360   68.7010  226.2360 S   0  0  0  0  0  0  0  0  0  0  0  0
  139.2140   67.4680  226.0190 O   0  0  0  0  0  0  0  0  0  0  0  0
  141.4790   68.3560  226.1330 O   0  0  0  0  0  0  0  0  0  0  0  0
  139.6420   69.9110  225.0360 C   0  0  0  0  0  0  0  0  0  0  0  0
  138.4290   69.9560  224.3820 C   0  0  0  0  0  0  0  0  0  0  0  0
  138.1740   70.9310  223.4450 C   0  0  0  0  0  0  0  0  0  0  0  0
  139.1010   71.9120  223.1050 C   0  0  0  0  0  0  0  0  0  0  0  0
  138.7590   72.9190  222.0970 C   0  0  0  0  0  0  0  0  0  0  0  0
  139.4270   74.0060  221.8670 C   0  0  0  0  0  0  0  0  0  0  0  0
  140.6690   74.2740  221.2100 C   0  0  0  0  0  0  0  0  0  0  0  0
  141.5740   73.2430  221.2670 N   0  0  0  0  0  0  0  0  0  0  0  0
  142.8020   73.2700  220.7930 C   0  0  0  0  0  0  0  0  0  0  0  0
  143.6010   72.1590  220.9220 C   0  0  0  0  0  0  0  0  0  0  0  0
  144.8860   72.2740  220.3920 C   0  0  0  0  0  0  0  0  0  0  0  0
  145.3450   73.4050  219.7810 C   0  0  0  0  0  0  0  0  0  0  0  0
  146.5920   73.5240  219.2640 F   0  0  0  0  0  0  0  0  0  0  0  0
  144.5100   74.5030  219.6700 C   0  0  0  0  0  0  0  0  0  0  0  0
  143.2400   74.4130  220.1840 C   0  0  0  0  0  0  0  0  0  0  0  0
  142.3570   75.4600  220.1100 C   0  0  0  0  0  0  0  0  0  0  0  0
  142.7920   76.5040  219.5490 O   0  0  0  0  0  0  0  0  0  0  0  0
  141.0760   75.4000  220.6150 N   0  0  0  0  0  0  0  0  0  0  0  0
  140.2930   76.5710  220.4420 C   0  0  0  0  0  0  0  0  0  0  0  0
  140.4990   77.7310  221.3400 C   0  0  0  0  0  0  0  0  0  0  0  0
  141.0790   77.3600  222.7110 C   0  0  0  0  0  0  0  0  0  0  0  0
  141.1990   78.6850  223.4820 C   0  0  0  0  0  0  0  0  0  0  0  0
  140.2400   79.7280  222.9670 C   0  0  0  0  0  0  0  0  0  0  0  0
  140.6000   80.1480  221.5580 C   0  0  0  0  0  0  0  0  0  0  0  0
  141.2540   78.9130  220.8960 C   0  0  0  0  0  0  0  0  0  0  0  0
  140.3070   71.8610  223.7580 C   0  0  0  0  0  0  0  0  0  0  0  0
  140.5760   70.8720  224.7130 C   0  0  0  0  0  0  0  0  0  0  0  0
  140.3615   70.9412  229.0569 H   0  0  0  0  0  0  0  0  0  0  0  0
  141.2401   70.7232  227.5054 H   0  0  0  0  0  0  0  0  0  0  0  0
  139.5640   71.3693  227.5054 H   0  0  0  0  0  0  0  0  0  0  0  0
  140.2213   68.6146  228.6133 H   0  0  0  0  0  0  0  0  0  0  0  0
  138.6381   69.2520  228.1008 H   0  0  0  0  0  0  0  0  0  0  0  0
  137.6581   69.2056  224.6114 H   0  0  0  0  0  0  0  0  0  0  0  0
  137.1952   70.9353  222.9430 H   0  0  0  0  0  0  0  0  0  0  0  0
  137.8626   72.7379  221.4857 H   0  0  0  0  0  0  0  0  0  0  0  0
  138.9370   74.9098  222.2583 H   0  0  0  0  0  0  0  0  0  0  0  0
  143.2497   71.2387  221.4116 H   0  0  0  0  0  0  0  0  0  0  0  0
  145.5630   71.4106  220.4703 H   0  0  0  0  0  0  0  0  0  0  0  0
  144.8556   75.4260  219.1815 H   0  0  0  0  0  0  0  0  0  0  0  0
  140.4721   76.9258  219.4163 H   0  0  0  0  0  0  0  0  0  0  0  0
  139.2740   76.2361  220.6859 H   0  0  0  0  0  0  0  0  0  0  0  0
  139.4439   78.0416  221.3601 H   0  0  0  0  0  0  0  0  0  0  0  0
  140.4054   76.6686  223.2384 H   0  0  0  0  0  0  0  0  0  0  0  0
  142.0512   76.8539  222.6180 H   0  0  0  0  0  0  0  0  0  0  0  0
  140.9834   78.4983  224.5444 H   0  0  0  0  0  0  0  0  0  0  0  0
  142.2215   79.0665  223.3441 H   0  0  0  0  0  0  0  0  0  0  0  0
  139.2215   79.3125  222.9693 H   0  0  0  0  0  0  0  0  0  0  0  0
  140.2979   80.6105  223.6211 H   0  0  0  0  0  0  0  0  0  0  0  0
  139.6962   80.4437  221.0051 H   0  0  0  0  0  0  0  0  0  0  0  0
  141.2811   81.0118  221.5579 H   0  0  0  0  0  0  0  0  0  0  0  0
  141.2049   79.0021  219.8007 H   0  0  0  0  0  0  0  0  0  0  0  0
  142.3127   78.8307  221.1829 H   0  0  0  0  0  0  0  0  0  0  0  0
  141.0775   72.6113  223.5270 H   0  0  0  0  0  0  0  0  0  0  0  0
  141.5541   70.8621  225.2162 H   0  0  0  0  0  0  0  0  0  0  0  0
  1  2  1  0
  2  3  1  0
  3  4  2  0
  3  5  2  0
  3  6  1  0
  6  7  2  0
  7  8  1  0
  8  9  2  0
  9 10  1  0
 10 11  2  0
 11 12  1  0
 12 13  2  0
 13 14  1  0
 14 15  2  0
 15 16  1  0
 16 17  2  0
 17 18  1  0
 17 19  1  0
 19 20  2  0
 20 21  1  0
 21 22  2  0
 21 23  1  0
 23 24  1  0
 24 25  1  0
 25 26  1  0
 26 27  1  0
 27 28  1  0
 28 29  1  0
 29 30  1  0
  9 31  1  0
 31 32  2  0
 32  6  1  0
 23 12  1  0
 30 25  1  0
 20 14  1  0
  1 33  1  0
  1 34  1  0
  1 35  1  0
  2 36  1  0
  2 37  1  0
  7 38  1  0
  8 39  1  0
 10 40  1  0
 11 41  1  0
 15 42  1  0
 16 43  1  0
 19 44  1  0
 24 45  1  0
 24 46  1  0
 25 47  1  0
 26 48  1  0
 26 49  1  0
 27 50  1  0
 27 51  1  0
 28 52  1  0
 28 53  1  0
 29 54  1  0
 29 55  1  0
 30 56  1  0
 30 57  1  0
 31 58  1  0
 32 59  1  0
M  END
>  <smiles>  (18) 
CCS(=O)(=O)c1ccc(/C=C/c2nc3ccc(F)cc3c(=O)n2CC2CCCCC2)cc1

>  <score_type>  (18) 
oracle

>  <origin>  (18) 
autodockgpu

>  <m_score__min__energy>  (18) 
-9.5

>  <m_primary>  (18) 
energy

>  <rmsd>  (18) 
7.384959881041945

>  <m_score__min__rmsd>  (18) 
7.384959881041945

>  <meeko>  (18) 
{"free_energy": -8.91, "intermolecular_energy": -11.0, "internal_energy": -1.6, "cluster_size": 6, "cluster_id": 1, "rank_in_cluster": 3}

>  <energy>  (18) 
-8.38

>  <cluster_rmsd>  (18) 
0.85

>  <cluster>  (18) 
2

$$$$

     RDKit          3D

 59 62  0  0  0  0  0  0  0  0999 V2000
  140.3220   70.5550  228.0340 C   0  0  0  0  0  0  0  0  0  0  0  0
  139.9630   69.0940  227.9880 C   0  0  0  0  0  0  0  0  0  0  0  0
  140.1560   68.5480  226.3100 S   0  0  0  0  0  0  0  0  0  0  0  0
  139.2160   67.4010  226.1000 O   0  0  0  0  0  0  0  0  0  0  0  0
  141.5560   68.0760  226.1330 O   0  0  0  0  0  0  0  0  0  0  0  0
  139.8240   69.8240  225.1610 C   0  0  0  0  0  0  0  0  0  0  0  0
  140.7590   70.7690  224.7930 C   0  0  0  0  0  0  0  0  0  0  0  0
  140.4410   71.7510  223.8840 C   0  0  0  0  0  0  0  0  0  0  0  0
  139.1860   71.8530  223.2900 C   0  0  0  0  0  0  0  0  0  0  0  0
  138.9210   72.9270  222.3290 C   0  0  0  0  0  0  0  0  0  0  0  0
  139.5510   73.1040  221.2100 C   0  0  0  0  0  0  0  0  0  0  0  0
  140.8330   73.6440  220.8800 C   0  0  0  0  0  0  0  0  0  0  0  0
  141.8630   72.7370  220.9450 N   0  0  0  0  0  0  0  0  0  0  0  0
  143.1370   73.0050  220.7460 C   0  0  0  0  0  0  0  0  0  0  0  0
  144.0630   71.9940  220.8440 C   0  0  0  0  0  0  0  0  0  0  0  0
  145.3890   72.3650  220.6190 C   0  0  0  0  0  0  0  0  0  0  0  0
  145.7680   73.6410  220.3200 C   0  0  0  0  0  0  0  0  0  0  0  0
  147.0530   74.0090  220.1010 F   0  0  0  0  0  0  0  0  0  0  0  0
  144.8060   74.6320  220.2300 C   0  0  0  0  0  0  0  0  0  0  0  0
  143.4940   74.2900  220.4470 C   0  0  0  0  0  0  0  0  0  0  0  0
  142.4870   75.2180  220.3740 C   0  0  0  0  0  0  0  0  0  0  0  0
  142.8470   76.3970  220.1030 O   0  0  0  0  0  0  0  0  0  0  0  0
  141.1600   74.9060  220.5850 N   0  0  0  0  0  0  0  0  0  0  0  0
  140.2480   75.9870  220.4590 C   0  0  0  0  0  0  0  0  0  0  0  0
  140.2010   77.0330  221.5050 C   0  0  0  0  0  0  0  0  0  0  0  0
  138.7870   77.3360  222.0180 C   0  0  0  0  0  0  0  0  0  0  0  0
  138.9550   78.4430  223.0710 C   0  0  0  0  0  0  0  0  0  0  0  0
  140.2140   79.2450  222.8520 C   0  0  0  0  0  0  0  0  0  0  0  0
  141.4450   78.3960  223.0840 C   0  0  0  0  0  0  0  0  0  0  0  0
  141.0480   76.9510  222.7040 C   0  0  0  0  0  0  0  0  0  0  0  0
  138.2600   70.9110  223.6600 C   0  0  0  0  0  0  0  0  0  0  0  0
  138.5740   69.9070  224.5860 C   0  0  0  0  0  0  0  0  0  0  0  0
  140.4019   70.8801  229.0818 H   0  0  0  0  0  0  0  0  0  0  0  0
  141.2854   70.7120  227.5269 H   0  0  0  0  0  0  0  0  0  0  0  0
  139.5410   71.1406  227.5269 H   0  0  0  0  0  0  0  0  0  0  0  0
  140.6319   68.5222  228.6480 H   0  0  0  0  0  0  0  0  0  0  0  0
  138.9287   68.9389  228.3287 H   0  0  0  0  0  0  0  0  0  0  0  0
  141.7678   70.7369  225.2304 H   0  0  0  0  0  0  0  0  0  0  0  0
  141.2119   72.4880  223.6146 H   0  0  0  0  0  0  0  0  0  0  0  0
  138.1223   73.6414  222.5774 H   0  0  0  0  0  0  0  0  0  0  0  0
  138.9804   72.7689  220.3313 H   0  0  0  0  0  0  0  0  0  0  0  0
  143.7771   70.9593  221.0843 H   0  0  0  0  0  0  0  0  0  0  0  0
  146.1672   71.5905  220.6860 H   0  0  0  0  0  0  0  0  0  0  0  0
  145.0857   75.6685  219.9904 H   0  0  0  0  0  0  0  0  0  0  0  0
  140.4832   76.4939  219.5115 H   0  0  0  0  0  0  0  0  0  0  0  0
  139.2638   75.5020  220.5376 H   0  0  0  0  0  0  0  0  0  0  0  0
  140.6414   77.8262  220.8830 H   0  0  0  0  0  0  0  0  0  0  0  0
  138.1466   77.6842  221.1942 H   0  0  0  0  0  0  0  0  0  0  0  0
  138.3086   76.4410  222.4425 H   0  0  0  0  0  0  0  0  0  0  0  0
  138.0892   79.1193  223.0166 H   0  0  0  0  0  0  0  0  0  0  0  0
  139.0246   77.9644  224.0590 H   0  0  0  0  0  0  0  0  0  0  0  0
  140.2258   79.6209  221.8183 H   0  0  0  0  0  0  0  0  0  0  0  0
  140.2254   80.0814  223.5663 H   0  0  0  0  0  0  0  0  0  0  0  0
  142.2735   78.7436  222.4493 H   0  0  0  0  0  0  0  0  0  0  0  0
  141.7844   78.4577  224.1285 H   0  0  0  0  0  0  0  0  0  0  0  0
  141.9486   76.3570  222.4891 H   0  0  0  0  0  0  0  0  0  0  0  0
  140.5087   76.4645  223.5301 H   0  0  0  0  0  0  0  0  0  0  0  0
  137.2517   70.9443  223.2215 H   0  0  0  0  0  0  0  0  0  0  0  0
  137.8059   69.1688  224.8600 H   0  0  0  0  0  0  0  0  0  0  0  0
  1  2  1  0
  2  3  1  0
  3  4  2  0
  3  5  2  0
  3  6  1  0
  6  7  2  0
  7  8  1  0
  8  9  2  0
  9 10  1  0
 10 11  2  0
 11 12  1  0
 12 13  2  0
 13 14  1  0
 14 15  2  0
 15 16  1  0
 16 17  2  0
 17 18  1  0
 17 19  1  0
 19 20  2  0
 20 21  1  0
 21 22  2  0
 21 23  1  0
 23 24  1  0
 24 25  1  0
 25 26  1  0
 26 27  1  0
 27 28  1  0
 28 29  1  0
 29 30  1  0
  9 31  1  0
 31 32  2  0
 32  6  1  0
 23 12  1  0
 30 25  1  0
 20 14  1  0
  1 33  1  0
  1 34  1  0
  1 35  1  0
  2 36  1  0
  2 37  1  0
  7 38  1  0
  8 39  1  0
 10 40  1  0
 11 41  1  0
 15 42  1  0
 16 43  1  0
 19 44  1  0
 24 45  1  0
 24 46  1  0
 25 47  1  0
 26 48  1  0
 26 49  1  0
 27 50  1  0
 27 51  1  0
 28 52  1  0
 28 53  1  0
 29 54  1  0
 29 55  1  0
 30 56  1  0
 30 57  1  0
 31 58  1  0
 32 59  1  0
M  END
>  <smiles>  (19) 
CCS(=O)(=O)c1ccc(/C=C/c2nc3ccc(F)cc3c(=O)n2CC2CCCCC2)cc1

>  <score_type>  (19) 
oracle

>  <origin>  (19) 
autodockgpu

>  <m_score__min__energy>  (19) 
-9.5

>  <m_primary>  (19) 
energy

>  <rmsd>  (19) 
7.34690308303993

>  <m_score__min__rmsd>  (19) 
7.34690308303993

>  <meeko>  (19) 
{"free_energy": -8.84, "intermolecular_energy": -10.93, "internal_energy": -1.7, "cluster_size": 6, "cluster_id": 1, "rank_in_cluster": 4}

>  <energy>  (19) 
-8.26

>  <cluster_rmsd>  (19) 
0.9

>  <cluster>  (19) 
2

$$$$

     RDKit          3D

 59 62  0  0  0  0  0  0  0  0999 V2000
  140.6340   68.5670  228.7080 C   0  0  0  0  0  0  0  0  0  0  0  0
  139.5900   69.1440  227.7890 C   0  0  0  0  0  0  0  0  0  0  0  0
  139.9970   68.6410  226.1360 S   0  0  0  0  0  0  0  0  0  0  0  0
  139.2250   67.3910  225.8450 O   0  0  0  0  0  0  0  0  0  0  0  0
  141.4540   68.3450  226.0840 O   0  0  0  0  0  0  0  0  0  0  0  0
  139.6150   69.8780  224.9590 C   0  0  0  0  0  0  0  0  0  0  0  0
  138.3730   70.0020  224.3730 C   0  0  0  0  0  0  0  0  0  0  0  0
  138.1290   70.9940  223.4510 C   0  0  0  0  0  0  0  0  0  0  0  0
  139.0970   71.9160  223.0610 C   0  0  0  0  0  0  0  0  0  0  0  0
  138.7640   72.9460  222.0740 C   0  0  0  0  0  0  0  0  0  0  0  0
  139.4480   74.0260  221.8590 C   0  0  0  0  0  0  0  0  0  0  0  0
  140.7370   74.2760  221.2930 C   0  0  0  0  0  0  0  0  0  0  0  0
  141.5550   73.1740  221.2400 N   0  0  0  0  0  0  0  0  0  0  0  0
  142.8030   73.1620  220.8210 C   0  0  0  0  0  0  0  0  0  0  0  0
  143.5050   71.9800  220.8240 C   0  0  0  0  0  0  0  0  0  0  0  0
  144.8210   72.0580  220.3640 C   0  0  0  0  0  0  0  0  0  0  0  0
  145.3950   73.2190  219.9330 C   0  0  0  0  0  0  0  0  0  0  0  0
  146.6710   73.3020  219.4860 F   0  0  0  0  0  0  0  0  0  0  0  0
  144.6550   74.3880  219.9450 C   0  0  0  0  0  0  0  0  0  0  0  0
  143.3590   74.3360  220.3930 C   0  0  0  0  0  0  0  0  0  0  0  0
  142.5650   75.4540  220.4330 C   0  0  0  0  0  0  0  0  0  0  0  0
  143.1060   76.5240  220.0390 O   0  0  0  0  0  0  0  0  0  0  0  0
  141.2590   75.4340  220.8750 N   0  0  0  0  0  0  0  0  0  0  0  0
  140.5790   76.6790  220.8380 C   0  0  0  0  0  0  0  0  0  0  0  0
  141.1110   77.8290  221.6060 C   0  0  0  0  0  0  0  0  0  0  0  0
  141.4250   79.0590  220.7450 C   0  0  0  0  0  0  0  0  0  0  0  0
  141.9700   80.1180  221.7170 C   0  0  0  0  0  0  0  0  0  0  0  0
  142.5600   79.4950  222.9580 C   0  0  0  0  0  0  0  0  0  0  0  0
  141.4880   78.8230  223.7890 C   0  0  0  0  0  0  0  0  0  0  0  0
  140.4090   78.3430  222.7920 C   0  0  0  0  0  0  0  0  0  0  0  0
  140.3310   71.7870  223.6470 C   0  0  0  0  0  0  0  0  0  0  0  0
  140.5880   70.7790  224.5860 C   0  0  0  0  0  0  0  0  0  0  0  0
  140.3343   68.7327  229.7533 H   0  0  0  0  0  0  0  0  0  0  0  0
  140.7308   67.4873  228.5210 H   0  0  0  0  0  0  0  0  0  0  0  0
  141.5997   69.0595  228.5210 H   0  0  0  0  0  0  0  0  0  0  0  0
  138.5956   68.7622  228.0636 H   0  0  0  0  0  0  0  0  0  0  0  0
  139.5698   70.2411  227.8661 H   0  0  0  0  0  0  0  0  0  0  0  0
  137.5698   69.3014  224.6451 H   0  0  0  0  0  0  0  0  0  0  0  0
  137.1266   71.0615  223.0030 H   0  0  0  0  0  0  0  0  0  0  0  0
  137.8605   72.7904  221.4662 H   0  0  0  0  0  0  0  0  0  0  0  0
  138.9282   74.9412  222.1787 H   0  0  0  0  0  0  0  0  0  0  0  0
  143.0591   71.0345  221.1664 H   0  0  0  0  0  0  0  0  0  0  0  0
  145.4248   71.1387  220.3481 H   0  0  0  0  0  0  0  0  0  0  0  0
  145.0951   75.3365  219.6036 H   0  0  0  0  0  0  0  0  0  0  0  0
  140.5402   76.9901  219.7836 H   0  0  0  0  0  0  0  0  0  0  0  0
  139.6205   76.4622  221.3323 H   0  0  0  0  0  0  0  0  0  0  0  0
  141.9973   77.3025  221.9896 H   0  0  0  0  0  0  0  0  0  0  0  0
  142.1799   78.8120  219.9840 H   0  0  0  0  0  0  0  0  0  0  0  0
  140.5337   79.4188  220.2101 H   0  0  0  0  0  0  0  0  0  0  0  0
  142.7509   80.7005  221.2063 H   0  0  0  0  0  0  0  0  0  0  0  0
  141.1318   80.7605  222.0247 H   0  0  0  0  0  0  0  0  0  0  0  0
  143.3092   78.7456  222.6630 H   0  0  0  0  0  0  0  0  0  0  0  0
  143.0256   80.2883  223.5613 H   0  0  0  0  0  0  0  0  0  0  0  0
  141.9099   77.9670  224.3360 H   0  0  0  0  0  0  0  0  0  0  0  0
  141.0668   79.5132  224.5348 H   0  0  0  0  0  0  0  0  0  0  0  0
  139.8036   77.5452  223.2470 H   0  0  0  0  0  0  0  0  0  0  0  0
  139.7342   79.1679  222.5196 H   0  0  0  0  0  0  0  0  0  0  0  0
  141.1337   72.4881  223.3746 H   0  0  0  0  0  0  0  0  0  0  0  0
  141.5893   70.7056  225.0354 H   0  0  0  0  0  0  0  0  0  0  0  0
  1  2  1  0
  2  3  1  0
  3  4  2  0
  3  5  2  0
  3  6  1  0
  6  7  2  0
  7  8  1  0
  8  9  2  0
  9 10  1  0
 10 11  2  0
 11 12  1  0
 12 13  2  0
 13 14  1  0
 14 15  2  0
 15 16  1  0
 16 17  2  0
 17 18  1  0
 17 19  1  0
 19 20  2  0
 20 21  1  0
 21 22  2  0
 21 23  1  0
 23 24  1  0
 24 25  1  0
 25 26  1  0
 26 27  1  0
 27 28  1  0
 28 29  1  0
 29 30  1  0
  9 31  1  0
 31 32  2  0
 32  6  1  0
 23 12  1  0
 30 25  1  0
 20 14  1  0
  1 33  1  0
  1 34  1  0
  1 35  1  0
  2 36  1  0
  2 37  1  0
  7 38  1  0
  8 39  1  0
 10 40  1  0
 11 41  1  0
 15 42  1  0
 16 43  1  0
 19 44  1  0
 24 45  1  0
 24 46  1  0
 25 47  1  0
 26 48  1  0
 26 49  1  0
 27 50  1  0
 27 51  1  0
 28 52  1  0
 28 53  1  0
 29 54  1  0
 29 55  1  0
 30 56  1  0
 30 57  1  0
 31 58  1  0
 32 59  1  0
M  END
>  <smiles>  (20) 
CCS(=O)(=O)c1ccc(/C=C/c2nc3ccc(F)cc3c(=O)n2CC2CCCCC2)cc1

>  <score_type>  (20) 
oracle

>  <origin>  (20) 
autodockgpu

>  <m_score__min__energy>  (20) 
-9.5

>  <m_primary>  (20) 
energy

>  <rmsd>  (20) 
7.317595299038979

>  <m_score__min__rmsd>  (20) 
7.317595299038979

>  <meeko>  (20) 
{"free_energy": -9.5, "intermolecular_energy": -11.59, "internal_energy": -1.44, "cluster_size": 6, "cluster_id": 1, "rank_in_cluster": 1}

>  <energy>  (20) 
-8.12

>  <cluster_rmsd>  (20) 
0.95

>  <cluster>  (20) 
2

$$$$

     RDKit          3D

 59 62  0  0  0  0  0  0  0  0999 V2000
  144.9470   66.3120  218.9010 C   0  0  0  0  0  0  0  0  0  0  0  0
  144.5130   67.5210  218.1170 C   0  0  0  0  0  0  0  0  0  0  0  0
  145.0640   68.9580  219.0010 S   0  0  0  0  0  0  0  0  0  0  0  0
  145.8150   69.8200  218.0330 O   0  0  0  0  0  0  0  0  0  0  0  0
  145.9840   68.5150  220.0830 O   0  0  0  0  0  0  0  0  0  0  0  0
  143.7330   69.8510  219.7020 C   0  0  0  0  0  0  0  0  0  0  0  0
  143.8990   71.0360  220.3870 C   0  0  0  0  0  0  0  0  0  0  0  0
  142.8140   71.6960  220.9190 C   0  0  0  0  0  0  0  0  0  0  0  0
  141.5100   71.2220  220.8010 C   0  0  0  0  0  0  0  0  0  0  0  0
  140.4050   71.9790  221.3930 C   0  0  0  0  0  0  0  0  0  0  0  0
  140.1230   72.0290  222.6570 C   0  0  0  0  0  0  0  0  0  0  0  0
  140.0020   71.0330  223.6760 C   0  0  0  0  0  0  0  0  0  0  0  0
  140.4760   71.4210  224.9050 N   0  0  0  0  0  0  0  0  0  0  0  0
  140.5310   70.6650  225.9820 C   0  0  0  0  0  0  0  0  0  0  0  0
  141.0320   71.1880  227.1500 C   0  0  0  0  0  0  0  0  0  0  0  0
  141.0540   70.3180  228.2420 C   0  0  0  0  0  0  0  0  0  0  0  0
  140.6130   69.0280  228.1790 C   0  0  0  0  0  0  0  0  0  0  0  0
  140.6320   68.1790  229.2340 F   0  0  0  0  0  0  0  0  0  0  0  0
  140.1140   68.5380  226.9840 C   0  0  0  0  0  0  0  0  0  0  0  0
  140.0830   69.3760  225.8970 C   0  0  0  0  0  0  0  0  0  0  0  0
  139.6020   68.9600  224.6810 C   0  0  0  0  0  0  0  0  0  0  0  0
  139.2020   67.7640  224.6310 O   0  0  0  0  0  0  0  0  0  0  0  0
  139.5550   69.7780  223.5720 N   0  0  0  0  0  0  0  0  0  0  0  0
  139.0170   69.1880  222.3980 C   0  0  0  0  0  0  0  0  0  0  0  0
  137.5720   68.8730  222.3310 C   0  0  0  0  0  0  0  0  0  0  0  0
  137.2700   67.4070  221.9930 C   0  0  0  0  0  0  0  0  0  0  0  0
  135.7370   67.2960  221.9580 C   0  0  0  0  0  0  0  0  0  0  0  0
  135.0810   68.6230  221.6690 C   0  0  0  0  0  0  0  0  0  0  0  0
  135.3030   69.5970  222.8060 C   0  0  0  0  0  0  0  0  0  0  0  0
  136.6640   69.2210  223.4350 C   0  0  0  0  0  0  0  0  0  0  0  0
  141.3520   70.0420  220.1180 C   0  0  0  0  0  0  0  0  0  0  0  0
  142.4500   69.3630  219.5740 C   0  0  0  0  0  0  0  0  0  0  0  0
  144.8702   66.5259  219.9773 H   0  0  0  0  0  0  0  0  0  0  0  0
  144.2987   65.4597  218.6494 H   0  0  0  0  0  0  0  0  0  0  0  0
  145.9894   66.0666  218.6494 H   0  0  0  0  0  0  0  0  0  0  0  0
  144.9655   67.5006  217.1146 H   0  0  0  0  0  0  0  0  0  0  0  0
  143.4193   67.5343  218.0003 H   0  0  0  0  0  0  0  0  0  0  0  0
  144.9074   71.4580  220.5096 H   0  0  0  0  0  0  0  0  0  0  0  0
  142.9846   72.6382  221.4605 H   0  0  0  0  0  0  0  0  0  0  0  0
  139.7618   72.5520  220.7090 H   0  0  0  0  0  0  0  0  0  0  0  0
  139.9383   73.0501  223.0219 H   0  0  0  0  0  0  0  0  0  0  0  0
  141.3924   72.2249  227.2201 H   0  0  0  0  0  0  0  0  0  0  0  0
  141.4460   70.6906  229.1999 H   0  0  0  0  0  0  0  0  0  0  0  0
  139.7512   67.5024  226.9074 H   0  0  0  0  0  0  0  0  0  0  0  0
  139.2321   69.8767  221.5677 H   0  0  0  0  0  0  0  0  0  0  0  0
  139.4964   68.1985  222.3660 H   0  0  0  0  0  0  0  0  0  0  0  0
  137.3444   69.5837  221.5229 H   0  0  0  0  0  0  0  0  0  0  0  0
  137.6962   67.1434  221.0138 H   0  0  0  0  0  0  0  0  0  0  0  0
  137.7102   66.7209  222.7315 H   0  0  0  0  0  0  0  0  0  0  0  0
  135.4506   66.5799  221.1736 H   0  0  0  0  0  0  0  0  0  0  0  0
  135.3981   66.9579  222.9484 H   0  0  0  0  0  0  0  0  0  0  0  0
  135.5094   69.0428  220.7469 H   0  0  0  0  0  0  0  0  0  0  0  0
  133.9992   68.4611  221.5525 H   0  0  0  0  0  0  0  0  0  0  0  0
  135.3308   70.6285  222.4248 H   0  0  0  0  0  0  0  0  0  0  0  0
  134.4905   69.5425  223.5455 H   0  0  0  0  0  0  0  0  0  0  0  0
  137.0670   70.0747  223.9996 H   0  0  0  0  0  0  0  0  0  0  0  0
  136.5527   68.3759  224.1303 H   0  0  0  0  0  0  0  0  0  0  0  0
  140.3432   69.6211  219.9953 H   0  0  0  0  0  0  0  0  0  0  0  0
  142.2848   68.4197  219.0328 H   0  0  0  0  0  0  0  0  0  0  0  0
  1  2  1  0
  2  3  1  0
  3  4  2  0
  3  5  2  0
  3  6  1  0
  6  7  2  0
  7  8  1  0
  8  9  2  0
  9 10  1  0
 10 11  2  0
 11 12  1  0
 12 13  2  0
 13 14  1  0
 14 15  2  0
 15 16  1  0
 16 17  2  0
 17 18  1  0
 17 19  1  0
 19 20  2  0
 20 21  1  0
 21 22  2  0
 21 23  1  0
 23 24  1  0
 24 25  1  0
 25 26  1  0
 26 27  1  0
 27 28  1  0
 28 29  1  0
 29 30  1  0
  9 31  1  0
 31 32  2  0
 32  6  1  0
 23 12  1  0
 30 25  1  0
 20 14  1  0
  1 33  1  0
  1 34  1  0
  1 35  1  0
  2 36  1  0
  2 37  1  0
  7 38  1  0
  8 39  1  0
 10 40  1  0
 11 41  1  0
 15 42  1  0
 16 43  1  0
 19 44  1  0
 24 45  1  0
 24 46  1  0
 25 47  1  0
 26 48  1  0
 26 49  1  0
 27 50  1  0
 27 51  1  0
 28 52  1  0
 28 53  1  0
 29 54  1  0
 29 55  1  0
 30 56  1  0
 30 57  1  0
 31 58  1  0
 32 59  1  0
M  END
>  <smiles>  (21) 
CCS(=O)(=O)c1ccc(/C=C/c2nc3ccc(F)cc3c(=O)n2CC2CCCCC2)cc1

>  <score_type>  (21) 
oracle

>  <origin>  (21) 
autodockgpu

>  <m_score__min__energy>  (21) 
-9.5

>  <m_primary>  (21) 
energy

>  <rmsd>  (21) 
11.368577969369472

>  <m_score__min__rmsd>  (21) 
11.368577969369472

>  <meeko>  (21) 
{"free_energy": -8.0, "intermolecular_energy": -10.09, "internal_energy": -1.65, "cluster_size": 9, "cluster_id": 3, "rank_in_cluster": 7}

>  <energy>  (21) 
-8.12

>  <cluster_rmsd>  (21) 
1.08

>  <cluster>  (21) 
2

$$$$

     RDKit          3D

 59 62  0  0  0  0  0  0  0  0999 V2000
  140.7930   68.1570  227.2150 C   0  0  0  0  0  0  0  0  0  0  0  0
  139.4390   68.7940  227.0550 C   0  0  0  0  0  0  0  0  0  0  0  0
  138.9390   68.5700  225.3670 S   0  0  0  0  0  0  0  0  0  0  0  0
  137.4420   68.5270  225.3440 O   0  0  0  0  0  0  0  0  0  0  0  0
  139.4770   67.2660  224.8910 O   0  0  0  0  0  0  0  0  0  0  0  0
  139.5260   69.8510  224.3300 C   0  0  0  0  0  0  0  0  0  0  0  0
  140.2690   70.9150  224.7960 C   0  0  0  0  0  0  0  0  0  0  0  0
  140.7030   71.8960  223.9340 C   0  0  0  0  0  0  0  0  0  0  0  0
  140.4290   71.8780  222.5690 C   0  0  0  0  0  0  0  0  0  0  0  0
  140.9250   72.9580  221.7130 C   0  0  0  0  0  0  0  0  0  0  0  0
  140.3730   74.1240  221.5810 C   0  0  0  0  0  0  0  0  0  0  0  0
  140.8910   75.4320  221.3250 C   0  0  0  0  0  0  0  0  0  0  0  0
  140.5080   76.3810  222.2410 N   0  0  0  0  0  0  0  0  0  0  0  0
  140.8040   77.6630  222.1890 C   0  0  0  0  0  0  0  0  0  0  0  0
  140.3510   78.5010  223.1800 C   0  0  0  0  0  0  0  0  0  0  0  0
  140.7090   79.8430  223.0470 C   0  0  0  0  0  0  0  0  0  0  0  0
  141.4600   80.3180  222.0100 C   0  0  0  0  0  0  0  0  0  0  0  0
  141.8110   81.6190  221.8740 F   0  0  0  0  0  0  0  0  0  0  0  0
  141.8980   79.4420  221.0320 C   0  0  0  0  0  0  0  0  0  0  0  0
  141.5570   78.1170  221.1430 C   0  0  0  0  0  0  0  0  0  0  0  0
  141.9560   77.1910  220.2120 C   0  0  0  0  0  0  0  0  0  0  0  0
  142.6440   77.6390  219.2540 O   0  0  0  0  0  0  0  0  0  0  0  0
  141.6320   75.8530  220.2960 N   0  0  0  0  0  0  0  0  0  0  0  0
  142.1370   75.0340  219.2520 C   0  0  0  0  0  0  0  0  0  0  0  0
  143.3490   74.2140  219.4830 C   0  0  0  0  0  0  0  0  0  0  0  0
  144.0590   73.7790  218.1950 C   0  0  0  0  0  0  0  0  0  0  0  0
  145.2640   72.9390  218.6490 C   0  0  0  0  0  0  0  0  0  0  0  0
  145.0510   72.3370  220.0150 C   0  0  0  0  0  0  0  0  0  0  0  0
  144.9930   73.4110  221.0800 C   0  0  0  0  0  0  0  0  0  0  0  0
  144.4140   74.6680  220.3900 C   0  0  0  0  0  0  0  0  0  0  0  0
  139.6880   70.8170  222.1120 C   0  0  0  0  0  0  0  0  0  0  0  0
  139.2410   69.8140  222.9830 C   0  0  0  0  0  0  0  0  0  0  0  0
  141.0231   68.0487  228.2852 H   0  0  0  0  0  0  0  0  0  0  0  0
  140.7905   67.1656  226.7384 H   0  0  0  0  0  0  0  0  0  0  0  0
  141.5551   68.7910  226.7384 H   0  0  0  0  0  0  0  0  0  0  0  0
  138.7152   68.3114  227.7281 H   0  0  0  0  0  0  0  0  0  0  0  0
  139.4823   69.8638  227.3071 H   0  0  0  0  0  0  0  0  0  0  0  0
  140.5169   70.9802  225.8657 H   0  0  0  0  0  0  0  0  0  0  0  0
  141.2922   72.7309  224.3412 H   0  0  0  0  0  0  0  0  0  0  0  0
  141.8405   72.7642  221.1349 H   0  0  0  0  0  0  0  0  0  0  0  0
  139.2785   74.1023  221.6883 H   0  0  0  0  0  0  0  0  0  0  0  0
  139.7455   78.1372  224.0232 H   0  0  0  0  0  0  0  0  0  0  0  0
  140.3696   80.5534  223.8152 H   0  0  0  0  0  0  0  0  0  0  0  0
  142.5045   79.7989  220.1865 H   0  0  0  0  0  0  0  0  0  0  0  0
  141.3307   74.3398  218.9729 H   0  0  0  0  0  0  0  0  0  0  0  0
  142.4600   75.7595  218.4909 H   0  0  0  0  0  0  0  0  0  0  0  0
  142.8313   73.4021  220.0148 H   0  0  0  0  0  0  0  0  0  0  0  0
  143.3843   73.1756  217.5699 H   0  0  0  0  0  0  0  0  0  0  0  0
  144.3708   74.6437  217.5908 H   0  0  0  0  0  0  0  0  0  0  0  0
  145.4241   72.1272  217.9243 H   0  0  0  0  0  0  0  0  0  0  0  0
  146.1395   73.6027  218.7032 H   0  0  0  0  0  0  0  0  0  0  0  0
  144.1042   71.7771  220.0173 H   0  0  0  0  0  0  0  0  0  0  0  0
  145.8956   71.6685  220.2381 H   0  0  0  0  0  0  0  0  0  0  0  0
  144.3400   73.0942  221.9065 H   0  0  0  0  0  0  0  0  0  0  0  0
  145.9876   73.6086  221.5062 H   0  0  0  0  0  0  0  0  0  0  0  0
  144.0004   75.3547  221.1432 H   0  0  0  0  0  0  0  0  0  0  0  0
  145.1974   75.2048  219.8349 H   0  0  0  0  0  0  0  0  0  0  0  0
  139.4403   70.7526  221.0422 H   0  0  0  0  0  0  0  0  0  0  0  0
  138.6491   68.9782  222.5816 H   0  0  0  0  0  0  0  0  0  0  0  0
  1  2  1  0
  2  3  1  0
  3  4  2  0
  3  5  2  0
  3  6  1  0
  6  7  2  0
  7  8  1  0
  8  9  2  0
  9 10  1  0
 10 11  2  0
 11 12  1  0
 12 13  2  0
 13 14  1  0
 14 15  2  0
 15 16  1  0
 16 17  2  0
 17 18  1  0
 17 19  1  0
 19 20  2  0
 20 21  1  0
 21 22  2  0
 21 23  1  0
 23 24  1  0
 24 25  1  0
 25 26  1  0
 26 27  1  0
 27 28  1  0
 28 29  1  0
 29 30  1  0
  9 31  1  0
 31 32  2  0
 32  6  1  0
 23 12  1  0
 30 25  1  0
 20 14  1  0
  1 33  1  0
  1 34  1  0
  1 35  1  0
  2 36  1  0
  2 37  1  0
  7 38  1  0
  8 39  1  0
 10 40  1  0
 11 41  1  0
 15 42  1  0
 16 43  1  0
 19 44  1  0
 24 45  1  0
 24 46  1  0
 25 47  1  0
 26 48  1  0
 26 49  1  0
 27 50  1  0
 27 51  1  0
 28 52  1  0
 28 53  1  0
 29 54  1  0
 29 55  1  0
 30 56  1  0
 30 57  1  0
 31 58  1  0
 32 59  1  0
M  END
>  <smiles>  (22) 
CCS(=O)(=O)c1ccc(/C=C/c2nc3ccc(F)cc3c(=O)n2CC2CCCCC2)cc1

>  <score_type>  (22) 
oracle

>  <origin>  (22) 
autodockgpu

>  <m_score__min__energy>  (22) 
-9.5

>  <m_primary>  (22) 
energy

>  <rmsd>  (22) 
4.626879230591834

>  <m_score__min__rmsd>  (22) 
4.626879230591834

>  <meeko>  (22) 
{"free_energy": -8.52, "intermolecular_energy": -10.6, "internal_energy": -1.56, "cluster_size": 17, "cluster_id": 2, "rank_in_cluster": 10}

>  <energy>  (22) 
-8.04

>  <cluster_rmsd>  (22) 
1.24

>  <cluster>  (22) 
2

$$$$

     RDKit          3D

 59 62  0  0  0  0  0  0  0  0999 V2000
  141.2190   68.1790  228.6100 C   0  0  0  0  0  0  0  0  0  0  0  0
  141.2670   68.1200  227.1060 C   0  0  0  0  0  0  0  0  0  0  0  0
  139.6790   68.6300  226.5000 S   0  0  0  0  0  0  0  0  0  0  0  0
  138.9390   69.2500  227.6460 O   0  0  0  0  0  0  0  0  0  0  0  0
  138.9460   67.4210  226.0380 O   0  0  0  0  0  0  0  0  0  0  0  0
  139.8130   69.7680  225.1780 C   0  0  0  0  0  0  0  0  0  0  0  0
  140.5480   70.9310  225.2570 C   0  0  0  0  0  0  0  0  0  0  0  0
  140.6170   71.7910  224.1840 C   0  0  0  0  0  0  0  0  0  0  0  0
  139.9650   71.5470  222.9790 C   0  0  0  0  0  0  0  0  0  0  0  0
  140.0850   72.5080  221.8800 C   0  0  0  0  0  0  0  0  0  0  0  0
  139.7590   73.7610  221.9410 C   0  0  0  0  0  0  0  0  0  0  0  0
  140.4390   74.9710  221.5970 C   0  0  0  0  0  0  0  0  0  0  0  0
  140.1140   76.0470  222.3870 N   0  0  0  0  0  0  0  0  0  0  0  0
  140.5590   77.2760  222.2320 C   0  0  0  0  0  0  0  0  0  0  0  0
  140.1480   78.2580  223.1010 C   0  0  0  0  0  0  0  0  0  0  0  0
  140.6670   79.5320  222.8640 C   0  0  0  0  0  0  0  0  0  0  0  0
  141.5280   79.8100  221.8420 C   0  0  0  0  0  0  0  0  0  0  0  0
  142.0360   81.0430  221.6060 F   0  0  0  0  0  0  0  0  0  0  0  0
  141.9200   78.7940  220.9880 C   0  0  0  0  0  0  0  0  0  0  0  0
  141.4220   77.5330  221.2020 C   0  0  0  0  0  0  0  0  0  0  0  0
  141.7650   76.4760  220.3970 C   0  0  0  0  0  0  0  0  0  0  0  0
  142.5570   76.7440  219.4510 O   0  0  0  0  0  0  0  0  0  0  0  0
  141.2840   75.1980  220.5870 N   0  0  0  0  0  0  0  0  0  0  0  0
  141.7520   74.2240  219.6670 C   0  0  0  0  0  0  0  0  0  0  0  0
  143.0310   73.5230  219.9270 C   0  0  0  0  0  0  0  0  0  0  0  0
  144.1440   74.4360  220.4570 C   0  0  0  0  0  0  0  0  0  0  0  0
  145.3710   73.5290  220.6440 C   0  0  0  0  0  0  0  0  0  0  0  0
  145.3120   72.3080  219.7600 C   0  0  0  0  0  0  0  0  0  0  0  0
  144.1760   71.3950  220.1710 C   0  0  0  0  0  0  0  0  0  0  0  0
  143.0800   72.3120  220.7610 C   0  0  0  0  0  0  0  0  0  0  0  0
  139.2330   70.3880  222.9070 C   0  0  0  0  0  0  0  0  0  0  0  0
  139.1570   69.5070  223.9940 C   0  0  0  0  0  0  0  0  0  0  0  0
  141.8610   67.3899  229.0286 H   0  0  0  0  0  0  0  0  0  0  0  0
  141.5771   69.1619  228.9500 H   0  0  0  0  0  0  0  0  0  0  0  0
  140.1838   68.0282  228.9500 H   0  0  0  0  0  0  0  0  0  0  0  0
  142.0478   68.7966  226.7285 H   0  0  0  0  0  0  0  0  0  0  0  0
  141.5018   67.1006  226.7660 H   0  0  0  0  0  0  0  0  0  0  0  0
  141.0845   71.1745  226.1859 H   0  0  0  0  0  0  0  0  0  0  0  0
  141.2130   72.7102  224.2835 H   0  0  0  0  0  0  0  0  0  0  0  0
  140.4844   72.1359  220.9250 H   0  0  0  0  0  0  0  0  0  0  0  0
  138.7481   73.9286  222.3409 H   0  0  0  0  0  0  0  0  0  0  0  0
  139.4546   78.0533  223.9300 H   0  0  0  0  0  0  0  0  0  0  0  0
  140.3675   80.3518  223.5335 H   0  0  0  0  0  0  0  0  0  0  0  0
  142.6139   78.9922  220.1578 H   0  0  0  0  0  0  0  0  0  0  0  0
  140.9729   73.4506  219.5975 H   0  0  0  0  0  0  0  0  0  0  0  0
  141.9606   74.8089  218.7591 H   0  0  0  0  0  0  0  0  0  0  0  0
  143.1777   73.1788  218.8926 H   0  0  0  0  0  0  0  0  0  0  0  0
  144.3635   75.2338  219.7322 H   0  0  0  0  0  0  0  0  0  0  0  0
  143.8538   74.9262  221.3980 H   0  0  0  0  0  0  0  0  0  0  0  0
  146.2770   74.1022  220.3977 H   0  0  0  0  0  0  0  0  0  0  0  0
  145.3863   73.1901  221.6904 H   0  0  0  0  0  0  0  0  0  0  0  0
  145.1594   72.6254  218.7179 H   0  0  0  0  0  0  0  0  0  0  0  0
  146.2586   71.7567  219.8602 H   0  0  0  0  0  0  0  0  0  0  0  0
  143.7885   70.8507  219.2971 H   0  0  0  0  0  0  0  0  0  0  0  0
  144.5087   70.6446  220.9032 H   0  0  0  0  0  0  0  0  0  0  0  0
  142.1071   71.7992  220.7385 H   0  0  0  0  0  0  0  0  0  0  0  0
  143.3054   72.5670  221.8070 H   0  0  0  0  0  0  0  0  0  0  0  0
  138.6957   70.1462  221.9781 H   0  0  0  0  0  0  0  0  0  0  0  0
  138.5610   68.5872  223.9005 H   0  0  0  0  0  0  0  0  0  0  0  0
  1  2  1  0
  2  3  1  0
  3  4  2  0
  3  5  2  0
  3  6  1  0
  6  7  2  0
  7  8  1  0
  8  9  2  0
  9 10  1  0
 10 11  2  0
 11 12  1  0
 12 13  2  0
 13 14  1  0
 14 15  2  0
 15 16  1  0
 16 17  2  0
 17 18  1  0
 17 19  1  0
 19 20  2  0
 20 21  1  0
 21 22  2  0
 21 23  1  0
 23 24  1  0
 24 25  1  0
 25 26  1  0
 26 27  1  0
 27 28  1  0
 28 29  1  0
 29 30  1  0
  9 31  1  0
 31 32  2  0
 32  6  1  0
 23 12  1  0
 30 25  1  0
 20 14  1  0
  1 33  1  0
  1 34  1  0
  1 35  1  0
  2 36  1  0
  2 37  1  0
  7 38  1  0
  8 39  1  0
 10 40  1  0
 11 41  1  0
 15 42  1  0
 16 43  1  0
 19 44  1  0
 24 45  1  0
 24 46  1  0
 25 47  1  0
 26 48  1  0
 26 49  1  0
 27 50  1  0
 27 51  1  0
 28 52  1  0
 28 53  1  0
 29 54  1  0
 29 55  1  0
 30 56  1  0
 30 57  1  0
 31 58  1  0
 32 59  1  0
M  END
>  <smiles>  (23) 
CCS(=O)(=O)c1ccc(/C=C/c2nc3ccc(F)cc3c(=O)n2CC2CCCCC2)cc1

>  <score_type>  (23) 
oracle

>  <origin>  (23) 
autodockgpu

>  <m_score__min__energy>  (23) 
-9.5

>  <m_primary>  (23) 
energy

>  <rmsd>  (23) 
4.912140744260668

>  <m_score__min__rmsd>  (23) 
4.912140744260668

>  <meeko>  (23) 
{"free_energy": -9.12, "intermolecular_energy": -11.21, "internal_energy": -1.49, "cluster_size": 17, "cluster_id": 2, "rank_in_cluster": 3}

>  <energy>  (23) 
-7.97

>  <cluster_rmsd>  (23) 
1.26

>  <cluster>  (23) 
2

$$$$

     RDKit          3D

 59 62  0  0  0  0  0  0  0  0999 V2000
  140.5670   67.7090  226.6750 C   0  0  0  0  0  0  0  0  0  0  0  0
  141.1130   68.5380  227.8070 C   0  0  0  0  0  0  0  0  0  0  0  0
  140.3360   70.1320  227.7260 S   0  0  0  0  0  0  0  0  0  0  0  0
  141.2670   71.1180  228.3610 O   0  0  0  0  0  0  0  0  0  0  0  0
  139.0710   70.0730  228.5080 O   0  0  0  0  0  0  0  0  0  0  0  0
  139.9790   70.6070  226.0800 C   0  0  0  0  0  0  0  0  0  0  0  0
  140.7380   71.5190  225.3790 C   0  0  0  0  0  0  0  0  0  0  0  0
  140.4090   71.8570  224.0850 C   0  0  0  0  0  0  0  0  0  0  0  0
  139.3150   71.3120  223.4180 C   0  0  0  0  0  0  0  0  0  0  0  0
  139.0270   71.7190  222.0400 C   0  0  0  0  0  0  0  0  0  0  0  0
  139.3650   72.8520  221.5080 C   0  0  0  0  0  0  0  0  0  0  0  0
  138.9900   74.2080  221.7620 C   0  0  0  0  0  0  0  0  0  0  0  0
  140.0440   75.0440  222.0400 N   0  0  0  0  0  0  0  0  0  0  0  0
  139.9510   76.3160  222.3650 C   0  0  0  0  0  0  0  0  0  0  0  0
  141.0960   77.0340  222.6170 C   0  0  0  0  0  0  0  0  0  0  0  0
  140.9060   78.3750  222.9550 C   0  0  0  0  0  0  0  0  0  0  0  0
  139.6750   78.9590  223.0370 C   0  0  0  0  0  0  0  0  0  0  0  0
  139.4830   80.2590  223.3650 F   0  0  0  0  0  0  0  0  0  0  0  0
  138.5450   78.2020  222.7750 C   0  0  0  0  0  0  0  0  0  0  0  0
  138.7080   76.8810  222.4410 C   0  0  0  0  0  0  0  0  0  0  0  0
  137.6360   76.0700  222.1670 C   0  0  0  0  0  0  0  0  0  0  0  0
  136.5010   76.6160  222.2510 O   0  0  0  0  0  0  0  0  0  0  0  0
  137.7660   74.7400  221.8260 N   0  0  0  0  0  0  0  0  0  0  0  0
  136.5520   74.0530  221.5650 C   0  0  0  0  0  0  0  0  0  0  0  0
  135.9430   73.2110  222.6200 C   0  0  0  0  0  0  0  0  0  0  0  0
  135.4140   74.0050  223.8210 C   0  0  0  0  0  0  0  0  0  0  0  0
  134.8450   72.9580  224.7930 C   0  0  0  0  0  0  0  0  0  0  0  0
  135.4740   71.6020  224.5940 C   0  0  0  0  0  0  0  0  0  0  0  0
  135.0990   71.0220  223.2480 C   0  0  0  0  0  0  0  0  0  0  0  0
  134.8960   72.2280  222.3010 C   0  0  0  0  0  0  0  0  0  0  0  0
  138.5630   70.4060  224.1220 C   0  0  0  0  0  0  0  0  0  0  0  0
  138.8900   70.0560  225.4390 C   0  0  0  0  0  0  0  0  0  0  0  0
  140.0051   66.8559  227.0831 H   0  0  0  0  0  0  0  0  0  0  0  0
  139.8984   68.3267  226.0574 H   0  0  0  0  0  0  0  0  0  0  0  0
  141.3986   67.3387  226.0574 H   0  0  0  0  0  0  0  0  0  0  0  0
  140.8834   68.0570  228.7692 H   0  0  0  0  0  0  0  0  0  0  0  0
  142.2055   68.6354  227.7234 H   0  0  0  0  0  0  0  0  0  0  0  0
  141.6143   71.9810  225.8571 H   0  0  0  0  0  0  0  0  0  0  0  0
  141.0373   72.5887  223.5559 H   0  0  0  0  0  0  0  0  0  0  0  0
  138.4800   71.0058  221.4059 H   0  0  0  0  0  0  0  0  0  0  0  0
  140.0928   72.7482  220.6898 H   0  0  0  0  0  0  0  0  0  0  0  0
  142.0967   76.5813  222.5562 H   0  0  0  0  0  0  0  0  0  0  0  0
  141.7922   78.9916  223.1657 H   0  0  0  0  0  0  0  0  0  0  0  0
  137.5415   78.6488  222.8332 H   0  0  0  0  0  0  0  0  0  0  0  0
  135.8061   74.8151  221.2952 H   0  0  0  0  0  0  0  0  0  0  0  0
  136.8313   73.3266  220.7876 H   0  0  0  0  0  0  0  0  0  0  0  0
  136.8499   72.6234  222.8256 H   0  0  0  0  0  0  0  0  0  0  0  0
  136.2297   74.5681  224.2980 H   0  0  0  0  0  0  0  0  0  0  0  0
  134.6502   74.7370  223.5196 H   0  0  0  0  0  0  0  0  0  0  0  0
  135.0356   73.2901  225.8242 H   0  0  0  0  0  0  0  0  0  0  0  0
  133.7664   72.8642  224.5983 H   0  0  0  0  0  0  0  0  0  0  0  0
  136.5680   71.7013  224.6506 H   0  0  0  0  0  0  0  0  0  0  0  0
  135.1068   70.9267  225.3809 H   0  0  0  0  0  0  0  0  0  0  0  0
  135.9055   70.3744  222.8736 H   0  0  0  0  0  0  0  0  0  0  0  0
  134.1894   70.4072  223.3154 H   0  0  0  0  0  0  0  0  0  0  0  0
  134.9887   71.9048  221.2536 H   0  0  0  0  0  0  0  0  0  0  0  0
  133.8955   72.6654  222.4338 H   0  0  0  0  0  0  0  0  0  0  0  0
  137.6863   69.9453  223.6434 H   0  0  0  0  0  0  0  0  0  0  0  0
  138.2641   69.3258  225.9729 H   0  0  0  0  0  0  0  0  0  0  0  0
  1  2  1  0
  2  3  1  0
  3  4  2  0
  3  5  2  0
  3  6  1  0
  6  7  2  0
  7  8  1  0
  8  9  2  0
  9 10  1  0
 10 11  2  0
 11 12  1  0
 12 13  2  0
 13 14  1  0
 14 15  2  0
 15 16  1  0
 16 17  2  0
 17 18  1  0
 17 19  1  0
 19 20  2  0
 20 21  1  0
 21 22  2  0
 21 23  1  0
 23 24  1  0
 24 25  1  0
 25 26  1  0
 26 27  1  0
 27 28  1  0
 28 29  1  0
 29 30  1  0
  9 31  1  0
 31 32  2  0
 32  6  1  0
 23 12  1  0
 30 25  1  0
 20 14  1  0
  1 33  1  0
  1 34  1  0
  1 35  1  0
  2 36  1  0
  2 37  1  0
  7 38  1  0
  8 39  1  0
 10 40  1  0
 11 41  1  0
 15 42  1  0
 16 43  1  0
 19 44  1  0
 24 45  1  0
 24 46  1  0
 25 47  1  0
 26 48  1  0
 26 49  1  0
 27 50  1  0
 27 51  1  0
 28 52  1  0
 28 53  1  0
 29 54  1  0
 29 55  1  0
 30 56  1  0
 30 57  1  0
 31 58  1  0
 32 59  1  0
M  END
>  <smiles>  (24) 
CCS(=O)(=O)c1ccc(/C=C/c2nc3ccc(F)cc3c(=O)n2CC2CCCCC2)cc1

>  <score_type>  (24) 
oracle

>  <origin>  (24) 
autodockgpu

>  <m_score__min__energy>  (24) 
-9.5

>  <m_primary>  (24) 
energy

>  <rmsd>  (24) 
6.92479091818074

>  <m_score__min__rmsd>  (24) 
6.92479091818074

>  <meeko>  (24) 
{"free_energy": -7.79, "intermolecular_energy": -9.88, "internal_energy": -2.17, "cluster_size": 10, "cluster_id": 4, "rank_in_cluster": 9}

>  <energy>  (24) 
-8.64

>  <cluster_rmsd>  (24) 
0.0

>  <cluster>  (24) 
3

$$$$

     RDKit          3D

 59 62  0  0  0  0  0  0  0  0999 V2000
  141.0490   67.8260  226.5850 C   0  0  0  0  0  0  0  0  0  0  0  0
  141.0370   68.4070  227.9730 C   0  0  0  0  0  0  0  0  0  0  0  0
  140.3900   70.0560  227.8560 S   0  0  0  0  0  0  0  0  0  0  0  0
  141.4410   70.9880  228.3780 O   0  0  0  0  0  0  0  0  0  0  0  0
  139.1800   70.1440  228.7170 O   0  0  0  0  0  0  0  0  0  0  0  0
  139.9650   70.4820  226.2130 C   0  0  0  0  0  0  0  0  0  0  0  0
  138.9190   69.8970  225.5310 C   0  0  0  0  0  0  0  0  0  0  0  0
  138.6300   70.2710  224.2380 C   0  0  0  0  0  0  0  0  0  0  0  0
  139.3570   71.2400  223.5530 C   0  0  0  0  0  0  0  0  0  0  0  0
  138.9900   71.5860  222.1770 C   0  0  0  0  0  0  0  0  0  0  0  0
  139.2810   72.7010  221.5820 C   0  0  0  0  0  0  0  0  0  0  0  0
  138.9210   74.0640  221.8200 C   0  0  0  0  0  0  0  0  0  0  0  0
  139.9890   74.9100  221.9880 N   0  0  0  0  0  0  0  0  0  0  0  0
  139.9160   76.1930  222.2770 C   0  0  0  0  0  0  0  0  0  0  0  0
  141.0730   76.9210  222.4180 C   0  0  0  0  0  0  0  0  0  0  0  0
  140.9040   78.2720  222.7250 C   0  0  0  0  0  0  0  0  0  0  0  0
  139.6800   78.8560  222.8810 C   0  0  0  0  0  0  0  0  0  0  0  0
  139.5080   80.1660  223.1800 F   0  0  0  0  0  0  0  0  0  0  0  0
  138.5380   78.0890  222.7320 C   0  0  0  0  0  0  0  0  0  0  0  0
  138.6800   76.7570  222.4290 C   0  0  0  0  0  0  0  0  0  0  0  0
  137.5930   75.9360  222.2660 C   0  0  0  0  0  0  0  0  0  0  0  0
  136.4660   76.4830  222.4180 O   0  0  0  0  0  0  0  0  0  0  0  0
  137.7030   74.5960  221.9600 N   0  0  0  0  0  0  0  0  0  0  0  0
  136.4750   73.8980  221.8150 C   0  0  0  0  0  0  0  0  0  0  0  0
  135.7000   73.5180  223.0190 C   0  0  0  0  0  0  0  0  0  0  0  0
  135.9160   72.0670  223.4640 C   0  0  0  0  0  0  0  0  0  0  0  0
  135.0230   71.8750  224.7010 C   0  0  0  0  0  0  0  0  0  0  0  0
  133.8690   72.8450  224.7210 C   0  0  0  0  0  0  0  0  0  0  0  0
  134.3570   74.2670  224.8980 C   0  0  0  0  0  0  0  0  0  0  0  0
  135.7590   74.3240  224.2480 C   0  0  0  0  0  0  0  0  0  0  0  0
  140.3980   71.8170  224.2360 C   0  0  0  0  0  0  0  0  0  0  0  0
  140.6990   71.4420  225.5530 C   0  0  0  0  0  0  0  0  0  0  0  0
  141.0717   66.7280  226.6473 H   0  0  0  0  0  0  0  0  0  0  0  0
  140.1441   68.1441  226.0465 H   0  0  0  0  0  0  0  0  0  0  0  0
  141.9400   68.1812  226.0465 H   0  0  0  0  0  0  0  0  0  0  0  0
  140.3976   67.7984  228.6293 H   0  0  0  0  0  0  0  0  0  0  0  0
  142.0520   68.4183  228.3969 H   0  0  0  0  0  0  0  0  0  0  0  0
  138.3103   69.1249  226.0243 H   0  0  0  0  0  0  0  0  0  0  0  0
  137.7885   69.7831  223.7244 H   0  0  0  0  0  0  0  0  0  0  0  0
  138.4218   70.8397  221.6024 H   0  0  0  0  0  0  0  0  0  0  0  0
  139.9428   72.5709  220.7130 H   0  0  0  0  0  0  0  0  0  0  0  0
  142.0681   76.4682  222.2967 H   0  0  0  0  0  0  0  0  0  0  0  0
  141.8011   78.8968  222.8473 H   0  0  0  0  0  0  0  0  0  0  0  0
  137.5401   78.5355  222.8533 H   0  0  0  0  0  0  0  0  0  0  0  0
  135.8188   74.5314  221.2000 H   0  0  0  0  0  0  0  0  0  0  0  0
  136.7793   72.9300  221.3903 H   0  0  0  0  0  0  0  0  0  0  0  0
  134.7115   73.7174  222.5795 H   0  0  0  0  0  0  0  0  0  0  0  0
  135.6189   71.3722  222.6647 H   0  0  0  0  0  0  0  0  0  0  0  0
  136.9732   71.8645  223.6905 H   0  0  0  0  0  0  0  0  0  0  0  0
  134.6249   70.8496  224.6958 H   0  0  0  0  0  0  0  0  0  0  0  0
  135.6369   72.0591  225.5950 H   0  0  0  0  0  0  0  0  0  0  0  0
  133.3192   72.7692  223.7713 H   0  0  0  0  0  0  0  0  0  0  0  0
  133.2138   72.5920  225.5676 H   0  0  0  0  0  0  0  0  0  0  0  0
  133.6751   74.9697  224.3968 H   0  0  0  0  0  0  0  0  0  0  0  0
  134.3951   74.5492  225.9605 H   0  0  0  0  0  0  0  0  0  0  0  0
  136.0198   75.3645  224.0045 H   0  0  0  0  0  0  0  0  0  0  0  0
  136.5247   73.9344  224.9349 H   0  0  0  0  0  0  0  0  0  0  0  0
  141.0073   72.5877  223.7413 H   0  0  0  0  0  0  0  0  0  0  0  0
  141.5405   71.9256  226.0707 H   0  0  0  0  0  0  0  0  0  0  0  0
  1  2  1  0
  2  3  1  0
  3  4  2  0
  3  5  2  0
  3  6  1  0
  6  7  2  0
  7  8  1  0
  8  9  2  0
  9 10  1  0
 10 11  2  0
 11 12  1  0
 12 13  2  0
 13 14  1  0
 14 15  2  0
 15 16  1  0
 16 17  2  0
 17 18  1  0
 17 19  1  0
 19 20  2  0
 20 21  1  0
 21 22  2  0
 21 23  1  0
 23 24  1  0
 24 25  1  0
 25 26  1  0
 26 27  1  0
 27 28  1  0
 28 29  1  0
 29 30  1  0
  9 31  1  0
 31 32  2  0
 32  6  1  0
 23 12  1  0
 30 25  1  0
 20 14  1  0
  1 33  1  0
  1 34  1  0
  1 35  1  0
  2 36  1  0
  2 37  1  0
  7 38  1  0
  8 39  1  0
 10 40  1  0
 11 41  1  0
 15 42  1  0
 16 43  1  0
 19 44  1  0
 24 45  1  0
 24 46  1  0
 25 47  1  0
 26 48  1  0
 26 49  1  0
 27 50  1  0
 27 51  1  0
 28 52  1  0
 28 53  1  0
 29 54  1  0
 29 55  1  0
 30 56  1  0
 30 57  1  0
 31 58  1  0
 32 59  1  0
M  END
>  <smiles>  (25) 
CCS(=O)(=O)c1ccc(/C=C/c2nc3ccc(F)cc3c(=O)n2CC2CCCCC2)cc1

>  <score_type>  (25) 
oracle

>  <origin>  (25) 
autodockgpu

>  <m_score__min__energy>  (25) 
-9.5

>  <m_primary>  (25) 
energy

>  <rmsd>  (25) 
7.250594980420846

>  <m_score__min__rmsd>  (25) 
7.250594980420846

>  <meeko>  (25) 
{"free_energy": -8.2, "intermolecular_energy": -10.29, "internal_energy": -1.98, "cluster_size": 10, "cluster_id": 4, "rank_in_cluster": 7}

>  <energy>  (25) 
-8.56

>  <cluster_rmsd>  (25) 
1.46

>  <cluster>  (25) 
3

$$$$

     RDKit          3D

 59 62  0  0  0  0  0  0  0  0999 V2000
  140.3350   70.6290  227.9680 C   0  0  0  0  0  0  0  0  0  0  0  0
  139.7620   69.2410  227.8710 C   0  0  0  0  0  0  0  0  0  0  0  0
  140.0540   68.6570  226.2200 S   0  0  0  0  0  0  0  0  0  0  0  0
  139.1710   67.4670  226.0020 O   0  0  0  0  0  0  0  0  0  0  0  0
  141.4790   68.2380  226.1190 O   0  0  0  0  0  0  0  0  0  0  0  0
  139.7240   69.8850  225.0190 C   0  0  0  0  0  0  0  0  0  0  0  0
  140.6560   70.8220  224.6250 C   0  0  0  0  0  0  0  0  0  0  0  0
  140.3400   71.7670  223.6750 C   0  0  0  0  0  0  0  0  0  0  0  0
  139.0900   71.8360  223.0660 C   0  0  0  0  0  0  0  0  0  0  0  0
  138.8270   72.8710  222.0620 C   0  0  0  0  0  0  0  0  0  0  0  0
  139.5190   73.9560  221.9050 C   0  0  0  0  0  0  0  0  0  0  0  0
  140.7720   74.2390  221.2780 C   0  0  0  0  0  0  0  0  0  0  0  0
  141.6530   73.1850  221.2730 N   0  0  0  0  0  0  0  0  0  0  0  0
  142.8850   73.2150  220.8110 C   0  0  0  0  0  0  0  0  0  0  0  0
  143.6570   72.0790  220.8710 C   0  0  0  0  0  0  0  0  0  0  0  0
  144.9510   72.1990  220.3610 C   0  0  0  0  0  0  0  0  0  0  0  0
  145.4410   73.3580  219.8310 C   0  0  0  0  0  0  0  0  0  0  0  0
  146.6950   73.4830  219.3340 F   0  0  0  0  0  0  0  0  0  0  0  0
  144.6320   74.4810  219.7880 C   0  0  0  0  0  0  0  0  0  0  0  0
  143.3560   74.3860  220.2850 C   0  0  0  0  0  0  0  0  0  0  0  0
  142.4980   75.4560  220.2740 C   0  0  0  0  0  0  0  0  0  0  0  0
  142.9610   76.5250  219.7890 O   0  0  0  0  0  0  0  0  0  0  0  0
  141.2100   75.3920  220.7630 N   0  0  0  0  0  0  0  0  0  0  0  0
  140.4560   76.5900  220.6640 C   0  0  0  0  0  0  0  0  0  0  0  0
  140.8000   77.7470  221.5230 C   0  0  0  0  0  0  0  0  0  0  0  0
  141.1460   77.3680  222.9680 C   0  0  0  0  0  0  0  0  0  0  0  0
  141.4520   78.6940  223.6830 C   0  0  0  0  0  0  0  0  0  0  0  0
  140.7850   79.8670  223.0100 C   0  0  0  0  0  0  0  0  0  0  0  0
  141.3670   80.1060  221.6340 C   0  0  0  0  0  0  0  0  0  0  0  0
  141.8210   78.7230  221.1130 C   0  0  0  0  0  0  0  0  0  0  0  0
  138.1670   70.9020  223.4630 C   0  0  0  0  0  0  0  0  0  0  0  0
  138.4800   69.9360  224.4300 C   0  0  0  0  0  0  0  0  0  0  0  0
  140.4491   70.9054  229.0266 H   0  0  0  0  0  0  0  0  0  0  0  0
  141.3176   70.6554  227.4742 H   0  0  0  0  0  0  0  0  0  0  0  0
  139.6572   71.3408  227.4742 H   0  0  0  0  0  0  0  0  0  0  0  0
  140.2570   68.5788  228.5966 H   0  0  0  0  0  0  0  0  0  0  0  0
  138.6848   69.2502  228.0938 H   0  0  0  0  0  0  0  0  0  0  0  0
  141.6604   70.8143  225.0736 H   0  0  0  0  0  0  0  0  0  0  0  0
  141.1081   72.4989  223.3847 H   0  0  0  0  0  0  0  0  0  0  0  0
  137.9729   72.7144  221.3867 H   0  0  0  0  0  0  0  0  0  0  0  0
  139.0426   74.8439  222.3463 H   0  0  0  0  0  0  0  0  0  0  0  0
  143.2794   71.1362  221.2936 H   0  0  0  0  0  0  0  0  0  0  0  0
  145.6078   71.3170  220.3874 H   0  0  0  0  0  0  0  0  0  0  0  0
  145.0030   75.4265  219.3657 H   0  0  0  0  0  0  0  0  0  0  0  0
  140.5357   76.9318  219.6215 H   0  0  0  0  0  0  0  0  0  0  0  0
  139.4580   76.2946  221.0199 H   0  0  0  0  0  0  0  0  0  0  0  0
  139.8337   78.2592  221.4053 H   0  0  0  0  0  0  0  0  0  0  0  0
  140.2945   76.8618  223.4463 H   0  0  0  0  0  0  0  0  0  0  0  0
  141.9995   76.6756  223.0132 H   0  0  0  0  0  0  0  0  0  0  0  0
  141.0928   78.6288  224.7207 H   0  0  0  0  0  0  0  0  0  0  0  0
  142.5395   78.8557  223.6472 H   0  0  0  0  0  0  0  0  0  0  0  0
  139.7084   79.6624  222.9146 H   0  0  0  0  0  0  0  0  0  0  0  0
  140.9540   80.7649  223.6226 H   0  0  0  0  0  0  0  0  0  0  0  0
  140.6047   80.5338  220.9663 H   0  0  0  0  0  0  0  0  0  0  0  0
  142.2062   80.8162  221.6710 H   0  0  0  0  0  0  0  0  0  0  0  0
  141.9049   78.7424  220.0164 H   0  0  0  0  0  0  0  0  0  0  0  0
  142.8052   78.4546  221.5246 H   0  0  0  0  0  0  0  0  0  0  0  0
  137.1627   70.9110  223.0144 H   0  0  0  0  0  0  0  0  0  0  0  0
  137.7150   69.2026  224.7247 H   0  0  0  0  0  0  0  0  0  0  0  0
  1  2  1  0
  2  3  1  0
  3  4  2  0
  3  5  2  0
  3  6  1  0
  6  7  2  0
  7  8  1  0
  8  9  2  0
  9 10  1  0
 10 11  2  0
 11 12  1  0
 12 13  2  0
 13 14  1  0
 14 15  2  0
 15 16  1  0
 16 17  2  0
 17 18  1  0
 17 19  1  0
 19 20  2  0
 20 21  1  0
 21 22  2  0
 21 23  1  0
 23 24  1  0
 24 25  1  0
 25 26  1  0
 26 27  1  0
 27 28  1  0
 28 29  1  0
 29 30  1  0
  9 31  1  0
 31 32  2  0
 32  6  1  0
 23 12  1  0
 30 25  1  0
 20 14  1  0
  1 33  1  0
  1 34  1  0
  1 35  1  0
  2 36  1  0
  2 37  1  0
  7 38  1  0
  8 39  1  0
 10 40  1  0
 11 41  1  0
 15 42  1  0
 16 43  1  0
 19 44  1  0
 24 45  1  0
 24 46  1  0
 25 47  1  0
 26 48  1  0
 26 49  1  0
 27 50  1  0
 27 51  1  0
 28 52  1  0
 28 53  1  0
 29 54  1  0
 29 55  1  0
 30 56  1  0
 30 57  1  0
 31 58  1  0
 32 59  1  0
M  END
>  <smiles>  (26) 
CCS(=O)(=O)c1ccc(/C=C/c2nc3ccc(F)cc3c(=O)n2CC2CCCCC2)cc1

>  <score_type>  (26) 
oracle

>  <origin>  (26) 
autodockgpu

>  <m_score__min__energy>  (26) 
-9.5

>  <m_primary>  (26) 
energy

>  <rmsd>  (26) 
7.505003834870605

>  <m_score__min__rmsd>  (26) 
7.505003834870605

>  <meeko>  (26) 
{"free_energy": -9.17, "intermolecular_energy": -11.26, "internal_energy": -1.52, "cluster_size": 6, "cluster_id": 1, "rank_in_cluster": 2}

>  <energy>  (26) 
-8.49

>  <cluster_rmsd>  (26) 
1.44

>  <cluster>  (26) 
3

$$$$

     RDKit          3D

 59 62  0  0  0  0  0  0  0  0999 V2000
  145.1930   69.8520  218.1490 C   0  0  0  0  0  0  0  0  0  0  0  0
  145.9830   70.4440  219.2850 C   0  0  0  0  0  0  0  0  0  0  0  0
  145.5700   72.1680  219.3830 S   0  0  0  0  0  0  0  0  0  0  0  0
  145.5780   72.7110  217.9870 O   0  0  0  0  0  0  0  0  0  0  0  0
  146.6190   72.8530  220.1850 O   0  0  0  0  0  0  0  0  0  0  0  0
  144.0080   72.4290  220.1260 C   0  0  0  0  0  0  0  0  0  0  0  0
  143.4860   73.6830  220.3610 C   0  0  0  0  0  0  0  0  0  0  0  0
  142.2510   73.8290  220.9500 C   0  0  0  0  0  0  0  0  0  0  0  0
  141.4670   72.7450  221.3380 C   0  0  0  0  0  0  0  0  0  0  0  0
  140.1610   72.9780  221.9600 C   0  0  0  0  0  0  0  0  0  0  0  0
  139.3710   72.0540  222.4110 C   0  0  0  0  0  0  0  0  0  0  0  0
  139.4850   71.0920  223.4620 C   0  0  0  0  0  0  0  0  0  0  0  0
  140.0240   71.5860  224.6250 N   0  0  0  0  0  0  0  0  0  0  0  0
  140.2850   70.8860  225.7090 C   0  0  0  0  0  0  0  0  0  0  0  0
  140.8280   71.5140  226.8050 C   0  0  0  0  0  0  0  0  0  0  0  0
  141.0730   70.6980  227.9100 C   0  0  0  0  0  0  0  0  0  0  0  0
  140.8010   69.3610  227.9280 C   0  0  0  0  0  0  0  0  0  0  0  0
  141.0360   68.5630  228.9960 F   0  0  0  0  0  0  0  0  0  0  0  0
  140.2540   68.7640  226.8050 C   0  0  0  0  0  0  0  0  0  0  0  0
  140.0040   69.5480  225.7050 C   0  0  0  0  0  0  0  0  0  0  0  0
  139.4630   69.0260  224.5580 C   0  0  0  0  0  0  0  0  0  0  0  0
  139.2200   67.7880  224.5810 O   0  0  0  0  0  0  0  0  0  0  0  0
  139.1980   69.7870  223.4380 N   0  0  0  0  0  0  0  0  0  0  0  0
  138.6270   69.0880  222.3430 C   0  0  0  0  0  0  0  0  0  0  0  0
  139.4960   68.6080  221.2440 C   0  0  0  0  0  0  0  0  0  0  0  0
  139.5860   67.0800  221.1450 C   0  0  0  0  0  0  0  0  0  0  0  0
  140.5340   66.7950  219.9690 C   0  0  0  0  0  0  0  0  0  0  0  0
  141.4730   67.9450  219.7090 C   0  0  0  0  0  0  0  0  0  0  0  0
  140.7190   69.1630  219.2210 C   0  0  0  0  0  0  0  0  0  0  0  0
  139.3150   69.0860  219.8650 C   0  0  0  0  0  0  0  0  0  0  0  0
  141.9920   71.5000  221.1030 C   0  0  0  0  0  0  0  0  0  0  0  0
  143.2490   71.3420  220.5030 C   0  0  0  0  0  0  0  0  0  0  0  0
  144.3741   69.2383  218.5525 H   0  0  0  0  0  0  0  0  0  0  0  0
  144.7751   70.6612  217.5321 H   0  0  0  0  0  0  0  0  0  0  0  0
  145.8523   69.2237  217.5321 H   0  0  0  0  0  0  0  0  0  0  0  0
  145.7201   69.9409  220.2272 H   0  0  0  0  0  0  0  0  0  0  0  0
  147.0620   70.3137  219.1151 H   0  0  0  0  0  0  0  0  0  0  0  0
  144.0621   74.5753  220.0750 H   0  0  0  0  0  0  0  0  0  0  0  0
  141.8665   74.8452  221.1218 H   0  0  0  0  0  0  0  0  0  0  0  0
  139.8235   74.0209  222.0518 H   0  0  0  0  0  0  0  0  0  0  0  0
  138.4134   71.9990  221.8725 H   0  0  0  0  0  0  0  0  0  0  0  0
  141.0547   72.5904  226.8104 H   0  0  0  0  0  0  0  0  0  0  0  0
  141.5070   71.1553  228.8114 H   0  0  0  0  0  0  0  0  0  0  0  0
  140.0252   67.6881  226.7938 H   0  0  0  0  0  0  0  0  0  0  0  0
  138.1206   68.2041  222.7582 H   0  0  0  0  0  0  0  0  0  0  0  0
  137.9955   69.8463  221.8570 H   0  0  0  0  0  0  0  0  0  0  0  0
  140.4115   69.0960  221.6097 H   0  0  0  0  0  0  0  0  0  0  0  0
  139.9924   66.6585  222.0762 H   0  0  0  0  0  0  0  0  0  0  0  0
  138.5971   66.6241  220.9893 H   0  0  0  0  0  0  0  0  0  0  0  0
  141.1269   65.8977  220.2002 H   0  0  0  0  0  0  0  0  0  0  0  0
  139.9216   66.6460  219.0674 H   0  0  0  0  0  0  0  0  0  0  0  0
  141.9989   68.1976  220.6416 H   0  0  0  0  0  0  0  0  0  0  0  0
  142.1898   67.6425  218.9314 H   0  0  0  0  0  0  0  0  0  0  0  0
  141.2338   70.0824  219.5368 H   0  0  0  0  0  0  0  0  0  0  0  0
  140.6565   69.1832  218.1230 H   0  0  0  0  0  0  0  0  0  0  0  0
  138.8470   70.0815  219.8693 H   0  0  0  0  0  0  0  0  0  0  0  0
  138.6616   68.4064  219.2982 H   0  0  0  0  0  0  0  0  0  0  0  0
  141.4157   70.6084  221.3908 H   0  0  0  0  0  0  0  0  0  0  0  0
  143.6383   70.3280  220.3292 H   0  0  0  0  0  0  0  0  0  0  0  0
  1  2  1  0
  2  3  1  0
  3  4  2  0
  3  5  2  0
  3  6  1  0
  6  7  2  0
  7  8  1  0
  8  9  2  0
  9 10  1  0
 10 11  2  0
 11 12  1  0
 12 13  2  0
 13 14  1  0
 14 15  2  0
 15 16  1  0
 16 17  2  0
 17 18  1  0
 17 19  1  0
 19 20  2  0
 20 21  1  0
 21 22  2  0
 21 23  1  0
 23 24  1  0
 24 25  1  0
 25 26  1  0
 26 27  1  0
 27 28  1  0
 28 29  1  0
 29 30  1  0
  9 31  1  0
 31 32  2  0
 32  6  1  0
 23 12  1  0
 30 25  1  0
 20 14  1  0
  1 33  1  0
  1 34  1  0
  1 35  1  0
  2 36  1  0
  2 37  1  0
  7 38  1  0
  8 39  1  0
 10 40  1  0
 11 41  1  0
 15 42  1  0
 16 43  1  0
 19 44  1  0
 24 45  1  0
 24 46  1  0
 25 47  1  0
 26 48  1  0
 26 49  1  0
 27 50  1  0
 27 51  1  0
 28 52  1  0
 28 53  1  0
 29 54  1  0
 29 55  1  0
 30 56  1  0
 30 57  1  0
 31 58  1  0
 32 59  1  0
M  END
>  <smiles>  (27) 
CCS(=O)(=O)c1ccc(/C=C/c2nc3ccc(F)cc3c(=O)n2CC2CCCCC2)cc1

>  <score_type>  (27) 
oracle

>  <origin>  (27) 
autodockgpu

>  <m_score__min__energy>  (27) 
-9.5

>  <m_primary>  (27) 
energy

>  <rmsd>  (27) 
11.01129036321541

>  <m_score__min__rmsd>  (27) 
11.01129036321541

>  <meeko>  (27) 
{"free_energy": -7.97, "intermolecular_energy": -10.06, "internal_energy": -2.14, "cluster_size": 9, "cluster_id": 3, "rank_in_cluster": 8}

>  <energy>  (27) 
-8.35

>  <cluster_rmsd>  (27) 
1.3

>  <cluster>  (27) 
3

$$$$

     RDKit          3D

 59 62  0  0  0  0  0  0  0  0999 V2000
  146.2760   73.2870  222.0220 C   0  0  0  0  0  0  0  0  0  0  0  0
  146.5300   73.6140  220.5750 C   0  0  0  0  0  0  0  0  0  0  0  0
  145.5410   72.5120  219.5960 S   0  0  0  0  0  0  0  0  0  0  0  0
  146.1420   71.1450  219.7120 O   0  0  0  0  0  0  0  0  0  0  0  0
  145.6080   72.9610  218.1790 O   0  0  0  0  0  0  0  0  0  0  0  0
  143.8710   72.4870  220.1180 C   0  0  0  0  0  0  0  0  0  0  0  0
  142.8930   73.2750  219.5500 C   0  0  0  0  0  0  0  0  0  0  0  0
  141.5950   73.2140  220.0020 C   0  0  0  0  0  0  0  0  0  0  0  0
  141.1940   72.3730  221.0360 C   0  0  0  0  0  0  0  0  0  0  0  0
  139.7930   72.3620  221.4640 C   0  0  0  0  0  0  0  0  0  0  0  0
  139.3840   72.2290  222.6880 C   0  0  0  0  0  0  0  0  0  0  0  0
  139.4880   71.1750  223.6480 C   0  0  0  0  0  0  0  0  0  0  0  0
  140.0390   71.5550  224.8470 N   0  0  0  0  0  0  0  0  0  0  0  0
  140.2940   70.7570  225.8630 C   0  0  0  0  0  0  0  0  0  0  0  0
  140.8510   71.2770  227.0070 C   0  0  0  0  0  0  0  0  0  0  0  0
  141.0880   70.3620  228.0340 C   0  0  0  0  0  0  0  0  0  0  0  0
  140.7960   69.0320  227.9330 C   0  0  0  0  0  0  0  0  0  0  0  0
  141.0240   68.1380  228.9250 F   0  0  0  0  0  0  0  0  0  0  0  0
  140.2350   68.5460  226.7640 C   0  0  0  0  0  0  0  0  0  0  0  0
  139.9930   69.4290  225.7410 C   0  0  0  0  0  0  0  0  0  0  0  0
  139.4390   69.0200  224.5540 C   0  0  0  0  0  0  0  0  0  0  0  0
  139.1780   67.7890  224.4670 O   0  0  0  0  0  0  0  0  0  0  0  0
  139.1810   69.8820  223.5090 N   0  0  0  0  0  0  0  0  0  0  0  0
  138.5960   69.2920  222.3580 C   0  0  0  0  0  0  0  0  0  0  0  0
  137.1590   68.9320  222.3680 C   0  0  0  0  0  0  0  0  0  0  0  0
  136.3940   69.4620  223.5870 C   0  0  0  0  0  0  0  0  0  0  0  0
  134.9470   68.9720  223.4140 C   0  0  0  0  0  0  0  0  0  0  0  0
  134.8660   67.7410  222.5470 C   0  0  0  0  0  0  0  0  0  0  0  0
  135.2690   68.0530  221.1220 C   0  0  0  0  0  0  0  0  0  0  0  0
  136.2970   69.2050  221.2080 C   0  0  0  0  0  0  0  0  0  0  0  0
  142.1730   71.5920  221.5980 C   0  0  0  0  0  0  0  0  0  0  0  0
  143.4970   71.6480  221.1450 C   0  0  0  0  0  0  0  0  0  0  0  0
  146.8258   73.9948  222.6598 H   0  0  0  0  0  0  0  0  0  0  0  0
  145.1990   73.3646  222.2319 H   0  0  0  0  0  0  0  0  0  0  0  0
  146.6176   72.2627  222.2319 H   0  0  0  0  0  0  0  0  0  0  0  0
  146.2449   74.6565  220.3701 H   0  0  0  0  0  0  0  0  0  0  0  0
  147.5964   73.4953  220.3329 H   0  0  0  0  0  0  0  0  0  0  0  0
  143.1526   73.9586  218.7282 H   0  0  0  0  0  0  0  0  0  0  0  0
  140.8412   73.8580  219.5254 H   0  0  0  0  0  0  0  0  0  0  0  0
  139.0255   72.4757  220.6843 H   0  0  0  0  0  0  0  0  0  0  0  0
  138.8452   73.1106  223.0655 H   0  0  0  0  0  0  0  0  0  0  0  0
  141.0942   72.3451  227.1067 H   0  0  0  0  0  0  0  0  0  0  0  0
  141.5318   70.7304  228.9707 H   0  0  0  0  0  0  0  0  0  0  0  0
  139.9894   67.4791  226.6577 H   0  0  0  0  0  0  0  0  0  0  0  0
  138.7420   69.9989  221.5279 H   0  0  0  0  0  0  0  0  0  0  0  0
  139.1034   68.3189  222.2828 H   0  0  0  0  0  0  0  0  0  0  0  0
  137.3205   67.8439  222.3689 H   0  0  0  0  0  0  0  0  0  0  0  0
  136.8265   69.0610  224.5155 H   0  0  0  0  0  0  0  0  0  0  0  0
  136.4464   70.5587  223.6544 H   0  0  0  0  0  0  0  0  0  0  0  0
  134.5313   68.7363  224.4048 H   0  0  0  0  0  0  0  0  0  0  0  0
  134.3746   69.7719  222.9216 H   0  0  0  0  0  0  0  0  0  0  0  0
  135.5402   66.9715  222.9511 H   0  0  0  0  0  0  0  0  0  0  0  0
  133.8265   67.3811  222.5461 H   0  0  0  0  0  0  0  0  0  0  0  0
  135.7250   67.1690  220.6522 H   0  0  0  0  0  0  0  0  0  0  0  0
  134.3988   68.3364  220.5118 H   0  0  0  0  0  0  0  0  0  0  0  0
  136.9011   69.2406  220.2894 H   0  0  0  0  0  0  0  0  0  0  0  0
  135.7892   70.1745  221.3181 H   0  0  0  0  0  0  0  0  0  0  0  0
  141.9126   70.9090  222.4200 H   0  0  0  0  0  0  0  0  0  0  0  0
  144.2553   71.0079  221.6197 H   0  0  0  0  0  0  0  0  0  0  0  0
  1  2  1  0
  2  3  1  0
  3  4  2  0
  3  5  2  0
  3  6  1  0
  6  7  2  0
  7  8  1  0
  8  9  2  0
  9 10  1  0
 10 11  2  0
 11 12  1  0
 12 13  2  0
 13 14  1  0
 14 15  2  0
 15 16  1  0
 16 17  2  0
 17 18  1  0
 17 19  1  0
 19 20  2  0
 20 21  1  0
 21 22  2  0
 21 23  1  0
 23 24  1  0
 24 25  1  0
 25 26  1  0
 26 27  1  0
 27 28  1  0
 28 29  1  0
 29 30  1  0
  9 31  1  0
 31 32  2  0
 32  6  1  0
 23 12  1  0
 30 25  1  0
 20 14  1  0
  1 33  1  0
  1 34  1  0
  1 35  1  0
  2 36  1  0
  2 37  1  0
  7 38  1  0
  8 39  1  0
 10 40  1  0
 11 41  1  0
 15 42  1  0
 16 43  1  0
 19 44  1  0
 24 45  1  0
 24 46  1  0
 25 47  1  0
 26 48  1  0
 26 49  1  0
 27 50  1  0
 27 51  1  0
 28 52  1  0
 28 53  1  0
 29 54  1  0
 29 55  1  0
 30 56  1  0
 30 57  1  0
 31 58  1  0
 32 59  1  0
M  END
>  <smiles>  (28) 
CCS(=O)(=O)c1ccc(/C=C/c2nc3ccc(F)cc3c(=O)n2CC2CCCCC2)cc1

>  <score_type>  (28) 
oracle

>  <origin>  (28) 
autodockgpu

>  <m_score__min__energy>  (28) 
-9.5

>  <m_primary>  (28) 
energy

>  <rmsd>  (28) 
11.42752533936718

>  <m_score__min__rmsd>  (28) 
11.42752533936718

>  <meeko>  (28) 
{"free_energy": -7.87, "intermolecular_energy": -9.95, "internal_energy": -1.61, "cluster_size": 9, "cluster_id": 3, "rank_in_cluster": 9}

>  <energy>  (28) 
-8.32

>  <cluster_rmsd>  (28) 
0.59

>  <cluster>  (28) 
3

$$$$

     RDKit          3D

 59 62  0  0  0  0  0  0  0  0999 V2000
  140.3450   71.8660  228.0110 C   0  0  0  0  0  0  0  0  0  0  0  0
  141.0940   70.5870  227.7460 C   0  0  0  0  0  0  0  0  0  0  0  0
  140.1380   69.6370  226.5910 S   0  0  0  0  0  0  0  0  0  0  0  0
  138.8190   69.3410  227.2370 O   0  0  0  0  0  0  0  0  0  0  0  0
  140.8570   68.3600  226.3310 O   0  0  0  0  0  0  0  0  0  0  0  0
  139.8970   70.4850  225.0810 C   0  0  0  0  0  0  0  0  0  0  0  0
  138.8860   70.1760  224.1960 C   0  0  0  0  0  0  0  0  0  0  0  0
  138.7450   70.8770  223.0200 C   0  0  0  0  0  0  0  0  0  0  0  0
  139.5920   71.9190  222.6570 C   0  0  0  0  0  0  0  0  0  0  0  0
  139.3800   72.6210  221.3880 C   0  0  0  0  0  0  0  0  0  0  0  0
  139.1640   73.8930  221.2630 C   0  0  0  0  0  0  0  0  0  0  0  0
  140.0210   75.0370  221.2350 C   0  0  0  0  0  0  0  0  0  0  0  0
  139.6390   76.0510  222.0800 N   0  0  0  0  0  0  0  0  0  0  0  0
  140.2280   77.2230  222.1890 C   0  0  0  0  0  0  0  0  0  0  0  0
  139.7340   78.1470  223.0800 C   0  0  0  0  0  0  0  0  0  0  0  0
  140.4180   79.3620  223.1310 C   0  0  0  0  0  0  0  0  0  0  0  0
  141.5080   79.6410  222.3580 C   0  0  0  0  0  0  0  0  0  0  0  0
  142.1770   80.8180  222.4030 F   0  0  0  0  0  0  0  0  0  0  0  0
  141.9760   78.6850  221.4730 C   0  0  0  0  0  0  0  0  0  0  0  0
  141.3190   77.4810  221.4060 C   0  0  0  0  0  0  0  0  0  0  0  0
  141.7250   76.4860  220.5530 C   0  0  0  0  0  0  0  0  0  0  0  0
  142.7290   76.7540  219.8380 O   0  0  0  0  0  0  0  0  0  0  0  0
  141.0880   75.2660  220.4640 N   0  0  0  0  0  0  0  0  0  0  0  0
  141.6480   74.3480  219.5370 C   0  0  0  0  0  0  0  0  0  0  0  0
  142.8050   73.5150  219.9370 C   0  0  0  0  0  0  0  0  0  0  0  0
  143.9970   74.3210  220.4690 C   0  0  0  0  0  0  0  0  0  0  0  0
  145.0810   73.2840  220.8090 C   0  0  0  0  0  0  0  0  0  0  0  0
  144.9110   72.0100  220.0200 C   0  0  0  0  0  0  0  0  0  0  0  0
  143.6430   71.2880  220.4220 C   0  0  0  0  0  0  0  0  0  0  0  0
  142.6450   72.3840  220.8630 C   0  0  0  0  0  0  0  0  0  0  0  0
  140.5980   72.2220  223.5400 C   0  0  0  0  0  0  0  0  0  0  0  0
  140.7490   71.5130  224.7400 C   0  0  0  0  0  0  0  0  0  0  0  0
  140.2548   72.0200  229.0964 H   0  0  0  0  0  0  0  0  0  0  0  0
  140.8915   72.7101  227.5651 H   0  0  0  0  0  0  0  0  0  0  0  0
  139.3415   71.8024  227.5651 H   0  0  0  0  0  0  0  0  0  0  0  0
  142.0825   70.8124  227.3193 H   0  0  0  0  0  0  0  0  0  0  0  0
  141.2427   70.0250  228.6798 H   0  0  0  0  0  0  0  0  0  0  0  0
  138.1854   69.3615  224.4320 H   0  0  0  0  0  0  0  0  0  0  0  0
  137.9273   70.6014  222.3378 H   0  0  0  0  0  0  0  0  0  0  0  0
  139.4063   72.0198  220.4672 H   0  0  0  0  0  0  0  0  0  0  0  0
  138.0986   74.1449  221.1561 H   0  0  0  0  0  0  0  0  0  0  0  0
  138.8569   77.9415  223.7112 H   0  0  0  0  0  0  0  0  0  0  0  0
  140.0611   80.1336  223.8290 H   0  0  0  0  0  0  0  0  0  0  0  0
  142.8525   78.8848  220.8391 H   0  0  0  0  0  0  0  0  0  0  0  0
  140.8429   73.6571  219.2463 H   0  0  0  0  0  0  0  0  0  0  0  0
  142.0598   74.9975  218.7505 H   0  0  0  0  0  0  0  0  0  0  0  0
  142.9640   73.0673  218.9449 H   0  0  0  0  0  0  0  0  0  0  0  0
  144.3614   75.0192  219.7011 H   0  0  0  0  0  0  0  0  0  0  0  0
  143.7209   74.9231  221.3472 H   0  0  0  0  0  0  0  0  0  0  0  0
  146.0676   73.7138  220.5813 H   0  0  0  0  0  0  0  0  0  0  0  0
  144.9917   73.0368  221.8771 H   0  0  0  0  0  0  0  0  0  0  0  0
  144.8616   72.2543  218.9486 H   0  0  0  0  0  0  0  0  0  0  0  0
  145.7688   71.3530  220.2263 H   0  0  0  0  0  0  0  0  0  0  0  0
  143.2380   70.7243  219.5686 H   0  0  0  0  0  0  0  0  0  0  0  0
  143.8310   70.5673  221.2315 H   0  0  0  0  0  0  0  0  0  0  0  0
  141.6159   71.9988  220.8134 H   0  0  0  0  0  0  0  0  0  0  0  0
  142.8409   72.6967  221.8993 H   0  0  0  0  0  0  0  0  0  0  0  0
  141.2986   73.0359  223.3018 H   0  0  0  0  0  0  0  0  0  0  0  0
  141.5661   71.7835  225.4249 H   0  0  0  0  0  0  0  0  0  0  0  0
  1  2  1  0
  2  3  1  0
  3  4  2  0
  3  5  2  0
  3  6  1  0
  6  7  2  0
  7  8  1  0
  8  9  2  0
  9 10  1  0
 10 11  2  0
 11 12  1  0
 12 13  2  0
 13 14  1  0
 14 15  2  0
 15 16  1  0
 16 17  2  0
 17 18  1  0
 17 19  1  0
 19 20  2  0
 20 21  1  0
 21 22  2  0
 21 23  1  0
 23 24  1  0
 24 25  1  0
 25 26  1  0
 26 27  1  0
 27 28  1  0
 28 29  1  0
 29 30  1  0
  9 31  1  0
 31 32  2  0
 32  6  1  0
 23 12  1  0
 30 25  1  0
 20 14  1  0
  1 33  1  0
  1 34  1  0
  1 35  1  0
  2 36  1  0
  2 37  1  0
  7 38  1  0
  8 39  1  0
 10 40  1  0
 11 41  1  0
 15 42  1  0
 16 43  1  0
 19 44  1  0
 24 45  1  0
 24 46  1  0
 25 47  1  0
 26 48  1  0
 26 49  1  0
 27 50  1  0
 27 51  1  0
 28 52  1  0
 28 53  1  0
 29 54  1  0
 29 55  1  0
 30 56  1  0
 30 57  1  0
 31 58  1  0
 32 59  1  0
M  END
>  <smiles>  (29) 
CCS(=O)(=O)c1ccc(/C=C/c2nc3ccc(F)cc3c(=O)n2CC2CCCCC2)cc1

>  <score_type>  (29) 
oracle

>  <origin>  (29) 
autodockgpu

>  <m_score__min__energy>  (29) 
-9.5

>  <m_primary>  (29) 
energy

>  <rmsd>  (29) 
4.886863604743504

>  <m_score__min__rmsd>  (29) 
4.886863604743504

>  <meeko>  (29) 
{"free_energy": -8.12, "intermolecular_energy": -10.21, "internal_energy": -1.76, "cluster_size": 17, "cluster_id": 2, "rank_in_cluster": 14}

>  <energy>  (29) 
-8.08

>  <cluster_rmsd>  (29) 
1.17

>  <cluster>  (29) 
3

$$$$

     RDKit          3D

 59 62  0  0  0  0  0  0  0  0999 V2000
  141.0780   67.7770  226.9930 C   0  0  0  0  0  0  0  0  0  0  0  0
  140.7480   68.3830  228.3310 C   0  0  0  0  0  0  0  0  0  0  0  0
  140.3860   70.1000  228.0660 S   0  0  0  0  0  0  0  0  0  0  0  0
  141.4900   70.8940  228.6950 O   0  0  0  0  0  0  0  0  0  0  0  0
  139.1010   70.4150  228.7470 O   0  0  0  0  0  0  0  0  0  0  0  0
  140.2520   70.4890  226.3660 C   0  0  0  0  0  0  0  0  0  0  0  0
  141.0860   71.3850  225.7300 C   0  0  0  0  0  0  0  0  0  0  0  0
  140.9330   71.6530  224.3890 C   0  0  0  0  0  0  0  0  0  0  0  0
  139.9510   71.0530  223.6060 C   0  0  0  0  0  0  0  0  0  0  0  0
  139.8490   71.3890  222.1830 C   0  0  0  0  0  0  0  0  0  0  0  0
  139.5100   72.5470  221.7090 C   0  0  0  0  0  0  0  0  0  0  0  0
  140.2460   73.7270  221.3810 C   0  0  0  0  0  0  0  0  0  0  0  0
  139.8760   74.8420  222.0940 N   0  0  0  0  0  0  0  0  0  0  0  0
  140.3620   76.0550  221.9320 C   0  0  0  0  0  0  0  0  0  0  0  0
  139.8960   77.0800  222.7200 C   0  0  0  0  0  0  0  0  0  0  0  0
  140.4640   78.3320  222.4810 C   0  0  0  0  0  0  0  0  0  0  0  0
  141.4210   78.5510  221.5320 C   0  0  0  0  0  0  0  0  0  0  0  0
  141.9760   79.7630  221.2950 F   0  0  0  0  0  0  0  0  0  0  0  0
  141.8650   77.4920  220.7590 C   0  0  0  0  0  0  0  0  0  0  0  0
  141.3200   76.2510  220.9760 C   0  0  0  0  0  0  0  0  0  0  0  0
  141.7110   75.1560  220.2490 C   0  0  0  0  0  0  0  0  0  0  0  0
  142.5920   75.3680  219.3710 O   0  0  0  0  0  0  0  0  0  0  0  0
  141.1850   73.8960  220.4450 N   0  0  0  0  0  0  0  0  0  0  0  0
  141.7130   72.8750  219.6120 C   0  0  0  0  0  0  0  0  0  0  0  0
  143.1120   72.4270  219.7950 C   0  0  0  0  0  0  0  0  0  0  0  0
  143.8960   73.2440  220.8310 C   0  0  0  0  0  0  0  0  0  0  0  0
  145.3070   72.6360  220.8580 C   0  0  0  0  0  0  0  0  0  0  0  0
  145.6430   71.9300  219.5680 C   0  0  0  0  0  0  0  0  0  0  0  0
  144.7740   70.7060  219.3750 C   0  0  0  0  0  0  0  0  0  0  0  0
  143.4310   71.0190  220.0760 C   0  0  0  0  0  0  0  0  0  0  0  0
  139.1230   70.1640  224.2440 C   0  0  0  0  0  0  0  0  0  0  0  0
  139.2710   69.8850  225.6100 C   0  0  0  0  0  0  0  0  0  0  0  0
  141.5992   66.8199  227.1425 H   0  0  0  0  0  0  0  0  0  0  0  0
  140.1492   67.6046  226.4294 H   0  0  0  0  0  0  0  0  0  0  0  0
  141.7267   68.4637  226.4294 H   0  0  0  0  0  0  0  0  0  0  0  0
  139.8732   67.8778  228.7663 H   0  0  0  0  0  0  0  0  0  0  0  0
  141.5926   68.2685  229.0264 H   0  0  0  0  0  0  0  0  0  0  0  0
  141.8802   71.8896  226.2997 H   0  0  0  0  0  0  0  0  0  0  0  0
  141.6166   72.3728  223.9151 H   0  0  0  0  0  0  0  0  0  0  0  0
  140.0788   70.5940  221.4583 H   0  0  0  0  0  0  0  0  0  0  0  0
  138.4304   72.6408  221.5198 H   0  0  0  0  0  0  0  0  0  0  0  0
  139.1253   76.9236  223.4892 H   0  0  0  0  0  0  0  0  0  0  0  0
  140.1240   79.1847  223.0871 H   0  0  0  0  0  0  0  0  0  0  0  0
  142.6363   77.6414  219.9891 H   0  0  0  0  0  0  0  0  0  0  0  0
  141.0745   71.9899  219.7492 H   0  0  0  0  0  0  0  0  0  0  0  0
  141.7218   73.3385  218.6145 H   0  0  0  0  0  0  0  0  0  0  0  0
  143.4172   72.5988  218.7523 H   0  0  0  0  0  0  0  0  0  0  0  0
  143.9397   74.3017  220.5321 H   0  0  0  0  0  0  0  0  0  0  0  0
  143.4193   73.2082  221.8217 H   0  0  0  0  0  0  0  0  0  0  0  0
  146.0377   73.4416  221.0227 H   0  0  0  0  0  0  0  0  0  0  0  0
  145.3421   71.8948  221.6700 H   0  0  0  0  0  0  0  0  0  0  0  0
  145.4820   72.6212  218.7276 H   0  0  0  0  0  0  0  0  0  0  0  0
  146.6945   71.6094  219.6085 H   0  0  0  0  0  0  0  0  0  0  0  0
  144.6108   70.5187  218.3034 H   0  0  0  0  0  0  0  0  0  0  0  0
  145.2472   69.8066  219.7959 H   0  0  0  0  0  0  0  0  0  0  0  0
  142.6384   70.3667  219.6806 H   0  0  0  0  0  0  0  0  0  0  0  0
  143.5058   70.8441  221.1594 H   0  0  0  0  0  0  0  0  0  0  0  0
  138.3285   69.6610  223.6732 H   0  0  0  0  0  0  0  0  0  0  0  0
  138.5885   69.1676  226.0891 H   0  0  0  0  0  0  0  0  0  0  0  0
  1  2  1  0
  2  3  1  0
  3  4  2  0
  3  5  2  0
  3  6  1  0
  6  7  2  0
  7  8  1  0
  8  9  2  0
  9 10  1  0
 10 11  2  0
 11 12  1  0
 12 13  2  0
 13 14  1  0
 14 15  2  0
 15 16  1  0
 16 17  2  0
 17 18  1  0
 17 19  1  0
 19 20  2  0
 20 21  1  0
 21 22  2  0
 21 23  1  0
 23 24  1  0
 24 25  1  0
 25 26  1  0
 26 27  1  0
 27 28  1  0
 28 29  1  0
 29 30  1  0
  9 31  1  0
 31 32  2  0
 32  6  1  0
 23 12  1  0
 30 25  1  0
 20 14  1  0
  1 33  1  0
  1 34  1  0
  1 35  1  0
  2 36  1  0
  2 37  1  0
  7 38  1  0
  8 39  1  0
 10 40  1  0
 11 41  1  0
 15 42  1  0
 16 43  1  0
 19 44  1  0
 24 45  1  0
 24 46  1  0
 25 47  1  0
 26 48  1  0
 26 49  1  0
 27 50  1  0
 27 51  1  0
 28 52  1  0
 28 53  1  0
 29 54  1  0
 29 55  1  0
 30 56  1  0
 30 57  1  0
 31 58  1  0
 32 59  1  0
M  END
>  <smiles>  (30) 
CCS(=O)(=O)c1ccc(/C=C/c2nc3ccc(F)cc3c(=O)n2CC2CCCCC2)cc1

>  <score_type>  (30) 
oracle

>  <origin>  (30) 
autodockgpu

>  <m_score__min__energy>  (30) 
-9.5

>  <m_primary>  (30) 
energy

>  <rmsd>  (30) 
5.652583315719

>  <m_score__min__rmsd>  (30) 
5.652583315719

>  <meeko>  (30) 
{"free_energy": -8.65, "intermolecular_energy": -10.74, "internal_energy": -1.45, "cluster_size": 17, "cluster_id": 2, "rank_in_cluster": 9}

>  <energy>  (30) 
-8.0

>  <cluster_rmsd>  (30) 
1.93

>  <cluster>  (30) 
3

$$$$

     RDKit          3D

 59 62  0  0  0  0  0  0  0  0999 V2000
  140.3210   70.6180  228.0330 C   0  0  0  0  0  0  0  0  0  0  0  0
  139.7570   69.2230  227.9820 C   0  0  0  0  0  0  0  0  0  0  0  0
  140.1180   68.5580  226.3770 S   0  0  0  0  0  0  0  0  0  0  0  0
  139.1960   67.3990  226.1540 O   0  0  0  0  0  0  0  0  0  0  0  0
  141.5250   68.0760  226.3780 O   0  0  0  0  0  0  0  0  0  0  0  0
  139.9130   69.7480  225.1110 C   0  0  0  0  0  0  0  0  0  0  0  0
  140.7790   70.8050  224.9230 C   0  0  0  0  0  0  0  0  0  0  0  0
  140.5680   71.7120  223.9100 C   0  0  0  0  0  0  0  0  0  0  0  0
  139.4940   71.6240  223.0300 C   0  0  0  0  0  0  0  0  0  0  0  0
  139.3330   72.6270  221.9740 C   0  0  0  0  0  0  0  0  0  0  0  0
  138.3910   73.5160  221.9220 C   0  0  0  0  0  0  0  0  0  0  0  0
  138.3540   74.9240  222.1680 C   0  0  0  0  0  0  0  0  0  0  0  0
  139.5900   75.5190  222.2340 N   0  0  0  0  0  0  0  0  0  0  0  0
  139.8200   76.7860  222.5080 C   0  0  0  0  0  0  0  0  0  0  0  0
  141.1150   77.2460  222.5420 C   0  0  0  0  0  0  0  0  0  0  0  0
  141.2670   78.6010  222.8410 C   0  0  0  0  0  0  0  0  0  0  0  0
  140.2160   79.4350  223.0890 C   0  0  0  0  0  0  0  0  0  0  0  0
  140.3560   80.7500  223.3800 F   0  0  0  0  0  0  0  0  0  0  0  0
  138.9260   78.9340  223.0450 C   0  0  0  0  0  0  0  0  0  0  0  0
  138.7520   77.6040  222.7530 C   0  0  0  0  0  0  0  0  0  0  0  0
  137.5040   77.0380  222.6920 C   0  0  0  0  0  0  0  0  0  0  0  0
  136.5380   77.8150  222.9280 O   0  0  0  0  0  0  0  0  0  0  0  0
  137.2960   75.7070  222.3990 N   0  0  0  0  0  0  0  0  0  0  0  0
  135.9390   75.2910  222.3660 C   0  0  0  0  0  0  0  0  0  0  0  0
  135.3100   74.7410  223.5890 C   0  0  0  0  0  0  0  0  0  0  0  0
  135.4530   73.2200  223.7320 C   0  0  0  0  0  0  0  0  0  0  0  0
  134.7300   72.8560  225.0390 C   0  0  0  0  0  0  0  0  0  0  0  0
  133.6840   73.8760  225.4090 C   0  0  0  0  0  0  0  0  0  0  0  0
  134.3200   75.2050  225.7580 C   0  0  0  0  0  0  0  0  0  0  0  0
  135.6150   75.2940  224.9170 C   0  0  0  0  0  0  0  0  0  0  0  0
  138.6350   70.5710  223.2220 C   0  0  0  0  0  0  0  0  0  0  0  0
  138.8420   69.6420  224.2510 C   0  0  0  0  0  0  0  0  0  0  0  0
  140.4452   70.9252  229.0819 H   0  0  0  0  0  0  0  0  0  0  0  0
  141.2976   70.6374  227.5272 H   0  0  0  0  0  0  0  0  0  0  0  0
  139.6323   71.3107  227.5272 H   0  0  0  0  0  0  0  0  0  0  0  0
  140.2239   68.6008  228.7597 H   0  0  0  0  0  0  0  0  0  0  0  0
  138.6715   69.2380  228.1592 H   0  0  0  0  0  0  0  0  0  0  0  0
  141.6463   70.9240  225.5890 H   0  0  0  0  0  0  0  0  0  0  0  0
  141.2792   72.5426  223.7908 H   0  0  0  0  0  0  0  0  0  0  0  0
  140.0717   72.6254  221.1589 H   0  0  0  0  0  0  0  0  0  0  0  0
  137.4163   73.1002  221.6269 H   0  0  0  0  0  0  0  0  0  0  0  0
  141.9754   76.5891  222.3464 H   0  0  0  0  0  0  0  0  0  0  0  0
  142.2846   79.0170  222.8785 H   0  0  0  0  0  0  0  0  0  0  0  0
  138.0615   79.5859  223.2393 H   0  0  0  0  0  0  0  0  0  0  0  0
  135.3441   76.1668  222.0676 H   0  0  0  0  0  0  0  0  0  0  0  0
  135.9505   74.4341  221.6764 H   0  0  0  0  0  0  0  0  0  0  0  0
  134.2923   75.0832  223.3497 H   0  0  0  0  0  0  0  0  0  0  0  0
  134.9837   72.7086  222.8787 H   0  0  0  0  0  0  0  0  0  0  0  0
  136.5086   72.9113  223.7520 H   0  0  0  0  0  0  0  0  0  0  0  0
  134.2433   71.8773  224.9149 H   0  0  0  0  0  0  0  0  0  0  0  0
  135.4782   72.8292  225.8449 H   0  0  0  0  0  0  0  0  0  0  0  0
  133.0018   74.0165  224.5576 H   0  0  0  0  0  0  0  0  0  0  0  0
  133.1336   73.5098  226.2882 H   0  0  0  0  0  0  0  0  0  0  0  0
  133.6412   76.0320  225.5025 H   0  0  0  0  0  0  0  0  0  0  0  0
  134.5338   75.2781  226.8345 H   0  0  0  0  0  0  0  0  0  0  0  0
  135.9329   76.3430  224.8245 H   0  0  0  0  0  0  0  0  0  0  0  0
  136.4308   74.7326  225.3958 H   0  0  0  0  0  0  0  0  0  0  0  0
  137.7676   70.4538  222.5557 H   0  0  0  0  0  0  0  0  0  0  0  0
  138.1335   68.8097  224.3746 H   0  0  0  0  0  0  0  0  0  0  0  0
  1  2  1  0
  2  3  1  0
  3  4  2  0
  3  5  2  0
  3  6  1  0
  6  7  2  0
  7  8  1  0
  8  9  2  0
  9 10  1  0
 10 11  2  0
 11 12  1  0
 12 13  2  0
 13 14  1  0
 14 15  2  0
 15 16  1  0
 16 17  2  0
 17 18  1  0
 17 19  1  0
 19 20  2  0
 20 21  1  0
 21 22  2  0
 21 23  1  0
 23 24  1  0
 24 25  1  0
 25 26  1  0
 26 27  1  0
 27 28  1  0
 28 29  1  0
 29 30  1  0
  9 31  1  0
 31 32  2  0
 32  6  1  0
 23 12  1  0
 30 25  1  0
 20 14  1  0
  1 33  1  0
  1 34  1  0
  1 35  1  0
  2 36  1  0
  2 37  1  0
  7 38  1  0
  8 39  1  0
 10 40  1  0
 11 41  1  0
 15 42  1  0
 16 43  1  0
 19 44  1  0
 24 45  1  0
 24 46  1  0
 25 47  1  0
 26 48  1  0
 26 49  1  0
 27 50  1  0
 27 51  1  0
 28 52  1  0
 28 53  1  0
 29 54  1  0
 29 55  1  0
 30 56  1  0
 30 57  1  0
 31 58  1  0
 32 59  1  0
M  END
>  <smiles>  (31) 
CCS(=O)(=O)c1ccc(/C=C/c2nc3ccc(F)cc3c(=O)n2CC2CCCCC2)cc1

>  <score_type>  (31) 
oracle

>  <origin>  (31) 
autodockgpu

>  <m_score__min__energy>  (31) 
-9.5

>  <m_primary>  (31) 
energy

>  <rmsd>  (31) 
7.173940513211676

>  <m_score__min__rmsd>  (31) 
7.173940513211676

>  <meeko>  (31) 
{"free_energy": -8.61, "intermolecular_energy": -10.7, "internal_energy": -1.69, "cluster_size": 10, "cluster_id": 4, "rank_in_cluster": 2}

>  <energy>  (31) 
-7.97

>  <cluster_rmsd>  (31) 
1.19

>  <cluster>  (31) 
3

$$$$

     RDKit          3D

 59 62  0  0  0  0  0  0  0  0999 V2000
  139.5520   69.5750  227.7190 C   0  0  0  0  0  0  0  0  0  0  0  0
  140.0210   68.4080  226.8930 C   0  0  0  0  0  0  0  0  0  0  0  0
  139.1390   68.4550  225.3530 S   0  0  0  0  0  0  0  0  0  0  0  0
  137.6870   68.6390  225.6720 O   0  0  0  0  0  0  0  0  0  0  0  0
  139.3310   67.1480  224.6660 O   0  0  0  0  0  0  0  0  0  0  0  0
  139.7000   69.7440  224.3120 C   0  0  0  0  0  0  0  0  0  0  0  0
  140.2720   70.9030  224.7910 C   0  0  0  0  0  0  0  0  0  0  0  0
  140.6950   71.8860  223.9250 C   0  0  0  0  0  0  0  0  0  0  0  0
  140.5760   71.7750  222.5420 C   0  0  0  0  0  0  0  0  0  0  0  0
  141.0490   72.8630  221.6820 C   0  0  0  0  0  0  0  0  0  0  0  0
  140.4620   74.0090  221.5320 C   0  0  0  0  0  0  0  0  0  0  0  0
  140.9390   75.3290  221.2630 C   0  0  0  0  0  0  0  0  0  0  0  0
  140.5870   76.2620  222.2080 N   0  0  0  0  0  0  0  0  0  0  0  0
  140.8550   77.5500  222.1540 C   0  0  0  0  0  0  0  0  0  0  0  0
  140.4390   78.3700  223.1750 C   0  0  0  0  0  0  0  0  0  0  0  0
  140.7640   79.7200  223.0380 C   0  0  0  0  0  0  0  0  0  0  0  0
  141.4490   80.2190  221.9680 C   0  0  0  0  0  0  0  0  0  0  0  0
  141.7670   81.5280  221.8270 F   0  0  0  0  0  0  0  0  0  0  0  0
  141.8520   79.3610  220.9590 C   0  0  0  0  0  0  0  0  0  0  0  0
  141.5430   78.0280  221.0730 C   0  0  0  0  0  0  0  0  0  0  0  0
  141.9100   77.1190  220.1130 C   0  0  0  0  0  0  0  0  0  0  0  0
  142.5370   77.5900  219.1250 O   0  0  0  0  0  0  0  0  0  0  0  0
  141.6170   75.7750  220.2000 N   0  0  0  0  0  0  0  0  0  0  0  0
  142.0810   74.9750  219.1230 C   0  0  0  0  0  0  0  0  0  0  0  0
  143.2820   74.1270  219.3030 C   0  0  0  0  0  0  0  0  0  0  0  0
  144.1680   74.5460  220.4830 C   0  0  0  0  0  0  0  0  0  0  0  0
  145.3500   73.5620  220.4850 C   0  0  0  0  0  0  0  0  0  0  0  0
  145.5880   72.9630  219.1220 C   0  0  0  0  0  0  0  0  0  0  0  0
  144.4350   72.0730  218.7100 C   0  0  0  0  0  0  0  0  0  0  0  0
  143.1750   72.6630  219.3860 C   0  0  0  0  0  0  0  0  0  0  0  0
  140.0050   70.6200  222.0710 C   0  0  0  0  0  0  0  0  0  0  0  0
  139.5710   69.6140  222.9460 C   0  0  0  0  0  0  0  0  0  0  0  0
  139.6500   69.3311  228.7871 H   0  0  0  0  0  0  0  0  0  0  0  0
  140.1649   70.4584  227.4868 H   0  0  0  0  0  0  0  0  0  0  0  0
  138.4982   69.7886  227.4868 H   0  0  0  0  0  0  0  0  0  0  0  0
  141.1025   68.4887  226.7090 H   0  0  0  0  0  0  0  0  0  0  0  0
  139.8319   67.4605  227.4188 H   0  0  0  0  0  0  0  0  0  0  0  0
  140.3916   71.0438  225.8754 H   0  0  0  0  0  0  0  0  0  0  0  0
  141.1462   72.7979  224.3433 H   0  0  0  0  0  0  0  0  0  0  0  0
  141.9779   72.6935  221.1177 H   0  0  0  0  0  0  0  0  0  0  0  0
  139.3680   73.9539  221.6328 H   0  0  0  0  0  0  0  0  0  0  0  0
  139.8852   77.9867  224.0447 H   0  0  0  0  0  0  0  0  0  0  0  0
  140.4530   80.4161  223.8309 H   0  0  0  0  0  0  0  0  0  0  0  0
  142.4064   79.7381  220.0870 H   0  0  0  0  0  0  0  0  0  0  0  0
  141.2551   74.3035  218.8455 H   0  0  0  0  0  0  0  0  0  0  0  0
  142.3995   75.7144  218.3734 H   0  0  0  0  0  0  0  0  0  0  0  0
  143.7123   74.3380  218.3129 H   0  0  0  0  0  0  0  0  0  0  0  0
  144.5271   75.5767  220.3461 H   0  0  0  0  0  0  0  0  0  0  0  0
  143.6164   74.5204  221.4344 H   0  0  0  0  0  0  0  0  0  0  0  0
  146.2574   74.0974  220.8011 H   0  0  0  0  0  0  0  0  0  0  0  0
  145.1095   72.7431  221.1789 H   0  0  0  0  0  0  0  0  0  0  0  0
  145.6964   73.7741  218.3869 H   0  0  0  0  0  0  0  0  0  0  0  0
  146.5030   72.3537  219.1626 H   0  0  0  0  0  0  0  0  0  0  0  0
  144.3198   72.0794  217.6161 H   0  0  0  0  0  0  0  0  0  0  0  0
  144.6036   71.0297  219.0152 H   0  0  0  0  0  0  0  0  0  0  0  0
  142.2707   72.3209  218.8614 H   0  0  0  0  0  0  0  0  0  0  0  0
  143.1045   72.3355  220.4338 H   0  0  0  0  0  0  0  0  0  0  0  0
  139.8854   70.4805  220.9865 H   0  0  0  0  0  0  0  0  0  0  0  0
  139.1175   68.7008  222.5331 H   0  0  0  0  0  0  0  0  0  0  0  0
  1  2  1  0
  2  3  1  0
  3  4  2  0
  3  5  2  0
  3  6  1  0
  6  7  2  0
  7  8  1  0
  8  9  2  0
  9 10  1  0
 10 11  2  0
 11 12  1  0
 12 13  2  0
 13 14  1  0
 14 15  2  0
 15 16  1  0
 16 17  2  0
 17 18  1  0
 17 19  1  0
 19 20  2  0
 20 21  1  0
 21 22  2  0
 21 23  1  0
 23 24  1  0
 24 25  1  0
 25 26  1  0
 26 27  1  0
 27 28  1  0
 28 29  1  0
 29 30  1  0
  9 31  1  0
 31 32  2  0
 32  6  1  0
 23 12  1  0
 30 25  1  0
 20 14  1  0
  1 33  1  0
  1 34  1  0
  1 35  1  0
  2 36  1  0
  2 37  1  0
  7 38  1  0
  8 39  1  0
 10 40  1  0
 11 41  1  0
 15 42  1  0
 16 43  1  0
 19 44  1  0
 24 45  1  0
 24 46  1  0
 25 47  1  0
 26 48  1  0
 26 49  1  0
 27 50  1  0
 27 51  1  0
 28 52  1  0
 28 53  1  0
 29 54  1  0
 29 55  1  0
 30 56  1  0
 30 57  1  0
 31 58  1  0
 32 59  1  0
M  END
>  <smiles>  (32) 
CCS(=O)(=O)c1ccc(/C=C/c2nc3ccc(F)cc3c(=O)n2CC2CCCCC2)cc1

>  <score_type>  (32) 
oracle

>  <origin>  (32) 
autodockgpu

>  <m_score__min__energy>  (32) 
-9.5

>  <m_primary>  (32) 
energy

>  <rmsd>  (32) 
4.86062762452806

>  <m_score__min__rmsd>  (32) 
4.86062762452806

>  <meeko>  (32) 
{"free_energy": -8.26, "intermolecular_energy": -10.35, "internal_energy": -1.53, "cluster_size": 17, "cluster_id": 2, "rank_in_cluster": 13}

>  <energy>  (32) 
-7.87

>  <cluster_rmsd>  (32) 
1.38

>  <cluster>  (32) 
3

$$$$

     RDKit          3D

 59 62  0  0  0  0  0  0  0  0999 V2000
  142.5600   79.8040  222.8280 C   0  0  0  0  0  0  0  0  0  0  0  0
  141.5590   78.9260  223.5300 C   0  0  0  0  0  0  0  0  0  0  0  0
  140.3220   78.4700  222.3420 S   0  0  0  0  0  0  0  0  0  0  0  0
  140.6800   79.1280  221.0450 O   0  0  0  0  0  0  0  0  0  0  0  0
  139.0100   78.9900  222.8130 O   0  0  0  0  0  0  0  0  0  0  0  0
  140.2170   76.7360  222.1340 C   0  0  0  0  0  0  0  0  0  0  0  0
  141.2780   75.9630  221.7140 C   0  0  0  0  0  0  0  0  0  0  0  0
  141.1380   74.6020  221.5660 C   0  0  0  0  0  0  0  0  0  0  0  0
  139.9440   73.9330  221.8260 C   0  0  0  0  0  0  0  0  0  0  0  0
  139.8700   72.4810  221.6470 C   0  0  0  0  0  0  0  0  0  0  0  0
  139.0840   71.6850  222.3020 C   0  0  0  0  0  0  0  0  0  0  0  0
  139.2740   70.8320  223.4340 C   0  0  0  0  0  0  0  0  0  0  0  0
  139.8600   71.4460  224.5130 N   0  0  0  0  0  0  0  0  0  0  0  0
  140.1920   70.8600  225.6450 C   0  0  0  0  0  0  0  0  0  0  0  0
  140.7760   71.6020  226.6440 C   0  0  0  0  0  0  0  0  0  0  0  0
  141.0950   70.9030  227.8090 C   0  0  0  0  0  0  0  0  0  0  0  0
  140.8540   69.5690  227.9700 C   0  0  0  0  0  0  0  0  0  0  0  0
  141.1620   68.8830  229.0970 F   0  0  0  0  0  0  0  0  0  0  0  0
  140.2640   68.8560  226.9400 C   0  0  0  0  0  0  0  0  0  0  0  0
  139.9410   69.5240  225.7850 C   0  0  0  0  0  0  0  0  0  0  0  0
  139.3540   68.8830  224.7240 C   0  0  0  0  0  0  0  0  0  0  0  0
  139.1410   67.6490  224.8790 O   0  0  0  0  0  0  0  0  0  0  0  0
  139.0150   69.5260  223.5520 N   0  0  0  0  0  0  0  0  0  0  0  0
  138.4050   68.7130  222.5610 C   0  0  0  0  0  0  0  0  0  0  0  0
  139.2150   68.1960  221.4340 C   0  0  0  0  0  0  0  0  0  0  0  0
  139.2430   66.6650  221.3400 C   0  0  0  0  0  0  0  0  0  0  0  0
  140.1370   66.3400  220.1320 C   0  0  0  0  0  0  0  0  0  0  0  0
  141.1090   67.4530  219.8310 C   0  0  0  0  0  0  0  0  0  0  0  0
  140.3830   68.6960  219.3640 C   0  0  0  0  0  0  0  0  0  0  0  0
  139.0020   68.6740  220.0600 C   0  0  0  0  0  0  0  0  0  0  0  0
  138.8910   74.7090  222.2420 C   0  0  0  0  0  0  0  0  0  0  0  0
  139.0250   76.0950  222.3950 C   0  0  0  0  0  0  0  0  0  0  0  0
  143.1675   80.3368  223.5744 H   0  0  0  0  0  0  0  0  0  0  0  0
  143.2143   79.1832  222.1983 H   0  0  0  0  0  0  0  0  0  0  0  0
  142.0298   80.5336  222.1983 H   0  0  0  0  0  0  0  0  0  0  0  0
  142.0569   78.0252  223.9182 H   0  0  0  0  0  0  0  0  0  0  0  0
  141.1037   79.4592  224.3776 H   0  0  0  0  0  0  0  0  0  0  0  0
  142.2456   76.4383  221.4951 H   0  0  0  0  0  0  0  0  0  0  0  0
  142.0062   74.0172  221.2279 H   0  0  0  0  0  0  0  0  0  0  0  0
  140.5351   72.0296  220.8961 H   0  0  0  0  0  0  0  0  0  0  0  0
  138.0585   71.6606  221.9048 H   0  0  0  0  0  0  0  0  0  0  0  0
  140.9788   72.6774  226.5323 H   0  0  0  0  0  0  0  0  0  0  0  0
  141.5635   71.4538  228.6380 H   0  0  0  0  0  0  0  0  0  0  0  0
  140.0591   67.7803  227.0447 H   0  0  0  0  0  0  0  0  0  0  0  0
  137.9859   67.8383  223.0799 H   0  0  0  0  0  0  0  0  0  0  0  0
  137.6938   69.3955  222.0727 H   0  0  0  0  0  0  0  0  0  0  0  0
  140.1608   68.6507  221.7638 H   0  0  0  0  0  0  0  0  0  0  0  0
  139.6662   66.2318  222.2583 H   0  0  0  0  0  0  0  0  0  0  0  0
  138.2326   66.2464  221.2223 H   0  0  0  0  0  0  0  0  0  0  0  0
  140.7039   65.4222  220.3468 H   0  0  0  0  0  0  0  0  0  0  0  0
  139.4870   66.2107  219.2541 H   0  0  0  0  0  0  0  0  0  0  0  0
  141.6780   67.6898  220.7421 H   0  0  0  0  0  0  0  0  0  0  0  0
  141.7852   67.1204  219.0297 H   0  0  0  0  0  0  0  0  0  0  0  0
  140.9428   69.5970  219.6552 H   0  0  0  0  0  0  0  0  0  0  0  0
  140.2805   68.7136  218.2689 H   0  0  0  0  0  0  0  0  0  0  0  0
  138.5717   69.6862  220.0756 H   0  0  0  0  0  0  0  0  0  0  0  0
  138.3039   68.0161  219.5216 H   0  0  0  0  0  0  0  0  0  0  0  0
  137.9233   74.2334  222.4594 H   0  0  0  0  0  0  0  0  0  0  0  0
  138.1595   76.6850  222.7310 H   0  0  0  0  0  0  0  0  0  0  0  0
  1  2  1  0
  2  3  1  0
  3  4  2  0
  3  5  2  0
  3  6  1  0
  6  7  2  0
  7  8  1  0
  8  9  2  0
  9 10  1  0
 10 11  2  0
 11 12  1  0
 12 13  2  0
 13 14  1  0
 14 15  2  0
 15 16  1  0
 16 17  2  0
 17 18  1  0
 17 19  1  0
 19 20  2  0
 20 21  1  0
 21 22  2  0
 21 23  1  0
 23 24  1  0
 24 25  1  0
 25 26  1  0
 26 27  1  0
 27 28  1  0
 28 29  1  0
 29 30  1  0
  9 31  1  0
 31 32  2  0
 32  6  1  0
 23 12  1  0
 30 25  1  0
 20 14  1  0
  1 33  1  0
  1 34  1  0
  1 35  1  0
  2 36  1  0
  2 37  1  0
  7 38  1  0
  8 39  1  0
 10 40  1  0
 11 41  1  0
 15 42  1  0
 16 43  1  0
 19 44  1  0
 24 45  1  0
 24 46  1  0
 25 47  1  0
 26 48  1  0
 26 49  1  0
 27 50  1  0
 27 51  1  0
 28 52  1  0
 28 53  1  0
 29 54  1  0
 29 55  1  0
 30 56  1  0
 30 57  1  0
 31 58  1  0
 32 59  1  0
M  END
>  <smiles>  (33) 
CCS(=O)(=O)c1ccc(/C=C/c2nc3ccc(F)cc3c(=O)n2CC2CCCCC2)cc1

>  <score_type>  (33) 
oracle

>  <origin>  (33) 
autodockgpu

>  <m_score__min__energy>  (33) 
-9.5

>  <m_primary>  (33) 
energy

>  <rmsd>  (33) 
11.194478312393853

>  <m_score__min__rmsd>  (33) 
11.194478312393853

>  <meeko>  (33) 
{"free_energy": -8.06, "intermolecular_energy": -10.15, "internal_energy": -1.47, "cluster_size": 5, "cluster_id": 5, "rank_in_cluster": 4}

>  <energy>  (33) 
-8.64

>  <cluster_rmsd>  (33) 
0.0

>  <cluster>  (33) 
4

$$$$

     RDKit          3D

 59 62  0  0  0  0  0  0  0  0999 V2000
  146.2170   73.3980  221.9290 C   0  0  0  0  0  0  0  0  0  0  0  0
  146.5870   73.7790  220.5210 C   0  0  0  0  0  0  0  0  0  0  0  0
  145.4900   72.9140  219.4260 S   0  0  0  0  0  0  0  0  0  0  0  0
  146.0970   71.5720  219.1510 O   0  0  0  0  0  0  0  0  0  0  0  0
  145.3980   73.6830  218.1560 O   0  0  0  0  0  0  0  0  0  0  0  0
  143.8910   72.7280  220.1090 C   0  0  0  0  0  0  0  0  0  0  0  0
  143.3490   71.5030  220.4350 C   0  0  0  0  0  0  0  0  0  0  0  0
  142.0830   71.4160  220.9690 C   0  0  0  0  0  0  0  0  0  0  0  0
  141.2880   72.5330  221.2100 C   0  0  0  0  0  0  0  0  0  0  0  0
  139.9500   72.3630  221.7820 C   0  0  0  0  0  0  0  0  0  0  0  0
  139.6820   72.2640  223.0470 C   0  0  0  0  0  0  0  0  0  0  0  0
  139.7140   71.1770  223.9750 C   0  0  0  0  0  0  0  0  0  0  0  0
  140.2840   71.4840  225.1860 N   0  0  0  0  0  0  0  0  0  0  0  0
  140.4820   70.6410  226.1780 C   0  0  0  0  0  0  0  0  0  0  0  0
  141.0670   71.0900  227.3390 C   0  0  0  0  0  0  0  0  0  0  0  0
  141.2410   70.1310  228.3380 C   0  0  0  0  0  0  0  0  0  0  0  0
  140.8640   68.8260  228.1960 C   0  0  0  0  0  0  0  0  0  0  0  0
  141.0300   67.8900  229.1600 F   0  0  0  0  0  0  0  0  0  0  0  0
  140.2780   68.4130  227.0120 C   0  0  0  0  0  0  0  0  0  0  0  0
  140.0970   69.3400  226.0150 C   0  0  0  0  0  0  0  0  0  0  0  0
  139.5230   69.0040  224.8150 C   0  0  0  0  0  0  0  0  0  0  0  0
  139.1840   67.7950  224.6900 O   0  0  0  0  0  0  0  0  0  0  0  0
  139.3260   69.9110  223.7960 N   0  0  0  0  0  0  0  0  0  0  0  0
  138.7080   69.3950  222.6260 C   0  0  0  0  0  0  0  0  0  0  0  0
  137.2460   69.1580  222.6120 C   0  0  0  0  0  0  0  0  0  0  0  0
  136.5100   69.7400  223.8250 C   0  0  0  0  0  0  0  0  0  0  0  0
  135.0290   69.3760  223.6260 C   0  0  0  0  0  0  0  0  0  0  0  0
  134.8590   68.1640  222.7450 C   0  0  0  0  0  0  0  0  0  0  0  0
  135.3070   68.4550  221.3290 C   0  0  0  0  0  0  0  0  0  0  0  0
  136.4280   69.5140  221.4420 C   0  0  0  0  0  0  0  0  0  0  0  0
  141.8320   73.7490  220.8830 C   0  0  0  0  0  0  0  0  0  0  0  0
  143.1200   73.8470  220.3380 C   0  0  0  0  0  0  0  0  0  0  0  0
  146.8029   74.0013  222.6381 H   0  0  0  0  0  0  0  0  0  0  0  0
  145.1445   73.5828  222.0891 H   0  0  0  0  0  0  0  0  0  0  0  0
  146.4331   72.3314  222.0891 H   0  0  0  0  0  0  0  0  0  0  0  0
  146.4746   74.8647  220.3842 H   0  0  0  0  0  0  0  0  0  0  0  0
  147.6332   73.5121  220.3105 H   0  0  0  0  0  0  0  0  0  0  0  0
  143.9336   70.5865  220.2669 H   0  0  0  0  0  0  0  0  0  0  0  0
  141.6827   70.4216  221.2157 H   0  0  0  0  0  0  0  0  0  0  0  0
  139.1035   72.3154  221.0812 H   0  0  0  0  0  0  0  0  0  0  0  0
  139.3638   73.2144  223.5004 H   0  0  0  0  0  0  0  0  0  0  0  0
  141.3776   72.1369  227.4716 H   0  0  0  0  0  0  0  0  0  0  0  0
  141.7044   70.4414  229.2861 H   0  0  0  0  0  0  0  0  0  0  0  0
  139.9649   67.3677  226.8730 H   0  0  0  0  0  0  0  0  0  0  0  0
  138.9242   70.1030  221.8124 H   0  0  0  0  0  0  0  0  0  0  0  0
  139.1322   68.3840  222.5369 H   0  0  0  0  0  0  0  0  0  0  0  0
  137.3146   68.0602  222.6047 H   0  0  0  0  0  0  0  0  0  0  0  0
  136.8927   69.2955  224.7556 H   0  0  0  0  0  0  0  0  0  0  0  0
  136.6540   70.8276  223.9043 H   0  0  0  0  0  0  0  0  0  0  0  0
  134.5795   69.1672  224.6080 H   0  0  0  0  0  0  0  0  0  0  0  0
  134.5332   70.2259  223.1343 H   0  0  0  0  0  0  0  0  0  0  0  0
  135.4614   67.3376  223.1501 H   0  0  0  0  0  0  0  0  0  0  0  0
  133.7935   67.8914  222.7262 H   0  0  0  0  0  0  0  0  0  0  0  0
  135.6926   67.5402  220.8551 H   0  0  0  0  0  0  0  0  0  0  0  0
  134.4728   68.8178  220.7105 H   0  0  0  0  0  0  0  0  0  0  0  0
  137.0471   69.5061  220.5328 H   0  0  0  0  0  0  0  0  0  0  0  0
  136.0029   70.5223  221.5548 H   0  0  0  0  0  0  0  0  0  0  0  0
  141.2465   74.6648  221.0516 H   0  0  0  0  0  0  0  0  0  0  0  0
  143.5240   74.8390  220.0877 H   0  0  0  0  0  0  0  0  0  0  0  0
  1  2  1  0
  2  3  1  0
  3  4  2  0
  3  5  2  0
  3  6  1  0
  6  7  2  0
  7  8  1  0
  8  9  2  0
  9 10  1  0
 10 11  2  0
 11 12  1  0
 12 13  2  0
 13 14  1  0
 14 15  2  0
 15 16  1  0
 16 17  2  0
 17 18  1  0
 17 19  1  0
 19 20  2  0
 20 21  1  0
 21 22  2  0
 21 23  1  0
 23 24  1  0
 24 25  1  0
 25 26  1  0
 26 27  1  0
 27 28  1  0
 28 29  1  0
 29 30  1  0
  9 31  1  0
 31 32  2  0
 32  6  1  0
 23 12  1  0
 30 25  1  0
 20 14  1  0
  1 33  1  0
  1 34  1  0
  1 35  1  0
  2 36  1  0
  2 37  1  0
  7 38  1  0
  8 39  1  0
 10 40  1  0
 11 41  1  0
 15 42  1  0
 16 43  1  0
 19 44  1  0
 24 45  1  0
 24 46  1  0
 25 47  1  0
 26 48  1  0
 26 49  1  0
 27 50  1  0
 27 51  1  0
 28 52  1  0
 28 53  1  0
 29 54  1  0
 29 55  1  0
 30 56  1  0
 30 57  1  0
 31 58  1  0
 32 59  1  0
M  END
>  <smiles>  (34) 
CCS(=O)(=O)c1ccc(/C=C/c2nc3ccc(F)cc3c(=O)n2CC2CCCCC2)cc1

>  <score_type>  (34) 
oracle

>  <origin>  (34) 
autodockgpu

>  <m_score__min__energy>  (34) 
-9.5

>  <m_primary>  (34) 
energy

>  <rmsd>  (34) 
11.49000762827287

>  <m_score__min__rmsd>  (34) 
11.49000762827287

>  <meeko>  (34) 
{"free_energy": -8.35, "intermolecular_energy": -10.44, "internal_energy": -1.58, "cluster_size": 9, "cluster_id": 3, "rank_in_cluster": 4}

>  <energy>  (34) 
-8.61

>  <cluster_rmsd>  (34) 
0.42

>  <cluster>  (34) 
4

$$$$

     RDKit          3D

 59 62  0  0  0  0  0  0  0  0999 V2000
  146.4730   73.3740  222.0610 C   0  0  0  0  0  0  0  0  0  0  0  0
  146.6360   73.7580  220.6140 C   0  0  0  0  0  0  0  0  0  0  0  0
  145.6110   72.6730  219.6540 S   0  0  0  0  0  0  0  0  0  0  0  0
  146.2160   71.3040  219.7250 O   0  0  0  0  0  0  0  0  0  0  0  0
  145.6250   73.1460  218.2440 O   0  0  0  0  0  0  0  0  0  0  0  0
  143.9620   72.6380  220.2380 C   0  0  0  0  0  0  0  0  0  0  0  0
  143.2490   71.4710  220.4100 C   0  0  0  0  0  0  0  0  0  0  0  0
  141.9530   71.5030  220.8720 C   0  0  0  0  0  0  0  0  0  0  0  0
  141.2940   72.6880  221.1880 C   0  0  0  0  0  0  0  0  0  0  0  0
  139.9120   72.6450  221.6750 C   0  0  0  0  0  0  0  0  0  0  0  0
  139.3070   71.5880  222.1180 C   0  0  0  0  0  0  0  0  0  0  0  0
  139.4580   70.7910  223.2950 C   0  0  0  0  0  0  0  0  0  0  0  0
  140.0370   71.4490  224.3530 N   0  0  0  0  0  0  0  0  0  0  0  0
  140.3360   70.9150  225.5190 C   0  0  0  0  0  0  0  0  0  0  0  0
  140.9150   71.6960  226.4910 C   0  0  0  0  0  0  0  0  0  0  0  0
  141.1990   71.0520  227.6950 C   0  0  0  0  0  0  0  0  0  0  0  0
  140.9300   69.7320  227.9190 C   0  0  0  0  0  0  0  0  0  0  0  0
  141.2030   69.1000  229.0850 F   0  0  0  0  0  0  0  0  0  0  0  0
  140.3450   68.9790  226.9160 C   0  0  0  0  0  0  0  0  0  0  0  0
  140.0560   69.5920  225.7220 C   0  0  0  0  0  0  0  0  0  0  0  0
  139.4760   68.9090  224.6830 C   0  0  0  0  0  0  0  0  0  0  0  0
  139.2360   67.6890  224.8970 O   0  0  0  0  0  0  0  0  0  0  0  0
  139.1720   69.4970  223.4740 N   0  0  0  0  0  0  0  0  0  0  0  0
  138.5650   68.6460  222.5140 C   0  0  0  0  0  0  0  0  0  0  0  0
  137.0950   68.4690  222.5150 C   0  0  0  0  0  0  0  0  0  0  0  0
  136.3740   69.2650  223.6110 C   0  0  0  0  0  0  0  0  0  0  0  0
  134.8810   68.9340  223.4500 C   0  0  0  0  0  0  0  0  0  0  0  0
  134.6670   67.6060  222.7690 C   0  0  0  0  0  0  0  0  0  0  0  0
  135.1390   67.6500  221.3320 C   0  0  0  0  0  0  0  0  0  0  0  0
  136.3020   68.6680  221.2920 C   0  0  0  0  0  0  0  0  0  0  0  0
  142.0080   73.8470  221.0130 C   0  0  0  0  0  0  0  0  0  0  0  0
  143.3280   73.8230  220.5430 C   0  0  0  0  0  0  0  0  0  0  0  0
  146.8227   74.1978  222.7006 H   0  0  0  0  0  0  0  0  0  0  0  0
  145.4119   73.1728  222.2697 H   0  0  0  0  0  0  0  0  0  0  0  0
  147.0654   72.4709  222.2697 H   0  0  0  0  0  0  0  0  0  0  0  0
  146.3212   74.8014  220.4648 H   0  0  0  0  0  0  0  0  0  0  0  0
  147.6883   73.6691  220.3062 H   0  0  0  0  0  0  0  0  0  0  0  0
  143.7202   70.5050  220.1758 H   0  0  0  0  0  0  0  0  0  0  0  0
  141.4149   70.5518  220.9969 H   0  0  0  0  0  0  0  0  0  0  0  0
  139.3424   73.5860  221.6635 H   0  0  0  0  0  0  0  0  0  0  0  0
  138.5113   71.2293  221.4486 H   0  0  0  0  0  0  0  0  0  0  0  0
  141.1398   72.7606  226.3294 H   0  0  0  0  0  0  0  0  0  0  0  0
  141.6624   71.6359  228.5039 H   0  0  0  0  0  0  0  0  0  0  0  0
  140.1169   67.9142  227.0718 H   0  0  0  0  0  0  0  0  0  0  0  0
  138.8384   69.0372  221.5229 H   0  0  0  0  0  0  0  0  0  0  0  0
  138.9430   67.6482  222.7813 H   0  0  0  0  0  0  0  0  0  0  0  0
  137.1176   67.3818  222.6805 H   0  0  0  0  0  0  0  0  0  0  0  0
  136.7301   68.9580  224.6055 H   0  0  0  0  0  0  0  0  0  0  0  0
  136.5631   70.3448  223.5202 H   0  0  0  0  0  0  0  0  0  0  0  0
  134.4151   68.9015  224.4459 H   0  0  0  0  0  0  0  0  0  0  0  0
  134.4257   69.7146  222.8229 H   0  0  0  0  0  0  0  0  0  0  0  0
  135.2300   66.8303  223.3088 H   0  0  0  0  0  0  0  0  0  0  0  0
  133.5910   67.3779  222.7771 H   0  0  0  0  0  0  0  0  0  0  0  0
  135.4903   66.6569  221.0153 H   0  0  0  0  0  0  0  0  0  0  0  0
  134.3259   67.9427  220.6514 H   0  0  0  0  0  0  0  0  0  0  0  0
  136.9272   68.4916  220.4043 H   0  0  0  0  0  0  0  0  0  0  0  0
  135.9187   69.6976  221.2378 H   0  0  0  0  0  0  0  0  0  0  0  0
  141.5354   74.8126  221.2460 H   0  0  0  0  0  0  0  0  0  0  0  0
  143.8703   74.7714  220.4146 H   0  0  0  0  0  0  0  0  0  0  0  0
  1  2  1  0
  2  3  1  0
  3  4  2  0
  3  5  2  0
  3  6  1  0
  6  7  2  0
  7  8  1  0
  8  9  2  0
  9 10  1  0
 10 11  2  0
 11 12  1  0
 12 13  2  0
 13 14  1  0
 14 15  2  0
 15 16  1  0
 16 17  2  0
 17 18  1  0
 17 19  1  0
 19 20  2  0
 20 21  1  0
 21 22  2  0
 21 23  1  0
 23 24  1  0
 24 25  1  0
 25 26  1  0
 26 27  1  0
 27 28  1  0
 28 29  1  0
 29 30  1  0
  9 31  1  0
 31 32  2  0
 32  6  1  0
 23 12  1  0
 30 25  1  0
 20 14  1  0
  1 33  1  0
  1 34  1  0
  1 35  1  0
  2 36  1  0
  2 37  1  0
  7 38  1  0
  8 39  1  0
 10 40  1  0
 11 41  1  0
 15 42  1  0
 16 43  1  0
 19 44  1  0
 24 45  1  0
 24 46  1  0
 25 47  1  0
 26 48  1  0
 26 49  1  0
 27 50  1  0
 27 51  1  0
 28 52  1  0
 28 53  1  0
 29 54  1  0
 29 55  1  0
 30 56  1  0
 30 57  1  0
 31 58  1  0
 32 59  1  0
M  END
>  <smiles>  (35) 
CCS(=O)(=O)c1ccc(/C=C/c2nc3ccc(F)cc3c(=O)n2CC2CCCCC2)cc1

>  <score_type>  (35) 
oracle

>  <origin>  (35) 
autodockgpu

>  <m_score__min__energy>  (35) 
-9.5

>  <m_primary>  (35) 
energy

>  <rmsd>  (35) 
11.373434719932721

>  <m_score__min__rmsd>  (35) 
11.373434719932721

>  <meeko>  (35) 
{"free_energy": -8.56, "intermolecular_energy": -10.65, "internal_energy": -1.58, "cluster_size": 9, "cluster_id": 3, "rank_in_cluster": 2}

>  <energy>  (35) 
-8.55

>  <cluster_rmsd>  (35) 
0.18

>  <cluster>  (35) 
4

$$$$

     RDKit          3D

 59 62  0  0  0  0  0  0  0  0999 V2000
  146.4220   73.3760  222.0650 C   0  0  0  0  0  0  0  0  0  0  0  0
  146.6630   73.7740  220.6340 C   0  0  0  0  0  0  0  0  0  0  0  0
  145.6800   72.7080  219.6090 S   0  0  0  0  0  0  0  0  0  0  0  0
  146.3150   71.3520  219.6330 O   0  0  0  0  0  0  0  0  0  0  0  0
  145.7090   73.2420  218.2200 O   0  0  0  0  0  0  0  0  0  0  0  0
  144.0220   72.6120  220.1590 C   0  0  0  0  0  0  0  0  0  0  0  0
  143.2200   73.7200  220.3300 C   0  0  0  0  0  0  0  0  0  0  0  0
  141.9220   73.5840  220.7660 C   0  0  0  0  0  0  0  0  0  0  0  0
  141.3480   72.3490  221.0560 C   0  0  0  0  0  0  0  0  0  0  0  0
  139.9590   72.2820  221.5170 C   0  0  0  0  0  0  0  0  0  0  0  0
  139.5820   72.2300  222.7570 C   0  0  0  0  0  0  0  0  0  0  0  0
  139.5850   71.1920  223.7400 C   0  0  0  0  0  0  0  0  0  0  0  0
  140.1980   71.5330  224.9210 N   0  0  0  0  0  0  0  0  0  0  0  0
  140.3810   70.7340  225.9510 C   0  0  0  0  0  0  0  0  0  0  0  0
  141.0140   71.2130  227.0730 C   0  0  0  0  0  0  0  0  0  0  0  0
  141.1660   70.2990  228.1180 C   0  0  0  0  0  0  0  0  0  0  0  0
  140.7240   69.0100  228.0540 C   0  0  0  0  0  0  0  0  0  0  0  0
  140.8680   68.1180  229.0630 F   0  0  0  0  0  0  0  0  0  0  0  0
  140.0900   68.5650  226.9060 C   0  0  0  0  0  0  0  0  0  0  0  0
  139.9290   69.4460  225.8660 C   0  0  0  0  0  0  0  0  0  0  0  0
  139.3100   69.0770  224.6990 C   0  0  0  0  0  0  0  0  0  0  0  0
  138.9100   67.8810  224.6460 O   0  0  0  0  0  0  0  0  0  0  0  0
  139.1320   69.9390  223.6370 N   0  0  0  0  0  0  0  0  0  0  0  0
  138.4610   69.3940  222.5110 C   0  0  0  0  0  0  0  0  0  0  0  0
  139.2380   68.6970  221.4600 C   0  0  0  0  0  0  0  0  0  0  0  0
  139.1880   67.1670  221.5620 C   0  0  0  0  0  0  0  0  0  0  0  0
  140.0570   66.6460  220.4060 C   0  0  0  0  0  0  0  0  0  0  0  0
  141.0820   67.6610  219.9670 C   0  0  0  0  0  0  0  0  0  0  0  0
  140.4180   68.8690  219.3440 C   0  0  0  0  0  0  0  0  0  0  0  0
  139.0410   69.0070  220.0360 C   0  0  0  0  0  0  0  0  0  0  0  0
  142.1520   71.2500  220.8860 C   0  0  0  0  0  0  0  0  0  0  0  0
  143.4750   71.3790  220.4420 C   0  0  0  0  0  0  0  0  0  0  0  0
  146.8741   74.1227  222.7344 H   0  0  0  0  0  0  0  0  0  0  0  0
  145.3396   73.3224  222.2534 H   0  0  0  0  0  0  0  0  0  0  0  0
  146.8761   72.3920  222.2534 H   0  0  0  0  0  0  0  0  0  0  0  0
  146.3649   74.8217  220.4805 H   0  0  0  0  0  0  0  0  0  0  0  0
  147.7291   73.6791  220.3804 H   0  0  0  0  0  0  0  0  0  0  0  0
  143.6211   74.7217  220.1160 H   0  0  0  0  0  0  0  0  0  0  0  0
  141.3113   74.4903  220.8909 H   0  0  0  0  0  0  0  0  0  0  0  0
  139.1716   72.2752  220.7489 H   0  0  0  0  0  0  0  0  0  0  0  0
  139.1757   73.1820  223.1294 H   0  0  0  0  0  0  0  0  0  0  0  0
  141.3773   72.2489  227.1433 H   0  0  0  0  0  0  0  0  0  0  0  0
  141.6668   70.6350  229.0379 H   0  0  0  0  0  0  0  0  0  0  0  0
  139.7243   67.5304  226.8295 H   0  0  0  0  0  0  0  0  0  0  0  0
  137.7262   68.6717  222.8963 H   0  0  0  0  0  0  0  0  0  0  0  0
  138.0679   70.2812  221.9930 H   0  0  0  0  0  0  0  0  0  0  0  0
  140.2079   69.1403  221.7299 H   0  0  0  0  0  0  0  0  0  0  0  0
  139.5943   66.8333  222.5282 H   0  0  0  0  0  0  0  0  0  0  0  0
  138.1571   66.7887  221.4982 H   0  0  0  0  0  0  0  0  0  0  0  0
  140.5781   65.7352  220.7361 H   0  0  0  0  0  0  0  0  0  0  0  0
  139.3963   66.4392  219.5512 H   0  0  0  0  0  0  0  0  0  0  0  0
  141.6665   67.9831  220.8414 H   0  0  0  0  0  0  0  0  0  0  0  0
  141.7365   67.1950  219.2157 H   0  0  0  0  0  0  0  0  0  0  0  0
  141.0246   69.7700  219.5179 H   0  0  0  0  0  0  0  0  0  0  0  0
  140.3106   68.7516  218.2556 H   0  0  0  0  0  0  0  0  0  0  0  0
  138.6632   70.0338  219.9224 H   0  0  0  0  0  0  0  0  0  0  0  0
  138.3067   68.3233  219.5851 H   0  0  0  0  0  0  0  0  0  0  0  0
  141.7505   70.2490  221.1023 H   0  0  0  0  0  0  0  0  0  0  0  0
  144.0906   70.4760  220.3166 H   0  0  0  0  0  0  0  0  0  0  0  0
  1  2  1  0
  2  3  1  0
  3  4  2  0
  3  5  2  0
  3  6  1  0
  6  7  2  0
  7  8  1  0
  8  9  2  0
  9 10  1  0
 10 11  2  0
 11 12  1  0
 12 13  2  0
 13 14  1  0
 14 15  2  0
 15 16  1  0
 16 17  2  0
 17 18  1  0
 17 19  1  0
 19 20  2  0
 20 21  1  0
 21 22  2  0
 21 23  1  0
 23 24  1  0
 24 25  1  0
 25 26  1  0
 26 27  1  0
 27 28  1  0
 28 29  1  0
 29 30  1  0
  9 31  1  0
 31 32  2  0
 32  6  1  0
 23 12  1  0
 30 25  1  0
 20 14  1  0
  1 33  1  0
  1 34  1  0
  1 35  1  0
  2 36  1  0
  2 37  1  0
  7 38  1  0
  8 39  1  0
 10 40  1  0
 11 41  1  0
 15 42  1  0
 16 43  1  0
 19 44  1  0
 24 45  1  0
 24 46  1  0
 25 47  1  0
 26 48  1  0
 26 49  1  0
 27 50  1  0
 27 51  1  0
 28 52  1  0
 28 53  1  0
 29 54  1  0
 29 55  1  0
 30 56  1  0
 30 57  1  0
 31 58  1  0
 32 59  1  0
M  END
>  <smiles>  (36) 
CCS(=O)(=O)c1ccc(/C=C/c2nc3ccc(F)cc3c(=O)n2CC2CCCCC2)cc1

>  <score_type>  (36) 
oracle

>  <origin>  (36) 
autodockgpu

>  <m_score__min__energy>  (36) 
-9.5

>  <m_primary>  (36) 
energy

>  <rmsd>  (36) 
11.199936291561015

>  <m_score__min__rmsd>  (36) 
11.199936291561015

>  <meeko>  (36) 
{"free_energy": -8.64, "intermolecular_energy": -10.73, "internal_energy": -2.01, "cluster_size": 9, "cluster_id": 3, "rank_in_cluster": 1}

>  <energy>  (36) 
-8.46

>  <cluster_rmsd>  (36) 
0.58

>  <cluster>  (36) 
4

$$$$

     RDKit          3D

 59 62  0  0  0  0  0  0  0  0999 V2000
  141.6230   78.6870  223.6350 C   0  0  0  0  0  0  0  0  0  0  0  0
  142.0510   79.2190  222.2930 C   0  0  0  0  0  0  0  0  0  0  0  0
  140.9840   78.5030  221.0690 S   0  0  0  0  0  0  0  0  0  0  0  0
  141.5730   78.8070  219.7260 O   0  0  0  0  0  0  0  0  0  0  0  0
  139.6490   79.1510  221.1800 O   0  0  0  0  0  0  0  0  0  0  0  0
  140.8080   76.7750  221.2770 C   0  0  0  0  0  0  0  0  0  0  0  0
  139.7120   76.1970  221.8800 C   0  0  0  0  0  0  0  0  0  0  0  0
  139.6280   74.8300  222.0180 C   0  0  0  0  0  0  0  0  0  0  0  0
  140.6200   73.9640  221.5680 C   0  0  0  0  0  0  0  0  0  0  0  0
  140.4620   72.5180  221.7500 C   0  0  0  0  0  0  0  0  0  0  0  0
  139.5280   71.9480  222.4450 C   0  0  0  0  0  0  0  0  0  0  0  0
  139.5400   70.9980  223.5120 C   0  0  0  0  0  0  0  0  0  0  0  0
  140.1250   71.4530  224.6690 N   0  0  0  0  0  0  0  0  0  0  0  0
  140.3100   70.7480  225.7660 C   0  0  0  0  0  0  0  0  0  0  0  0
  140.9120   71.3370  226.8530 C   0  0  0  0  0  0  0  0  0  0  0  0
  141.0690   70.5190  227.9730 C   0  0  0  0  0  0  0  0  0  0  0  0
  140.6620   69.2160  228.0110 C   0  0  0  0  0  0  0  0  0  0  0  0
  140.8120   68.4170  229.0940 F   0  0  0  0  0  0  0  0  0  0  0  0
  140.0590   68.6600  226.8960 C   0  0  0  0  0  0  0  0  0  0  0  0
  139.8940   69.4460  225.7830 C   0  0  0  0  0  0  0  0  0  0  0  0
  139.3050   68.9640  224.6420 C   0  0  0  0  0  0  0  0  0  0  0  0
  138.9370   67.7570  224.6840 O   0  0  0  0  0  0  0  0  0  0  0  0
  139.1220   69.7280  223.5090 N   0  0  0  0  0  0  0  0  0  0  0  0
  138.4850   69.0720  222.4230 C   0  0  0  0  0  0  0  0  0  0  0  0
  139.2980   68.5570  221.2970 C   0  0  0  0  0  0  0  0  0  0  0  0
  139.2400   67.0330  221.1350 C   0  0  0  0  0  0  0  0  0  0  0  0
  140.1500   66.7070  219.9390 C   0  0  0  0  0  0  0  0  0  0  0  0
  141.1940   67.7730  219.7170 C   0  0  0  0  0  0  0  0  0  0  0  0
  140.5570   69.0760  219.2860 C   0  0  0  0  0  0  0  0  0  0  0  0
  139.1560   69.1070  219.9400 C   0  0  0  0  0  0  0  0  0  0  0  0
  141.7100   74.5450  220.9710 C   0  0  0  0  0  0  0  0  0  0  0  0
  141.8040   75.9360  220.8260 C   0  0  0  0  0  0  0  0  0  0  0  0
  142.0982   79.2776  224.4321 H   0  0  0  0  0  0  0  0  0  0  0  0
  140.5293   78.7603  223.7267 H   0  0  0  0  0  0  0  0  0  0  0  0
  141.9289   77.6344  223.7267 H   0  0  0  0  0  0  0  0  0  0  0  0
  141.9585   80.3150  222.2768 H   0  0  0  0  0  0  0  0  0  0  0  0
  143.1007   78.9597  222.0908 H   0  0  0  0  0  0  0  0  0  0  0  0
  138.8969   76.8337  222.2544 H   0  0  0  0  0  0  0  0  0  0  0  0
  138.7385   74.4038  222.5050 H   0  0  0  0  0  0  0  0  0  0  0  0
  141.1957   71.8635  221.2567 H   0  0  0  0  0  0  0  0  0  0  0  0
  138.5149   72.2610  222.1522 H   0  0  0  0  0  0  0  0  0  0  0  0
  141.2479   72.3844  226.8407 H   0  0  0  0  0  0  0  0  0  0  0  0
  141.5439   70.9449  228.8692 H   0  0  0  0  0  0  0  0  0  0  0  0
  139.7202   67.6135  226.9018 H   0  0  0  0  0  0  0  0  0  0  0  0
  137.9423   68.2126  222.8436 H   0  0  0  0  0  0  0  0  0  0  0  0
  137.8830   69.8682  221.9607 H   0  0  0  0  0  0  0  0  0  0  0  0
  140.2582   68.9395  221.6735 H   0  0  0  0  0  0  0  0  0  0  0  0
  139.6091   66.5363  222.0444 H   0  0  0  0  0  0  0  0  0  0  0  0
  138.2110   66.6810  220.9701 H   0  0  0  0  0  0  0  0  0  0  0  0
  140.6555   65.7485  220.1281 H   0  0  0  0  0  0  0  0  0  0  0  0
  139.5213   66.6539  219.0379 H   0  0  0  0  0  0  0  0  0  0  0  0
  141.7466   67.9357  220.6541 H   0  0  0  0  0  0  0  0  0  0  0  0
  141.8745   67.4360  218.9211 H   0  0  0  0  0  0  0  0  0  0  0  0
  141.1592   69.9284  219.6335 H   0  0  0  0  0  0  0  0  0  0  0  0
  140.4901   69.1469  218.1903 H   0  0  0  0  0  0  0  0  0  0  0  0
  138.7858   70.1417  219.9894 H   0  0  0  0  0  0  0  0  0  0  0  0
  138.4373   68.5170  219.3524 H   0  0  0  0  0  0  0  0  0  0  0  0
  142.5255   73.9073  220.5991 H   0  0  0  0  0  0  0  0  0  0  0  0
  142.6923   76.3675  220.3416 H   0  0  0  0  0  0  0  0  0  0  0  0
  1  2  1  0
  2  3  1  0
  3  4  2  0
  3  5  2  0
  3  6  1  0
  6  7  2  0
  7  8  1  0
  8  9  2  0
  9 10  1  0
 10 11  2  0
 11 12  1  0
 12 13  2  0
 13 14  1  0
 14 15  2  0
 15 16  1  0
 16 17  2  0
 17 18  1  0
 17 19  1  0
 19 20  2  0
 20 21  1  0
 21 22  2  0
 21 23  1  0
 23 24  1  0
 24 25  1  0
 25 26  1  0
 26 27  1  0
 27 28  1  0
 28 29  1  0
 29 30  1  0
  9 31  1  0
 31 32  2  0
 32  6  1  0
 23 12  1  0
 30 25  1  0
 20 14  1  0
  1 33  1  0
  1 34  1  0
  1 35  1  0
  2 36  1  0
  2 37  1  0
  7 38  1  0
  8 39  1  0
 10 40  1  0
 11 41  1  0
 15 42  1  0
 16 43  1  0
 19 44  1  0
 24 45  1  0
 24 46  1  0
 25 47  1  0
 26 48  1  0
 26 49  1  0
 27 50  1  0
 27 51  1  0
 28 52  1  0
 28 53  1  0
 29 54  1  0
 29 55  1  0
 30 56  1  0
 30 57  1  0
 31 58  1  0
 32 59  1  0
M  END
>  <smiles>  (37) 
CCS(=O)(=O)c1ccc(/C=C/c2nc3ccc(F)cc3c(=O)n2CC2CCCCC2)cc1

>  <score_type>  (37) 
oracle

>  <origin>  (37) 
autodockgpu

>  <m_score__min__energy>  (37) 
-9.5

>  <m_primary>  (37) 
energy

>  <rmsd>  (37) 
11.135619562252709

>  <m_score__min__rmsd>  (37) 
11.135619562252709

>  <meeko>  (37) 
{"free_energy": -7.89, "intermolecular_energy": -9.98, "internal_energy": -1.49, "cluster_size": 5, "cluster_id": 5, "rank_in_cluster": 5}

>  <energy>  (37) 
-8.41

>  <cluster_rmsd>  (37) 
0.6

>  <cluster>  (37) 
4

$$$$

     RDKit          3D

 59 62  0  0  0  0  0  0  0  0999 V2000
  146.3900   73.3970  221.9340 C   0  0  0  0  0  0  0  0  0  0  0  0
  146.6330   73.7460  220.4910 C   0  0  0  0  0  0  0  0  0  0  0  0
  145.4630   72.8340  219.5160 S   0  0  0  0  0  0  0  0  0  0  0  0
  145.9660   71.4270  219.4110 O   0  0  0  0  0  0  0  0  0  0  0  0
  145.4130   73.4430  218.1590 O   0  0  0  0  0  0  0  0  0  0  0  0
  143.8610   72.8550  220.2200 C   0  0  0  0  0  0  0  0  0  0  0  0
  143.2700   71.7420  220.7790 C   0  0  0  0  0  0  0  0  0  0  0  0
  142.0060   71.8160  221.3180 C   0  0  0  0  0  0  0  0  0  0  0  0
  141.2610   72.9910  221.3340 C   0  0  0  0  0  0  0  0  0  0  0  0
  139.9200   72.9950  221.9260 C   0  0  0  0  0  0  0  0  0  0  0  0
  139.2500   71.9400  222.2690 C   0  0  0  0  0  0  0  0  0  0  0  0
  139.3320   71.0420  223.3780 C   0  0  0  0  0  0  0  0  0  0  0  0
  139.9970   71.5490  224.4680 N   0  0  0  0  0  0  0  0  0  0  0  0
  140.2550   70.8970  225.5830 C   0  0  0  0  0  0  0  0  0  0  0  0
  140.9320   71.5330  226.5960 C   0  0  0  0  0  0  0  0  0  0  0  0
  141.1640   70.7700  227.7410 C   0  0  0  0  0  0  0  0  0  0  0  0
  140.7550   69.4740  227.8710 C   0  0  0  0  0  0  0  0  0  0  0  0
  140.9760   68.7270  228.9790 F   0  0  0  0  0  0  0  0  0  0  0  0
  140.0750   68.8680  226.8290 C   0  0  0  0  0  0  0  0  0  0  0  0
  139.8360   69.6000  225.6920 C   0  0  0  0  0  0  0  0  0  0  0  0
  139.1670   69.0670  224.6200 C   0  0  0  0  0  0  0  0  0  0  0  0
  138.7990   67.8670  224.7460 O   0  0  0  0  0  0  0  0  0  0  0  0
  138.9100   69.7770  223.4660 N   0  0  0  0  0  0  0  0  0  0  0  0
  138.1970   69.0730  222.4590 C   0  0  0  0  0  0  0  0  0  0  0  0
  138.9360   68.4350  221.3460 C   0  0  0  0  0  0  0  0  0  0  0  0
  140.2290   69.1640  220.9600 C   0  0  0  0  0  0  0  0  0  0  0  0
  140.8260   68.3590  219.7940 C   0  0  0  0  0  0  0  0  0  0  0  0
  139.7750   67.5710  219.0540 C   0  0  0  0  0  0  0  0  0  0  0  0
  139.1990   66.4790  219.9300 C   0  0  0  0  0  0  0  0  0  0  0  0
  139.2810   67.0050  221.3820 C   0  0  0  0  0  0  0  0  0  0  0  0
  141.8530   74.0960  220.7750 C   0  0  0  0  0  0  0  0  0  0  0  0
  143.1400   74.0290  220.2230 C   0  0  0  0  0  0  0  0  0  0  0  0
  146.8992   74.1283  222.5789 H   0  0  0  0  0  0  0  0  0  0  0  0
  145.3095   73.4169  222.1391 H   0  0  0  0  0  0  0  0  0  0  0  0
  146.7836   72.3905  222.1391 H   0  0  0  0  0  0  0  0  0  0  0  0
  146.4897   74.8256  220.3366 H   0  0  0  0  0  0  0  0  0  0  0  0
  147.6624   73.4908  220.1991 H   0  0  0  0  0  0  0  0  0  0  0  0
  143.8138   70.7860  220.7943 H   0  0  0  0  0  0  0  0  0  0  0  0
  141.5658   70.9075  221.7548 H   0  0  0  0  0  0  0  0  0  0  0  0
  139.4439   73.9725  222.0926 H   0  0  0  0  0  0  0  0  0  0  0  0
  138.4513   71.6816  221.5581 H   0  0  0  0  0  0  0  0  0  0  0  0
  141.2693   72.5764  226.5097 H   0  0  0  0  0  0  0  0  0  0  0  0
  141.7026   71.2354  228.5796 H   0  0  0  0  0  0  0  0  0  0  0  0
  139.7342   67.8252  226.9096 H   0  0  0  0  0  0  0  0  0  0  0  0
  137.6332   68.2759  222.9657 H   0  0  0  0  0  0  0  0  0  0  0  0
  137.6137   69.8610  221.9602 H   0  0  0  0  0  0  0  0  0  0  0  0
  138.1241   68.5270  220.6096 H   0  0  0  0  0  0  0  0  0  0  0  0
  140.0089   70.1939  220.6424 H   0  0  0  0  0  0  0  0  0  0  0  0
  140.9269   69.2307  221.8076 H   0  0  0  0  0  0  0  0  0  0  0  0
  141.3076   69.0554  219.0917 H   0  0  0  0  0  0  0  0  0  0  0  0
  141.5535   67.6468  220.2106 H   0  0  0  0  0  0  0  0  0  0  0  0
  138.9660   68.2501  218.7469 H   0  0  0  0  0  0  0  0  0  0  0  0
  140.2415   67.1047  218.1737 H   0  0  0  0  0  0  0  0  0  0  0  0
  138.1527   66.2808  219.6544 H   0  0  0  0  0  0  0  0  0  0  0  0
  139.7530   65.5359  219.8126 H   0  0  0  0  0  0  0  0  0  0  0  0
  138.5693   66.4614  222.0207 H   0  0  0  0  0  0  0  0  0  0  0  0
  140.2896   66.8566  221.7951 H   0  0  0  0  0  0  0  0  0  0  0  0
  141.3078   75.0513  220.7598 H   0  0  0  0  0  0  0  0  0  0  0  0
  143.5840   74.9339  219.7825 H   0  0  0  0  0  0  0  0  0  0  0  0
  1  2  1  0
  2  3  1  0
  3  4  2  0
  3  5  2  0
  3  6  1  0
  6  7  2  0
  7  8  1  0
  8  9  2  0
  9 10  1  0
 10 11  2  0
 11 12  1  0
 12 13  2  0
 13 14  1  0
 14 15  2  0
 15 16  1  0
 16 17  2  0
 17 18  1  0
 17 19  1  0
 19 20  2  0
 20 21  1  0
 21 22  2  0
 21 23  1  0
 23 24  1  0
 24 25  1  0
 25 26  1  0
 26 27  1  0
 27 28  1  0
 28 29  1  0
 29 30  1  0
  9 31  1  0
 31 32  2  0
 32  6  1  0
 23 12  1  0
 30 25  1  0
 20 14  1  0
  1 33  1  0
  1 34  1  0
  1 35  1  0
  2 36  1  0
  2 37  1  0
  7 38  1  0
  8 39  1  0
 10 40  1  0
 11 41  1  0
 15 42  1  0
 16 43  1  0
 19 44  1  0
 24 45  1  0
 24 46  1  0
 25 47  1  0
 26 48  1  0
 26 49  1  0
 27 50  1  0
 27 51  1  0
 28 52  1  0
 28 53  1  0
 29 54  1  0
 29 55  1  0
 30 56  1  0
 30 57  1  0
 31 58  1  0
 32 59  1  0
M  END
>  <smiles>  (38) 
CCS(=O)(=O)c1ccc(/C=C/c2nc3ccc(F)cc3c(=O)n2CC2CCCCC2)cc1

>  <score_type>  (38) 
oracle

>  <origin>  (38) 
autodockgpu

>  <m_score__min__energy>  (38) 
-9.5

>  <m_primary>  (38) 
energy

>  <rmsd>  (38) 
10.443237325856083

>  <m_score__min__rmsd>  (38) 
10.443237325856083

>  <meeko>  (38) 
{"free_energy": -8.32, "intermolecular_energy": -10.41, "internal_energy": -1.84, "cluster_size": 9, "cluster_id": 3, "rank_in_cluster": 5}

>  <energy>  (38) 
-8.24

>  <cluster_rmsd>  (38) 
0.77

>  <cluster>  (38) 
4

$$$$

     RDKit          3D

 59 62  0  0  0  0  0  0  0  0999 V2000
  142.5200   80.3420  223.3200 C   0  0  0  0  0  0  0  0  0  0  0  0
  141.7740   79.0560  223.5540 C   0  0  0  0  0  0  0  0  0  0  0  0
  140.9320   78.6450  222.0460 S   0  0  0  0  0  0  0  0  0  0  0  0
  141.8630   78.9520  220.9140 O   0  0  0  0  0  0  0  0  0  0  0  0
  139.7230   79.5060  221.9380 O   0  0  0  0  0  0  0  0  0  0  0  0
  140.4520   76.9630  221.9980 C   0  0  0  0  0  0  0  0  0  0  0  0
  141.2940   75.9510  221.5890 C   0  0  0  0  0  0  0  0  0  0  0  0
  140.8620   74.6450  221.5710 C   0  0  0  0  0  0  0  0  0  0  0  0
  139.5780   74.2690  221.9550 C   0  0  0  0  0  0  0  0  0  0  0  0
  139.1880   72.8570  221.9090 C   0  0  0  0  0  0  0  0  0  0  0  0
  139.9280   71.8630  222.2890 C   0  0  0  0  0  0  0  0  0  0  0  0
  139.8620   70.9550  223.3920 C   0  0  0  0  0  0  0  0  0  0  0  0
  140.3600   71.4590  224.5690 N   0  0  0  0  0  0  0  0  0  0  0  0
  140.4640   70.7990  225.7040 C   0  0  0  0  0  0  0  0  0  0  0  0
  140.9840   71.4310  226.8080 C   0  0  0  0  0  0  0  0  0  0  0  0
  141.0590   70.6590  227.9680 C   0  0  0  0  0  0  0  0  0  0  0  0
  140.6500   69.3580  228.0280 C   0  0  0  0  0  0  0  0  0  0  0  0
  140.7200   68.6030  229.1500 F   0  0  0  0  0  0  0  0  0  0  0  0
  140.1310   68.7560  226.8950 C   0  0  0  0  0  0  0  0  0  0  0  0
  140.0480   69.4970  225.7420 C   0  0  0  0  0  0  0  0  0  0  0  0
  139.5440   68.9670  224.5810 C   0  0  0  0  0  0  0  0  0  0  0  0
  139.1740   67.7630  224.6440 O   0  0  0  0  0  0  0  0  0  0  0  0
  139.4450   69.6860  223.4080 N   0  0  0  0  0  0  0  0  0  0  0  0
  138.8900   68.9850  222.3050 C   0  0  0  0  0  0  0  0  0  0  0  0
  137.4370   68.7000  222.2720 C   0  0  0  0  0  0  0  0  0  0  0  0
  137.0980   67.2340  221.9750 C   0  0  0  0  0  0  0  0  0  0  0  0
  135.5630   67.1550  221.9710 C   0  0  0  0  0  0  0  0  0  0  0  0
  134.9290   68.4890  221.6620 C   0  0  0  0  0  0  0  0  0  0  0  0
  135.1940   69.4850  222.7710 C   0  0  0  0  0  0  0  0  0  0  0  0
  136.5580   69.0940  223.3840 C   0  0  0  0  0  0  0  0  0  0  0  0
  138.7430   75.2810  222.3600 C   0  0  0  0  0  0  0  0  0  0  0  0
  139.1750   76.6140  222.3810 C   0  0  0  0  0  0  0  0  0  0  0  0
  142.7827   80.7948  224.2875 H   0  0  0  0  0  0  0  0  0  0  0  0
  143.4382   80.1349  222.7508 H   0  0  0  0  0  0  0  0  0  0  0  0
  141.8844   81.0362  222.7508 H   0  0  0  0  0  0  0  0  0  0  0  0
  142.4799   78.2555  223.8201 H   0  0  0  0  0  0  0  0  0  0  0  0
  141.0562   79.1694  224.3798 H   0  0  0  0  0  0  0  0  0  0  0  0
  142.3206   76.1899  221.2742 H   0  0  0  0  0  0  0  0  0  0  0  0
  141.5617   73.8639  221.2387 H   0  0  0  0  0  0  0  0  0  0  0  0
  138.1861   72.6217  221.5205 H   0  0  0  0  0  0  0  0  0  0  0  0
  140.7854   71.6796  221.6247 H   0  0  0  0  0  0  0  0  0  0  0  0
  141.3195   72.4782  226.7791 H   0  0  0  0  0  0  0  0  0  0  0  0
  141.4677   71.1214  228.8786 H   0  0  0  0  0  0  0  0  0  0  0  0
  139.7932   67.7094  226.9176 H   0  0  0  0  0  0  0  0  0  0  0  0
  139.1200   69.5736  221.4047 H   0  0  0  0  0  0  0  0  0  0  0  0
  139.3450   67.9864  222.3813 H   0  0  0  0  0  0  0  0  0  0  0  0
  137.2087   69.3959  221.4513 H   0  0  0  0  0  0  0  0  0  0  0  0
  137.4999   66.9384  220.9947 H   0  0  0  0  0  0  0  0  0  0  0  0
  137.5376   66.5562  222.7216 H   0  0  0  0  0  0  0  0  0  0  0  0
  135.2469   66.4267  221.2096 H   0  0  0  0  0  0  0  0  0  0  0  0
  135.2360   66.8480  222.9754 H   0  0  0  0  0  0  0  0  0  0  0  0
  135.3479   68.8773  220.7219 H   0  0  0  0  0  0  0  0  0  0  0  0
  133.8420   68.3477  221.5699 H   0  0  0  0  0  0  0  0  0  0  0  0
  135.2373   70.5061  222.3643 H   0  0  0  0  0  0  0  0  0  0  0  0
  134.3946   69.4663  223.5264 H   0  0  0  0  0  0  0  0  0  0  0  0
  136.9900   69.9517  223.9204 H   0  0  0  0  0  0  0  0  0  0  0  0
  136.4417   68.2684  224.1016 H   0  0  0  0  0  0  0  0  0  0  0  0
  137.7163   75.0411  222.6737 H   0  0  0  0  0  0  0  0  0  0  0  0
  138.4791   77.3995  222.7106 H   0  0  0  0  0  0  0  0  0  0  0  0
  1  2  1  0
  2  3  1  0
  3  4  2  0
  3  5  2  0
  3  6  1  0
  6  7  2  0
  7  8  1  0
  8  9  2  0
  9 10  1  0
 10 11  2  0
 11 12  1  0
 12 13  2  0
 13 14  1  0
 14 15  2  0
 15 16  1  0
 16 17  2  0
 17 18  1  0
 17 19  1  0
 19 20  2  0
 20 21  1  0
 21 22  2  0
 21 23  1  0
 23 24  1  0
 24 25  1  0
 25 26  1  0
 26 27  1  0
 27 28  1  0
 28 29  1  0
 29 30  1  0
  9 31  1  0
 31 32  2  0
 32  6  1  0
 23 12  1  0
 30 25  1  0
 20 14  1  0
  1 33  1  0
  1 34  1  0
  1 35  1  0
  2 36  1  0
  2 37  1  0
  7 38  1  0
  8 39  1  0
 10 40  1  0
 11 41  1  0
 15 42  1  0
 16 43  1  0
 19 44  1  0
 24 45  1  0
 24 46  1  0
 25 47  1  0
 26 48  1  0
 26 49  1  0
 27 50  1  0
 27 51  1  0
 28 52  1  0
 28 53  1  0
 29 54  1  0
 29 55  1  0
 30 56  1  0
 30 57  1  0
 31 58  1  0
 32 59  1  0
M  END
>  <smiles>  (39) 
CCS(=O)(=O)c1ccc(/C=C/c2nc3ccc(F)cc3c(=O)n2CC2CCCCC2)cc1

>  <score_type>  (39) 
oracle

>  <origin>  (39) 
autodockgpu

>  <m_score__min__energy>  (39) 
-9.5

>  <m_primary>  (39) 
energy

>  <rmsd>  (39) 
11.326963309065238

>  <m_score__min__rmsd>  (39) 
11.326963309065238

>  <meeko>  (39) 
{"free_energy": -8.16, "intermolecular_energy": -10.25, "internal_energy": -1.38, "cluster_size": 5, "cluster_id": 5, "rank_in_cluster": 3}

>  <energy>  (39) 
-8.2

>  <cluster_rmsd>  (39) 
1.44

>  <cluster>  (39) 
4

$$$$

     RDKit          3D

 59 62  0  0  0  0  0  0  0  0999 V2000
  146.4100   73.3080  221.9920 C   0  0  0  0  0  0  0  0  0  0  0  0
  146.5550   73.7680  220.5660 C   0  0  0  0  0  0  0  0  0  0  0  0
  145.3990   72.8440  219.5860 S   0  0  0  0  0  0  0  0  0  0  0  0
  145.9330   71.4500  219.4580 O   0  0  0  0  0  0  0  0  0  0  0  0
  145.3260   73.4700  218.2380 O   0  0  0  0  0  0  0  0  0  0  0  0
  143.8030   72.8190  220.3010 C   0  0  0  0  0  0  0  0  0  0  0  0
  143.0530   73.9570  220.5100 C   0  0  0  0  0  0  0  0  0  0  0  0
  141.8020   73.8770  221.0780 C   0  0  0  0  0  0  0  0  0  0  0  0
  141.2260   72.6720  221.4680 C   0  0  0  0  0  0  0  0  0  0  0  0
  139.8880   72.6650  222.0670 C   0  0  0  0  0  0  0  0  0  0  0  0
  139.2410   71.6060  222.4420 C   0  0  0  0  0  0  0  0  0  0  0  0
  139.3920   70.7000  223.5380 C   0  0  0  0  0  0  0  0  0  0  0  0
  139.9530   71.2580  224.6600 N   0  0  0  0  0  0  0  0  0  0  0  0
  140.2490   70.6170  225.7720 C   0  0  0  0  0  0  0  0  0  0  0  0
  140.8090   71.3070  226.8210 C   0  0  0  0  0  0  0  0  0  0  0  0
  141.0910   70.5510  227.9590 C   0  0  0  0  0  0  0  0  0  0  0  0
  140.8370   69.2130  228.0510 C   0  0  0  0  0  0  0  0  0  0  0  0
  141.1080   68.4730  229.1520 F   0  0  0  0  0  0  0  0  0  0  0  0
  140.2710   68.5540  226.9730 C   0  0  0  0  0  0  0  0  0  0  0  0
  139.9850   69.2770  225.8420 C   0  0  0  0  0  0  0  0  0  0  0  0
  139.4240   68.6920  224.7360 C   0  0  0  0  0  0  0  0  0  0  0  0
  139.1980   67.4540  224.8270 O   0  0  0  0  0  0  0  0  0  0  0  0
  139.1220   69.3920  223.5860 N   0  0  0  0  0  0  0  0  0  0  0  0
  138.5350   68.6310  222.5420 C   0  0  0  0  0  0  0  0  0  0  0  0
  137.0610   68.5810  222.4090 C   0  0  0  0  0  0  0  0  0  0  0  0
  136.5290   67.2420  221.8840 C   0  0  0  0  0  0  0  0  0  0  0  0
  135.0010   67.4030  221.8070 C   0  0  0  0  0  0  0  0  0  0  0  0
  134.5910   68.8480  221.6770 C   0  0  0  0  0  0  0  0  0  0  0  0
  134.9300   69.6250  222.9310 C   0  0  0  0  0  0  0  0  0  0  0  0
  136.1820   68.9440  223.5320 C   0  0  0  0  0  0  0  0  0  0  0  0
  141.9770   71.5420  221.2590 C   0  0  0  0  0  0  0  0  0  0  0  0
  143.2520   71.6140  220.6820 C   0  0  0  0  0  0  0  0  0  0  0  0
  146.6700   74.1329  222.6716 H   0  0  0  0  0  0  0  0  0  0  0  0
  145.3704   72.9975  222.1732 H   0  0  0  0  0  0  0  0  0  0  0  0
  147.0836   72.4575  222.1732 H   0  0  0  0  0  0  0  0  0  0  0  0
  146.3332   74.8430  220.4939 H   0  0  0  0  0  0  0  0  0  0  0  0
  147.5826   73.6044  220.2091 H   0  0  0  0  0  0  0  0  0  0  0  0
  143.4582   74.9377  220.2201 H   0  0  0  0  0  0  0  0  0  0  0  0
  141.2329   74.8059  221.2303 H   0  0  0  0  0  0  0  0  0  0  0  0
  139.3930   73.6369  222.2098 H   0  0  0  0  0  0  0  0  0  0  0  0
  138.4010   71.3514  221.7791 H   0  0  0  0  0  0  0  0  0  0  0  0
  141.0209   72.3850  226.7665 H   0  0  0  0  0  0  0  0  0  0  0  0
  141.5404   71.0584  228.8253 H   0  0  0  0  0  0  0  0  0  0  0  0
  140.0556   67.4764  227.0218 H   0  0  0  0  0  0  0  0  0  0  0  0
  138.9271   69.0321  221.5958 H   0  0  0  0  0  0  0  0  0  0  0  0
  138.8040   67.5955  222.7979 H   0  0  0  0  0  0  0  0  0  0  0  0
  136.9892   69.4126  221.6926 H   0  0  0  0  0  0  0  0  0  0  0  0
  136.9430   67.0289  220.8874 H   0  0  0  0  0  0  0  0  0  0  0  0
  136.8169   66.4059  222.5383 H   0  0  0  0  0  0  0  0  0  0  0  0
  134.6291   66.8483  220.9329 H   0  0  0  0  0  0  0  0  0  0  0  0
  134.5706   67.0104  222.7401 H   0  0  0  0  0  0  0  0  0  0  0  0
  135.1196   69.2961  220.8227 H   0  0  0  0  0  0  0  0  0  0  0  0
  133.5026   68.8901  221.5231 H   0  0  0  0  0  0  0  0  0  0  0  0
  135.1481   70.6742  222.6828 H   0  0  0  0  0  0  0  0  0  0  0  0
  134.0915   69.6248  223.6430 H   0  0  0  0  0  0  0  0  0  0  0  0
  136.7015   69.6393  224.2077 H   0  0  0  0  0  0  0  0  0  0  0  0
  135.9012   68.0526  224.1121 H   0  0  0  0  0  0  0  0  0  0  0  0
  141.5705   70.5621  221.5498 H   0  0  0  0  0  0  0  0  0  0  0  0
  143.8262   70.6882  220.5296 H   0  0  0  0  0  0  0  0  0  0  0  0
  1  2  1  0
  2  3  1  0
  3  4  2  0
  3  5  2  0
  3  6  1  0
  6  7  2  0
  7  8  1  0
  8  9  2  0
  9 10  1  0
 10 11  2  0
 11 12  1  0
 12 13  2  0
 13 14  1  0
 14 15  2  0
 15 16  1  0
 16 17  2  0
 17 18  1  0
 17 19  1  0
 19 20  2  0
 20 21  1  0
 21 22  2  0
 21 23  1  0
 23 24  1  0
 24 25  1  0
 25 26  1  0
 26 27  1  0
 27 28  1  0
 28 29  1  0
 29 30  1  0
  9 31  1  0
 31 32  2  0
 32  6  1  0
 23 12  1  0
 30 25  1  0
 20 14  1  0
  1 33  1  0
  1 34  1  0
  1 35  1  0
  2 36  1  0
  2 37  1  0
  7 38  1  0
  8 39  1  0
 10 40  1  0
 11 41  1  0
 15 42  1  0
 16 43  1  0
 19 44  1  0
 24 45  1  0
 24 46  1  0
 25 47  1  0
 26 48  1  0
 26 49  1  0
 27 50  1  0
 27 51  1  0
 28 52  1  0
 28 53  1  0
 29 54  1  0
 29 55  1  0
 30 56  1  0
 30 57  1  0
 31 58  1  0
 32 59  1  0
M  END
>  <smiles>  (40) 
CCS(=O)(=O)c1ccc(/C=C/c2nc3ccc(F)cc3c(=O)n2CC2CCCCC2)cc1

>  <score_type>  (40) 
oracle

>  <origin>  (40) 
autodockgpu

>  <m_score__min__energy>  (40) 
-9.5

>  <m_primary>  (40) 
energy

>  <rmsd>  (40) 
11.456154938803909

>  <m_score__min__rmsd>  (40) 
11.456154938803909

>  <meeko>  (40) 
{"free_energy": -8.49, "intermolecular_energy": -10.57, "internal_energy": -1.58, "cluster_size": 9, "cluster_id": 3, "rank_in_cluster": 3}

>  <energy>  (40) 
-8.09

>  <cluster_rmsd>  (40) 
0.95

>  <cluster>  (40) 
4

$$$$

     RDKit          3D

 59 62  0  0  0  0  0  0  0  0999 V2000
  139.5620   70.2060  227.9690 C   0  0  0  0  0  0  0  0  0  0  0  0
  140.2940   68.8920  228.0100 C   0  0  0  0  0  0  0  0  0  0  0  0
  140.2030   68.1790  226.3870 S   0  0  0  0  0  0  0  0  0  0  0  0
  139.0390   67.2360  226.3750 O   0  0  0  0  0  0  0  0  0  0  0  0
  141.4580   67.4170  226.1420 O   0  0  0  0  0  0  0  0  0  0  0  0
  140.0120   69.3950  225.1430 C   0  0  0  0  0  0  0  0  0  0  0  0
  139.0840   69.2950  224.1290 C   0  0  0  0  0  0  0  0  0  0  0  0
  138.9780   70.2830  223.1770 C   0  0  0  0  0  0  0  0  0  0  0  0
  139.7820   71.4190  223.1750 C   0  0  0  0  0  0  0  0  0  0  0  0
  139.6120   72.4300  222.1280 C   0  0  0  0  0  0  0  0  0  0  0  0
  139.5230   73.7080  222.3270 C   0  0  0  0  0  0  0  0  0  0  0  0
  140.2440   74.8330  221.8200 C   0  0  0  0  0  0  0  0  0  0  0  0
  140.0060   76.0070  222.4930 N   0  0  0  0  0  0  0  0  0  0  0  0
  140.5020   77.1860  222.1800 C   0  0  0  0  0  0  0  0  0  0  0  0
  140.1770   78.2800  222.9460 C   0  0  0  0  0  0  0  0  0  0  0  0
  140.7460   79.4900  222.5440 C   0  0  0  0  0  0  0  0  0  0  0  0
  141.5730   79.6060  221.4640 C   0  0  0  0  0  0  0  0  0  0  0  0
  142.1270   80.7760  221.0680 F   0  0  0  0  0  0  0  0  0  0  0  0
  141.8770   78.4800  220.7180 C   0  0  0  0  0  0  0  0  0  0  0  0
  141.3290   77.2790  221.0950 C   0  0  0  0  0  0  0  0  0  0  0  0
  141.5860   76.1220  220.4040 C   0  0  0  0  0  0  0  0  0  0  0  0
  142.3460   76.2390  219.4040 O   0  0  0  0  0  0  0  0  0  0  0  0
  141.0530   74.9010  220.7580 N   0  0  0  0  0  0  0  0  0  0  0  0
  141.4320   73.8050  219.9390 C   0  0  0  0  0  0  0  0  0  0  0  0
  142.7650   73.1840  220.1150 C   0  0  0  0  0  0  0  0  0  0  0  0
  143.7940   74.1000  220.7890 C   0  0  0  0  0  0  0  0  0  0  0  0
  145.0940   73.2820  220.8620 C   0  0  0  0  0  0  0  0  0  0  0  0
  145.1420   72.2030  219.8090 C   0  0  0  0  0  0  0  0  0  0  0  0
  144.0880   71.1470  220.0640 C   0  0  0  0  0  0  0  0  0  0  0  0
  142.9140   71.8720  220.7640 C   0  0  0  0  0  0  0  0  0  0  0  0
  140.7050   71.5120  224.1860 C   0  0  0  0  0  0  0  0  0  0  0  0
  140.8200   70.5110  225.1610 C   0  0  0  0  0  0  0  0  0  0  0  0
  139.3699   70.5509  228.9957 H   0  0  0  0  0  0  0  0  0  0  0  0
  140.1751   70.9510  227.4406 H   0  0  0  0  0  0  0  0  0  0  0  0
  138.6059   70.0768  227.4406 H   0  0  0  0  0  0  0  0  0  0  0  0
  141.3451   69.0563  228.2895 H   0  0  0  0  0  0  0  0  0  0  0  0
  139.8418   68.2199  228.7541 H   0  0  0  0  0  0  0  0  0  0  0  0
  138.4222   68.4177  224.0802 H   0  0  0  0  0  0  0  0  0  0  0  0
  138.2251   70.1700  222.3831 H   0  0  0  0  0  0  0  0  0  0  0  0
  139.5553   72.0756  221.0882 H   0  0  0  0  0  0  0  0  0  0  0  0
  138.7263   73.9840  223.0335 H   0  0  0  0  0  0  0  0  0  0  0  0
  139.5118   78.2070  223.8190 H   0  0  0  0  0  0  0  0  0  0  0  0
  140.5166   80.3946  223.1263 H   0  0  0  0  0  0  0  0  0  0  0  0
  142.5417   78.5461  219.8441 H   0  0  0  0  0  0  0  0  0  0  0  0
  140.6868   73.0124  220.1018 H   0  0  0  0  0  0  0  0  0  0  0  0
  141.4850   74.2441  218.9318 H   0  0  0  0  0  0  0  0  0  0  0  0
  142.9447   73.0085  219.0441 H   0  0  0  0  0  0  0  0  0  0  0  0
  143.9468   75.0106  220.1911 H   0  0  0  0  0  0  0  0  0  0  0  0
  143.4598   74.4214  221.7865 H   0  0  0  0  0  0  0  0  0  0  0  0
  145.9485   73.9592  220.7159 H   0  0  0  0  0  0  0  0  0  0  0  0
  145.1353   72.7966  221.8483 H   0  0  0  0  0  0  0  0  0  0  0  0
  144.9658   72.6558  218.8221 H   0  0  0  0  0  0  0  0  0  0  0  0
  146.1319   71.7246  219.8432 H   0  0  0  0  0  0  0  0  0  0  0  0
  143.7521   70.7058  219.1140 H   0  0  0  0  0  0  0  0  0  0  0  0
  144.4816   70.3282  220.6843 H   0  0  0  0  0  0  0  0  0  0  0  0
  141.9888   71.2880  220.6505 H   0  0  0  0  0  0  0  0  0  0  0  0
  143.1122   71.9883  221.8397 H   0  0  0  0  0  0  0  0  0  0  0  0
  141.3675   72.3889  224.2325 H   0  0  0  0  0  0  0  0  0  0  0  0
  141.5713   70.6189  225.9572 H   0  0  0  0  0  0  0  0  0  0  0  0
  1  2  1  0
  2  3  1  0
  3  4  2  0
  3  5  2  0
  3  6  1  0
  6  7  2  0
  7  8  1  0
  8  9  2  0
  9 10  1  0
 10 11  2  0
 11 12  1  0
 12 13  2  0
 13 14  1  0
 14 15  2  0
 15 16  1  0
 16 17  2  0
 17 18  1  0
 17 19  1  0
 19 20  2  0
 20 21  1  0
 21 22  2  0
 21 23  1  0
 23 24  1  0
 24 25  1  0
 25 26  1  0
 26 27  1  0
 27 28  1  0
 28 29  1  0
 29 30  1  0
  9 31  1  0
 31 32  2  0
 32  6  1  0
 23 12  1  0
 30 25  1  0
 20 14  1  0
  1 33  1  0
  1 34  1  0
  1 35  1  0
  2 36  1  0
  2 37  1  0
  7 38  1  0
  8 39  1  0
 10 40  1  0
 11 41  1  0
 15 42  1  0
 16 43  1  0
 19 44  1  0
 24 45  1  0
 24 46  1  0
 25 47  1  0
 26 48  1  0
 26 49  1  0
 27 50  1  0
 27 51  1  0
 28 52  1  0
 28 53  1  0
 29 54  1  0
 29 55  1  0
 30 56  1  0
 30 57  1  0
 31 58  1  0
 32 59  1  0
M  END
>  <smiles>  (41) 
CCS(=O)(=O)c1ccc(/C=C/c2nc3ccc(F)cc3c(=O)n2CC2CCCCC2)cc1

>  <score_type>  (41) 
oracle

>  <origin>  (41) 
autodockgpu

>  <m_score__min__energy>  (41) 
-9.5

>  <m_primary>  (41) 
energy

>  <rmsd>  (41) 
4.945483866355781

>  <m_score__min__rmsd>  (41) 
4.945483866355781

>  <meeko>  (41) 
{"free_energy": -8.69, "intermolecular_energy": -10.78, "internal_energy": -1.46, "cluster_size": 17, "cluster_id": 2, "rank_in_cluster": 7}

>  <energy>  (41) 
-7.79

>  <cluster_rmsd>  (41) 
1.47

>  <cluster>  (41) 
4

$$$$

     RDKit          3D

 59 62  0  0  0  0  0  0  0  0999 V2000
  144.7340   66.1510  218.8990 C   0  0  0  0  0  0  0  0  0  0  0  0
  144.7610   67.4240  218.0950 C   0  0  0  0  0  0  0  0  0  0  0  0
  145.2270   68.7390  219.1920 S   0  0  0  0  0  0  0  0  0  0  0  0
  146.1760   69.6280  218.4490 O   0  0  0  0  0  0  0  0  0  0  0  0
  145.9240   68.1440  220.3640 O   0  0  0  0  0  0  0  0  0  0  0  0
  143.8440   69.6560  219.7450 C   0  0  0  0  0  0  0  0  0  0  0  0
  143.9550   70.8490  220.4270 C   0  0  0  0  0  0  0  0  0  0  0  0
  142.8300   71.5280  220.8400 C   0  0  0  0  0  0  0  0  0  0  0  0
  141.5400   71.0650  220.6010 C   0  0  0  0  0  0  0  0  0  0  0  0
  140.3890   71.8420  221.0700 C   0  0  0  0  0  0  0  0  0  0  0  0
  140.0250   71.9680  222.3080 C   0  0  0  0  0  0  0  0  0  0  0  0
  139.9230   71.0510  223.3990 C   0  0  0  0  0  0  0  0  0  0  0  0
  140.3850   71.5410  224.5960 N   0  0  0  0  0  0  0  0  0  0  0  0
  140.4520   70.8710  225.7270 C   0  0  0  0  0  0  0  0  0  0  0  0
  140.9390   71.4920  226.8530 C   0  0  0  0  0  0  0  0  0  0  0  0
  140.9760   70.7090  228.0070 C   0  0  0  0  0  0  0  0  0  0  0  0
  140.5620   69.4080  228.0430 C   0  0  0  0  0  0  0  0  0  0  0  0
  140.5960   68.6420  229.1590 F   0  0  0  0  0  0  0  0  0  0  0  0
  140.0780   68.8180  226.8880 C   0  0  0  0  0  0  0  0  0  0  0  0
  140.0320   69.5700  225.7400 C   0  0  0  0  0  0  0  0  0  0  0  0
  139.5630   69.0520  224.5590 C   0  0  0  0  0  0  0  0  0  0  0  0
  139.1890   67.8480  224.6000 O   0  0  0  0  0  0  0  0  0  0  0  0
  139.5030   69.7820  223.3910 N   0  0  0  0  0  0  0  0  0  0  0  0
  138.9800   69.0930  222.2650 C   0  0  0  0  0  0  0  0  0  0  0  0
  137.5320   68.7900  222.1960 C   0  0  0  0  0  0  0  0  0  0  0  0
  136.6820   69.5880  223.1920 C   0  0  0  0  0  0  0  0  0  0  0  0
  135.2340   69.1200  222.9710 C   0  0  0  0  0  0  0  0  0  0  0  0
  135.1730   67.7380  222.3710 C   0  0  0  0  0  0  0  0  0  0  0  0
  135.7270   67.7320  220.9620 C   0  0  0  0  0  0  0  0  0  0  0  0
  136.8030   68.8420  220.9200 C   0  0  0  0  0  0  0  0  0  0  0  0
  141.4350   69.8760  219.9230 C   0  0  0  0  0  0  0  0  0  0  0  0
  142.5750   69.1780  219.4990 C   0  0  0  0  0  0  0  0  0  0  0  0
  144.7392   66.3946  219.9717 H   0  0  0  0  0  0  0  0  0  0  0  0
  143.8236   65.5833  218.6563 H   0  0  0  0  0  0  0  0  0  0  0  0
  145.6195   65.5452  218.6563 H   0  0  0  0  0  0  0  0  0  0  0  0
  145.4943   67.3376  217.2797 H   0  0  0  0  0  0  0  0  0  0  0  0
  143.7746   67.6220  217.6503 H   0  0  0  0  0  0  0  0  0  0  0  0
  144.9511   71.2624  220.6433 H   0  0  0  0  0  0  0  0  0  0  0  0
  142.9569   72.4768  221.3819 H   0  0  0  0  0  0  0  0  0  0  0  0
  139.7853   72.3601  220.3103 H   0  0  0  0  0  0  0  0  0  0  0  0
  139.7340   72.9950  222.5738 H   0  0  0  0  0  0  0  0  0  0  0  0
  141.2775   72.5386  226.8444 H   0  0  0  0  0  0  0  0  0  0  0  0
  141.3576   71.1619  228.9340 H   0  0  0  0  0  0  0  0  0  0  0  0
  139.7384   67.7717  226.8898 H   0  0  0  0  0  0  0  0  0  0  0  0
  139.2211   69.6998  221.3798 H   0  0  0  0  0  0  0  0  0  0  0  0
  139.4460   68.0990  222.3346 H   0  0  0  0  0  0  0  0  0  0  0  0
  137.6336   67.7216  222.4371 H   0  0  0  0  0  0  0  0  0  0  0  0
  137.0003   69.3767  224.2235 H   0  0  0  0  0  0  0  0  0  0  0  0
  136.7865   70.6721  223.0380 H   0  0  0  0  0  0  0  0  0  0  0  0
  134.7121   69.1103  223.9393 H   0  0  0  0  0  0  0  0  0  0  0  0
  134.7548   69.8173  222.2680 H   0  0  0  0  0  0  0  0  0  0  0  0
  135.7644   67.0497  222.9927 H   0  0  0  0  0  0  0  0  0  0  0  0
  134.1211   67.4183  222.3348 H   0  0  0  0  0  0  0  0  0  0  0  0
  136.1773   66.7549  220.7329 H   0  0  0  0  0  0  0  0  0  0  0  0
  134.9363   67.9102  220.2183 H   0  0  0  0  0  0  0  0  0  0  0  0
  137.4948   68.6647  220.0833 H   0  0  0  0  0  0  0  0  0  0  0  0
  136.3399   69.8292  220.7750 H   0  0  0  0  0  0  0  0  0  0  0  0
  140.4383   69.4631  219.7084 H   0  0  0  0  0  0  0  0  0  0  0  0
  142.4537   68.2279  218.9581 H   0  0  0  0  0  0  0  0  0  0  0  0
  1  2  1  0
  2  3  1  0
  3  4  2  0
  3  5  2  0
  3  6  1  0
  6  7  2  0
  7  8  1  0
  8  9  2  0
  9 10  1  0
 10 11  2  0
 11 12  1  0
 12 13  2  0
 13 14  1  0
 14 15  2  0
 15 16  1  0
 16 17  2  0
 17 18  1  0
 17 19  1  0
 19 20  2  0
 20 21  1  0
 21 22  2  0
 21 23  1  0
 23 24  1  0
 24 25  1  0
 25 26  1  0
 26 27  1  0
 27 28  1  0
 28 29  1  0
 29 30  1  0
  9 31  1  0
 31 32  2  0
 32  6  1  0
 23 12  1  0
 30 25  1  0
 20 14  1  0
  1 33  1  0
  1 34  1  0
  1 35  1  0
  2 36  1  0
  2 37  1  0
  7 38  1  0
  8 39  1  0
 10 40  1  0
 11 41  1  0
 15 42  1  0
 16 43  1  0
 19 44  1  0
 24 45  1  0
 24 46  1  0
 25 47  1  0
 26 48  1  0
 26 49  1  0
 27 50  1  0
 27 51  1  0
 28 52  1  0
 28 53  1  0
 29 54  1  0
 29 55  1  0
 30 56  1  0
 30 57  1  0
 31 58  1  0
 32 59  1  0
M  END
>  <smiles>  (42) 
CCS(=O)(=O)c1ccc(/C=C/c2nc3ccc(F)cc3c(=O)n2CC2CCCCC2)cc1

>  <score_type>  (42) 
oracle

>  <origin>  (42) 
autodockgpu

>  <m_score__min__energy>  (42) 
-9.5

>  <m_primary>  (42) 
energy

>  <rmsd>  (42) 
11.196540391093263

>  <m_score__min__rmsd>  (42) 
11.196540391093263

>  <meeko>  (42) 
{"free_energy": -7.79, "intermolecular_energy": -9.88, "internal_energy": -1.72, "cluster_size": 1, "cluster_id": 7, "rank_in_cluster": 1}

>  <energy>  (42) 
-7.24

>  <cluster_rmsd>  (42) 
1.25

>  <cluster>  (42) 
4

$$$$

     RDKit          3D

 59 62  0  0  0  0  0  0  0  0999 V2000
  140.3290   70.6970  227.9410 C   0  0  0  0  0  0  0  0  0  0  0  0
  139.6450   69.3600  227.8390 C   0  0  0  0  0  0  0  0  0  0  0  0
  139.9680   68.7150  226.2180 S   0  0  0  0  0  0  0  0  0  0  0  0
  139.1740   67.4540  226.0700 O   0  0  0  0  0  0  0  0  0  0  0  0
  141.4190   68.3990  226.1240 O   0  0  0  0  0  0  0  0  0  0  0  0
  139.5400   69.8530  224.9590 C   0  0  0  0  0  0  0  0  0  0  0  0
  138.2950   69.8890  224.3680 C   0  0  0  0  0  0  0  0  0  0  0  0
  138.0150   70.8060  223.3810 C   0  0  0  0  0  0  0  0  0  0  0  0
  138.9460   71.7340  222.9270 C   0  0  0  0  0  0  0  0  0  0  0  0
  138.5750   72.6810  221.8720 C   0  0  0  0  0  0  0  0  0  0  0  0
  137.7660   73.6840  222.0150 C   0  0  0  0  0  0  0  0  0  0  0  0
  137.9660   75.0850  222.2140 C   0  0  0  0  0  0  0  0  0  0  0  0
  139.2840   75.4670  222.2680 N   0  0  0  0  0  0  0  0  0  0  0  0
  139.7220   76.6870  222.5010 C   0  0  0  0  0  0  0  0  0  0  0  0
  141.0760   76.9250  222.5270 C   0  0  0  0  0  0  0  0  0  0  0  0
  141.4530   78.2440  222.7810 C   0  0  0  0  0  0  0  0  0  0  0  0
  140.5560   79.2510  222.9940 C   0  0  0  0  0  0  0  0  0  0  0  0
  140.9140   80.5330  223.2420 F   0  0  0  0  0  0  0  0  0  0  0  0
  139.2010   78.9710  222.9600 C   0  0  0  0  0  0  0  0  0  0  0  0
  138.8060   77.6800  222.7110 C   0  0  0  0  0  0  0  0  0  0  0  0
  137.4810   77.3290  222.6620 C   0  0  0  0  0  0  0  0  0  0  0  0
  136.6590   78.2640  222.8660 O   0  0  0  0  0  0  0  0  0  0  0  0
  137.0530   76.0420  222.4120 N   0  0  0  0  0  0  0  0  0  0  0  0
  135.6460   75.8580  222.3850 C   0  0  0  0  0  0  0  0  0  0  0  0
  134.8800   75.8640  223.6530 C   0  0  0  0  0  0  0  0  0  0  0  0
  135.6220   75.2190  224.8300 C   0  0  0  0  0  0  0  0  0  0  0  0
  134.6620   75.3140  226.0280 C   0  0  0  0  0  0  0  0  0  0  0  0
  133.2230   75.4180  225.5910 C   0  0  0  0  0  0  0  0  0  0  0  0
  132.9660   76.7260  224.8740 C   0  0  0  0  0  0  0  0  0  0  0  0
  134.2960   77.1060  224.1840 C   0  0  0  0  0  0  0  0  0  0  0  0
  140.1840   71.6930  223.5180 C   0  0  0  0  0  0  0  0  0  0  0  0
  140.4790   70.7630  224.5240 C   0  0  0  0  0  0  0  0  0  0  0  0
  140.4636   70.9601  229.0005 H   0  0  0  0  0  0  0  0  0  0  0  0
  141.3112   70.6449  227.4485 H   0  0  0  0  0  0  0  0  0  0  0  0
  139.7120   71.4630  227.4485 H   0  0  0  0  0  0  0  0  0  0  0  0
  140.0442   68.6752  228.6017 H   0  0  0  0  0  0  0  0  0  0  0  0
  138.5627   69.4660  228.0042 H   0  0  0  0  0  0  0  0  0  0  0  0
  137.5187   69.1785  224.6882 H   0  0  0  0  0  0  0  0  0  0  0  0
  137.0110   70.8050  222.9315 H   0  0  0  0  0  0  0  0  0  0  0  0
  139.0192   72.5284  220.8773 H   0  0  0  0  0  0  0  0  0  0  0  0
  136.7049   73.3969  221.9748 H   0  0  0  0  0  0  0  0  0  0  0  0
  141.8142   76.1271  222.3584 H   0  0  0  0  0  0  0  0  0  0  0  0
  142.5260   78.4845  222.8112 H   0  0  0  0  0  0  0  0  0  0  0  0
  138.4579   79.7644  223.1286 H   0  0  0  0  0  0  0  0  0  0  0  0
  135.2313   76.6612  221.7582 H   0  0  0  0  0  0  0  0  0  0  0  0
  135.5298   74.8266  222.0207 H   0  0  0  0  0  0  0  0  0  0  0  0
  134.0327   75.2757  223.2709 H   0  0  0  0  0  0  0  0  0  0  0  0
  135.8545   74.1672  224.6070 H   0  0  0  0  0  0  0  0  0  0  0  0
  136.5777   75.7241  225.0339 H   0  0  0  0  0  0  0  0  0  0  0  0
  134.7802   74.4146  226.6501 H   0  0  0  0  0  0  0  0  0  0  0  0
  134.9124   76.2240  226.5930 H   0  0  0  0  0  0  0  0  0  0  0  0
  132.9924   74.5842  224.9116 H   0  0  0  0  0  0  0  0  0  0  0  0
  132.5821   75.3766  226.4841 H   0  0  0  0  0  0  0  0  0  0  0  0
  132.1698   76.6008  224.1254 H   0  0  0  0  0  0  0  0  0  0  0  0
  132.6381   77.5095  225.5730 H   0  0  0  0  0  0  0  0  0  0  0  0
  134.1064   77.8142  223.3640 H   0  0  0  0  0  0  0  0  0  0  0  0
  134.9823   77.5873  224.8963 H   0  0  0  0  0  0  0  0  0  0  0  0
  140.9594   72.4036  223.1959 H   0  0  0  0  0  0  0  0  0  0  0  0
  141.4818   70.7593  224.9762 H   0  0  0  0  0  0  0  0  0  0  0  0
  1  2  1  0
  2  3  1  0
  3  4  2  0
  3  5  2  0
  3  6  1  0
  6  7  2  0
  7  8  1  0
  8  9  2  0
  9 10  1  0
 10 11  2  0
 11 12  1  0
 12 13  2  0
 13 14  1  0
 14 15  2  0
 15 16  1  0
 16 17  2  0
 17 18  1  0
 17 19  1  0
 19 20  2  0
 20 21  1  0
 21 22  2  0
 21 23  1  0
 23 24  1  0
 24 25  1  0
 25 26  1  0
 26 27  1  0
 27 28  1  0
 28 29  1  0
 29 30  1  0
  9 31  1  0
 31 32  2  0
 32  6  1  0
 23 12  1  0
 30 25  1  0
 20 14  1  0
  1 33  1  0
  1 34  1  0
  1 35  1  0
  2 36  1  0
  2 37  1  0
  7 38  1  0
  8 39  1  0
 10 40  1  0
 11 41  1  0
 15 42  1  0
 16 43  1  0
 19 44  1  0
 24 45  1  0
 24 46  1  0
 25 47  1  0
 26 48  1  0
 26 49  1  0
 27 50  1  0
 27 51  1  0
 28 52  1  0
 28 53  1  0
 29 54  1  0
 29 55  1  0
 30 56  1  0
 30 57  1  0
 31 58  1  0
 32 59  1  0
M  END
>  <smiles>  (43) 
CCS(=O)(=O)c1ccc(/C=C/c2nc3ccc(F)cc3c(=O)n2CC2CCCCC2)cc1

>  <score_type>  (43) 
oracle

>  <origin>  (43) 
autodockgpu

>  <m_score__min__energy>  (43) 
-9.5

>  <m_primary>  (43) 
energy

>  <rmsd>  (43) 
7.321340091517289

>  <m_score__min__rmsd>  (43) 
7.321340091517289

>  <meeko>  (43) 
{"free_energy": -8.09, "intermolecular_energy": -10.18, "internal_energy": -1.54, "cluster_size": 10, "cluster_id": 4, "rank_in_cluster": 8}

>  <energy>  (43) 
-8.24

>  <cluster_rmsd>  (43) 
0.0

>  <cluster>  (43) 
5

$$$$

     RDKit          3D

 59 62  0  0  0  0  0  0  0  0999 V2000
  139.7350   70.4120  227.8780 C   0  0  0  0  0  0  0  0  0  0  0  0
  140.3530   69.0410  227.9360 C   0  0  0  0  0  0  0  0  0  0  0  0
  140.1290   68.2860  226.3450 S   0  0  0  0  0  0  0  0  0  0  0  0
  138.8170   67.5640  226.3720 O   0  0  0  0  0  0  0  0  0  0  0  0
  141.2280   67.3050  226.1360 O   0  0  0  0  0  0  0  0  0  0  0  0
  140.1470   69.4620  225.0500 C   0  0  0  0  0  0  0  0  0  0  0  0
  139.3350   69.3720  223.9390 C   0  0  0  0  0  0  0  0  0  0  0  0
  139.3930   70.3270  222.9500 C   0  0  0  0  0  0  0  0  0  0  0  0
  140.2530   71.4200  223.0050 C   0  0  0  0  0  0  0  0  0  0  0  0
  140.2600   72.3970  221.9140 C   0  0  0  0  0  0  0  0  0  0  0  0
  139.9140   73.6420  222.0210 C   0  0  0  0  0  0  0  0  0  0  0  0
  140.5330   74.8700  221.6300 C   0  0  0  0  0  0  0  0  0  0  0  0
  140.1910   75.9490  222.4090 N   0  0  0  0  0  0  0  0  0  0  0  0
  140.5810   77.1910  222.2140 C   0  0  0  0  0  0  0  0  0  0  0  0
  140.1590   78.1750  223.0770 C   0  0  0  0  0  0  0  0  0  0  0  0
  140.6180   79.4620  222.7980 C   0  0  0  0  0  0  0  0  0  0  0  0
  141.4350   79.7530  221.7430 C   0  0  0  0  0  0  0  0  0  0  0  0
  141.8840   81.0000  221.4660 F   0  0  0  0  0  0  0  0  0  0  0  0
  141.8390   78.7350  220.8970 C   0  0  0  0  0  0  0  0  0  0  0  0
  141.3990   77.4600  221.1520 C   0  0  0  0  0  0  0  0  0  0  0  0
  141.7590   76.4010  220.3570 C   0  0  0  0  0  0  0  0  0  0  0  0
  142.5090   76.6800  219.3810 O   0  0  0  0  0  0  0  0  0  0  0  0
  141.3360   75.1090  220.5890 N   0  0  0  0  0  0  0  0  0  0  0  0
  141.8140   74.1350  219.6740 C   0  0  0  0  0  0  0  0  0  0  0  0
  143.2010   73.6300  219.7950 C   0  0  0  0  0  0  0  0  0  0  0  0
  143.6640   72.7920  218.5970 C   0  0  0  0  0  0  0  0  0  0  0  0
  145.1030   72.3600  218.9250 C   0  0  0  0  0  0  0  0  0  0  0  0
  145.3660   72.3500  220.4100 C   0  0  0  0  0  0  0  0  0  0  0  0
  145.3180   73.7520  220.9790 C   0  0  0  0  0  0  0  0  0  0  0  0
  144.3170   74.5380  220.1010 C   0  0  0  0  0  0  0  0  0  0  0  0
  141.0600   71.5040  224.1120 C   0  0  0  0  0  0  0  0  0  0  0  0
  141.0080   70.5360  225.1250 C   0  0  0  0  0  0  0  0  0  0  0  0
  139.5680   70.7825  228.9002 H   0  0  0  0  0  0  0  0  0  0  0  0
  140.4114   71.0969  227.3457 H   0  0  0  0  0  0  0  0  0  0  0  0
  138.7738   70.3587  227.3457 H   0  0  0  0  0  0  0  0  0  0  0  0
  141.4258   69.1221  228.1654 H   0  0  0  0  0  0  0  0  0  0  0  0
  139.8784   68.4354  228.7221 H   0  0  0  0  0  0  0  0  0  0  0  0
  138.6347   68.5292  223.8425 H   0  0  0  0  0  0  0  0  0  0  0  0
  138.7308   70.2220  222.0779 H   0  0  0  0  0  0  0  0  0  0  0  0
  140.5851   72.0461  220.9235 H   0  0  0  0  0  0  0  0  0  0  0  0
  138.9416   73.7827  222.5157 H   0  0  0  0  0  0  0  0  0  0  0  0
  139.5016   77.9607  223.9325 H   0  0  0  0  0  0  0  0  0  0  0  0
  140.3067   80.2832  223.4603 H   0  0  0  0  0  0  0  0  0  0  0  0
  142.4972   78.9427  220.0405 H   0  0  0  0  0  0  0  0  0  0  0  0
  141.1488   73.2632  219.7604 H   0  0  0  0  0  0  0  0  0  0  0  0
  141.8199   74.6693  218.7125 H   0  0  0  0  0  0  0  0  0  0  0  0
  143.0268   73.0518  220.7144 H   0  0  0  0  0  0  0  0  0  0  0  0
  143.0176   71.9107  218.4723 H   0  0  0  0  0  0  0  0  0  0  0  0
  143.6147   73.3628  217.6580 H   0  0  0  0  0  0  0  0  0  0  0  0
  145.2689   71.3475  218.5283 H   0  0  0  0  0  0  0  0  0  0  0  0
  145.7888   73.0858  218.4637 H   0  0  0  0  0  0  0  0  0  0  0  0
  144.6018   71.7339  220.9065 H   0  0  0  0  0  0  0  0  0  0  0  0
  146.3694   71.9348  220.5854 H   0  0  0  0  0  0  0  0  0  0  0  0
  144.9730   73.7284  222.0232 H   0  0  0  0  0  0  0  0  0  0  0  0
  146.3125   74.2220  220.9730 H   0  0  0  0  0  0  0  0  0  0  0  0
  143.9476   75.4187  220.6468 H   0  0  0  0  0  0  0  0  0  0  0  0
  144.7997   74.8889  219.1769 H   0  0  0  0  0  0  0  0  0  0  0  0
  141.7608   72.3466  224.2063 H   0  0  0  0  0  0  0  0  0  0  0  0
  141.6687   70.6358  225.9988 H   0  0  0  0  0  0  0  0  0  0  0  0
  1  2  1  0
  2  3  1  0
  3  4  2  0
  3  5  2  0
  3  6  1  0
  6  7  2  0
  7  8  1  0
  8  9  2  0
  9 10  1  0
 10 11  2  0
 11 12  1  0
 12 13  2  0
 13 14  1  0
 14 15  2  0
 15 16  1  0
 16 17  2  0
 17 18  1  0
 17 19  1  0
 19 20  2  0
 20 21  1  0
 21 22  2  0
 21 23  1  0
 23 24  1  0
 24 25  1  0
 25 26  1  0
 26 27  1  0
 27 28  1  0
 28 29  1  0
 29 30  1  0
  9 31  1  0
 31 32  2  0
 32  6  1  0
 23 12  1  0
 30 25  1  0
 20 14  1  0
  1 33  1  0
  1 34  1  0
  1 35  1  0
  2 36  1  0
  2 37  1  0
  7 38  1  0
  8 39  1  0
 10 40  1  0
 11 41  1  0
 15 42  1  0
 16 43  1  0
 19 44  1  0
 24 45  1  0
 24 46  1  0
 25 47  1  0
 26 48  1  0
 26 49  1  0
 27 50  1  0
 27 51  1  0
 28 52  1  0
 28 53  1  0
 29 54  1  0
 29 55  1  0
 30 56  1  0
 30 57  1  0
 31 58  1  0
 32 59  1  0
M  END
>  <smiles>  (44) 
CCS(=O)(=O)c1ccc(/C=C/c2nc3ccc(F)cc3c(=O)n2CC2CCCCC2)cc1

>  <score_type>  (44) 
oracle

>  <origin>  (44) 
autodockgpu

>  <m_score__min__energy>  (44) 
-9.5

>  <m_primary>  (44) 
energy

>  <rmsd>  (44) 
5.030166607617208

>  <m_score__min__rmsd>  (44) 
5.030166607617208

>  <meeko>  (44) 
{"free_energy": -8.66, "intermolecular_energy": -10.75, "internal_energy": -1.31, "cluster_size": 17, "cluster_id": 2, "rank_in_cluster": 8}

>  <energy>  (44) 
-8.19

>  <cluster_rmsd>  (44) 
0.58

>  <cluster>  (44) 
5

$$$$

     RDKit          3D

 59 62  0  0  0  0  0  0  0  0999 V2000
  146.2990   73.6760  216.4760 C   0  0  0  0  0  0  0  0  0  0  0  0
  144.9980   73.6800  217.2320 C   0  0  0  0  0  0  0  0  0  0  0  0
  145.2570   72.7870  218.7450 S   0  0  0  0  0  0  0  0  0  0  0  0
  146.4240   73.4150  219.4430 O   0  0  0  0  0  0  0  0  0  0  0  0
  145.5870   71.3770  218.4020 O   0  0  0  0  0  0  0  0  0  0  0  0
  143.8440   72.8170  219.7770 C   0  0  0  0  0  0  0  0  0  0  0  0
  143.1060   73.9580  220.0090 C   0  0  0  0  0  0  0  0  0  0  0  0
  142.0030   73.9230  220.8320 C   0  0  0  0  0  0  0  0  0  0  0  0
  141.5720   72.7620  221.4670 C   0  0  0  0  0  0  0  0  0  0  0  0
  140.3880   72.8010  222.3300 C   0  0  0  0  0  0  0  0  0  0  0  0
  139.6370   71.7840  222.6170 C   0  0  0  0  0  0  0  0  0  0  0  0
  139.6620   70.8100  223.6630 C   0  0  0  0  0  0  0  0  0  0  0  0
  140.1760   71.2680  224.8510 N   0  0  0  0  0  0  0  0  0  0  0  0
  140.3590   70.5480  225.9390 C   0  0  0  0  0  0  0  0  0  0  0  0
  140.8850   71.1420  227.0610 C   0  0  0  0  0  0  0  0  0  0  0  0
  141.0460   70.3060  228.1680 C   0  0  0  0  0  0  0  0  0  0  0  0
  140.7110   68.9830  228.1610 C   0  0  0  0  0  0  0  0  0  0  0  0
  140.8640   68.1660  229.2310 F   0  0  0  0  0  0  0  0  0  0  0  0
  140.1830   68.4220  227.0110 C   0  0  0  0  0  0  0  0  0  0  0  0
  140.0160   69.2250  225.9100 C   0  0  0  0  0  0  0  0  0  0  0  0
  139.4980   68.7390  224.7360 C   0  0  0  0  0  0  0  0  0  0  0  0
  139.1970   67.5130  224.7370 O   0  0  0  0  0  0  0  0  0  0  0  0
  139.3160   69.5190  223.6140 N   0  0  0  0  0  0  0  0  0  0  0  0
  138.7580   68.8560  222.4900 C   0  0  0  0  0  0  0  0  0  0  0  0
  139.5500   68.7300  221.2450 C   0  0  0  0  0  0  0  0  0  0  0  0
  139.8680   67.2810  220.8550 C   0  0  0  0  0  0  0  0  0  0  0  0
  140.6960   67.3710  219.5630 C   0  0  0  0  0  0  0  0  0  0  0  0
  141.4020   68.6980  219.4350 C   0  0  0  0  0  0  0  0  0  0  0  0
  140.4090   69.8260  219.2550 C   0  0  0  0  0  0  0  0  0  0  0  0
  139.1260   69.3920  220.0020 C   0  0  0  0  0  0  0  0  0  0  0  0
  142.3120   71.6300  221.2330 C   0  0  0  0  0  0  0  0  0  0  0  0
  143.4360   71.6560  220.3970 C   0  0  0  0  0  0  0  0  0  0  0  0
  147.1371   73.6734  217.1885 H   0  0  0  0  0  0  0  0  0  0  0  0
  146.3527   72.7777  215.8434 H   0  0  0  0  0  0  0  0  0  0  0  0
  146.3583   74.5740  215.8434 H   0  0  0  0  0  0  0  0  0  0  0  0
  144.6954   74.7141  217.4534 H   0  0  0  0  0  0  0  0  0  0  0  0
  144.2021   73.2096  216.6359 H   0  0  0  0  0  0  0  0  0  0  0  0
  143.4010   74.9045  219.5325 H   0  0  0  0  0  0  0  0  0  0  0  0
  141.4380   74.8527  220.9947 H   0  0  0  0  0  0  0  0  0  0  0  0
  140.1145   73.7715  222.7697 H   0  0  0  0  0  0  0  0  0  0  0  0
  138.8081   71.6408  221.9082 H   0  0  0  0  0  0  0  0  0  0  0  0
  141.1612   72.2065  227.0856 H   0  0  0  0  0  0  0  0  0  0  0  0
  141.4634   70.7349  229.0910 H   0  0  0  0  0  0  0  0  0  0  0  0
  139.9039   67.3584  226.9800 H   0  0  0  0  0  0  0  0  0  0  0  0
  138.5078   67.8349  222.8137 H   0  0  0  0  0  0  0  0  0  0  0  0
  137.9219   69.5080  222.1970 H   0  0  0  0  0  0  0  0  0  0  0  0
  140.4146   69.3049  221.6083 H   0  0  0  0  0  0  0  0  0  0  0  0
  140.4483   66.7885  221.6491 H   0  0  0  0  0  0  0  0  0  0  0  0
  138.9523   66.6889  220.7104 H   0  0  0  0  0  0  0  0  0  0  0  0
  141.4476   66.5678  219.5663 H   0  0  0  0  0  0  0  0  0  0  0  0
  140.0079   67.2689  218.7109 H   0  0  0  0  0  0  0  0  0  0  0  0
  141.9925   68.8805  220.3449 H   0  0  0  0  0  0  0  0  0  0  0  0
  142.0562   68.6629  218.5514 H   0  0  0  0  0  0  0  0  0  0  0  0
  140.8059   70.7565  219.6870 H   0  0  0  0  0  0  0  0  0  0  0  0
  140.2084   70.0186  218.1907 H   0  0  0  0  0  0  0  0  0  0  0  0
  138.5095   70.2726  220.2353 H   0  0  0  0  0  0  0  0  0  0  0  0
  138.5245   68.7109  219.3821 H   0  0  0  0  0  0  0  0  0  0  0  0
  142.0169   70.6842  221.7110 H   0  0  0  0  0  0  0  0  0  0  0  0
  144.0053   70.7293  220.2320 H   0  0  0  0  0  0  0  0  0  0  0  0
  1  2  1  0
  2  3  1  0
  3  4  2  0
  3  5  2  0
  3  6  1  0
  6  7  2  0
  7  8  1  0
  8  9  2  0
  9 10  1  0
 10 11  2  0
 11 12  1  0
 12 13  2  0
 13 14  1  0
 14 15  2  0
 15 16  1  0
 16 17  2  0
 17 18  1  0
 17 19  1  0
 19 20  2  0
 20 21  1  0
 21 22  2  0
 21 23  1  0
 23 24  1  0
 24 25  1  0
 25 26  1  0
 26 27  1  0
 27 28  1  0
 28 29  1  0
 29 30  1  0
  9 31  1  0
 31 32  2  0
 32  6  1  0
 23 12  1  0
 30 25  1  0
 20 14  1  0
  1 33  1  0
  1 34  1  0
  1 35  1  0
  2 36  1  0
  2 37  1  0
  7 38  1  0
  8 39  1  0
 10 40  1  0
 11 41  1  0
 15 42  1  0
 16 43  1  0
 19 44  1  0
 24 45  1  0
 24 46  1  0
 25 47  1  0
 26 48  1  0
 26 49  1  0
 27 50  1  0
 27 51  1  0
 28 52  1  0
 28 53  1  0
 29 54  1  0
 29 55  1  0
 30 56  1  0
 30 57  1  0
 31 58  1  0
 32 59  1  0
M  END
>  <smiles>  (45) 
CCS(=O)(=O)c1ccc(/C=C/c2nc3ccc(F)cc3c(=O)n2CC2CCCCC2)cc1

>  <score_type>  (45) 
oracle

>  <origin>  (45) 
autodockgpu

>  <m_score__min__energy>  (45) 
-9.5

>  <m_primary>  (45) 
energy

>  <rmsd>  (45) 
11.056938892390287

>  <m_score__min__rmsd>  (45) 
11.056938892390287

>  <meeko>  (45) 
{"free_energy": -8.08, "intermolecular_energy": -10.16, "internal_energy": -2.0, "cluster_size": 9, "cluster_id": 3, "rank_in_cluster": 6}

>  <energy>  (45) 
-8.16

>  <cluster_rmsd>  (45) 
1.45

>  <cluster>  (45) 
5

$$$$

     RDKit          3D

 59 62  0  0  0  0  0  0  0  0999 V2000
  140.2860   70.6220  227.9820 C   0  0  0  0  0  0  0  0  0  0  0  0
  139.6900   69.2410  227.9130 C   0  0  0  0  0  0  0  0  0  0  0  0
  140.0060   68.6020  226.2880 S   0  0  0  0  0  0  0  0  0  0  0  0
  139.1460   67.3890  226.1070 O   0  0  0  0  0  0  0  0  0  0  0  0
  141.4380   68.2070  226.2130 O   0  0  0  0  0  0  0  0  0  0  0  0
  139.6640   69.7800  225.0400 C   0  0  0  0  0  0  0  0  0  0  0  0
  140.5920   70.6970  224.5950 C   0  0  0  0  0  0  0  0  0  0  0  0
  140.2660   71.6010  223.6100 C   0  0  0  0  0  0  0  0  0  0  0  0
  139.0100   71.6480  223.0130 C   0  0  0  0  0  0  0  0  0  0  0  0
  138.7360   72.6390  221.9700 C   0  0  0  0  0  0  0  0  0  0  0  0
  139.3750   73.7560  221.8110 C   0  0  0  0  0  0  0  0  0  0  0  0
  139.0570   75.1190  222.0990 C   0  0  0  0  0  0  0  0  0  0  0  0
  140.1480   75.9130  222.3550 N   0  0  0  0  0  0  0  0  0  0  0  0
  140.1110   77.1830  222.7030 C   0  0  0  0  0  0  0  0  0  0  0  0
  141.2880   77.8560  222.9290 C   0  0  0  0  0  0  0  0  0  0  0  0
  141.1570   79.1960  223.2940 C   0  0  0  0  0  0  0  0  0  0  0  0
  139.9510   79.8210  223.4260 C   0  0  0  0  0  0  0  0  0  0  0  0
  139.8160   81.1210  223.7810 F   0  0  0  0  0  0  0  0  0  0  0  0
  138.7870   79.1090  223.1900 C   0  0  0  0  0  0  0  0  0  0  0  0
  138.8920   77.7890  222.8290 C   0  0  0  0  0  0  0  0  0  0  0  0
  137.7830   77.0210  222.5780 C   0  0  0  0  0  0  0  0  0  0  0  0
  136.6720   77.6050  222.7080 O   0  0  0  0  0  0  0  0  0  0  0  0
  137.8550   75.6930  222.2120 N   0  0  0  0  0  0  0  0  0  0  0  0
  136.6100   75.0530  221.9800 C   0  0  0  0  0  0  0  0  0  0  0  0
  135.7650   74.6530  223.1290 C   0  0  0  0  0  0  0  0  0  0  0  0
  135.8030   73.1500  223.4350 C   0  0  0  0  0  0  0  0  0  0  0  0
  134.8610   72.9470  224.6330 C   0  0  0  0  0  0  0  0  0  0  0  0
  133.8240   74.0370  224.7290 C   0  0  0  0  0  0  0  0  0  0  0  0
  134.4650   75.3700  225.0510 C   0  0  0  0  0  0  0  0  0  0  0  0
  135.8810   75.3270  224.4310 C   0  0  0  0  0  0  0  0  0  0  0  0
  138.0890   70.7340  223.4610 C   0  0  0  0  0  0  0  0  0  0  0  0
  138.4120   69.8090  224.4640 C   0  0  0  0  0  0  0  0  0  0  0  0
  140.4123   70.9147  229.0348 H   0  0  0  0  0  0  0  0  0  0  0  0
  141.2652   70.6242  227.4808 H   0  0  0  0  0  0  0  0  0  0  0  0
  139.6159   71.3360  227.4808 H   0  0  0  0  0  0  0  0  0  0  0  0
  140.1573   68.5924  228.6687 H   0  0  0  0  0  0  0  0  0  0  0  0
  138.6086   69.2762  228.1111 H   0  0  0  0  0  0  0  0  0  0  0  0
  141.6018   70.7062  225.0310 H   0  0  0  0  0  0  0  0  0  0  0  0
  141.0321   72.3181  223.2800 H   0  0  0  0  0  0  0  0  0  0  0  0
  137.9219   72.4177  221.2641 H   0  0  0  0  0  0  0  0  0  0  0  0
  140.3701   73.6274  221.3601 H   0  0  0  0  0  0  0  0  0  0  0  0
  142.2695   77.3695  222.8286 H   0  0  0  0  0  0  0  0  0  0  0  0
  142.0709   79.7776  223.4849 H   0  0  0  0  0  0  0  0  0  0  0  0
  137.8025   79.5895  223.2894 H   0  0  0  0  0  0  0  0  0  0  0  0
  136.0085   75.7387  221.3652 H   0  0  0  0  0  0  0  0  0  0  0  0
  136.8963   74.0928  221.5261 H   0  0  0  0  0  0  0  0  0  0  0  0
  134.8180   75.0060  222.6948 H   0  0  0  0  0  0  0  0  0  0  0  0
  135.4506   72.5727  222.5675 H   0  0  0  0  0  0  0  0  0  0  0  0
  136.8238   72.8060  223.6576 H   0  0  0  0  0  0  0  0  0  0  0  0
  134.3496   71.9794  224.5223 H   0  0  0  0  0  0  0  0  0  0  0  0
  135.4679   72.9746  225.5500 H   0  0  0  0  0  0  0  0  0  0  0  0
  133.2947   74.1154  223.7679 H   0  0  0  0  0  0  0  0  0  0  0  0
  133.1219   73.7821  225.5365 H   0  0  0  0  0  0  0  0  0  0  0  0
  133.8803   76.1909  224.6104 H   0  0  0  0  0  0  0  0  0  0  0  0
  134.5071   75.5435  226.1364 H   0  0  0  0  0  0  0  0  0  0  0  0
  136.2635   76.3492  224.2936 H   0  0  0  0  0  0  0  0  0  0  0  0
  136.5792   74.7886  225.0887 H   0  0  0  0  0  0  0  0  0  0  0  0
  137.0791   70.7271  223.0251 H   0  0  0  0  0  0  0  0  0  0  0  0
  137.6493   69.0905  224.7987 H   0  0  0  0  0  0  0  0  0  0  0  0
  1  2  1  0
  2  3  1  0
  3  4  2  0
  3  5  2  0
  3  6  1  0
  6  7  2  0
  7  8  1  0
  8  9  2  0
  9 10  1  0
 10 11  2  0
 11 12  1  0
 12 13  2  0
 13 14  1  0
 14 15  2  0
 15 16  1  0
 16 17  2  0
 17 18  1  0
 17 19  1  0
 19 20  2  0
 20 21  1  0
 21 22  2  0
 21 23  1  0
 23 24  1  0
 24 25  1  0
 25 26  1  0
 26 27  1  0
 27 28  1  0
 28 29  1  0
 29 30  1  0
  9 31  1  0
 31 32  2  0
 32  6  1  0
 23 12  1  0
 30 25  1  0
 20 14  1  0
  1 33  1  0
  1 34  1  0
  1 35  1  0
  2 36  1  0
  2 37  1  0
  7 38  1  0
  8 39  1  0
 10 40  1  0
 11 41  1  0
 15 42  1  0
 16 43  1  0
 19 44  1  0
 24 45  1  0
 24 46  1  0
 25 47  1  0
 26 48  1  0
 26 49  1  0
 27 50  1  0
 27 51  1  0
 28 52  1  0
 28 53  1  0
 29 54  1  0
 29 55  1  0
 30 56  1  0
 30 57  1  0
 31 58  1  0
 32 59  1  0
M  END
>  <smiles>  (46) 
CCS(=O)(=O)c1ccc(/C=C/c2nc3ccc(F)cc3c(=O)n2CC2CCCCC2)cc1

>  <score_type>  (46) 
oracle

>  <origin>  (46) 
autodockgpu

>  <m_score__min__energy>  (46) 
-9.5

>  <m_primary>  (46) 
energy

>  <rmsd>  (46) 
6.793988539959058

>  <m_score__min__rmsd>  (46) 
6.793988539959058

>  <meeko>  (46) 
{"free_energy": -8.41, "intermolecular_energy": -10.5, "internal_energy": -1.77, "cluster_size": 10, "cluster_id": 4, "rank_in_cluster": 5}

>  <energy>  (46) 
-8.06

>  <cluster_rmsd>  (46) 
0.72

>  <cluster>  (46) 
5

$$$$

     RDKit          3D

 59 62  0  0  0  0  0  0  0  0999 V2000
  139.9170   67.3350  226.1760 C   0  0  0  0  0  0  0  0  0  0  0  0
  140.8620   68.1000  227.0630 C   0  0  0  0  0  0  0  0  0  0  0  0
  140.2000   69.7340  227.2680 S   0  0  0  0  0  0  0  0  0  0  0  0
  141.1470   70.4960  228.1430 O   0  0  0  0  0  0  0  0  0  0  0  0
  138.8820   69.6200  227.9480 O   0  0  0  0  0  0  0  0  0  0  0  0
  139.9930   70.5560  225.7380 C   0  0  0  0  0  0  0  0  0  0  0  0
  140.8840   71.4950  225.2610 C   0  0  0  0  0  0  0  0  0  0  0  0
  140.6700   72.1110  224.0490 C   0  0  0  0  0  0  0  0  0  0  0  0
  139.5670   71.8340  223.2460 C   0  0  0  0  0  0  0  0  0  0  0  0
  139.4060   72.5310  221.9670 C   0  0  0  0  0  0  0  0  0  0  0  0
  139.1350   73.7910  221.8290 C   0  0  0  0  0  0  0  0  0  0  0  0
  139.9420   74.9490  221.6020 C   0  0  0  0  0  0  0  0  0  0  0  0
  139.6180   76.0280  222.3880 N   0  0  0  0  0  0  0  0  0  0  0  0
  140.1730   77.2210  222.3230 C   0  0  0  0  0  0  0  0  0  0  0  0
  139.7460   78.2110  223.1760 C   0  0  0  0  0  0  0  0  0  0  0  0
  140.3870   79.4430  223.0390 C   0  0  0  0  0  0  0  0  0  0  0  0
  141.3750   79.6760  222.1270 C   0  0  0  0  0  0  0  0  0  0  0  0
  142.0010   80.8690  221.9880 F   0  0  0  0  0  0  0  0  0  0  0  0
  141.7770   78.6530  221.2860 C   0  0  0  0  0  0  0  0  0  0  0  0
  141.1610   77.4310  221.4020 C   0  0  0  0  0  0  0  0  0  0  0  0
  141.5070   76.3710  220.6030 C   0  0  0  0  0  0  0  0  0  0  0  0
  142.4170   76.5970  219.7580 O   0  0  0  0  0  0  0  0  0  0  0  0
  140.9090   75.1320  220.6970 N   0  0  0  0  0  0  0  0  0  0  0  0
  141.3980   74.1460  219.8010 C   0  0  0  0  0  0  0  0  0  0  0  0
  142.6890   73.4760  220.0790 C   0  0  0  0  0  0  0  0  0  0  0  0
  142.5440   72.0340  220.5830 C   0  0  0  0  0  0  0  0  0  0  0  0
  143.9780   71.5330  220.8220 C   0  0  0  0  0  0  0  0  0  0  0  0
  144.9390   72.6670  221.0710 C   0  0  0  0  0  0  0  0  0  0  0  0
  145.1040   73.5210  219.8320 C   0  0  0  0  0  0  0  0  0  0  0  0
  143.7600   73.4390  219.0720 C   0  0  0  0  0  0  0  0  0  0  0  0
  138.6840   70.9010  223.7260 C   0  0  0  0  0  0  0  0  0  0  0  0
  138.8940   70.2680  224.9590 C   0  0  0  0  0  0  0  0  0  0  0  0
  139.2117   66.7640  226.7977 H   0  0  0  0  0  0  0  0  0  0  0  0
  139.3592   68.0390  225.5410 H   0  0  0  0  0  0  0  0  0  0  0  0
  140.4894   66.6428  225.5410 H   0  0  0  0  0  0  0  0  0  0  0  0
  140.9441   67.6030  228.0409 H   0  0  0  0  0  0  0  0  0  0  0  0
  141.8651   68.1428  226.6135 H   0  0  0  0  0  0  0  0  0  0  0  0
  141.7733   71.7537  225.8545 H   0  0  0  0  0  0  0  0  0  0  0  0
  141.4019   72.8542  223.6998 H   0  0  0  0  0  0  0  0  0  0  0  0
  139.5248   71.9364  221.0492 H   0  0  0  0  0  0  0  0  0  0  0  0
  138.0607   74.0161  221.9016 H   0  0  0  0  0  0  0  0  0  0  0  0
  138.9513   78.0430  223.9178 H   0  0  0  0  0  0  0  0  0  0  0  0
  140.0805   80.2677  223.6993 H   0  0  0  0  0  0  0  0  0  0  0  0
  142.5711   78.8148  220.5422 H   0  0  0  0  0  0  0  0  0  0  0  0
  140.6340   73.3564  219.7481 H   0  0  0  0  0  0  0  0  0  0  0  0
  141.5978   74.7139  218.8803 H   0  0  0  0  0  0  0  0  0  0  0  0
  143.0227   74.1947  220.8420 H   0  0  0  0  0  0  0  0  0  0  0  0
  141.9681   72.0108  221.5199 H   0  0  0  0  0  0  0  0  0  0  0  0
  142.0075   71.4022  219.8598 H   0  0  0  0  0  0  0  0  0  0  0  0
  143.9801   70.8672  221.6976 H   0  0  0  0  0  0  0  0  0  0  0  0
  144.3072   71.0017  219.9168 H   0  0  0  0  0  0  0  0  0  0  0  0
  144.5532   73.2921  221.8898 H   0  0  0  0  0  0  0  0  0  0  0  0
  145.9187   72.2437  221.3376 H   0  0  0  0  0  0  0  0  0  0  0  0
  145.3211   74.5623  220.1123 H   0  0  0  0  0  0  0  0  0  0  0  0
  145.9396   73.1685  219.2095 H   0  0  0  0  0  0  0  0  0  0  0  0
  143.6621   74.2932  218.3859 H   0  0  0  0  0  0  0  0  0  0  0  0
  143.7039   72.5164  218.4756 H   0  0  0  0  0  0  0  0  0  0  0  0
  137.7942   70.6445  223.1323 H   0  0  0  0  0  0  0  0  0  0  0  0
  138.1646   69.5244  225.3125 H   0  0  0  0  0  0  0  0  0  0  0  0
  1  2  1  0
  2  3  1  0
  3  4  2  0
  3  5  2  0
  3  6  1  0
  6  7  2  0
  7  8  1  0
  8  9  2  0
  9 10  1  0
 10 11  2  0
 11 12  1  0
 12 13  2  0
 13 14  1  0
 14 15  2  0
 15 16  1  0
 16 17  2  0
 17 18  1  0
 17 19  1  0
 19 20  2  0
 20 21  1  0
 21 22  2  0
 21 23  1  0
 23 24  1  0
 24 25  1  0
 25 26  1  0
 26 27  1  0
 27 28  1  0
 28 29  1  0
 29 30  1  0
  9 31  1  0
 31 32  2  0
 32  6  1  0
 23 12  1  0
 30 25  1  0
 20 14  1  0
  1 33  1  0
  1 34  1  0
  1 35  1  0
  2 36  1  0
  2 37  1  0
  7 38  1  0
  8 39  1  0
 10 40  1  0
 11 41  1  0
 15 42  1  0
 16 43  1  0
 19 44  1  0
 24 45  1  0
 24 46  1  0
 25 47  1  0
 26 48  1  0
 26 49  1  0
 27 50  1  0
 27 51  1  0
 28 52  1  0
 28 53  1  0
 29 54  1  0
 29 55  1  0
 30 56  1  0
 30 57  1  0
 31 58  1  0
 32 59  1  0
M  END
>  <smiles>  (47) 
CCS(=O)(=O)c1ccc(/C=C/c2nc3ccc(F)cc3c(=O)n2CC2CCCCC2)cc1

>  <score_type>  (47) 
oracle

>  <origin>  (47) 
autodockgpu

>  <m_score__min__energy>  (47) 
-9.5

>  <m_primary>  (47) 
energy

>  <rmsd>  (47) 
5.16891505361934

>  <m_score__min__rmsd>  (47) 
5.16891505361934

>  <meeko>  (47) 
{"free_energy": -7.97, "intermolecular_energy": -10.05, "internal_energy": -1.72, "cluster_size": 17, "cluster_id": 2, "rank_in_cluster": 17}

>  <energy>  (47) 
-7.89

>  <cluster_rmsd>  (47) 
0.86

>  <cluster>  (47) 
5

$$$$

     RDKit          3D

 59 62  0  0  0  0  0  0  0  0999 V2000
  140.6680   68.2570  227.3130 C   0  0  0  0  0  0  0  0  0  0  0  0
  139.5180   69.2180  227.1720 C   0  0  0  0  0  0  0  0  0  0  0  0
  138.8090   68.9720  225.5640 S   0  0  0  0  0  0  0  0  0  0  0  0
  137.3200   69.0020  225.7210 O   0  0  0  0  0  0  0  0  0  0  0  0
  139.2260   67.6310  225.0720 O   0  0  0  0  0  0  0  0  0  0  0  0
  139.3240   70.1940  224.4230 C   0  0  0  0  0  0  0  0  0  0  0  0
  138.5100   70.6820  223.4240 C   0  0  0  0  0  0  0  0  0  0  0  0
  138.9690   71.6440  222.5530 C   0  0  0  0  0  0  0  0  0  0  0  0
  140.2540   72.1730  222.6220 C   0  0  0  0  0  0  0  0  0  0  0  0
  140.6740   73.1950  221.6600 C   0  0  0  0  0  0  0  0  0  0  0  0
  140.1770   74.3900  221.5720 C   0  0  0  0  0  0  0  0  0  0  0  0
  140.7580   75.6830  221.3890 C   0  0  0  0  0  0  0  0  0  0  0  0
  140.4480   76.5870  222.3750 N   0  0  0  0  0  0  0  0  0  0  0  0
  140.8110   77.8530  222.3990 C   0  0  0  0  0  0  0  0  0  0  0  0
  140.4260   78.6460  223.4540 C   0  0  0  0  0  0  0  0  0  0  0  0
  140.8530   79.9730  223.4000 C   0  0  0  0  0  0  0  0  0  0  0  0
  141.6040   80.4760  222.3770 C   0  0  0  0  0  0  0  0  0  0  0  0
  142.0210   81.7630  222.3170 F   0  0  0  0  0  0  0  0  0  0  0  0
  141.9720   79.6460  221.3320 C   0  0  0  0  0  0  0  0  0  0  0  0
  141.5630   78.3360  221.3650 C   0  0  0  0  0  0  0  0  0  0  0  0
  141.8900   77.4550  220.3650 C   0  0  0  0  0  0  0  0  0  0  0  0
  142.5790   77.9300  219.4200 O   0  0  0  0  0  0  0  0  0  0  0  0
  141.4970   76.1330  220.3700 N   0  0  0  0  0  0  0  0  0  0  0  0
  141.9330   75.3600  219.2620 C   0  0  0  0  0  0  0  0  0  0  0  0
  143.1080   74.4700  219.4040 C   0  0  0  0  0  0  0  0  0  0  0  0
  143.6500   73.9380  218.0720 C   0  0  0  0  0  0  0  0  0  0  0  0
  144.8400   73.0370  218.4380 C   0  0  0  0  0  0  0  0  0  0  0  0
  144.7340   72.5030  219.8440 C   0  0  0  0  0  0  0  0  0  0  0  0
  144.8570   73.6190  220.8590 C   0  0  0  0  0  0  0  0  0  0  0  0
  144.2890   74.8850  220.1760 C   0  0  0  0  0  0  0  0  0  0  0  0
  141.0610   71.6820  223.6180 C   0  0  0  0  0  0  0  0  0  0  0  0
  140.6020   70.7030  224.5090 C   0  0  0  0  0  0  0  0  0  0  0  0
  140.8736   68.0852  228.3799 H   0  0  0  0  0  0  0  0  0  0  0  0
  140.4095   67.3026  226.8311 H   0  0  0  0  0  0  0  0  0  0  0  0
  141.5613   68.6810  226.8311 H   0  0  0  0  0  0  0  0  0  0  0  0
  138.7650   69.0187  227.9487 H   0  0  0  0  0  0  0  0  0  0  0  0
  139.8647   70.2556  227.2872 H   0  0  0  0  0  0  0  0  0  0  0  0
  137.4838   70.2992  223.3216 H   0  0  0  0  0  0  0  0  0  0  0  0
  138.2905   72.0104  221.7685 H   0  0  0  0  0  0  0  0  0  0  0  0
  141.4754   72.9275  220.9556 H   0  0  0  0  0  0  0  0  0  0  0  0
  139.0804   74.4130  221.6556 H   0  0  0  0  0  0  0  0  0  0  0  0
  139.8204   78.2592  224.2868 H   0  0  0  0  0  0  0  0  0  0  0  0
  140.5707   80.6471  224.2221 H   0  0  0  0  0  0  0  0  0  0  0  0
  142.5771   80.0267  220.4960 H   0  0  0  0  0  0  0  0  0  0  0  0
  141.0861   74.7247  218.9635 H   0  0  0  0  0  0  0  0  0  0  0  0
  142.2716   76.1172  218.5395 H   0  0  0  0  0  0  0  0  0  0  0  0
  142.5978   73.7164  220.0219 H   0  0  0  0  0  0  0  0  0  0  0  0
  142.8766   73.3578  217.5474 H   0  0  0  0  0  0  0  0  0  0  0  0
  143.9509   74.7555  217.4003 H   0  0  0  0  0  0  0  0  0  0  0  0
  144.8719   72.1892  217.7378 H   0  0  0  0  0  0  0  0  0  0  0  0
  145.7563   73.6421  218.3730 H   0  0  0  0  0  0  0  0  0  0  0  0
  143.7590   72.0093  219.9687 H   0  0  0  0  0  0  0  0  0  0  0  0
  145.5526   71.7871  220.0095 H   0  0  0  0  0  0  0  0  0  0  0  0
  144.2763   73.3794  221.7620 H   0  0  0  0  0  0  0  0  0  0  0  0
  145.9017   73.7652  221.1707 H   0  0  0  0  0  0  0  0  0  0  0  0
  144.0010   75.6262  220.9360 H   0  0  0  0  0  0  0  0  0  0  0  0
  145.0421   75.3459  219.5200 H   0  0  0  0  0  0  0  0  0  0  0  0
  142.0875   72.0644  223.7185 H   0  0  0  0  0  0  0  0  0  0  0  0
  141.2767   70.3323  225.2948 H   0  0  0  0  0  0  0  0  0  0  0  0
  1  2  1  0
  2  3  1  0
  3  4  2  0
  3  5  2  0
  3  6  1  0
  6  7  2  0
  7  8  1  0
  8  9  2  0
  9 10  1  0
 10 11  2  0
 11 12  1  0
 12 13  2  0
 13 14  1  0
 14 15  2  0
 15 16  1  0
 16 17  2  0
 17 18  1  0
 17 19  1  0
 19 20  2  0
 20 21  1  0
 21 22  2  0
 21 23  1  0
 23 24  1  0
 24 25  1  0
 25 26  1  0
 26 27  1  0
 27 28  1  0
 28 29  1  0
 29 30  1  0
  9 31  1  0
 31 32  2  0
 32  6  1  0
 23 12  1  0
 30 25  1  0
 20 14  1  0
  1 33  1  0
  1 34  1  0
  1 35  1  0
  2 36  1  0
  2 37  1  0
  7 38  1  0
  8 39  1  0
 10 40  1  0
 11 41  1  0
 15 42  1  0
 16 43  1  0
 19 44  1  0
 24 45  1  0
 24 46  1  0
 25 47  1  0
 26 48  1  0
 26 49  1  0
 27 50  1  0
 27 51  1  0
 28 52  1  0
 28 53  1  0
 29 54  1  0
 29 55  1  0
 30 56  1  0
 30 57  1  0
 31 58  1  0
 32 59  1  0
M  END
>  <smiles>  (48) 
CCS(=O)(=O)c1ccc(/C=C/c2nc3ccc(F)cc3c(=O)n2CC2CCCCC2)cc1

>  <score_type>  (48) 
oracle

>  <origin>  (48) 
autodockgpu

>  <m_score__min__energy>  (48) 
-9.5

>  <m_primary>  (48) 
energy

>  <rmsd>  (48) 
4.376016627772298

>  <m_score__min__rmsd>  (48) 
4.376016627772298

>  <meeko>  (48) 
{"free_energy": -8.12, "intermolecular_energy": -10.21, "internal_energy": -1.56, "cluster_size": 17, "cluster_id": 2, "rank_in_cluster": 15}

>  <energy>  (48) 
-8.23

>  <cluster_rmsd>  (48) 
0.0

>  <cluster>  (48) 
6

$$$$

     RDKit          3D

 59 62  0  0  0  0  0  0  0  0999 V2000
  140.2950   70.3360  228.1550 C   0  0  0  0  0  0  0  0  0  0  0  0
  139.6160   69.0170  227.8990 C   0  0  0  0  0  0  0  0  0  0  0  0
  140.0710   68.4890  226.2670 S   0  0  0  0  0  0  0  0  0  0  0  0
  139.1400   67.3820  225.8770 O   0  0  0  0  0  0  0  0  0  0  0  0
  141.4640   67.9680  226.3170 O   0  0  0  0  0  0  0  0  0  0  0  0
  139.9810   69.7940  225.1040 C   0  0  0  0  0  0  0  0  0  0  0  0
  140.8270   70.8830  225.1280 C   0  0  0  0  0  0  0  0  0  0  0  0
  140.7090   71.8810  224.1870 C   0  0  0  0  0  0  0  0  0  0  0  0
  139.7530   71.8560  223.1760 C   0  0  0  0  0  0  0  0  0  0  0  0
  139.6880   72.9560  222.2090 C   0  0  0  0  0  0  0  0  0  0  0  0
  140.6990   73.4430  221.5600 C   0  0  0  0  0  0  0  0  0  0  0  0
  141.1150   74.7740  221.2470 C   0  0  0  0  0  0  0  0  0  0  0  0
  140.6090   75.7370  222.0850 N   0  0  0  0  0  0  0  0  0  0  0  0
  140.7960   77.0350  221.9670 C   0  0  0  0  0  0  0  0  0  0  0  0
  140.2260   77.8860  222.8840 C   0  0  0  0  0  0  0  0  0  0  0  0
  140.4750   79.2450  222.6840 C   0  0  0  0  0  0  0  0  0  0  0  0
  141.2320   79.7230  221.6540 C   0  0  0  0  0  0  0  0  0  0  0  0
  141.4770   81.0400  221.4540 F   0  0  0  0  0  0  0  0  0  0  0  0
  141.7900   78.8340  220.7520 C   0  0  0  0  0  0  0  0  0  0  0  0
  141.5580   77.4920  220.9280 C   0  0  0  0  0  0  0  0  0  0  0  0
  142.0790   76.5530  220.0750 C   0  0  0  0  0  0  0  0  0  0  0  0
  142.7730   77.0040  219.1220 O   0  0  0  0  0  0  0  0  0  0  0  0
  141.8670   75.1990  220.2270 N   0  0  0  0  0  0  0  0  0  0  0  0
  142.4900   74.3690  219.2590 C   0  0  0  0  0  0  0  0  0  0  0  0
  143.6850   73.5770  219.6310 C   0  0  0  0  0  0  0  0  0  0  0  0
  144.7000   74.3470  220.4840 C   0  0  0  0  0  0  0  0  0  0  0  0
  145.8550   73.3650  220.7440 C   0  0  0  0  0  0  0  0  0  0  0  0
  145.9330   72.2930  219.6860 C   0  0  0  0  0  0  0  0  0  0  0  0
  144.7240   71.3850  219.7430 C   0  0  0  0  0  0  0  0  0  0  0  0
  143.5570   72.2550  220.2630 C   0  0  0  0  0  0  0  0  0  0  0  0
  138.9140   70.7710  223.1590 C   0  0  0  0  0  0  0  0  0  0  0  0
  139.0260   69.7500  224.1120 C   0  0  0  0  0  0  0  0  0  0  0  0
  140.3797   70.5005  229.2393 H   0  0  0  0  0  0  0  0  0  0  0  0
  141.2993   70.3246  227.7064 H   0  0  0  0  0  0  0  0  0  0  0  0
  139.7022   71.1467  227.7064 H   0  0  0  0  0  0  0  0  0  0  0  0
  139.9472   68.2743  228.6398 H   0  0  0  0  0  0  0  0  0  0  0  0
  138.5241   69.1215  227.9815 H   0  0  0  0  0  0  0  0  0  0  0  0
  141.6022   70.9547  225.9052 H   0  0  0  0  0  0  0  0  0  0  0  0
  141.4003   72.7352  224.2364 H   0  0  0  0  0  0  0  0  0  0  0  0
  138.7017   73.4043  222.0188 H   0  0  0  0  0  0  0  0  0  0  0  0
  141.3781   72.6711  221.1687 H   0  0  0  0  0  0  0  0  0  0  0  0
  139.6134   77.5198  223.7211 H   0  0  0  0  0  0  0  0  0  0  0  0
  140.0396   79.9661  223.3915 H   0  0  0  0  0  0  0  0  0  0  0  0
  142.4048   79.1939  219.9139 H   0  0  0  0  0  0  0  0  0  0  0  0
  141.7283   73.6542  218.9141 H   0  0  0  0  0  0  0  0  0  0  0  0
  142.8775   75.0849  218.5192 H   0  0  0  0  0  0  0  0  0  0  0  0
  144.0108   73.3829  218.5984 H   0  0  0  0  0  0  0  0  0  0  0  0
  145.0638   75.2321  219.9415 H   0  0  0  0  0  0  0  0  0  0  0  0
  144.2525   74.7053  221.4228 H   0  0  0  0  0  0  0  0  0  0  0  0
  146.8019   73.9247  220.7532 H   0  0  0  0  0  0  0  0  0  0  0  0
  145.6735   72.8750  221.7120 H   0  0  0  0  0  0  0  0  0  0  0  0
  145.9793   72.7684  218.6951 H   0  0  0  0  0  0  0  0  0  0  0  0
  146.8340   71.6882  219.8661 H   0  0  0  0  0  0  0  0  0  0  0  0
  144.4921   70.9951  218.7409 H   0  0  0  0  0  0  0  0  0  0  0  0
  144.9025   70.5197  220.3983 H   0  0  0  0  0  0  0  0  0  0  0  0
  142.5948   71.7978  219.9889 H   0  0  0  0  0  0  0  0  0  0  0  0
  143.5923   72.3411  221.3591 H   0  0  0  0  0  0  0  0  0  0  0  0
  138.1383   70.7011  222.3822 H   0  0  0  0  0  0  0  0  0  0  0  0
  138.3362   68.8944  224.0671 H   0  0  0  0  0  0  0  0  0  0  0  0
  1  2  1  0
  2  3  1  0
  3  4  2  0
  3  5  2  0
  3  6  1  0
  6  7  2  0
  7  8  1  0
  8  9  2  0
  9 10  1  0
 10 11  2  0
 11 12  1  0
 12 13  2  0
 13 14  1  0
 14 15  2  0
 15 16  1  0
 16 17  2  0
 17 18  1  0
 17 19  1  0
 19 20  2  0
 20 21  1  0
 21 22  2  0
 21 23  1  0
 23 24  1  0
 24 25  1  0
 25 26  1  0
 26 27  1  0
 27 28  1  0
 28 29  1  0
 29 30  1  0
  9 31  1  0
 31 32  2  0
 32  6  1  0
 23 12  1  0
 30 25  1  0
 20 14  1  0
  1 33  1  0
  1 34  1  0
  1 35  1  0
  2 36  1  0
  2 37  1  0
  7 38  1  0
  8 39  1  0
 10 40  1  0
 11 41  1  0
 15 42  1  0
 16 43  1  0
 19 44  1  0
 24 45  1  0
 24 46  1  0
 25 47  1  0
 26 48  1  0
 26 49  1  0
 27 50  1  0
 27 51  1  0
 28 52  1  0
 28 53  1  0
 29 54  1  0
 29 55  1  0
 30 56  1  0
 30 57  1  0
 31 58  1  0
 32 59  1  0
M  END
>  <smiles>  (49) 
CCS(=O)(=O)c1ccc(/C=C/c2nc3ccc(F)cc3c(=O)n2CC2CCCCC2)cc1

>  <score_type>  (49) 
oracle

>  <origin>  (49) 
autodockgpu

>  <m_score__min__energy>  (49) 
-9.5

>  <m_primary>  (49) 
energy

>  <rmsd>  (49) 
5.2828680617477835

>  <m_score__min__rmsd>  (49) 
5.2828680617477835

>  <meeko>  (49) 
{"free_energy": -9.46, "intermolecular_energy": -11.55, "internal_energy": -1.46, "cluster_size": 17, "cluster_id": 2, "rank_in_cluster": 1}

>  <energy>  (49) 
-7.79

>  <cluster_rmsd>  (49) 
0.0

>  <cluster>  (49) 
7

$$$$

     RDKit          3D

 59 62  0  0  0  0  0  0  0  0999 V2000
  140.2990   67.3820  226.4620 C   0  0  0  0  0  0  0  0  0  0  0  0
  141.1900   68.5590  226.7580 C   0  0  0  0  0  0  0  0  0  0  0  0
  140.1610   70.0030  226.8330 S   0  0  0  0  0  0  0  0  0  0  0  0
  140.8010   70.9610  227.7890 O   0  0  0  0  0  0  0  0  0  0  0  0
  138.8280   69.5990  227.3570 O   0  0  0  0  0  0  0  0  0  0  0  0
  139.9630   70.7520  225.2640 C   0  0  0  0  0  0  0  0  0  0  0  0
  138.7450   70.8550  224.6270 C   0  0  0  0  0  0  0  0  0  0  0  0
  138.6490   71.4550  223.3920 C   0  0  0  0  0  0  0  0  0  0  0  0
  139.7480   71.9840  222.7220 C   0  0  0  0  0  0  0  0  0  0  0  0
  139.5690   72.6080  221.4090 C   0  0  0  0  0  0  0  0  0  0  0  0
  139.3170   73.8630  221.2040 C   0  0  0  0  0  0  0  0  0  0  0  0
  140.1290   75.0400  221.2050 C   0  0  0  0  0  0  0  0  0  0  0  0
  139.7030   76.0200  222.0690 N   0  0  0  0  0  0  0  0  0  0  0  0
  140.2450   77.2120  222.2070 C   0  0  0  0  0  0  0  0  0  0  0  0
  139.7110   78.0950  223.1150 C   0  0  0  0  0  0  0  0  0  0  0  0
  140.3460   79.3360  223.1970 C   0  0  0  0  0  0  0  0  0  0  0  0
  141.4280   79.6740  222.4350 C   0  0  0  0  0  0  0  0  0  0  0  0
  142.0480   80.8750  222.5090 F   0  0  0  0  0  0  0  0  0  0  0  0
  141.9360   78.7560  221.5320 C   0  0  0  0  0  0  0  0  0  0  0  0
  141.3280   77.5290  221.4350 C   0  0  0  0  0  0  0  0  0  0  0  0
  141.7770   76.5700  220.5630 C   0  0  0  0  0  0  0  0  0  0  0  0
  142.7730   76.8930  219.8590 O   0  0  0  0  0  0  0  0  0  0  0  0
  141.1890   75.3280  220.4440 N   0  0  0  0  0  0  0  0  0  0  0  0
  141.7890   74.4540  219.5010 C   0  0  0  0  0  0  0  0  0  0  0  0
  142.9780   73.6610  219.8870 C   0  0  0  0  0  0  0  0  0  0  0  0
  144.1440   74.5060  220.4150 C   0  0  0  0  0  0  0  0  0  0  0  0
  145.2670   73.5070  220.7410 C   0  0  0  0  0  0  0  0  0  0  0  0
  145.1370   72.2310  219.9470 C   0  0  0  0  0  0  0  0  0  0  0  0
  143.8990   71.4620  220.3540 C   0  0  0  0  0  0  0  0  0  0  0  0
  142.8660   72.5190  220.8090 C   0  0  0  0  0  0  0  0  0  0  0  0
  140.9580   71.8780  223.3610 C   0  0  0  0  0  0  0  0  0  0  0  0
  141.0660   71.2680  224.6180 C   0  0  0  0  0  0  0  0  0  0  0  0
  139.9589   66.9328  227.4068 H   0  0  0  0  0  0  0  0  0  0  0  0
  139.4274   67.7187  225.8815 H   0  0  0  0  0  0  0  0  0  0  0  0
  140.8596   66.6345  225.8815 H   0  0  0  0  0  0  0  0  0  0  0  0
  141.6999   68.4109  227.7214 H   0  0  0  0  0  0  0  0  0  0  0  0
  141.9566   68.6702  225.9770 H   0  0  0  0  0  0  0  0  0  0  0  0
  137.8416   70.4541  225.1100 H   0  0  0  0  0  0  0  0  0  0  0  0
  137.6605   71.5192  222.9138 H   0  0  0  0  0  0  0  0  0  0  0  0
  139.6554   71.9590  220.5251 H   0  0  0  0  0  0  0  0  0  0  0  0
  138.2583   74.0643  220.9834 H   0  0  0  0  0  0  0  0  0  0  0  0
  138.8400   77.8406  223.7367 H   0  0  0  0  0  0  0  0  0  0  0  0
  139.9559   80.0773  223.9099 H   0  0  0  0  0  0  0  0  0  0  0  0
  142.8065   79.0039  220.9068 H   0  0  0  0  0  0  0  0  0  0  0  0
  141.0139   73.7369  219.1930 H   0  0  0  0  0  0  0  0  0  0  0  0
  142.1764   75.1367  218.7303 H   0  0  0  0  0  0  0  0  0  0  0  0
  143.1450   73.2250  218.8910 H   0  0  0  0  0  0  0  0  0  0  0  0
  144.4773   75.2212  219.6486 H   0  0  0  0  0  0  0  0  0  0  0  0
  143.8530   75.0927  221.2988 H   0  0  0  0  0  0  0  0  0  0  0  0
  146.2356   73.9732  220.5077 H   0  0  0  0  0  0  0  0  0  0  0  0
  145.1949   73.2515  221.8085 H   0  0  0  0  0  0  0  0  0  0  0  0
  145.0712   72.4783  218.8772 H   0  0  0  0  0  0  0  0  0  0  0  0
  146.0192   71.6043  220.1445 H   0  0  0  0  0  0  0  0  0  0  0  0
  143.5079   70.8891  219.5003 H   0  0  0  0  0  0  0  0  0  0  0  0
  144.1189   70.7438  221.1577 H   0  0  0  0  0  0  0  0  0  0  0  0
  141.8510   72.0974  220.7654 H   0  0  0  0  0  0  0  0  0  0  0  0
  143.0588   72.8331  221.8454 H   0  0  0  0  0  0  0  0  0  0  0  0
  141.8605   72.2796  222.8771 H   0  0  0  0  0  0  0  0  0  0  0  0
  142.0525   71.1994  225.0997 H   0  0  0  0  0  0  0  0  0  0  0  0
  1  2  1  0
  2  3  1  0
  3  4  2  0
  3  5  2  0
  3  6  1  0
  6  7  2  0
  7  8  1  0
  8  9  2  0
  9 10  1  0
 10 11  2  0
 11 12  1  0
 12 13  2  0
 13 14  1  0
 14 15  2  0
 15 16  1  0
 16 17  2  0
 17 18  1  0
 17 19  1  0
 19 20  2  0
 20 21  1  0
 21 22  2  0
 21 23  1  0
 23 24  1  0
 24 25  1  0
 25 26  1  0
 26 27  1  0
 27 28  1  0
 28 29  1  0
 29 30  1  0
  9 31  1  0
 31 32  2  0
 32  6  1  0
 23 12  1  0
 30 25  1  0
 20 14  1  0
  1 33  1  0
  1 34  1  0
  1 35  1  0
  2 36  1  0
  2 37  1  0
  7 38  1  0
  8 39  1  0
 10 40  1  0
 11 41  1  0
 15 42  1  0
 16 43  1  0
 19 44  1  0
 24 45  1  0
 24 46  1  0
 25 47  1  0
 26 48  1  0
 26 49  1  0
 27 50  1  0
 27 51  1  0
 28 52  1  0
 28 53  1  0
 29 54  1  0
 29 55  1  0
 30 56  1  0
 30 57  1  0
 31 58  1  0
 32 59  1  0
M  END
>  <smiles>  (50) 
CCS(=O)(=O)c1ccc(/C=C/c2nc3ccc(F)cc3c(=O)n2CC2CCCCC2)cc1

>  <score_type>  (50) 
oracle

>  <origin>  (50) 
autodockgpu

>  <m_score__min__energy>  (50) 
-9.5

>  <m_primary>  (50) 
energy

>  <rmsd>  (50) 
4.901815586732289

>  <m_score__min__rmsd>  (50) 
4.901815586732289

>  <meeko>  (50) 
{"free_energy": -8.04, "intermolecular_energy": -10.13, "internal_energy": -1.7, "cluster_size": 17, "cluster_id": 2, "rank_in_cluster": 16}

>  <energy>  (50) 
-7.7

>  <cluster_rmsd>  (50) 
0.0

>  <cluster>  (50) 
8

$$$$
