
     RDKit          3D

 47 50  0  0  0  0  0  0  0  0999 V2000
  139.3970   71.2720  221.2100 O   0  0  0  0  0  0  0  0  0  0  0  0
  140.0820   71.8040  222.1340 C   0  0  0  0  0  0  0  0  0  0  0  0
  140.8740   72.9720  221.9270 N   0  0  0  0  0  0  0  0  0  0  0  0
  140.8750   73.5480  220.5950 C   0  0  0  0  0  0  0  0  0  0  0  0
  141.8750   72.8930  219.7210 C   0  0  0  0  0  0  0  0  0  0  0  0
  141.4660   72.3420  218.6770 O   0  0  0  0  0  0  0  0  0  0  0  0
  143.2670   72.8500  219.9920 N   0  0  0  0  0  0  0  0  0  0  0  0
  144.0220   74.1000  220.2250 C   0  0  0  0  0  0  0  0  0  0  0  0
  145.2980   73.5980  220.9280 C   0  0  2  0  0  0  0  0  0  0  0  0
  146.3130   74.5160  220.8580 O   0  0  0  0  0  0  0  0  0  0  0  0
  145.5400   72.3580  220.0890 C   0  0  2  0  0  0  0  0  0  0  0  0
  145.9000   72.8300  218.8290 O   0  0  0  0  0  0  0  0  0  0  0  0
  144.1780   71.7360  220.1050 C   0  0  2  0  0  0  0  0  0  0  0  0
  143.9940   70.6580  219.0900 C   0  0  0  0  0  0  0  0  0  0  0  0
  144.5660   69.3190  219.2120 C   0  0  0  0  0  0  0  0  0  0  0  0
  143.0590   69.5280  219.3940 C   0  0  0  0  0  0  0  0  0  0  0  0
  140.0610   71.2000  223.4630 C   0  0  0  0  0  0  0  0  0  0  0  0
  139.5330   69.9480  223.6730 C   0  0  0  0  0  0  0  0  0  0  0  0
  139.5140   69.3780  224.9350 C   0  0  0  0  0  0  0  0  0  0  0  0
  140.0340   70.0770  226.0060 C   0  0  0  0  0  0  0  0  0  0  0  0
  140.0370   69.5470  227.2800 C   0  0  0  0  0  0  0  0  0  0  0  0
  140.5620   70.2610  228.3420 C   0  0  0  0  0  0  0  0  0  0  0  0
  141.0910   71.5270  228.1030 C   0  0  0  0  0  0  0  0  0  0  0  0
  141.0980   72.0760  226.8280 C   0  0  0  0  0  0  0  0  0  0  0  0
  140.5590   71.3250  225.7870 C   0  0  0  0  0  0  0  0  0  0  0  0
  140.5570   71.8430  224.5390 N   0  0  0  0  0  0  0  0  0  0  0  0
  141.4120   73.3560  222.7290 H   0  0  0  0  0  0  0  0  0  0  0  0
  139.8763   73.4236  220.1511 H   0  0  0  0  0  0  0  0  0  0  0  0
  141.1360   74.6132  220.6799 H   0  0  0  0  0  0  0  0  0  0  0  0
  144.2629   74.6009  219.2757 H   0  0  0  0  0  0  0  0  0  0  0  0
  143.4640   74.8444  220.8119 H   0  0  0  0  0  0  0  0  0  0  0  0
  145.2244   73.4163  222.0104 H   0  0  0  0  0  0  0  0  0  0  0  0
  146.7100   74.5700  219.9530 H   0  0  0  0  0  0  0  0  0  0  0  0
  146.3154   71.6491  220.4149 H   0  0  0  0  0  0  0  0  0  0  0  0
  146.0760   73.7840  218.8100 H   0  0  0  0  0  0  0  0  0  0  0  0
  143.9908   71.1756  221.0328 H   0  0  0  0  0  0  0  0  0  0  0  0
  144.0826   71.4258  218.3073 H   0  0  0  0  0  0  0  0  0  0  0  0
  144.9454   68.7996  218.3197 H   0  0  0  0  0  0  0  0  0  0  0  0
  145.3671   68.8674  219.8155 H   0  0  0  0  0  0  0  0  0  0  0  0
  142.3516   69.1706  218.6312 H   0  0  0  0  0  0  0  0  0  0  0  0
  142.3174   69.3026  220.1745 H   0  0  0  0  0  0  0  0  0  0  0  0
  139.1176   69.3882  222.8221 H   0  0  0  0  0  0  0  0  0  0  0  0
  139.0874   68.3749  225.0831 H   0  0  0  0  0  0  0  0  0  0  0  0
  139.6171   68.5451  227.4530 H   0  0  0  0  0  0  0  0  0  0  0  0
  140.5617   69.8366  229.3568 H   0  0  0  0  0  0  0  0  0  0  0  0
  141.5113   72.1029  228.9406 H   0  0  0  0  0  0  0  0  0  0  0  0
  141.5176   73.0763  226.6453 H   0  0  0  0  0  0  0  0  0  0  0  0
  1  2  2  0
  2  3  1  0
  3  4  1  0
  4  5  1  0
  5  6  2  0
  5  7  1  0
  7  8  1  0
  8  9  1  0
  9 10  1  0
  9 11  1  0
 11 12  1  0
 11 13  1  0
 13 14  1  0
 14 15  1  0
 15 16  1  0
  2 17  1  0
 17 18  2  0
 18 19  1  0
 19 20  2  0
 20 21  1  0
 21 22  2  0
 22 23  1  0
 23 24  2  0
 24 25  1  0
 25 26  2  0
 13  7  1  0
 16 14  1  0
 26 17  1  0
 25 20  1  0
  3 27  1  0
  4 28  1  0
  4 29  1  0
  8 30  1  0
  8 31  1  0
  9 32  1  1
 10 33  1  0
 11 34  1  1
 12 35  1  0
 13 36  1  1
 14 37  1  0
 15 38  1  0
 15 39  1  0
 16 40  1  0
 16 41  1  0
 18 42  1  0
 19 43  1  0
 21 44  1  0
 22 45  1  0
 23 46  1  0
 24 47  1  0
M  END
>  <smiles>  (1) 
O=C(NCC(=O)N1C[C@H](O)[C@H](O)[C@@H]1C1CC1)c1ccc2ccccc2n1

>  <score_type>  (1) 
oracle

>  <origin>  (1) 
autodockgpu

>  <m_score__min__energy>  (1) 
-8.4399999999999995

>  <m_primary>  (1) 
energy

>  <rmsd>  (1) 
3.9086001256313754

>  <m_score__min__rmsd>  (1) 
3.9086001256313754

>  <meeko>  (1) 
{"free_energy": -7.51, "intermolecular_energy": -9.6, "internal_energy": -2.79, "cluster_size": 25, "cluster_id": 1, "rank_in_cluster": 21}

>  <energy>  (1) 
-8.44

>  <cluster_rmsd>  (1) 
0.0

>  <cluster>  (1) 
1

$$$$

     RDKit          3D

 47 50  0  0  0  0  0  0  0  0999 V2000
  136.4930   69.3690  223.6910 O   0  0  0  0  0  0  0  0  0  0  0  0
  136.4600   70.5570  224.1300 C   0  0  0  0  0  0  0  0  0  0  0  0
  137.4620   71.5210  223.8100 N   0  0  0  0  0  0  0  0  0  0  0  0
  138.5470   71.0930  222.9480 C   0  0  0  0  0  0  0  0  0  0  0  0
  139.8070   70.9190  223.7070 C   0  0  0  0  0  0  0  0  0  0  0  0
  140.8120   71.5550  223.3230 O   0  0  0  0  0  0  0  0  0  0  0  0
  139.9470   70.0770  224.8410 N   0  0  0  0  0  0  0  0  0  0  0  0
  139.3060   68.7450  224.8670 C   0  0  0  0  0  0  0  0  0  0  0  0
  140.0760   68.0220  225.9880 C   0  0  2  0  0  0  0  0  0  0  0  0
  139.3830   66.9410  226.4660 O   0  0  0  0  0  0  0  0  0  0  0  0
  140.1640   69.1710  226.9740 C   0  0  2  0  0  0  0  0  0  0  0  0
  138.8590   69.3820  227.4140 O   0  0  0  0  0  0  0  0  0  0  0  0
  140.6570   70.2700  226.0830 C   0  0  2  0  0  0  0  0  0  0  0  0
  140.5390   71.6320  226.6800 C   0  0  0  0  0  0  0  0  0  0  0  0
  140.5350   71.8940  228.1170 C   0  0  0  0  0  0  0  0  0  0  0  0
  141.7560   72.2730  227.2720 C   0  0  0  0  0  0  0  0  0  0  0  0
  135.3560   70.9570  224.9960 C   0  0  0  0  0  0  0  0  0  0  0  0
  134.6230   70.0290  225.7000 C   0  0  0  0  0  0  0  0  0  0  0  0
  133.5760   70.4130  226.5210 C   0  0  0  0  0  0  0  0  0  0  0  0
  133.2570   71.7500  226.6380 C   0  0  0  0  0  0  0  0  0  0  0  0
  132.2220   72.1770  227.4450 C   0  0  0  0  0  0  0  0  0  0  0  0
  131.9150   73.5210  227.5520 C   0  0  0  0  0  0  0  0  0  0  0  0
  132.6720   74.4410  226.8300 C   0  0  0  0  0  0  0  0  0  0  0  0
  133.7170   74.0310  226.0140 C   0  0  0  0  0  0  0  0  0  0  0  0
  133.9920   72.6680  225.9340 C   0  0  0  0  0  0  0  0  0  0  0  0
  135.0070   72.2510  225.1440 N   0  0  0  0  0  0  0  0  0  0  0  0
  137.3740   72.4780  224.2050 H   0  0  0  0  0  0  0  0  0  0  0  0
  138.2758   70.1347  222.4810 H   0  0  0  0  0  0  0  0  0  0  0  0
  138.7081   71.8687  222.1849 H   0  0  0  0  0  0  0  0  0  0  0  0
  138.2357   68.8243  225.1080 H   0  0  0  0  0  0  0  0  0  0  0  0
  139.3471   68.2213  223.9005 H   0  0  0  0  0  0  0  0  0  0  0  0
  141.0424   67.5753  225.7115 H   0  0  0  0  0  0  0  0  0  0  0  0
  139.1890   67.0150  227.4340 H   0  0  0  0  0  0  0  0  0  0  0  0
  140.8007   69.0492  227.8627 H   0  0  0  0  0  0  0  0  0  0  0  0
  138.2180   68.7640  227.0270 H   0  0  0  0  0  0  0  0  0  0  0  0
  141.7435   70.2147  225.9206 H   0  0  0  0  0  0  0  0  0  0  0  0
  139.8184   71.8797  225.8866 H   0  0  0  0  0  0  0  0  0  0  0  0
  139.8869   72.6806  228.5309 H   0  0  0  0  0  0  0  0  0  0  0  0
  140.3714   71.2850  229.0183 H   0  0  0  0  0  0  0  0  0  0  0  0
  141.9843   73.3292  227.0665 H   0  0  0  0  0  0  0  0  0  0  0  0
  142.8337   72.0540  227.2956 H   0  0  0  0  0  0  0  0  0  0  0  0
  134.8736   68.9618  225.6088 H   0  0  0  0  0  0  0  0  0  0  0  0
  133.0022   69.6565  227.0765 H   0  0  0  0  0  0  0  0  0  0  0  0
  131.6339   71.4389  228.0102 H   0  0  0  0  0  0  0  0  0  0  0  0
  131.0885   73.8574  228.1952 H   0  0  0  0  0  0  0  0  0  0  0  0
  132.4370   75.5128  226.9082 H   0  0  0  0  0  0  0  0  0  0  0  0
  134.3114   74.7620  225.4463 H   0  0  0  0  0  0  0  0  0  0  0  0
  1  2  2  0
  2  3  1  0
  3  4  1  0
  4  5  1  0
  5  6  2  0
  5  7  1  0
  7  8  1  0
  8  9  1  0
  9 10  1  0
  9 11  1  0
 11 12  1  0
 11 13  1  0
 13 14  1  0
 14 15  1  0
 15 16  1  0
  2 17  1  0
 17 18  2  0
 18 19  1  0
 19 20  2  0
 20 21  1  0
 21 22  2  0
 22 23  1  0
 23 24  2  0
 24 25  1  0
 25 26  2  0
 13  7  1  0
 16 14  1  0
 26 17  1  0
 25 20  1  0
  3 27  1  0
  4 28  1  0
  4 29  1  0
  8 30  1  0
  8 31  1  0
  9 32  1  6
 10 33  1  0
 11 34  1  1
 12 35  1  0
 13 36  1  6
 14 37  1  0
 15 38  1  0
 15 39  1  0
 16 40  1  0
 16 41  1  0
 18 42  1  0
 19 43  1  0
 21 44  1  0
 22 45  1  0
 23 46  1  0
 24 47  1  0
M  END
>  <smiles>  (2) 
O=C(NCC(=O)N1C[C@H](O)[C@H](O)[C@@H]1C1CC1)c1ccc2ccccc2n1

>  <score_type>  (2) 
oracle

>  <origin>  (2) 
autodockgpu

>  <m_score__min__energy>  (2) 
-8.4399999999999995

>  <m_primary>  (2) 
energy

>  <rmsd>  (2) 
7.9329995712551655

>  <m_score__min__rmsd>  (2) 
7.9329995712551655

>  <meeko>  (2) 
{"free_energy": -7.1, "intermolecular_energy": -9.19, "internal_energy": -2.7, "cluster_size": 1, "cluster_id": 5, "rank_in_cluster": 1}

>  <energy>  (2) 
-8.39

>  <cluster_rmsd>  (2) 
0.07

>  <cluster>  (2) 
1

$$$$

     RDKit          3D

 47 50  0  0  0  0  0  0  0  0999 V2000
  139.7690   74.4200  222.0620 O   0  0  0  0  0  0  0  0  0  0  0  0
  140.4440   75.3530  221.5340 C   0  0  0  0  0  0  0  0  0  0  0  0
  141.2890   75.1450  220.4050 N   0  0  0  0  0  0  0  0  0  0  0  0
  141.3580   73.8000  219.8630 C   0  0  0  0  0  0  0  0  0  0  0  0
  142.2310   72.9290  220.6830 C   0  0  0  0  0  0  0  0  0  0  0  0
  141.7020   72.2840  221.6140 O   0  0  0  0  0  0  0  0  0  0  0  0
  143.6270   72.7790  220.4810 N   0  0  0  0  0  0  0  0  0  0  0  0
  144.5370   73.9310  220.6610 C   0  0  0  0  0  0  0  0  0  0  0  0
  145.9110   73.2540  220.8220 C   0  0  2  0  0  0  0  0  0  0  0  0
  146.9400   74.1260  220.5810 O   0  0  0  0  0  0  0  0  0  0  0  0
  145.7580   72.1850  219.7570 C   0  0  2  0  0  0  0  0  0  0  0  0
  145.7550   72.8700  218.5440 O   0  0  0  0  0  0  0  0  0  0  0  0
  144.4140   71.6270  220.1080 C   0  0  2  0  0  0  0  0  0  0  0  0
  143.8190   70.7670  219.0440 C   0  0  0  0  0  0  0  0  0  0  0  0
  144.5930   69.8530  218.2090 C   0  0  0  0  0  0  0  0  0  0  0  0
  143.6680   69.2990  219.2970 C   0  0  0  0  0  0  0  0  0  0  0  0
  140.3550   76.6950  222.1020 C   0  0  0  0  0  0  0  0  0  0  0  0
  139.1560   77.2130  222.5340 C   0  0  0  0  0  0  0  0  0  0  0  0
  139.0740   78.4860  223.0730 C   0  0  0  0  0  0  0  0  0  0  0  0
  140.2160   79.2540  223.1790 C   0  0  0  0  0  0  0  0  0  0  0  0
  140.1810   80.5280  223.7090 C   0  0  0  0  0  0  0  0  0  0  0  0
  141.3340   81.2860  223.8080 C   0  0  0  0  0  0  0  0  0  0  0  0
  142.5350   80.7390  223.3640 C   0  0  0  0  0  0  0  0  0  0  0  0
  142.5900   79.4600  222.8280 C   0  0  0  0  0  0  0  0  0  0  0  0
  141.4060   78.7310  222.7450 C   0  0  0  0  0  0  0  0  0  0  0  0
  141.4410   77.4830  222.2260 N   0  0  0  0  0  0  0  0  0  0  0  0
  141.8160   75.9550  220.0220 H   0  0  0  0  0  0  0  0  0  0  0  0
  140.3452   73.3713  219.8402 H   0  0  0  0  0  0  0  0  0  0  0  0
  141.7816   73.8574  218.8494 H   0  0  0  0  0  0  0  0  0  0  0  0
  144.5205   74.5910  219.7811 H   0  0  0  0  0  0  0  0  0  0  0  0
  144.2647   74.5742  221.5108 H   0  0  0  0  0  0  0  0  0  0  0  0
  146.1579   72.8752  221.8248 H   0  0  0  0  0  0  0  0  0  0  0  0
  147.0130   74.3670  219.6240 H   0  0  0  0  0  0  0  0  0  0  0  0
  146.5226   71.3967  219.6939 H   0  0  0  0  0  0  0  0  0  0  0  0
  146.0180   73.8000  218.6260 H   0  0  0  0  0  0  0  0  0  0  0  0
  144.4695   70.9099  220.9403 H   0  0  0  0  0  0  0  0  0  0  0  0
  143.1480   71.6016  218.7926 H   0  0  0  0  0  0  0  0  0  0  0  0
  144.3332   69.7237  217.1480 H   0  0  0  0  0  0  0  0  0  0  0  0
  145.6588   69.7388  217.9619 H   0  0  0  0  0  0  0  0  0  0  0  0
  142.7370   68.7803  219.0248 H   0  0  0  0  0  0  0  0  0  0  0  0
  143.7769   68.6298  220.1632 H   0  0  0  0  0  0  0  0  0  0  0  0
  138.2440   76.6037  222.4496 H   0  0  0  0  0  0  0  0  0  0  0  0
  138.1061   78.8821  223.4141 H   0  0  0  0  0  0  0  0  0  0  0  0
  139.2247   80.9456  224.0569 H   0  0  0  0  0  0  0  0  0  0  0  0
  141.3026   82.3016  224.2295 H   0  0  0  0  0  0  0  0  0  0  0  0
  143.4583   81.3322  223.4395 H   0  0  0  0  0  0  0  0  0  0  0  0
  143.5420   79.0339  222.4785 H   0  0  0  0  0  0  0  0  0  0  0  0
  1  2  2  0
  2  3  1  0
  3  4  1  0
  4  5  1  0
  5  6  2  0
  5  7  1  0
  7  8  1  0
  8  9  1  0
  9 10  1  0
  9 11  1  0
 11 12  1  0
 11 13  1  0
 13 14  1  0
 14 15  1  0
 15 16  1  0
  2 17  1  0
 17 18  2  0
 18 19  1  0
 19 20  2  0
 20 21  1  0
 21 22  2  0
 22 23  1  0
 23 24  2  0
 24 25  1  0
 25 26  2  0
 13  7  1  0
 16 14  1  0
 26 17  1  0
 25 20  1  0
  3 27  1  0
  4 28  1  0
  4 29  1  0
  8 30  1  0
  8 31  1  0
  9 32  1  1
 10 33  1  0
 11 34  1  6
 12 35  1  0
 13 36  1  1
 14 37  1  0
 15 38  1  0
 15 39  1  0
 16 40  1  0
 16 41  1  0
 18 42  1  0
 19 43  1  0
 21 44  1  0
 22 45  1  0
 23 46  1  0
 24 47  1  0
M  END
>  <smiles>  (3) 
O=C(NCC(=O)N1C[C@H](O)[C@H](O)[C@@H]1C1CC1)c1ccc2ccccc2n1

>  <score_type>  (3) 
oracle

>  <origin>  (3) 
autodockgpu

>  <m_score__min__energy>  (3) 
-8.4399999999999995

>  <m_primary>  (3) 
energy

>  <rmsd>  (3) 
7.721526578597249

>  <m_score__min__rmsd>  (3) 
7.721526578597249

>  <meeko>  (3) 
{"free_energy": -7.63, "intermolecular_energy": -9.72, "internal_energy": -2.45, "cluster_size": 7, "cluster_id": 2, "rank_in_cluster": 2}

>  <energy>  (3) 
-8.33

>  <cluster_rmsd>  (3) 
1.01

>  <cluster>  (3) 
1

$$$$

     RDKit          3D

 47 50  0  0  0  0  0  0  0  0999 V2000
  139.6850   70.7470  221.1030 O   0  0  0  0  0  0  0  0  0  0  0  0
  140.1920   71.3850  222.0740 C   0  0  0  0  0  0  0  0  0  0  0  0
  140.9060   72.6070  221.9000 N   0  0  0  0  0  0  0  0  0  0  0  0
  141.0390   73.1140  220.5470 C   0  0  0  0  0  0  0  0  0  0  0  0
  142.2240   73.9930  220.4120 C   0  0  0  0  0  0  0  0  0  0  0  0
  142.0330   75.2280  220.3900 O   0  0  0  0  0  0  0  0  0  0  0  0
  143.5580   73.5250  220.3050 N   0  0  0  0  0  0  0  0  0  0  0  0
  144.6930   74.4670  220.4150 C   0  0  0  0  0  0  0  0  0  0  0  0
  145.8790   73.5330  220.7240 C   0  0  2  0  0  0  0  0  0  0  0  0
  147.0810   74.1290  220.4520 O   0  0  0  0  0  0  0  0  0  0  0  0
  145.5290   72.4070  219.7690 C   0  0  2  0  0  0  0  0  0  0  0  0
  145.7150   72.9330  218.4930 O   0  0  0  0  0  0  0  0  0  0  0  0
  144.0830   72.1950  220.1000 C   0  0  2  0  0  0  0  0  0  0  0  0
  143.3480   71.3680  219.0990 C   0  0  0  0  0  0  0  0  0  0  0  0
  143.7970   70.0550  218.6410 C   0  0  0  0  0  0  0  0  0  0  0  0
  142.5840   70.1700  219.5700 C   0  0  0  0  0  0  0  0  0  0  0  0
  140.0420   70.8490  223.4240 C   0  0  0  0  0  0  0  0  0  0  0  0
  139.3560   69.6800  223.6590 C   0  0  0  0  0  0  0  0  0  0  0  0
  139.2150   69.1740  224.9400 C   0  0  0  0  0  0  0  0  0  0  0  0
  139.7710   69.8530  226.0050 C   0  0  0  0  0  0  0  0  0  0  0  0
  139.6550   69.3860  227.2990 C   0  0  0  0  0  0  0  0  0  0  0  0
  140.2180   70.0790  228.3550 C   0  0  0  0  0  0  0  0  0  0  0  0
  140.9070   71.2600  228.0910 C   0  0  0  0  0  0  0  0  0  0  0  0
  141.0340   71.7460  226.7970 C   0  0  0  0  0  0  0  0  0  0  0  0
  140.4520   71.0180  225.7620 C   0  0  0  0  0  0  0  0  0  0  0  0
  140.5660   71.4750  224.4950 N   0  0  0  0  0  0  0  0  0  0  0  0
  141.2970   73.0780  222.7400 H   0  0  0  0  0  0  0  0  0  0  0  0
  141.1428   72.2649  219.8554 H   0  0  0  0  0  0  0  0  0  0  0  0
  140.1418   73.7043  220.3092 H   0  0  0  0  0  0  0  0  0  0  0  0
  144.8509   75.0099  219.4714 H   0  0  0  0  0  0  0  0  0  0  0  0
  144.5413   75.2466  221.1760 H   0  0  0  0  0  0  0  0  0  0  0  0
  146.0037   73.2275  221.7733 H   0  0  0  0  0  0  0  0  0  0  0  0
  147.1890   74.3380  219.4900 H   0  0  0  0  0  0  0  0  0  0  0  0
  146.1037   71.4712  219.8321 H   0  0  0  0  0  0  0  0  0  0  0  0
  146.1100   73.8200  218.4960 H   0  0  0  0  0  0  0  0  0  0  0  0
  143.9516   71.5825  221.0042 H   0  0  0  0  0  0  0  0  0  0  0  0
  143.1136   72.2948  218.5548 H   0  0  0  0  0  0  0  0  0  0  0  0
  143.6590   69.7623  217.5897 H   0  0  0  0  0  0  0  0  0  0  0  0
  144.7491   69.5049  218.6690 H   0  0  0  0  0  0  0  0  0  0  0  0
  141.5711   69.9713  219.1897 H   0  0  0  0  0  0  0  0  0  0  0  0
  142.2908   69.7513  220.5440 H   0  0  0  0  0  0  0  0  0  0  0  0
  138.9108   69.1366  222.8126 H   0  0  0  0  0  0  0  0  0  0  0  0
  138.6635   68.2371  225.1077 H   0  0  0  0  0  0  0  0  0  0  0  0
  139.1081   68.4514  227.4924 H   0  0  0  0  0  0  0  0  0  0  0  0
  140.1233   69.7042  229.3848 H   0  0  0  0  0  0  0  0  0  0  0  0
  141.3593   71.8184  228.9238 H   0  0  0  0  0  0  0  0  0  0  0  0
  141.5790   72.6798  226.5946 H   0  0  0  0  0  0  0  0  0  0  0  0
  1  2  2  0
  2  3  1  0
  3  4  1  0
  4  5  1  0
  5  6  2  0
  5  7  1  0
  7  8  1  0
  8  9  1  0
  9 10  1  0
  9 11  1  0
 11 12  1  0
 11 13  1  0
 13 14  1  0
 14 15  1  0
 15 16  1  0
  2 17  1  0
 17 18  2  0
 18 19  1  0
 19 20  2  0
 20 21  1  0
 21 22  2  0
 22 23  1  0
 23 24  2  0
 24 25  1  0
 25 26  2  0
 13  7  1  0
 16 14  1  0
 26 17  1  0
 25 20  1  0
  3 27  1  0
  4 28  1  0
  4 29  1  0
  8 30  1  0
  8 31  1  0
  9 32  1  1
 10 33  1  0
 11 34  1  1
 12 35  1  0
 13 36  1  1
 14 37  1  0
 15 38  1  0
 15 39  1  0
 16 40  1  0
 16 41  1  0
 18 42  1  0
 19 43  1  0
 21 44  1  0
 22 45  1  0
 23 46  1  0
 24 47  1  0
M  END
>  <smiles>  (4) 
O=C(NCC(=O)N1C[C@H](O)[C@H](O)[C@@H]1C1CC1)c1ccc2ccccc2n1

>  <score_type>  (4) 
oracle

>  <origin>  (4) 
autodockgpu

>  <m_score__min__energy>  (4) 
-8.4399999999999995

>  <m_primary>  (4) 
energy

>  <rmsd>  (4) 
3.815605427865705

>  <m_score__min__rmsd>  (4) 
3.815605427865705

>  <meeko>  (4) 
{"free_energy": -7.51, "intermolecular_energy": -9.59, "internal_energy": -2.72, "cluster_size": 25, "cluster_id": 1, "rank_in_cluster": 22}

>  <energy>  (4) 
-8.28

>  <cluster_rmsd>  (4) 
1.05

>  <cluster>  (4) 
1

$$$$

     RDKit          3D

 47 50  0  0  0  0  0  0  0  0999 V2000
  139.6740   70.7330  221.0990 O   0  0  0  0  0  0  0  0  0  0  0  0
  140.2130   71.3900  222.0390 C   0  0  0  0  0  0  0  0  0  0  0  0
  140.9710   72.5750  221.8090 N   0  0  0  0  0  0  0  0  0  0  0  0
  141.1130   73.0200  220.4350 C   0  0  0  0  0  0  0  0  0  0  0  0
  142.1530   72.2450  219.7180 C   0  0  0  0  0  0  0  0  0  0  0  0
  141.7740   71.3770  218.9020 O   0  0  0  0  0  0  0  0  0  0  0  0
  143.5480   72.4230  219.8990 N   0  0  0  0  0  0  0  0  0  0  0  0
  144.0930   73.7540  220.2450 C   0  0  0  0  0  0  0  0  0  0  0  0
  145.4890   73.4130  220.8010 C   0  0  2  0  0  0  0  0  0  0  0  0
  146.3220   74.5010  220.7880 O   0  0  0  0  0  0  0  0  0  0  0  0
  145.8720   72.3420  219.7970 C   0  0  2  0  0  0  0  0  0  0  0  0
  146.0420   73.0130  218.5880 O   0  0  0  0  0  0  0  0  0  0  0  0
  144.6440   71.4860  219.8140 C   0  0  2  0  0  0  0  0  0  0  0  0
  144.5660   70.5170  218.6830 C   0  0  0  0  0  0  0  0  0  0  0  0
  145.6960   69.7160  218.2180 C   0  0  0  0  0  0  0  0  0  0  0  0
  144.5470   69.0510  218.9840 C   0  0  0  0  0  0  0  0  0  0  0  0
  140.0540   70.9170  223.4110 C   0  0  0  0  0  0  0  0  0  0  0  0
  139.3280   69.7840  223.6990 C   0  0  0  0  0  0  0  0  0  0  0  0
  139.1790   69.3380  225.0010 C   0  0  0  0  0  0  0  0  0  0  0  0
  139.7670   70.0410  226.0340 C   0  0  0  0  0  0  0  0  0  0  0  0
  139.6440   69.6340  227.3460 C   0  0  0  0  0  0  0  0  0  0  0  0
  140.2390   70.3490  228.3690 C   0  0  0  0  0  0  0  0  0  0  0  0
  140.9680   71.4930  228.0510 C   0  0  0  0  0  0  0  0  0  0  0  0
  141.1030   71.9190  226.7370 C   0  0  0  0  0  0  0  0  0  0  0  0
  140.4880   71.1700  225.7370 C   0  0  0  0  0  0  0  0  0  0  0  0
  140.6090   71.5690  224.4520 N   0  0  0  0  0  0  0  0  0  0  0  0
  141.3880   73.0650  222.6260 H   0  0  0  0  0  0  0  0  0  0  0  0
  140.1512   72.8924  219.9167 H   0  0  0  0  0  0  0  0  0  0  0  0
  141.4155   74.0775  220.4442 H   0  0  0  0  0  0  0  0  0  0  0  0
  144.1663   74.3964  219.3551 H   0  0  0  0  0  0  0  0  0  0  0  0
  143.4646   74.3125  220.9543 H   0  0  0  0  0  0  0  0  0  0  0  0
  145.5356   73.0975  221.8537 H   0  0  0  0  0  0  0  0  0  0  0  0
  146.7370   74.6470  219.9020 H   0  0  0  0  0  0  0  0  0  0  0  0
  146.7819   71.7527  219.9833 H   0  0  0  0  0  0  0  0  0  0  0  0
  146.1040   73.9770  218.6880 H   0  0  0  0  0  0  0  0  0  0  0  0
  144.6329   70.7973  220.6717 H   0  0  0  0  0  0  0  0  0  0  0  0
  143.9072   71.2284  218.1634 H   0  0  0  0  0  0  0  0  0  0  0  0
  145.8266   69.5206  217.1434 H   0  0  0  0  0  0  0  0  0  0  0  0
  146.7879   69.7652  218.3415 H   0  0  0  0  0  0  0  0  0  0  0  0
  143.8430   68.3852  218.4633 H   0  0  0  0  0  0  0  0  0  0  0  0
  144.4529   68.4297  219.8868 H   0  0  0  0  0  0  0  0  0  0  0  0
  138.8571   69.2220  222.8790 H   0  0  0  0  0  0  0  0  0  0  0  0
  138.5959   68.4293  225.2114 H   0  0  0  0  0  0  0  0  0  0  0  0
  139.0650   68.7289  227.5816 H   0  0  0  0  0  0  0  0  0  0  0  0
  140.1387   70.0209  229.4141 H   0  0  0  0  0  0  0  0  0  0  0  0
  141.4457   72.0696  228.8568 H   0  0  0  0  0  0  0  0  0  0  0  0
  141.6797   72.8231  226.4923 H   0  0  0  0  0  0  0  0  0  0  0  0
  1  2  2  0
  2  3  1  0
  3  4  1  0
  4  5  1  0
  5  6  2  0
  5  7  1  0
  7  8  1  0
  8  9  1  0
  9 10  1  0
  9 11  1  0
 11 12  1  0
 11 13  1  0
 13 14  1  0
 14 15  1  0
 15 16  1  0
  2 17  1  0
 17 18  2  0
 18 19  1  0
 19 20  2  0
 20 21  1  0
 21 22  2  0
 22 23  1  0
 23 24  2  0
 24 25  1  0
 25 26  2  0
 13  7  1  0
 16 14  1  0
 26 17  1  0
 25 20  1  0
  3 27  1  0
  4 28  1  0
  4 29  1  0
  8 30  1  0
  8 31  1  0
  9 32  1  1
 10 33  1  0
 11 34  1  1
 12 35  1  0
 13 36  1  1
 14 37  1  0
 15 38  1  0
 15 39  1  0
 16 40  1  0
 16 41  1  0
 18 42  1  0
 19 43  1  0
 21 44  1  0
 22 45  1  0
 23 46  1  0
 24 47  1  0
M  END
>  <smiles>  (5) 
O=C(NCC(=O)N1C[C@H](O)[C@H](O)[C@@H]1C1CC1)c1ccc2ccccc2n1

>  <score_type>  (5) 
oracle

>  <origin>  (5) 
autodockgpu

>  <m_score__min__energy>  (5) 
-8.4399999999999995

>  <m_primary>  (5) 
energy

>  <rmsd>  (5) 
4.057319180907496

>  <m_score__min__rmsd>  (5) 
4.057319180907496

>  <meeko>  (5) 
{"free_energy": -7.57, "intermolecular_energy": -9.66, "internal_energy": -2.66, "cluster_size": 25, "cluster_id": 1, "rank_in_cluster": 15}

>  <energy>  (5) 
-8.24

>  <cluster_rmsd>  (5) 
0.34

>  <cluster>  (5) 
1

$$$$

     RDKit          3D

 47 50  0  0  0  0  0  0  0  0999 V2000
  140.1610   73.4830  222.4470 O   0  0  0  0  0  0  0  0  0  0  0  0
  140.4400   72.2470  222.4360 C   0  0  0  0  0  0  0  0  0  0  0  0
  140.9510   71.5860  221.2810 N   0  0  0  0  0  0  0  0  0  0  0  0
  141.1480   72.3870  220.0870 C   0  0  0  0  0  0  0  0  0  0  0  0
  142.2160   73.3960  220.2810 C   0  0  0  0  0  0  0  0  0  0  0  0
  141.8700   74.5780  220.4910 O   0  0  0  0  0  0  0  0  0  0  0  0
  143.6040   73.1060  220.2440 N   0  0  0  0  0  0  0  0  0  0  0  0
  144.5970   74.1700  220.5060 C   0  0  0  0  0  0  0  0  0  0  0  0
  145.8710   73.3690  220.8370 C   0  0  2  0  0  0  0  0  0  0  0  0
  147.0010   74.1300  220.7000 O   0  0  0  0  0  0  0  0  0  0  0  0
  145.7340   72.2880  219.7820 C   0  0  2  0  0  0  0  0  0  0  0  0
  145.9350   72.9340  218.5640 O   0  0  0  0  0  0  0  0  0  0  0  0
  144.3090   71.8730  219.9860 C   0  0  2  0  0  0  0  0  0  0  0  0
  143.7560   71.0430  218.8760 C   0  0  0  0  0  0  0  0  0  0  0  0
  143.8730   71.3920  217.4620 C   0  0  0  0  0  0  0  0  0  0  0  0
  144.6950   70.2330  218.0380 C   0  0  0  0  0  0  0  0  0  0  0  0
  140.2290   71.4670  223.6520 C   0  0  0  0  0  0  0  0  0  0  0  0
  139.5270   70.2840  223.6330 C   0  0  0  0  0  0  0  0  0  0  0  0
  139.3300   69.5470  224.7890 C   0  0  0  0  0  0  0  0  0  0  0  0
  139.8450   70.0040  225.9850 C   0  0  0  0  0  0  0  0  0  0  0  0
  139.6720   69.3020  227.1600 C   0  0  0  0  0  0  0  0  0  0  0  0
  140.1950   69.7740  228.3500 C   0  0  0  0  0  0  0  0  0  0  0  0
  140.9010   70.9740  228.3430 C   0  0  0  0  0  0  0  0  0  0  0  0
  141.0860   71.6940  227.1710 C   0  0  0  0  0  0  0  0  0  0  0  0
  140.5430   71.1840  225.9940 C   0  0  0  0  0  0  0  0  0  0  0  0
  140.7130   71.8720  224.8430 N   0  0  0  0  0  0  0  0  0  0  0  0
  141.1570   70.5690  221.3410 H   0  0  0  0  0  0  0  0  0  0  0  0
  141.4285   71.7250  219.2545 H   0  0  0  0  0  0  0  0  0  0  0  0
  140.2089   72.9158  219.8669 H   0  0  0  0  0  0  0  0  0  0  0  0
  144.7451   74.8019  219.6179 H   0  0  0  0  0  0  0  0  0  0  0  0
  144.2954   74.8615  221.3065 H   0  0  0  0  0  0  0  0  0  0  0  0
  145.9648   72.9986  221.8685 H   0  0  0  0  0  0  0  0  0  0  0  0
  147.1360   74.4410  219.7700 H   0  0  0  0  0  0  0  0  0  0  0  0
  146.4190   71.4283  219.8226 H   0  0  0  0  0  0  0  0  0  0  0  0
  146.2450   73.8490  218.6590 H   0  0  0  0  0  0  0  0  0  0  0  0
  144.1977   71.1792  220.8323 H   0  0  0  0  0  0  0  0  0  0  0  0
  142.8820   70.8372  219.5115 H   0  0  0  0  0  0  0  0  0  0  0  0
  143.0397   71.1869  216.7739 H   0  0  0  0  0  0  0  0  0  0  0  0
  144.1074   72.3104  216.9039 H   0  0  0  0  0  0  0  0  0  0  0  0
  144.4506   69.1931  217.7755 H   0  0  0  0  0  0  0  0  0  0  0  0
  145.7604   69.9625  218.0798 H   0  0  0  0  0  0  0  0  0  0  0  0
  139.1144   69.9165  222.6818 H   0  0  0  0  0  0  0  0  0  0  0  0
  138.7664   68.6030  224.7540 H   0  0  0  0  0  0  0  0  0  0  0  0
  139.1114   68.3556  227.1502 H   0  0  0  0  0  0  0  0  0  0  0  0
  140.0558   69.2116  229.2851 H   0  0  0  0  0  0  0  0  0  0  0  0
  141.3202   71.3588  229.2844 H   0  0  0  0  0  0  0  0  0  0  0  0
  141.6458   72.6409  227.1716 H   0  0  0  0  0  0  0  0  0  0  0  0
  1  2  2  0
  2  3  1  0
  3  4  1  0
  4  5  1  0
  5  6  2  0
  5  7  1  0
  7  8  1  0
  8  9  1  0
  9 10  1  0
  9 11  1  0
 11 12  1  0
 11 13  1  0
 13 14  1  0
 14 15  1  0
 15 16  1  0
  2 17  1  0
 17 18  2  0
 18 19  1  0
 19 20  2  0
 20 21  1  0
 21 22  2  0
 22 23  1  0
 23 24  2  0
 24 25  1  0
 25 26  2  0
 13  7  1  0
 16 14  1  0
 26 17  1  0
 25 20  1  0
  3 27  1  0
  4 28  1  0
  4 29  1  0
  8 30  1  0
  8 31  1  0
  9 32  1  1
 10 33  1  0
 11 34  1  1
 12 35  1  0
 13 36  1  1
 14 37  1  0
 15 38  1  0
 15 39  1  0
 16 40  1  0
 16 41  1  0
 18 42  1  0
 19 43  1  0
 21 44  1  0
 22 45  1  0
 23 46  1  0
 24 47  1  0
M  END
>  <smiles>  (6) 
O=C(NCC(=O)N1C[C@H](O)[C@H](O)[C@@H]1C1CC1)c1ccc2ccccc2n1

>  <score_type>  (6) 
oracle

>  <origin>  (6) 
autodockgpu

>  <m_score__min__energy>  (6) 
-8.4399999999999995

>  <m_primary>  (6) 
energy

>  <rmsd>  (6) 
4.0821379665388715

>  <m_score__min__rmsd>  (6) 
4.0821379665388715

>  <meeko>  (6) 
{"free_energy": -8.24, "intermolecular_energy": -10.33, "internal_energy": -2.19, "cluster_size": 25, "cluster_id": 1, "rank_in_cluster": 5}

>  <energy>  (6) 
-8.24

>  <cluster_rmsd>  (6) 
0.88

>  <cluster>  (6) 
1

$$$$

     RDKit          3D

 47 50  0  0  0  0  0  0  0  0999 V2000
  139.8160   70.9720  221.0900 O   0  0  0  0  0  0  0  0  0  0  0  0
  140.2560   71.6440  222.0700 C   0  0  0  0  0  0  0  0  0  0  0  0
  140.8540   72.9280  221.9120 N   0  0  0  0  0  0  0  0  0  0  0  0
  140.9490   73.4580  220.5640 C   0  0  0  0  0  0  0  0  0  0  0  0
  141.9370   72.7080  219.7540 C   0  0  0  0  0  0  0  0  0  0  0  0
  141.5100   72.0230  218.8010 O   0  0  0  0  0  0  0  0  0  0  0  0
  143.3360   72.7180  219.9920 N   0  0  0  0  0  0  0  0  0  0  0  0
  144.0440   73.9940  220.2370 C   0  0  0  0  0  0  0  0  0  0  0  0
  145.3560   73.5300  220.8970 C   0  0  2  0  0  0  0  0  0  0  0  0
  146.3300   74.4900  220.8250 O   0  0  0  0  0  0  0  0  0  0  0  0
  145.6290   72.3210  220.0230 C   0  0  2  0  0  0  0  0  0  0  0  0
  145.9380   72.8350  218.7660 O   0  0  0  0  0  0  0  0  0  0  0  0
  144.2950   71.6410  220.0560 C   0  0  2  0  0  0  0  0  0  0  0  0
  144.1300   70.5790  219.0210 C   0  0  0  0  0  0  0  0  0  0  0  0
  144.9450   69.3680  218.9600 C   0  0  0  0  0  0  0  0  0  0  0  0
  143.4810   69.2860  219.4040 C   0  0  0  0  0  0  0  0  0  0  0  0
  140.1470   71.0840  223.4130 C   0  0  0  0  0  0  0  0  0  0  0  0
  139.5230   69.8790  223.6400 C   0  0  0  0  0  0  0  0  0  0  0  0
  139.4210   69.3500  224.9160 C   0  0  0  0  0  0  0  0  0  0  0  0
  139.9550   70.0420  225.9840 C   0  0  0  0  0  0  0  0  0  0  0  0
  139.8770   69.5530  227.2720 C   0  0  0  0  0  0  0  0  0  0  0  0
  140.4170   70.2590  228.3320 C   0  0  0  0  0  0  0  0  0  0  0  0
  141.0440   71.4760  228.0760 C   0  0  0  0  0  0  0  0  0  0  0  0
  141.1320   71.9850  226.7880 C   0  0  0  0  0  0  0  0  0  0  0  0
  140.5750   71.2430  225.7490 C   0  0  0  0  0  0  0  0  0  0  0  0
  140.6520   71.7220  224.4880 N   0  0  0  0  0  0  0  0  0  0  0  0
  141.1950   73.4250  222.7590 H   0  0  0  0  0  0  0  0  0  0  0  0
  139.9631   73.3864  220.0815 H   0  0  0  0  0  0  0  0  0  0  0  0
  141.2788   74.5055  220.6275 H   0  0  0  0  0  0  0  0  0  0  0  0
  144.2404   74.5263  219.2946 H   0  0  0  0  0  0  0  0  0  0  0  0
  143.4702   74.7008  220.8544 H   0  0  0  0  0  0  0  0  0  0  0  0
  145.3158   73.3207  221.9762 H   0  0  0  0  0  0  0  0  0  0  0  0
  146.7390   74.5460  219.9250 H   0  0  0  0  0  0  0  0  0  0  0  0
  146.4416   71.6392  220.3142 H   0  0  0  0  0  0  0  0  0  0  0  0
  146.0890   73.7940  218.7690 H   0  0  0  0  0  0  0  0  0  0  0  0
  144.1552   71.0512  220.9739 H   0  0  0  0  0  0  0  0  0  0  0  0
  143.9397   71.3742  218.2852 H   0  0  0  0  0  0  0  0  0  0  0  0
  145.2482   68.9574  217.9856 H   0  0  0  0  0  0  0  0  0  0  0  0
  145.9075   69.0553  219.3910 H   0  0  0  0  0  0  0  0  0  0  0  0
  142.7258   68.8271  218.7489 H   0  0  0  0  0  0  0  0  0  0  0  0
  142.9407   68.9013  220.2815 H   0  0  0  0  0  0  0  0  0  0  0  0
  139.0965   69.3246  222.7910 H   0  0  0  0  0  0  0  0  0  0  0  0
  138.9179   68.3851  225.0770 H   0  0  0  0  0  0  0  0  0  0  0  0
  139.3793   68.5899  227.4582 H   0  0  0  0  0  0  0  0  0  0  0  0
  140.3524   69.8666  229.3576 H   0  0  0  0  0  0  0  0  0  0  0  0
  141.4781   72.0450  228.9113 H   0  0  0  0  0  0  0  0  0  0  0  0
  141.6277   72.9474  226.5930 H   0  0  0  0  0  0  0  0  0  0  0  0
  1  2  2  0
  2  3  1  0
  3  4  1  0
  4  5  1  0
  5  6  2  0
  5  7  1  0
  7  8  1  0
  8  9  1  0
  9 10  1  0
  9 11  1  0
 11 12  1  0
 11 13  1  0
 13 14  1  0
 14 15  1  0
 15 16  1  0
  2 17  1  0
 17 18  2  0
 18 19  1  0
 19 20  2  0
 20 21  1  0
 21 22  2  0
 22 23  1  0
 23 24  2  0
 24 25  1  0
 25 26  2  0
 13  7  1  0
 16 14  1  0
 26 17  1  0
 25 20  1  0
  3 27  1  0
  4 28  1  0
  4 29  1  0
  8 30  1  0
  8 31  1  0
  9 32  1  1
 10 33  1  0
 11 34  1  1
 12 35  1  0
 13 36  1  1
 14 37  1  0
 15 38  1  0
 15 39  1  0
 16 40  1  0
 16 41  1  0
 18 42  1  0
 19 43  1  0
 21 44  1  0
 22 45  1  0
 23 46  1  0
 24 47  1  0
M  END
>  <smiles>  (7) 
O=C(NCC(=O)N1C[C@H](O)[C@H](O)[C@@H]1C1CC1)c1ccc2ccccc2n1

>  <score_type>  (7) 
oracle

>  <origin>  (7) 
autodockgpu

>  <m_score__min__energy>  (7) 
-8.4399999999999995

>  <m_primary>  (7) 
energy

>  <rmsd>  (7) 
3.945235664083913

>  <m_score__min__rmsd>  (7) 
3.945235664083913

>  <meeko>  (7) 
{"free_energy": -7.58, "intermolecular_energy": -9.67, "internal_energy": -2.79, "cluster_size": 25, "cluster_id": 1, "rank_in_cluster": 14}

>  <energy>  (7) 
-8.21

>  <cluster_rmsd>  (7) 
1.05

>  <cluster>  (7) 
1

$$$$

     RDKit          3D

 47 50  0  0  0  0  0  0  0  0999 V2000
  140.4110   73.6050  222.3360 O   0  0  0  0  0  0  0  0  0  0  0  0
  140.4110   72.3430  222.2190 C   0  0  0  0  0  0  0  0  0  0  0  0
  140.5390   71.6900  220.9580 N   0  0  0  0  0  0  0  0  0  0  0  0
  140.6720   72.5310  219.7830 C   0  0  0  0  0  0  0  0  0  0  0  0
  141.9240   72.2400  219.0470 C   0  0  0  0  0  0  0  0  0  0  0  0
  141.8260   71.7700  217.8930 O   0  0  0  0  0  0  0  0  0  0  0  0
  143.2250   72.4610  219.5660 N   0  0  0  0  0  0  0  0  0  0  0  0
  143.6990   73.8360  219.8390 C   0  0  0  0  0  0  0  0  0  0  0  0
  144.8840   73.6010  220.7950 C   0  0  2  0  0  0  0  0  0  0  0  0
  145.7220   74.6840  220.8410 O   0  0  0  0  0  0  0  0  0  0  0  0
  145.4890   72.3930  220.1060 C   0  0  2  0  0  0  0  0  0  0  0  0
  145.9960   72.8700  218.9000 O   0  0  0  0  0  0  0  0  0  0  0  0
  144.2750   71.5350  219.9220 C   0  0  2  0  0  0  0  0  0  0  0  0
  144.4720   70.4020  218.9730 C   0  0  0  0  0  0  0  0  0  0  0  0
  145.1790   69.1690  219.3130 C   0  0  0  0  0  0  0  0  0  0  0  0
  143.6560   69.1590  219.1460 C   0  0  0  0  0  0  0  0  0  0  0  0
  140.2750   71.5250  223.4200 C   0  0  0  0  0  0  0  0  0  0  0  0
  139.6980   70.2760  223.3750 C   0  0  0  0  0  0  0  0  0  0  0  0
  139.5700   69.5020  224.5160 C   0  0  0  0  0  0  0  0  0  0  0  0
  140.0280   69.9880  225.7240 C   0  0  0  0  0  0  0  0  0  0  0  0
  139.9220   69.2510  226.8860 C   0  0  0  0  0  0  0  0  0  0  0  0
  140.3860   69.7530  228.0880 C   0  0  0  0  0  0  0  0  0  0  0  0
  140.9650   71.0190  228.1070 C   0  0  0  0  0  0  0  0  0  0  0  0
  141.0820   71.7760  226.9490 C   0  0  0  0  0  0  0  0  0  0  0  0
  140.6010   71.2340  225.7590 C   0  0  0  0  0  0  0  0  0  0  0  0
  140.7060   71.9560  224.6220 N   0  0  0  0  0  0  0  0  0  0  0  0
  140.5300   70.6510  220.9340 H   0  0  0  0  0  0  0  0  0  0  0  0
  139.8155   72.3521  219.1164 H   0  0  0  0  0  0  0  0  0  0  0  0
  140.7000   73.5806  220.1108 H   0  0  0  0  0  0  0  0  0  0  0  0
  144.0276   74.3334  218.9145 H   0  0  0  0  0  0  0  0  0  0  0  0
  142.9215   74.4907  220.2596 H   0  0  0  0  0  0  0  0  0  0  0  0
  144.6379   73.4517  221.8567 H   0  0  0  0  0  0  0  0  0  0  0  0
  146.3610   74.6990  220.0850 H   0  0  0  0  0  0  0  0  0  0  0  0
  146.2980   71.8510  220.6177 H   0  0  0  0  0  0  0  0  0  0  0  0
  146.0550   73.8390  218.8630 H   0  0  0  0  0  0  0  0  0  0  0  0
  144.0146   70.9870  220.8396 H   0  0  0  0  0  0  0  0  0  0  0  0
  144.6288   71.1428  218.1751 H   0  0  0  0  0  0  0  0  0  0  0  0
  145.8177   68.6769  218.5648 H   0  0  0  0  0  0  0  0  0  0  0  0
  145.8766   68.8659  220.1076 H   0  0  0  0  0  0  0  0  0  0  0  0
  143.1951   68.6704  218.2749 H   0  0  0  0  0  0  0  0  0  0  0  0
  142.7947   68.8570  219.7600 H   0  0  0  0  0  0  0  0  0  0  0  0
  139.3316   69.8853  222.4142 H   0  0  0  0  0  0  0  0  0  0  0  0
  139.1063   68.5061  224.4601 H   0  0  0  0  0  0  0  0  0  0  0  0
  139.4627   68.2519  226.8556 H   0  0  0  0  0  0  0  0  0  0  0  0
  140.2992   69.1629  229.0122 H   0  0  0  0  0  0  0  0  0  0  0  0
  141.3371   71.4275  229.0581 H   0  0  0  0  0  0  0  0  0  0  0  0
  141.5414   72.7753  226.9705 H   0  0  0  0  0  0  0  0  0  0  0  0
  1  2  2  0
  2  3  1  0
  3  4  1  0
  4  5  1  0
  5  6  2  0
  5  7  1  0
  7  8  1  0
  8  9  1  0
  9 10  1  0
  9 11  1  0
 11 12  1  0
 11 13  1  0
 13 14  1  0
 14 15  1  0
 15 16  1  0
  2 17  1  0
 17 18  2  0
 18 19  1  0
 19 20  2  0
 20 21  1  0
 21 22  2  0
 22 23  1  0
 23 24  2  0
 24 25  1  0
 25 26  2  0
 13  7  1  0
 16 14  1  0
 26 17  1  0
 25 20  1  0
  3 27  1  0
  4 28  1  0
  4 29  1  0
  8 30  1  0
  8 31  1  0
  9 32  1  1
 10 33  1  0
 11 34  1  1
 12 35  1  0
 13 36  1  1
 14 37  1  0
 15 38  1  0
 15 39  1  0
 16 40  1  0
 16 41  1  0
 18 42  1  0
 19 43  1  0
 21 44  1  0
 22 45  1  0
 23 46  1  0
 24 47  1  0
M  END
>  <smiles>  (8) 
O=C(NCC(=O)N1C[C@H](O)[C@H](O)[C@@H]1C1CC1)c1ccc2ccccc2n1

>  <score_type>  (8) 
oracle

>  <origin>  (8) 
autodockgpu

>  <m_score__min__energy>  (8) 
-8.4399999999999995

>  <m_primary>  (8) 
energy

>  <rmsd>  (8) 
4.004875088508245

>  <m_score__min__rmsd>  (8) 
4.004875088508245

>  <meeko>  (8) 
{"free_energy": -7.94, "intermolecular_energy": -10.03, "internal_energy": -2.5, "cluster_size": 25, "cluster_id": 1, "rank_in_cluster": 12}

>  <energy>  (8) 
-8.19

>  <cluster_rmsd>  (8) 
0.91

>  <cluster>  (8) 
1

$$$$

     RDKit          3D

 47 50  0  0  0  0  0  0  0  0999 V2000
  141.3660   71.5900  221.7680 O   0  0  0  0  0  0  0  0  0  0  0  0
  140.5480   71.9190  222.6780 C   0  0  0  0  0  0  0  0  0  0  0  0
  139.8740   73.1760  222.6840 N   0  0  0  0  0  0  0  0  0  0  0  0
  140.1590   74.0910  221.5950 C   0  0  0  0  0  0  0  0  0  0  0  0
  139.7860   75.4820  221.9420 C   0  0  0  0  0  0  0  0  0  0  0  0
  138.9080   75.6490  222.8150 O   0  0  0  0  0  0  0  0  0  0  0  0
  140.3600   76.6350  221.3470 N   0  0  0  0  0  0  0  0  0  0  0  0
  141.4450   76.5020  220.3520 C   0  0  0  0  0  0  0  0  0  0  0  0
  141.4260   77.8710  219.6460 C   0  0  2  0  0  0  0  0  0  0  0  0
  142.6010   78.1210  218.9880 O   0  0  0  0  0  0  0  0  0  0  0  0
  141.2120   78.7460  220.8650 C   0  0  2  0  0  0  0  0  0  0  0  0
  142.3940   78.6560  221.5970 O   0  0  0  0  0  0  0  0  0  0  0  0
  140.0700   78.0380  221.5250 C   0  0  2  0  0  0  0  0  0  0  0  0
  139.8260   78.4640  222.9340 C   0  0  0  0  0  0  0  0  0  0  0  0
  140.4210   79.6530  223.5400 C   0  0  0  0  0  0  0  0  0  0  0  0
  138.9280   79.6330  223.1940 C   0  0  0  0  0  0  0  0  0  0  0  0
  140.2820   70.9780  223.7610 C   0  0  0  0  0  0  0  0  0  0  0  0
  139.5500   69.8320  223.5530 C   0  0  0  0  0  0  0  0  0  0  0  0
  139.3000   68.9420  224.5830 C   0  0  0  0  0  0  0  0  0  0  0  0
  139.7930   69.2040  225.8450 C   0  0  0  0  0  0  0  0  0  0  0  0
  139.5680   68.3440  226.9010 C   0  0  0  0  0  0  0  0  0  0  0  0
  140.0690   68.6220  228.1600 C   0  0  0  0  0  0  0  0  0  0  0  0
  140.8070   69.7880  228.3450 C   0  0  0  0  0  0  0  0  0  0  0  0
  141.0440   70.6650  227.2950 C   0  0  0  0  0  0  0  0  0  0  0  0
  140.5210   70.3480  226.0440 C   0  0  0  0  0  0  0  0  0  0  0  0
  140.7420   71.1900  225.0100 N   0  0  0  0  0  0  0  0  0  0  0  0
  139.2160   73.3830  223.4620 H   0  0  0  0  0  0  0  0  0  0  0  0
  141.2353   74.0551  221.3705 H   0  0  0  0  0  0  0  0  0  0  0  0
  139.5659   73.7827  220.7214 H   0  0  0  0  0  0  0  0  0  0  0  0
  142.4131   76.3219  220.8423 H   0  0  0  0  0  0  0  0  0  0  0  0
  141.3059   75.6543  219.6649 H   0  0  0  0  0  0  0  0  0  0  0  0
  140.6814   78.0027  218.8471 H   0  0  0  0  0  0  0  0  0  0  0  0
  143.3250   78.3990  219.6030 H   0  0  0  0  0  0  0  0  0  0  0  0
  140.9950   79.8132  220.7099 H   0  0  0  0  0  0  0  0  0  0  0  0
  143.1050   78.1940  221.1240 H   0  0  0  0  0  0  0  0  0  0  0  0
  139.1041   78.2956  221.0661 H   0  0  0  0  0  0  0  0  0  0  0  0
  139.8497   77.4028  223.2225 H   0  0  0  0  0  0  0  0  0  0  0  0
  140.7423   79.6322  224.5918 H   0  0  0  0  0  0  0  0  0  0  0  0
  141.2680   80.3106  223.2945 H   0  0  0  0  0  0  0  0  0  0  0  0
  138.1725   79.5875  223.9922 H   0  0  0  0  0  0  0  0  0  0  0  0
  138.2459   80.2552  222.5961 H   0  0  0  0  0  0  0  0  0  0  0  0
  139.1557   69.6188  222.5485 H   0  0  0  0  0  0  0  0  0  0  0  0
  138.7119   68.0313  224.3968 H   0  0  0  0  0  0  0  0  0  0  0  0
  138.9832   67.4265  226.7394 H   0  0  0  0  0  0  0  0  0  0  0  0
  139.8877   67.9346  228.9994 H   0  0  0  0  0  0  0  0  0  0  0  0
  141.2100   70.0188  229.3421 H   0  0  0  0  0  0  0  0  0  0  0  0
  141.6285   71.5844  227.4471 H   0  0  0  0  0  0  0  0  0  0  0  0
  1  2  2  0
  2  3  1  0
  3  4  1  0
  4  5  1  0
  5  6  2  0
  5  7  1  0
  7  8  1  0
  8  9  1  0
  9 10  1  0
  9 11  1  0
 11 12  1  0
 11 13  1  0
 13 14  1  0
 14 15  1  0
 15 16  1  0
  2 17  1  0
 17 18  2  0
 18 19  1  0
 19 20  2  0
 20 21  1  0
 21 22  2  0
 22 23  1  0
 23 24  2  0
 24 25  1  0
 25 26  2  0
 13  7  1  0
 16 14  1  0
 26 17  1  0
 25 20  1  0
  3 27  1  0
  4 28  1  0
  4 29  1  0
  8 30  1  0
  8 31  1  0
  9 32  1  6
 10 33  1  0
 11 34  1  6
 12 35  1  0
 13 36  1  6
 14 37  1  0
 15 38  1  0
 15 39  1  0
 16 40  1  0
 16 41  1  0
 18 42  1  0
 19 43  1  0
 21 44  1  0
 22 45  1  0
 23 46  1  0
 24 47  1  0
M  END
>  <smiles>  (9) 
O=C(NCC(=O)N1C[C@H](O)[C@H](O)[C@@H]1C1CC1)c1ccc2ccccc2n1

>  <score_type>  (9) 
oracle

>  <origin>  (9) 
autodockgpu

>  <m_score__min__energy>  (9) 
-8.4399999999999995

>  <m_primary>  (9) 
energy

>  <rmsd>  (9) 
2.8075886663104397

>  <m_score__min__rmsd>  (9) 
2.8075886663104397

>  <meeko>  (9) 
{"free_energy": -7.53, "intermolecular_energy": -9.62, "internal_energy": -2.59, "cluster_size": 9, "cluster_id": 3, "rank_in_cluster": 3}

>  <energy>  (9) 
-8.12

>  <cluster_rmsd>  (9) 
0.26

>  <cluster>  (9) 
1

$$$$

     RDKit          3D

 47 50  0  0  0  0  0  0  0  0999 V2000
  140.4820   71.1750  221.4290 O   0  0  0  0  0  0  0  0  0  0  0  0
  140.1470   71.6670  222.5470 C   0  0  0  0  0  0  0  0  0  0  0  0
  139.9060   73.0610  222.7300 N   0  0  0  0  0  0  0  0  0  0  0  0
  140.0610   73.9220  221.5720 C   0  0  0  0  0  0  0  0  0  0  0  0
  139.6820   75.3200  221.8820 C   0  0  0  0  0  0  0  0  0  0  0  0
  138.7740   75.5060  222.7200 O   0  0  0  0  0  0  0  0  0  0  0  0
  140.2820   76.4600  221.2880 N   0  0  0  0  0  0  0  0  0  0  0  0
  141.4270   76.3070  220.3650 C   0  0  0  0  0  0  0  0  0  0  0  0
  141.4410   77.6540  219.6170 C   0  0  2  0  0  0  0  0  0  0  0  0
  142.6520   77.8960  219.0250 O   0  0  0  0  0  0  0  0  0  0  0  0
  141.1470   78.5640  220.7950 C   0  0  2  0  0  0  0  0  0  0  0  0
  142.2830   78.5060  221.5990 O   0  0  0  0  0  0  0  0  0  0  0  0
  139.9720   77.8650  221.4060 C   0  0  2  0  0  0  0  0  0  0  0  0
  139.6400   78.3310  222.7840 C   0  0  0  0  0  0  0  0  0  0  0  0
  140.2670   79.4830  223.4270 C   0  0  0  0  0  0  0  0  0  0  0  0
  138.8130   79.5670  222.9530 C   0  0  0  0  0  0  0  0  0  0  0  0
  140.0000   70.7760  223.6930 C   0  0  0  0  0  0  0  0  0  0  0  0
  139.3870   69.5500  223.5750 C   0  0  0  0  0  0  0  0  0  0  0  0
  139.2490   68.7060  224.6640 C   0  0  0  0  0  0  0  0  0  0  0  0
  139.7340   69.0990  225.8950 C   0  0  0  0  0  0  0  0  0  0  0  0
  139.6190   68.2910  227.0080 C   0  0  0  0  0  0  0  0  0  0  0  0
  140.1100   68.6990  228.2340 C   0  0  0  0  0  0  0  0  0  0  0  0
  140.7260   69.9450  228.3280 C   0  0  0  0  0  0  0  0  0  0  0  0
  140.8520   70.7720  227.2210 C   0  0  0  0  0  0  0  0  0  0  0  0
  140.3430   70.3230  226.0040 C   0  0  0  0  0  0  0  0  0  0  0  0
  140.4570   71.1140  224.9150 N   0  0  0  0  0  0  0  0  0  0  0  0
  139.6340   73.3980  223.6760 H   0  0  0  0  0  0  0  0  0  0  0  0
  141.1119   73.8998  221.2479 H   0  0  0  0  0  0  0  0  0  0  0  0
  139.3984   73.5527  220.7754 H   0  0  0  0  0  0  0  0  0  0  0  0
  142.3647   76.1509  220.9186 H   0  0  0  0  0  0  0  0  0  0  0  0
  141.3364   75.4376  219.6972 H   0  0  0  0  0  0  0  0  0  0  0  0
  140.7457   77.7537  218.7705 H   0  0  0  0  0  0  0  0  0  0  0  0
  143.3210   78.2470  219.6640 H   0  0  0  0  0  0  0  0  0  0  0  0
  140.9321   79.6241  220.5952 H   0  0  0  0  0  0  0  0  0  0  0  0
  143.0340   78.0600  221.1730 H   0  0  0  0  0  0  0  0  0  0  0  0
  139.0337   78.0995  220.8820 H   0  0  0  0  0  0  0  0  0  0  0  0
  139.5596   77.2758  223.0842 H   0  0  0  0  0  0  0  0  0  0  0  0
  140.4941   79.4563  224.5030 H   0  0  0  0  0  0  0  0  0  0  0  0
  141.1785   80.0726  223.2493 H   0  0  0  0  0  0  0  0  0  0  0  0
  137.9904   79.5905  223.6829 H   0  0  0  0  0  0  0  0  0  0  0  0
  138.2332   80.2277  222.2917 H   0  0  0  0  0  0  0  0  0  0  0  0
  138.9986   69.2338  222.5956 H   0  0  0  0  0  0  0  0  0  0  0  0
  138.7563   67.7293  224.5489 H   0  0  0  0  0  0  0  0  0  0  0  0
  139.1303   67.3096  226.9182 H   0  0  0  0  0  0  0  0  0  0  0  0
  140.0161   68.0521  229.1187 H   0  0  0  0  0  0  0  0  0  0  0  0
  141.1202   70.2798  229.2988 H   0  0  0  0  0  0  0  0  0  0  0  0
  141.3400   71.7545  227.3018 H   0  0  0  0  0  0  0  0  0  0  0  0
  1  2  2  0
  2  3  1  0
  3  4  1  0
  4  5  1  0
  5  6  2  0
  5  7  1  0
  7  8  1  0
  8  9  1  0
  9 10  1  0
  9 11  1  0
 11 12  1  0
 11 13  1  0
 13 14  1  0
 14 15  1  0
 15 16  1  0
  2 17  1  0
 17 18  2  0
 18 19  1  0
 19 20  2  0
 20 21  1  0
 21 22  2  0
 22 23  1  0
 23 24  2  0
 24 25  1  0
 25 26  2  0
 13  7  1  0
 16 14  1  0
 26 17  1  0
 25 20  1  0
  3 27  1  0
  4 28  1  0
  4 29  1  0
  8 30  1  0
  8 31  1  0
  9 32  1  6
 10 33  1  0
 11 34  1  6
 12 35  1  0
 13 36  1  6
 14 37  1  0
 15 38  1  0
 15 39  1  0
 16 40  1  0
 16 41  1  0
 18 42  1  0
 19 43  1  0
 21 44  1  0
 22 45  1  0
 23 46  1  0
 24 47  1  0
M  END
>  <smiles>  (10) 
O=C(NCC(=O)N1C[C@H](O)[C@H](O)[C@@H]1C1CC1)c1ccc2ccccc2n1

>  <score_type>  (10) 
oracle

>  <origin>  (10) 
autodockgpu

>  <m_score__min__energy>  (10) 
-8.4399999999999995

>  <m_primary>  (10) 
energy

>  <rmsd>  (10) 
2.69576380004019

>  <m_score__min__rmsd>  (10) 
2.69576380004019

>  <meeko>  (10) 
{"free_energy": -7.37, "intermolecular_energy": -9.46, "internal_energy": -2.59, "cluster_size": 9, "cluster_id": 3, "rank_in_cluster": 5}

>  <energy>  (10) 
-8.12

>  <cluster_rmsd>  (10) 
1.15

>  <cluster>  (10) 
1

$$$$

     RDKit          3D

 47 50  0  0  0  0  0  0  0  0999 V2000
  139.9430   70.8830  221.0910 O   0  0  0  0  0  0  0  0  0  0  0  0
  140.3310   71.6010  222.0600 C   0  0  0  0  0  0  0  0  0  0  0  0
  140.8840   72.9020  221.8770 N   0  0  0  0  0  0  0  0  0  0  0  0
  140.9960   73.3940  220.5170 C   0  0  0  0  0  0  0  0  0  0  0  0
  142.2200   74.2080  220.3320 C   0  0  0  0  0  0  0  0  0  0  0  0
  142.0830   75.4400  220.1770 O   0  0  0  0  0  0  0  0  0  0  0  0
  143.5360   73.6790  220.3210 N   0  0  0  0  0  0  0  0  0  0  0  0
  144.7040   74.5770  220.4500 C   0  0  0  0  0  0  0  0  0  0  0  0
  145.8290   73.6100  220.8660 C   0  0  2  0  0  0  0  0  0  0  0  0
  147.0700   74.1420  220.6330 O   0  0  0  0  0  0  0  0  0  0  0  0
  145.4810   72.4550  219.9460 C   0  0  2  0  0  0  0  0  0  0  0  0
  145.7580   72.9110  218.6590 O   0  0  0  0  0  0  0  0  0  0  0  0
  144.0120   72.3200  220.2060 C   0  0  2  0  0  0  0  0  0  0  0  0
  143.2950   71.4770  219.2060 C   0  0  0  0  0  0  0  0  0  0  0  0
  143.8350   70.2390  218.6480 C   0  0  0  0  0  0  0  0  0  0  0  0
  142.6790   70.1880  219.6520 C   0  0  0  0  0  0  0  0  0  0  0  0
  140.2060   71.0790  223.4170 C   0  0  0  0  0  0  0  0  0  0  0  0
  139.5470   69.8980  223.6740 C   0  0  0  0  0  0  0  0  0  0  0  0
  139.4310   69.4050  224.9630 C   0  0  0  0  0  0  0  0  0  0  0  0
  139.9840   70.1090  226.0140 C   0  0  0  0  0  0  0  0  0  0  0  0
  139.8930   69.6550  227.3140 C   0  0  0  0  0  0  0  0  0  0  0  0
  140.4520   70.3720  228.3550 C   0  0  0  0  0  0  0  0  0  0  0  0
  141.1140   71.5640  228.0690 C   0  0  0  0  0  0  0  0  0  0  0  0
  141.2170   72.0360  226.7690 C   0  0  0  0  0  0  0  0  0  0  0  0
  140.6390   71.2840  225.7490 C   0  0  0  0  0  0  0  0  0  0  0  0
  140.7290   71.7290  224.4760 N   0  0  0  0  0  0  0  0  0  0  0  0
  141.1830   73.4380  222.7170 H   0  0  0  0  0  0  0  0  0  0  0  0
  141.0297   72.5367  219.8286 H   0  0  0  0  0  0  0  0  0  0  0  0
  140.1238   74.0308  220.3079 H   0  0  0  0  0  0  0  0  0  0  0  0
  144.9356   75.0669  219.4927 H   0  0  0  0  0  0  0  0  0  0  0  0
  144.5470   75.3981  221.1650 H   0  0  0  0  0  0  0  0  0  0  0  0
  145.8839   73.3503  221.9335 H   0  0  0  0  0  0  0  0  0  0  0  0
  147.2140   74.3590  219.6780 H   0  0  0  0  0  0  0  0  0  0  0  0
  146.0094   71.5001  220.0835 H   0  0  0  0  0  0  0  0  0  0  0  0
  146.1850   73.7820  218.6430 H   0  0  0  0  0  0  0  0  0  0  0  0
  143.8062   71.7578  221.1288 H   0  0  0  0  0  0  0  0  0  0  0  0
  142.9396   72.4032  218.7307 H   0  0  0  0  0  0  0  0  0  0  0  0
  143.6578   69.9884  217.5917 H   0  0  0  0  0  0  0  0  0  0  0  0
  144.8344   69.7833  218.5882 H   0  0  0  0  0  0  0  0  0  0  0  0
  141.6669   69.9114  219.3215 H   0  0  0  0  0  0  0  0  0  0  0  0
  142.4897   69.6935  220.6162 H   0  0  0  0  0  0  0  0  0  0  0  0
  139.1039   69.3350  222.8393 H   0  0  0  0  0  0  0  0  0  0  0  0
  138.9017   68.4587  225.1482 H   0  0  0  0  0  0  0  0  0  0  0  0
  139.3692   68.7109  227.5243 H   0  0  0  0  0  0  0  0  0  0  0  0
  140.3756   70.0082  229.3903 H   0  0  0  0  0  0  0  0  0  0  0  0
  141.5636   72.1418  228.8900 H   0  0  0  0  0  0  0  0  0  0  0  0
  141.7406   72.9781  226.5495 H   0  0  0  0  0  0  0  0  0  0  0  0
  1  2  2  0
  2  3  1  0
  3  4  1  0
  4  5  1  0
  5  6  2  0
  5  7  1  0
  7  8  1  0
  8  9  1  0
  9 10  1  0
  9 11  1  0
 11 12  1  0
 11 13  1  0
 13 14  1  0
 14 15  1  0
 15 16  1  0
  2 17  1  0
 17 18  2  0
 18 19  1  0
 19 20  2  0
 20 21  1  0
 21 22  2  0
 22 23  1  0
 23 24  2  0
 24 25  1  0
 25 26  2  0
 13  7  1  0
 16 14  1  0
 26 17  1  0
 25 20  1  0
  3 27  1  0
  4 28  1  0
  4 29  1  0
  8 30  1  0
  8 31  1  0
  9 32  1  1
 10 33  1  0
 11 34  1  1
 12 35  1  0
 13 36  1  1
 14 37  1  0
 15 38  1  0
 15 39  1  0
 16 40  1  0
 16 41  1  0
 18 42  1  0
 19 43  1  0
 21 44  1  0
 22 45  1  0
 23 46  1  0
 24 47  1  0
M  END
>  <smiles>  (11) 
O=C(NCC(=O)N1C[C@H](O)[C@H](O)[C@@H]1C1CC1)c1ccc2ccccc2n1

>  <score_type>  (11) 
oracle

>  <origin>  (11) 
autodockgpu

>  <m_score__min__energy>  (11) 
-8.4399999999999995

>  <m_primary>  (11) 
energy

>  <rmsd>  (11) 
3.828420370528708

>  <m_score__min__rmsd>  (11) 
3.828420370528708

>  <meeko>  (11) 
{"free_energy": -7.54, "intermolecular_energy": -9.63, "internal_energy": -2.76, "cluster_size": 25, "cluster_id": 1, "rank_in_cluster": 18}

>  <energy>  (11) 
-8.1

>  <cluster_rmsd>  (11) 
1.07

>  <cluster>  (11) 
1

$$$$

     RDKit          3D

 47 50  0  0  0  0  0  0  0  0999 V2000
  141.4390   71.8990  221.6220 O   0  0  0  0  0  0  0  0  0  0  0  0
  140.5200   72.2650  222.4140 C   0  0  0  0  0  0  0  0  0  0  0  0
  139.7010   73.4040  222.1640 N   0  0  0  0  0  0  0  0  0  0  0  0
  139.9550   74.1540  220.9470 C   0  0  0  0  0  0  0  0  0  0  0  0
  140.9480   75.2300  221.1710 C   0  0  0  0  0  0  0  0  0  0  0  0
  141.0350   75.7140  222.3190 O   0  0  0  0  0  0  0  0  0  0  0  0
  141.8060   75.7460  220.1660 N   0  0  0  0  0  0  0  0  0  0  0  0
  141.3040   76.7370  219.1900 C   0  0  0  0  0  0  0  0  0  0  0  0
  142.6030   77.3570  218.6390 C   0  0  2  0  0  0  0  0  0  0  0  0
  142.3980   77.9850  217.4390 O   0  0  0  0  0  0  0  0  0  0  0  0
  143.4250   76.0870  218.5280 C   0  0  2  0  0  0  0  0  0  0  0  0
  142.8310   75.3510  217.5050 O   0  0  0  0  0  0  0  0  0  0  0  0
  143.1970   75.4840  219.8800 C   0  0  2  0  0  0  0  0  0  0  0  0
  143.6090   74.0540  219.9820 C   0  0  0  0  0  0  0  0  0  0  0  0
  144.7710   73.4910  219.2980 C   0  0  0  0  0  0  0  0  0  0  0  0
  144.8020   73.7000  220.8160 C   0  0  0  0  0  0  0  0  0  0  0  0
  140.2890   71.4910  223.6300 C   0  0  0  0  0  0  0  0  0  0  0  0
  139.6040   70.2980  223.6020 C   0  0  0  0  0  0  0  0  0  0  0  0
  139.3860   69.5660  224.7570 C   0  0  0  0  0  0  0  0  0  0  0  0
  139.8640   70.0390  225.9620 C   0  0  0  0  0  0  0  0  0  0  0  0
  139.6700   69.3430  227.1380 C   0  0  0  0  0  0  0  0  0  0  0  0
  140.1550   69.8300  228.3380 C   0  0  0  0  0  0  0  0  0  0  0  0
  140.8450   71.0400  228.3400 C   0  0  0  0  0  0  0  0  0  0  0  0
  141.0500   71.7540  227.1680 C   0  0  0  0  0  0  0  0  0  0  0  0
  140.5450   71.2290  225.9810 C   0  0  0  0  0  0  0  0  0  0  0  0
  140.7350   71.9100  224.8300 N   0  0  0  0  0  0  0  0  0  0  0  0
  138.9650   73.6490  222.8560 H   0  0  0  0  0  0  0  0  0  0  0  0
  140.3386   73.4679  220.1775 H   0  0  0  0  0  0  0  0  0  0  0  0
  139.0112   74.6167  220.6229 H   0  0  0  0  0  0  0  0  0  0  0  0
  140.7269   76.2493  218.3905 H   0  0  0  0  0  0  0  0  0  0  0  0
  140.6199   77.4768  219.6313 H   0  0  0  0  0  0  0  0  0  0  0  0
  143.0625   78.1536  219.2425 H   0  0  0  0  0  0  0  0  0  0  0  0
  142.5900   77.3960  216.6680 H   0  0  0  0  0  0  0  0  0  0  0  0
  144.4967   76.1765  218.2970 H   0  0  0  0  0  0  0  0  0  0  0  0
  142.2270   75.8740  216.9550 H   0  0  0  0  0  0  0  0  0  0  0  0
  143.8423   75.9360  220.6476 H   0  0  0  0  0  0  0  0  0  0  0  0
  142.5435   73.7810  219.9656 H   0  0  0  0  0  0  0  0  0  0  0  0
  144.7256   72.4730  218.8838 H   0  0  0  0  0  0  0  0  0  0  0  0
  145.4059   73.8051  218.4564 H   0  0  0  0  0  0  0  0  0  0  0  0
  144.7684   72.8370  221.4973 H   0  0  0  0  0  0  0  0  0  0  0  0
  145.4533   74.2263  221.5293 H   0  0  0  0  0  0  0  0  0  0  0  0
  139.2219   69.9182  222.6430 H   0  0  0  0  0  0  0  0  0  0  0  0
  138.8358   68.6144  224.7143 H   0  0  0  0  0  0  0  0  0  0  0  0
  139.1227   68.3890  227.1205 H   0  0  0  0  0  0  0  0  0  0  0  0
  139.9988   69.2724  229.2732 H   0  0  0  0  0  0  0  0  0  0  0  0
  141.2349   71.4371  229.2888 H   0  0  0  0  0  0  0  0  0  0  0  0
  141.5965   72.7086  227.1762 H   0  0  0  0  0  0  0  0  0  0  0  0
  1  2  2  0
  2  3  1  0
  3  4  1  0
  4  5  1  0
  5  6  2  0
  5  7  1  0
  7  8  1  0
  8  9  1  0
  9 10  1  0
  9 11  1  0
 11 12  1  0
 11 13  1  0
 13 14  1  0
 14 15  1  0
 15 16  1  0
  2 17  1  0
 17 18  2  0
 18 19  1  0
 19 20  2  0
 20 21  1  0
 21 22  2  0
 22 23  1  0
 23 24  2  0
 24 25  1  0
 25 26  2  0
 13  7  1  0
 16 14  1  0
 26 17  1  0
 25 20  1  0
  3 27  1  0
  4 28  1  0
  4 29  1  0
  8 30  1  0
  8 31  1  0
  9 32  1  1
 10 33  1  0
 11 34  1  6
 12 35  1  0
 13 36  1  1
 14 37  1  0
 15 38  1  0
 15 39  1  0
 16 40  1  0
 16 41  1  0
 18 42  1  0
 19 43  1  0
 21 44  1  0
 22 45  1  0
 23 46  1  0
 24 47  1  0
M  END
>  <smiles>  (12) 
O=C(NCC(=O)N1C[C@H](O)[C@H](O)[C@@H]1C1CC1)c1ccc2ccccc2n1

>  <score_type>  (12) 
oracle

>  <origin>  (12) 
autodockgpu

>  <m_score__min__energy>  (12) 
-8.4399999999999995

>  <m_primary>  (12) 
energy

>  <rmsd>  (12) 
2.169006729019614

>  <m_score__min__rmsd>  (12) 
2.169006729019614

>  <meeko>  (12) 
{"free_energy": -7.03, "intermolecular_energy": -9.12, "internal_energy": -2.6, "cluster_size": 4, "cluster_id": 6, "rank_in_cluster": 3}

>  <energy>  (12) 
-7.94

>  <cluster_rmsd>  (12) 
1.01

>  <cluster>  (12) 
1

$$$$

     RDKit          3D

 47 50  0  0  0  0  0  0  0  0999 V2000
  140.2830   73.5020  222.3760 O   0  0  0  0  0  0  0  0  0  0  0  0
  140.4290   72.2440  222.3170 C   0  0  0  0  0  0  0  0  0  0  0  0
  140.7510   71.5650  221.1050 N   0  0  0  0  0  0  0  0  0  0  0  0
  140.9110   72.3740  219.9110 C   0  0  0  0  0  0  0  0  0  0  0  0
  142.1520   72.0240  219.1810 C   0  0  0  0  0  0  0  0  0  0  0  0
  142.0380   71.4110  218.0980 O   0  0  0  0  0  0  0  0  0  0  0  0
  143.4590   72.3390  219.6330 N   0  0  0  0  0  0  0  0  0  0  0  0
  143.8330   73.7400  219.9250 C   0  0  0  0  0  0  0  0  0  0  0  0
  145.0890   73.5780  220.8030 C   0  0  2  0  0  0  0  0  0  0  0  0
  145.8360   74.7260  220.8390 O   0  0  0  0  0  0  0  0  0  0  0  0
  145.7490   72.4460  220.0390 C   0  0  2  0  0  0  0  0  0  0  0  0
  146.1410   73.0010  218.8230 O   0  0  0  0  0  0  0  0  0  0  0  0
  144.6010   71.4950  219.8960 C   0  0  2  0  0  0  0  0  0  0  0  0
  144.8350   70.4110  218.8980 C   0  0  0  0  0  0  0  0  0  0  0  0
  146.0010   69.5300  218.9100 C   0  0  0  0  0  0  0  0  0  0  0  0
  144.6250   68.9870  219.3110 C   0  0  0  0  0  0  0  0  0  0  0  0
  140.2610   71.4590  223.5360 C   0  0  0  0  0  0  0  0  0  0  0  0
  139.6230   70.2400  223.5210 C   0  0  0  0  0  0  0  0  0  0  0  0
  139.4650   69.4970  224.6790 C   0  0  0  0  0  0  0  0  0  0  0  0
  139.9550   69.9840  225.8730 C   0  0  0  0  0  0  0  0  0  0  0  0
  139.8200   69.2780  227.0510 C   0  0  0  0  0  0  0  0  0  0  0  0
  140.3170   69.7800  228.2390 C   0  0  0  0  0  0  0  0  0  0  0  0
  140.9590   71.0170  228.2280 C   0  0  0  0  0  0  0  0  0  0  0  0
  141.1050   71.7420  227.0540 C   0  0  0  0  0  0  0  0  0  0  0  0
  140.5890   71.2000  225.8790 C   0  0  0  0  0  0  0  0  0  0  0  0
  140.7220   71.8920  224.7250 N   0  0  0  0  0  0  0  0  0  0  0  0
  140.8550   70.5310  221.1280 H   0  0  0  0  0  0  0  0  0  0  0  0
  140.0481   72.2090  219.2490 H   0  0  0  0  0  0  0  0  0  0  0  0
  140.9749   73.4293  220.2148 H   0  0  0  0  0  0  0  0  0  0  0  0
  144.0631   74.2902  219.0007 H   0  0  0  0  0  0  0  0  0  0  0  0
  143.0307   74.3141  220.4116 H   0  0  0  0  0  0  0  0  0  0  0  0
  144.9204   73.3773  221.8713 H   0  0  0  0  0  0  0  0  0  0  0  0
  146.4730   74.7840  220.0840 H   0  0  0  0  0  0  0  0  0  0  0  0
  146.6292   71.9585  220.4835 H   0  0  0  0  0  0  0  0  0  0  0  0
  146.0940   73.9700  218.8080 H   0  0  0  0  0  0  0  0  0  0  0  0
  144.4410   70.9004  220.8075 H   0  0  0  0  0  0  0  0  0  0  0  0
  144.4293   71.0812  218.1259 H   0  0  0  0  0  0  0  0  0  0  0  0
  146.4620   69.2147  217.9624 H   0  0  0  0  0  0  0  0  0  0  0  0
  146.9937   69.5597  219.3829 H   0  0  0  0  0  0  0  0  0  0  0  0
  144.0881   68.2897  218.6511 H   0  0  0  0  0  0  0  0  0  0  0  0
  144.2021   68.4709  220.1855 H   0  0  0  0  0  0  0  0  0  0  0  0
  139.2309   69.8481  222.5709 H   0  0  0  0  0  0  0  0  0  0  0  0
  138.9519   68.5245  224.6469 H   0  0  0  0  0  0  0  0  0  0  0  0
  139.3103   68.3032  227.0444 H   0  0  0  0  0  0  0  0  0  0  0  0
  140.2079   69.2138  229.1757 H   0  0  0  0  0  0  0  0  0  0  0  0
  141.3576   71.4264  229.1680 H   0  0  0  0  0  0  0  0  0  0  0  0
  141.6138   72.7172  227.0512 H   0  0  0  0  0  0  0  0  0  0  0  0
  1  2  2  0
  2  3  1  0
  3  4  1  0
  4  5  1  0
  5  6  2  0
  5  7  1  0
  7  8  1  0
  8  9  1  0
  9 10  1  0
  9 11  1  0
 11 12  1  0
 11 13  1  0
 13 14  1  0
 14 15  1  0
 15 16  1  0
  2 17  1  0
 17 18  2  0
 18 19  1  0
 19 20  2  0
 20 21  1  0
 21 22  2  0
 22 23  1  0
 23 24  2  0
 24 25  1  0
 25 26  2  0
 13  7  1  0
 16 14  1  0
 26 17  1  0
 25 20  1  0
  3 27  1  0
  4 28  1  0
  4 29  1  0
  8 30  1  0
  8 31  1  0
  9 32  1  1
 10 33  1  0
 11 34  1  1
 12 35  1  0
 13 36  1  1
 14 37  1  0
 15 38  1  0
 15 39  1  0
 16 40  1  0
 16 41  1  0
 18 42  1  0
 19 43  1  0
 21 44  1  0
 22 45  1  0
 23 46  1  0
 24 47  1  0
M  END
>  <smiles>  (13) 
O=C(NCC(=O)N1C[C@H](O)[C@H](O)[C@@H]1C1CC1)c1ccc2ccccc2n1

>  <score_type>  (13) 
oracle

>  <origin>  (13) 
autodockgpu

>  <m_score__min__energy>  (13) 
-8.4399999999999995

>  <m_primary>  (13) 
energy

>  <rmsd>  (13) 
4.1012640154218944

>  <m_score__min__rmsd>  (13) 
4.1012640154218944

>  <meeko>  (13) 
{"free_energy": -8.28, "intermolecular_energy": -10.37, "internal_energy": -2.39, "cluster_size": 25, "cluster_id": 1, "rank_in_cluster": 4}

>  <energy>  (13) 
-7.79

>  <cluster_rmsd>  (13) 
0.98

>  <cluster>  (13) 
1

$$$$

     RDKit          3D

 47 50  0  0  0  0  0  0  0  0999 V2000
  139.5100   71.2370  221.1790 O   0  0  0  0  0  0  0  0  0  0  0  0
  140.1320   71.8040  222.1270 C   0  0  0  0  0  0  0  0  0  0  0  0
  140.8800   73.0030  221.9440 N   0  0  0  0  0  0  0  0  0  0  0  0
  140.9130   73.5720  220.6100 C   0  0  0  0  0  0  0  0  0  0  0  0
  141.9020   72.8800  219.7500 C   0  0  0  0  0  0  0  0  0  0  0  0
  141.4790   72.2940  218.7310 O   0  0  0  0  0  0  0  0  0  0  0  0
  143.2960   72.8400  220.0090 N   0  0  0  0  0  0  0  0  0  0  0  0
  144.0520   74.0910  220.2340 C   0  0  0  0  0  0  0  0  0  0  0  0
  145.3340   73.5920  220.9260 C   0  0  2  0  0  0  0  0  0  0  0  0
  146.3470   74.5110  220.8460 O   0  0  0  0  0  0  0  0  0  0  0  0
  145.5710   72.3510  220.0870 C   0  0  2  0  0  0  0  0  0  0  0  0
  145.9190   72.8210  218.8220 O   0  0  0  0  0  0  0  0  0  0  0  0
  144.2100   71.7270  220.1160 C   0  0  2  0  0  0  0  0  0  0  0  0
  144.0180   70.6470  219.1040 C   0  0  0  0  0  0  0  0  0  0  0  0
  144.6000   69.3110  219.2190 C   0  0  0  0  0  0  0  0  0  0  0  0
  143.0940   69.5120  219.4220 C   0  0  0  0  0  0  0  0  0  0  0  0
  140.0800   71.2080  223.4590 C   0  0  0  0  0  0  0  0  0  0  0  0
  139.5130   69.9720  223.6700 C   0  0  0  0  0  0  0  0  0  0  0  0
  139.4660   69.4090  224.9340 C   0  0  0  0  0  0  0  0  0  0  0  0
  139.9960   70.0980  226.0060 C   0  0  0  0  0  0  0  0  0  0  0  0
  139.9710   69.5750  227.2830 C   0  0  0  0  0  0  0  0  0  0  0  0
  140.5060   70.2780  228.3470 C   0  0  0  0  0  0  0  0  0  0  0  0
  141.0740   71.5270  228.1070 C   0  0  0  0  0  0  0  0  0  0  0  0
  141.1100   72.0690  226.8300 C   0  0  0  0  0  0  0  0  0  0  0  0
  140.5590   71.3290  225.7870 C   0  0  0  0  0  0  0  0  0  0  0  0
  140.5840   71.8410  224.5360 N   0  0  0  0  0  0  0  0  0  0  0  0
  141.3670   73.4150  222.7660 H   0  0  0  0  0  0  0  0  0  0  0  0
  139.9156   73.4770  220.1559 H   0  0  0  0  0  0  0  0  0  0  0  0
  141.2061   74.6290  220.6922 H   0  0  0  0  0  0  0  0  0  0  0  0
  144.2840   74.5909  219.2820 H   0  0  0  0  0  0  0  0  0  0  0  0
  143.4983   74.8353  220.8251 H   0  0  0  0  0  0  0  0  0  0  0  0
  145.2695   73.4118  222.0092 H   0  0  0  0  0  0  0  0  0  0  0  0
  146.7570   74.5410  219.9460 H   0  0  0  0  0  0  0  0  0  0  0  0
  146.3508   71.6444  220.4075 H   0  0  0  0  0  0  0  0  0  0  0  0
  146.0940   73.7750  218.8010 H   0  0  0  0  0  0  0  0  0  0  0  0
  144.0324   71.1678  221.0464 H   0  0  0  0  0  0  0  0  0  0  0  0
  144.0910   71.4146  218.3195 H   0  0  0  0  0  0  0  0  0  0  0  0
  144.9699   68.7930  218.3218 H   0  0  0  0  0  0  0  0  0  0  0  0
  145.4122   68.8645  219.8114 H   0  0  0  0  0  0  0  0  0  0  0  0
  142.3780   69.1500  218.6695 H   0  0  0  0  0  0  0  0  0  0  0  0
  142.3647   69.2832  220.2131 H   0  0  0  0  0  0  0  0  0  0  0  0
  139.0889   69.4206  222.8179 H   0  0  0  0  0  0  0  0  0  0  0  0
  139.0094   68.4194  225.0828 H   0  0  0  0  0  0  0  0  0  0  0  0
  139.5200   68.5868  227.4566 H   0  0  0  0  0  0  0  0  0  0  0  0
  140.4834   69.8587  229.3637 H   0  0  0  0  0  0  0  0  0  0  0  0
  141.5024   72.0948  228.9461 H   0  0  0  0  0  0  0  0  0  0  0  0
  141.5611   73.0554  226.6468 H   0  0  0  0  0  0  0  0  0  0  0  0
  1  2  2  0
  2  3  1  0
  3  4  1  0
  4  5  1  0
  5  6  2  0
  5  7  1  0
  7  8  1  0
  8  9  1  0
  9 10  1  0
  9 11  1  0
 11 12  1  0
 11 13  1  0
 13 14  1  0
 14 15  1  0
 15 16  1  0
  2 17  1  0
 17 18  2  0
 18 19  1  0
 19 20  2  0
 20 21  1  0
 21 22  2  0
 22 23  1  0
 23 24  2  0
 24 25  1  0
 25 26  2  0
 13  7  1  0
 16 14  1  0
 26 17  1  0
 25 20  1  0
  3 27  1  0
  4 28  1  0
  4 29  1  0
  8 30  1  0
  8 31  1  0
  9 32  1  1
 10 33  1  0
 11 34  1  1
 12 35  1  0
 13 36  1  1
 14 37  1  0
 15 38  1  0
 15 39  1  0
 16 40  1  0
 16 41  1  0
 18 42  1  0
 19 43  1  0
 21 44  1  0
 22 45  1  0
 23 46  1  0
 24 47  1  0
M  END
>  <smiles>  (14) 
O=C(NCC(=O)N1C[C@H](O)[C@H](O)[C@@H]1C1CC1)c1ccc2ccccc2n1

>  <score_type>  (14) 
oracle

>  <origin>  (14) 
autodockgpu

>  <m_score__min__energy>  (14) 
-8.4399999999999995

>  <m_primary>  (14) 
energy

>  <rmsd>  (14) 
3.9257884353726236

>  <m_score__min__rmsd>  (14) 
3.9257884353726236

>  <meeko>  (14) 
{"free_energy": -7.52, "intermolecular_energy": -9.61, "internal_energy": -2.8, "cluster_size": 25, "cluster_id": 1, "rank_in_cluster": 20}

>  <energy>  (14) 
-7.58

>  <cluster_rmsd>  (14) 
1.14

>  <cluster>  (14) 
1

$$$$

     RDKit          3D

 47 50  0  0  0  0  0  0  0  0999 V2000
  140.8300   73.3600  222.3160 O   0  0  0  0  0  0  0  0  0  0  0  0
  140.6510   72.1050  222.2990 C   0  0  0  0  0  0  0  0  0  0  0  0
  140.7260   71.3370  221.1000 N   0  0  0  0  0  0  0  0  0  0  0  0
  141.0180   72.0480  219.8690 C   0  0  0  0  0  0  0  0  0  0  0  0
  142.2950   71.5950  219.2710 C   0  0  0  0  0  0  0  0  0  0  0  0
  142.2430   70.7280  218.3730 O   0  0  0  0  0  0  0  0  0  0  0  0
  143.5720   72.0820  219.6510 N   0  0  0  0  0  0  0  0  0  0  0  0
  143.7730   73.5210  219.9280 C   0  0  0  0  0  0  0  0  0  0  0  0
  145.0850   73.5290  220.7350 C   0  0  2  0  0  0  0  0  0  0  0  0
  145.6750   74.7660  220.7340 O   0  0  0  0  0  0  0  0  0  0  0  0
  145.8460   72.4920  219.9330 C   0  0  2  0  0  0  0  0  0  0  0  0
  146.0950   73.0890  218.6980 O   0  0  0  0  0  0  0  0  0  0  0  0
  144.8280   71.3970  219.8480 C   0  0  2  0  0  0  0  0  0  0  0  0
  145.1480   70.3490  218.8350 C   0  0  0  0  0  0  0  0  0  0  0  0
  146.3190   69.4780  218.9070 C   0  0  0  0  0  0  0  0  0  0  0  0
  144.9220   68.9110  219.1830 C   0  0  0  0  0  0  0  0  0  0  0  0
  140.3580   71.4180  223.5530 C   0  0  0  0  0  0  0  0  0  0  0  0
  139.6270   70.2530  223.5780 C   0  0  0  0  0  0  0  0  0  0  0  0
  139.3510   69.6030  224.7690 C   0  0  0  0  0  0  0  0  0  0  0  0
  139.8150   70.1320  225.9570 C   0  0  0  0  0  0  0  0  0  0  0  0
  139.5630   69.5180  227.1670 C   0  0  0  0  0  0  0  0  0  0  0  0
  140.0360   70.0600  228.3480 C   0  0  0  0  0  0  0  0  0  0  0  0
  140.7730   71.2410  228.2960 C   0  0  0  0  0  0  0  0  0  0  0  0
  141.0370   71.8730  227.0880 C   0  0  0  0  0  0  0  0  0  0  0  0
  140.5430   71.2940  225.9220 C   0  0  0  0  0  0  0  0  0  0  0  0
  140.7900   71.8940  224.7370 N   0  0  0  0  0  0  0  0  0  0  0  0
  140.5680   70.3110  221.1570 H   0  0  0  0  0  0  0  0  0  0  0  0
  140.2038   71.8694  219.1512 H   0  0  0  0  0  0  0  0  0  0  0  0
  141.1065   73.1195  220.1017 H   0  0  0  0  0  0  0  0  0  0  0  0
  143.8775   74.0940  218.9948 H   0  0  0  0  0  0  0  0  0  0  0  0
  142.9298   73.9856  220.4601 H   0  0  0  0  0  0  0  0  0  0  0  0
  145.0026   73.3114  221.8101 H   0  0  0  0  0  0  0  0  0  0  0  0
  146.3160   74.8770  219.9880 H   0  0  0  0  0  0  0  0  0  0  0  0
  146.8055   72.1275  220.3285 H   0  0  0  0  0  0  0  0  0  0  0  0
  146.0370   74.0580  218.7210 H   0  0  0  0  0  0  0  0  0  0  0  0
  144.7984   70.7891  220.7643 H   0  0  0  0  0  0  0  0  0  0  0  0
  144.7948   71.0414  218.0567 H   0  0  0  0  0  0  0  0  0  0  0  0
  146.8543   69.1987  217.9875 H   0  0  0  0  0  0  0  0  0  0  0  0
  147.2724   69.4995  219.4552 H   0  0  0  0  0  0  0  0  0  0  0  0
  144.4444   68.2323  218.4610 H   0  0  0  0  0  0  0  0  0  0  0  0
  144.4389   68.3622  220.0049 H   0  0  0  0  0  0  0  0  0  0  0  0
  139.2545   69.8296  222.6336 H   0  0  0  0  0  0  0  0  0  0  0  0
  138.7660   68.6714  224.7687 H   0  0  0  0  0  0  0  0  0  0  0  0
  138.9789   68.5863  227.1923 H   0  0  0  0  0  0  0  0  0  0  0  0
  139.8340   69.5677  229.3107 H   0  0  0  0  0  0  0  0  0  0  0  0
  141.1531   71.6813  229.2296 H   0  0  0  0  0  0  0  0  0  0  0  0
  141.6201   72.8051  227.0532 H   0  0  0  0  0  0  0  0  0  0  0  0
  1  2  2  0
  2  3  1  0
  3  4  1  0
  4  5  1  0
  5  6  2  0
  5  7  1  0
  7  8  1  0
  8  9  1  0
  9 10  1  0
  9 11  1  0
 11 12  1  0
 11 13  1  0
 13 14  1  0
 14 15  1  0
 15 16  1  0
  2 17  1  0
 17 18  2  0
 18 19  1  0
 19 20  2  0
 20 21  1  0
 21 22  2  0
 22 23  1  0
 23 24  2  0
 24 25  1  0
 25 26  2  0
 13  7  1  0
 16 14  1  0
 26 17  1  0
 25 20  1  0
  3 27  1  0
  4 28  1  0
  4 29  1  0
  8 30  1  0
  8 31  1  0
  9 32  1  1
 10 33  1  0
 11 34  1  1
 12 35  1  0
 13 36  1  1
 14 37  1  0
 15 38  1  0
 15 39  1  0
 16 40  1  0
 16 41  1  0
 18 42  1  0
 19 43  1  0
 21 44  1  0
 22 45  1  0
 23 46  1  0
 24 47  1  0
M  END
>  <smiles>  (15) 
O=C(NCC(=O)N1C[C@H](O)[C@H](O)[C@@H]1C1CC1)c1ccc2ccccc2n1

>  <score_type>  (15) 
oracle

>  <origin>  (15) 
autodockgpu

>  <m_score__min__energy>  (15) 
-8.4399999999999995

>  <m_primary>  (15) 
energy

>  <rmsd>  (15) 
4.196228796681758

>  <m_score__min__rmsd>  (15) 
4.196228796681758

>  <meeko>  (15) 
{"free_energy": -8.12, "intermolecular_energy": -10.21, "internal_energy": -2.39, "cluster_size": 25, "cluster_id": 1, "rank_in_cluster": 10}

>  <energy>  (15) 
-7.57

>  <cluster_rmsd>  (15) 
1.22

>  <cluster>  (15) 
1

$$$$

     RDKit          3D

 47 50  0  0  0  0  0  0  0  0999 V2000
  139.7280   71.0420  221.1020 O   0  0  0  0  0  0  0  0  0  0  0  0
  140.2160   71.6870  222.0770 C   0  0  0  0  0  0  0  0  0  0  0  0
  140.8500   72.9540  221.9180 N   0  0  0  0  0  0  0  0  0  0  0  0
  140.9240   73.4980  220.5740 C   0  0  0  0  0  0  0  0  0  0  0  0
  141.9100   72.7660  219.7460 C   0  0  0  0  0  0  0  0  0  0  0  0
  141.4810   72.1120  218.7710 O   0  0  0  0  0  0  0  0  0  0  0  0
  143.3080   72.7590  219.9870 N   0  0  0  0  0  0  0  0  0  0  0  0
  144.0330   74.0270  220.2220 C   0  0  0  0  0  0  0  0  0  0  0  0
  145.3360   73.5510  220.8910 C   0  0  2  0  0  0  0  0  0  0  0  0
  146.3230   74.4970  220.8120 O   0  0  0  0  0  0  0  0  0  0  0  0
  145.5950   72.3300  220.0300 C   0  0  2  0  0  0  0  0  0  0  0  0
  145.9150   72.8270  218.7690 O   0  0  0  0  0  0  0  0  0  0  0  0
  144.2510   71.6690  220.0660 C   0  0  2  0  0  0  0  0  0  0  0  0
  144.0750   70.5990  219.0410 C   0  0  0  0  0  0  0  0  0  0  0  0
  144.7720   69.3160  219.0760 C   0  0  0  0  0  0  0  0  0  0  0  0
  143.2740   69.3840  219.3910 C   0  0  0  0  0  0  0  0  0  0  0  0
  140.1280   71.1140  223.4170 C   0  0  0  0  0  0  0  0  0  0  0  0
  139.5290   69.8950  223.6370 C   0  0  0  0  0  0  0  0  0  0  0  0
  139.4470   69.3530  224.9080 C   0  0  0  0  0  0  0  0  0  0  0  0
  139.9730   70.0470  225.9790 C   0  0  0  0  0  0  0  0  0  0  0  0
  139.9140   69.5450  227.2640 C   0  0  0  0  0  0  0  0  0  0  0  0
  140.4460   70.2530  228.3260 C   0  0  0  0  0  0  0  0  0  0  0  0
  141.0460   71.4840  228.0770 C   0  0  0  0  0  0  0  0  0  0  0  0
  141.1160   72.0050  226.7930 C   0  0  0  0  0  0  0  0  0  0  0  0
  140.5680   71.2610  225.7510 C   0  0  0  0  0  0  0  0  0  0  0  0
  140.6270   71.7520  224.4930 N   0  0  0  0  0  0  0  0  0  0  0  0
  141.2310   73.4300  222.7610 H   0  0  0  0  0  0  0  0  0  0  0  0
  139.9334   73.4208  220.1021 H   0  0  0  0  0  0  0  0  0  0  0  0
  141.2436   74.5482  220.6437 H   0  0  0  0  0  0  0  0  0  0  0  0
  144.2400   74.5472  219.2752 H   0  0  0  0  0  0  0  0  0  0  0  0
  143.4672   74.7478  220.8305 H   0  0  0  0  0  0  0  0  0  0  0  0
  145.2896   73.3525  221.9720 H   0  0  0  0  0  0  0  0  0  0  0  0
  146.7300   74.5430  219.9110 H   0  0  0  0  0  0  0  0  0  0  0  0
  146.3973   71.6399  220.3302 H   0  0  0  0  0  0  0  0  0  0  0  0
  146.0790   73.7840  218.7630 H   0  0  0  0  0  0  0  0  0  0  0  0
  144.0992   71.0910  220.9895 H   0  0  0  0  0  0  0  0  0  0  0  0
  144.0264   71.3875  218.2755 H   0  0  0  0  0  0  0  0  0  0  0  0
  145.1169   68.8516  218.1404 H   0  0  0  0  0  0  0  0  0  0  0  0
  145.6596   68.9267  219.5962 H   0  0  0  0  0  0  0  0  0  0  0  0
  142.5372   68.9798  218.6812 H   0  0  0  0  0  0  0  0  0  0  0  0
  142.6259   69.0766  220.2249 H   0  0  0  0  0  0  0  0  0  0  0  0
  139.1070   69.3402  222.7860 H   0  0  0  0  0  0  0  0  0  0  0  0
  138.9660   68.3760  225.0635 H   0  0  0  0  0  0  0  0  0  0  0  0
  139.4380   68.5700  227.4451 H   0  0  0  0  0  0  0  0  0  0  0  0
  140.3959   69.8508  229.3486 H   0  0  0  0  0  0  0  0  0  0  0  0
  141.4731   72.0550  228.9146 H   0  0  0  0  0  0  0  0  0  0  0  0
  141.5912   72.9788  226.6033 H   0  0  0  0  0  0  0  0  0  0  0  0
  1  2  2  0
  2  3  1  0
  3  4  1  0
  4  5  1  0
  5  6  2  0
  5  7  1  0
  7  8  1  0
  8  9  1  0
  9 10  1  0
  9 11  1  0
 11 12  1  0
 11 13  1  0
 13 14  1  0
 14 15  1  0
 15 16  1  0
  2 17  1  0
 17 18  2  0
 18 19  1  0
 19 20  2  0
 20 21  1  0
 21 22  2  0
 22 23  1  0
 23 24  2  0
 24 25  1  0
 25 26  2  0
 13  7  1  0
 16 14  1  0
 26 17  1  0
 25 20  1  0
  3 27  1  0
  4 28  1  0
  4 29  1  0
  8 30  1  0
  8 31  1  0
  9 32  1  1
 10 33  1  0
 11 34  1  1
 12 35  1  0
 13 36  1  1
 14 37  1  0
 15 38  1  0
 15 39  1  0
 16 40  1  0
 16 41  1  0
 18 42  1  0
 19 43  1  0
 21 44  1  0
 22 45  1  0
 23 46  1  0
 24 47  1  0
M  END
>  <smiles>  (16) 
O=C(NCC(=O)N1C[C@H](O)[C@H](O)[C@@H]1C1CC1)c1ccc2ccccc2n1

>  <score_type>  (16) 
oracle

>  <origin>  (16) 
autodockgpu

>  <m_score__min__energy>  (16) 
-8.4399999999999995

>  <m_primary>  (16) 
energy

>  <rmsd>  (16) 
3.9290657679424634

>  <m_score__min__rmsd>  (16) 
3.9290657679424634

>  <meeko>  (16) 
{"free_energy": -7.55, "intermolecular_energy": -9.64, "internal_energy": -2.81, "cluster_size": 25, "cluster_id": 1, "rank_in_cluster": 16}

>  <energy>  (16) 
-7.55

>  <cluster_rmsd>  (16) 
1.13

>  <cluster>  (16) 
1

$$$$

     RDKit          3D

 47 50  0  0  0  0  0  0  0  0999 V2000
  141.5330   72.0900  221.9120 O   0  0  0  0  0  0  0  0  0  0  0  0
  140.5080   72.2360  222.6430 C   0  0  0  0  0  0  0  0  0  0  0  0
  139.5830   73.3060  222.4610 N   0  0  0  0  0  0  0  0  0  0  0  0
  139.8540   74.2460  221.3900 C   0  0  0  0  0  0  0  0  0  0  0  0
  139.5860   75.6410  221.8120 C   0  0  0  0  0  0  0  0  0  0  0  0
  138.7360   75.8250  222.7100 O   0  0  0  0  0  0  0  0  0  0  0  0
  140.2300   76.7790  221.2630 N   0  0  0  0  0  0  0  0  0  0  0  0
  141.3160   76.6180  220.2720 C   0  0  0  0  0  0  0  0  0  0  0  0
  141.3810   78.0100  219.6140 C   0  0  2  0  0  0  0  0  0  0  0  0
  142.5750   78.2160  218.9750 O   0  0  0  0  0  0  0  0  0  0  0  0
  141.2060   78.8540  220.8620 C   0  0  2  0  0  0  0  0  0  0  0  0
  142.3740   78.6700  221.5990 O   0  0  0  0  0  0  0  0  0  0  0  0
  140.0190   78.1900  221.4880 C   0  0  2  0  0  0  0  0  0  0  0  0
  139.7860   78.5790  222.9090 C   0  0  0  0  0  0  0  0  0  0  0  0
  140.4090   79.7360  223.5480 C   0  0  0  0  0  0  0  0  0  0  0  0
  138.9160   79.7620  223.2040 C   0  0  0  0  0  0  0  0  0  0  0  0
  140.2640   71.2740  223.7130 C   0  0  0  0  0  0  0  0  0  0  0  0
  139.5750   70.1060  223.4840 C   0  0  0  0  0  0  0  0  0  0  0  0
  139.3440   69.1950  224.5010 C   0  0  0  0  0  0  0  0  0  0  0  0
  139.8120   69.4610  225.7720 C   0  0  0  0  0  0  0  0  0  0  0  0
  139.6060   68.5820  226.8160 C   0  0  0  0  0  0  0  0  0  0  0  0
  140.0810   68.8630  228.0830 C   0  0  0  0  0  0  0  0  0  0  0  0
  140.7760   70.0530  228.2900 C   0  0  0  0  0  0  0  0  0  0  0  0
  140.9940   70.9490  227.2530 C   0  0  0  0  0  0  0  0  0  0  0  0
  140.4980   70.6280  225.9920 C   0  0  0  0  0  0  0  0  0  0  0  0
  140.7010   71.4890  224.9700 N   0  0  0  0  0  0  0  0  0  0  0  0
  138.7630   73.3670  223.0980 H   0  0  0  0  0  0  0  0  0  0  0  0
  140.9103   74.1581  221.0958 H   0  0  0  0  0  0  0  0  0  0  0  0
  139.1914   74.0074  220.5450 H   0  0  0  0  0  0  0  0  0  0  0  0
  142.2675   76.3663  220.7632 H   0  0  0  0  0  0  0  0  0  0  0  0
  141.1362   75.8035  219.5549 H   0  0  0  0  0  0  0  0  0  0  0  0
  140.6523   78.2104  218.8147 H   0  0  0  0  0  0  0  0  0  0  0  0
  143.3290   78.3150  219.6080 H   0  0  0  0  0  0  0  0  0  0  0  0
  141.0521   79.9367  220.7432 H   0  0  0  0  0  0  0  0  0  0  0  0
  143.0760   78.2210  221.1020 H   0  0  0  0  0  0  0  0  0  0  0  0
  139.0742   78.5191  221.0308 H   0  0  0  0  0  0  0  0  0  0  0  0
  139.7846   77.5096  223.1668 H   0  0  0  0  0  0  0  0  0  0  0  0
  140.7305   79.6774  224.5983 H   0  0  0  0  0  0  0  0  0  0  0  0
  141.2711   80.3801  223.3201 H   0  0  0  0  0  0  0  0  0  0  0  0
  138.1603   79.7118  224.0017 H   0  0  0  0  0  0  0  0  0  0  0  0
  138.2485   80.4174  222.6253 H   0  0  0  0  0  0  0  0  0  0  0  0
  139.1998   69.8911  222.4725 H   0  0  0  0  0  0  0  0  0  0  0  0
  138.7914   68.2659  224.2974 H   0  0  0  0  0  0  0  0  0  0  0  0
  139.0567   67.6459  226.6373 H   0  0  0  0  0  0  0  0  0  0  0  0
  139.9136   68.1604  228.9126 H   0  0  0  0  0  0  0  0  0  0  0  0
  141.1590   70.2865  229.2944 H   0  0  0  0  0  0  0  0  0  0  0  0
  141.5434   71.8868  227.4224 H   0  0  0  0  0  0  0  0  0  0  0  0
  1  2  2  0
  2  3  1  0
  3  4  1  0
  4  5  1  0
  5  6  2  0
  5  7  1  0
  7  8  1  0
  8  9  1  0
  9 10  1  0
  9 11  1  0
 11 12  1  0
 11 13  1  0
 13 14  1  0
 14 15  1  0
 15 16  1  0
  2 17  1  0
 17 18  2  0
 18 19  1  0
 19 20  2  0
 20 21  1  0
 21 22  2  0
 22 23  1  0
 23 24  2  0
 24 25  1  0
 25 26  2  0
 13  7  1  0
 16 14  1  0
 26 17  1  0
 25 20  1  0
  3 27  1  0
  4 28  1  0
  4 29  1  0
  8 30  1  0
  8 31  1  0
  9 32  1  6
 10 33  1  0
 11 34  1  6
 12 35  1  0
 13 36  1  6
 14 37  1  0
 15 38  1  0
 15 39  1  0
 16 40  1  0
 16 41  1  0
 18 42  1  0
 19 43  1  0
 21 44  1  0
 22 45  1  0
 23 46  1  0
 24 47  1  0
M  END
>  <smiles>  (17) 
O=C(NCC(=O)N1C[C@H](O)[C@H](O)[C@@H]1C1CC1)c1ccc2ccccc2n1

>  <score_type>  (17) 
oracle

>  <origin>  (17) 
autodockgpu

>  <m_score__min__energy>  (17) 
-8.4399999999999995

>  <m_primary>  (17) 
energy

>  <rmsd>  (17) 
2.7937484829494665

>  <m_score__min__rmsd>  (17) 
2.7937484829494665

>  <meeko>  (17) 
{"free_energy": -7.67, "intermolecular_energy": -9.76, "internal_energy": -2.45, "cluster_size": 9, "cluster_id": 3, "rank_in_cluster": 2}

>  <energy>  (17) 
-7.54

>  <cluster_rmsd>  (17) 
1.2

>  <cluster>  (17) 
1

$$$$

     RDKit          3D

 47 50  0  0  0  0  0  0  0  0999 V2000
  140.8860   71.4280  221.3570 O   0  0  0  0  0  0  0  0  0  0  0  0
  140.3590   71.9960  222.3600 C   0  0  0  0  0  0  0  0  0  0  0  0
  139.9000   73.3450  222.3240 N   0  0  0  0  0  0  0  0  0  0  0  0
  140.0570   74.0690  221.0760 C   0  0  0  0  0  0  0  0  0  0  0  0
  140.7860   75.3430  221.2750 C   0  0  0  0  0  0  0  0  0  0  0  0
  140.5930   75.9640  222.3420 O   0  0  0  0  0  0  0  0  0  0  0  0
  141.6890   75.9020  220.3350 N   0  0  0  0  0  0  0  0  0  0  0  0
  141.2440   76.9710  219.4150 C   0  0  0  0  0  0  0  0  0  0  0  0
  142.5750   77.5910  218.9480 C   0  0  2  0  0  0  0  0  0  0  0  0
  142.4250   78.3050  217.7890 O   0  0  0  0  0  0  0  0  0  0  0  0
  143.3670   76.3090  218.7740 C   0  0  2  0  0  0  0  0  0  0  0  0
  142.7870   75.6610  217.6850 O   0  0  0  0  0  0  0  0  0  0  0  0
  143.0810   75.6210  220.0730 C   0  0  2  0  0  0  0  0  0  0  0  0
  143.4520   74.1760  220.0880 C   0  0  0  0  0  0  0  0  0  0  0  0
  144.5390   73.6070  219.2940 C   0  0  0  0  0  0  0  0  0  0  0  0
  144.6930   73.7540  220.8120 C   0  0  0  0  0  0  0  0  0  0  0  0
  140.2160   71.2420  223.6020 C   0  0  0  0  0  0  0  0  0  0  0  0
  139.6080   70.0080  223.6260 C   0  0  0  0  0  0  0  0  0  0  0  0
  139.4730   69.2950  224.8050 C   0  0  0  0  0  0  0  0  0  0  0  0
  139.9560   69.8290  225.9820 C   0  0  0  0  0  0  0  0  0  0  0  0
  139.8440   69.1540  227.1810 C   0  0  0  0  0  0  0  0  0  0  0  0
  140.3330   69.7030  228.3520 C   0  0  0  0  0  0  0  0  0  0  0  0
  140.9450   70.9540  228.3010 C   0  0  0  0  0  0  0  0  0  0  0  0
  141.0670   71.6480  227.1060 C   0  0  0  0  0  0  0  0  0  0  0  0
  140.5600   71.0600  225.9500 C   0  0  0  0  0  0  0  0  0  0  0  0
  140.6710   71.7210  224.7760 N   0  0  0  0  0  0  0  0  0  0  0  0
  139.4780   73.7500  223.1830 H   0  0  0  0  0  0  0  0  0  0  0  0
  140.6190   73.4425  220.3677 H   0  0  0  0  0  0  0  0  0  0  0  0
  139.0559   74.3020  220.6841 H   0  0  0  0  0  0  0  0  0  0  0  0
  140.6807   76.5552  218.5666 H   0  0  0  0  0  0  0  0  0  0  0  0
  140.5651   77.6975  219.8855 H   0  0  0  0  0  0  0  0  0  0  0  0
  143.0351   78.3315  219.6188 H   0  0  0  0  0  0  0  0  0  0  0  0
  142.6590   77.7750  216.9860 H   0  0  0  0  0  0  0  0  0  0  0  0
  144.4475   76.3848  218.5820 H   0  0  0  0  0  0  0  0  0  0  0  0
  142.2210   76.2400  217.1490 H   0  0  0  0  0  0  0  0  0  0  0  0
  143.7138   76.0006  220.8888 H   0  0  0  0  0  0  0  0  0  0  0  0
  142.3802   73.9352  220.1446 H   0  0  0  0  0  0  0  0  0  0  0  0
  144.4289   72.6082  218.8464 H   0  0  0  0  0  0  0  0  0  0  0  0
  145.1172   73.9357  218.4178 H   0  0  0  0  0  0  0  0  0  0  0  0
  144.6838   72.8657  221.4608 H   0  0  0  0  0  0  0  0  0  0  0  0
  145.4139   74.2319  221.4917 H   0  0  0  0  0  0  0  0  0  0  0  0
  139.2214   69.5793  222.6896 H   0  0  0  0  0  0  0  0  0  0  0  0
  138.9841   68.3096  224.8034 H   0  0  0  0  0  0  0  0  0  0  0  0
  139.3595   68.1667  227.2051 H   0  0  0  0  0  0  0  0  0  0  0  0
  140.2407   69.1626  229.3057 H   0  0  0  0  0  0  0  0  0  0  0  0
  141.3390   71.3998  229.2262 H   0  0  0  0  0  0  0  0  0  0  0  0
  141.5508   72.6353  227.0726 H   0  0  0  0  0  0  0  0  0  0  0  0
  1  2  2  0
  2  3  1  0
  3  4  1  0
  4  5  1  0
  5  6  2  0
  5  7  1  0
  7  8  1  0
  8  9  1  0
  9 10  1  0
  9 11  1  0
 11 12  1  0
 11 13  1  0
 13 14  1  0
 14 15  1  0
 15 16  1  0
  2 17  1  0
 17 18  2  0
 18 19  1  0
 19 20  2  0
 20 21  1  0
 21 22  2  0
 22 23  1  0
 23 24  2  0
 24 25  1  0
 25 26  2  0
 13  7  1  0
 16 14  1  0
 26 17  1  0
 25 20  1  0
  3 27  1  0
  4 28  1  0
  4 29  1  0
  8 30  1  0
  8 31  1  0
  9 32  1  1
 10 33  1  0
 11 34  1  6
 12 35  1  0
 13 36  1  1
 14 37  1  0
 15 38  1  0
 15 39  1  0
 16 40  1  0
 16 41  1  0
 18 42  1  0
 19 43  1  0
 21 44  1  0
 22 45  1  0
 23 46  1  0
 24 47  1  0
M  END
>  <smiles>  (18) 
O=C(NCC(=O)N1C[C@H](O)[C@H](O)[C@@H]1C1CC1)c1ccc2ccccc2n1

>  <score_type>  (18) 
oracle

>  <origin>  (18) 
autodockgpu

>  <m_score__min__energy>  (18) 
-8.4399999999999995

>  <m_primary>  (18) 
energy

>  <rmsd>  (18) 
2.165296562253226

>  <m_score__min__rmsd>  (18) 
2.165296562253226

>  <meeko>  (18) 
{"free_energy": -7.02, "intermolecular_energy": -9.11, "internal_energy": -2.71, "cluster_size": 9, "cluster_id": 3, "rank_in_cluster": 7}

>  <energy>  (18) 
-7.54

>  <cluster_rmsd>  (18) 
0.96

>  <cluster>  (18) 
1

$$$$

     RDKit          3D

 47 50  0  0  0  0  0  0  0  0999 V2000
  140.2490   73.5200  222.3350 O   0  0  0  0  0  0  0  0  0  0  0  0
  140.3760   72.2610  222.2610 C   0  0  0  0  0  0  0  0  0  0  0  0
  140.6420   71.5880  221.0330 N   0  0  0  0  0  0  0  0  0  0  0  0
  140.7650   72.4030  219.8390 C   0  0  0  0  0  0  0  0  0  0  0  0
  142.0160   72.1030  219.1040 C   0  0  0  0  0  0  0  0  0  0  0  0
  141.9170   71.5480  217.9890 O   0  0  0  0  0  0  0  0  0  0  0  0
  143.3160   72.4040  219.5840 N   0  0  0  0  0  0  0  0  0  0  0  0
  143.7020   73.8030  219.8720 C   0  0  0  0  0  0  0  0  0  0  0  0
  144.9340   73.6330  220.7810 C   0  0  2  0  0  0  0  0  0  0  0  0
  145.6960   74.7700  220.8240 O   0  0  0  0  0  0  0  0  0  0  0  0
  145.5970   72.4840  220.0440 C   0  0  2  0  0  0  0  0  0  0  0  0
  146.0260   73.0210  218.8320 O   0  0  0  0  0  0  0  0  0  0  0  0
  144.4400   71.5470  219.8820 C   0  0  2  0  0  0  0  0  0  0  0  0
  144.6820   70.4510  218.9000 C   0  0  0  0  0  0  0  0  0  0  0  0
  145.8950   69.6370  218.8720 C   0  0  0  0  0  0  0  0  0  0  0  0
  144.5750   69.0300  219.3590 C   0  0  0  0  0  0  0  0  0  0  0  0
  140.2460   71.4680  223.4800 C   0  0  0  0  0  0  0  0  0  0  0  0
  139.6690   70.2190  223.4650 C   0  0  0  0  0  0  0  0  0  0  0  0
  139.5470   69.4690  224.6220 C   0  0  0  0  0  0  0  0  0  0  0  0
  140.0120   69.9800  225.8170 C   0  0  0  0  0  0  0  0  0  0  0  0
  139.9110   69.2680  226.9950 C   0  0  0  0  0  0  0  0  0  0  0  0
  140.3820   69.7940  228.1830 C   0  0  0  0  0  0  0  0  0  0  0  0
  140.9620   71.0600  228.1730 C   0  0  0  0  0  0  0  0  0  0  0  0
  141.0730   71.7920  226.9980 C   0  0  0  0  0  0  0  0  0  0  0  0
  140.5850   71.2260  225.8230 C   0  0  0  0  0  0  0  0  0  0  0  0
  140.6850   71.9240  224.6700 N   0  0  0  0  0  0  0  0  0  0  0  0
  140.7340   70.5520  221.0440 H   0  0  0  0  0  0  0  0  0  0  0  0
  139.9068   72.2040  219.1803 H   0  0  0  0  0  0  0  0  0  0  0  0
  140.7881   73.4599  220.1431 H   0  0  0  0  0  0  0  0  0  0  0  0
  143.9615   74.3412  218.9484 H   0  0  0  0  0  0  0  0  0  0  0  0
  142.8962   74.3923  220.3339 H   0  0  0  0  0  0  0  0  0  0  0  0
  144.7365   73.4457  221.8468 H   0  0  0  0  0  0  0  0  0  0  0  0
  146.3280   74.8300  220.0640 H   0  0  0  0  0  0  0  0  0  0  0  0
  146.4594   71.9896  220.5150 H   0  0  0  0  0  0  0  0  0  0  0  0
  146.0190   73.9920  218.8180 H   0  0  0  0  0  0  0  0  0  0  0  0
  144.2509   70.9630  220.7948 H   0  0  0  0  0  0  0  0  0  0  0  0
  144.1990   71.0756  218.1341 H   0  0  0  0  0  0  0  0  0  0  0  0
  146.3236   69.3214  217.9093 H   0  0  0  0  0  0  0  0  0  0  0  0
  146.9076   69.7349  219.2905 H   0  0  0  0  0  0  0  0  0  0  0  0
  144.0453   68.2858  218.7462 H   0  0  0  0  0  0  0  0  0  0  0  0
  144.2280   68.5158  220.2674 H   0  0  0  0  0  0  0  0  0  0  0  0
  139.2973   69.8083  222.5147 H   0  0  0  0  0  0  0  0  0  0  0  0
  139.0826   68.4724  224.5894 H   0  0  0  0  0  0  0  0  0  0  0  0
  139.4498   68.2694  226.9882 H   0  0  0  0  0  0  0  0  0  0  0  0
  140.3002   69.2230  229.1196 H   0  0  0  0  0  0  0  0  0  0  0  0
  141.3393   71.4882  229.1134 H   0  0  0  0  0  0  0  0  0  0  0  0
  141.5335   72.7910  226.9956 H   0  0  0  0  0  0  0  0  0  0  0  0
  1  2  2  0
  2  3  1  0
  3  4  1  0
  4  5  1  0
  5  6  2  0
  5  7  1  0
  7  8  1  0
  8  9  1  0
  9 10  1  0
  9 11  1  0
 11 12  1  0
 11 13  1  0
 13 14  1  0
 14 15  1  0
 15 16  1  0
  2 17  1  0
 17 18  2  0
 18 19  1  0
 19 20  2  0
 20 21  1  0
 21 22  2  0
 22 23  1  0
 23 24  2  0
 24 25  1  0
 25 26  2  0
 13  7  1  0
 16 14  1  0
 26 17  1  0
 25 20  1  0
  3 27  1  0
  4 28  1  0
  4 29  1  0
  8 30  1  0
  8 31  1  0
  9 32  1  1
 10 33  1  0
 11 34  1  1
 12 35  1  0
 13 36  1  1
 14 37  1  0
 15 38  1  0
 15 39  1  0
 16 40  1  0
 16 41  1  0
 18 42  1  0
 19 43  1  0
 21 44  1  0
 22 45  1  0
 23 46  1  0
 24 47  1  0
M  END
>  <smiles>  (19) 
O=C(NCC(=O)N1C[C@H](O)[C@H](O)[C@@H]1C1CC1)c1ccc2ccccc2n1

>  <score_type>  (19) 
oracle

>  <origin>  (19) 
autodockgpu

>  <m_score__min__energy>  (19) 
-8.4399999999999995

>  <m_primary>  (19) 
energy

>  <rmsd>  (19) 
4.018284741499486

>  <m_score__min__rmsd>  (19) 
4.018284741499486

>  <meeko>  (19) 
{"free_energy": -8.21, "intermolecular_energy": -10.3, "internal_energy": -2.42, "cluster_size": 25, "cluster_id": 1, "rank_in_cluster": 7}

>  <energy>  (19) 
-7.54

>  <cluster_rmsd>  (19) 
0.96

>  <cluster>  (19) 
1

$$$$

     RDKit          3D

 47 50  0  0  0  0  0  0  0  0999 V2000
  139.5650   74.5510  221.9690 O   0  0  0  0  0  0  0  0  0  0  0  0
  140.3990   75.4060  221.5430 C   0  0  0  0  0  0  0  0  0  0  0  0
  141.3640   75.1010  220.5390 N   0  0  0  0  0  0  0  0  0  0  0  0
  141.3670   73.7510  220.0050 C   0  0  0  0  0  0  0  0  0  0  0  0
  142.2790   72.8680  220.7680 C   0  0  0  0  0  0  0  0  0  0  0  0
  141.7930   72.1920  221.6990 O   0  0  0  0  0  0  0  0  0  0  0  0
  143.6680   72.7410  220.5100 N   0  0  0  0  0  0  0  0  0  0  0  0
  144.5680   73.9040  220.6710 C   0  0  0  0  0  0  0  0  0  0  0  0
  145.9570   73.2440  220.7700 C   0  0  2  0  0  0  0  0  0  0  0  0
  146.9640   74.1340  220.5010 O   0  0  0  0  0  0  0  0  0  0  0  0
  145.7780   72.1870  219.6980 C   0  0  2  0  0  0  0  0  0  0  0  0
  145.7180   72.8870  218.4950 O   0  0  0  0  0  0  0  0  0  0  0  0
  144.4560   71.6050  220.0920 C   0  0  2  0  0  0  0  0  0  0  0  0
  143.8320   70.7510  219.0400 C   0  0  0  0  0  0  0  0  0  0  0  0
  143.7180   71.1410  217.6370 C   0  0  0  0  0  0  0  0  0  0  0  0
  144.7160   70.0550  218.0530 C   0  0  0  0  0  0  0  0  0  0  0  0
  140.3710   76.7550  222.1000 C   0  0  0  0  0  0  0  0  0  0  0  0
  139.2060   77.3130  222.5720 C   0  0  0  0  0  0  0  0  0  0  0  0
  139.1830   78.5920  223.1000 C   0  0  0  0  0  0  0  0  0  0  0  0
  140.3500   79.3270  223.1550 C   0  0  0  0  0  0  0  0  0  0  0  0
  140.3740   80.6060  223.6730 C   0  0  0  0  0  0  0  0  0  0  0  0
  141.5520   81.3290  223.7200 C   0  0  0  0  0  0  0  0  0  0  0  0
  142.7190   80.7420  223.2360 C   0  0  0  0  0  0  0  0  0  0  0  0
  142.7150   79.4570  222.7120 C   0  0  0  0  0  0  0  0  0  0  0  0
  141.5070   78.7640  222.6820 C   0  0  0  0  0  0  0  0  0  0  0  0
  141.4840   77.5110  222.1750 N   0  0  0  0  0  0  0  0  0  0  0  0
  142.0190   75.8490  220.2360 H   0  0  0  0  0  0  0  0  0  0  0  0
  140.3468   73.3431  220.0584 H   0  0  0  0  0  0  0  0  0  0  0  0
  141.7179   73.7925  218.9633 H   0  0  0  0  0  0  0  0  0  0  0  0
  144.5085   74.5753  219.8016 H   0  0  0  0  0  0  0  0  0  0  0  0
  144.3196   74.5322  221.5391 H   0  0  0  0  0  0  0  0  0  0  0  0
  146.2475   72.8558  221.7574 H   0  0  0  0  0  0  0  0  0  0  0  0
  147.0090   74.3740  219.5420 H   0  0  0  0  0  0  0  0  0  0  0  0
  146.5510   71.4111  219.5959 H   0  0  0  0  0  0  0  0  0  0  0  0
  145.9910   73.8150  218.5750 H   0  0  0  0  0  0  0  0  0  0  0  0
  144.5536   70.8776  220.9114 H   0  0  0  0  0  0  0  0  0  0  0  0
  143.0779   70.4476  219.7811 H   0  0  0  0  0  0  0  0  0  0  0  0
  142.8196   70.8716  217.0623 H   0  0  0  0  0  0  0  0  0  0  0  0
  143.7860   72.0902  217.0852 H   0  0  0  0  0  0  0  0  0  0  0  0
  144.5350   69.0025  217.7893 H   0  0  0  0  0  0  0  0  0  0  0  0
  145.7973   69.8883  217.9390 H   0  0  0  0  0  0  0  0  0  0  0  0
  138.2736   76.7309  222.5290 H   0  0  0  0  0  0  0  0  0  0  0  0
  138.2410   79.0200  223.4734 H   0  0  0  0  0  0  0  0  0  0  0  0
  139.4449   81.0558  224.0531 H   0  0  0  0  0  0  0  0  0  0  0  0
  141.5672   82.3488  224.1320 H   0  0  0  0  0  0  0  0  0  0  0  0
  143.6617   81.3079  223.2698 H   0  0  0  0  0  0  0  0  0  0  0  0
  143.6396   78.9987  222.3311 H   0  0  0  0  0  0  0  0  0  0  0  0
  1  2  2  0
  2  3  1  0
  3  4  1  0
  4  5  1  0
  5  6  2  0
  5  7  1  0
  7  8  1  0
  8  9  1  0
  9 10  1  0
  9 11  1  0
 11 12  1  0
 11 13  1  0
 13 14  1  0
 14 15  1  0
 15 16  1  0
  2 17  1  0
 17 18  2  0
 18 19  1  0
 19 20  2  0
 20 21  1  0
 21 22  2  0
 22 23  1  0
 23 24  2  0
 24 25  1  0
 25 26  2  0
 13  7  1  0
 16 14  1  0
 26 17  1  0
 25 20  1  0
  3 27  1  0
  4 28  1  0
  4 29  1  0
  8 30  1  0
  8 31  1  0
  9 32  1  1
 10 33  1  0
 11 34  1  6
 12 35  1  0
 13 36  1  1
 14 37  1  0
 15 38  1  0
 15 39  1  0
 16 40  1  0
 16 41  1  0
 18 42  1  0
 19 43  1  0
 21 44  1  0
 22 45  1  0
 23 46  1  0
 24 47  1  0
M  END
>  <smiles>  (20) 
O=C(NCC(=O)N1C[C@H](O)[C@H](O)[C@@H]1C1CC1)c1ccc2ccccc2n1

>  <score_type>  (20) 
oracle

>  <origin>  (20) 
autodockgpu

>  <m_score__min__energy>  (20) 
-8.4399999999999995

>  <m_primary>  (20) 
energy

>  <rmsd>  (20) 
7.8022072174053

>  <m_score__min__rmsd>  (20) 
7.8022072174053

>  <meeko>  (20) 
{"free_energy": -7.32, "intermolecular_energy": -9.41, "internal_energy": -2.44, "cluster_size": 7, "cluster_id": 2, "rank_in_cluster": 7}

>  <energy>  (20) 
-7.52

>  <cluster_rmsd>  (20) 
1.1

>  <cluster>  (20) 
1

$$$$

     RDKit          3D

 47 50  0  0  0  0  0  0  0  0999 V2000
  140.0140   73.4870  222.3890 O   0  0  0  0  0  0  0  0  0  0  0  0
  140.3470   72.2640  222.3660 C   0  0  0  0  0  0  0  0  0  0  0  0
  140.8450   71.6270  221.1920 N   0  0  0  0  0  0  0  0  0  0  0  0
  140.9630   72.4370  219.9940 C   0  0  0  0  0  0  0  0  0  0  0  0
  142.1900   72.1040  219.2320 C   0  0  0  0  0  0  0  0  0  0  0  0
  142.0550   71.5190  218.1370 O   0  0  0  0  0  0  0  0  0  0  0  0
  143.5060   72.4060  219.6670 N   0  0  0  0  0  0  0  0  0  0  0  0
  143.8940   73.8020  219.9620 C   0  0  0  0  0  0  0  0  0  0  0  0
  145.1610   73.6260  220.8210 C   0  0  2  0  0  0  0  0  0  0  0  0
  145.9180   74.7670  220.8530 O   0  0  0  0  0  0  0  0  0  0  0  0
  145.8020   72.4930  220.0410 C   0  0  2  0  0  0  0  0  0  0  0  0
  146.1810   73.0520  218.8230 O   0  0  0  0  0  0  0  0  0  0  0  0
  144.6450   71.5520  219.9090 C   0  0  2  0  0  0  0  0  0  0  0  0
  144.8550   70.4720  218.9010 C   0  0  0  0  0  0  0  0  0  0  0  0
  146.0200   69.5890  218.8850 C   0  0  0  0  0  0  0  0  0  0  0  0
  144.6520   69.0460  219.3120 C   0  0  0  0  0  0  0  0  0  0  0  0
  140.2160   71.4760  223.5870 C   0  0  0  0  0  0  0  0  0  0  0  0
  139.6200   70.2350  223.5800 C   0  0  0  0  0  0  0  0  0  0  0  0
  139.4980   69.4900  224.7400 C   0  0  0  0  0  0  0  0  0  0  0  0
  139.9790   69.9970  225.9300 C   0  0  0  0  0  0  0  0  0  0  0  0
  139.8790   69.2890  227.1100 C   0  0  0  0  0  0  0  0  0  0  0  0
  140.3670   69.8110  228.2940 C   0  0  0  0  0  0  0  0  0  0  0  0
  140.9650   71.0690  228.2750 C   0  0  0  0  0  0  0  0  0  0  0  0
  141.0760   71.7960  227.0980 C   0  0  0  0  0  0  0  0  0  0  0  0
  140.5710   71.2340  225.9280 C   0  0  0  0  0  0  0  0  0  0  0  0
  140.6710   71.9280  224.7730 N   0  0  0  0  0  0  0  0  0  0  0  0
  141.0990   70.6200  221.2420 H   0  0  0  0  0  0  0  0  0  0  0  0
  140.0858   72.2593  219.3545 H   0  0  0  0  0  0  0  0  0  0  0  0
  141.0200   73.4933  220.2957 H   0  0  0  0  0  0  0  0  0  0  0  0
  144.1149   74.3562  219.0379 H   0  0  0  0  0  0  0  0  0  0  0  0
  143.1028   74.3787  220.4634 H   0  0  0  0  0  0  0  0  0  0  0  0
  145.0051   73.4212  221.8905 H   0  0  0  0  0  0  0  0  0  0  0  0
  146.5160   74.8440  220.0680 H   0  0  0  0  0  0  0  0  0  0  0  0
  146.6847   71.9963  220.4701 H   0  0  0  0  0  0  0  0  0  0  0  0
  146.1950   74.0220  218.8320 H   0  0  0  0  0  0  0  0  0  0  0  0
  144.4945   70.9536  220.8196 H   0  0  0  0  0  0  0  0  0  0  0  0
  144.4334   71.1459  218.1407 H   0  0  0  0  0  0  0  0  0  0  0  0
  146.4608   69.2773  217.9266 H   0  0  0  0  0  0  0  0  0  0  0  0
  147.0223   69.6152  219.3374 H   0  0  0  0  0  0  0  0  0  0  0  0
  144.1007   68.3523  218.6602 H   0  0  0  0  0  0  0  0  0  0  0  0
  144.2468   68.5264  220.1928 H   0  0  0  0  0  0  0  0  0  0  0  0
  139.2333   69.8277  222.6342 H   0  0  0  0  0  0  0  0  0  0  0  0
  139.0204   68.4994  224.7136 H   0  0  0  0  0  0  0  0  0  0  0  0
  139.4049   68.2964  227.1090 H   0  0  0  0  0  0  0  0  0  0  0  0
  140.2845   69.2437  229.2328 H   0  0  0  0  0  0  0  0  0  0  0  0
  141.3567   71.4943  229.2108 H   0  0  0  0  0  0  0  0  0  0  0  0
  141.5498   72.7887  227.0894 H   0  0  0  0  0  0  0  0  0  0  0  0
  1  2  2  0
  2  3  1  0
  3  4  1  0
  4  5  1  0
  5  6  2  0
  5  7  1  0
  7  8  1  0
  8  9  1  0
  9 10  1  0
  9 11  1  0
 11 12  1  0
 11 13  1  0
 13 14  1  0
 14 15  1  0
 15 16  1  0
  2 17  1  0
 17 18  2  0
 18 19  1  0
 19 20  2  0
 20 21  1  0
 21 22  2  0
 22 23  1  0
 23 24  2  0
 24 25  1  0
 25 26  2  0
 13  7  1  0
 16 14  1  0
 26 17  1  0
 25 20  1  0
  3 27  1  0
  4 28  1  0
  4 29  1  0
  8 30  1  0
  8 31  1  0
  9 32  1  1
 10 33  1  0
 11 34  1  1
 12 35  1  0
 13 36  1  1
 14 37  1  0
 15 38  1  0
 15 39  1  0
 16 40  1  0
 16 41  1  0
 18 42  1  0
 19 43  1  0
 21 44  1  0
 22 45  1  0
 23 46  1  0
 24 47  1  0
M  END
>  <smiles>  (21) 
O=C(NCC(=O)N1C[C@H](O)[C@H](O)[C@@H]1C1CC1)c1ccc2ccccc2n1

>  <score_type>  (21) 
oracle

>  <origin>  (21) 
autodockgpu

>  <m_score__min__energy>  (21) 
-8.4399999999999995

>  <m_primary>  (21) 
energy

>  <rmsd>  (21) 
4.105298848538789

>  <m_score__min__rmsd>  (21) 
4.105298848538789

>  <meeko>  (21) 
{"free_energy": -8.33, "intermolecular_energy": -10.42, "internal_energy": -2.36, "cluster_size": 25, "cluster_id": 1, "rank_in_cluster": 3}

>  <energy>  (21) 
-7.51

>  <cluster_rmsd>  (21) 
1.1

>  <cluster>  (21) 
1

$$$$

     RDKit          3D

 47 50  0  0  0  0  0  0  0  0999 V2000
  139.8300   73.5600  222.5740 O   0  0  0  0  0  0  0  0  0  0  0  0
  140.3160   72.3910  222.5350 C   0  0  0  0  0  0  0  0  0  0  0  0
  140.9900   71.8780  221.3880 N   0  0  0  0  0  0  0  0  0  0  0  0
  141.1070   72.7540  220.2370 C   0  0  0  0  0  0  0  0  0  0  0  0
  142.2270   72.3470  219.3570 C   0  0  0  0  0  0  0  0  0  0  0  0
  141.9450   71.8430  218.2490 O   0  0  0  0  0  0  0  0  0  0  0  0
  143.5980   72.4920  219.6910 N   0  0  0  0  0  0  0  0  0  0  0  0
  144.1290   73.8050  220.1180 C   0  0  0  0  0  0  0  0  0  0  0  0
  145.4490   73.4250  220.8160 C   0  0  2  0  0  0  0  0  0  0  0  0
  146.2990   74.4940  220.9140 O   0  0  0  0  0  0  0  0  0  0  0  0
  145.9170   72.3620  219.8400 C   0  0  2  0  0  0  0  0  0  0  0  0
  146.2310   73.0490  218.6690 O   0  0  0  0  0  0  0  0  0  0  0  0
  144.6770   71.5330  219.7080 C   0  0  2  0  0  0  0  0  0  0  0  0
  144.7040   70.5840  218.5570 C   0  0  0  0  0  0  0  0  0  0  0  0
  145.8480   69.7390  218.2250 C   0  0  0  0  0  0  0  0  0  0  0  0
  144.5830   69.1160  218.8240 C   0  0  0  0  0  0  0  0  0  0  0  0
  140.1820   71.5330  223.7090 C   0  0  0  0  0  0  0  0  0  0  0  0
  139.5400   70.3180  223.6400 C   0  0  0  0  0  0  0  0  0  0  0  0
  139.4140   69.5070  224.7550 C   0  0  0  0  0  0  0  0  0  0  0  0
  139.9420   69.9210  225.9610 C   0  0  0  0  0  0  0  0  0  0  0  0
  139.8400   69.1450  227.0980 C   0  0  0  0  0  0  0  0  0  0  0  0
  140.3740   69.5750  228.2990 C   0  0  0  0  0  0  0  0  0  0  0  0
  141.0200   70.8080  228.3420 C   0  0  0  0  0  0  0  0  0  0  0  0
  141.1330   71.6030  227.2100 C   0  0  0  0  0  0  0  0  0  0  0  0
  140.5800   71.1340  226.0210 C   0  0  0  0  0  0  0  0  0  0  0  0
  140.6810   71.8930  224.9080 N   0  0  0  0  0  0  0  0  0  0  0  0
  141.3640   70.9080  221.4230 H   0  0  0  0  0  0  0  0  0  0  0  0
  140.1695   72.7169  219.6628 H   0  0  0  0  0  0  0  0  0  0  0  0
  141.3047   73.7740  220.5981 H   0  0  0  0  0  0  0  0  0  0  0  0
  144.3117   74.4595  219.2529 H   0  0  0  0  0  0  0  0  0  0  0  0
  143.4385   74.3659  220.7650 H   0  0  0  0  0  0  0  0  0  0  0  0
  145.3750   73.0917  221.8617 H   0  0  0  0  0  0  0  0  0  0  0  0
  146.7600   74.6880  220.0600 H   0  0  0  0  0  0  0  0  0  0  0  0
  146.7890   71.7495  220.1129 H   0  0  0  0  0  0  0  0  0  0  0  0
  146.2750   74.0110  218.7870 H   0  0  0  0  0  0  0  0  0  0  0  0
  144.5578   70.8311  220.5465 H   0  0  0  0  0  0  0  0  0  0  0  0
  144.1494   71.3321  217.9715 H   0  0  0  0  0  0  0  0  0  0  0  0
  146.1074   69.5530  217.1723 H   0  0  0  0  0  0  0  0  0  0  0  0
  146.9160   69.7368  218.4884 H   0  0  0  0  0  0  0  0  0  0  0  0
  143.9239   68.4902  218.2044 H   0  0  0  0  0  0  0  0  0  0  0  0
  144.3467   68.4868  219.6948 H   0  0  0  0  0  0  0  0  0  0  0  0
  139.1186   69.9845  222.6802 H   0  0  0  0  0  0  0  0  0  0  0  0
  138.8965   68.5392  224.6801 H   0  0  0  0  0  0  0  0  0  0  0  0
  139.3278   68.1728  227.0482 H   0  0  0  0  0  0  0  0  0  0  0  0
  140.2900   68.9547  229.2035 H   0  0  0  0  0  0  0  0  0  0  0  0
  141.4493   71.1588  229.2921 H   0  0  0  0  0  0  0  0  0  0  0  0
  141.6448   72.5758  227.2508 H   0  0  0  0  0  0  0  0  0  0  0  0
  1  2  2  0
  2  3  1  0
  3  4  1  0
  4  5  1  0
  5  6  2  0
  5  7  1  0
  7  8  1  0
  8  9  1  0
  9 10  1  0
  9 11  1  0
 11 12  1  0
 11 13  1  0
 13 14  1  0
 14 15  1  0
 15 16  1  0
  2 17  1  0
 17 18  2  0
 18 19  1  0
 19 20  2  0
 20 21  1  0
 21 22  2  0
 22 23  1  0
 23 24  2  0
 24 25  1  0
 25 26  2  0
 13  7  1  0
 16 14  1  0
 26 17  1  0
 25 20  1  0
  3 27  1  0
  4 28  1  0
  4 29  1  0
  8 30  1  0
  8 31  1  0
  9 32  1  1
 10 33  1  0
 11 34  1  1
 12 35  1  0
 13 36  1  1
 14 37  1  0
 15 38  1  0
 15 39  1  0
 16 40  1  0
 16 41  1  0
 18 42  1  0
 19 43  1  0
 21 44  1  0
 22 45  1  0
 23 46  1  0
 24 47  1  0
M  END
>  <smiles>  (22) 
O=C(NCC(=O)N1C[C@H](O)[C@H](O)[C@@H]1C1CC1)c1ccc2ccccc2n1

>  <score_type>  (22) 
oracle

>  <origin>  (22) 
autodockgpu

>  <m_score__min__energy>  (22) 
-8.4399999999999995

>  <m_primary>  (22) 
energy

>  <rmsd>  (22) 
4.136256645510656

>  <m_score__min__rmsd>  (22) 
4.136256645510656

>  <meeko>  (22) 
{"free_energy": -8.24, "intermolecular_energy": -10.33, "internal_energy": -2.3, "cluster_size": 25, "cluster_id": 1, "rank_in_cluster": 6}

>  <energy>  (22) 
-7.51

>  <cluster_rmsd>  (22) 
0.91

>  <cluster>  (22) 
1

$$$$

     RDKit          3D

 47 50  0  0  0  0  0  0  0  0999 V2000
  139.8760   74.3530  222.0940 O   0  0  0  0  0  0  0  0  0  0  0  0
  140.4670   75.3110  221.5120 C   0  0  0  0  0  0  0  0  0  0  0  0
  141.2190   75.1330  220.3140 N   0  0  0  0  0  0  0  0  0  0  0  0
  141.2930   73.7910  219.7670 C   0  0  0  0  0  0  0  0  0  0  0  0
  142.1500   72.9120  220.5960 C   0  0  0  0  0  0  0  0  0  0  0  0
  141.6020   72.2540  221.5060 O   0  0  0  0  0  0  0  0  0  0  0  0
  143.5510   72.7710  220.4250 N   0  0  0  0  0  0  0  0  0  0  0  0
  144.4470   73.9350  220.5950 C   0  0  0  0  0  0  0  0  0  0  0  0
  145.8240   73.2750  220.8000 C   0  0  2  0  0  0  0  0  0  0  0  0
  146.8490   74.1500  220.5580 O   0  0  0  0  0  0  0  0  0  0  0  0
  145.7010   72.1790  219.7590 C   0  0  2  0  0  0  0  0  0  0  0  0
  145.7160   72.8330  218.5290 O   0  0  0  0  0  0  0  0  0  0  0  0
  144.3550   71.6170  220.0970 C   0  0  2  0  0  0  0  0  0  0  0  0
  143.7880   70.7260  219.0420 C   0  0  0  0  0  0  0  0  0  0  0  0
  144.5880   69.8010  218.2430 C   0  0  0  0  0  0  0  0  0  0  0  0
  143.6490   69.2630  219.3270 C   0  0  0  0  0  0  0  0  0  0  0  0
  140.3750   76.6490  222.0880 C   0  0  0  0  0  0  0  0  0  0  0  0
  139.1790   77.1530  222.5430 C   0  0  0  0  0  0  0  0  0  0  0  0
  139.0950   78.4230  223.0890 C   0  0  0  0  0  0  0  0  0  0  0  0
  140.2310   79.2020  223.1790 C   0  0  0  0  0  0  0  0  0  0  0  0
  140.1940   80.4730  223.7160 C   0  0  0  0  0  0  0  0  0  0  0  0
  141.3410   81.2400  223.7990 C   0  0  0  0  0  0  0  0  0  0  0  0
  142.5400   80.7070  223.3310 C   0  0  0  0  0  0  0  0  0  0  0  0
  142.5970   79.4310  222.7890 C   0  0  0  0  0  0  0  0  0  0  0  0
  141.4190   78.6910  222.7230 C   0  0  0  0  0  0  0  0  0  0  0  0
  141.4560   77.4470  222.1980 N   0  0  0  0  0  0  0  0  0  0  0  0
  141.6800   75.9620  219.8890 H   0  0  0  0  0  0  0  0  0  0  0  0
  140.2794   73.3657  219.7257 H   0  0  0  0  0  0  0  0  0  0  0  0
  141.7338   73.8527  218.7611 H   0  0  0  0  0  0  0  0  0  0  0  0
  144.4425   74.5733  219.6991 H   0  0  0  0  0  0  0  0  0  0  0  0
  144.1519   74.5958  221.4234 H   0  0  0  0  0  0  0  0  0  0  0  0
  146.0548   72.9233  221.8164 H   0  0  0  0  0  0  0  0  0  0  0  0
  146.9530   74.3520  219.5950 H   0  0  0  0  0  0  0  0  0  0  0  0
  146.4739   71.3968  219.7310 H   0  0  0  0  0  0  0  0  0  0  0  0
  145.9590   73.7710  218.5950 H   0  0  0  0  0  0  0  0  0  0  0  0
  144.4003   70.9207  220.9474 H   0  0  0  0  0  0  0  0  0  0  0  0
  143.1124   71.5465  218.7586 H   0  0  0  0  0  0  0  0  0  0  0  0
  144.3494   69.6434  217.1808 H   0  0  0  0  0  0  0  0  0  0  0  0
  145.6594   69.6931  218.0182 H   0  0  0  0  0  0  0  0  0  0  0  0
  142.7290   68.7272  219.0503 H   0  0  0  0  0  0  0  0  0  0  0  0
  143.7493   68.6160  220.2109 H   0  0  0  0  0  0  0  0  0  0  0  0
  138.2715   76.5354  222.4719 H   0  0  0  0  0  0  0  0  0  0  0  0
  138.1295   78.8083  223.4486 H   0  0  0  0  0  0  0  0  0  0  0  0
  139.2402   80.8805  224.0824 H   0  0  0  0  0  0  0  0  0  0  0  0
  141.3076   82.2528  224.2268 H   0  0  0  0  0  0  0  0  0  0  0  0
  143.4586   81.3089  223.3923 H   0  0  0  0  0  0  0  0  0  0  0  0
  143.5467   79.0152  222.4215 H   0  0  0  0  0  0  0  0  0  0  0  0
  1  2  2  0
  2  3  1  0
  3  4  1  0
  4  5  1  0
  5  6  2  0
  5  7  1  0
  7  8  1  0
  8  9  1  0
  9 10  1  0
  9 11  1  0
 11 12  1  0
 11 13  1  0
 13 14  1  0
 14 15  1  0
 15 16  1  0
  2 17  1  0
 17 18  2  0
 18 19  1  0
 19 20  2  0
 20 21  1  0
 21 22  2  0
 22 23  1  0
 23 24  2  0
 24 25  1  0
 25 26  2  0
 13  7  1  0
 16 14  1  0
 26 17  1  0
 25 20  1  0
  3 27  1  0
  4 28  1  0
  4 29  1  0
  8 30  1  0
  8 31  1  0
  9 32  1  1
 10 33  1  0
 11 34  1  6
 12 35  1  0
 13 36  1  1
 14 37  1  0
 15 38  1  0
 15 39  1  0
 16 40  1  0
 16 41  1  0
 18 42  1  0
 19 43  1  0
 21 44  1  0
 22 45  1  0
 23 46  1  0
 24 47  1  0
M  END
>  <smiles>  (23) 
O=C(NCC(=O)N1C[C@H](O)[C@H](O)[C@@H]1C1CC1)c1ccc2ccccc2n1

>  <score_type>  (23) 
oracle

>  <origin>  (23) 
autodockgpu

>  <m_score__min__energy>  (23) 
-8.4399999999999995

>  <m_primary>  (23) 
energy

>  <rmsd>  (23) 
7.68282000832767

>  <m_score__min__rmsd>  (23) 
7.68282000832767

>  <meeko>  (23) 
{"free_energy": -7.62, "intermolecular_energy": -9.71, "internal_energy": -2.43, "cluster_size": 7, "cluster_id": 2, "rank_in_cluster": 3}

>  <energy>  (23) 
-7.41

>  <cluster_rmsd>  (23) 
0.99

>  <cluster>  (23) 
1

$$$$

     RDKit          3D

 47 50  0  0  0  0  0  0  0  0999 V2000
  139.8980   73.5990  222.4030 O   0  0  0  0  0  0  0  0  0  0  0  0
  140.3410   72.4130  222.3380 C   0  0  0  0  0  0  0  0  0  0  0  0
  140.8960   71.8670  221.1440 N   0  0  0  0  0  0  0  0  0  0  0  0
  140.9410   72.7260  219.9760 C   0  0  0  0  0  0  0  0  0  0  0  0
  142.0700   73.6820  220.0490 C   0  0  0  0  0  0  0  0  0  0  0  0
  141.8050   74.9020  219.9890 O   0  0  0  0  0  0  0  0  0  0  0  0
  143.4300   73.3030  220.1810 N   0  0  0  0  0  0  0  0  0  0  0  0
  144.4670   74.3200  220.4620 C   0  0  0  0  0  0  0  0  0  0  0  0
  145.6390   73.4710  220.9890 C   0  0  2  0  0  0  0  0  0  0  0  0
  146.8300   74.1430  220.9120 O   0  0  0  0  0  0  0  0  0  0  0  0
  145.5310   72.3140  220.0140 C   0  0  2  0  0  0  0  0  0  0  0  0
  145.8990   72.8370  218.7770 O   0  0  0  0  0  0  0  0  0  0  0  0
  144.0670   72.0090  220.0990 C   0  0  2  0  0  0  0  0  0  0  0  0
  143.5690   71.1240  219.0070 C   0  0  0  0  0  0  0  0  0  0  0  0
  144.2970   69.9610  218.5050 C   0  0  0  0  0  0  0  0  0  0  0  0
  143.0380   69.7680  219.3570 C   0  0  0  0  0  0  0  0  0  0  0  0
  140.2810   71.5730  223.5300 C   0  0  0  0  0  0  0  0  0  0  0  0
  139.7950   70.2870  223.4770 C   0  0  0  0  0  0  0  0  0  0  0  0
  139.7390   69.4920  224.6090 C   0  0  0  0  0  0  0  0  0  0  0  0
  140.1780   69.9960  225.8170 C   0  0  0  0  0  0  0  0  0  0  0  0
  140.1410   69.2390  226.9710 C   0  0  0  0  0  0  0  0  0  0  0  0
  140.5850   69.7590  228.1730 C   0  0  0  0  0  0  0  0  0  0  0  0
  141.0720   71.0630  228.2000 C   0  0  0  0  0  0  0  0  0  0  0  0
  141.1180   71.8400  227.0510 C   0  0  0  0  0  0  0  0  0  0  0  0
  140.6600   71.2790  225.8610 C   0  0  0  0  0  0  0  0  0  0  0  0
  140.6970   72.0200  224.7310 N   0  0  0  0  0  0  0  0  0  0  0  0
  141.2390   70.8860  221.1600 H   0  0  0  0  0  0  0  0  0  0  0  0
  141.0583   72.1021  219.0777 H   0  0  0  0  0  0  0  0  0  0  0  0
  140.0040   73.3007  219.9337 H   0  0  0  0  0  0  0  0  0  0  0  0
  144.7494   74.8619  219.5473 H   0  0  0  0  0  0  0  0  0  0  0  0
  144.1375   75.0960  221.1686 H   0  0  0  0  0  0  0  0  0  0  0  0
  145.6009   73.1863  222.0508 H   0  0  0  0  0  0  0  0  0  0  0  0
  147.0290   74.4540  219.9940 H   0  0  0  0  0  0  0  0  0  0  0  0
  146.1453   71.4196  220.1947 H   0  0  0  0  0  0  0  0  0  0  0  0
  146.2150   73.7540  218.8250 H   0  0  0  0  0  0  0  0  0  0  0  0
  143.8230   71.3994  220.9815 H   0  0  0  0  0  0  0  0  0  0  0  0
  143.1819   72.0217  218.5027 H   0  0  0  0  0  0  0  0  0  0  0  0
  144.2770   69.7208  217.4317 H   0  0  0  0  0  0  0  0  0  0  0  0
  145.3377   69.6097  218.5642 H   0  0  0  0  0  0  0  0  0  0  0  0
  142.1078   69.3997  218.8998 H   0  0  0  0  0  0  0  0  0  0  0  0
  142.7839   69.2325  220.2837 H   0  0  0  0  0  0  0  0  0  0  0  0
  139.4440   69.8825  222.5162 H   0  0  0  0  0  0  0  0  0  0  0  0
  139.3475   68.4659  224.5464 H   0  0  0  0  0  0  0  0  0  0  0  0
  139.7538   68.2101  226.9339 H   0  0  0  0  0  0  0  0  0  0  0  0
  140.5540   69.1535  229.0908 H   0  0  0  0  0  0  0  0  0  0  0  0
  141.4275   71.4860  229.1512 H   0  0  0  0  0  0  0  0  0  0  0  0
  141.5050   72.8693  227.0791 H   0  0  0  0  0  0  0  0  0  0  0  0
  1  2  2  0
  2  3  1  0
  3  4  1  0
  4  5  1  0
  5  6  2  0
  5  7  1  0
  7  8  1  0
  8  9  1  0
  9 10  1  0
  9 11  1  0
 11 12  1  0
 11 13  1  0
 13 14  1  0
 14 15  1  0
 15 16  1  0
  2 17  1  0
 17 18  2  0
 18 19  1  0
 19 20  2  0
 20 21  1  0
 21 22  2  0
 22 23  1  0
 23 24  2  0
 24 25  1  0
 25 26  2  0
 13  7  1  0
 16 14  1  0
 26 17  1  0
 25 20  1  0
  3 27  1  0
  4 28  1  0
  4 29  1  0
  8 30  1  0
  8 31  1  0
  9 32  1  1
 10 33  1  0
 11 34  1  1
 12 35  1  0
 13 36  1  1
 14 37  1  0
 15 38  1  0
 15 39  1  0
 16 40  1  0
 16 41  1  0
 18 42  1  0
 19 43  1  0
 21 44  1  0
 22 45  1  0
 23 46  1  0
 24 47  1  0
M  END
>  <smiles>  (24) 
O=C(NCC(=O)N1C[C@H](O)[C@H](O)[C@@H]1C1CC1)c1ccc2ccccc2n1

>  <score_type>  (24) 
oracle

>  <origin>  (24) 
autodockgpu

>  <m_score__min__energy>  (24) 
-8.4399999999999995

>  <m_primary>  (24) 
energy

>  <rmsd>  (24) 
3.9456846984403127

>  <m_score__min__rmsd>  (24) 
3.9456846984403127

>  <meeko>  (24) 
{"free_energy": -8.12, "intermolecular_energy": -10.21, "internal_energy": -2.36, "cluster_size": 25, "cluster_id": 1, "rank_in_cluster": 9}

>  <energy>  (24) 
-7.24

>  <cluster_rmsd>  (24) 
1.03

>  <cluster>  (24) 
1

$$$$

     RDKit          3D

 47 50  0  0  0  0  0  0  0  0999 V2000
  139.6670   71.1110  221.1420 O   0  0  0  0  0  0  0  0  0  0  0  0
  140.2050   71.7220  222.1130 C   0  0  0  0  0  0  0  0  0  0  0  0
  140.8870   72.9640  221.9550 N   0  0  0  0  0  0  0  0  0  0  0  0
  140.9500   73.5240  220.6170 C   0  0  0  0  0  0  0  0  0  0  0  0
  142.1880   74.3120  220.4170 C   0  0  0  0  0  0  0  0  0  0  0  0
  142.0770   75.5500  220.2900 O   0  0  0  0  0  0  0  0  0  0  0  0
  143.4900   73.7520  220.3600 N   0  0  0  0  0  0  0  0  0  0  0  0
  144.6830   74.6220  220.4570 C   0  0  0  0  0  0  0  0  0  0  0  0
  145.7970   73.6260  220.8310 C   0  0  2  0  0  0  0  0  0  0  0  0
  147.0420   74.1300  220.5620 O   0  0  0  0  0  0  0  0  0  0  0  0
  145.3920   72.4860  219.9160 C   0  0  2  0  0  0  0  0  0  0  0  0
  145.6390   72.9440  218.6230 O   0  0  0  0  0  0  0  0  0  0  0  0
  143.9300   72.3840  220.2220 C   0  0  2  0  0  0  0  0  0  0  0  0
  143.1610   71.5650  219.2400 C   0  0  0  0  0  0  0  0  0  0  0  0
  143.6150   70.2750  218.7240 C   0  0  0  0  0  0  0  0  0  0  0  0
  142.4510   70.3370  219.7180 C   0  0  0  0  0  0  0  0  0  0  0  0
  140.1250   71.1330  223.4470 C   0  0  0  0  0  0  0  0  0  0  0  0
  139.5200   69.9160  223.6580 C   0  0  0  0  0  0  0  0  0  0  0  0
  139.4460   69.3600  224.9240 C   0  0  0  0  0  0  0  0  0  0  0  0
  139.9880   70.0370  225.9980 C   0  0  0  0  0  0  0  0  0  0  0  0
  139.9370   69.5210  227.2770 C   0  0  0  0  0  0  0  0  0  0  0  0
  140.4860   70.2110  228.3420 C   0  0  0  0  0  0  0  0  0  0  0  0
  141.0930   71.4420  228.1010 C   0  0  0  0  0  0  0  0  0  0  0  0
  141.1540   71.9770  226.8230 C   0  0  0  0  0  0  0  0  0  0  0  0
  140.5890   71.2490  225.7780 C   0  0  0  0  0  0  0  0  0  0  0  0
  140.6400   71.7550  224.5260 N   0  0  0  0  0  0  0  0  0  0  0  0
  141.3060   73.4110  222.7940 H   0  0  0  0  0  0  0  0  0  0  0  0
  140.9260   72.7037  219.8845 H   0  0  0  0  0  0  0  0  0  0  0  0
  140.0883   74.1942  220.4821 H   0  0  0  0  0  0  0  0  0  0  0  0
  144.8956   75.1127  219.4958 H   0  0  0  0  0  0  0  0  0  0  0  0
  144.5684   75.4418  221.1814 H   0  0  0  0  0  0  0  0  0  0  0  0
  145.8799   73.3577  221.8945 H   0  0  0  0  0  0  0  0  0  0  0  0
  147.1760   74.3080  219.5970 H   0  0  0  0  0  0  0  0  0  0  0  0
  145.9013   71.5178  220.0309 H   0  0  0  0  0  0  0  0  0  0  0  0
  146.0850   73.8060  218.5990 H   0  0  0  0  0  0  0  0  0  0  0  0
  143.7413   71.8205  221.1477 H   0  0  0  0  0  0  0  0  0  0  0  0
  142.8762   72.4995  218.7344 H   0  0  0  0  0  0  0  0  0  0  0  0
  143.4280   70.0059  217.6740 H   0  0  0  0  0  0  0  0  0  0  0  0
  144.5796   69.7475  218.6872 H   0  0  0  0  0  0  0  0  0  0  0  0
  141.4242   70.1235  219.3862 H   0  0  0  0  0  0  0  0  0  0  0  0
  142.2198   69.8865  220.6945 H   0  0  0  0  0  0  0  0  0  0  0  0
  139.0866   69.3739  222.8046 H   0  0  0  0  0  0  0  0  0  0  0  0
  138.9585   68.3852  225.0729 H   0  0  0  0  0  0  0  0  0  0  0  0
  139.4535   68.5485  227.4513 H   0  0  0  0  0  0  0  0  0  0  0  0
  140.4444   69.7962  229.3599 H   0  0  0  0  0  0  0  0  0  0  0  0
  141.5323   72.0002  228.9408 H   0  0  0  0  0  0  0  0  0  0  0  0
  141.6351   72.9490  226.6394 H   0  0  0  0  0  0  0  0  0  0  0  0
  1  2  2  0
  2  3  1  0
  3  4  1  0
  4  5  1  0
  5  6  2  0
  5  7  1  0
  7  8  1  0
  8  9  1  0
  9 10  1  0
  9 11  1  0
 11 12  1  0
 11 13  1  0
 13 14  1  0
 14 15  1  0
 15 16  1  0
  2 17  1  0
 17 18  2  0
 18 19  1  0
 19 20  2  0
 20 21  1  0
 21 22  2  0
 22 23  1  0
 23 24  2  0
 24 25  1  0
 25 26  2  0
 13  7  1  0
 16 14  1  0
 26 17  1  0
 25 20  1  0
  3 27  1  0
  4 28  1  0
  4 29  1  0
  8 30  1  0
  8 31  1  0
  9 32  1  1
 10 33  1  0
 11 34  1  1
 12 35  1  0
 13 36  1  1
 14 37  1  0
 15 38  1  0
 15 39  1  0
 16 40  1  0
 16 41  1  0
 18 42  1  0
 19 43  1  0
 21 44  1  0
 22 45  1  0
 23 46  1  0
 24 47  1  0
M  END
>  <smiles>  (25) 
O=C(NCC(=O)N1C[C@H](O)[C@H](O)[C@@H]1C1CC1)c1ccc2ccccc2n1

>  <score_type>  (25) 
oracle

>  <origin>  (25) 
autodockgpu

>  <m_score__min__energy>  (25) 
-8.4399999999999995

>  <m_primary>  (25) 
energy

>  <rmsd>  (25) 
3.773424883234473

>  <m_score__min__rmsd>  (25) 
3.773424883234473

>  <meeko>  (25) 
{"free_energy": -7.54, "intermolecular_energy": -9.63, "internal_energy": -2.79, "cluster_size": 25, "cluster_id": 1, "rank_in_cluster": 19}

>  <energy>  (25) 
-7.02

>  <cluster_rmsd>  (25) 
1.59

>  <cluster>  (25) 
1

$$$$

     RDKit          3D

 47 50  0  0  0  0  0  0  0  0999 V2000
  140.7830   71.2980  221.2990 O   0  0  0  0  0  0  0  0  0  0  0  0
  140.3210   71.9060  222.3100 C   0  0  0  0  0  0  0  0  0  0  0  0
  139.9440   73.2800  222.2720 N   0  0  0  0  0  0  0  0  0  0  0  0
  140.1080   73.9820  221.0130 C   0  0  0  0  0  0  0  0  0  0  0  0
  140.6990   75.3250  221.2140 C   0  0  0  0  0  0  0  0  0  0  0  0
  140.3590   75.9660  222.2310 O   0  0  0  0  0  0  0  0  0  0  0  0
  141.6250   75.9310  220.3260 N   0  0  0  0  0  0  0  0  0  0  0  0
  141.2000   77.0390  219.4430 C   0  0  0  0  0  0  0  0  0  0  0  0
  142.5400   77.6850  219.0430 C   0  0  2  0  0  0  0  0  0  0  0  0
  142.4190   78.4520  217.9150 O   0  0  0  0  0  0  0  0  0  0  0  0
  143.3450   76.4170  218.8340 C   0  0  2  0  0  0  0  0  0  0  0  0
  142.8000   75.8170  217.7010 O   0  0  0  0  0  0  0  0  0  0  0  0
  143.0260   75.6690  220.0920 C   0  0  2  0  0  0  0  0  0  0  0  0
  143.4050   74.2270  220.0510 C   0  0  0  0  0  0  0  0  0  0  0  0
  144.5390   73.7040  219.2920 C   0  0  0  0  0  0  0  0  0  0  0  0
  144.6050   73.7700  220.8220 C   0  0  0  0  0  0  0  0  0  0  0  0
  140.1680   71.1730  223.5630 C   0  0  0  0  0  0  0  0  0  0  0  0
  139.5500   69.9450  223.6050 C   0  0  0  0  0  0  0  0  0  0  0  0
  139.4060   69.2520  224.7960 C   0  0  0  0  0  0  0  0  0  0  0  0
  139.8910   69.8010  225.9650 C   0  0  0  0  0  0  0  0  0  0  0  0
  139.7700   69.1460  227.1740 C   0  0  0  0  0  0  0  0  0  0  0  0
  140.2610   69.7090  228.3380 C   0  0  0  0  0  0  0  0  0  0  0  0
  140.8830   70.9540  228.2690 C   0  0  0  0  0  0  0  0  0  0  0  0
  141.0140   71.6280  227.0630 C   0  0  0  0  0  0  0  0  0  0  0  0
  140.5050   71.0250  225.9150 C   0  0  0  0  0  0  0  0  0  0  0  0
  140.6250   71.6670  224.7310 N   0  0  0  0  0  0  0  0  0  0  0  0
  139.5720   73.7170  223.1390 H   0  0  0  0  0  0  0  0  0  0  0  0
  140.7696   73.3944  220.3595 H   0  0  0  0  0  0  0  0  0  0  0  0
  139.1156   74.1064  220.5551 H   0  0  0  0  0  0  0  0  0  0  0  0
  140.6633   76.6599  218.5608 H   0  0  0  0  0  0  0  0  0  0  0  0
  140.5039   77.7404  219.9263 H   0  0  0  0  0  0  0  0  0  0  0  0
  142.9767   78.3956  219.7602 H   0  0  0  0  0  0  0  0  0  0  0  0
  142.7100   77.9710  217.1000 H   0  0  0  0  0  0  0  0  0  0  0  0
  144.4300   76.5067  218.6769 H   0  0  0  0  0  0  0  0  0  0  0  0
  142.2260   76.4100  217.1900 H   0  0  0  0  0  0  0  0  0  0  0  0
  143.6324   76.0139  220.9425 H   0  0  0  0  0  0  0  0  0  0  0  0
  142.3330   73.9809  220.0325 H   0  0  0  0  0  0  0  0  0  0  0  0
  144.4603   72.7303  218.7863 H   0  0  0  0  0  0  0  0  0  0  0  0
  145.1646   74.0806  218.4694 H   0  0  0  0  0  0  0  0  0  0  0  0
  144.5636   72.8483  221.4210 H   0  0  0  0  0  0  0  0  0  0  0  0
  145.2830   74.2127  221.5665 H   0  0  0  0  0  0  0  0  0  0  0  0
  139.1624   69.5044  222.6746 H   0  0  0  0  0  0  0  0  0  0  0  0
  138.9085   68.2710  224.8094 H   0  0  0  0  0  0  0  0  0  0  0  0
  139.2767   68.1636  227.2122 H   0  0  0  0  0  0  0  0  0  0  0  0
  140.1624   69.1841  229.2996 H   0  0  0  0  0  0  0  0  0  0  0  0
  141.2778   71.4114  229.1882 H   0  0  0  0  0  0  0  0  0  0  0  0
  141.5059   72.6107  227.0149 H   0  0  0  0  0  0  0  0  0  0  0  0
  1  2  2  0
  2  3  1  0
  3  4  1  0
  4  5  1  0
  5  6  2  0
  5  7  1  0
  7  8  1  0
  8  9  1  0
  9 10  1  0
  9 11  1  0
 11 12  1  0
 11 13  1  0
 13 14  1  0
 14 15  1  0
 15 16  1  0
  2 17  1  0
 17 18  2  0
 18 19  1  0
 19 20  2  0
 20 21  1  0
 21 22  2  0
 22 23  1  0
 23 24  2  0
 24 25  1  0
 25 26  2  0
 13  7  1  0
 16 14  1  0
 26 17  1  0
 25 20  1  0
  3 27  1  0
  4 28  1  0
  4 29  1  0
  8 30  1  0
  8 31  1  0
  9 32  1  1
 10 33  1  0
 11 34  1  6
 12 35  1  0
 13 36  1  1
 14 37  1  0
 15 38  1  0
 15 39  1  0
 16 40  1  0
 16 41  1  0
 18 42  1  0
 19 43  1  0
 21 44  1  0
 22 45  1  0
 23 46  1  0
 24 47  1  0
M  END
>  <smiles>  (26) 
O=C(NCC(=O)N1C[C@H](O)[C@H](O)[C@@H]1C1CC1)c1ccc2ccccc2n1

>  <score_type>  (26) 
oracle

>  <origin>  (26) 
autodockgpu

>  <m_score__min__energy>  (26) 
-8.4399999999999995

>  <m_primary>  (26) 
energy

>  <rmsd>  (26) 
2.1604978150076004

>  <m_score__min__rmsd>  (26) 
2.1604978150076004

>  <meeko>  (26) 
{"free_energy": -6.94, "intermolecular_energy": -9.03, "internal_energy": -2.74, "cluster_size": 9, "cluster_id": 3, "rank_in_cluster": 9}

>  <energy>  (26) 
-7.78

>  <cluster_rmsd>  (26) 
0.0

>  <cluster>  (26) 
2

$$$$

     RDKit          3D

 47 50  0  0  0  0  0  0  0  0999 V2000
  140.8190   71.3710  221.3310 O   0  0  0  0  0  0  0  0  0  0  0  0
  140.3470   71.9710  222.3430 C   0  0  0  0  0  0  0  0  0  0  0  0
  139.9520   73.3400  222.3070 N   0  0  0  0  0  0  0  0  0  0  0  0
  140.1110   74.0470  221.0500 C   0  0  0  0  0  0  0  0  0  0  0  0
  140.7700   75.3600  221.2450 C   0  0  0  0  0  0  0  0  0  0  0  0
  140.5060   75.9950  222.2870 O   0  0  0  0  0  0  0  0  0  0  0  0
  141.6800   75.9410  220.3240 N   0  0  0  0  0  0  0  0  0  0  0  0
  141.2420   77.0310  219.4270 C   0  0  0  0  0  0  0  0  0  0  0  0
  142.5770   77.6610  218.9840 C   0  0  2  0  0  0  0  0  0  0  0  0
  142.4360   78.4030  217.8420 O   0  0  0  0  0  0  0  0  0  0  0  0
  143.3700   76.3840  218.7860 C   0  0  2  0  0  0  0  0  0  0  0  0
  142.7990   75.7620  217.6780 O   0  0  0  0  0  0  0  0  0  0  0  0
  143.0740   75.6660  220.0670 C   0  0  2  0  0  0  0  0  0  0  0  0
  143.4450   74.2210  220.0500 C   0  0  0  0  0  0  0  0  0  0  0  0
  144.5670   73.6770  219.2890 C   0  0  0  0  0  0  0  0  0  0  0  0
  144.6510   73.7730  220.8160 C   0  0  0  0  0  0  0  0  0  0  0  0
  140.1990   71.2330  223.5940 C   0  0  0  0  0  0  0  0  0  0  0  0
  139.5860   70.0020  223.6330 C   0  0  0  0  0  0  0  0  0  0  0  0
  139.4480   69.3050  224.8210 C   0  0  0  0  0  0  0  0  0  0  0  0
  139.9330   69.8520  225.9920 C   0  0  0  0  0  0  0  0  0  0  0  0
  139.8180   69.1920  227.1990 C   0  0  0  0  0  0  0  0  0  0  0  0
  140.3090   69.7540  228.3630 C   0  0  0  0  0  0  0  0  0  0  0  0
  140.9250   71.0020  228.2970 C   0  0  0  0  0  0  0  0  0  0  0  0
  141.0510   71.6800  227.0930 C   0  0  0  0  0  0  0  0  0  0  0  0
  140.5420   71.0790  225.9440 C   0  0  0  0  0  0  0  0  0  0  0  0
  140.6560   71.7250  224.7620 N   0  0  0  0  0  0  0  0  0  0  0  0
  139.5730   73.7710  223.1740 H   0  0  0  0  0  0  0  0  0  0  0  0
  140.7247   73.4363  220.3715 H   0  0  0  0  0  0  0  0  0  0  0  0
  139.1122   74.2221  220.6237 H   0  0  0  0  0  0  0  0  0  0  0  0
  140.6844   76.6357  218.5651 H   0  0  0  0  0  0  0  0  0  0  0  0
  140.5601   77.7466  219.9097 H   0  0  0  0  0  0  0  0  0  0  0  0
  143.0326   78.3851  219.6755 H   0  0  0  0  0  0  0  0  0  0  0  0
  142.6880   77.8960  217.0300 H   0  0  0  0  0  0  0  0  0  0  0  0
  144.4519   76.4640  218.6038 H   0  0  0  0  0  0  0  0  0  0  0  0
  142.2150   76.3460  217.1670 H   0  0  0  0  0  0  0  0  0  0  0  0
  143.6998   76.0261  220.8969 H   0  0  0  0  0  0  0  0  0  0  0  0
  142.3716   73.9804  220.0484 H   0  0  0  0  0  0  0  0  0  0  0  0
  144.4774   72.6939  218.8038 H   0  0  0  0  0  0  0  0  0  0  0  0
  145.1851   74.0337  218.4519 H   0  0  0  0  0  0  0  0  0  0  0  0
  144.6117   72.8637  221.4337 H   0  0  0  0  0  0  0  0  0  0  0  0
  145.3399   74.2267  221.5437 H   0  0  0  0  0  0  0  0  0  0  0  0
  139.1980   69.5630  222.7020 H   0  0  0  0  0  0  0  0  0  0  0  0
  138.9551   68.3217  224.8319 H   0  0  0  0  0  0  0  0  0  0  0  0
  139.3298   68.2070  227.2352 H   0  0  0  0  0  0  0  0  0  0  0  0
  140.2151   69.2257  229.3232 H   0  0  0  0  0  0  0  0  0  0  0  0
  141.3190   71.4585  229.2170 H   0  0  0  0  0  0  0  0  0  0  0  0
  141.5392   72.6647  227.0471 H   0  0  0  0  0  0  0  0  0  0  0  0
  1  2  2  0
  2  3  1  0
  3  4  1  0
  4  5  1  0
  5  6  2  0
  5  7  1  0
  7  8  1  0
  8  9  1  0
  9 10  1  0
  9 11  1  0
 11 12  1  0
 11 13  1  0
 13 14  1  0
 14 15  1  0
 15 16  1  0
  2 17  1  0
 17 18  2  0
 18 19  1  0
 19 20  2  0
 20 21  1  0
 21 22  2  0
 22 23  1  0
 23 24  2  0
 24 25  1  0
 25 26  2  0
 13  7  1  0
 16 14  1  0
 26 17  1  0
 25 20  1  0
  3 27  1  0
  4 28  1  0
  4 29  1  0
  8 30  1  0
  8 31  1  0
  9 32  1  1
 10 33  1  0
 11 34  1  6
 12 35  1  0
 13 36  1  1
 14 37  1  0
 15 38  1  0
 15 39  1  0
 16 40  1  0
 16 41  1  0
 18 42  1  0
 19 43  1  0
 21 44  1  0
 22 45  1  0
 23 46  1  0
 24 47  1  0
M  END
>  <smiles>  (27) 
O=C(NCC(=O)N1C[C@H](O)[C@H](O)[C@@H]1C1CC1)c1ccc2ccccc2n1

>  <score_type>  (27) 
oracle

>  <origin>  (27) 
autodockgpu

>  <m_score__min__energy>  (27) 
-8.4399999999999995

>  <m_primary>  (27) 
energy

>  <rmsd>  (27) 
2.1783153159913664

>  <m_score__min__rmsd>  (27) 
2.1783153159913664

>  <meeko>  (27) 
{"free_energy": -6.98, "intermolecular_energy": -9.07, "internal_energy": -2.74, "cluster_size": 9, "cluster_id": 3, "rank_in_cluster": 8}

>  <energy>  (27) 
-7.63

>  <cluster_rmsd>  (27) 
0.81

>  <cluster>  (27) 
2

$$$$

     RDKit          3D

 47 50  0  0  0  0  0  0  0  0999 V2000
  140.3650   73.5180  222.3440 O   0  0  0  0  0  0  0  0  0  0  0  0
  140.3740   72.2550  222.2370 C   0  0  0  0  0  0  0  0  0  0  0  0
  140.5330   71.5920  220.9850 N   0  0  0  0  0  0  0  0  0  0  0  0
  140.6860   72.4240  219.8060 C   0  0  0  0  0  0  0  0  0  0  0  0
  141.9490   72.1250  219.0910 C   0  0  0  0  0  0  0  0  0  0  0  0
  141.8690   71.5850  217.9670 O   0  0  0  0  0  0  0  0  0  0  0  0
  143.2420   72.4120  219.6000 N   0  0  0  0  0  0  0  0  0  0  0  0
  143.6450   73.8080  219.8740 C   0  0  0  0  0  0  0  0  0  0  0  0
  144.8490   73.6320  220.8190 C   0  0  2  0  0  0  0  0  0  0  0  0
  145.6310   74.7560  220.8620 O   0  0  0  0  0  0  0  0  0  0  0  0
  145.5100   72.4590  220.1210 C   0  0  2  0  0  0  0  0  0  0  0  0
  145.9810   72.9660  218.9120 O   0  0  0  0  0  0  0  0  0  0  0  0
  144.3400   71.5400  219.9440 C   0  0  2  0  0  0  0  0  0  0  0  0
  144.5880   70.4210  218.9890 C   0  0  0  0  0  0  0  0  0  0  0  0
  145.8130   69.6240  218.9690 C   0  0  0  0  0  0  0  0  0  0  0  0
  144.5070   69.0110  219.4860 C   0  0  0  0  0  0  0  0  0  0  0  0
  140.2170   71.4450  223.4420 C   0  0  0  0  0  0  0  0  0  0  0  0
  139.6210   70.2060  223.4000 C   0  0  0  0  0  0  0  0  0  0  0  0
  139.4740   69.4400  224.5450 C   0  0  0  0  0  0  0  0  0  0  0  0
  139.9310   69.9260  225.7530 C   0  0  0  0  0  0  0  0  0  0  0  0
  139.8060   69.1980  226.9180 C   0  0  0  0  0  0  0  0  0  0  0  0
  140.2690   69.6990  228.1200 C   0  0  0  0  0  0  0  0  0  0  0  0
  140.8690   70.9560  228.1360 C   0  0  0  0  0  0  0  0  0  0  0  0
  141.0050   71.7040  226.9750 C   0  0  0  0  0  0  0  0  0  0  0  0
  140.5240   71.1630  225.7850 C   0  0  0  0  0  0  0  0  0  0  0  0
  140.6480   71.8760  224.6440 N   0  0  0  0  0  0  0  0  0  0  0  0
  140.5310   70.5530  220.9690 H   0  0  0  0  0  0  0  0  0  0  0  0
  139.8394   72.2419  219.1276 H   0  0  0  0  0  0  0  0  0  0  0  0
  140.7114   73.4759  220.1266 H   0  0  0  0  0  0  0  0  0  0  0  0
  143.9389   74.3251  218.9487 H   0  0  0  0  0  0  0  0  0  0  0  0
  142.8379   74.4197  220.3035 H   0  0  0  0  0  0  0  0  0  0  0  0
  144.6193   73.4675  221.8821 H   0  0  0  0  0  0  0  0  0  0  0  0
  146.2890   74.7870  220.1230 H   0  0  0  0  0  0  0  0  0  0  0  0
  146.3503   71.9579  220.6238 H   0  0  0  0  0  0  0  0  0  0  0  0
  145.9900   73.9360  218.8790 H   0  0  0  0  0  0  0  0  0  0  0  0
  144.1149   70.9762  220.8613 H   0  0  0  0  0  0  0  0  0  0  0  0
  144.0875   71.0181  218.2125 H   0  0  0  0  0  0  0  0  0  0  0  0
  146.2361   69.2895  218.0103 H   0  0  0  0  0  0  0  0  0  0  0  0
  146.8283   69.7475  219.3738 H   0  0  0  0  0  0  0  0  0  0  0  0
  143.9819   68.2434  218.8986 H   0  0  0  0  0  0  0  0  0  0  0  0
  144.1772   68.5159  220.4112 H   0  0  0  0  0  0  0  0  0  0  0  0
  139.2542   69.8160  222.4391 H   0  0  0  0  0  0  0  0  0  0  0  0
  138.9960   68.4507  224.4915 H   0  0  0  0  0  0  0  0  0  0  0  0
  139.3317   68.2059  226.8900 H   0  0  0  0  0  0  0  0  0  0  0  0
  140.1656   69.1158  229.0469 H   0  0  0  0  0  0  0  0  0  0  0  0
  141.2422   71.3636  229.0871 H   0  0  0  0  0  0  0  0  0  0  0  0
  141.4794   72.6963  226.9940 H   0  0  0  0  0  0  0  0  0  0  0  0
  1  2  2  0
  2  3  1  0
  3  4  1  0
  4  5  1  0
  5  6  2  0
  5  7  1  0
  7  8  1  0
  8  9  1  0
  9 10  1  0
  9 11  1  0
 11 12  1  0
 11 13  1  0
 13 14  1  0
 14 15  1  0
 15 16  1  0
  2 17  1  0
 17 18  2  0
 18 19  1  0
 19 20  2  0
 20 21  1  0
 21 22  2  0
 22 23  1  0
 23 24  2  0
 24 25  1  0
 25 26  2  0
 13  7  1  0
 16 14  1  0
 26 17  1  0
 25 20  1  0
  3 27  1  0
  4 28  1  0
  4 29  1  0
  8 30  1  0
  8 31  1  0
  9 32  1  1
 10 33  1  0
 11 34  1  1
 12 35  1  0
 13 36  1  1
 14 37  1  0
 15 38  1  0
 15 39  1  0
 16 40  1  0
 16 41  1  0
 18 42  1  0
 19 43  1  0
 21 44  1  0
 22 45  1  0
 23 46  1  0
 24 47  1  0
M  END
>  <smiles>  (28) 
O=C(NCC(=O)N1C[C@H](O)[C@H](O)[C@@H]1C1CC1)c1ccc2ccccc2n1

>  <score_type>  (28) 
oracle

>  <origin>  (28) 
autodockgpu

>  <m_score__min__energy>  (28) 
-8.4399999999999995

>  <m_primary>  (28) 
energy

>  <rmsd>  (28) 
3.9891133238123815

>  <m_score__min__rmsd>  (28) 
3.9891133238123815

>  <meeko>  (28) 
{"free_energy": -8.1, "intermolecular_energy": -10.19, "internal_energy": -2.45, "cluster_size": 25, "cluster_id": 1, "rank_in_cluster": 11}

>  <energy>  (28) 
-7.62

>  <cluster_rmsd>  (28) 
0.83

>  <cluster>  (28) 
2

$$$$

     RDKit          3D

 47 50  0  0  0  0  0  0  0  0999 V2000
  141.5100   72.2810  221.9050 O   0  0  0  0  0  0  0  0  0  0  0  0
  140.4750   72.3930  222.6270 C   0  0  0  0  0  0  0  0  0  0  0  0
  139.5180   73.4330  222.4390 N   0  0  0  0  0  0  0  0  0  0  0  0
  139.7680   74.3830  221.3710 C   0  0  0  0  0  0  0  0  0  0  0  0
  139.5320   75.7760  221.8190 C   0  0  0  0  0  0  0  0  0  0  0  0
  138.6700   75.9660  222.7020 O   0  0  0  0  0  0  0  0  0  0  0  0
  140.2220   76.9060  221.3090 N   0  0  0  0  0  0  0  0  0  0  0  0
  141.2450   76.7440  220.2520 C   0  0  0  0  0  0  0  0  0  0  0  0
  141.3690   78.1700  219.6820 C   0  0  2  0  0  0  0  0  0  0  0  0
  142.5410   78.3420  218.9940 O   0  0  0  0  0  0  0  0  0  0  0  0
  141.3120   78.9370  220.9890 C   0  0  2  0  0  0  0  0  0  0  0  0
  142.5010   78.6320  221.6490 O   0  0  0  0  0  0  0  0  0  0  0  0
  140.1160   78.3080  221.6340 C   0  0  2  0  0  0  0  0  0  0  0  0
  139.9810   78.6160  223.0880 C   0  0  0  0  0  0  0  0  0  0  0  0
  140.8860   79.4990  223.8210 C   0  0  0  0  0  0  0  0  0  0  0  0
  139.4590   79.9570  223.5000 C   0  0  0  0  0  0  0  0  0  0  0  0
  140.2520   71.4220  223.6940 C   0  0  0  0  0  0  0  0  0  0  0  0
  139.5550   70.2570  223.4690 C   0  0  0  0  0  0  0  0  0  0  0  0
  139.3450   69.3380  224.4830 C   0  0  0  0  0  0  0  0  0  0  0  0
  139.8410   69.5910  225.7460 C   0  0  0  0  0  0  0  0  0  0  0  0
  139.6560   68.7030  226.7860 C   0  0  0  0  0  0  0  0  0  0  0  0
  140.1600   68.9720  228.0450 C   0  0  0  0  0  0  0  0  0  0  0  0
  140.8610   70.1580  228.2470 C   0  0  0  0  0  0  0  0  0  0  0  0
  141.0590   71.0630  227.2140 C   0  0  0  0  0  0  0  0  0  0  0  0
  140.5340   70.7550  225.9610 C   0  0  0  0  0  0  0  0  0  0  0  0
  140.7170   71.6240  224.9430 N   0  0  0  0  0  0  0  0  0  0  0  0
  138.6910   73.4670  223.0680 H   0  0  0  0  0  0  0  0  0  0  0  0
  140.8132   74.2851  221.0425 H   0  0  0  0  0  0  0  0  0  0  0  0
  139.0764   74.1638  220.5442 H   0  0  0  0  0  0  0  0  0  0  0  0
  142.2010   76.4007  220.6741 H   0  0  0  0  0  0  0  0  0  0  0  0
  140.9764   75.9924  219.4951 H   0  0  0  0  0  0  0  0  0  0  0  0
  140.6167   78.4701  218.9378 H   0  0  0  0  0  0  0  0  0  0  0  0
  143.3220   78.4300  219.5960 H   0  0  0  0  0  0  0  0  0  0  0  0
  141.2239   80.0327  220.9483 H   0  0  0  0  0  0  0  0  0  0  0  0
  143.1360   78.1500  221.0950 H   0  0  0  0  0  0  0  0  0  0  0  0
  139.1730   78.7243  221.2500 H   0  0  0  0  0  0  0  0  0  0  0  0
  139.6885   77.5677  223.2480 H   0  0  0  0  0  0  0  0  0  0  0  0
  141.1674   79.2609  224.8574 H   0  0  0  0  0  0  0  0  0  0  0  0
  141.8925   79.9047  223.6412 H   0  0  0  0  0  0  0  0  0  0  0  0
  138.7082   80.0401  224.2997 H   0  0  0  0  0  0  0  0  0  0  0  0
  138.9997   80.8176  222.9916 H   0  0  0  0  0  0  0  0  0  0  0  0
  139.1570   70.0520  222.4642 H   0  0  0  0  0  0  0  0  0  0  0  0
  138.7862   68.4118  224.2833 H   0  0  0  0  0  0  0  0  0  0  0  0
  139.1007   67.7697  226.6111 H   0  0  0  0  0  0  0  0  0  0  0  0
  140.0100   68.2622  228.8718 H   0  0  0  0  0  0  0  0  0  0  0  0
  141.2657   70.3819  229.2450 H   0  0  0  0  0  0  0  0  0  0  0  0
  141.6150   71.9975  227.3799 H   0  0  0  0  0  0  0  0  0  0  0  0
  1  2  2  0
  2  3  1  0
  3  4  1  0
  4  5  1  0
  5  6  2  0
  5  7  1  0
  7  8  1  0
  8  9  1  0
  9 10  1  0
  9 11  1  0
 11 12  1  0
 11 13  1  0
 13 14  1  0
 14 15  1  0
 15 16  1  0
  2 17  1  0
 17 18  2  0
 18 19  1  0
 19 20  2  0
 20 21  1  0
 21 22  2  0
 22 23  1  0
 23 24  2  0
 24 25  1  0
 25 26  2  0
 13  7  1  0
 16 14  1  0
 26 17  1  0
 25 20  1  0
  3 27  1  0
  4 28  1  0
  4 29  1  0
  8 30  1  0
  8 31  1  0
  9 32  1  6
 10 33  1  0
 11 34  1  6
 12 35  1  0
 13 36  1  6
 14 37  1  0
 15 38  1  0
 15 39  1  0
 16 40  1  0
 16 41  1  0
 18 42  1  0
 19 43  1  0
 21 44  1  0
 22 45  1  0
 23 46  1  0
 24 47  1  0
M  END
>  <smiles>  (29) 
O=C(NCC(=O)N1C[C@H](O)[C@H](O)[C@@H]1C1CC1)c1ccc2ccccc2n1

>  <score_type>  (29) 
oracle

>  <origin>  (29) 
autodockgpu

>  <m_score__min__energy>  (29) 
-8.4399999999999995

>  <m_primary>  (29) 
energy

>  <rmsd>  (29) 
2.8374722693306937

>  <m_score__min__rmsd>  (29) 
2.8374722693306937

>  <meeko>  (29) 
{"free_energy": -7.74, "intermolecular_energy": -9.83, "internal_energy": -2.41, "cluster_size": 9, "cluster_id": 3, "rank_in_cluster": 1}

>  <energy>  (29) 
-7.62

>  <cluster_rmsd>  (29) 
0.87

>  <cluster>  (29) 
2

$$$$

     RDKit          3D

 47 50  0  0  0  0  0  0  0  0999 V2000
  141.6680   71.9690  221.0500 O   0  0  0  0  0  0  0  0  0  0  0  0
  140.9640   72.8330  221.6540 C   0  0  0  0  0  0  0  0  0  0  0  0
  139.9630   72.4770  222.6040 N   0  0  0  0  0  0  0  0  0  0  0  0
  139.7660   71.0640  222.8690 C   0  0  0  0  0  0  0  0  0  0  0  0
  139.1390   70.8420  224.1920 C   0  0  0  0  0  0  0  0  0  0  0  0
  138.0990   71.4800  224.4590 O   0  0  0  0  0  0  0  0  0  0  0  0
  139.6440   69.9520  225.1760 N   0  0  0  0  0  0  0  0  0  0  0  0
  139.2530   68.5260  225.1650 C   0  0  0  0  0  0  0  0  0  0  0  0
  140.3430   67.8710  226.0340 C   0  0  2  0  0  0  0  0  0  0  0  0
  139.9520   66.6450  226.5030 O   0  0  0  0  0  0  0  0  0  0  0  0
  140.4360   68.9330  227.1130 C   0  0  2  0  0  0  0  0  0  0  0  0
  139.2300   68.8610  227.8070 O   0  0  0  0  0  0  0  0  0  0  0  0
  140.5480   70.1720  226.2790 C   0  0  2  0  0  0  0  0  0  0  0  0
  140.3270   71.4360  227.0410 C   0  0  0  0  0  0  0  0  0  0  0  0
  140.7920   71.6540  228.4090 C   0  0  0  0  0  0  0  0  0  0  0  0
  141.4780   72.3720  227.2420 C   0  0  0  0  0  0  0  0  0  0  0  0
  141.1840   74.2470  221.3660 C   0  0  0  0  0  0  0  0  0  0  0  0
  141.9820   74.6500  220.3200 C   0  0  0  0  0  0  0  0  0  0  0  0
  142.1890   75.9920  220.0490 C   0  0  0  0  0  0  0  0  0  0  0  0
  141.5860   76.9470  220.8420 C   0  0  0  0  0  0  0  0  0  0  0  0
  141.7640   78.2960  220.6090 C   0  0  0  0  0  0  0  0  0  0  0  0
  141.1530   79.2410  221.4120 C   0  0  0  0  0  0  0  0  0  0  0  0
  140.3500   78.8070  222.4650 C   0  0  0  0  0  0  0  0  0  0  0  0
  140.1580   77.4550  222.7150 C   0  0  0  0  0  0  0  0  0  0  0  0
  140.7930   76.5370  221.8820 C   0  0  0  0  0  0  0  0  0  0  0  0
  140.6170   75.2160  222.1110 N   0  0  0  0  0  0  0  0  0  0  0  0
  139.4200   73.2370  223.0620 H   0  0  0  0  0  0  0  0  0  0  0  0
  139.1149   70.6416  222.0895 H   0  0  0  0  0  0  0  0  0  0  0  0
  140.7499   70.5721  222.8665 H   0  0  0  0  0  0  0  0  0  0  0  0
  138.2554   68.3846  225.6062 H   0  0  0  0  0  0  0  0  0  0  0  0
  139.1853   68.0991  224.1535 H   0  0  0  0  0  0  0  0  0  0  0  0
  141.2943   67.6359  225.5342 H   0  0  0  0  0  0  0  0  0  0  0  0
  139.5850   66.6920  227.4210 H   0  0  0  0  0  0  0  0  0  0  0  0
  141.2503   68.8609  227.8490 H   0  0  0  0  0  0  0  0  0  0  0  0
  138.8840   67.9570  227.8850 H   0  0  0  0  0  0  0  0  0  0  0  0
  141.5730   70.3322  225.9133 H   0  0  0  0  0  0  0  0  0  0  0  0
  139.3265   71.4948  226.5875 H   0  0  0  0  0  0  0  0  0  0  0  0
  140.1715   72.2232  229.1168 H   0  0  0  0  0  0  0  0  0  0  0  0
  141.1300   71.0032  229.2289 H   0  0  0  0  0  0  0  0  0  0  0  0
  141.3459   73.4548  227.1000 H   0  0  0  0  0  0  0  0  0  0  0  0
  142.5057   72.4562  226.8589 H   0  0  0  0  0  0  0  0  0  0  0  0
  142.4649   73.8912  219.6867 H   0  0  0  0  0  0  0  0  0  0  0  0
  142.8296   76.2948  219.2076 H   0  0  0  0  0  0  0  0  0  0  0  0
  142.4003   78.6232  219.7735 H   0  0  0  0  0  0  0  0  0  0  0  0
  141.2979   80.3150  221.2234 H   0  0  0  0  0  0  0  0  0  0  0  0
  139.8588   79.5500  223.1105 H   0  0  0  0  0  0  0  0  0  0  0  0
  139.5224   77.1183  223.5473 H   0  0  0  0  0  0  0  0  0  0  0  0
  1  2  2  0
  2  3  1  0
  3  4  1  0
  4  5  1  0
  5  6  2  0
  5  7  1  0
  7  8  1  0
  8  9  1  0
  9 10  1  0
  9 11  1  0
 11 12  1  0
 11 13  1  0
 13 14  1  0
 14 15  1  0
 15 16  1  0
  2 17  1  0
 17 18  2  0
 18 19  1  0
 19 20  2  0
 20 21  1  0
 21 22  2  0
 22 23  1  0
 23 24  2  0
 24 25  1  0
 25 26  2  0
 13  7  1  0
 16 14  1  0
 26 17  1  0
 25 20  1  0
  3 27  1  0
  4 28  1  0
  4 29  1  0
  8 30  1  0
  8 31  1  0
  9 32  1  6
 10 33  1  0
 11 34  1  1
 12 35  1  0
 13 36  1  6
 14 37  1  0
 15 38  1  0
 15 39  1  0
 16 40  1  0
 16 41  1  0
 18 42  1  0
 19 43  1  0
 21 44  1  0
 22 45  1  0
 23 46  1  0
 24 47  1  0
M  END
>  <smiles>  (30) 
O=C(NCC(=O)N1C[C@H](O)[C@H](O)[C@@H]1C1CC1)c1ccc2ccccc2n1

>  <score_type>  (30) 
oracle

>  <origin>  (30) 
autodockgpu

>  <m_score__min__energy>  (30) 
-8.4399999999999995

>  <m_primary>  (30) 
energy

>  <rmsd>  (30) 
8.783084134338628

>  <m_score__min__rmsd>  (30) 
8.783084134338628

>  <meeko>  (30) 
{"free_energy": -7.6, "intermolecular_energy": -9.69, "internal_energy": -2.76, "cluster_size": 4, "cluster_id": 4, "rank_in_cluster": 3}

>  <energy>  (30) 
-7.56

>  <cluster_rmsd>  (30) 
0.84

>  <cluster>  (30) 
2

$$$$

     RDKit          3D

 47 50  0  0  0  0  0  0  0  0999 V2000
  139.1210   75.0430  222.1130 O   0  0  0  0  0  0  0  0  0  0  0  0
  140.2290   75.6570  222.0700 C   0  0  0  0  0  0  0  0  0  0  0  0
  141.4320   75.0370  221.6210 N   0  0  0  0  0  0  0  0  0  0  0  0
  141.3520   73.6490  221.2050 C   0  0  0  0  0  0  0  0  0  0  0  0
  142.1680   73.3980  219.9940 C   0  0  0  0  0  0  0  0  0  0  0  0
  141.6030   73.4810  218.8830 O   0  0  0  0  0  0  0  0  0  0  0  0
  143.5480   73.0700  220.0150 N   0  0  0  0  0  0  0  0  0  0  0  0
  144.5570   74.0980  220.3490 C   0  0  0  0  0  0  0  0  0  0  0  0
  145.7900   73.2530  220.7200 C   0  0  2  0  0  0  0  0  0  0  0  0
  146.9470   73.9840  220.6540 O   0  0  0  0  0  0  0  0  0  0  0  0
  145.6730   72.2010  219.6340 C   0  0  2  0  0  0  0  0  0  0  0  0
  145.9500   72.8670  218.4430 O   0  0  0  0  0  0  0  0  0  0  0  0
  144.2300   71.8220  219.7610 C   0  0  2  0  0  0  0  0  0  0  0  0
  143.7070   71.0340  218.6080 C   0  0  0  0  0  0  0  0  0  0  0  0
  143.8380   71.4480  217.2130 C   0  0  0  0  0  0  0  0  0  0  0  0
  144.6720   70.2790  217.7480 C   0  0  0  0  0  0  0  0  0  0  0  0
  140.2780   77.0520  222.4970 C   0  0  0  0  0  0  0  0  0  0  0  0
  139.1290   77.7800  222.7030 C   0  0  0  0  0  0  0  0  0  0  0  0
  139.1790   79.1030  223.1080 C   0  0  0  0  0  0  0  0  0  0  0  0
  140.4030   79.7080  223.3080 C   0  0  0  0  0  0  0  0  0  0  0  0
  140.5000   81.0250  223.7110 C   0  0  0  0  0  0  0  0  0  0  0  0
  141.7340   81.6160  223.9070 C   0  0  0  0  0  0  0  0  0  0  0  0
  142.8830   80.8580  223.6910 C   0  0  0  0  0  0  0  0  0  0  0  0
  142.8060   79.5330  223.2860 C   0  0  0  0  0  0  0  0  0  0  0  0
  141.5430   78.9760  223.0990 C   0  0  0  0  0  0  0  0  0  0  0  0
  141.4490   77.6860  222.7050 N   0  0  0  0  0  0  0  0  0  0  0  0
  142.3070   75.5990  221.6130 H   0  0  0  0  0  0  0  0  0  0  0  0
  141.7179   73.0093  222.0216 H   0  0  0  0  0  0  0  0  0  0  0  0
  140.3026   73.4192  220.9682 H   0  0  0  0  0  0  0  0  0  0  0  0
  144.7652   74.7453  219.4844 H   0  0  0  0  0  0  0  0  0  0  0  0
  144.2372   74.7797  221.1509 H   0  0  0  0  0  0  0  0  0  0  0  0
  145.8240   72.8567  221.7456 H   0  0  0  0  0  0  0  0  0  0  0  0
  147.1330   74.3140  219.7400 H   0  0  0  0  0  0  0  0  0  0  0  0
  146.3313   71.3213  219.6861 H   0  0  0  0  0  0  0  0  0  0  0  0
  146.2660   73.7760  218.5740 H   0  0  0  0  0  0  0  0  0  0  0  0
  144.0600   71.1121  220.5839 H   0  0  0  0  0  0  0  0  0  0  0  0
  142.8280   70.7849  219.2206 H   0  0  0  0  0  0  0  0  0  0  0  0
  143.0183   71.2599  216.5040 H   0  0  0  0  0  0  0  0  0  0  0  0
  144.0640   72.3946  216.7002 H   0  0  0  0  0  0  0  0  0  0  0  0
  144.4498   69.2480  217.4353 H   0  0  0  0  0  0  0  0  0  0  0  0
  145.7414   70.0253  217.7933 H   0  0  0  0  0  0  0  0  0  0  0  0
  138.1515   77.3016  222.5428 H   0  0  0  0  0  0  0  0  0  0  0  0
  138.2492   79.6681  223.2693 H   0  0  0  0  0  0  0  0  0  0  0  0
  139.5842   81.6110  223.8781 H   0  0  0  0  0  0  0  0  0  0  0  0
  141.8076   82.6656  224.2277 H   0  0  0  0  0  0  0  0  0  0  0  0
  143.8700   81.3187  223.8444 H   0  0  0  0  0  0  0  0  0  0  0  0
  143.7166   78.9393  223.1174 H   0  0  0  0  0  0  0  0  0  0  0  0
  1  2  2  0
  2  3  1  0
  3  4  1  0
  4  5  1  0
  5  6  2  0
  5  7  1  0
  7  8  1  0
  8  9  1  0
  9 10  1  0
  9 11  1  0
 11 12  1  0
 11 13  1  0
 13 14  1  0
 14 15  1  0
 15 16  1  0
  2 17  1  0
 17 18  2  0
 18 19  1  0
 19 20  2  0
 20 21  1  0
 21 22  2  0
 22 23  1  0
 23 24  2  0
 24 25  1  0
 25 26  2  0
 13  7  1  0
 16 14  1  0
 26 17  1  0
 25 20  1  0
  3 27  1  0
  4 28  1  0
  4 29  1  0
  8 30  1  0
  8 31  1  0
  9 32  1  1
 10 33  1  0
 11 34  1  1
 12 35  1  0
 13 36  1  1
 14 37  1  0
 15 38  1  0
 15 39  1  0
 16 40  1  0
 16 41  1  0
 18 42  1  0
 19 43  1  0
 21 44  1  0
 22 45  1  0
 23 46  1  0
 24 47  1  0
M  END
>  <smiles>  (31) 
O=C(NCC(=O)N1C[C@H](O)[C@H](O)[C@@H]1C1CC1)c1ccc2ccccc2n1

>  <score_type>  (31) 
oracle

>  <origin>  (31) 
autodockgpu

>  <m_score__min__energy>  (31) 
-8.4399999999999995

>  <m_primary>  (31) 
energy

>  <rmsd>  (31) 
7.869694996080766

>  <m_score__min__rmsd>  (31) 
7.869694996080766

>  <meeko>  (31) 
{"free_energy": -7.46, "intermolecular_energy": -9.55, "internal_energy": -2.4, "cluster_size": 7, "cluster_id": 2, "rank_in_cluster": 6}

>  <energy>  (31) 
-7.46

>  <cluster_rmsd>  (31) 
0.38

>  <cluster>  (31) 
2

$$$$

     RDKit          3D

 47 50  0  0  0  0  0  0  0  0999 V2000
  141.5620   72.1230  220.9100 O   0  0  0  0  0  0  0  0  0  0  0  0
  140.8900   72.9580  221.5860 C   0  0  0  0  0  0  0  0  0  0  0  0
  139.9410   72.5590  222.5720 N   0  0  0  0  0  0  0  0  0  0  0  0
  139.7590   71.1350  222.7840 C   0  0  0  0  0  0  0  0  0  0  0  0
  139.1020   70.8600  224.0830 C   0  0  0  0  0  0  0  0  0  0  0  0
  138.0210   71.4390  224.3240 O   0  0  0  0  0  0  0  0  0  0  0  0
  139.6200   69.9820  225.0700 N   0  0  0  0  0  0  0  0  0  0  0  0
  139.2210   68.5580  225.0890 C   0  0  0  0  0  0  0  0  0  0  0  0
  140.3240   67.9100  225.9470 C   0  0  2  0  0  0  0  0  0  0  0  0
  139.9350   66.6930  226.4420 O   0  0  0  0  0  0  0  0  0  0  0  0
  140.4440   68.9880  227.0070 C   0  0  2  0  0  0  0  0  0  0  0  0
  139.2510   68.9330  227.7250 O   0  0  0  0  0  0  0  0  0  0  0  0
  140.5470   70.2140  226.1530 C   0  0  2  0  0  0  0  0  0  0  0  0
  140.3470   71.4900  226.9000 C   0  0  0  0  0  0  0  0  0  0  0  0
  140.6660   71.6640  228.3150 C   0  0  0  0  0  0  0  0  0  0  0  0
  141.5420   72.3230  227.2450 C   0  0  0  0  0  0  0  0  0  0  0  0
  141.0950   74.3840  221.3500 C   0  0  0  0  0  0  0  0  0  0  0  0
  141.9480   74.8320  220.3680 C   0  0  0  0  0  0  0  0  0  0  0  0
  142.1400   76.1850  220.1450 C   0  0  0  0  0  0  0  0  0  0  0  0
  141.4660   77.1060  220.9220 C   0  0  0  0  0  0  0  0  0  0  0  0
  141.6270   78.4640  220.7360 C   0  0  0  0  0  0  0  0  0  0  0  0
  140.9440   79.3730  221.5220 C   0  0  0  0  0  0  0  0  0  0  0  0
  140.0870   78.8930  222.5100 C   0  0  0  0  0  0  0  0  0  0  0  0
  139.9110   77.5320  222.7120 C   0  0  0  0  0  0  0  0  0  0  0  0
  140.6190   76.6500  221.8990 C   0  0  0  0  0  0  0  0  0  0  0  0
  140.4600   75.3200  222.0810 N   0  0  0  0  0  0  0  0  0  0  0  0
  139.4230   73.2970  223.0910 H   0  0  0  0  0  0  0  0  0  0  0  0
  139.1342   70.7299  221.9744 H   0  0  0  0  0  0  0  0  0  0  0  0
  140.7498   70.6571  222.7899 H   0  0  0  0  0  0  0  0  0  0  0  0
  138.2313   68.4293  225.5516 H   0  0  0  0  0  0  0  0  0  0  0  0
  139.1314   68.1159  224.0858 H   0  0  0  0  0  0  0  0  0  0  0  0
  141.2644   67.6616  225.4332 H   0  0  0  0  0  0  0  0  0  0  0  0
  139.5960   66.7550  227.3690 H   0  0  0  0  0  0  0  0  0  0  0  0
  141.2724   68.9227  227.7278 H   0  0  0  0  0  0  0  0  0  0  0  0
  138.8680   68.0420  227.7680 H   0  0  0  0  0  0  0  0  0  0  0  0
  141.5657   70.3636  225.7658 H   0  0  0  0  0  0  0  0  0  0  0  0
  139.4149   71.6355  226.3343 H   0  0  0  0  0  0  0  0  0  0  0  0
  140.0178   72.2828  228.9530 H   0  0  0  0  0  0  0  0  0  0  0  0
  140.8493   70.9846  229.1605 H   0  0  0  0  0  0  0  0  0  0  0  0
  141.5201   73.4135  227.1021 H   0  0  0  0  0  0  0  0  0  0  0  0
  142.6108   72.3194  226.9850 H   0  0  0  0  0  0  0  0  0  0  0  0
  142.4879   74.1012  219.7480 H   0  0  0  0  0  0  0  0  0  0  0  0
  142.8251   76.5239  219.3539 H   0  0  0  0  0  0  0  0  0  0  0  0
  142.3076   78.8277  219.9521 H   0  0  0  0  0  0  0  0  0  0  0  0
  141.0746   80.4546  221.3704 H   0  0  0  0  0  0  0  0  0  0  0  0
  139.5392   79.6073  223.1422 H   0  0  0  0  0  0  0  0  0  0  0  0
  139.2312   77.1596  223.4925 H   0  0  0  0  0  0  0  0  0  0  0  0
  1  2  2  0
  2  3  1  0
  3  4  1  0
  4  5  1  0
  5  6  2  0
  5  7  1  0
  7  8  1  0
  8  9  1  0
  9 10  1  0
  9 11  1  0
 11 12  1  0
 11 13  1  0
 13 14  1  0
 14 15  1  0
 15 16  1  0
  2 17  1  0
 17 18  2  0
 18 19  1  0
 19 20  2  0
 20 21  1  0
 21 22  2  0
 22 23  1  0
 23 24  2  0
 24 25  1  0
 25 26  2  0
 13  7  1  0
 16 14  1  0
 26 17  1  0
 25 20  1  0
  3 27  1  0
  4 28  1  0
  4 29  1  0
  8 30  1  0
  8 31  1  0
  9 32  1  6
 10 33  1  0
 11 34  1  1
 12 35  1  0
 13 36  1  6
 14 37  1  0
 15 38  1  0
 15 39  1  0
 16 40  1  0
 16 41  1  0
 18 42  1  0
 19 43  1  0
 21 44  1  0
 22 45  1  0
 23 46  1  0
 24 47  1  0
M  END
>  <smiles>  (32) 
O=C(NCC(=O)N1C[C@H](O)[C@H](O)[C@@H]1C1CC1)c1ccc2ccccc2n1

>  <score_type>  (32) 
oracle

>  <origin>  (32) 
autodockgpu

>  <m_score__min__energy>  (32) 
-8.4399999999999995

>  <m_primary>  (32) 
energy

>  <rmsd>  (32) 
8.761017913111555

>  <m_score__min__rmsd>  (32) 
8.761017913111555

>  <meeko>  (32) 
{"free_energy": -7.68, "intermolecular_energy": -9.77, "internal_energy": -2.75, "cluster_size": 4, "cluster_id": 4, "rank_in_cluster": 1}

>  <energy>  (32) 
-7.32

>  <cluster_rmsd>  (32) 
0.81

>  <cluster>  (32) 
2

$$$$

     RDKit          3D

 47 50  0  0  0  0  0  0  0  0999 V2000
  141.0400   71.3760  221.3270 O   0  0  0  0  0  0  0  0  0  0  0  0
  140.4810   71.9840  222.2880 C   0  0  0  0  0  0  0  0  0  0  0  0
  140.0330   73.3340  222.1840 N   0  0  0  0  0  0  0  0  0  0  0  0
  140.2410   74.0090  220.9170 C   0  0  0  0  0  0  0  0  0  0  0  0
  141.6040   74.5840  220.8260 C   0  0  0  0  0  0  0  0  0  0  0  0
  141.8180   75.6700  221.4040 O   0  0  0  0  0  0  0  0  0  0  0  0
  142.6790   73.9810  220.1240 N   0  0  0  0  0  0  0  0  0  0  0  0
  144.0780   74.3220  220.4630 C   0  0  0  0  0  0  0  0  0  0  0  0
  144.8690   73.1510  219.8500 C   0  0  2  0  0  0  0  0  0  0  0  0
  146.1910   73.4650  219.6760 O   0  0  0  0  0  0  0  0  0  0  0  0
  144.0990   73.0200  218.5500 C   0  0  2  0  0  0  0  0  0  0  0  0
  144.4000   74.1700  217.8240 O   0  0  0  0  0  0  0  0  0  0  0  0
  142.6890   73.0090  219.0560 C   0  0  2  0  0  0  0  0  0  0  0  0
  141.6630   73.2200  217.9940 C   0  0  0  0  0  0  0  0  0  0  0  0
  141.5800   72.4220  216.7730 C   0  0  0  0  0  0  0  0  0  0  0  0
  140.5310   72.2480  217.8760 C   0  0  0  0  0  0  0  0  0  0  0  0
  140.2860   71.2780  223.5510 C   0  0  0  0  0  0  0  0  0  0  0  0
  139.6700   70.0490  223.5980 C   0  0  0  0  0  0  0  0  0  0  0  0
  139.4870   69.3820  224.7970 C   0  0  0  0  0  0  0  0  0  0  0  0
  139.9290   69.9570  225.9710 C   0  0  0  0  0  0  0  0  0  0  0  0
  139.7680   69.3280  227.1890 C   0  0  0  0  0  0  0  0  0  0  0  0
  140.2170   69.9180  228.3560 C   0  0  0  0  0  0  0  0  0  0  0  0
  140.8380   71.1630  228.2820 C   0  0  0  0  0  0  0  0  0  0  0  0
  141.0100   71.8110  227.0660 C   0  0  0  0  0  0  0  0  0  0  0  0
  140.5420   71.1820  225.9150 C   0  0  0  0  0  0  0  0  0  0  0  0
  140.7010   71.7990  224.7220 N   0  0  0  0  0  0  0  0  0  0  0  0
  139.5830   73.7730  223.0120 H   0  0  0  0  0  0  0  0  0  0  0  0
  140.1027   73.2859  220.0997 H   0  0  0  0  0  0  0  0  0  0  0  0
  139.5136   74.8306  220.8398 H   0  0  0  0  0  0  0  0  0  0  0  0
  144.3736   75.2803  220.0109 H   0  0  0  0  0  0  0  0  0  0  0  0
  144.2480   74.4464  221.5426 H   0  0  0  0  0  0  0  0  0  0  0  0
  144.9263   72.2296  220.4482 H   0  0  0  0  0  0  0  0  0  0  0  0
  146.3280   74.1330  218.9580 H   0  0  0  0  0  0  0  0  0  0  0  0
  144.3072   72.1537  217.9049 H   0  0  0  0  0  0  0  0  0  0  0  0
  145.1710   74.6500  218.1660 H   0  0  0  0  0  0  0  0  0  0  0  0
  142.3919   72.0181  219.4300 H   0  0  0  0  0  0  0  0  0  0  0  0
  141.7645   74.3029  218.1581 H   0  0  0  0  0  0  0  0  0  0  0  0
  141.3037   72.8996  215.8214 H   0  0  0  0  0  0  0  0  0  0  0  0
  142.2636   71.7480  216.2360 H   0  0  0  0  0  0  0  0  0  0  0  0
  139.5022   72.6076  217.7271 H   0  0  0  0  0  0  0  0  0  0  0  0
  140.1422   71.4100  218.4731 H   0  0  0  0  0  0  0  0  0  0  0  0
  139.3159   69.5872  222.6645 H   0  0  0  0  0  0  0  0  0  0  0  0
  138.9923   68.3997  224.8139 H   0  0  0  0  0  0  0  0  0  0  0  0
  139.2763   68.3449  227.2318 H   0  0  0  0  0  0  0  0  0  0  0  0
  140.0863   69.4138  229.3249 H   0  0  0  0  0  0  0  0  0  0  0  0
  141.1989   71.6417  229.2043 H   0  0  0  0  0  0  0  0  0  0  0  0
  141.5020   72.7934  227.0133 H   0  0  0  0  0  0  0  0  0  0  0  0
  1  2  2  0
  2  3  1  0
  3  4  1  0
  4  5  1  0
  5  6  2  0
  5  7  1  0
  7  8  1  0
  8  9  1  0
  9 10  1  0
  9 11  1  0
 11 12  1  0
 11 13  1  0
 13 14  1  0
 14 15  1  0
 15 16  1  0
  2 17  1  0
 17 18  2  0
 18 19  1  0
 19 20  2  0
 20 21  1  0
 21 22  2  0
 22 23  1  0
 23 24  2  0
 24 25  1  0
 25 26  2  0
 13  7  1  0
 16 14  1  0
 26 17  1  0
 25 20  1  0
  3 27  1  0
  4 28  1  0
  4 29  1  0
  8 30  1  0
  8 31  1  0
  9 32  1  1
 10 33  1  0
 11 34  1  6
 12 35  1  0
 13 36  1  1
 14 37  1  0
 15 38  1  0
 15 39  1  0
 16 40  1  0
 16 41  1  0
 18 42  1  0
 19 43  1  0
 21 44  1  0
 22 45  1  0
 23 46  1  0
 24 47  1  0
M  END
>  <smiles>  (33) 
O=C(NCC(=O)N1C[C@H](O)[C@H](O)[C@@H]1C1CC1)c1ccc2ccccc2n1

>  <score_type>  (33) 
oracle

>  <origin>  (33) 
autodockgpu

>  <m_score__min__energy>  (33) 
-8.4399999999999995

>  <m_primary>  (33) 
energy

>  <rmsd>  (33) 
3.1036080165607713

>  <m_score__min__rmsd>  (33) 
3.1036080165607713

>  <meeko>  (33) 
{"free_energy": -7.02, "intermolecular_energy": -9.1, "internal_energy": -2.65, "cluster_size": 25, "cluster_id": 1, "rank_in_cluster": 25}

>  <energy>  (33) 
-7.74

>  <cluster_rmsd>  (33) 
0.0

>  <cluster>  (33) 
3

$$$$

     RDKit          3D

 47 50  0  0  0  0  0  0  0  0999 V2000
  141.5650   72.1400  220.9300 O   0  0  0  0  0  0  0  0  0  0  0  0
  140.8720   72.9560  221.6070 C   0  0  0  0  0  0  0  0  0  0  0  0
  139.9240   72.5320  222.5830 N   0  0  0  0  0  0  0  0  0  0  0  0
  139.7710   71.1030  222.7870 C   0  0  0  0  0  0  0  0  0  0  0  0
  139.0960   70.8070  224.0720 C   0  0  0  0  0  0  0  0  0  0  0  0
  137.9950   71.3550  224.2920 O   0  0  0  0  0  0  0  0  0  0  0  0
  139.6200   69.9440  225.0680 N   0  0  0  0  0  0  0  0  0  0  0  0
  139.2240   68.5190  225.1060 C   0  0  0  0  0  0  0  0  0  0  0  0
  140.3320   67.8840  225.9690 C   0  0  2  0  0  0  0  0  0  0  0  0
  139.9480   66.6730  226.4800 O   0  0  0  0  0  0  0  0  0  0  0  0
  140.4510   68.9760  227.0150 C   0  0  2  0  0  0  0  0  0  0  0  0
  139.2610   68.9270  227.7370 O   0  0  0  0  0  0  0  0  0  0  0  0
  140.5490   70.1910  226.1450 C   0  0  2  0  0  0  0  0  0  0  0  0
  140.3480   71.4760  226.8770 C   0  0  0  0  0  0  0  0  0  0  0  0
  140.6430   71.6600  228.2960 C   0  0  0  0  0  0  0  0  0  0  0  0
  141.5450   72.3000  227.2360 C   0  0  0  0  0  0  0  0  0  0  0  0
  141.0480   74.3870  221.3790 C   0  0  0  0  0  0  0  0  0  0  0  0
  141.9240   74.8600  220.4290 C   0  0  0  0  0  0  0  0  0  0  0  0
  142.0890   76.2180  220.2160 C   0  0  0  0  0  0  0  0  0  0  0  0
  141.3630   77.1190  220.9680 C   0  0  0  0  0  0  0  0  0  0  0  0
  141.4950   78.4810  220.7890 C   0  0  0  0  0  0  0  0  0  0  0  0
  140.7600   79.3700  221.5510 C   0  0  0  0  0  0  0  0  0  0  0  0
  139.8800   78.8670  222.5050 C   0  0  0  0  0  0  0  0  0  0  0  0
  139.7320   77.5010  222.7000 C   0  0  0  0  0  0  0  0  0  0  0  0
  140.4920   76.6390  221.9120 C   0  0  0  0  0  0  0  0  0  0  0  0
  140.3620   75.3060  222.0880 N   0  0  0  0  0  0  0  0  0  0  0  0
  139.3870   73.2560  223.1020 H   0  0  0  0  0  0  0  0  0  0  0  0
  139.1714   70.6867  221.9641 H   0  0  0  0  0  0  0  0  0  0  0  0
  140.7725   70.6487  222.8107 H   0  0  0  0  0  0  0  0  0  0  0  0
  138.2361   68.3939  225.5734 H   0  0  0  0  0  0  0  0  0  0  0  0
  139.1320   68.0641  224.1087 H   0  0  0  0  0  0  0  0  0  0  0  0
  141.2716   67.6314  225.4559 H   0  0  0  0  0  0  0  0  0  0  0  0
  139.6050   66.7460  227.4050 H   0  0  0  0  0  0  0  0  0  0  0  0
  141.2811   68.9222  227.7348 H   0  0  0  0  0  0  0  0  0  0  0  0
  138.8830   68.0350  227.7960 H   0  0  0  0  0  0  0  0  0  0  0  0
  141.5662   70.3374  225.7527 H   0  0  0  0  0  0  0  0  0  0  0  0
  139.4277   71.6255  226.2933 H   0  0  0  0  0  0  0  0  0  0  0  0
  139.9898   72.2913  228.9163 H   0  0  0  0  0  0  0  0  0  0  0  0
  140.8040   70.9868  229.1509 H   0  0  0  0  0  0  0  0  0  0  0  0
  141.5369   73.3892  227.0827 H   0  0  0  0  0  0  0  0  0  0  0  0
  142.6183   72.2831  226.9955 H   0  0  0  0  0  0  0  0  0  0  0  0
  142.5044   74.1452  219.8271 H   0  0  0  0  0  0  0  0  0  0  0  0
  142.7945   76.5766  219.4520 H   0  0  0  0  0  0  0  0  0  0  0  0
  142.1937   78.8640  220.0306 H   0  0  0  0  0  0  0  0  0  0  0  0
  140.8686   80.4550  221.4060 H   0  0  0  0  0  0  0  0  0  0  0  0
  139.2903   79.5660  223.1164 H   0  0  0  0  0  0  0  0  0  0  0  0
  139.0344   77.1098  223.4552 H   0  0  0  0  0  0  0  0  0  0  0  0
  1  2  2  0
  2  3  1  0
  3  4  1  0
  4  5  1  0
  5  6  2  0
  5  7  1  0
  7  8  1  0
  8  9  1  0
  9 10  1  0
  9 11  1  0
 11 12  1  0
 11 13  1  0
 13 14  1  0
 14 15  1  0
 15 16  1  0
  2 17  1  0
 17 18  2  0
 18 19  1  0
 19 20  2  0
 20 21  1  0
 21 22  2  0
 22 23  1  0
 23 24  2  0
 24 25  1  0
 25 26  2  0
 13  7  1  0
 16 14  1  0
 26 17  1  0
 25 20  1  0
  3 27  1  0
  4 28  1  0
  4 29  1  0
  8 30  1  0
  8 31  1  0
  9 32  1  6
 10 33  1  0
 11 34  1  1
 12 35  1  0
 13 36  1  6
 14 37  1  0
 15 38  1  0
 15 39  1  0
 16 40  1  0
 16 41  1  0
 18 42  1  0
 19 43  1  0
 21 44  1  0
 22 45  1  0
 23 46  1  0
 24 47  1  0
M  END
>  <smiles>  (34) 
O=C(NCC(=O)N1C[C@H](O)[C@H](O)[C@@H]1C1CC1)c1ccc2ccccc2n1

>  <score_type>  (34) 
oracle

>  <origin>  (34) 
autodockgpu

>  <m_score__min__energy>  (34) 
-8.4399999999999995

>  <m_primary>  (34) 
energy

>  <rmsd>  (34) 
8.766607114130332

>  <m_score__min__rmsd>  (34) 
8.766607114130332

>  <meeko>  (34) 
{"free_energy": -7.67, "intermolecular_energy": -9.76, "internal_energy": -2.75, "cluster_size": 4, "cluster_id": 4, "rank_in_cluster": 2}

>  <energy>  (34) 
-7.67

>  <cluster_rmsd>  (34) 
0.22

>  <cluster>  (34) 
3

$$$$

     RDKit          3D

 47 50  0  0  0  0  0  0  0  0999 V2000
  139.4920   70.7310  221.1450 O   0  0  0  0  0  0  0  0  0  0  0  0
  140.0680   71.3740  222.0720 C   0  0  0  0  0  0  0  0  0  0  0  0
  140.8150   72.5650  221.8310 N   0  0  0  0  0  0  0  0  0  0  0  0
  140.8990   73.0320  220.4600 C   0  0  0  0  0  0  0  0  0  0  0  0
  141.9590   72.3210  219.7080 C   0  0  0  0  0  0  0  0  0  0  0  0
  141.6060   71.5450  218.7950 O   0  0  0  0  0  0  0  0  0  0  0  0
  143.3480   72.4640  219.9590 N   0  0  0  0  0  0  0  0  0  0  0  0
  143.9250   73.7970  220.2370 C   0  0  0  0  0  0  0  0  0  0  0  0
  145.2720   73.4510  220.9000 C   0  0  2  0  0  0  0  0  0  0  0  0
  146.1460   74.5040  220.8570 O   0  0  0  0  0  0  0  0  0  0  0  0
  145.6690   72.2930  220.0050 C   0  0  2  0  0  0  0  0  0  0  0  0
  145.9350   72.8630  218.7610 O   0  0  0  0  0  0  0  0  0  0  0  0
  144.4090   71.4850  220.0110 C   0  0  2  0  0  0  0  0  0  0  0  0
  144.3580   70.4350  218.9530 C   0  0  0  0  0  0  0  0  0  0  0  0
  145.3250   69.3460  218.8390 C   0  0  0  0  0  0  0  0  0  0  0  0
  143.8990   69.0580  219.3190 C   0  0  0  0  0  0  0  0  0  0  0  0
  139.9660   70.8790  223.4420 C   0  0  0  0  0  0  0  0  0  0  0  0
  139.2910   69.7160  223.7350 C   0  0  0  0  0  0  0  0  0  0  0  0
  139.1960   69.2490  225.0350 C   0  0  0  0  0  0  0  0  0  0  0  0
  139.7880   69.9600  226.0590 C   0  0  0  0  0  0  0  0  0  0  0  0
  139.7180   69.5310  227.3700 C   0  0  0  0  0  0  0  0  0  0  0  0
  140.3160   70.2550  228.3840 C   0  0  0  0  0  0  0  0  0  0  0  0
  140.9940   71.4290  228.0610 C   0  0  0  0  0  0  0  0  0  0  0  0
  141.0750   71.8760  226.7500 C   0  0  0  0  0  0  0  0  0  0  0  0
  140.4580   71.1170  225.7580 C   0  0  0  0  0  0  0  0  0  0  0  0
  140.5270   71.5370  224.4750 N   0  0  0  0  0  0  0  0  0  0  0  0
  141.2640   73.0420  222.6380 H   0  0  0  0  0  0  0  0  0  0  0  0
  139.9323   72.8601  219.9640 H   0  0  0  0  0  0  0  0  0  0  0  0
  141.1464   74.1037  220.4751 H   0  0  0  0  0  0  0  0  0  0  0  0
  144.0748   74.3661  219.3077 H   0  0  0  0  0  0  0  0  0  0  0  0
  143.2797   74.4301  220.8637 H   0  0  0  0  0  0  0  0  0  0  0  0
  145.2456   73.2161  221.9743 H   0  0  0  0  0  0  0  0  0  0  0  0
  146.6310   74.5570  219.9960 H   0  0  0  0  0  0  0  0  0  0  0  0
  146.5421   71.6878  220.2903 H   0  0  0  0  0  0  0  0  0  0  0  0
  146.0310   73.8280  218.7920 H   0  0  0  0  0  0  0  0  0  0  0  0
  144.3207   70.8652  220.9155 H   0  0  0  0  0  0  0  0  0  0  0  0
  144.0424   71.2140  218.2433 H   0  0  0  0  0  0  0  0  0  0  0  0
  145.6514   69.0018  217.8465 H   0  0  0  0  0  0  0  0  0  0  0  0
  146.3329   69.1558  219.2363 H   0  0  0  0  0  0  0  0  0  0  0  0
  143.1929   68.5166  218.6722 H   0  0  0  0  0  0  0  0  0  0  0  0
  143.4411   68.5846  220.2000 H   0  0  0  0  0  0  0  0  0  0  0  0
  138.8181   69.1468  222.9211 H   0  0  0  0  0  0  0  0  0  0  0  0
  138.6522   68.3173  225.2502 H   0  0  0  0  0  0  0  0  0  0  0  0
  139.1799   68.6021  227.6099 H   0  0  0  0  0  0  0  0  0  0  0  0
  140.2579   69.9109  229.4272 H   0  0  0  0  0  0  0  0  0  0  0  0
  141.4740   72.0123  228.8606 H   0  0  0  0  0  0  0  0  0  0  0  0
  141.6113   72.8036  226.5009 H   0  0  0  0  0  0  0  0  0  0  0  0
  1  2  2  0
  2  3  1  0
  3  4  1  0
  4  5  1  0
  5  6  2  0
  5  7  1  0
  7  8  1  0
  8  9  1  0
  9 10  1  0
  9 11  1  0
 11 12  1  0
 11 13  1  0
 13 14  1  0
 14 15  1  0
 15 16  1  0
  2 17  1  0
 17 18  2  0
 18 19  1  0
 19 20  2  0
 20 21  1  0
 21 22  2  0
 22 23  1  0
 23 24  2  0
 24 25  1  0
 25 26  2  0
 13  7  1  0
 16 14  1  0
 26 17  1  0
 25 20  1  0
  3 27  1  0
  4 28  1  0
  4 29  1  0
  8 30  1  0
  8 31  1  0
  9 32  1  1
 10 33  1  0
 11 34  1  1
 12 35  1  0
 13 36  1  1
 14 37  1  0
 15 38  1  0
 15 39  1  0
 16 40  1  0
 16 41  1  0
 18 42  1  0
 19 43  1  0
 21 44  1  0
 22 45  1  0
 23 46  1  0
 24 47  1  0
M  END
>  <smiles>  (35) 
O=C(NCC(=O)N1C[C@H](O)[C@H](O)[C@@H]1C1CC1)c1ccc2ccccc2n1

>  <score_type>  (35) 
oracle

>  <origin>  (35) 
autodockgpu

>  <m_score__min__energy>  (35) 
-8.4399999999999995

>  <m_primary>  (35) 
energy

>  <rmsd>  (35) 
3.9793459743728383

>  <m_score__min__rmsd>  (35) 
3.9793459743728383

>  <meeko>  (35) 
{"free_energy": -7.54, "intermolecular_energy": -9.63, "internal_energy": -2.72, "cluster_size": 25, "cluster_id": 1, "rank_in_cluster": 17}

>  <energy>  (35) 
-7.53

>  <cluster_rmsd>  (35) 
0.42

>  <cluster>  (35) 
3

$$$$

     RDKit          3D

 47 50  0  0  0  0  0  0  0  0999 V2000
  140.8580   71.4410  221.3220 O   0  0  0  0  0  0  0  0  0  0  0  0
  140.3680   72.0280  222.3320 C   0  0  0  0  0  0  0  0  0  0  0  0
  139.9510   73.3920  222.2990 N   0  0  0  0  0  0  0  0  0  0  0  0
  140.1090   74.1070  221.0460 C   0  0  0  0  0  0  0  0  0  0  0  0
  140.9610   75.3070  221.2100 C   0  0  0  0  0  0  0  0  0  0  0  0
  140.8210   75.9840  222.2510 O   0  0  0  0  0  0  0  0  0  0  0  0
  141.9250   75.7380  220.2630 N   0  0  0  0  0  0  0  0  0  0  0  0
  141.5720   76.7500  219.2440 C   0  0  0  0  0  0  0  0  0  0  0  0
  142.9510   77.2570  218.7790 C   0  0  2  0  0  0  0  0  0  0  0  0
  142.8800   77.8800  217.5620 O   0  0  0  0  0  0  0  0  0  0  0  0
  143.6750   75.9250  218.7390 C   0  0  2  0  0  0  0  0  0  0  0  0
  143.0960   75.2210  217.6840 O   0  0  0  0  0  0  0  0  0  0  0  0
  143.3070   75.3620  220.0770 C   0  0  2  0  0  0  0  0  0  0  0  0
  143.5950   73.9060  220.2220 C   0  0  0  0  0  0  0  0  0  0  0  0
  144.5580   73.1800  219.3960 C   0  0  0  0  0  0  0  0  0  0  0  0
  144.8800   73.4810  220.8640 C   0  0  0  0  0  0  0  0  0  0  0  0
  140.2230   71.2830  223.5780 C   0  0  0  0  0  0  0  0  0  0  0  0
  139.6170   70.0480  223.6090 C   0  0  0  0  0  0  0  0  0  0  0  0
  139.4810   69.3430  224.7930 C   0  0  0  0  0  0  0  0  0  0  0  0
  139.9600   69.8860  225.9680 C   0  0  0  0  0  0  0  0  0  0  0  0
  139.8460   69.2190  227.1710 C   0  0  0  0  0  0  0  0  0  0  0  0
  140.3320   69.7770  228.3390 C   0  0  0  0  0  0  0  0  0  0  0  0
  140.9410   71.0280  228.2820 C   0  0  0  0  0  0  0  0  0  0  0  0
  141.0660   71.7140  227.0820 C   0  0  0  0  0  0  0  0  0  0  0  0
  140.5630   71.1180  225.9280 C   0  0  0  0  0  0  0  0  0  0  0  0
  140.6750   71.7710  224.7510 N   0  0  0  0  0  0  0  0  0  0  0  0
  139.5580   73.8120  223.1650 H   0  0  0  0  0  0  0  0  0  0  0  0
  140.5738   73.4367  220.3080 H   0  0  0  0  0  0  0  0  0  0  0  0
  139.1147   74.4332  220.7069 H   0  0  0  0  0  0  0  0  0  0  0  0
  141.0144   76.2967  218.4111 H   0  0  0  0  0  0  0  0  0  0  0  0
  140.9202   77.5482  219.6287 H   0  0  0  0  0  0  0  0  0  0  0  0
  143.4298   78.0244  219.4050 H   0  0  0  0  0  0  0  0  0  0  0  0
  143.0730   77.2650  216.8110 H   0  0  0  0  0  0  0  0  0  0  0  0
  144.7639   75.9275  218.5829 H   0  0  0  0  0  0  0  0  0  0  0  0
  142.5490   75.7760  217.1050 H   0  0  0  0  0  0  0  0  0  0  0  0
  143.9327   75.7727  220.8831 H   0  0  0  0  0  0  0  0  0  0  0  0
  142.5231   73.7473  220.4113 H   0  0  0  0  0  0  0  0  0  0  0  0
  144.3442   72.1483  219.0801 H   0  0  0  0  0  0  0  0  0  0  0  0
  145.0581   73.3705  218.4350 H   0  0  0  0  0  0  0  0  0  0  0  0
  144.8888   72.6717  221.6089 H   0  0  0  0  0  0  0  0  0  0  0  0
  145.6950   73.9796  221.4092 H   0  0  0  0  0  0  0  0  0  0  0  0
  139.2331   69.6122  222.6748 H   0  0  0  0  0  0  0  0  0  0  0  0
  138.9943   68.3565  224.7971 H   0  0  0  0  0  0  0  0  0  0  0  0
  139.3625   68.2314  227.2009 H   0  0  0  0  0  0  0  0  0  0  0  0
  140.2393   69.2424  229.2959 H   0  0  0  0  0  0  0  0  0  0  0  0
  141.3304   71.4811  229.2056 H   0  0  0  0  0  0  0  0  0  0  0  0
  141.5491   72.7015  227.0434 H   0  0  0  0  0  0  0  0  0  0  0  0
  1  2  2  0
  2  3  1  0
  3  4  1  0
  4  5  1  0
  5  6  2  0
  5  7  1  0
  7  8  1  0
  8  9  1  0
  9 10  1  0
  9 11  1  0
 11 12  1  0
 11 13  1  0
 13 14  1  0
 14 15  1  0
 15 16  1  0
  2 17  1  0
 17 18  2  0
 18 19  1  0
 19 20  2  0
 20 21  1  0
 21 22  2  0
 22 23  1  0
 23 24  2  0
 24 25  1  0
 25 26  2  0
 13  7  1  0
 16 14  1  0
 26 17  1  0
 25 20  1  0
  3 27  1  0
  4 28  1  0
  4 29  1  0
  8 30  1  0
  8 31  1  0
  9 32  1  1
 10 33  1  0
 11 34  1  6
 12 35  1  0
 13 36  1  1
 14 37  1  0
 15 38  1  0
 15 39  1  0
 16 40  1  0
 16 41  1  0
 18 42  1  0
 19 43  1  0
 21 44  1  0
 22 45  1  0
 23 46  1  0
 24 47  1  0
M  END
>  <smiles>  (36) 
O=C(NCC(=O)N1C[C@H](O)[C@H](O)[C@@H]1C1CC1)c1ccc2ccccc2n1

>  <score_type>  (36) 
oracle

>  <origin>  (36) 
autodockgpu

>  <m_score__min__energy>  (36) 
-8.4399999999999995

>  <m_primary>  (36) 
energy

>  <rmsd>  (36) 
2.247332898780423

>  <m_score__min__rmsd>  (36) 
2.247332898780423

>  <meeko>  (36) 
{"free_energy": -6.98, "intermolecular_energy": -9.07, "internal_energy": -2.71, "cluster_size": 4, "cluster_id": 6, "rank_in_cluster": 4}

>  <energy>  (36) 
-7.48

>  <cluster_rmsd>  (36) 
0.41

>  <cluster>  (36) 
3

$$$$

     RDKit          3D

 47 50  0  0  0  0  0  0  0  0999 V2000
  139.9050   73.5260  222.5760 O   0  0  0  0  0  0  0  0  0  0  0  0
  140.2990   72.3250  222.4980 C   0  0  0  0  0  0  0  0  0  0  0  0
  140.8160   71.7650  221.2930 N   0  0  0  0  0  0  0  0  0  0  0  0
  140.8810   72.6300  220.1300 C   0  0  0  0  0  0  0  0  0  0  0  0
  142.0580   72.3190  219.2860 C   0  0  0  0  0  0  0  0  0  0  0  0
  141.8510   71.8780  218.1360 O   0  0  0  0  0  0  0  0  0  0  0  0
  143.4050   72.4890  219.7000 N   0  0  0  0  0  0  0  0  0  0  0  0
  143.9330   73.8400  219.9910 C   0  0  0  0  0  0  0  0  0  0  0  0
  145.1900   73.5380  220.8290 C   0  0  2  0  0  0  0  0  0  0  0  0
  146.0550   74.5990  220.8500 O   0  0  0  0  0  0  0  0  0  0  0  0
  145.7030   72.3500  220.0390 C   0  0  2  0  0  0  0  0  0  0  0  0
  146.1170   72.8710  218.8150 O   0  0  0  0  0  0  0  0  0  0  0  0
  144.4570   71.5270  219.9240 C   0  0  2  0  0  0  0  0  0  0  0  0
  144.5450   70.4340  218.9120 C   0  0  0  0  0  0  0  0  0  0  0  0
  145.6660   69.5010  218.8170 C   0  0  0  0  0  0  0  0  0  0  0  0
  144.3110   69.0210  219.3490 C   0  0  0  0  0  0  0  0  0  0  0  0
  140.2210   71.4780  223.6850 C   0  0  0  0  0  0  0  0  0  0  0  0
  139.6540   70.2260  223.6370 C   0  0  0  0  0  0  0  0  0  0  0  0
  139.5810   69.4260  224.7640 C   0  0  0  0  0  0  0  0  0  0  0  0
  140.0850   69.8900  225.9620 C   0  0  0  0  0  0  0  0  0  0  0  0
  140.0340   69.1270  227.1110 C   0  0  0  0  0  0  0  0  0  0  0  0
  140.5440   69.6060  228.3030 C   0  0  0  0  0  0  0  0  0  0  0  0
  141.1130   70.8780  228.3260 C   0  0  0  0  0  0  0  0  0  0  0  0
  141.1740   71.6600  227.1810 C   0  0  0  0  0  0  0  0  0  0  0  0
  140.6480   71.1400  226.0010 C   0  0  0  0  0  0  0  0  0  0  0  0
  140.6990   71.8870  224.8760 N   0  0  0  0  0  0  0  0  0  0  0  0
  141.1210   70.7710  221.2980 H   0  0  0  0  0  0  0  0  0  0  0  0
  139.9673   72.4947  219.5327 H   0  0  0  0  0  0  0  0  0  0  0  0
  140.9715   73.6695  220.4782 H   0  0  0  0  0  0  0  0  0  0  0  0
  144.1925   74.3727  219.0643 H   0  0  0  0  0  0  0  0  0  0  0  0
  143.2103   74.4899  220.5061 H   0  0  0  0  0  0  0  0  0  0  0  0
  145.0325   73.3466  221.9007 H   0  0  0  0  0  0  0  0  0  0  0  0
  146.6230   74.6380  220.0410 H   0  0  0  0  0  0  0  0  0  0  0  0
  146.5388   71.7680  220.4547 H   0  0  0  0  0  0  0  0  0  0  0  0
  146.1820   73.8400  218.8110 H   0  0  0  0  0  0  0  0  0  0  0  0
  144.2618   70.9440  220.8361 H   0  0  0  0  0  0  0  0  0  0  0  0
  144.0982   71.1219  218.1791 H   0  0  0  0  0  0  0  0  0  0  0  0
  146.0202   69.1652  217.8312 H   0  0  0  0  0  0  0  0  0  0  0  0
  146.6995   69.4855  219.1934 H   0  0  0  0  0  0  0  0  0  0  0  0
  143.6829   68.3489  218.7459 H   0  0  0  0  0  0  0  0  0  0  0  0
  143.9502   68.5245  220.2618 H   0  0  0  0  0  0  0  0  0  0  0  0
  139.2506   69.8530  222.6840 H   0  0  0  0  0  0  0  0  0  0  0  0
  139.1243   68.4270  224.7052 H   0  0  0  0  0  0  0  0  0  0  0  0
  139.5817   68.1249  227.0776 H   0  0  0  0  0  0  0  0  0  0  0  0
  140.5016   68.9946  229.2165 H   0  0  0  0  0  0  0  0  0  0  0  0
  141.5214   71.2695  229.2693 H   0  0  0  0  0  0  0  0  0  0  0  0
  141.6253   72.6629  227.2049 H   0  0  0  0  0  0  0  0  0  0  0  0
  1  2  2  0
  2  3  1  0
  3  4  1  0
  4  5  1  0
  5  6  2  0
  5  7  1  0
  7  8  1  0
  8  9  1  0
  9 10  1  0
  9 11  1  0
 11 12  1  0
 11 13  1  0
 13 14  1  0
 14 15  1  0
 15 16  1  0
  2 17  1  0
 17 18  2  0
 18 19  1  0
 19 20  2  0
 20 21  1  0
 21 22  2  0
 22 23  1  0
 23 24  2  0
 24 25  1  0
 25 26  2  0
 13  7  1  0
 16 14  1  0
 26 17  1  0
 25 20  1  0
  3 27  1  0
  4 28  1  0
  4 29  1  0
  8 30  1  0
  8 31  1  0
  9 32  1  1
 10 33  1  0
 11 34  1  1
 12 35  1  0
 13 36  1  1
 14 37  1  0
 15 38  1  0
 15 39  1  0
 16 40  1  0
 16 41  1  0
 18 42  1  0
 19 43  1  0
 21 44  1  0
 22 45  1  0
 23 46  1  0
 24 47  1  0
M  END
>  <smiles>  (37) 
O=C(NCC(=O)N1C[C@H](O)[C@H](O)[C@@H]1C1CC1)c1ccc2ccccc2n1

>  <score_type>  (37) 
oracle

>  <origin>  (37) 
autodockgpu

>  <m_score__min__energy>  (37) 
-8.4399999999999995

>  <m_primary>  (37) 
energy

>  <rmsd>  (37) 
4.063218207046748

>  <m_score__min__rmsd>  (37) 
4.063218207046748

>  <meeko>  (37) 
{"free_energy": -8.19, "intermolecular_energy": -10.27, "internal_energy": -2.37, "cluster_size": 25, "cluster_id": 1, "rank_in_cluster": 8}

>  <energy>  (37) 
-7.37

>  <cluster_rmsd>  (37) 
0.63

>  <cluster>  (37) 
3

$$$$

     RDKit          3D

 47 50  0  0  0  0  0  0  0  0999 V2000
  140.1980   73.7530  222.3230 O   0  0  0  0  0  0  0  0  0  0  0  0
  140.3420   72.5100  222.1210 C   0  0  0  0  0  0  0  0  0  0  0  0
  140.5780   71.9660  220.8250 N   0  0  0  0  0  0  0  0  0  0  0  0
  140.6500   72.8980  219.7140 C   0  0  0  0  0  0  0  0  0  0  0  0
  141.9060   72.7320  218.9470 C   0  0  0  0  0  0  0  0  0  0  0  0
  141.8150   72.5250  217.7180 O   0  0  0  0  0  0  0  0  0  0  0  0
  143.2040   72.7910  219.5170 N   0  0  0  0  0  0  0  0  0  0  0  0
  143.8520   74.0970  219.7650 C   0  0  0  0  0  0  0  0  0  0  0  0
  144.9540   73.7390  220.7810 C   0  0  2  0  0  0  0  0  0  0  0  0
  145.9320   74.6970  220.8290 O   0  0  0  0  0  0  0  0  0  0  0  0
  145.4120   72.4330  220.1600 C   0  0  2  0  0  0  0  0  0  0  0  0
  146.0280   72.7890  218.9630 O   0  0  0  0  0  0  0  0  0  0  0  0
  144.0990   71.7440  219.9500 C   0  0  2  0  0  0  0  0  0  0  0  0
  144.1750   70.5580  219.0490 C   0  0  0  0  0  0  0  0  0  0  0  0
  145.3610   69.7180  218.9070 C   0  0  0  0  0  0  0  0  0  0  0  0
  144.1290   69.1870  219.6480 C   0  0  0  0  0  0  0  0  0  0  0  0
  140.2640   71.5990  223.2580 C   0  0  0  0  0  0  0  0  0  0  0  0
  139.7340   70.3350  223.1300 C   0  0  0  0  0  0  0  0  0  0  0  0
  139.6620   69.4730  224.2110 C   0  0  0  0  0  0  0  0  0  0  0  0
  140.1280   69.8840  225.4430 C   0  0  0  0  0  0  0  0  0  0  0  0
  140.0750   69.0580  226.5470 C   0  0  0  0  0  0  0  0  0  0  0  0
  140.5460   69.4850  227.7750 C   0  0  0  0  0  0  0  0  0  0  0  0
  141.0780   70.7690  227.8790 C   0  0  0  0  0  0  0  0  0  0  0  0
  141.1390   71.6140  226.7800 C   0  0  0  0  0  0  0  0  0  0  0  0
  140.6530   71.1450  225.5620 C   0  0  0  0  0  0  0  0  0  0  0  0
  140.7060   71.9540  224.4810 N   0  0  0  0  0  0  0  0  0  0  0  0
  140.6860   70.9370  220.7300 H   0  0  0  0  0  0  0  0  0  0  0  0
  139.7958   72.7218  219.0437 H   0  0  0  0  0  0  0  0  0  0  0  0
  140.6254   73.9204  220.1190 H   0  0  0  0  0  0  0  0  0  0  0  0
  144.2831   74.5082  218.8403 H   0  0  0  0  0  0  0  0  0  0  0  0
  143.1566   74.8681  220.1279 H   0  0  0  0  0  0  0  0  0  0  0  0
  144.6473   73.6669  221.8349 H   0  0  0  0  0  0  0  0  0  0  0  0
  146.5770   74.6150  220.0830 H   0  0  0  0  0  0  0  0  0  0  0  0
  146.1165   71.8048  220.7249 H   0  0  0  0  0  0  0  0  0  0  0  0
  146.1780   73.7440  218.8760 H   0  0  0  0  0  0  0  0  0  0  0  0
  143.7274   71.2732  220.8721 H   0  0  0  0  0  0  0  0  0  0  0  0
  143.5827   71.1222  218.3136 H   0  0  0  0  0  0  0  0  0  0  0  0
  145.6299   69.3078  217.9224 H   0  0  0  0  0  0  0  0  0  0  0  0
  146.4276   69.8301  219.1515 H   0  0  0  0  0  0  0  0  0  0  0  0
  143.5030   68.4032  219.1965 H   0  0  0  0  0  0  0  0  0  0  0  0
  143.9249   68.7643  220.6428 H   0  0  0  0  0  0  0  0  0  0  0  0
  139.3605   70.0034  222.1499 H   0  0  0  0  0  0  0  0  0  0  0  0
  139.2358   68.4664  224.0884 H   0  0  0  0  0  0  0  0  0  0  0  0
  139.6527   68.0470  226.4490 H   0  0  0  0  0  0  0  0  0  0  0  0
  140.5017   68.8239  228.6530 H   0  0  0  0  0  0  0  0  0  0  0  0
  141.4567   71.1192  228.8506 H   0  0  0  0  0  0  0  0  0  0  0  0
  141.5597   72.6265  226.8684 H   0  0  0  0  0  0  0  0  0  0  0  0
  1  2  2  0
  2  3  1  0
  3  4  1  0
  4  5  1  0
  5  6  2  0
  5  7  1  0
  7  8  1  0
  8  9  1  0
  9 10  1  0
  9 11  1  0
 11 12  1  0
 11 13  1  0
 13 14  1  0
 14 15  1  0
 15 16  1  0
  2 17  1  0
 17 18  2  0
 18 19  1  0
 19 20  2  0
 20 21  1  0
 21 22  2  0
 22 23  1  0
 23 24  2  0
 24 25  1  0
 25 26  2  0
 13  7  1  0
 16 14  1  0
 26 17  1  0
 25 20  1  0
  3 27  1  0
  4 28  1  0
  4 29  1  0
  8 30  1  0
  8 31  1  0
  9 32  1  1
 10 33  1  0
 11 34  1  1
 12 35  1  0
 13 36  1  1
 14 37  1  0
 15 38  1  0
 15 39  1  0
 16 40  1  0
 16 41  1  0
 18 42  1  0
 19 43  1  0
 21 44  1  0
 22 45  1  0
 23 46  1  0
 24 47  1  0
M  END
>  <smiles>  (38) 
O=C(NCC(=O)N1C[C@H](O)[C@H](O)[C@@H]1C1CC1)c1ccc2ccccc2n1

>  <score_type>  (38) 
oracle

>  <origin>  (38) 
autodockgpu

>  <m_score__min__energy>  (38) 
-8.4399999999999995

>  <m_primary>  (38) 
energy

>  <rmsd>  (38) 
3.9256779185298254

>  <m_score__min__rmsd>  (38) 
3.9256779185298254

>  <meeko>  (38) 
{"free_energy": -7.79, "intermolecular_energy": -9.88, "internal_energy": -2.49, "cluster_size": 25, "cluster_id": 1, "rank_in_cluster": 13}

>  <energy>  (38) 
-7.34

>  <cluster_rmsd>  (38) 
0.68

>  <cluster>  (38) 
3

$$$$

     RDKit          3D

 47 50  0  0  0  0  0  0  0  0999 V2000
  141.4440   72.0100  221.6890 O   0  0  0  0  0  0  0  0  0  0  0  0
  140.4620   72.3010  222.4360 C   0  0  0  0  0  0  0  0  0  0  0  0
  139.5810   73.3870  222.1560 N   0  0  0  0  0  0  0  0  0  0  0  0
  139.8450   74.1690  220.9620 C   0  0  0  0  0  0  0  0  0  0  0  0
  140.8770   75.2030  221.2090 C   0  0  0  0  0  0  0  0  0  0  0  0
  140.9290   75.7140  222.3480 O   0  0  0  0  0  0  0  0  0  0  0  0
  141.8070   75.6500  220.2360 N   0  0  0  0  0  0  0  0  0  0  0  0
  141.4020   76.6350  219.2100 C   0  0  0  0  0  0  0  0  0  0  0  0
  142.7540   77.1790  218.7100 C   0  0  2  0  0  0  0  0  0  0  0  0
  142.6390   77.7810  217.4860 O   0  0  0  0  0  0  0  0  0  0  0  0
  143.5200   75.8700  218.6750 C   0  0  2  0  0  0  0  0  0  0  0  0
  142.9440   75.1330  217.6430 O   0  0  0  0  0  0  0  0  0  0  0  0
  143.1970   75.3170  220.0290 C   0  0  2  0  0  0  0  0  0  0  0  0
  143.5360   73.8730  220.1890 C   0  0  0  0  0  0  0  0  0  0  0  0
  144.5530   73.1830  219.3990 C   0  0  0  0  0  0  0  0  0  0  0  0
  144.8120   73.4990  220.8760 C   0  0  0  0  0  0  0  0  0  0  0  0
  140.2230   71.4970  223.6300 C   0  0  0  0  0  0  0  0  0  0  0  0
  139.5120   70.3200  223.5710 C   0  0  0  0  0  0  0  0  0  0  0  0
  139.2860   69.5590  224.7060 C   0  0  0  0  0  0  0  0  0  0  0  0
  139.7820   69.9850  225.9210 C   0  0  0  0  0  0  0  0  0  0  0  0
  139.5820   69.2580  227.0770 C   0  0  0  0  0  0  0  0  0  0  0  0
  140.0850   69.6990  228.2870 C   0  0  0  0  0  0  0  0  0  0  0  0
  140.8020   70.8930  228.3200 C   0  0  0  0  0  0  0  0  0  0  0  0
  141.0140   71.6380  227.1690 C   0  0  0  0  0  0  0  0  0  0  0  0
  140.4900   71.1590  225.9710 C   0  0  0  0  0  0  0  0  0  0  0  0
  140.6870   71.8700  224.8390 N   0  0  0  0  0  0  0  0  0  0  0  0
  138.7960   73.5710  222.8120 H   0  0  0  0  0  0  0  0  0  0  0  0
  140.1955   73.4972  220.1646 H   0  0  0  0  0  0  0  0  0  0  0  0
  138.9135   74.6739  220.6664 H   0  0  0  0  0  0  0  0  0  0  0  0
  140.8431   76.1518  218.3951 H   0  0  0  0  0  0  0  0  0  0  0  0
  140.7327   77.4177  219.5966 H   0  0  0  0  0  0  0  0  0  0  0  0
  143.2199   77.9710  219.3148 H   0  0  0  0  0  0  0  0  0  0  0  0
  142.8560   77.1660  216.7410 H   0  0  0  0  0  0  0  0  0  0  0  0
  144.6050   75.9040  218.4970 H   0  0  0  0  0  0  0  0  0  0  0  0
  142.4010   75.6690  217.0430 H   0  0  0  0  0  0  0  0  0  0  0  0
  143.8234   75.7608  220.8168 H   0  0  0  0  0  0  0  0  0  0  0  0
  142.4651   73.6738  220.3421 H   0  0  0  0  0  0  0  0  0  0  0  0
  144.3896   72.1433  219.0793 H   0  0  0  0  0  0  0  0  0  0  0  0
  145.0784   73.3904  218.4551 H   0  0  0  0  0  0  0  0  0  0  0  0
  144.8256   72.6921  221.6235 H   0  0  0  0  0  0  0  0  0  0  0  0
  145.5879   74.0294  221.4475 H   0  0  0  0  0  0  0  0  0  0  0  0
  139.1156   69.9771  222.6039 H   0  0  0  0  0  0  0  0  0  0  0  0
  138.7149   68.6212  224.6392 H   0  0  0  0  0  0  0  0  0  0  0  0
  139.0154   68.3161  227.0351 H   0  0  0  0  0  0  0  0  0  0  0  0
  139.9221   69.1178  229.2066 H   0  0  0  0  0  0  0  0  0  0  0  0
  141.2079   71.2520  229.2772 H   0  0  0  0  0  0  0  0  0  0  0  0
  141.5801   72.5806  227.2018 H   0  0  0  0  0  0  0  0  0  0  0  0
  1  2  2  0
  2  3  1  0
  3  4  1  0
  4  5  1  0
  5  6  2  0
  5  7  1  0
  7  8  1  0
  8  9  1  0
  9 10  1  0
  9 11  1  0
 11 12  1  0
 11 13  1  0
 13 14  1  0
 14 15  1  0
 15 16  1  0
  2 17  1  0
 17 18  2  0
 18 19  1  0
 19 20  2  0
 20 21  1  0
 21 22  2  0
 22 23  1  0
 23 24  2  0
 24 25  1  0
 25 26  2  0
 13  7  1  0
 16 14  1  0
 26 17  1  0
 25 20  1  0
  3 27  1  0
  4 28  1  0
  4 29  1  0
  8 30  1  0
  8 31  1  0
  9 32  1  1
 10 33  1  0
 11 34  1  6
 12 35  1  0
 13 36  1  1
 14 37  1  0
 15 38  1  0
 15 39  1  0
 16 40  1  0
 16 41  1  0
 18 42  1  0
 19 43  1  0
 21 44  1  0
 22 45  1  0
 23 46  1  0
 24 47  1  0
M  END
>  <smiles>  (39) 
O=C(NCC(=O)N1C[C@H](O)[C@H](O)[C@@H]1C1CC1)c1ccc2ccccc2n1

>  <score_type>  (39) 
oracle

>  <origin>  (39) 
autodockgpu

>  <m_score__min__energy>  (39) 
-8.4399999999999995

>  <m_primary>  (39) 
energy

>  <rmsd>  (39) 
2.1913771260619437

>  <m_score__min__rmsd>  (39) 
2.1913771260619437

>  <meeko>  (39) 
{"free_energy": -7.03, "intermolecular_energy": -9.12, "internal_energy": -2.61, "cluster_size": 4, "cluster_id": 6, "rank_in_cluster": 2}

>  <energy>  (39) 
-7.02

>  <cluster_rmsd>  (39) 
1.98

>  <cluster>  (39) 
3

$$$$

     RDKit          3D

 47 50  0  0  0  0  0  0  0  0999 V2000
  139.9750   73.5050  222.4550 O   0  0  0  0  0  0  0  0  0  0  0  0
  140.3860   72.3060  222.4360 C   0  0  0  0  0  0  0  0  0  0  0  0
  140.9760   71.7170  221.2790 N   0  0  0  0  0  0  0  0  0  0  0  0
  141.0950   72.5470  220.0950 C   0  0  0  0  0  0  0  0  0  0  0  0
  142.1910   73.5340  220.2320 C   0  0  0  0  0  0  0  0  0  0  0  0
  141.8800   74.7380  220.3560 O   0  0  0  0  0  0  0  0  0  0  0  0
  143.5700   73.2010  220.2320 N   0  0  0  0  0  0  0  0  0  0  0  0
  144.5920   74.2450  220.4580 C   0  0  0  0  0  0  0  0  0  0  0  0
  145.8350   73.4220  220.8490 C   0  0  2  0  0  0  0  0  0  0  0  0
  146.9910   74.1410  220.6940 O   0  0  0  0  0  0  0  0  0  0  0  0
  145.6800   72.2960  219.8450 C   0  0  2  0  0  0  0  0  0  0  0  0
  145.9200   72.8740  218.6010 O   0  0  0  0  0  0  0  0  0  0  0  0
  144.2400   71.9350  220.0460 C   0  0  2  0  0  0  0  0  0  0  0  0
  143.6780   71.0690  218.9690 C   0  0  0  0  0  0  0  0  0  0  0  0
  144.4030   69.9600  218.3540 C   0  0  0  0  0  0  0  0  0  0  0  0
  143.2390   69.6790  219.3100 C   0  0  0  0  0  0  0  0  0  0  0  0
  140.2520   71.4960  223.6430 C   0  0  0  0  0  0  0  0  0  0  0  0
  139.6580   70.2550  223.6110 C   0  0  0  0  0  0  0  0  0  0  0  0
  139.5330   69.4890  224.7580 C   0  0  0  0  0  0  0  0  0  0  0  0
  140.0100   69.9760  225.9580 C   0  0  0  0  0  0  0  0  0  0  0  0
  139.9060   69.2460  227.1250 C   0  0  0  0  0  0  0  0  0  0  0  0
  140.3900   69.7480  228.3190 C   0  0  0  0  0  0  0  0  0  0  0  0
  140.9860   71.0070  228.3250 C   0  0  0  0  0  0  0  0  0  0  0  0
  141.1000   71.7560  227.1610 C   0  0  0  0  0  0  0  0  0  0  0  0
  140.6000   71.2140  225.9800 C   0  0  0  0  0  0  0  0  0  0  0  0
  140.7020   71.9280  224.8370 N   0  0  0  0  0  0  0  0  0  0  0  0
  141.2910   70.7280  221.3320 H   0  0  0  0  0  0  0  0  0  0  0  0
  141.2998   71.9036  219.2266 H   0  0  0  0  0  0  0  0  0  0  0  0
  140.1510   73.0957  219.9618 H   0  0  0  0  0  0  0  0  0  0  0  0
  144.7735   74.8274  219.5426 H   0  0  0  0  0  0  0  0  0  0  0  0
  144.3005   74.9843  221.2186 H   0  0  0  0  0  0  0  0  0  0  0  0
  145.9014   73.0994  221.8985 H   0  0  0  0  0  0  0  0  0  0  0  0
  147.1380   74.4210  219.7560 H   0  0  0  0  0  0  0  0  0  0  0  0
  146.3372   71.4188  219.9379 H   0  0  0  0  0  0  0  0  0  0  0  0
  146.2270   73.7940  218.6560 H   0  0  0  0  0  0  0  0  0  0  0  0
  144.0945   71.2874  220.9232 H   0  0  0  0  0  0  0  0  0  0  0  0
  143.2080   71.9665  218.5405 H   0  0  0  0  0  0  0  0  0  0  0  0
  144.2919   69.7594  217.2782 H   0  0  0  0  0  0  0  0  0  0  0  0
  145.4583   69.6540  218.3020 H   0  0  0  0  0  0  0  0  0  0  0  0
  142.2859   69.2865  218.9259 H   0  0  0  0  0  0  0  0  0  0  0  0
  143.0957   69.0984  220.2333 H   0  0  0  0  0  0  0  0  0  0  0  0
  139.2754   69.8642  222.6566 H   0  0  0  0  0  0  0  0  0  0  0  0
  139.0565   68.4986  224.7129 H   0  0  0  0  0  0  0  0  0  0  0  0
  139.4326   68.2533  227.1048 H   0  0  0  0  0  0  0  0  0  0  0  0
  140.3059   69.1638  229.2472 H   0  0  0  0  0  0  0  0  0  0  0  0
  141.3738   71.4158  229.2697 H   0  0  0  0  0  0  0  0  0  0  0  0
  141.5721   72.7495  227.1718 H   0  0  0  0  0  0  0  0  0  0  0  0
  1  2  2  0
  2  3  1  0
  3  4  1  0
  4  5  1  0
  5  6  2  0
  5  7  1  0
  7  8  1  0
  8  9  1  0
  9 10  1  0
  9 11  1  0
 11 12  1  0
 11 13  1  0
 13 14  1  0
 14 15  1  0
 15 16  1  0
  2 17  1  0
 17 18  2  0
 18 19  1  0
 19 20  2  0
 20 21  1  0
 21 22  2  0
 22 23  1  0
 23 24  2  0
 24 25  1  0
 25 26  2  0
 13  7  1  0
 16 14  1  0
 26 17  1  0
 25 20  1  0
  3 27  1  0
  4 28  1  0
  4 29  1  0
  8 30  1  0
  8 31  1  0
  9 32  1  1
 10 33  1  0
 11 34  1  1
 12 35  1  0
 13 36  1  1
 14 37  1  0
 15 38  1  0
 15 39  1  0
 16 40  1  0
 16 41  1  0
 18 42  1  0
 19 43  1  0
 21 44  1  0
 22 45  1  0
 23 46  1  0
 24 47  1  0
M  END
>  <smiles>  (40) 
O=C(NCC(=O)N1C[C@H](O)[C@H](O)[C@@H]1C1CC1)c1ccc2ccccc2n1

>  <score_type>  (40) 
oracle

>  <origin>  (40) 
autodockgpu

>  <m_score__min__energy>  (40) 
-8.4399999999999995

>  <m_primary>  (40) 
energy

>  <rmsd>  (40) 
4.002749953100562

>  <m_score__min__rmsd>  (40) 
4.002749953100562

>  <meeko>  (40) 
{"free_energy": -8.39, "intermolecular_energy": -10.48, "internal_energy": -2.33, "cluster_size": 25, "cluster_id": 1, "rank_in_cluster": 2}

>  <energy>  (40) 
-6.98

>  <cluster_rmsd>  (40) 
1.96

>  <cluster>  (40) 
3

$$$$

     RDKit          3D

 47 50  0  0  0  0  0  0  0  0999 V2000
  141.4790   71.9640  221.6650 O   0  0  0  0  0  0  0  0  0  0  0  0
  140.5330   72.2980  222.4400 C   0  0  0  0  0  0  0  0  0  0  0  0
  139.6930   73.4210  222.1840 N   0  0  0  0  0  0  0  0  0  0  0  0
  139.9570   74.1910  220.9830 C   0  0  0  0  0  0  0  0  0  0  0  0
  140.9920   75.2250  221.2180 C   0  0  0  0  0  0  0  0  0  0  0  0
  141.0310   75.7650  222.3440 O   0  0  0  0  0  0  0  0  0  0  0  0
  141.9400   75.6410  220.2490 N   0  0  0  0  0  0  0  0  0  0  0  0
  141.5480   76.5760  219.1720 C   0  0  0  0  0  0  0  0  0  0  0  0
  142.9060   77.1130  218.6800 C   0  0  2  0  0  0  0  0  0  0  0  0
  142.8140   77.6610  217.4280 O   0  0  0  0  0  0  0  0  0  0  0  0
  143.6860   75.8130  218.7190 C   0  0  2  0  0  0  0  0  0  0  0  0
  143.1420   75.0250  217.7060 O   0  0  0  0  0  0  0  0  0  0  0  0
  143.3370   75.3140  220.0870 C   0  0  2  0  0  0  0  0  0  0  0  0
  143.6870   73.8820  220.3170 C   0  0  0  0  0  0  0  0  0  0  0  0
  144.6150   73.1260  219.4800 C   0  0  0  0  0  0  0  0  0  0  0  0
  145.0270   73.5460  220.8950 C   0  0  0  0  0  0  0  0  0  0  0  0
  140.2930   71.5040  223.6410 C   0  0  0  0  0  0  0  0  0  0  0  0
  139.6050   70.3130  223.5880 C   0  0  0  0  0  0  0  0  0  0  0  0
  139.3780   69.5620  224.7290 C   0  0  0  0  0  0  0  0  0  0  0  0
  139.8500   70.0130  225.9450 C   0  0  0  0  0  0  0  0  0  0  0  0
  139.6470   69.2970  227.1080 C   0  0  0  0  0  0  0  0  0  0  0  0
  140.1260   69.7620  228.3190 C   0  0  0  0  0  0  0  0  0  0  0  0
  140.8190   70.9700  228.3460 C   0  0  0  0  0  0  0  0  0  0  0  0
  141.0330   71.7040  227.1880 C   0  0  0  0  0  0  0  0  0  0  0  0
  140.5340   71.2010  225.9890 C   0  0  0  0  0  0  0  0  0  0  0  0
  140.7330   71.9020  224.8510 N   0  0  0  0  0  0  0  0  0  0  0  0
  138.9360   73.6400  222.8620 H   0  0  0  0  0  0  0  0  0  0  0  0
  140.3044   73.5108  220.1914 H   0  0  0  0  0  0  0  0  0  0  0  0
  139.0262   74.6956  220.6847 H   0  0  0  0  0  0  0  0  0  0  0  0
  141.0132   76.0516  218.3664 H   0  0  0  0  0  0  0  0  0  0  0  0
  140.8614   77.3668  219.5085 H   0  0  0  0  0  0  0  0  0  0  0  0
  143.3491   77.9354  219.2608 H   0  0  0  0  0  0  0  0  0  0  0  0
  143.0150   77.0060  216.7140 H   0  0  0  0  0  0  0  0  0  0  0  0
  144.7744   75.8526  218.5648 H   0  0  0  0  0  0  0  0  0  0  0  0
  142.5900   75.5260  217.0840 H   0  0  0  0  0  0  0  0  0  0  0  0
  143.9410   75.7974  220.8690 H   0  0  0  0  0  0  0  0  0  0  0  0
  142.6371   73.7055  220.5935 H   0  0  0  0  0  0  0  0  0  0  0  0
  144.4166   72.0674  219.2563 H   0  0  0  0  0  0  0  0  0  0  0  0
  145.0404   73.2587  218.4743 H   0  0  0  0  0  0  0  0  0  0  0  0
  145.1159   72.7957  221.6945 H   0  0  0  0  0  0  0  0  0  0  0  0
  145.8594   74.1086  221.3428 H   0  0  0  0  0  0  0  0  0  0  0  0
  139.2281   69.9507  222.6202 H   0  0  0  0  0  0  0  0  0  0  0  0
  138.8255   68.6129  224.6667 H   0  0  0  0  0  0  0  0  0  0  0  0
  139.0974   68.3449  227.0708 H   0  0  0  0  0  0  0  0  0  0  0  0
  139.9629   69.1888  229.2435 H   0  0  0  0  0  0  0  0  0  0  0  0
  141.2041   71.3495  229.3039 H   0  0  0  0  0  0  0  0  0  0  0  0
  141.5817   72.6570  227.2163 H   0  0  0  0  0  0  0  0  0  0  0  0
  1  2  2  0
  2  3  1  0
  3  4  1  0
  4  5  1  0
  5  6  2  0
  5  7  1  0
  7  8  1  0
  8  9  1  0
  9 10  1  0
  9 11  1  0
 11 12  1  0
 11 13  1  0
 13 14  1  0
 14 15  1  0
 15 16  1  0
  2 17  1  0
 17 18  2  0
 18 19  1  0
 19 20  2  0
 20 21  1  0
 21 22  2  0
 22 23  1  0
 23 24  2  0
 24 25  1  0
 25 26  2  0
 13  7  1  0
 16 14  1  0
 26 17  1  0
 25 20  1  0
  3 27  1  0
  4 28  1  0
  4 29  1  0
  8 30  1  0
  8 31  1  0
  9 32  1  1
 10 33  1  0
 11 34  1  1
 12 35  1  0
 13 36  1  1
 14 37  1  0
 15 38  1  0
 15 39  1  0
 16 40  1  0
 16 41  1  0
 18 42  1  0
 19 43  1  0
 21 44  1  0
 22 45  1  0
 23 46  1  0
 24 47  1  0
M  END
>  <smiles>  (41) 
O=C(NCC(=O)N1C[C@H](O)[C@H](O)[C@@H]1C1CC1)c1ccc2ccccc2n1

>  <score_type>  (41) 
oracle

>  <origin>  (41) 
autodockgpu

>  <m_score__min__energy>  (41) 
-8.4399999999999995

>  <m_primary>  (41) 
energy

>  <rmsd>  (41) 
2.2647370763411607

>  <m_score__min__rmsd>  (41) 
2.2647370763411607

>  <meeko>  (41) 
{"free_energy": -7.08, "intermolecular_energy": -9.17, "internal_energy": -2.61, "cluster_size": 4, "cluster_id": 6, "rank_in_cluster": 1}

>  <energy>  (41) 
-6.94

>  <cluster_rmsd>  (41) 
1.93

>  <cluster>  (41) 
3

$$$$

     RDKit          3D

 47 50  0  0  0  0  0  0  0  0999 V2000
  140.0400   71.4170  221.2580 O   0  0  0  0  0  0  0  0  0  0  0  0
  139.8940   72.0400  222.3520 C   0  0  0  0  0  0  0  0  0  0  0  0
  139.6610   73.4460  222.4080 N   0  0  0  0  0  0  0  0  0  0  0  0
  139.5950   74.1620  221.1480 C   0  0  0  0  0  0  0  0  0  0  0  0
  139.1870   75.5720  221.3460 C   0  0  0  0  0  0  0  0  0  0  0  0
  138.0840   75.7890  221.8910 O   0  0  0  0  0  0  0  0  0  0  0  0
  139.9670   76.6910  220.9560 N   0  0  0  0  0  0  0  0  0  0  0  0
  141.1190   76.5190  220.0440 C   0  0  0  0  0  0  0  0  0  0  0  0
  141.3540   77.9500  219.5240 C   0  0  2  0  0  0  0  0  0  0  0  0
  142.6120   78.1020  219.0040 O   0  0  0  0  0  0  0  0  0  0  0  0
  141.1400   78.6970  220.8260 C   0  0  2  0  0  0  0  0  0  0  0  0
  142.2210   78.3490  221.6340 O   0  0  0  0  0  0  0  0  0  0  0  0
  139.8530   78.0910  221.2930 C   0  0  2  0  0  0  0  0  0  0  0  0
  139.5300   78.3780  222.7200 C   0  0  0  0  0  0  0  0  0  0  0  0
  140.1520   79.4490  223.4960 C   0  0  0  0  0  0  0  0  0  0  0  0
  138.6910   79.5740  223.0480 C   0  0  0  0  0  0  0  0  0  0  0  0
  139.9660   71.2920  223.6030 C   0  0  0  0  0  0  0  0  0  0  0  0
  139.5620   69.9800  223.6790 C   0  0  0  0  0  0  0  0  0  0  0  0
  139.6320   69.2730  224.8670 C   0  0  0  0  0  0  0  0  0  0  0  0
  140.1150   69.8940  226.0010 C   0  0  0  0  0  0  0  0  0  0  0  0
  140.2030   69.2280  227.2070 C   0  0  0  0  0  0  0  0  0  0  0  0
  140.6900   69.8640  228.3340 C   0  0  0  0  0  0  0  0  0  0  0  0
  141.0930   71.1930  228.2310 C   0  0  0  0  0  0  0  0  0  0  0  0
  141.0130   71.8800  227.0280 C   0  0  0  0  0  0  0  0  0  0  0  0
  140.5160   71.2020  225.9170 C   0  0  0  0  0  0  0  0  0  0  0  0
  140.4310   71.8540  224.7360 N   0  0  0  0  0  0  0  0  0  0  0  0
  139.5510   73.8940  223.3400 H   0  0  0  0  0  0  0  0  0  0  0  0
  140.5865   74.1402  220.6721 H   0  0  0  0  0  0  0  0  0  0  0  0
  138.8442   73.6715  220.5111 H   0  0  0  0  0  0  0  0  0  0  0  0
  142.0004   76.1433  220.5844 H   0  0  0  0  0  0  0  0  0  0  0  0
  140.9370   75.7873  219.2431 H   0  0  0  0  0  0  0  0  0  0  0  0
  140.7167   78.2817  218.6911 H   0  0  0  0  0  0  0  0  0  0  0  0
  143.2960   78.2410  219.7050 H   0  0  0  0  0  0  0  0  0  0  0  0
  141.0853   79.7952  220.7945 H   0  0  0  0  0  0  0  0  0  0  0  0
  142.9370   77.9070  221.1500 H   0  0  0  0  0  0  0  0  0  0  0  0
  138.9809   78.5404  220.7954 H   0  0  0  0  0  0  0  0  0  0  0  0
  139.4637   77.2929  222.8878 H   0  0  0  0  0  0  0  0  0  0  0  0
  140.3902   79.2917  224.5583 H   0  0  0  0  0  0  0  0  0  0  0  0
  141.0555   80.0666  223.3851 H   0  0  0  0  0  0  0  0  0  0  0  0
  137.8754   79.4971  223.7821 H   0  0  0  0  0  0  0  0  0  0  0  0
  138.0976   80.3046  222.4787 H   0  0  0  0  0  0  0  0  0  0  0  0
  139.1753   69.4821  222.7776 H   0  0  0  0  0  0  0  0  0  0  0  0
  139.3049   68.2235  224.9070 H   0  0  0  0  0  0  0  0  0  0  0  0
  139.8816   68.1780  227.2722 H   0  0  0  0  0  0  0  0  0  0  0  0
  140.7578   69.3304  229.2935 H   0  0  0  0  0  0  0  0  0  0  0  0
  141.4826   71.7086  229.1212 H   0  0  0  0  0  0  0  0  0  0  0  0
  141.3328   72.9298  226.9537 H   0  0  0  0  0  0  0  0  0  0  0  0
  1  2  2  0
  2  3  1  0
  3  4  1  0
  4  5  1  0
  5  6  2  0
  5  7  1  0
  7  8  1  0
  8  9  1  0
  9 10  1  0
  9 11  1  0
 11 12  1  0
 11 13  1  0
 13 14  1  0
 14 15  1  0
 15 16  1  0
  2 17  1  0
 17 18  2  0
 18 19  1  0
 19 20  2  0
 20 21  1  0
 21 22  2  0
 22 23  1  0
 23 24  2  0
 24 25  1  0
 25 26  2  0
 13  7  1  0
 16 14  1  0
 26 17  1  0
 25 20  1  0
  3 27  1  0
  4 28  1  0
  4 29  1  0
  8 30  1  0
  8 31  1  0
  9 32  1  6
 10 33  1  0
 11 34  1  6
 12 35  1  0
 13 36  1  6
 14 37  1  0
 15 38  1  0
 15 39  1  0
 16 40  1  0
 16 41  1  0
 18 42  1  0
 19 43  1  0
 21 44  1  0
 22 45  1  0
 23 46  1  0
 24 47  1  0
M  END
>  <smiles>  (42) 
O=C(NCC(=O)N1C[C@H](O)[C@H](O)[C@@H]1C1CC1)c1ccc2ccccc2n1

>  <score_type>  (42) 
oracle

>  <origin>  (42) 
autodockgpu

>  <m_score__min__energy>  (42) 
-8.4399999999999995

>  <m_primary>  (42) 
energy

>  <rmsd>  (42) 
2.6676362779900504

>  <m_score__min__rmsd>  (42) 
2.6676362779900504

>  <meeko>  (42) 
{"free_energy": -7.34, "intermolecular_energy": -9.42, "internal_energy": -2.5, "cluster_size": 9, "cluster_id": 3, "rank_in_cluster": 6}

>  <energy>  (42) 
-7.68

>  <cluster_rmsd>  (42) 
0.0

>  <cluster>  (42) 
4

$$$$

     RDKit          3D

 47 50  0  0  0  0  0  0  0  0999 V2000
  139.8740   74.2850  222.1500 O   0  0  0  0  0  0  0  0  0  0  0  0
  140.4510   75.2370  221.5450 C   0  0  0  0  0  0  0  0  0  0  0  0
  141.2100   75.0410  220.3540 N   0  0  0  0  0  0  0  0  0  0  0  0
  141.3060   73.6870  219.8400 C   0  0  0  0  0  0  0  0  0  0  0  0
  142.2020   72.8530  220.6740 C   0  0  0  0  0  0  0  0  0  0  0  0
  141.6930   72.2170  221.6210 O   0  0  0  0  0  0  0  0  0  0  0  0
  143.6000   72.7300  220.4670 N   0  0  0  0  0  0  0  0  0  0  0  0
  144.4870   73.9020  220.6330 C   0  0  0  0  0  0  0  0  0  0  0  0
  145.8760   73.2550  220.7950 C   0  0  2  0  0  0  0  0  0  0  0  0
  146.8850   74.1450  220.5420 O   0  0  0  0  0  0  0  0  0  0  0  0
  145.7400   72.1730  219.7400 C   0  0  2  0  0  0  0  0  0  0  0  0
  145.7180   72.8470  218.5210 O   0  0  0  0  0  0  0  0  0  0  0  0
  144.4090   71.5910  220.1010 C   0  0  2  0  0  0  0  0  0  0  0  0
  143.8270   70.7100  219.0470 C   0  0  0  0  0  0  0  0  0  0  0  0
  144.6060   69.7500  218.2680 C   0  0  0  0  0  0  0  0  0  0  0  0
  143.6330   69.2550  219.3440 C   0  0  0  0  0  0  0  0  0  0  0  0
  140.3370   76.5880  222.0870 C   0  0  0  0  0  0  0  0  0  0  0  0
  139.1270   77.0950  222.5000 C   0  0  0  0  0  0  0  0  0  0  0  0
  139.0220   78.3770  223.0140 C   0  0  0  0  0  0  0  0  0  0  0  0
  140.1500   79.1650  223.1140 C   0  0  0  0  0  0  0  0  0  0  0  0
  140.0920   80.4470  223.6200 C   0  0  0  0  0  0  0  0  0  0  0  0
  141.2320   81.2240  223.7140 C   0  0  0  0  0  0  0  0  0  0  0  0
  142.4460   80.6880  223.2890 C   0  0  0  0  0  0  0  0  0  0  0  0
  142.5240   79.4000  222.7780 C   0  0  0  0  0  0  0  0  0  0  0  0
  141.3520   78.6510  222.7000 C   0  0  0  0  0  0  0  0  0  0  0  0
  141.4100   77.3950  222.2050 N   0  0  0  0  0  0  0  0  0  0  0  0
  141.6590   75.8670  219.9090 H   0  0  0  0  0  0  0  0  0  0  0  0
  140.3028   73.2358  219.8314 H   0  0  0  0  0  0  0  0  0  0  0  0
  141.7233   73.7322  218.8232 H   0  0  0  0  0  0  0  0  0  0  0  0
  144.4537   74.5534  219.7472 H   0  0  0  0  0  0  0  0  0  0  0  0
  144.2046   74.5471  221.4781 H   0  0  0  0  0  0  0  0  0  0  0  0
  146.1352   72.8909  221.8001 H   0  0  0  0  0  0  0  0  0  0  0  0
  146.9660   74.3600  219.5790 H   0  0  0  0  0  0  0  0  0  0  0  0
  146.5202   71.3998  219.6812 H   0  0  0  0  0  0  0  0  0  0  0  0
  145.9650   73.7830  218.5940 H   0  0  0  0  0  0  0  0  0  0  0  0
  144.4827   70.8824  220.9391 H   0  0  0  0  0  0  0  0  0  0  0  0
  143.1843   71.5505  218.7460 H   0  0  0  0  0  0  0  0  0  0  0  0
  144.3771   69.5904  217.2040 H   0  0  0  0  0  0  0  0  0  0  0  0
  145.6761   69.6031  218.0598 H   0  0  0  0  0  0  0  0  0  0  0  0
  142.6990   68.7487  219.0591 H   0  0  0  0  0  0  0  0  0  0  0  0
  143.6982   68.6137  220.2353 H   0  0  0  0  0  0  0  0  0  0  0  0
  138.2251   76.4703  222.4206 H   0  0  0  0  0  0  0  0  0  0  0  0
  138.0455   78.7643  223.3404 H   0  0  0  0  0  0  0  0  0  0  0  0
  139.1268   80.8563  223.9529 H   0  0  0  0  0  0  0  0  0  0  0  0
  141.1814   82.2463  224.1168 H   0  0  0  0  0  0  0  0  0  0  0  0
  143.3593   81.2970  223.3598 H   0  0  0  0  0  0  0  0  0  0  0  0
  143.4850   78.9820  222.4437 H   0  0  0  0  0  0  0  0  0  0  0  0
  1  2  2  0
  2  3  1  0
  3  4  1  0
  4  5  1  0
  5  6  2  0
  5  7  1  0
  7  8  1  0
  8  9  1  0
  9 10  1  0
  9 11  1  0
 11 12  1  0
 11 13  1  0
 13 14  1  0
 14 15  1  0
 15 16  1  0
  2 17  1  0
 17 18  2  0
 18 19  1  0
 19 20  2  0
 20 21  1  0
 21 22  2  0
 22 23  1  0
 23 24  2  0
 24 25  1  0
 25 26  2  0
 13  7  1  0
 16 14  1  0
 26 17  1  0
 25 20  1  0
  3 27  1  0
  4 28  1  0
  4 29  1  0
  8 30  1  0
  8 31  1  0
  9 32  1  1
 10 33  1  0
 11 34  1  6
 12 35  1  0
 13 36  1  1
 14 37  1  0
 15 38  1  0
 15 39  1  0
 16 40  1  0
 16 41  1  0
 18 42  1  0
 19 43  1  0
 21 44  1  0
 22 45  1  0
 23 46  1  0
 24 47  1  0
M  END
>  <smiles>  (43) 
O=C(NCC(=O)N1C[C@H](O)[C@H](O)[C@@H]1C1CC1)c1ccc2ccccc2n1

>  <score_type>  (43) 
oracle

>  <origin>  (43) 
autodockgpu

>  <m_score__min__energy>  (43) 
-8.4399999999999995

>  <m_primary>  (43) 
energy

>  <rmsd>  (43) 
7.676528860703463

>  <m_score__min__rmsd>  (43) 
7.676528860703463

>  <meeko>  (43) 
{"free_energy": -7.62, "intermolecular_energy": -9.71, "internal_energy": -2.43, "cluster_size": 7, "cluster_id": 2, "rank_in_cluster": 4}

>  <energy>  (43) 
-7.67

>  <cluster_rmsd>  (43) 
0.09

>  <cluster>  (43) 
4

$$$$

     RDKit          3D

 47 50  0  0  0  0  0  0  0  0999 V2000
  138.7380   70.6810  221.2210 O   0  0  0  0  0  0  0  0  0  0  0  0
  139.8000   70.8090  221.8990 C   0  0  0  0  0  0  0  0  0  0  0  0
  141.0370   71.2170  221.3180 N   0  0  0  0  0  0  0  0  0  0  0  0
  141.0450   71.4880  219.8920 C   0  0  0  0  0  0  0  0  0  0  0  0
  141.9290   72.6300  219.5620 C   0  0  0  0  0  0  0  0  0  0  0  0
  141.4170   73.6190  218.9960 O   0  0  0  0  0  0  0  0  0  0  0  0
  143.3180   72.6730  219.8470 N   0  0  0  0  0  0  0  0  0  0  0  0
  143.9830   73.9630  220.1350 C   0  0  0  0  0  0  0  0  0  0  0  0
  145.2840   73.5230  220.8330 C   0  0  2  0  0  0  0  0  0  0  0  0
  146.2340   74.5100  220.8080 O   0  0  0  0  0  0  0  0  0  0  0  0
  145.6190   72.3360  219.9510 C   0  0  2  0  0  0  0  0  0  0  0  0
  145.9560   72.8780  218.7130 O   0  0  0  0  0  0  0  0  0  0  0  0
  144.3030   71.6210  219.9290 C   0  0  2  0  0  0  0  0  0  0  0  0
  144.2020   70.5720  218.8730 C   0  0  0  0  0  0  0  0  0  0  0  0
  145.2710   69.6250  218.5600 C   0  0  0  0  0  0  0  0  0  0  0  0
  144.0080   69.1450  219.2830 C   0  0  0  0  0  0  0  0  0  0  0  0
  139.7600   70.5290  223.3310 C   0  0  0  0  0  0  0  0  0  0  0  0
  139.0450   69.4670  223.8340 C   0  0  0  0  0  0  0  0  0  0  0  0
  139.0090   69.2030  225.1930 C   0  0  0  0  0  0  0  0  0  0  0  0
  139.7010   70.0200  226.0640 C   0  0  0  0  0  0  0  0  0  0  0  0
  139.6930   69.7950  227.4260 C   0  0  0  0  0  0  0  0  0  0  0  0
  140.3920   70.6230  228.2850 C   0  0  0  0  0  0  0  0  0  0  0  0
  141.1080   71.6910  227.7510 C   0  0  0  0  0  0  0  0  0  0  0  0
  141.1290   71.9340  226.3840 C   0  0  0  0  0  0  0  0  0  0  0  0
  140.4110   71.0770  225.5540 C   0  0  0  0  0  0  0  0  0  0  0  0
  140.4200   71.2970  224.2210 N   0  0  0  0  0  0  0  0  0  0  0  0
  141.8710   71.3010  221.9330 H   0  0  0  0  0  0  0  0  0  0  0  0
  141.4023   70.5939  219.3601 H   0  0  0  0  0  0  0  0  0  0  0  0
  140.0206   71.7437  219.5832 H   0  0  0  0  0  0  0  0  0  0  0  0
  144.1970   74.5149  219.2079 H   0  0  0  0  0  0  0  0  0  0  0  0
  143.3699   74.6448  220.7427 H   0  0  0  0  0  0  0  0  0  0  0  0
  145.2128   73.2955  221.9068 H   0  0  0  0  0  0  0  0  0  0  0  0
  146.7020   74.5610  219.9380 H   0  0  0  0  0  0  0  0  0  0  0  0
  146.4396   71.6713  220.2590 H   0  0  0  0  0  0  0  0  0  0  0  0
  146.0910   73.8390  218.7370 H   0  0  0  0  0  0  0  0  0  0  0  0
  144.1480   71.0144  220.8334 H   0  0  0  0  0  0  0  0  0  0  0  0
  143.6596   71.2993  218.2510 H   0  0  0  0  0  0  0  0  0  0  0  0
  145.4545   69.3275  217.5170 H   0  0  0  0  0  0  0  0  0  0  0  0
  146.3508   69.5752  218.7640 H   0  0  0  0  0  0  0  0  0  0  0  0
  143.2756   68.5111  218.7617 H   0  0  0  0  0  0  0  0  0  0  0  0
  143.7866   68.6144  220.2208 H   0  0  0  0  0  0  0  0  0  0  0  0
  138.4909   68.8145  223.1432 H   0  0  0  0  0  0  0  0  0  0  0  0
  138.4327   68.3478  225.5758 H   0  0  0  0  0  0  0  0  0  0  0  0
  139.1235   68.9465  227.8330 H   0  0  0  0  0  0  0  0  0  0  0  0
  140.3825   70.4413  229.3699 H   0  0  0  0  0  0  0  0  0  0  0  0
  141.6681   72.3555  228.4254 H   0  0  0  0  0  0  0  0  0  0  0  0
  141.6968   72.7796  225.9685 H   0  0  0  0  0  0  0  0  0  0  0  0
  1  2  2  0
  2  3  1  0
  3  4  1  0
  4  5  1  0
  5  6  2  0
  5  7  1  0
  7  8  1  0
  8  9  1  0
  9 10  1  0
  9 11  1  0
 11 12  1  0
 11 13  1  0
 13 14  1  0
 14 15  1  0
 15 16  1  0
  2 17  1  0
 17 18  2  0
 18 19  1  0
 19 20  2  0
 20 21  1  0
 21 22  2  0
 22 23  1  0
 23 24  2  0
 24 25  1  0
 25 26  2  0
 13  7  1  0
 16 14  1  0
 26 17  1  0
 25 20  1  0
  3 27  1  0
  4 28  1  0
  4 29  1  0
  8 30  1  0
  8 31  1  0
  9 32  1  1
 10 33  1  0
 11 34  1  1
 12 35  1  0
 13 36  1  1
 14 37  1  0
 15 38  1  0
 15 39  1  0
 16 40  1  0
 16 41  1  0
 18 42  1  0
 19 43  1  0
 21 44  1  0
 22 45  1  0
 23 46  1  0
 24 47  1  0
M  END
>  <smiles>  (44) 
O=C(NCC(=O)N1C[C@H](O)[C@H](O)[C@@H]1C1CC1)c1ccc2ccccc2n1

>  <score_type>  (44) 
oracle

>  <origin>  (44) 
autodockgpu

>  <m_score__min__energy>  (44) 
-8.4399999999999995

>  <m_primary>  (44) 
energy

>  <rmsd>  (44) 
4.012434535885837

>  <m_score__min__rmsd>  (44) 
4.012434535885837

>  <meeko>  (44) 
{"free_energy": -7.24, "intermolecular_energy": -9.33, "internal_energy": -2.52, "cluster_size": 25, "cluster_id": 1, "rank_in_cluster": 24}

>  <energy>  (44) 
-7.6

>  <cluster_rmsd>  (44) 
0.17

>  <cluster>  (44) 
4

$$$$

     RDKit          3D

 47 50  0  0  0  0  0  0  0  0999 V2000
  139.8070   70.8940  221.0930 O   0  0  0  0  0  0  0  0  0  0  0  0
  140.2070   71.6350  222.0400 C   0  0  0  0  0  0  0  0  0  0  0  0
  140.7290   72.9440  221.8220 N   0  0  0  0  0  0  0  0  0  0  0  0
  140.7940   73.4150  220.4510 C   0  0  0  0  0  0  0  0  0  0  0  0
  142.0260   74.2000  220.2050 C   0  0  0  0  0  0  0  0  0  0  0  0
  141.8990   75.4140  219.9350 O   0  0  0  0  0  0  0  0  0  0  0  0
  143.3380   73.6640  220.2550 N   0  0  0  0  0  0  0  0  0  0  0  0
  144.5050   74.5560  220.4280 C   0  0  0  0  0  0  0  0  0  0  0  0
  145.6050   73.5870  220.9010 C   0  0  2  0  0  0  0  0  0  0  0  0
  146.8580   74.1090  220.7180 O   0  0  0  0  0  0  0  0  0  0  0  0
  145.2900   72.4260  219.9770 C   0  0  2  0  0  0  0  0  0  0  0  0
  145.6260   72.8690  218.6990 O   0  0  0  0  0  0  0  0  0  0  0  0
  143.8100   72.3020  220.1730 C   0  0  2  0  0  0  0  0  0  0  0  0
  143.1320   71.4540  219.1500 C   0  0  0  0  0  0  0  0  0  0  0  0
  143.6780   70.1970  218.6430 C   0  0  0  0  0  0  0  0  0  0  0  0
  142.4680   70.1850  219.5830 C   0  0  0  0  0  0  0  0  0  0  0  0
  140.1290   71.1320  223.4080 C   0  0  0  0  0  0  0  0  0  0  0  0
  139.5360   69.9250  223.6960 C   0  0  0  0  0  0  0  0  0  0  0  0
  139.4650   69.4510  224.9950 C   0  0  0  0  0  0  0  0  0  0  0  0
  139.9970   70.2010  226.0240 C   0  0  0  0  0  0  0  0  0  0  0  0
  139.9480   69.7670  227.3340 C   0  0  0  0  0  0  0  0  0  0  0  0
  140.4860   70.5300  228.3530 C   0  0  0  0  0  0  0  0  0  0  0  0
  141.0810   71.7490  228.0360 C   0  0  0  0  0  0  0  0  0  0  0  0
  141.1400   72.2020  226.7250 C   0  0  0  0  0  0  0  0  0  0  0  0
  140.5860   71.4030  225.7280 C   0  0  0  0  0  0  0  0  0  0  0  0
  140.6340   71.8280  224.4460 N   0  0  0  0  0  0  0  0  0  0  0  0
  141.0400   73.4980  222.6440 H   0  0  0  0  0  0  0  0  0  0  0  0
  140.7814   72.5480  219.7741 H   0  0  0  0  0  0  0  0  0  0  0  0
  139.9270   74.0668  220.2683 H   0  0  0  0  0  0  0  0  0  0  0  0
  144.7814   75.0363  219.4778 H   0  0  0  0  0  0  0  0  0  0  0  0
  144.3216   75.3837  221.1289 H   0  0  0  0  0  0  0  0  0  0  0  0
  145.6121   73.3372  221.9722 H   0  0  0  0  0  0  0  0  0  0  0  0
  147.0590   74.2800  219.7640 H   0  0  0  0  0  0  0  0  0  0  0  0
  145.8056   71.4692  220.1463 H   0  0  0  0  0  0  0  0  0  0  0  0
  146.0190   73.7560  218.6910 H   0  0  0  0  0  0  0  0  0  0  0  0
  143.5605   71.7492  221.0907 H   0  0  0  0  0  0  0  0  0  0  0  0
  142.8205   72.3779  218.6408 H   0  0  0  0  0  0  0  0  0  0  0  0
  143.5538   69.9310  217.5829 H   0  0  0  0  0  0  0  0  0  0  0  0
  144.6703   69.7222  218.6456 H   0  0  0  0  0  0  0  0  0  0  0  0
  141.4703   69.9212  219.2022 H   0  0  0  0  0  0  0  0  0  0  0  0
  142.2170   69.7112  220.5435 H   0  0  0  0  0  0  0  0  0  0  0  0
  139.1099   69.3247  222.8787 H   0  0  0  0  0  0  0  0  0  0  0  0
  138.9875   68.4826  225.2054 H   0  0  0  0  0  0  0  0  0  0  0  0
  139.4750   68.8022  227.5693 H   0  0  0  0  0  0  0  0  0  0  0  0
  140.4451   70.1811  229.3954 H   0  0  0  0  0  0  0  0  0  0  0  0
  141.5122   72.3642  228.8395 H   0  0  0  0  0  0  0  0  0  0  0  0
  141.6113   73.1654  226.4806 H   0  0  0  0  0  0  0  0  0  0  0  0
  1  2  2  0
  2  3  1  0
  3  4  1  0
  4  5  1  0
  5  6  2  0
  5  7  1  0
  7  8  1  0
  8  9  1  0
  9 10  1  0
  9 11  1  0
 11 12  1  0
 11 13  1  0
 13 14  1  0
 14 15  1  0
 15 16  1  0
  2 17  1  0
 17 18  2  0
 18 19  1  0
 19 20  2  0
 20 21  1  0
 21 22  2  0
 22 23  1  0
 23 24  2  0
 24 25  1  0
 25 26  2  0
 13  7  1  0
 16 14  1  0
 26 17  1  0
 25 20  1  0
  3 27  1  0
  4 28  1  0
  4 29  1  0
  8 30  1  0
  8 31  1  0
  9 32  1  1
 10 33  1  0
 11 34  1  1
 12 35  1  0
 13 36  1  1
 14 37  1  0
 15 38  1  0
 15 39  1  0
 16 40  1  0
 16 41  1  0
 18 42  1  0
 19 43  1  0
 21 44  1  0
 22 45  1  0
 23 46  1  0
 24 47  1  0
M  END
>  <smiles>  (45) 
O=C(NCC(=O)N1C[C@H](O)[C@H](O)[C@@H]1C1CC1)c1ccc2ccccc2n1

>  <score_type>  (45) 
oracle

>  <origin>  (45) 
autodockgpu

>  <m_score__min__energy>  (45) 
-8.4399999999999995

>  <m_primary>  (45) 
energy

>  <rmsd>  (45) 
3.750544037386074

>  <m_score__min__rmsd>  (45) 
3.750544037386074

>  <meeko>  (45) 
{"free_energy": -7.41, "intermolecular_energy": -9.5, "internal_energy": -2.79, "cluster_size": 25, "cluster_id": 1, "rank_in_cluster": 23}

>  <energy>  (45) 
-7.58

>  <cluster_rmsd>  (45) 
0.45

>  <cluster>  (45) 
4

$$$$

     RDKit          3D

 47 50  0  0  0  0  0  0  0  0999 V2000
  141.4450   72.0380  221.6710 O   0  0  0  0  0  0  0  0  0  0  0  0
  140.5530   72.3880  222.5000 C   0  0  0  0  0  0  0  0  0  0  0  0
  139.7860   73.5790  222.3440 N   0  0  0  0  0  0  0  0  0  0  0  0
  140.0620   74.4020  221.1810 C   0  0  0  0  0  0  0  0  0  0  0  0
  139.4910   75.7610  221.3290 C   0  0  0  0  0  0  0  0  0  0  0  0
  138.3310   75.8590  221.7840 O   0  0  0  0  0  0  0  0  0  0  0  0
  140.1740   76.9560  220.9880 N   0  0  0  0  0  0  0  0  0  0  0  0
  141.2370   76.9430  219.9600 C   0  0  0  0  0  0  0  0  0  0  0  0
  141.3520   78.4300  219.5730 C   0  0  2  0  0  0  0  0  0  0  0  0
  142.5430   78.7050  218.9560 O   0  0  0  0  0  0  0  0  0  0  0  0
  141.2320   79.0300  220.9610 C   0  0  2  0  0  0  0  0  0  0  0  0
  142.4020   78.6650  221.6230 O   0  0  0  0  0  0  0  0  0  0  0  0
  140.0270   78.3060  221.4780 C   0  0  2  0  0  0  0  0  0  0  0  0
  139.8330   78.4300  222.9520 C   0  0  0  0  0  0  0  0  0  0  0  0
  140.5430   79.3960  223.7880 C   0  0  0  0  0  0  0  0  0  0  0  0
  139.0530   79.5920  223.4860 C   0  0  0  0  0  0  0  0  0  0  0  0
  140.2980   71.5390  223.6610 C   0  0  0  0  0  0  0  0  0  0  0  0
  139.6130   70.3520  223.5450 C   0  0  0  0  0  0  0  0  0  0  0  0
  139.3730   69.5500  224.6480 C   0  0  0  0  0  0  0  0  0  0  0  0
  139.8280   69.9450  225.8890 C   0  0  0  0  0  0  0  0  0  0  0  0
  139.6120   69.1770  227.0160 C   0  0  0  0  0  0  0  0  0  0  0  0
  140.0750   69.5880  228.2520 C   0  0  0  0  0  0  0  0  0  0  0  0
  140.7670   70.7930  228.3430 C   0  0  0  0  0  0  0  0  0  0  0  0
  140.9940   71.5800  227.2220 C   0  0  0  0  0  0  0  0  0  0  0  0
  140.5110   71.1300  225.9950 C   0  0  0  0  0  0  0  0  0  0  0  0
  140.7230   71.8820  224.8930 N   0  0  0  0  0  0  0  0  0  0  0  0
  139.0700   73.8070  223.0620 H   0  0  0  0  0  0  0  0  0  0  0  0
  141.1513   74.4842  221.0518 H   0  0  0  0  0  0  0  0  0  0  0  0
  139.5981   73.9266  220.3042 H   0  0  0  0  0  0  0  0  0  0  0  0
  142.1842   76.5663  220.3736 H   0  0  0  0  0  0  0  0  0  0  0  0
  141.0114   76.2861  219.1070 H   0  0  0  0  0  0  0  0  0  0  0  0
  140.6209   78.8064  218.8424 H   0  0  0  0  0  0  0  0  0  0  0  0
  143.3130   78.6300  219.5740 H   0  0  0  0  0  0  0  0  0  0  0  0
  141.1225   80.1208  221.0515 H   0  0  0  0  0  0  0  0  0  0  0  0
  143.0600   78.2510  221.0420 H   0  0  0  0  0  0  0  0  0  0  0  0
  139.0900   78.7509  221.1117 H   0  0  0  0  0  0  0  0  0  0  0  0
  139.7560   77.3338  223.0002 H   0  0  0  0  0  0  0  0  0  0  0  0
  140.8665   79.1140  224.8008 H   0  0  0  0  0  0  0  0  0  0  0  0
  141.4480   80.0100  223.6700 H   0  0  0  0  0  0  0  0  0  0  0  0
  138.3010   79.4420  224.2747 H   0  0  0  0  0  0  0  0  0  0  0  0
  138.4309   80.3916  223.0574 H   0  0  0  0  0  0  0  0  0  0  0  0
  139.2488   70.0336  222.5571 H   0  0  0  0  0  0  0  0  0  0  0  0
  138.8231   68.6040  224.5354 H   0  0  0  0  0  0  0  0  0  0  0  0
  139.0649   68.2267  226.9293 H   0  0  0  0  0  0  0  0  0  0  0  0
  139.8999   68.9741  229.1478 H   0  0  0  0  0  0  0  0  0  0  0  0
  141.1409   71.1277  229.3218 H   0  0  0  0  0  0  0  0  0  0  0  0
  141.5397   72.5319  227.3003 H   0  0  0  0  0  0  0  0  0  0  0  0
  1  2  2  0
  2  3  1  0
  3  4  1  0
  4  5  1  0
  5  6  2  0
  5  7  1  0
  7  8  1  0
  8  9  1  0
  9 10  1  0
  9 11  1  0
 11 12  1  0
 11 13  1  0
 13 14  1  0
 14 15  1  0
 15 16  1  0
  2 17  1  0
 17 18  2  0
 18 19  1  0
 19 20  2  0
 20 21  1  0
 21 22  2  0
 22 23  1  0
 23 24  2  0
 24 25  1  0
 25 26  2  0
 13  7  1  0
 16 14  1  0
 26 17  1  0
 25 20  1  0
  3 27  1  0
  4 28  1  0
  4 29  1  0
  8 30  1  0
  8 31  1  0
  9 32  1  6
 10 33  1  0
 11 34  1  6
 12 35  1  0
 13 36  1  6
 14 37  1  0
 15 38  1  0
 15 39  1  0
 16 40  1  0
 16 41  1  0
 18 42  1  0
 19 43  1  0
 21 44  1  0
 22 45  1  0
 23 46  1  0
 24 47  1  0
M  END
>  <smiles>  (46) 
O=C(NCC(=O)N1C[C@H](O)[C@H](O)[C@@H]1C1CC1)c1ccc2ccccc2n1

>  <score_type>  (46) 
oracle

>  <origin>  (46) 
autodockgpu

>  <m_score__min__energy>  (46) 
-8.4399999999999995

>  <m_primary>  (46) 
energy

>  <rmsd>  (46) 
2.8677224263482715

>  <m_score__min__rmsd>  (46) 
2.8677224263482715

>  <meeko>  (46) 
{"free_energy": -7.48, "intermolecular_energy": -9.57, "internal_energy": -2.43, "cluster_size": 9, "cluster_id": 3, "rank_in_cluster": 4}

>  <energy>  (46) 
-7.1

>  <cluster_rmsd>  (46) 
0.0

>  <cluster>  (46) 
5

$$$$

     RDKit          3D

 47 50  0  0  0  0  0  0  0  0999 V2000
  139.9440   73.4950  222.5000 O   0  0  0  0  0  0  0  0  0  0  0  0
  140.3660   72.3000  222.4810 C   0  0  0  0  0  0  0  0  0  0  0  0
  140.9810   71.7230  221.3310 N   0  0  0  0  0  0  0  0  0  0  0  0
  141.1110   72.5610  220.1540 C   0  0  0  0  0  0  0  0  0  0  0  0
  142.2150   73.5380  220.3030 C   0  0  0  0  0  0  0  0  0  0  0  0
  141.9120   74.7380  220.4710 O   0  0  0  0  0  0  0  0  0  0  0  0
  143.5920   73.1990  220.2670 N   0  0  0  0  0  0  0  0  0  0  0  0
  144.6240   74.2410  220.4560 C   0  0  0  0  0  0  0  0  0  0  0  0
  145.8740   73.4160  220.8190 C   0  0  2  0  0  0  0  0  0  0  0  0
  147.0280   74.1280  220.6260 O   0  0  0  0  0  0  0  0  0  0  0  0
  145.6860   72.2820  219.8290 C   0  0  2  0  0  0  0  0  0  0  0  0
  145.8940   72.8500  218.5740 O   0  0  0  0  0  0  0  0  0  0  0  0
  144.2510   71.9290  220.0720 C   0  0  2  0  0  0  0  0  0  0  0  0
  143.6550   71.0570  219.0190 C   0  0  0  0  0  0  0  0  0  0  0  0
  144.3630   69.9470  218.3850 C   0  0  0  0  0  0  0  0  0  0  0  0
  143.2320   69.6680  219.3800 C   0  0  0  0  0  0  0  0  0  0  0  0
  140.2200   71.4820  223.6810 C   0  0  0  0  0  0  0  0  0  0  0  0
  139.5800   70.2650  223.6450 C   0  0  0  0  0  0  0  0  0  0  0  0
  139.4430   69.4910  224.7850 C   0  0  0  0  0  0  0  0  0  0  0  0
  139.9560   69.9450  225.9830 C   0  0  0  0  0  0  0  0  0  0  0  0
  139.8420   69.2070  227.1430 C   0  0  0  0  0  0  0  0  0  0  0  0
  140.3620   69.6770  228.3350 C   0  0  0  0  0  0  0  0  0  0  0  0
  141.0050   70.9130  228.3450 C   0  0  0  0  0  0  0  0  0  0  0  0
  141.1300   71.6690  227.1890 C   0  0  0  0  0  0  0  0  0  0  0  0
  140.5920   71.1600  226.0090 C   0  0  0  0  0  0  0  0  0  0  0  0
  140.7040   71.8830  224.8730 N   0  0  0  0  0  0  0  0  0  0  0  0
  141.3040   70.7360  221.3830 H   0  0  0  0  0  0  0  0  0  0  0  0
  141.3137   71.9228  219.2813 H   0  0  0  0  0  0  0  0  0  0  0  0
  140.1720   73.1184  220.0215 H   0  0  0  0  0  0  0  0  0  0  0  0
  144.7822   74.8152  219.5312 H   0  0  0  0  0  0  0  0  0  0  0  0
  144.3567   74.9877  221.2182 H   0  0  0  0  0  0  0  0  0  0  0  0
  145.9684   73.1021  221.8690 H   0  0  0  0  0  0  0  0  0  0  0  0
  147.1450   74.4080  219.6840 H   0  0  0  0  0  0  0  0  0  0  0  0
  146.3413   71.4023  219.9112 H   0  0  0  0  0  0  0  0  0  0  0  0
  146.2190   73.7630  218.6130 H   0  0  0  0  0  0  0  0  0  0  0  0
  144.1276   71.2883  220.9576 H   0  0  0  0  0  0  0  0  0  0  0  0
  143.1676   71.9511  218.6029 H   0  0  0  0  0  0  0  0  0  0  0  0
  144.2171   69.7412  217.3143 H   0  0  0  0  0  0  0  0  0  0  0  0
  145.4168   69.6435  218.2995 H   0  0  0  0  0  0  0  0  0  0  0  0
  142.2678   69.2713  219.0293 H   0  0  0  0  0  0  0  0  0  0  0  0
  143.1209   69.0914  220.3102 H   0  0  0  0  0  0  0  0  0  0  0  0
  139.1691   69.8996  222.6923 H   0  0  0  0  0  0  0  0  0  0  0  0
  138.9283   68.5201  224.7360 H   0  0  0  0  0  0  0  0  0  0  0  0
  139.3313   68.2330  227.1194 H   0  0  0  0  0  0  0  0  0  0  0  0
  140.2697   69.0860  229.2582 H   0  0  0  0  0  0  0  0  0  0  0  0
  141.4216   71.2966  229.2880 H   0  0  0  0  0  0  0  0  0  0  0  0
  141.6399   72.6436  227.2034 H   0  0  0  0  0  0  0  0  0  0  0  0
  1  2  2  0
  2  3  1  0
  3  4  1  0
  4  5  1  0
  5  6  2  0
  5  7  1  0
  7  8  1  0
  8  9  1  0
  9 10  1  0
  9 11  1  0
 11 12  1  0
 11 13  1  0
 13 14  1  0
 14 15  1  0
 15 16  1  0
  2 17  1  0
 17 18  2  0
 18 19  1  0
 19 20  2  0
 20 21  1  0
 21 22  2  0
 22 23  1  0
 23 24  2  0
 24 25  1  0
 25 26  2  0
 13  7  1  0
 16 14  1  0
 26 17  1  0
 25 20  1  0
  3 27  1  0
  4 28  1  0
  4 29  1  0
  8 30  1  0
  8 31  1  0
  9 32  1  1
 10 33  1  0
 11 34  1  1
 12 35  1  0
 13 36  1  1
 14 37  1  0
 15 38  1  0
 15 39  1  0
 16 40  1  0
 16 41  1  0
 18 42  1  0
 19 43  1  0
 21 44  1  0
 22 45  1  0
 23 46  1  0
 24 47  1  0
M  END
>  <smiles>  (47) 
O=C(NCC(=O)N1C[C@H](O)[C@H](O)[C@@H]1C1CC1)c1ccc2ccccc2n1

>  <score_type>  (47) 
oracle

>  <origin>  (47) 
autodockgpu

>  <m_score__min__energy>  (47) 
-8.4399999999999995

>  <m_primary>  (47) 
energy

>  <rmsd>  (47) 
4.0057085199607

>  <m_score__min__rmsd>  (47) 
4.0057085199607

>  <meeko>  (47) 
{"free_energy": -8.44, "intermolecular_energy": -10.52, "internal_energy": -2.31, "cluster_size": 25, "cluster_id": 1, "rank_in_cluster": 1}

>  <energy>  (47) 
-7.08

>  <cluster_rmsd>  (47) 
0.0

>  <cluster>  (47) 
6

$$$$

     RDKit          3D

 47 50  0  0  0  0  0  0  0  0999 V2000
  139.0090   75.0640  221.8650 O   0  0  0  0  0  0  0  0  0  0  0  0
  140.1530   75.5980  221.9690 C   0  0  0  0  0  0  0  0  0  0  0  0
  141.3570   74.8990  221.6590 N   0  0  0  0  0  0  0  0  0  0  0  0
  141.2320   73.5240  221.2120 C   0  0  0  0  0  0  0  0  0  0  0  0
  142.0930   73.2570  220.0360 C   0  0  0  0  0  0  0  0  0  0  0  0
  141.5550   73.2530  218.9090 O   0  0  0  0  0  0  0  0  0  0  0  0
  143.4870   73.0040  220.1080 N   0  0  0  0  0  0  0  0  0  0  0  0
  144.4330   74.1040  220.3950 C   0  0  0  0  0  0  0  0  0  0  0  0
  145.6990   73.3520  220.8470 C   0  0  2  0  0  0  0  0  0  0  0  0
  146.8170   74.1370  220.7580 O   0  0  0  0  0  0  0  0  0  0  0  0
  145.6640   72.2270  219.8310 C   0  0  2  0  0  0  0  0  0  0  0  0
  145.9350   72.8290  218.6040 O   0  0  0  0  0  0  0  0  0  0  0  0
  144.2390   71.7810  219.9510 C   0  0  2  0  0  0  0  0  0  0  0  0
  143.7860   70.8930  218.8410 C   0  0  0  0  0  0  0  0  0  0  0  0
  144.6560   69.9430  218.1530 C   0  0  0  0  0  0  0  0  0  0  0  0
  143.5780   69.4360  219.1160 C   0  0  0  0  0  0  0  0  0  0  0  0
  140.2460   76.9830  222.4220 C   0  0  0  0  0  0  0  0  0  0  0  0
  139.1210   77.7160  222.7220 C   0  0  0  0  0  0  0  0  0  0  0  0
  139.2120   79.0290  223.1520 C   0  0  0  0  0  0  0  0  0  0  0  0
  140.4530   79.6180  223.2830 C   0  0  0  0  0  0  0  0  0  0  0  0
  140.5910   80.9240  223.7090 C   0  0  0  0  0  0  0  0  0  0  0  0
  141.8420   81.4990  223.8350 C   0  0  0  0  0  0  0  0  0  0  0  0
  142.9650   80.7360  223.5250 C   0  0  0  0  0  0  0  0  0  0  0  0
  142.8470   79.4210  223.0960 C   0  0  0  0  0  0  0  0  0  0  0  0
  141.5690   78.8800  222.9820 C   0  0  0  0  0  0  0  0  0  0  0  0
  141.4340   77.6010  222.5660 N   0  0  0  0  0  0  0  0  0  0  0  0
  142.2630   75.3980  221.7670 H   0  0  0  0  0  0  0  0  0  0  0  0
  141.5279   72.8529  222.0318 H   0  0  0  0  0  0  0  0  0  0  0  0
  140.1856   73.3483  220.9218 H   0  0  0  0  0  0  0  0  0  0  0  0
  144.6285   74.7043  219.4942 H   0  0  0  0  0  0  0  0  0  0  0  0
  144.0585   74.8179  221.1435 H   0  0  0  0  0  0  0  0  0  0  0  0
  145.7279   73.0256  221.8971 H   0  0  0  0  0  0  0  0  0  0  0  0
  147.0300   74.3860  219.8240 H   0  0  0  0  0  0  0  0  0  0  0  0
  146.3656   71.3890  219.9557 H   0  0  0  0  0  0  0  0  0  0  0  0
  146.1950   73.7610  218.6810 H   0  0  0  0  0  0  0  0  0  0  0  0
  144.0857   71.1176  220.8150 H   0  0  0  0  0  0  0  0  0  0  0  0
  143.1701   71.7260  218.4712 H   0  0  0  0  0  0  0  0  0  0  0  0
  144.5466   69.7813  217.0705 H   0  0  0  0  0  0  0  0  0  0  0  0
  145.7441   69.8088  218.0631 H   0  0  0  0  0  0  0  0  0  0  0  0
  142.6867   68.9188  218.7311 H   0  0  0  0  0  0  0  0  0  0  0  0
  143.5531   68.7949  220.0095 H   0  0  0  0  0  0  0  0  0  0  0  0
  138.1300   77.2499  222.6182 H   0  0  0  0  0  0  0  0  0  0  0  0
  138.3011   79.5988  223.3876 H   0  0  0  0  0  0  0  0  0  0  0  0
  139.6948   81.5142  223.9511 H   0  0  0  0  0  0  0  0  0  0  0  0
  141.9483   82.5401  224.1739 H   0  0  0  0  0  0  0  0  0  0  0  0
  143.9649   81.1840  223.6219 H   0  0  0  0  0  0  0  0  0  0  0  0
  143.7379   78.8233  222.8530 H   0  0  0  0  0  0  0  0  0  0  0  0
  1  2  2  0
  2  3  1  0
  3  4  1  0
  4  5  1  0
  5  6  2  0
  5  7  1  0
  7  8  1  0
  8  9  1  0
  9 10  1  0
  9 11  1  0
 11 12  1  0
 11 13  1  0
 13 14  1  0
 14 15  1  0
 15 16  1  0
  2 17  1  0
 17 18  2  0
 18 19  1  0
 19 20  2  0
 20 21  1  0
 21 22  2  0
 22 23  1  0
 23 24  2  0
 24 25  1  0
 25 26  2  0
 13  7  1  0
 16 14  1  0
 26 17  1  0
 25 20  1  0
  3 27  1  0
  4 28  1  0
  4 29  1  0
  8 30  1  0
  8 31  1  0
  9 32  1  1
 10 33  1  0
 11 34  1  1
 12 35  1  0
 13 36  1  1
 14 37  1  0
 15 38  1  0
 15 39  1  0
 16 40  1  0
 16 41  1  0
 18 42  1  0
 19 43  1  0
 21 44  1  0
 22 45  1  0
 23 46  1  0
 24 47  1  0
M  END
>  <smiles>  (48) 
O=C(NCC(=O)N1C[C@H](O)[C@H](O)[C@@H]1C1CC1)c1ccc2ccccc2n1

>  <score_type>  (48) 
oracle

>  <origin>  (48) 
autodockgpu

>  <m_score__min__energy>  (48) 
-8.4399999999999995

>  <m_primary>  (48) 
energy

>  <rmsd>  (48) 
7.806371852489152

>  <m_score__min__rmsd>  (48) 
7.806371852489152

>  <meeko>  (48) 
{"free_energy": -7.78, "intermolecular_energy": -9.87, "internal_energy": -2.5, "cluster_size": 7, "cluster_id": 2, "rank_in_cluster": 1}

>  <energy>  (48) 
-7.03

>  <cluster_rmsd>  (48) 
0.14

>  <cluster>  (48) 
6

$$$$

     RDKit          3D

 47 50  0  0  0  0  0  0  0  0999 V2000
  141.2840   71.6930  221.3150 O   0  0  0  0  0  0  0  0  0  0  0  0
  140.5290   72.5860  221.8020 C   0  0  0  0  0  0  0  0  0  0  0  0
  139.3720   72.2740  222.5750 N   0  0  0  0  0  0  0  0  0  0  0  0
  139.0740   70.8710  222.7920 C   0  0  0  0  0  0  0  0  0  0  0  0
  138.6810   70.6110  224.1970 C   0  0  0  0  0  0  0  0  0  0  0  0
  137.6100   71.1110  224.6040 O   0  0  0  0  0  0  0  0  0  0  0  0
  139.4390   69.8320  225.1080 N   0  0  0  0  0  0  0  0  0  0  0  0
  139.1860   68.3810  225.2430 C   0  0  0  0  0  0  0  0  0  0  0  0
  140.4750   67.8750  225.9180 C   0  0  2  0  0  0  0  0  0  0  0  0
  140.2920   66.6550  226.5140 O   0  0  0  0  0  0  0  0  0  0  0  0
  140.6690   69.0100  226.9050 C   0  0  2  0  0  0  0  0  0  0  0  0
  139.6260   68.8870  227.8200 O   0  0  0  0  0  0  0  0  0  0  0  0
  140.5100   70.1970  226.0050 C   0  0  2  0  0  0  0  0  0  0  0  0
  140.3200   71.4860  226.7320 C   0  0  0  0  0  0  0  0  0  0  0  0
  140.4980   71.6420  228.1740 C   0  0  0  0  0  0  0  0  0  0  0  0
  141.5250   72.2370  227.2050 C   0  0  0  0  0  0  0  0  0  0  0  0
  140.8550   73.9890  221.5650 C   0  0  0  0  0  0  0  0  0  0  0  0
  141.8510   74.3570  220.6910 C   0  0  0  0  0  0  0  0  0  0  0  0
  142.1570   75.6890  220.4680 C   0  0  0  0  0  0  0  0  0  0  0  0
  141.4520   76.6700  221.1350 C   0  0  0  0  0  0  0  0  0  0  0  0
  141.7230   78.0100  220.9440 C   0  0  0  0  0  0  0  0  0  0  0  0
  141.0080   78.9810  221.6200 C   0  0  0  0  0  0  0  0  0  0  0  0
  140.0050   78.5830  222.5010 C   0  0  0  0  0  0  0  0  0  0  0  0
  139.7170   77.2410  222.7060 C   0  0  0  0  0  0  0  0  0  0  0  0
  140.4610   76.2950  222.0050 C   0  0  0  0  0  0  0  0  0  0  0  0
  140.1950   74.9830  222.1920 N   0  0  0  0  0  0  0  0  0  0  0  0
  138.7960   73.0570  222.9440 H   0  0  0  0  0  0  0  0  0  0  0  0
  138.2481   70.5742  222.1289 H   0  0  0  0  0  0  0  0  0  0  0  0
  139.9804   70.2875  222.5732 H   0  0  0  0  0  0  0  0  0  0  0  0
  138.3058   68.1887  225.8740 H   0  0  0  0  0  0  0  0  0  0  0  0
  138.9701   67.8842  224.2856 H   0  0  0  0  0  0  0  0  0  0  0  0
  141.3339   67.6849  225.2576 H   0  0  0  0  0  0  0  0  0  0  0  0
  140.0140   66.7350  227.4600 H   0  0  0  0  0  0  0  0  0  0  0  0
  141.6094   69.0524  227.4740 H   0  0  0  0  0  0  0  0  0  0  0  0
  139.3380   67.9700  227.9550 H   0  0  0  0  0  0  0  0  0  0  0  0
  141.4296   70.4154  225.4423 H   0  0  0  0  0  0  0  0  0  0  0  0
  139.4655   71.6930  226.0710 H   0  0  0  0  0  0  0  0  0  0  0  0
  139.8292   72.3051  228.7423 H   0  0  0  0  0  0  0  0  0  0  0  0
  140.5443   70.9543  229.0313 H   0  0  0  0  0  0  0  0  0  0  0  0
  141.5921   73.3260  227.0652 H   0  0  0  0  0  0  0  0  0  0  0  0
  142.6126   72.1602  227.0595 H   0  0  0  0  0  0  0  0  0  0  0  0
  142.4159   73.5777  220.1584 H   0  0  0  0  0  0  0  0  0  0  0  0
  142.9565   75.9632  219.7640 H   0  0  0  0  0  0  0  0  0  0  0  0
  142.5180   78.3090  220.2450 H   0  0  0  0  0  0  0  0  0  0  0  0
  141.2269   80.0478  221.4651 H   0  0  0  0  0  0  0  0  0  0  0  0
  139.4302   79.3472  223.0447 H   0  0  0  0  0  0  0  0  0  0  0  0
  138.9233   76.9330  223.4026 H   0  0  0  0  0  0  0  0  0  0  0  0
  1  2  2  0
  2  3  1  0
  3  4  1  0
  4  5  1  0
  5  6  2  0
  5  7  1  0
  7  8  1  0
  8  9  1  0
  9 10  1  0
  9 11  1  0
 11 12  1  0
 11 13  1  0
 13 14  1  0
 14 15  1  0
 15 16  1  0
  2 17  1  0
 17 18  2  0
 18 19  1  0
 19 20  2  0
 20 21  1  0
 21 22  2  0
 22 23  1  0
 23 24  2  0
 24 25  1  0
 25 26  2  0
 13  7  1  0
 16 14  1  0
 26 17  1  0
 25 20  1  0
  3 27  1  0
  4 28  1  0
  4 29  1  0
  8 30  1  0
  8 31  1  0
  9 32  1  6
 10 33  1  0
 11 34  1  1
 12 35  1  0
 13 36  1  6
 14 37  1  0
 15 38  1  0
 15 39  1  0
 16 40  1  0
 16 41  1  0
 18 42  1  0
 19 43  1  0
 21 44  1  0
 22 45  1  0
 23 46  1  0
 24 47  1  0
M  END
>  <smiles>  (49) 
O=C(NCC(=O)N1C[C@H](O)[C@H](O)[C@@H]1C1CC1)c1ccc2ccccc2n1

>  <score_type>  (49) 
oracle

>  <origin>  (49) 
autodockgpu

>  <m_score__min__energy>  (49) 
-8.4399999999999995

>  <m_primary>  (49) 
energy

>  <rmsd>  (49) 
8.60647554782143

>  <m_score__min__rmsd>  (49) 
8.60647554782143

>  <meeko>  (49) 
{"free_energy": -7.58, "intermolecular_energy": -9.66, "internal_energy": -2.71, "cluster_size": 4, "cluster_id": 4, "rank_in_cluster": 4}

>  <energy>  (49) 
-7.03

>  <cluster_rmsd>  (49) 
0.27

>  <cluster>  (49) 
6

$$$$

     RDKit          3D

 47 50  0  0  0  0  0  0  0  0999 V2000
  139.7240   74.3710  222.0920 O   0  0  0  0  0  0  0  0  0  0  0  0
  140.4010   75.2960  221.5510 C   0  0  0  0  0  0  0  0  0  0  0  0
  141.2260   75.0740  220.4090 N   0  0  0  0  0  0  0  0  0  0  0  0
  141.2710   73.7270  219.8710 C   0  0  0  0  0  0  0  0  0  0  0  0
  142.1460   72.8480  220.6810 C   0  0  0  0  0  0  0  0  0  0  0  0
  141.6140   72.1700  221.5860 O   0  0  0  0  0  0  0  0  0  0  0  0
  143.5470   72.7260  220.4960 N   0  0  0  0  0  0  0  0  0  0  0  0
  144.4320   73.8950  220.6910 C   0  0  0  0  0  0  0  0  0  0  0  0
  145.8170   73.2440  220.8680 C   0  0  2  0  0  0  0  0  0  0  0  0
  146.8320   74.1370  220.6430 O   0  0  0  0  0  0  0  0  0  0  0  0
  145.6990   72.1760  219.7980 C   0  0  2  0  0  0  0  0  0  0  0  0
  145.6970   72.8650  218.5860 O   0  0  0  0  0  0  0  0  0  0  0  0
  144.3610   71.5910  220.1300 C   0  0  2  0  0  0  0  0  0  0  0  0
  143.7960   70.7230  219.0550 C   0  0  0  0  0  0  0  0  0  0  0  0
  144.3430   69.4190  218.6900 C   0  0  0  0  0  0  0  0  0  0  0  0
  143.0110   69.5080  219.4410 C   0  0  0  0  0  0  0  0  0  0  0  0
  140.3360   76.6400  222.1160 C   0  0  0  0  0  0  0  0  0  0  0  0
  139.1500   77.1720  222.5660 C   0  0  0  0  0  0  0  0  0  0  0  0
  139.0910   78.4480  223.1010 C   0  0  0  0  0  0  0  0  0  0  0  0
  140.2420   79.2040  223.1860 C   0  0  0  0  0  0  0  0  0  0  0  0
  140.2310   80.4800  223.7120 C   0  0  0  0  0  0  0  0  0  0  0  0
  141.3930   81.2250  223.7900 C   0  0  0  0  0  0  0  0  0  0  0  0
  142.5810   80.6640  223.3270 C   0  0  0  0  0  0  0  0  0  0  0  0
  142.6130   79.3820  222.7950 C   0  0  0  0  0  0  0  0  0  0  0  0
  141.4200   78.6660  222.7340 C   0  0  0  0  0  0  0  0  0  0  0  0
  141.4320   77.4170  222.2200 N   0  0  0  0  0  0  0  0  0  0  0  0
  141.7560   75.8770  220.0160 H   0  0  0  0  0  0  0  0  0  0  0  0
  140.2530   73.3103  219.8648 H   0  0  0  0  0  0  0  0  0  0  0  0
  141.6801   73.7761  218.8511 H   0  0  0  0  0  0  0  0  0  0  0  0
  144.4141   74.5572  219.8128 H   0  0  0  0  0  0  0  0  0  0  0  0
  144.1363   74.5303  221.5389 H   0  0  0  0  0  0  0  0  0  0  0  0
  146.0580   72.8666  221.8727 H   0  0  0  0  0  0  0  0  0  0  0  0
  146.9210   74.3720  219.6850 H   0  0  0  0  0  0  0  0  0  0  0  0
  146.4802   71.4036  219.7426 H   0  0  0  0  0  0  0  0  0  0  0  0
  145.9880   73.7870  218.6680 H   0  0  0  0  0  0  0  0  0  0  0  0
  144.4199   70.8725  220.9609 H   0  0  0  0  0  0  0  0  0  0  0  0
  143.6107   71.6328  218.4651 H   0  0  0  0  0  0  0  0  0  0  0  0
  144.3602   69.1053  217.6358 H   0  0  0  0  0  0  0  0  0  0  0  0
  145.2985   68.9012  218.8597 H   0  0  0  0  0  0  0  0  0  0  0  0
  142.0668   69.2699  218.9294 H   0  0  0  0  0  0  0  0  0  0  0  0
  142.5992   69.0952  220.3737 H   0  0  0  0  0  0  0  0  0  0  0  0
  138.2304   76.5721  222.4996 H   0  0  0  0  0  0  0  0  0  0  0  0
  138.1330   78.8560  223.4557 H   0  0  0  0  0  0  0  0  0  0  0  0
  139.2853   80.9098  224.0739 H   0  0  0  0  0  0  0  0  0  0  0  0
  141.3797   82.2417  224.2098 H   0  0  0  0  0  0  0  0  0  0  0  0
  143.5115   81.2479  223.3840 H   0  0  0  0  0  0  0  0  0  0  0  0
  143.5544   78.9440  222.4318 H   0  0  0  0  0  0  0  0  0  0  0  0
  1  2  2  0
  2  3  1  0
  3  4  1  0
  4  5  1  0
  5  6  2  0
  5  7  1  0
  7  8  1  0
  8  9  1  0
  9 10  1  0
  9 11  1  0
 11 12  1  0
 11 13  1  0
 13 14  1  0
 14 15  1  0
 15 16  1  0
  2 17  1  0
 17 18  2  0
 18 19  1  0
 19 20  2  0
 20 21  1  0
 21 22  2  0
 22 23  1  0
 23 24  2  0
 24 25  1  0
 25 26  2  0
 13  7  1  0
 16 14  1  0
 26 17  1  0
 25 20  1  0
  3 27  1  0
  4 28  1  0
  4 29  1  0
  8 30  1  0
  8 31  1  0
  9 32  1  1
 10 33  1  0
 11 34  1  6
 12 35  1  0
 13 36  1  1
 14 37  1  0
 15 38  1  0
 15 39  1  0
 16 40  1  0
 16 41  1  0
 18 42  1  0
 19 43  1  0
 21 44  1  0
 22 45  1  0
 23 46  1  0
 24 47  1  0
M  END
>  <smiles>  (50) 
O=C(NCC(=O)N1C[C@H](O)[C@H](O)[C@@H]1C1CC1)c1ccc2ccccc2n1

>  <score_type>  (50) 
oracle

>  <origin>  (50) 
autodockgpu

>  <m_score__min__energy>  (50) 
-8.4399999999999995

>  <m_primary>  (50) 
energy

>  <rmsd>  (50) 
7.687272807449248

>  <m_score__min__rmsd>  (50) 
7.687272807449248

>  <meeko>  (50) 
{"free_energy": -7.56, "intermolecular_energy": -9.65, "internal_energy": -2.47, "cluster_size": 7, "cluster_id": 2, "rank_in_cluster": 5}

>  <energy>  (50) 
-6.98

>  <cluster_rmsd>  (50) 
0.29

>  <cluster>  (50) 
6

$$$$
