
     RDKit          3D

 47 50  0  0  0  0  0  0  0  0999 V2000
  138.4030   74.9720  220.2450 O   0  0  0  0  0  0  0  0  0  0  0  0
  139.1460   74.8970  221.2630 C   0  0  0  0  0  0  0  0  0  0  0  0
  138.8220   75.4940  222.5110 N   0  0  0  0  0  0  0  0  0  0  0  0
  137.5760   76.2560  222.7040 C   0  0  0  0  0  0  0  0  0  0  0  0
  137.8990   77.6520  222.4710 C   0  0  0  0  0  0  0  0  0  0  0  0
  136.9220   78.4740  222.3540 O   0  0  0  0  0  0  0  0  0  0  0  0
  139.1890   78.2260  222.3520 N   0  0  0  0  0  0  0  0  0  0  0  0
  139.8380   78.3910  221.0470 C   0  0  0  0  0  0  0  0  0  0  0  0
  141.3250   78.4100  221.2940 C   0  0  2  0  0  0  0  0  0  0  0  0
  141.9490   77.4250  220.5320 O   0  0  0  0  0  0  0  0  0  0  0  0
  141.4420   78.1560  222.7860 C   0  0  2  0  0  0  0  0  0  0  0  0
  141.3940   76.7780  222.9720 O   0  0  0  0  0  0  0  0  0  0  0  0
  140.1210   78.7270  223.3050 C   0  0  1  0  0  0  0  0  0  0  0  0
  140.1930   80.1920  223.5020 C   0  0  0  0  0  0  0  0  0  0  0  0
  138.8810   80.8920  223.8450 C   0  0  0  0  0  0  0  0  0  0  0  0
  139.6670   81.2230  222.6160 C   0  0  0  0  0  0  0  0  0  0  0  0
  140.4100   74.1460  221.1290 C   0  0  0  0  0  0  0  0  0  0  0  0
  140.4620   72.7910  221.3250 C   0  0  0  0  0  0  0  0  0  0  0  0
  141.6370   72.1190  221.1970 C   0  0  0  0  0  0  0  0  0  0  0  0
  142.8040   72.7820  220.8660 C   0  0  0  0  0  0  0  0  0  0  0  0
  144.0040   72.1230  220.7300 C   0  0  0  0  0  0  0  0  0  0  0  0
  145.1310   72.8440  220.3990 C   0  0  0  0  0  0  0  0  0  0  0  0
  146.3030   72.1550  220.2730 F   0  0  0  0  0  0  0  0  0  0  0  0
  145.0720   74.2220  220.2000 C   0  0  0  0  0  0  0  0  0  0  0  0
  143.8650   74.8830  220.3360 C   0  0  0  0  0  0  0  0  0  0  0  0
  142.7380   74.1530  220.6690 C   0  0  0  0  0  0  0  0  0  0  0  0
  141.5600   74.7890  220.8040 N   0  0  0  0  0  0  0  0  0  0  0  0
  139.5140   75.3630  223.2800 H   0  0  0  0  0  0  0  0  0  0  0  0
  136.8114   75.9195  221.9884 H   0  0  0  0  0  0  0  0  0  0  0  0
  137.1746   76.1071  223.7173 H   0  0  0  0  0  0  0  0  0  0  0  0
  139.5755   77.5521  220.3857 H   0  0  0  0  0  0  0  0  0  0  0  0
  139.5090   79.3205  220.5595 H   0  0  0  0  0  0  0  0  0  0  0  0
  141.8147   79.3517  221.0053 H   0  0  0  0  0  0  0  0  0  0  0  0
  142.3550   76.7740  221.1710 H   0  0  0  0  0  0  0  0  0  0  0  0
  142.3443   78.5723  223.2579 H   0  0  0  0  0  0  0  0  0  0  0  0
  141.8820   76.2910  222.2750 H   0  0  0  0  0  0  0  0  0  0  0  0
  139.8227   78.4204  224.3184 H   0  0  0  0  0  0  0  0  0  0  0  0
  141.2036   80.0518  223.9130 H   0  0  0  0  0  0  0  0  0  0  0  0
  137.9255   80.3528  223.7659 H   0  0  0  0  0  0  0  0  0  0  0  0
  138.4839   81.4514  224.7048 H   0  0  0  0  0  0  0  0  0  0  0  0
  139.2746   80.9421  221.6275 H   0  0  0  0  0  0  0  0  0  0  0  0
  140.0771   82.1544  222.1984 H   0  0  0  0  0  0  0  0  0  0  0  0
  139.5456   72.2423  221.5881 H   0  0  0  0  0  0  0  0  0  0  0  0
  141.6594   71.0313  221.3593 H   0  0  0  0  0  0  0  0  0  0  0  0
  144.0632   71.0354  220.8834 H   0  0  0  0  0  0  0  0  0  0  0  0
  145.9815   74.7815  219.9359 H   0  0  0  0  0  0  0  0  0  0  0  0
  143.8021   75.9704  220.1821 H   0  0  0  0  0  0  0  0  0  0  0  0
  1  2  2  0
  2  3  1  0
  3  4  1  0
  4  5  1  0
  5  6  2  0
  5  7  1  0
  7  8  1  0
  8  9  1  0
  9 10  1  0
  9 11  1  0
 11 12  1  0
 11 13  1  0
 13 14  1  0
 14 15  1  0
 15 16  1  0
  2 17  1  0
 17 18  2  0
 18 19  1  0
 19 20  2  0
 20 21  1  0
 21 22  2  0
 22 23  1  0
 22 24  1  0
 24 25  2  0
 25 26  1  0
 26 27  2  0
 13  7  1  0
 16 14  1  0
 27 17  1  0
 26 20  1  0
  3 28  1  0
  4 29  1  0
  4 30  1  0
  8 31  1  0
  8 32  1  0
  9 33  1  1
 10 34  1  0
 11 35  1  1
 12 36  1  0
 13 37  1  1
 14 38  1  0
 15 39  1  0
 15 40  1  0
 16 41  1  0
 16 42  1  0
 18 43  1  0
 19 44  1  0
 21 45  1  0
 24 46  1  0
 25 47  1  0
M  END
>  <smiles>  (1) 
O=C(NCC(=O)N1C[C@H](O)[C@H](O)[C@H]1C1CC1)c1ccc2cc(F)ccc2n1

>  <score_type>  (1) 
oracle

>  <origin>  (1) 
autodockgpu

>  <m_score__min__energy>  (1) 
-7.7000000000000002

>  <m_primary>  (1) 
energy

>  <rmsd>  (1) 
6.0473868970641576

>  <m_score__min__rmsd>  (1) 
6.0473868970641576

>  <meeko>  (1) 
{"free_energy": -5.72, "intermolecular_energy": -7.81, "internal_energy": -4.78, "cluster_size": 24, "cluster_id": 4, "rank_in_cluster": 5}

>  <energy>  (1) 
-7.7

>  <cluster_rmsd>  (1) 
0.0

>  <cluster>  (1) 
1

$$$$

     RDKit          3D

 47 50  0  0  0  0  0  0  0  0999 V2000
  139.5110   75.0980  222.6920 O   0  0  0  0  0  0  0  0  0  0  0  0
  139.6690   74.7840  221.4800 C   0  0  0  0  0  0  0  0  0  0  0  0
  138.7780   75.1830  220.4480 N   0  0  0  0  0  0  0  0  0  0  0  0
  137.5870   76.0040  220.7300 C   0  0  0  0  0  0  0  0  0  0  0  0
  137.9900   77.0100  221.6960 C   0  0  0  0  0  0  0  0  0  0  0  0
  137.1890   77.2510  222.6670 O   0  0  0  0  0  0  0  0  0  0  0  0
  139.1830   77.7730  221.6920 N   0  0  0  0  0  0  0  0  0  0  0  0
  140.0200   77.8810  220.4930 C   0  0  0  0  0  0  0  0  0  0  0  0
  141.4230   78.1810  220.9600 C   0  0  2  0  0  0  0  0  0  0  0  0
  142.3070   77.2280  220.4600 O   0  0  0  0  0  0  0  0  0  0  0  0
  141.3100   78.1380  222.4730 C   0  0  2  0  0  0  0  0  0  0  0  0
  141.4320   76.8050  222.8560 O   0  0  0  0  0  0  0  0  0  0  0  0
  139.8510   78.5380  222.6910 C   0  0  1  0  0  0  0  0  0  0  0  0
  139.6730   80.0080  222.6730 C   0  0  0  0  0  0  0  0  0  0  0  0
  140.6920   80.8200  223.4690 C   0  0  0  0  0  0  0  0  0  0  0  0
  139.2290   80.8510  223.7760 C   0  0  0  0  0  0  0  0  0  0  0  0
  140.8460   73.9610  221.1380 C   0  0  0  0  0  0  0  0  0  0  0  0
  140.7510   72.6000  220.9970 C   0  0  0  0  0  0  0  0  0  0  0  0
  141.8480   71.8600  220.6810 C   0  0  0  0  0  0  0  0  0  0  0  0
  143.0800   72.4580  220.4940 C   0  0  0  0  0  0  0  0  0  0  0  0
  144.2020   71.7300  220.1740 C   0  0  0  0  0  0  0  0  0  0  0  0
  145.4020   72.3880  220.0020 C   0  0  0  0  0  0  0  0  0  0  0  0
  146.4930   71.6310  219.6840 F   0  0  0  0  0  0  0  0  0  0  0  0
  145.4920   73.7710  220.1460 C   0  0  0  0  0  0  0  0  0  0  0  0
  144.3620   74.5010  220.4670 C   0  0  0  0  0  0  0  0  0  0  0  0
  143.1620   73.8350  220.6390 C   0  0  0  0  0  0  0  0  0  0  0  0
  142.0590   74.5390  220.9520 N   0  0  0  0  0  0  0  0  0  0  0  0
  139.0130   74.8640  219.4840 H   0  0  0  0  0  0  0  0  0  0  0  0
  137.2321   76.4859  219.8071 H   0  0  0  0  0  0  0  0  0  0  0  0
  136.7659   75.3863  221.1227 H   0  0  0  0  0  0  0  0  0  0  0  0
  140.0025   76.9341  219.9335 H   0  0  0  0  0  0  0  0  0  0  0  0
  139.6502   78.6739  219.8262 H   0  0  0  0  0  0  0  0  0  0  0  0
  141.8151   79.1479  220.6117 H   0  0  0  0  0  0  0  0  0  0  0  0
  142.5430   76.6220  221.2190 H   0  0  0  0  0  0  0  0  0  0  0  0
  142.0444   78.7565  223.0097 H   0  0  0  0  0  0  0  0  0  0  0  0
  141.3330   76.1900  222.0990 H   0  0  0  0  0  0  0  0  0  0  0  0
  139.4282   78.3136  223.6814 H   0  0  0  0  0  0  0  0  0  0  0  0
  139.2888   79.9145  221.6465 H   0  0  0  0  0  0  0  0  0  0  0  0
  141.3932   80.3173  224.1514 H   0  0  0  0  0  0  0  0  0  0  0  0
  141.4674   81.5643  223.2350 H   0  0  0  0  0  0  0  0  0  0  0  0
  138.8576   80.3853  224.7008 H   0  0  0  0  0  0  0  0  0  0  0  0
  138.4850   81.6556  223.8715 H   0  0  0  0  0  0  0  0  0  0  0  0
  139.7803   72.1029  221.1405 H   0  0  0  0  0  0  0  0  0  0  0  0
  141.7531   70.7695  220.5727 H   0  0  0  0  0  0  0  0  0  0  0  0
  144.1433   70.6378  220.0568 H   0  0  0  0  0  0  0  0  0  0  0  0
  146.4571   74.2797  220.0051 H   0  0  0  0  0  0  0  0  0  0  0  0
  144.4167   75.5934  220.5836 H   0  0  0  0  0  0  0  0  0  0  0  0
  1  2  2  0
  2  3  1  0
  3  4  1  0
  4  5  1  0
  5  6  2  0
  5  7  1  0
  7  8  1  0
  8  9  1  0
  9 10  1  0
  9 11  1  0
 11 12  1  0
 11 13  1  0
 13 14  1  0
 14 15  1  0
 15 16  1  0
  2 17  1  0
 17 18  2  0
 18 19  1  0
 19 20  2  0
 20 21  1  0
 21 22  2  0
 22 23  1  0
 22 24  1  0
 24 25  2  0
 25 26  1  0
 26 27  2  0
 13  7  1  0
 16 14  1  0
 27 17  1  0
 26 20  1  0
  3 28  1  0
  4 29  1  0
  4 30  1  0
  8 31  1  0
  8 32  1  0
  9 33  1  1
 10 34  1  0
 11 35  1  1
 12 36  1  0
 13 37  1  1
 14 38  1  0
 15 39  1  0
 15 40  1  0
 16 41  1  0
 16 42  1  0
 18 43  1  0
 19 44  1  0
 21 45  1  0
 24 46  1  0
 25 47  1  0
M  END
>  <smiles>  (2) 
O=C(NCC(=O)N1C[C@H](O)[C@H](O)[C@H]1C1CC1)c1ccc2cc(F)ccc2n1

>  <score_type>  (2) 
oracle

>  <origin>  (2) 
autodockgpu

>  <m_score__min__energy>  (2) 
-7.7000000000000002

>  <m_primary>  (2) 
energy

>  <rmsd>  (2) 
5.932461954744793

>  <m_score__min__rmsd>  (2) 
5.932461954744793

>  <meeko>  (2) 
{"free_energy": -5.36, "intermolecular_energy": -7.45, "internal_energy": -4.68, "cluster_size": 24, "cluster_id": 4, "rank_in_cluster": 23}

>  <energy>  (2) 
-7.59

>  <cluster_rmsd>  (2) 
0.16

>  <cluster>  (2) 
1

$$$$

     RDKit          3D

 47 50  0  0  0  0  0  0  0  0999 V2000
  140.3230   73.6850  222.3480 O   0  0  0  0  0  0  0  0  0  0  0  0
  140.3320   72.4420  222.1320 C   0  0  0  0  0  0  0  0  0  0  0  0
  140.4770   71.8750  220.8370 N   0  0  0  0  0  0  0  0  0  0  0  0
  140.6270   72.7170  219.6370 C   0  0  0  0  0  0  0  0  0  0  0  0
  141.9250   72.4060  219.0660 C   0  0  0  0  0  0  0  0  0  0  0  0
  141.9810   71.4550  218.2080 O   0  0  0  0  0  0  0  0  0  0  0  0
  143.1610   73.0370  219.3500 N   0  0  0  0  0  0  0  0  0  0  0  0
  144.3880   72.6800  218.6300 C   0  0  0  0  0  0  0  0  0  0  0  0
  145.5450   73.0170  219.5370 C   0  0  2  0  0  0  0  0  0  0  0  0
  146.3410   71.8900  219.7330 O   0  0  0  0  0  0  0  0  0  0  0  0
  144.8710   73.4860  220.8140 C   0  0  2  0  0  0  0  0  0  0  0  0
  144.5710   72.3510  221.5610 O   0  0  0  0  0  0  0  0  0  0  0  0
  143.5470   74.0400  220.2850 C   0  0  1  0  0  0  0  0  0  0  0  0
  143.6880   75.4290  219.7930 C   0  0  0  0  0  0  0  0  0  0  0  0
  142.4200   76.2790  219.8010 C   0  0  0  0  0  0  0  0  0  0  0  0
  143.1710   75.9740  218.5440 C   0  0  0  0  0  0  0  0  0  0  0  0
  140.1840   71.5470  223.2970 C   0  0  0  0  0  0  0  0  0  0  0  0
  139.5620   70.3310  223.1920 C   0  0  0  0  0  0  0  0  0  0  0  0
  139.4360   69.5220  224.2780 C   0  0  0  0  0  0  0  0  0  0  0  0
  139.9300   69.9040  225.5110 C   0  0  0  0  0  0  0  0  0  0  0  0
  139.8140   69.1030  226.6230 C   0  0  0  0  0  0  0  0  0  0  0  0
  140.3280   69.5450  227.8240 C   0  0  0  0  0  0  0  0  0  0  0  0
  140.1950   68.7220  228.9050 F   0  0  0  0  0  0  0  0  0  0  0  0
  140.9600   70.7830  227.9260 C   0  0  0  0  0  0  0  0  0  0  0  0
  141.0760   71.5870  226.8060 C   0  0  0  0  0  0  0  0  0  0  0  0
  140.5570   71.1380  225.6050 C   0  0  0  0  0  0  0  0  0  0  0  0
  140.6660   71.9150  224.5120 N   0  0  0  0  0  0  0  0  0  0  0  0
  140.4710   70.8340  220.7840 H   0  0  0  0  0  0  0  0  0  0  0  0
  139.8306   72.4899  218.9130 H   0  0  0  0  0  0  0  0  0  0  0  0
  140.5535   73.7845  219.8921 H   0  0  0  0  0  0  0  0  0  0  0  0
  144.3906   71.6048  218.3979 H   0  0  0  0  0  0  0  0  0  0  0  0
  144.4603   73.2303  217.6803 H   0  0  0  0  0  0  0  0  0  0  0  0
  146.2232   73.7835  219.1338 H   0  0  0  0  0  0  0  0  0  0  0  0
  146.4290   71.7630  220.7200 H   0  0  0  0  0  0  0  0  0  0  0  0
  145.4613   74.1923  221.4162 H   0  0  0  0  0  0  0  0  0  0  0  0
  145.1790   71.6060  221.3660 H   0  0  0  0  0  0  0  0  0  0  0  0
  142.7496   74.1879  221.0281 H   0  0  0  0  0  0  0  0  0  0  0  0
  144.7074   75.4350  220.2064 H   0  0  0  0  0  0  0  0  0  0  0  0
  141.4406   75.8154  219.9904 H   0  0  0  0  0  0  0  0  0  0  0  0
  142.0799   77.1879  220.3188 H   0  0  0  0  0  0  0  0  0  0  0  0
  142.7293   75.2977  217.7973 H   0  0  0  0  0  0  0  0  0  0  0  0
  143.6029   76.5915  217.7426 H   0  0  0  0  0  0  0  0  0  0  0  0
  139.1609   70.0060  222.2207 H   0  0  0  0  0  0  0  0  0  0  0  0
  138.9334   68.5491  224.1735 H   0  0  0  0  0  0  0  0  0  0  0  0
  139.3181   68.1234  226.5554 H   0  0  0  0  0  0  0  0  0  0  0  0
  141.3646   71.1192  228.8921 H   0  0  0  0  0  0  0  0  0  0  0  0
  141.5725   72.5665  226.8695 H   0  0  0  0  0  0  0  0  0  0  0  0
  1  2  2  0
  2  3  1  0
  3  4  1  0
  4  5  1  0
  5  6  2  0
  5  7  1  0
  7  8  1  0
  8  9  1  0
  9 10  1  0
  9 11  1  0
 11 12  1  0
 11 13  1  0
 13 14  1  0
 14 15  1  0
 15 16  1  0
  2 17  1  0
 17 18  2  0
 18 19  1  0
 19 20  2  0
 20 21  1  0
 21 22  2  0
 22 23  1  0
 22 24  1  0
 24 25  2  0
 25 26  1  0
 26 27  2  0
 13  7  1  0
 16 14  1  0
 27 17  1  0
 26 20  1  0
  3 28  1  0
  4 29  1  0
  4 30  1  0
  8 31  1  0
  8 32  1  0
  9 33  1  6
 10 34  1  0
 11 35  1  1
 12 36  1  0
 13 37  1  1
 14 38  1  0
 15 39  1  0
 15 40  1  0
 16 41  1  0
 16 42  1  0
 18 43  1  0
 19 44  1  0
 21 45  1  0
 24 46  1  0
 25 47  1  0
M  END
>  <smiles>  (3) 
O=C(NCC(=O)N1C[C@H](O)[C@H](O)[C@H]1C1CC1)c1ccc2cc(F)ccc2n1

>  <score_type>  (3) 
oracle

>  <origin>  (3) 
autodockgpu

>  <m_score__min__energy>  (3) 
-7.7000000000000002

>  <m_primary>  (3) 
energy

>  <rmsd>  (3) 
3.7444872600988024

>  <m_score__min__rmsd>  (3) 
3.7444872600988024

>  <meeko>  (3) 
{"free_energy": -7.59, "intermolecular_energy": -9.68, "internal_energy": -2.62, "cluster_size": 11, "cluster_id": 1, "rank_in_cluster": 2}

>  <energy>  (3) 
-7.4

>  <cluster_rmsd>  (3) 
1.71

>  <cluster>  (3) 
1

$$$$

     RDKit          3D

 47 50  0  0  0  0  0  0  0  0999 V2000
  138.9280   75.7910  220.1520 O   0  0  0  0  0  0  0  0  0  0  0  0
  139.3930   75.2940  221.2150 C   0  0  0  0  0  0  0  0  0  0  0  0
  138.8180   75.5120  222.4960 N   0  0  0  0  0  0  0  0  0  0  0  0
  137.6200   76.3510  222.6720 C   0  0  0  0  0  0  0  0  0  0  0  0
  137.9700   77.6840  222.2160 C   0  0  0  0  0  0  0  0  0  0  0  0
  137.0290   78.4160  221.7460 O   0  0  0  0  0  0  0  0  0  0  0  0
  139.2550   78.2830  222.2240 N   0  0  0  0  0  0  0  0  0  0  0  0
  139.9970   78.5230  220.9820 C   0  0  0  0  0  0  0  0  0  0  0  0
  141.4610   78.5530  221.3430 C   0  0  2  0  0  0  0  0  0  0  0  0
  142.1590   77.6160  220.5840 O   0  0  0  0  0  0  0  0  0  0  0  0
  141.4680   78.2270  222.8250 C   0  0  2  0  0  0  0  0  0  0  0  0
  141.4340   76.8410  222.9410 O   0  0  0  0  0  0  0  0  0  0  0  0
  140.1020   78.7510  223.2690 C   0  0  1  0  0  0  0  0  0  0  0  0
  140.1300   80.2050  223.5410 C   0  0  0  0  0  0  0  0  0  0  0  0
  138.7940   80.8520  223.8960 C   0  0  0  0  0  0  0  0  0  0  0  0
  139.5900   81.2660  222.6990 C   0  0  0  0  0  0  0  0  0  0  0  0
  140.5950   74.4450  221.1000 C   0  0  0  0  0  0  0  0  0  0  0  0
  140.5430   73.0940  221.3280 C   0  0  0  0  0  0  0  0  0  0  0  0
  141.6620   72.3300  221.2170 C   0  0  0  0  0  0  0  0  0  0  0  0
  142.8770   72.8930  220.8730 C   0  0  0  0  0  0  0  0  0  0  0  0
  144.0220   72.1410  220.7540 C   0  0  0  0  0  0  0  0  0  0  0  0
  145.2020   72.7650  220.4080 C   0  0  0  0  0  0  0  0  0  0  0  0
  146.3170   71.9850  220.3000 F   0  0  0  0  0  0  0  0  0  0  0  0
  145.2500   74.1380  220.1770 C   0  0  0  0  0  0  0  0  0  0  0  0
  144.0970   74.8940  220.2970 C   0  0  0  0  0  0  0  0  0  0  0  0
  142.9170   74.2610  220.6450 C   0  0  0  0  0  0  0  0  0  0  0  0
  141.7920   74.9890  220.7620 N   0  0  0  0  0  0  0  0  0  0  0  0
  139.2910   75.0490  223.3010 H   0  0  0  0  0  0  0  0  0  0  0  0
  136.7875   75.9526  222.0735 H   0  0  0  0  0  0  0  0  0  0  0  0
  137.2998   76.3655  223.7242 H   0  0  0  0  0  0  0  0  0  0  0  0
  139.8016   77.7141  220.2627 H   0  0  0  0  0  0  0  0  0  0  0  0
  139.6876   79.4703  220.5162 H   0  0  0  0  0  0  0  0  0  0  0  0
  141.9541   79.5149  221.1389 H   0  0  0  0  0  0  0  0  0  0  0  0
  142.5610   76.9630  221.2240 H   0  0  0  0  0  0  0  0  0  0  0  0
  142.3235   78.6338  223.3841 H   0  0  0  0  0  0  0  0  0  0  0  0
  141.8750   76.3940  222.1880 H   0  0  0  0  0  0  0  0  0  0  0  0
  139.7345   78.3907  224.2412 H   0  0  0  0  0  0  0  0  0  0  0  0
  141.1373   80.0706  223.9621 H   0  0  0  0  0  0  0  0  0  0  0  0
  137.8549   80.2925  223.7732 H   0  0  0  0  0  0  0  0  0  0  0  0
  138.3682   81.3563  224.7760 H   0  0  0  0  0  0  0  0  0  0  0  0
  139.2211   81.0256  221.6910 H   0  0  0  0  0  0  0  0  0  0  0  0
  139.9811   82.2280  222.3362 H   0  0  0  0  0  0  0  0  0  0  0  0
  139.5873   72.6241  221.6032 H   0  0  0  0  0  0  0  0  0  0  0  0
  141.5998   71.2477  221.4036 H   0  0  0  0  0  0  0  0  0  0  0  0
  143.9970   71.0559  220.9325 H   0  0  0  0  0  0  0  0  0  0  0  0
  146.1999   74.6190  219.9005 H   0  0  0  0  0  0  0  0  0  0  0  0
  144.1184   75.9793  220.1188 H   0  0  0  0  0  0  0  0  0  0  0  0
  1  2  2  0
  2  3  1  0
  3  4  1  0
  4  5  1  0
  5  6  2  0
  5  7  1  0
  7  8  1  0
  8  9  1  0
  9 10  1  0
  9 11  1  0
 11 12  1  0
 11 13  1  0
 13 14  1  0
 14 15  1  0
 15 16  1  0
  2 17  1  0
 17 18  2  0
 18 19  1  0
 19 20  2  0
 20 21  1  0
 21 22  2  0
 22 23  1  0
 22 24  1  0
 24 25  2  0
 25 26  1  0
 26 27  2  0
 13  7  1  0
 16 14  1  0
 27 17  1  0
 26 20  1  0
  3 28  1  0
  4 29  1  0
  4 30  1  0
  8 31  1  0
  8 32  1  0
  9 33  1  1
 10 34  1  0
 11 35  1  1
 12 36  1  0
 13 37  1  1
 14 38  1  0
 15 39  1  0
 15 40  1  0
 16 41  1  0
 16 42  1  0
 18 43  1  0
 19 44  1  0
 21 45  1  0
 24 46  1  0
 25 47  1  0
M  END
>  <smiles>  (4) 
O=C(NCC(=O)N1C[C@H](O)[C@H](O)[C@H]1C1CC1)c1ccc2cc(F)ccc2n1

>  <score_type>  (4) 
oracle

>  <origin>  (4) 
autodockgpu

>  <m_score__min__energy>  (4) 
-7.7000000000000002

>  <m_primary>  (4) 
energy

>  <rmsd>  (4) 
6.12801128230767

>  <m_score__min__rmsd>  (4) 
6.12801128230767

>  <meeko>  (4) 
{"free_energy": -5.93, "intermolecular_energy": -8.02, "internal_energy": -4.47, "cluster_size": 24, "cluster_id": 4, "rank_in_cluster": 1}

>  <energy>  (4) 
-7.37

>  <cluster_rmsd>  (4) 
1.71

>  <cluster>  (4) 
1

$$$$

     RDKit          3D

 47 50  0  0  0  0  0  0  0  0999 V2000
  138.2170   74.4660  220.4510 O   0  0  0  0  0  0  0  0  0  0  0  0
  139.0820   74.6220  221.3560 C   0  0  0  0  0  0  0  0  0  0  0  0
  138.8700   75.4260  222.5080 N   0  0  0  0  0  0  0  0  0  0  0  0
  137.6020   76.1460  222.7250 C   0  0  0  0  0  0  0  0  0  0  0  0
  137.9080   77.5630  222.6570 C   0  0  0  0  0  0  0  0  0  0  0  0
  136.9330   78.3860  222.7810 O   0  0  0  0  0  0  0  0  0  0  0  0
  139.1800   78.1580  222.4620 N   0  0  0  0  0  0  0  0  0  0  0  0
  139.7710   78.2840  221.1260 C   0  0  0  0  0  0  0  0  0  0  0  0
  141.2660   78.3440  221.3090 C   0  0  2  0  0  0  0  0  0  0  0  0
  141.8790   77.3420  220.5610 O   0  0  0  0  0  0  0  0  0  0  0  0
  141.4490   78.1510  222.8040 C   0  0  2  0  0  0  0  0  0  0  0  0
  141.4390   76.7800  223.0460 O   0  0  0  0  0  0  0  0  0  0  0  0
  140.1390   78.7150  223.3550 C   0  0  1  0  0  0  0  0  0  0  0  0
  140.1870   80.1880  223.4930 C   0  0  0  0  0  0  0  0  0  0  0  0
  138.8860   80.8700  223.9110 C   0  0  0  0  0  0  0  0  0  0  0  0
  139.5660   81.1720  222.6140 C   0  0  0  0  0  0  0  0  0  0  0  0
  140.3740   73.9260  221.1910 C   0  0  0  0  0  0  0  0  0  0  0  0
  140.4720   72.5630  221.2980 C   0  0  0  0  0  0  0  0  0  0  0  0
  141.6710   71.9420  221.1430 C   0  0  0  0  0  0  0  0  0  0  0  0
  142.8180   72.6660  220.8740 C   0  0  0  0  0  0  0  0  0  0  0  0
  144.0420   72.0590  220.7130 C   0  0  0  0  0  0  0  0  0  0  0  0
  145.1470   72.8390  220.4470 C   0  0  0  0  0  0  0  0  0  0  0  0
  146.3440   72.2010  220.2930 F   0  0  0  0  0  0  0  0  0  0  0  0
  145.0420   74.2250  220.3390 C   0  0  0  0  0  0  0  0  0  0  0  0
  143.8110   74.8330  220.5010 C   0  0  0  0  0  0  0  0  0  0  0  0
  142.7060   74.0440  220.7680 C   0  0  0  0  0  0  0  0  0  0  0  0
  141.5050   74.6290  220.9270 N   0  0  0  0  0  0  0  0  0  0  0  0
  139.6580   75.4790  223.1880 H   0  0  0  0  0  0  0  0  0  0  0  0
  136.8755   75.8775  221.9439 H   0  0  0  0  0  0  0  0  0  0  0  0
  137.1604   75.8836  223.6977 H   0  0  0  0  0  0  0  0  0  0  0  0
  139.5005   77.4139  220.5097 H   0  0  0  0  0  0  0  0  0  0  0  0
  139.4014   79.1863  220.6169 H   0  0  0  0  0  0  0  0  0  0  0  0
  141.7228   79.2832  220.9636 H   0  0  0  0  0  0  0  0  0  0  0  0
  142.2410   76.6730  221.2080 H   0  0  0  0  0  0  0  0  0  0  0  0
  142.3607   78.6036  223.2211 H   0  0  0  0  0  0  0  0  0  0  0  0
  141.8490   76.2710  222.3150 H   0  0  0  0  0  0  0  0  0  0  0  0
  139.8892   78.4427  224.3911 H   0  0  0  0  0  0  0  0  0  0  0  0
  141.2296   80.0876  223.8291 H   0  0  0  0  0  0  0  0  0  0  0  0
  137.9419   80.3057  223.9260 H   0  0  0  0  0  0  0  0  0  0  0  0
  138.5412   81.4526  224.7780 H   0  0  0  0  0  0  0  0  0  0  0  0
  139.1063   80.8442  221.6699 H   0  0  0  0  0  0  0  0  0  0  0  0
  139.9176   82.0964  222.1325 H   0  0  0  0  0  0  0  0  0  0  0  0
  139.5726   71.9667  221.5111 H   0  0  0  0  0  0  0  0  0  0  0  0
  141.7299   70.8473  221.2329 H   0  0  0  0  0  0  0  0  0  0  0  0
  144.1376   70.9663  220.7954 H   0  0  0  0  0  0  0  0  0  0  0  0
  145.9344   74.8319  220.1259 H   0  0  0  0  0  0  0  0  0  0  0  0
  143.7116   75.9254  220.4191 H   0  0  0  0  0  0  0  0  0  0  0  0
  1  2  2  0
  2  3  1  0
  3  4  1  0
  4  5  1  0
  5  6  2  0
  5  7  1  0
  7  8  1  0
  8  9  1  0
  9 10  1  0
  9 11  1  0
 11 12  1  0
 11 13  1  0
 13 14  1  0
 14 15  1  0
 15 16  1  0
  2 17  1  0
 17 18  2  0
 18 19  1  0
 19 20  2  0
 20 21  1  0
 21 22  2  0
 22 23  1  0
 22 24  1  0
 24 25  2  0
 25 26  1  0
 26 27  2  0
 13  7  1  0
 16 14  1  0
 27 17  1  0
 26 20  1  0
  3 28  1  0
  4 29  1  0
  4 30  1  0
  8 31  1  0
  8 32  1  0
  9 33  1  6
 10 34  1  0
 11 35  1  1
 12 36  1  0
 13 37  1  1
 14 38  1  0
 15 39  1  0
 15 40  1  0
 16 41  1  0
 16 42  1  0
 18 43  1  0
 19 44  1  0
 21 45  1  0
 24 46  1  0
 25 47  1  0
M  END
>  <smiles>  (5) 
O=C(NCC(=O)N1C[C@H](O)[C@H](O)[C@H]1C1CC1)c1ccc2cc(F)ccc2n1

>  <score_type>  (5) 
oracle

>  <origin>  (5) 
autodockgpu

>  <m_score__min__energy>  (5) 
-7.7000000000000002

>  <m_primary>  (5) 
energy

>  <rmsd>  (5) 
5.980091475945414

>  <m_score__min__rmsd>  (5) 
5.980091475945414

>  <meeko>  (5) 
{"free_energy": -5.54, "intermolecular_energy": -7.62, "internal_energy": -4.89, "cluster_size": 24, "cluster_id": 4, "rank_in_cluster": 21}

>  <energy>  (5) 
-7.33

>  <cluster_rmsd>  (5) 
1.64

>  <cluster>  (5) 
1

$$$$

     RDKit          3D

 47 50  0  0  0  0  0  0  0  0999 V2000
  138.3640   74.8430  220.3160 O   0  0  0  0  0  0  0  0  0  0  0  0
  139.1420   74.8330  221.3100 C   0  0  0  0  0  0  0  0  0  0  0  0
  138.8500   75.4890  222.5360 N   0  0  0  0  0  0  0  0  0  0  0  0
  137.5970   76.2390  222.7320 C   0  0  0  0  0  0  0  0  0  0  0  0
  137.9050   77.6380  222.4910 C   0  0  0  0  0  0  0  0  0  0  0  0
  136.9190   78.4480  222.3690 O   0  0  0  0  0  0  0  0  0  0  0  0
  139.1880   78.2250  222.3700 N   0  0  0  0  0  0  0  0  0  0  0  0
  139.8450   78.3700  221.0670 C   0  0  0  0  0  0  0  0  0  0  0  0
  141.3310   78.4130  221.3240 C   0  0  2  0  0  0  0  0  0  0  0  0
  141.9720   77.4200  220.5890 O   0  0  0  0  0  0  0  0  0  0  0  0
  141.4380   78.1930  222.8230 C   0  0  2  0  0  0  0  0  0  0  0  0
  141.4070   76.8190  223.0390 O   0  0  0  0  0  0  0  0  0  0  0  0
  140.1060   78.7580  223.3190 C   0  0  1  0  0  0  0  0  0  0  0  0
  140.1590   80.2280  223.4840 C   0  0  0  0  0  0  0  0  0  0  0  0
  138.8640   80.9040  223.9300 C   0  0  0  0  0  0  0  0  0  0  0  0
  139.5300   81.2300  222.6310 C   0  0  0  0  0  0  0  0  0  0  0  0
  140.4140   74.0980  221.1710 C   0  0  0  0  0  0  0  0  0  0  0  0
  140.4740   72.7360  221.3190 C   0  0  0  0  0  0  0  0  0  0  0  0
  141.6570   72.0780  221.1870 C   0  0  0  0  0  0  0  0  0  0  0  0
  142.8240   72.7620  220.9010 C   0  0  0  0  0  0  0  0  0  0  0  0
  144.0310   72.1170  220.7630 C   0  0  0  0  0  0  0  0  0  0  0  0
  145.1580   72.8590  220.4780 C   0  0  0  0  0  0  0  0  0  0  0  0
  146.3380   72.1840  220.3480 F   0  0  0  0  0  0  0  0  0  0  0  0
  145.0920   74.2430  220.3290 C   0  0  0  0  0  0  0  0  0  0  0  0
  143.8770   74.8890  220.4680 C   0  0  0  0  0  0  0  0  0  0  0  0
  142.7500   74.1390  220.7540 C   0  0  0  0  0  0  0  0  0  0  0  0
  141.5650   74.7610  220.8900 N   0  0  0  0  0  0  0  0  0  0  0  0
  139.5700   75.4100  223.2860 H   0  0  0  0  0  0  0  0  0  0  0  0
  136.8323   75.8915  222.0217 H   0  0  0  0  0  0  0  0  0  0  0  0
  137.2021   76.0904  223.7478 H   0  0  0  0  0  0  0  0  0  0  0  0
  139.5979   77.5138  220.4221 H   0  0  0  0  0  0  0  0  0  0  0  0
  139.5083   79.2849  220.5575 H   0  0  0  0  0  0  0  0  0  0  0  0
  141.8125   79.3535  221.0180 H   0  0  0  0  0  0  0  0  0  0  0  0
  142.3440   76.7640  221.2450 H   0  0  0  0  0  0  0  0  0  0  0  0
  142.3306   78.6315  223.2930 H   0  0  0  0  0  0  0  0  0  0  0  0
  141.8960   76.3230  222.3490 H   0  0  0  0  0  0  0  0  0  0  0  0
  139.8030   78.4695  224.3363 H   0  0  0  0  0  0  0  0  0  0  0  0
  141.2053   80.1194  223.8057 H   0  0  0  0  0  0  0  0  0  0  0  0
  137.9191   80.3410  223.9448 H   0  0  0  0  0  0  0  0  0  0  0  0
  138.5302   81.4703  224.8120 H   0  0  0  0  0  0  0  0  0  0  0  0
  139.0590   80.9213  221.6861 H   0  0  0  0  0  0  0  0  0  0  0  0
  139.8779   82.1629  222.1634 H   0  0  0  0  0  0  0  0  0  0  0  0
  139.5579   72.1711  221.5463 H   0  0  0  0  0  0  0  0  0  0  0  0
  141.6857   70.9852  221.3096 H   0  0  0  0  0  0  0  0  0  0  0  0
  144.0964   71.0250  220.8783 H   0  0  0  0  0  0  0  0  0  0  0  0
  146.0015   74.8186  220.1020 H   0  0  0  0  0  0  0  0  0  0  0  0
  143.8078   75.9808  220.3531 H   0  0  0  0  0  0  0  0  0  0  0  0
  1  2  2  0
  2  3  1  0
  3  4  1  0
  4  5  1  0
  5  6  2  0
  5  7  1  0
  7  8  1  0
  8  9  1  0
  9 10  1  0
  9 11  1  0
 11 12  1  0
 11 13  1  0
 13 14  1  0
 14 15  1  0
 15 16  1  0
  2 17  1  0
 17 18  2  0
 18 19  1  0
 19 20  2  0
 20 21  1  0
 21 22  2  0
 22 23  1  0
 22 24  1  0
 24 25  2  0
 25 26  1  0
 26 27  2  0
 13  7  1  0
 16 14  1  0
 27 17  1  0
 26 20  1  0
  3 28  1  0
  4 29  1  0
  4 30  1  0
  8 31  1  0
  8 32  1  0
  9 33  1  1
 10 34  1  0
 11 35  1  1
 12 36  1  0
 13 37  1  1
 14 38  1  0
 15 39  1  0
 15 40  1  0
 16 41  1  0
 16 42  1  0
 18 43  1  0
 19 44  1  0
 21 45  1  0
 24 46  1  0
 25 47  1  0
M  END
>  <smiles>  (6) 
O=C(NCC(=O)N1C[C@H](O)[C@H](O)[C@H]1C1CC1)c1ccc2cc(F)ccc2n1

>  <score_type>  (6) 
oracle

>  <origin>  (6) 
autodockgpu

>  <m_score__min__energy>  (6) 
-7.7000000000000002

>  <m_primary>  (6) 
energy

>  <rmsd>  (6) 
6.02376761735148

>  <m_score__min__rmsd>  (6) 
6.02376761735148

>  <meeko>  (6) 
{"free_energy": -5.69, "intermolecular_energy": -7.78, "internal_energy": -4.81, "cluster_size": 24, "cluster_id": 4, "rank_in_cluster": 8}

>  <energy>  (6) 
-7.32

>  <cluster_rmsd>  (6) 
1.72

>  <cluster>  (6) 
1

$$$$

     RDKit          3D

 47 50  0  0  0  0  0  0  0  0999 V2000
  138.5420   75.2130  220.2100 O   0  0  0  0  0  0  0  0  0  0  0  0
  139.2130   75.0090  221.2590 C   0  0  0  0  0  0  0  0  0  0  0  0
  138.8280   75.4930  222.5380 N   0  0  0  0  0  0  0  0  0  0  0  0
  137.5980   76.2820  222.7280 C   0  0  0  0  0  0  0  0  0  0  0  0
  137.9260   77.6560  222.3940 C   0  0  0  0  0  0  0  0  0  0  0  0
  136.9540   78.4490  222.1300 O   0  0  0  0  0  0  0  0  0  0  0  0
  139.2160   78.2360  222.3190 N   0  0  0  0  0  0  0  0  0  0  0  0
  139.9060   78.4100  221.0360 C   0  0  0  0  0  0  0  0  0  0  0  0
  141.3850   78.4350  221.3310 C   0  0  2  0  0  0  0  0  0  0  0  0
  142.0360   77.4560  220.5840 O   0  0  0  0  0  0  0  0  0  0  0  0
  141.4540   78.1730  222.8250 C   0  0  2  0  0  0  0  0  0  0  0  0
  141.4070   76.7940  223.0020 O   0  0  0  0  0  0  0  0  0  0  0  0
  140.1150   78.7360  223.3040 C   0  0  1  0  0  0  0  0  0  0  0  0
  140.1740   80.2000  223.5110 C   0  0  0  0  0  0  0  0  0  0  0  0
  138.8570   80.8850  223.8660 C   0  0  0  0  0  0  0  0  0  0  0  0
  139.6330   81.2320  222.6350 C   0  0  0  0  0  0  0  0  0  0  0  0
  140.4570   74.2250  221.1300 C   0  0  0  0  0  0  0  0  0  0  0  0
  140.4790   72.8730  221.3560 C   0  0  0  0  0  0  0  0  0  0  0  0
  141.6360   72.1700  221.2320 C   0  0  0  0  0  0  0  0  0  0  0  0
  142.8150   72.7970  220.8740 C   0  0  0  0  0  0  0  0  0  0  0  0
  143.9970   72.1070  220.7420 C   0  0  0  0  0  0  0  0  0  0  0  0
  145.1380   72.7930  220.3830 C   0  0  0  0  0  0  0  0  0  0  0  0
  146.2920   72.0730  220.2620 F   0  0  0  0  0  0  0  0  0  0  0  0
  145.1100   74.1670  220.1540 C   0  0  0  0  0  0  0  0  0  0  0  0
  143.9210   74.8600  220.2870 C   0  0  0  0  0  0  0  0  0  0  0  0
  142.7800   74.1660  220.6470 C   0  0  0  0  0  0  0  0  0  0  0  0
  141.6190   74.8320  220.7790 N   0  0  0  0  0  0  0  0  0  0  0  0
  139.4620   75.2600  223.3320 H   0  0  0  0  0  0  0  0  0  0  0  0
  136.8033   75.9103  222.0645 H   0  0  0  0  0  0  0  0  0  0  0  0
  137.2342   76.2032  223.7631 H   0  0  0  0  0  0  0  0  0  0  0  0
  139.6691   77.5728  220.3630 H   0  0  0  0  0  0  0  0  0  0  0  0
  139.5883   79.3402  220.5422 H   0  0  0  0  0  0  0  0  0  0  0  0
  141.8806   79.3800  221.0639 H   0  0  0  0  0  0  0  0  0  0  0  0
  142.4340   76.8100  221.2330 H   0  0  0  0  0  0  0  0  0  0  0  0
  142.3384   78.5905  223.3285 H   0  0  0  0  0  0  0  0  0  0  0  0
  141.8490   76.3100  222.2730 H   0  0  0  0  0  0  0  0  0  0  0  0
  139.7859   78.4230  224.3059 H   0  0  0  0  0  0  0  0  0  0  0  0
  141.1882   80.0668  223.9156 H   0  0  0  0  0  0  0  0  0  0  0  0
  137.9063   80.3371  223.7884 H   0  0  0  0  0  0  0  0  0  0  0  0
  138.4592   81.4347  224.7318 H   0  0  0  0  0  0  0  0  0  0  0  0
  139.2378   80.9541  221.6467 H   0  0  0  0  0  0  0  0  0  0  0  0
  140.0317   82.1702  222.2217 H   0  0  0  0  0  0  0  0  0  0  0  0
  139.5525   72.3525  221.6401 H   0  0  0  0  0  0  0  0  0  0  0  0
  141.6340   71.0861  221.4193 H   0  0  0  0  0  0  0  0  0  0  0  0
  144.0319   71.0221  220.9204 H   0  0  0  0  0  0  0  0  0  0  0  0
  146.0300   74.6982  219.8686 H   0  0  0  0  0  0  0  0  0  0  0  0
  143.8831   75.9449  220.1095 H   0  0  0  0  0  0  0  0  0  0  0  0
  1  2  2  0
  2  3  1  0
  3  4  1  0
  4  5  1  0
  5  6  2  0
  5  7  1  0
  7  8  1  0
  8  9  1  0
  9 10  1  0
  9 11  1  0
 11 12  1  0
 11 13  1  0
 13 14  1  0
 14 15  1  0
 15 16  1  0
  2 17  1  0
 17 18  2  0
 18 19  1  0
 19 20  2  0
 20 21  1  0
 21 22  2  0
 22 23  1  0
 22 24  1  0
 24 25  2  0
 25 26  1  0
 26 27  2  0
 13  7  1  0
 16 14  1  0
 27 17  1  0
 26 20  1  0
  3 28  1  0
  4 29  1  0
  4 30  1  0
  8 31  1  0
  8 32  1  0
  9 33  1  1
 10 34  1  0
 11 35  1  1
 12 36  1  0
 13 37  1  1
 14 38  1  0
 15 39  1  0
 15 40  1  0
 16 41  1  0
 16 42  1  0
 18 43  1  0
 19 44  1  0
 21 45  1  0
 24 46  1  0
 25 47  1  0
M  END
>  <smiles>  (7) 
O=C(NCC(=O)N1C[C@H](O)[C@H](O)[C@H]1C1CC1)c1ccc2cc(F)ccc2n1

>  <score_type>  (7) 
oracle

>  <origin>  (7) 
autodockgpu

>  <m_score__min__energy>  (7) 
-7.7000000000000002

>  <m_primary>  (7) 
energy

>  <rmsd>  (7) 
6.0708198796409905

>  <m_score__min__rmsd>  (7) 
6.0708198796409905

>  <meeko>  (7) 
{"free_energy": -5.82, "intermolecular_energy": -7.91, "internal_energy": -4.65, "cluster_size": 24, "cluster_id": 4, "rank_in_cluster": 2}

>  <energy>  (7) 
-7.31

>  <cluster_rmsd>  (7) 
1.72

>  <cluster>  (7) 
1

$$$$

     RDKit          3D

 47 50  0  0  0  0  0  0  0  0999 V2000
  141.0740   73.4420  221.0020 O   0  0  0  0  0  0  0  0  0  0  0  0
  140.2750   73.5980  221.9670 C   0  0  0  0  0  0  0  0  0  0  0  0
  139.6900   74.8490  222.3010 N   0  0  0  0  0  0  0  0  0  0  0  0
  139.9830   76.0700  221.5300 C   0  0  0  0  0  0  0  0  0  0  0  0
  139.4870   77.1880  222.3120 C   0  0  0  0  0  0  0  0  0  0  0  0
  138.4950   76.9700  223.0930 O   0  0  0  0  0  0  0  0  0  0  0  0
  139.9760   78.5180  222.3120 N   0  0  0  0  0  0  0  0  0  0  0  0
  140.1410   79.2750  221.0670 C   0  0  0  0  0  0  0  0  0  0  0  0
  141.2060   80.3130  221.3200 C   0  0  2  0  0  0  0  0  0  0  0  0
  142.2290   80.1850  220.3840 O   0  0  0  0  0  0  0  0  0  0  0  0
  141.6660   80.0130  222.7350 C   0  0  2  0  0  0  0  0  0  0  0  0
  142.6210   79.0050  222.6500 O   0  0  0  0  0  0  0  0  0  0  0  0
  140.4100   79.3940  223.3490 C   0  0  1  0  0  0  0  0  0  0  0  0
  139.4630   80.4270  223.8260 C   0  0  0  0  0  0  0  0  0  0  0  0
  137.9880   80.0320  223.8460 C   0  0  0  0  0  0  0  0  0  0  0  0
  138.5000   81.1720  223.0240 C   0  0  0  0  0  0  0  0  0  0  0  0
  139.9460   72.4090  222.7760 C   0  0  0  0  0  0  0  0  0  0  0  0
  138.9660   71.5300  222.3930 C   0  0  0  0  0  0  0  0  0  0  0  0
  138.6780   70.4410  223.1540 C   0  0  0  0  0  0  0  0  0  0  0  0
  139.3620   70.1920  224.3280 C   0  0  0  0  0  0  0  0  0  0  0  0
  139.0890   69.0960  225.1140 C   0  0  0  0  0  0  0  0  0  0  0  0
  139.8080   68.9070  226.2750 C   0  0  0  0  0  0  0  0  0  0  0  0
  139.5080   67.8080  227.0270 F   0  0  0  0  0  0  0  0  0  0  0  0
  140.8030   69.8030  226.6600 C   0  0  0  0  0  0  0  0  0  0  0  0
  141.0780   70.9040  225.8690 C   0  0  0  0  0  0  0  0  0  0  0  0
  140.3520   71.0880  224.7060 C   0  0  0  0  0  0  0  0  0  0  0  0
  140.6130   72.1560  223.9310 N   0  0  0  0  0  0  0  0  0  0  0  0
  139.0450   74.8550  223.1190 H   0  0  0  0  0  0  0  0  0  0  0  0
  141.0674   76.1684  221.3739 H   0  0  0  0  0  0  0  0  0  0  0  0
  139.5040   76.0368  220.5403 H   0  0  0  0  0  0  0  0  0  0  0  0
  140.4542   78.6026  220.2547 H   0  0  0  0  0  0  0  0  0  0  0  0
  139.1946   79.7486  220.7671 H   0  0  0  0  0  0  0  0  0  0  0  0
  140.8539   81.3505  221.2220 H   0  0  0  0  0  0  0  0  0  0  0  0
  142.6550   79.2940  220.5370 H   0  0  0  0  0  0  0  0  0  0  0  0
  142.0718   80.8761  223.2831 H   0  0  0  0  0  0  0  0  0  0  0  0
  143.3010   79.1920  221.9690 H   0  0  0  0  0  0  0  0  0  0  0  0
  140.5520   78.8296  224.2824 H   0  0  0  0  0  0  0  0  0  0  0  0
  140.2483   80.7815  224.5098 H   0  0  0  0  0  0  0  0  0  0  0  0
  137.6543   79.1025  223.3615 H   0  0  0  0  0  0  0  0  0  0  0  0
  137.2154   79.8968  224.6172 H   0  0  0  0  0  0  0  0  0  0  0  0
  138.5225   81.0848  221.9277 H   0  0  0  0  0  0  0  0  0  0  0  0
  138.2335   82.2362  222.9430 H   0  0  0  0  0  0  0  0  0  0  0  0
  138.4079   71.7075  221.4618 H   0  0  0  0  0  0  0  0  0  0  0  0
  137.8881   69.7474  222.8299 H   0  0  0  0  0  0  0  0  0  0  0  0
  138.3074   68.3801  224.8198 H   0  0  0  0  0  0  0  0  0  0  0  0
  141.3675   69.6356  227.5891 H   0  0  0  0  0  0  0  0  0  0  0  0
  141.8603   71.6206  226.1597 H   0  0  0  0  0  0  0  0  0  0  0  0
  1  2  2  0
  2  3  1  0
  3  4  1  0
  4  5  1  0
  5  6  2  0
  5  7  1  0
  7  8  1  0
  8  9  1  0
  9 10  1  0
  9 11  1  0
 11 12  1  0
 11 13  1  0
 13 14  1  0
 14 15  1  0
 15 16  1  0
  2 17  1  0
 17 18  2  0
 18 19  1  0
 19 20  2  0
 20 21  1  0
 21 22  2  0
 22 23  1  0
 22 24  1  0
 24 25  2  0
 25 26  1  0
 26 27  2  0
 13  7  1  0
 16 14  1  0
 27 17  1  0
 26 20  1  0
  3 28  1  0
  4 29  1  0
  4 30  1  0
  8 31  1  0
  8 32  1  0
  9 33  1  1
 10 34  1  0
 11 35  1  1
 12 36  1  0
 13 37  1  1
 14 38  1  0
 15 39  1  0
 15 40  1  0
 16 41  1  0
 16 42  1  0
 18 43  1  0
 19 44  1  0
 21 45  1  0
 24 46  1  0
 25 47  1  0
M  END
>  <smiles>  (8) 
O=C(NCC(=O)N1C[C@H](O)[C@H](O)[C@H]1C1CC1)c1ccc2cc(F)ccc2n1

>  <score_type>  (8) 
oracle

>  <origin>  (8) 
autodockgpu

>  <m_score__min__energy>  (8) 
-7.7000000000000002

>  <m_primary>  (8) 
energy

>  <rmsd>  (8) 
4.072611872097957

>  <m_score__min__rmsd>  (8) 
4.072611872097957

>  <meeko>  (8) 
{"free_energy": -7.06, "intermolecular_energy": -9.14, "internal_energy": -2.89, "cluster_size": 6, "cluster_id": 3, "rank_in_cluster": 2}

>  <energy>  (8) 
-7.3

>  <cluster_rmsd>  (8) 
1.64

>  <cluster>  (8) 
1

$$$$

     RDKit          3D

 47 50  0  0  0  0  0  0  0  0999 V2000
  136.0460   71.6220  221.7780 O   0  0  0  0  0  0  0  0  0  0  0  0
  136.9920   72.0860  222.4720 C   0  0  0  0  0  0  0  0  0  0  0  0
  137.4820   73.4130  222.3370 N   0  0  0  0  0  0  0  0  0  0  0  0
  136.9090   74.3520  221.3560 C   0  0  0  0  0  0  0  0  0  0  0  0
  137.9550   74.6410  220.3920 C   0  0  0  0  0  0  0  0  0  0  0  0
  137.6640   75.4240  219.4200 O   0  0  0  0  0  0  0  0  0  0  0  0
  139.2840   74.1500  220.3950 N   0  0  0  0  0  0  0  0  0  0  0  0
  139.5990   72.7870  219.9530 C   0  0  0  0  0  0  0  0  0  0  0  0
  140.8790   72.3850  220.6420 C   0  0  2  0  0  0  0  0  0  0  0  0
  140.6880   71.2030  221.3530 O   0  0  0  0  0  0  0  0  0  0  0  0
  141.1830   73.5670  221.5450 C   0  0  2  0  0  0  0  0  0  0  0  0
  140.4560   73.3860  222.7170 O   0  0  0  0  0  0  0  0  0  0  0  0
  140.5300   74.7200  220.7820 C   0  0  1  0  0  0  0  0  0  0  0  0
  141.4130   75.2470  219.7170 C   0  0  0  0  0  0  0  0  0  0  0  0
  142.9140   75.1780  219.9890 C   0  0  0  0  0  0  0  0  0  0  0  0
  142.2020   76.4730  219.7580 C   0  0  0  0  0  0  0  0  0  0  0  0
  137.6060   71.1900  223.4710 C   0  0  0  0  0  0  0  0  0  0  0  0
  136.9350   70.1030  223.9680 C   0  0  0  0  0  0  0  0  0  0  0  0
  137.5200   69.2900  224.8880 C   0  0  0  0  0  0  0  0  0  0  0  0
  138.8010   69.5370  225.3430 C   0  0  0  0  0  0  0  0  0  0  0  0
  139.4130   68.7280  226.2730 C   0  0  0  0  0  0  0  0  0  0  0  0
  140.6930   69.0310  226.6860 C   0  0  0  0  0  0  0  0  0  0  0  0
  141.2670   68.2050  227.6090 F   0  0  0  0  0  0  0  0  0  0  0  0
  141.3720   70.1370  226.1770 C   0  0  0  0  0  0  0  0  0  0  0  0
  140.7550   70.9490  225.2420 C   0  0  0  0  0  0  0  0  0  0  0  0
  139.4700   70.6390  224.8330 C   0  0  0  0  0  0  0  0  0  0  0  0
  138.8640   71.4240  223.9240 N   0  0  0  0  0  0  0  0  0  0  0  0
  138.2670   73.6840  222.9670 H   0  0  0  0  0  0  0  0  0  0  0  0
  136.0457   73.8931  220.8519 H   0  0  0  0  0  0  0  0  0  0  0  0
  136.5598   75.2721  221.8474 H   0  0  0  0  0  0  0  0  0  0  0  0
  138.7866   72.1011  220.2351 H   0  0  0  0  0  0  0  0  0  0  0  0
  139.7117   72.7450  218.8596 H   0  0  0  0  0  0  0  0  0  0  0  0
  141.7120   72.1769  219.9544 H   0  0  0  0  0  0  0  0  0  0  0  0
  140.0770   71.4150  222.1140 H   0  0  0  0  0  0  0  0  0  0  0  0
  142.2485   73.7103  221.7778 H   0  0  0  0  0  0  0  0  0  0  0  0
  139.7510   72.7110  222.6180 H   0  0  0  0  0  0  0  0  0  0  0  0
  140.3581   75.6449  221.3521 H   0  0  0  0  0  0  0  0  0  0  0  0
  140.6748   74.8973  218.9803 H   0  0  0  0  0  0  0  0  0  0  0  0
  143.2864   74.9190  220.9911 H   0  0  0  0  0  0  0  0  0  0  0  0
  143.7756   74.6586  219.5442 H   0  0  0  0  0  0  0  0  0  0  0  0
  142.0696   77.1771  220.5927 H   0  0  0  0  0  0  0  0  0  0  0  0
  142.3478   77.3119  219.0616 H   0  0  0  0  0  0  0  0  0  0  0  0
  135.9144   69.8863  223.6197 H   0  0  0  0  0  0  0  0  0  0  0  0
  136.9651   68.4229  225.2756 H   0  0  0  0  0  0  0  0  0  0  0  0
  138.8881   67.8517  226.6812 H   0  0  0  0  0  0  0  0  0  0  0  0
  142.3934   70.3630  226.5171 H   0  0  0  0  0  0  0  0  0  0  0  0
  141.2769   71.8257  224.8310 H   0  0  0  0  0  0  0  0  0  0  0  0
  1  2  2  0
  2  3  1  0
  3  4  1  0
  4  5  1  0
  5  6  2  0
  5  7  1  0
  7  8  1  0
  8  9  1  0
  9 10  1  0
  9 11  1  0
 11 12  1  0
 11 13  1  0
 13 14  1  0
 14 15  1  0
 15 16  1  0
  2 17  1  0
 17 18  2  0
 18 19  1  0
 19 20  2  0
 20 21  1  0
 21 22  2  0
 22 23  1  0
 22 24  1  0
 24 25  2  0
 25 26  1  0
 26 27  2  0
 13  7  1  0
 16 14  1  0
 27 17  1  0
 26 20  1  0
  3 28  1  0
  4 29  1  0
  4 30  1  0
  8 31  1  0
  8 32  1  0
  9 33  1  6
 10 34  1  0
 11 35  1  1
 12 36  1  0
 13 37  1  1
 14 38  1  0
 15 39  1  0
 15 40  1  0
 16 41  1  0
 16 42  1  0
 18 43  1  0
 19 44  1  0
 21 45  1  0
 24 46  1  0
 25 47  1  0
M  END
>  <smiles>  (9) 
O=C(NCC(=O)N1C[C@H](O)[C@H](O)[C@H]1C1CC1)c1ccc2cc(F)ccc2n1

>  <score_type>  (9) 
oracle

>  <origin>  (9) 
autodockgpu

>  <m_score__min__energy>  (9) 
-7.7000000000000002

>  <m_primary>  (9) 
energy

>  <rmsd>  (9) 
2.9546904480920855

>  <m_score__min__rmsd>  (9) 
2.9546904480920855

>  <meeko>  (9) 
{"free_energy": -4.74, "intermolecular_energy": -6.83, "internal_energy": -5.23, "cluster_size": 2, "cluster_id": 6, "rank_in_cluster": 1}

>  <energy>  (9) 
-7.12

>  <cluster_rmsd>  (9) 
1.77

>  <cluster>  (9) 
1

$$$$

     RDKit          3D

 47 50  0  0  0  0  0  0  0  0999 V2000
  141.3530   72.8410  221.6440 O   0  0  0  0  0  0  0  0  0  0  0  0
  140.3420   72.8710  222.3990 C   0  0  0  0  0  0  0  0  0  0  0  0
  139.3670   73.9040  222.3560 N   0  0  0  0  0  0  0  0  0  0  0  0
  139.4740   75.0300  221.4120 C   0  0  0  0  0  0  0  0  0  0  0  0
  139.0770   76.2230  222.1370 C   0  0  0  0  0  0  0  0  0  0  0  0
  138.2440   76.0810  223.1000 O   0  0  0  0  0  0  0  0  0  0  0  0
  139.5070   77.5530  221.9000 N   0  0  0  0  0  0  0  0  0  0  0  0
  140.0080   77.9750  220.5880 C   0  0  0  0  0  0  0  0  0  0  0  0
  140.9230   79.1510  220.8230 C   0  0  2  0  0  0  0  0  0  0  0  0
  142.1790   78.8950  220.2780 O   0  0  0  0  0  0  0  0  0  0  0  0
  140.9560   79.2790  222.3350 C   0  0  2  0  0  0  0  0  0  0  0  0
  141.9220   78.3920  222.8010 O   0  0  0  0  0  0  0  0  0  0  0  0
  139.5930   78.7080  222.7280 C   0  0  1  0  0  0  0  0  0  0  0  0
  138.5190   79.7210  222.6200 C   0  0  0  0  0  0  0  0  0  0  0  0
  138.5340   80.8340  223.6650 C   0  0  0  0  0  0  0  0  0  0  0  0
  137.3810   79.8920  223.5160 C   0  0  0  0  0  0  0  0  0  0  0  0
  140.1820   71.7690  223.3680 C   0  0  0  0  0  0  0  0  0  0  0  0
  139.5700   70.5930  223.0200 C   0  0  0  0  0  0  0  0  0  0  0  0
  139.4330   69.5900  223.9280 C   0  0  0  0  0  0  0  0  0  0  0  0
  139.9060   69.7290  225.2190 C   0  0  0  0  0  0  0  0  0  0  0  0
  139.7790   68.7290  226.1540 C   0  0  0  0  0  0  0  0  0  0  0  0
  140.2730   68.9320  227.4260 C   0  0  0  0  0  0  0  0  0  0  0  0
  140.1290   67.9160  228.3250 F   0  0  0  0  0  0  0  0  0  0  0  0
  140.8950   70.1290  227.7740 C   0  0  0  0  0  0  0  0  0  0  0  0
  141.0220   71.1350  226.8320 C   0  0  0  0  0  0  0  0  0  0  0  0
  140.5250   70.9240  225.5580 C   0  0  0  0  0  0  0  0  0  0  0  0
  140.6440   71.8970  224.6370 N   0  0  0  0  0  0  0  0  0  0  0  0
  138.5740   73.8200  223.0280 H   0  0  0  0  0  0  0  0  0  0  0  0
  140.5104   75.1297  221.0571 H   0  0  0  0  0  0  0  0  0  0  0  0
  138.8329   74.8705  220.5325 H   0  0  0  0  0  0  0  0  0  0  0  0
  140.5637   77.1528  220.1135 H   0  0  0  0  0  0  0  0  0  0  0  0
  139.1780   78.2505  219.9208 H   0  0  0  0  0  0  0  0  0  0  0  0
  140.5868   80.0837  220.3465 H   0  0  0  0  0  0  0  0  0  0  0  0
  142.8320   78.9040  221.0340 H   0  0  0  0  0  0  0  0  0  0  0  0
  141.1588   80.2932  222.7095 H   0  0  0  0  0  0  0  0  0  0  0  0
  142.2250   77.7730  222.1040 H   0  0  0  0  0  0  0  0  0  0  0  0
  139.4710   78.4226  223.7833 H   0  0  0  0  0  0  0  0  0  0  0  0
  138.5548   79.5921  221.5282 H   0  0  0  0  0  0  0  0  0  0  0  0
  139.1977   80.7670  224.5396 H   0  0  0  0  0  0  0  0  0  0  0  0
  138.6701   81.9255  223.6564 H   0  0  0  0  0  0  0  0  0  0  0  0
  137.1867   79.1425  224.2974 H   0  0  0  0  0  0  0  0  0  0  0  0
  136.3000   80.0250  223.3622 H   0  0  0  0  0  0  0  0  0  0  0  0
  139.1865   70.4594  221.9977 H   0  0  0  0  0  0  0  0  0  0  0  0
  138.9381   68.6538  223.6303 H   0  0  0  0  0  0  0  0  0  0  0  0
  139.2899   67.7794  225.8913 H   0  0  0  0  0  0  0  0  0  0  0  0
  141.2834   70.2739  228.7929 H   0  0  0  0  0  0  0  0  0  0  0  0
  141.5098   72.0861  227.0917 H   0  0  0  0  0  0  0  0  0  0  0  0
  1  2  2  0
  2  3  1  0
  3  4  1  0
  4  5  1  0
  5  6  2  0
  5  7  1  0
  7  8  1  0
  8  9  1  0
  9 10  1  0
  9 11  1  0
 11 12  1  0
 11 13  1  0
 13 14  1  0
 14 15  1  0
 15 16  1  0
  2 17  1  0
 17 18  2  0
 18 19  1  0
 19 20  2  0
 20 21  1  0
 21 22  2  0
 22 23  1  0
 22 24  1  0
 24 25  2  0
 25 26  1  0
 26 27  2  0
 13  7  1  0
 16 14  1  0
 27 17  1  0
 26 20  1  0
  3 28  1  0
  4 29  1  0
  4 30  1  0
  8 31  1  0
  8 32  1  0
  9 33  1  6
 10 34  1  0
 11 35  1  6
 12 36  1  0
 13 37  1  1
 14 38  1  0
 15 39  1  0
 15 40  1  0
 16 41  1  0
 16 42  1  0
 18 43  1  0
 19 44  1  0
 21 45  1  0
 24 46  1  0
 25 47  1  0
M  END
>  <smiles>  (10) 
O=C(NCC(=O)N1C[C@H](O)[C@H](O)[C@H]1C1CC1)c1ccc2cc(F)ccc2n1

>  <score_type>  (10) 
oracle

>  <origin>  (10) 
autodockgpu

>  <m_score__min__energy>  (10) 
-7.7000000000000002

>  <m_primary>  (10) 
energy

>  <rmsd>  (10) 
3.2366910320551514

>  <m_score__min__rmsd>  (10) 
3.2366910320551514

>  <meeko>  (10) 
{"free_energy": -7.14, "intermolecular_energy": -9.23, "internal_energy": -2.89, "cluster_size": 6, "cluster_id": 3, "rank_in_cluster": 1}

>  <energy>  (10) 
-6.87

>  <cluster_rmsd>  (10) 
1.84

>  <cluster>  (10) 
1

$$$$

     RDKit          3D

 47 50  0  0  0  0  0  0  0  0999 V2000
  138.5030   71.2790  221.5160 O   0  0  0  0  0  0  0  0  0  0  0  0
  138.1410   71.5140  222.7020 C   0  0  0  0  0  0  0  0  0  0  0  0
  137.2140   72.5340  223.0470 N   0  0  0  0  0  0  0  0  0  0  0  0
  136.6040   73.4020  222.0240 C   0  0  0  0  0  0  0  0  0  0  0  0
  137.4340   74.5900  221.9340 C   0  0  0  0  0  0  0  0  0  0  0  0
  136.9370   75.6930  222.3590 O   0  0  0  0  0  0  0  0  0  0  0  0
  138.7510   74.6790  221.4190 N   0  0  0  0  0  0  0  0  0  0  0  0
  139.1080   74.0970  220.1210 C   0  0  0  0  0  0  0  0  0  0  0  0
  140.5860   73.8030  220.1610 C   0  0  2  0  0  0  0  0  0  0  0  0
  140.8140   72.4600  219.8730 O   0  0  0  0  0  0  0  0  0  0  0  0
  140.9840   74.1730  221.5790 C   0  0  2  0  0  0  0  0  0  0  0  0
  140.7090   73.0710  222.3830 O   0  0  0  0  0  0  0  0  0  0  0  0
  139.9540   75.2500  221.9220 C   0  0  1  0  0  0  0  0  0  0  0  0
  140.3570   76.5810  221.4130 C   0  0  0  0  0  0  0  0  0  0  0  0
  141.0500   77.5040  222.4120 C   0  0  0  0  0  0  0  0  0  0  0  0
  139.7580   77.8670  221.7500 C   0  0  0  0  0  0  0  0  0  0  0  0
  138.7210   70.6770  223.7700 C   0  0  0  0  0  0  0  0  0  0  0  0
  138.6500   69.3080  223.7250 C   0  0  0  0  0  0  0  0  0  0  0  0
  139.1920   68.5560  224.7200 C   0  0  0  0  0  0  0  0  0  0  0  0
  139.8250   69.1470  225.7970 C   0  0  0  0  0  0  0  0  0  0  0  0
  140.3800   68.4060  226.8140 C   0  0  0  0  0  0  0  0  0  0  0  0
  140.9970   69.0590  227.8600 C   0  0  0  0  0  0  0  0  0  0  0  0
  141.5360   68.2890  228.8500 F   0  0  0  0  0  0  0  0  0  0  0  0
  141.0670   70.4500  227.9000 C   0  0  0  0  0  0  0  0  0  0  0  0
  140.5080   71.1940  226.8760 C   0  0  0  0  0  0  0  0  0  0  0  0
  139.8910   70.5330  225.8300 C   0  0  0  0  0  0  0  0  0  0  0  0
  139.3450   71.2490  224.8300 N   0  0  0  0  0  0  0  0  0  0  0  0
  136.9910   72.6340  224.0600 H   0  0  0  0  0  0  0  0  0  0  0  0
  136.5778   72.8838  221.0541 H   0  0  0  0  0  0  0  0  0  0  0  0
  135.5695   73.6622  222.2925 H   0  0  0  0  0  0  0  0  0  0  0  0
  138.5425   73.1682  219.9551 H   0  0  0  0  0  0  0  0  0  0  0  0
  138.8677   74.7896  219.3009 H   0  0  0  0  0  0  0  0  0  0  0  0
  141.1745   74.3610  219.4178 H   0  0  0  0  0  0  0  0  0  0  0  0
  140.3410   71.9260  220.5730 H   0  0  0  0  0  0  0  0  0  0  0  0
  142.0333   74.4797  221.7009 H   0  0  0  0  0  0  0  0  0  0  0  0
  140.1460   72.4100  221.9280 H   0  0  0  0  0  0  0  0  0  0  0  0
  139.8375   75.4894  222.9893 H   0  0  0  0  0  0  0  0  0  0  0  0
  140.5393   76.1130  220.4343 H   0  0  0  0  0  0  0  0  0  0  0  0
  141.0745   77.2481  223.4815 H   0  0  0  0  0  0  0  0  0  0  0  0
  142.0459   77.9613  222.5077 H   0  0  0  0  0  0  0  0  0  0  0  0
  138.8324   77.8969  222.3436 H   0  0  0  0  0  0  0  0  0  0  0  0
  139.4176   78.7302  221.1593 H   0  0  0  0  0  0  0  0  0  0  0  0
  138.1510   68.8147  222.8779 H   0  0  0  0  0  0  0  0  0  0  0  0
  139.1255   67.4593  224.6667 H   0  0  0  0  0  0  0  0  0  0  0  0
  140.3323   67.3072  226.7932 H   0  0  0  0  0  0  0  0  0  0  0  0
  141.5643   70.9543  228.7416 H   0  0  0  0  0  0  0  0  0  0  0  0
  140.5537   72.2929  226.8938 H   0  0  0  0  0  0  0  0  0  0  0  0
  1  2  2  0
  2  3  1  0
  3  4  1  0
  4  5  1  0
  5  6  2  0
  5  7  1  0
  7  8  1  0
  8  9  1  0
  9 10  1  0
  9 11  1  0
 11 12  1  0
 11 13  1  0
 13 14  1  0
 14 15  1  0
 15 16  1  0
  2 17  1  0
 17 18  2  0
 18 19  1  0
 19 20  2  0
 20 21  1  0
 21 22  2  0
 22 23  1  0
 22 24  1  0
 24 25  2  0
 25 26  1  0
 26 27  2  0
 13  7  1  0
 16 14  1  0
 27 17  1  0
 26 20  1  0
  3 28  1  0
  4 29  1  0
  4 30  1  0
  8 31  1  0
  8 32  1  0
  9 33  1  6
 10 34  1  0
 11 35  1  6
 12 36  1  0
 13 37  1  1
 14 38  1  0
 15 39  1  0
 15 40  1  0
 16 41  1  0
 16 42  1  0
 18 43  1  0
 19 44  1  0
 21 45  1  0
 24 46  1  0
 25 47  1  0
M  END
>  <smiles>  (11) 
O=C(NCC(=O)N1C[C@H](O)[C@H](O)[C@H]1C1CC1)c1ccc2cc(F)ccc2n1

>  <score_type>  (11) 
oracle

>  <origin>  (11) 
autodockgpu

>  <m_score__min__energy>  (11) 
-7.7000000000000002

>  <m_primary>  (11) 
energy

>  <rmsd>  (11) 
2.5250369479708725

>  <m_score__min__rmsd>  (11) 
2.5250369479708725

>  <meeko>  (11) 
{"free_energy": -5.82, "intermolecular_energy": -7.91, "internal_energy": -4.29, "cluster_size": 6, "cluster_id": 3, "rank_in_cluster": 6}

>  <energy>  (11) 
-6.07

>  <cluster_rmsd>  (11) 
1.52

>  <cluster>  (11) 
1

$$$$

     RDKit          3D

 47 50  0  0  0  0  0  0  0  0999 V2000
  138.3080   74.7180  220.3750 O   0  0  0  0  0  0  0  0  0  0  0  0
  139.1210   74.7720  221.3380 C   0  0  0  0  0  0  0  0  0  0  0  0
  138.8610   75.4850  222.5400 N   0  0  0  0  0  0  0  0  0  0  0  0
  137.6020   76.2230  222.7440 C   0  0  0  0  0  0  0  0  0  0  0  0
  137.9110   77.6320  222.5810 C   0  0  0  0  0  0  0  0  0  0  0  0
  136.9290   78.4540  222.5630 O   0  0  0  0  0  0  0  0  0  0  0  0
  139.1930   78.2170  222.4340 N   0  0  0  0  0  0  0  0  0  0  0  0
  139.8190   78.3710  221.1160 C   0  0  0  0  0  0  0  0  0  0  0  0
  141.3100   78.4090  221.3390 C   0  0  2  0  0  0  0  0  0  0  0  0
  141.9320   77.4200  220.5810 O   0  0  0  0  0  0  0  0  0  0  0  0
  141.4530   78.1770  222.8330 C   0  0  2  0  0  0  0  0  0  0  0  0
  141.4230   76.8010  223.0390 O   0  0  0  0  0  0  0  0  0  0  0  0
  140.1350   78.7410  223.3650 C   0  0  1  0  0  0  0  0  0  0  0  0
  140.1940   80.2100  223.5400 C   0  0  0  0  0  0  0  0  0  0  0  0
  138.8720   80.9060  223.8530 C   0  0  0  0  0  0  0  0  0  0  0  0
  139.6740   81.2240  222.6310 C   0  0  0  0  0  0  0  0  0  0  0  0
  140.4020   74.0530  221.1890 C   0  0  0  0  0  0  0  0  0  0  0  0
  140.4800   72.6920  221.3330 C   0  0  0  0  0  0  0  0  0  0  0  0
  141.6690   72.0490  221.1920 C   0  0  0  0  0  0  0  0  0  0  0  0
  142.8260   72.7480  220.9010 C   0  0  0  0  0  0  0  0  0  0  0  0
  144.0400   72.1190  220.7540 C   0  0  0  0  0  0  0  0  0  0  0  0
  145.1560   72.8750  220.4640 C   0  0  0  0  0  0  0  0  0  0  0  0
  146.3430   72.2150  220.3250 F   0  0  0  0  0  0  0  0  0  0  0  0
  145.0720   74.2580  220.3190 C   0  0  0  0  0  0  0  0  0  0  0  0
  143.8500   74.8890  220.4670 C   0  0  0  0  0  0  0  0  0  0  0  0
  142.7340   74.1250  220.7580 C   0  0  0  0  0  0  0  0  0  0  0  0
  141.5420   74.7310  220.9040 N   0  0  0  0  0  0  0  0  0  0  0  0
  139.6090   75.4570  223.2660 H   0  0  0  0  0  0  0  0  0  0  0  0
  136.8549   75.9105  221.9996 H   0  0  0  0  0  0  0  0  0  0  0  0
  137.1845   76.0232  223.7419 H   0  0  0  0  0  0  0  0  0  0  0  0
  139.5549   77.5204  220.4704 H   0  0  0  0  0  0  0  0  0  0  0  0
  139.4721   79.2901  220.6211 H   0  0  0  0  0  0  0  0  0  0  0  0
  141.7853   79.3515  221.0295 H   0  0  0  0  0  0  0  0  0  0  0  0
  142.2920   76.7430  221.2220 H   0  0  0  0  0  0  0  0  0  0  0  0
  142.3580   78.6094  223.2846 H   0  0  0  0  0  0  0  0  0  0  0  0
  141.9120   76.3100  222.3450 H   0  0  0  0  0  0  0  0  0  0  0  0
  139.8568   78.4453  224.3873 H   0  0  0  0  0  0  0  0  0  0  0  0
  141.1996   80.0831  223.9674 H   0  0  0  0  0  0  0  0  0  0  0  0
  137.9214   80.3590  223.7679 H   0  0  0  0  0  0  0  0  0  0  0  0
  138.4583   81.4755  224.6983 H   0  0  0  0  0  0  0  0  0  0  0  0
  139.2983   80.9256  221.6412 H   0  0  0  0  0  0  0  0  0  0  0  0
  140.0839   82.1519  222.2056 H   0  0  0  0  0  0  0  0  0  0  0  0
  139.5724   72.1153  221.5647 H   0  0  0  0  0  0  0  0  0  0  0  0
  141.7116   70.9563  221.3112 H   0  0  0  0  0  0  0  0  0  0  0  0
  144.1197   71.0276  220.8662 H   0  0  0  0  0  0  0  0  0  0  0  0
  145.9730   74.8453  220.0880 H   0  0  0  0  0  0  0  0  0  0  0  0
  143.7670   75.9801  220.3552 H   0  0  0  0  0  0  0  0  0  0  0  0
  1  2  2  0
  2  3  1  0
  3  4  1  0
  4  5  1  0
  5  6  2  0
  5  7  1  0
  7  8  1  0
  8  9  1  0
  9 10  1  0
  9 11  1  0
 11 12  1  0
 11 13  1  0
 13 14  1  0
 14 15  1  0
 15 16  1  0
  2 17  1  0
 17 18  2  0
 18 19  1  0
 19 20  2  0
 20 21  1  0
 21 22  2  0
 22 23  1  0
 22 24  1  0
 24 25  2  0
 25 26  1  0
 26 27  2  0
 13  7  1  0
 16 14  1  0
 27 17  1  0
 26 20  1  0
  3 28  1  0
  4 29  1  0
  4 30  1  0
  8 31  1  0
  8 32  1  0
  9 33  1  1
 10 34  1  0
 11 35  1  1
 12 36  1  0
 13 37  1  1
 14 38  1  0
 15 39  1  0
 15 40  1  0
 16 41  1  0
 16 42  1  0
 18 43  1  0
 19 44  1  0
 21 45  1  0
 24 46  1  0
 25 47  1  0
M  END
>  <smiles>  (12) 
O=C(NCC(=O)N1C[C@H](O)[C@H](O)[C@H]1C1CC1)c1ccc2cc(F)ccc2n1

>  <score_type>  (12) 
oracle

>  <origin>  (12) 
autodockgpu

>  <m_score__min__energy>  (12) 
-7.7000000000000002

>  <m_primary>  (12) 
energy

>  <rmsd>  (12) 
6.02680825106557

>  <m_score__min__rmsd>  (12) 
6.02680825106557

>  <meeko>  (12) 
{"free_energy": -5.65, "intermolecular_energy": -7.74, "internal_energy": -4.86, "cluster_size": 24, "cluster_id": 4, "rank_in_cluster": 13}

>  <energy>  (12) 
-7.15

>  <cluster_rmsd>  (12) 
0.0

>  <cluster>  (12) 
2

$$$$

     RDKit          3D

 47 50  0  0  0  0  0  0  0  0999 V2000
  140.7080   78.3300  217.0470 O   0  0  0  0  0  0  0  0  0  0  0  0
  141.7480   78.3280  217.7620 C   0  0  0  0  0  0  0  0  0  0  0  0
  142.8830   77.5180  217.4860 N   0  0  0  0  0  0  0  0  0  0  0  0
  142.9200   76.6100  216.3260 C   0  0  0  0  0  0  0  0  0  0  0  0
  142.8480   75.2580  216.8500 C   0  0  0  0  0  0  0  0  0  0  0  0
  142.6680   74.3070  216.0100 O   0  0  0  0  0  0  0  0  0  0  0  0
  142.9530   74.8570  218.2050 N   0  0  0  0  0  0  0  0  0  0  0  0
  141.7750   74.7800  219.0750 C   0  0  0  0  0  0  0  0  0  0  0  0
  142.2610   74.9530  220.4920 C   0  0  2  0  0  0  0  0  0  0  0  0
  141.5930   76.0130  221.1000 O   0  0  0  0  0  0  0  0  0  0  0  0
  143.7470   75.2170  220.3270 C   0  0  2  0  0  0  0  0  0  0  0  0
  143.8970   76.5770  220.0740 O   0  0  0  0  0  0  0  0  0  0  0  0
  144.0550   74.4790  219.0240 C   0  0  1  0  0  0  0  0  0  0  0  0
  144.2890   73.0350  219.2500 C   0  0  0  0  0  0  0  0  0  0  0  0
  144.7960   72.6430  220.6350 C   0  0  0  0  0  0  0  0  0  0  0  0
  145.5770   72.3670  219.3900 C   0  0  0  0  0  0  0  0  0  0  0  0
  141.7670   79.2170  218.9400 C   0  0  0  0  0  0  0  0  0  0  0  0
  141.6000   80.5720  218.8170 C   0  0  0  0  0  0  0  0  0  0  0  0
  141.6210   81.3730  219.9160 C   0  0  0  0  0  0  0  0  0  0  0  0
  141.8090   80.8450  221.1790 C   0  0  0  0  0  0  0  0  0  0  0  0
  141.8340   81.6360  222.3040 C   0  0  0  0  0  0  0  0  0  0  0  0
  142.0270   81.0450  223.5350 C   0  0  0  0  0  0  0  0  0  0  0  0
  142.0450   81.8630  224.6280 F   0  0  0  0  0  0  0  0  0  0  0  0
  142.1960   79.6670  223.6540 C   0  0  0  0  0  0  0  0  0  0  0  0
  142.1710   78.8730  222.5220 C   0  0  0  0  0  0  0  0  0  0  0  0
  141.9770   79.4720  221.2900 C   0  0  0  0  0  0  0  0  0  0  0  0
  141.9510   78.7070  220.1840 N   0  0  0  0  0  0  0  0  0  0  0  0
  143.6840   77.6020  218.1480 H   0  0  0  0  0  0  0  0  0  0  0  0
  142.0635   76.8059  215.6642 H   0  0  0  0  0  0  0  0  0  0  0  0
  143.8380   76.7574  215.7381 H   0  0  0  0  0  0  0  0  0  0  0  0
  141.0638   75.5793  218.8194 H   0  0  0  0  0  0  0  0  0  0  0  0
  141.2587   73.8165  218.9521 H   0  0  0  0  0  0  0  0  0  0  0  0
  142.0737   74.0841  221.1400 H   0  0  0  0  0  0  0  0  0  0  0  0
  142.2330   76.7790  221.1390 H   0  0  0  0  0  0  0  0  0  0  0  0
  144.3677   74.9196  221.1850 H   0  0  0  0  0  0  0  0  0  0  0  0
  143.4030   77.1320  220.7140 H   0  0  0  0  0  0  0  0  0  0  0  0
  145.0003   74.7420  218.5268 H   0  0  0  0  0  0  0  0  0  0  0  0
  143.4473   72.8278  218.5729 H   0  0  0  0  0  0  0  0  0  0  0  0
  145.1324   73.4145  221.3432 H   0  0  0  0  0  0  0  0  0  0  0  0
  144.4147   72.0481  221.4780 H   0  0  0  0  0  0  0  0  0  0  0  0
  146.5037   72.9263  219.1942 H   0  0  0  0  0  0  0  0  0  0  0  0
  146.0202   71.4612  218.9506 H   0  0  0  0  0  0  0  0  0  0  0  0
  141.4478   81.0150  217.8217 H   0  0  0  0  0  0  0  0  0  0  0  0
  141.4862   82.4583  219.7975 H   0  0  0  0  0  0  0  0  0  0  0  0
  141.7019   82.7250  222.2229 H   0  0  0  0  0  0  0  0  0  0  0  0
  142.3486   79.2127  224.6441 H   0  0  0  0  0  0  0  0  0  0  0  0
  142.3031   77.7837  222.5998 H   0  0  0  0  0  0  0  0  0  0  0  0
  1  2  2  0
  2  3  1  0
  3  4  1  0
  4  5  1  0
  5  6  2  0
  5  7  1  0
  7  8  1  0
  8  9  1  0
  9 10  1  0
  9 11  1  0
 11 12  1  0
 11 13  1  0
 13 14  1  0
 14 15  1  0
 15 16  1  0
  2 17  1  0
 17 18  2  0
 18 19  1  0
 19 20  2  0
 20 21  1  0
 21 22  2  0
 22 23  1  0
 22 24  1  0
 24 25  2  0
 25 26  1  0
 26 27  2  0
 13  7  1  0
 16 14  1  0
 27 17  1  0
 26 20  1  0
  3 28  1  0
  4 29  1  0
  4 30  1  0
  8 31  1  0
  8 32  1  0
  9 33  1  1
 10 34  1  0
 11 35  1  1
 12 36  1  0
 13 37  1  6
 14 38  1  0
 15 39  1  0
 15 40  1  0
 16 41  1  0
 16 42  1  0
 18 43  1  0
 19 44  1  0
 21 45  1  0
 24 46  1  0
 25 47  1  0
M  END
>  <smiles>  (13) 
O=C(NCC(=O)N1C[C@H](O)[C@H](O)[C@H]1C1CC1)c1ccc2cc(F)ccc2n1

>  <score_type>  (13) 
oracle

>  <origin>  (13) 
autodockgpu

>  <m_score__min__energy>  (13) 
-7.7000000000000002

>  <m_primary>  (13) 
energy

>  <rmsd>  (13) 
9.05006725938916

>  <m_score__min__rmsd>  (13) 
9.05006725938916

>  <meeko>  (13) 
{"free_energy": -5.17, "intermolecular_energy": -7.25, "internal_energy": -4.95, "cluster_size": 5, "cluster_id": 5, "rank_in_cluster": 5}

>  <energy>  (13) 
-7.12

>  <cluster_rmsd>  (13) 
0.09

>  <cluster>  (13) 
2

$$$$

     RDKit          3D

 47 50  0  0  0  0  0  0  0  0999 V2000
  138.2700   74.6630  220.3870 O   0  0  0  0  0  0  0  0  0  0  0  0
  139.0960   74.7420  221.3370 C   0  0  0  0  0  0  0  0  0  0  0  0
  138.8480   75.4770  222.5280 N   0  0  0  0  0  0  0  0  0  0  0  0
  137.5890   76.2130  222.7340 C   0  0  0  0  0  0  0  0  0  0  0  0
  137.8970   77.6240  222.5790 C   0  0  0  0  0  0  0  0  0  0  0  0
  136.9150   78.4470  222.5750 O   0  0  0  0  0  0  0  0  0  0  0  0
  139.1780   78.2100  222.4250 N   0  0  0  0  0  0  0  0  0  0  0  0
  139.8040   78.3500  221.1060 C   0  0  0  0  0  0  0  0  0  0  0  0
  141.2950   78.3930  221.3280 C   0  0  2  0  0  0  0  0  0  0  0  0
  141.9180   77.3970  220.5800 O   0  0  0  0  0  0  0  0  0  0  0  0
  141.4380   78.1760  222.8240 C   0  0  2  0  0  0  0  0  0  0  0  0
  141.4110   76.8030  223.0440 O   0  0  0  0  0  0  0  0  0  0  0  0
  140.1190   78.7440  223.3500 C   0  0  1  0  0  0  0  0  0  0  0  0
  140.1770   80.2150  223.5100 C   0  0  0  0  0  0  0  0  0  0  0  0
  138.8680   80.9040  223.8870 C   0  0  0  0  0  0  0  0  0  0  0  0
  139.6010   81.2170  222.6220 C   0  0  0  0  0  0  0  0  0  0  0  0
  140.3780   74.0250  221.1860 C   0  0  0  0  0  0  0  0  0  0  0  0
  140.4580   72.6640  221.3260 C   0  0  0  0  0  0  0  0  0  0  0  0
  141.6490   72.0240  221.1830 C   0  0  0  0  0  0  0  0  0  0  0  0
  142.8050   72.7260  220.8940 C   0  0  0  0  0  0  0  0  0  0  0  0
  144.0200   72.1000  220.7440 C   0  0  0  0  0  0  0  0  0  0  0  0
  145.1350   72.8590  220.4560 C   0  0  0  0  0  0  0  0  0  0  0  0
  146.3230   72.2010  220.3150 F   0  0  0  0  0  0  0  0  0  0  0  0
  145.0470   74.2420  220.3150 C   0  0  0  0  0  0  0  0  0  0  0  0
  143.8240   74.8700  220.4650 C   0  0  0  0  0  0  0  0  0  0  0  0
  142.7100   74.1030  220.7540 C   0  0  0  0  0  0  0  0  0  0  0  0
  141.5170   74.7060  220.9020 N   0  0  0  0  0  0  0  0  0  0  0  0
  139.6060   75.4680  223.2440 H   0  0  0  0  0  0  0  0  0  0  0  0
  136.8432   75.9040  221.9868 H   0  0  0  0  0  0  0  0  0  0  0  0
  137.1705   76.0077  223.7303 H   0  0  0  0  0  0  0  0  0  0  0  0
  139.5413   77.4917  220.4702 H   0  0  0  0  0  0  0  0  0  0  0  0
  139.4558   79.2631  220.6011 H   0  0  0  0  0  0  0  0  0  0  0  0
  141.7691   79.3329  221.0089 H   0  0  0  0  0  0  0  0  0  0  0  0
  142.2780   76.7270  221.2280 H   0  0  0  0  0  0  0  0  0  0  0  0
  142.3423   78.6141  223.2716 H   0  0  0  0  0  0  0  0  0  0  0  0
  141.8590   76.3030  222.3300 H   0  0  0  0  0  0  0  0  0  0  0  0
  139.8406   78.4583  224.3751 H   0  0  0  0  0  0  0  0  0  0  0  0
  141.2049   80.0993  223.8842 H   0  0  0  0  0  0  0  0  0  0  0  0
  137.9186   80.3492  223.8572 H   0  0  0  0  0  0  0  0  0  0  0  0
  138.4953   81.4779  224.7483 H   0  0  0  0  0  0  0  0  0  0  0  0
  139.1754   80.9072  221.6561 H   0  0  0  0  0  0  0  0  0  0  0  0
  139.9802   82.1443  222.1678 H   0  0  0  0  0  0  0  0  0  0  0  0
  139.5515   72.0849  221.5559 H   0  0  0  0  0  0  0  0  0  0  0  0
  141.6938   70.9310  221.2989 H   0  0  0  0  0  0  0  0  0  0  0  0
  144.1017   71.0084  220.8523 H   0  0  0  0  0  0  0  0  0  0  0  0
  145.9464   74.8321  220.0853 H   0  0  0  0  0  0  0  0  0  0  0  0
  143.7387   75.9613  220.3563 H   0  0  0  0  0  0  0  0  0  0  0  0
  1  2  2  0
  2  3  1  0
  3  4  1  0
  4  5  1  0
  5  6  2  0
  5  7  1  0
  7  8  1  0
  8  9  1  0
  9 10  1  0
  9 11  1  0
 11 12  1  0
 11 13  1  0
 13 14  1  0
 14 15  1  0
 15 16  1  0
  2 17  1  0
 17 18  2  0
 18 19  1  0
 19 20  2  0
 20 21  1  0
 21 22  2  0
 22 23  1  0
 22 24  1  0
 24 25  2  0
 25 26  1  0
 26 27  2  0
 13  7  1  0
 16 14  1  0
 27 17  1  0
 26 20  1  0
  3 28  1  0
  4 29  1  0
  4 30  1  0
  8 31  1  0
  8 32  1  0
  9 33  1  6
 10 34  1  0
 11 35  1  1
 12 36  1  0
 13 37  1  1
 14 38  1  0
 15 39  1  0
 15 40  1  0
 16 41  1  0
 16 42  1  0
 18 43  1  0
 19 44  1  0
 21 45  1  0
 24 46  1  0
 25 47  1  0
M  END
>  <smiles>  (14) 
O=C(NCC(=O)N1C[C@H](O)[C@H](O)[C@H]1C1CC1)c1ccc2cc(F)ccc2n1

>  <score_type>  (14) 
oracle

>  <origin>  (14) 
autodockgpu

>  <m_score__min__energy>  (14) 
-7.7000000000000002

>  <m_primary>  (14) 
energy

>  <rmsd>  (14) 
6.010977488203668

>  <m_score__min__rmsd>  (14) 
6.010977488203668

>  <meeko>  (14) 
{"free_energy": -5.63, "intermolecular_energy": -7.72, "internal_energy": -4.88, "cluster_size": 24, "cluster_id": 4, "rank_in_cluster": 18}

>  <energy>  (14) 
-7.14

>  <cluster_rmsd>  (14) 
0.0

>  <cluster>  (14) 
3

$$$$

     RDKit          3D

 47 50  0  0  0  0  0  0  0  0999 V2000
  140.1050   74.1500  222.0310 O   0  0  0  0  0  0  0  0  0  0  0  0
  140.3870   72.9510  221.7560 C   0  0  0  0  0  0  0  0  0  0  0  0
  140.8330   72.5280  220.4750 N   0  0  0  0  0  0  0  0  0  0  0  0
  140.9960   73.4780  219.3610 C   0  0  0  0  0  0  0  0  0  0  0  0
  142.3920   73.8750  219.3490 C   0  0  0  0  0  0  0  0  0  0  0  0
  142.6670   75.0620  218.9510 O   0  0  0  0  0  0  0  0  0  0  0  0
  143.5100   73.0910  219.7290 N   0  0  0  0  0  0  0  0  0  0  0  0
  144.3650   73.4710  220.8570 C   0  0  0  0  0  0  0  0  0  0  0  0
  145.7210   72.8590  220.6090 C   0  0  2  0  0  0  0  0  0  0  0  0
  146.7020   73.8470  220.6270 O   0  0  0  0  0  0  0  0  0  0  0  0
  145.5720   72.2080  219.2460 C   0  0  2  0  0  0  0  0  0  0  0  0
  145.8060   73.1940  218.2920 O   0  0  0  0  0  0  0  0  0  0  0  0
  144.0770   71.8910  219.2100 C   0  0  1  0  0  0  0  0  0  0  0  0
  143.7650   70.6210  219.9030 C   0  0  0  0  0  0  0  0  0  0  0  0
  143.8830   69.3500  219.0650 C   0  0  0  0  0  0  0  0  0  0  0  0
  142.5960   69.7740  219.6980 C   0  0  0  0  0  0  0  0  0  0  0  0
  140.2410   71.9530  222.8340 C   0  0  0  0  0  0  0  0  0  0  0  0
  139.6740   70.7270  222.6030 C   0  0  0  0  0  0  0  0  0  0  0  0
  139.5490   69.8220  223.6110 C   0  0  0  0  0  0  0  0  0  0  0  0
  139.9890   70.1140  224.8880 C   0  0  0  0  0  0  0  0  0  0  0  0
  139.8730   69.2150  225.9220 C   0  0  0  0  0  0  0  0  0  0  0  0
  140.3320   69.5690  227.1740 C   0  0  0  0  0  0  0  0  0  0  0  0
  140.2000   68.6490  228.1740 F   0  0  0  0  0  0  0  0  0  0  0  0
  140.9090   70.8160  227.4030 C   0  0  0  0  0  0  0  0  0  0  0  0
  141.0240   71.7200  226.3620 C   0  0  0  0  0  0  0  0  0  0  0  0
  140.5620   71.3580  225.1090 C   0  0  0  0  0  0  0  0  0  0  0  0
  140.6710   72.2310  224.0920 N   0  0  0  0  0  0  0  0  0  0  0  0
  141.0370   71.5110  220.3680 H   0  0  0  0  0  0  0  0  0  0  0  0
  140.7317   72.9942  218.4091 H   0  0  0  0  0  0  0  0  0  0  0  0
  140.3386   74.3508  219.4873 H   0  0  0  0  0  0  0  0  0  0  0  0
  144.4498   74.5662  220.9145 H   0  0  0  0  0  0  0  0  0  0  0  0
  143.9417   73.1146  221.8077 H   0  0  0  0  0  0  0  0  0  0  0  0
  146.0313   72.1311  221.3731 H   0  0  0  0  0  0  0  0  0  0  0  0
  146.7110   74.2670  219.7210 H   0  0  0  0  0  0  0  0  0  0  0  0
  146.2320   71.3456  219.0707 H   0  0  0  0  0  0  0  0  0  0  0  0
  145.7620   74.0970  218.6720 H   0  0  0  0  0  0  0  0  0  0  0  0
  143.6501   71.6698  218.2206 H   0  0  0  0  0  0  0  0  0  0  0  0
  144.1736   71.0626  220.8239 H   0  0  0  0  0  0  0  0  0  0  0  0
  144.0139   69.4127  217.9746 H   0  0  0  0  0  0  0  0  0  0  0  0
  144.5126   68.4481  219.0798 H   0  0  0  0  0  0  0  0  0  0  0  0
  141.7703   70.1309  219.0648 H   0  0  0  0  0  0  0  0  0  0  0  0
  141.8787   69.2847  220.3733 H   0  0  0  0  0  0  0  0  0  0  0  0
  139.3170   70.4725  221.5941 H   0  0  0  0  0  0  0  0  0  0  0  0
  139.0908   68.8431  223.4065 H   0  0  0  0  0  0  0  0  0  0  0  0
  139.4203   68.2268  225.7532 H   0  0  0  0  0  0  0  0  0  0  0  0
  141.2716   71.0808  228.4072 H   0  0  0  0  0  0  0  0  0  0  0  0
  141.4750   72.7095  226.5276 H   0  0  0  0  0  0  0  0  0  0  0  0
  1  2  2  0
  2  3  1  0
  3  4  1  0
  4  5  1  0
  5  6  2  0
  5  7  1  0
  7  8  1  0
  8  9  1  0
  9 10  1  0
  9 11  1  0
 11 12  1  0
 11 13  1  0
 13 14  1  0
 14 15  1  0
 15 16  1  0
  2 17  1  0
 17 18  2  0
 18 19  1  0
 19 20  2  0
 20 21  1  0
 21 22  2  0
 22 23  1  0
 22 24  1  0
 24 25  2  0
 25 26  1  0
 26 27  2  0
 13  7  1  0
 16 14  1  0
 27 17  1  0
 26 20  1  0
  3 28  1  0
  4 29  1  0
  4 30  1  0
  8 31  1  0
  8 32  1  0
  9 33  1  1
 10 34  1  0
 11 35  1  1
 12 36  1  0
 13 37  1  6
 14 38  1  0
 15 39  1  0
 15 40  1  0
 16 41  1  0
 16 42  1  0
 18 43  1  0
 19 44  1  0
 21 45  1  0
 24 46  1  0
 25 47  1  0
M  END
>  <smiles>  (15) 
O=C(NCC(=O)N1C[C@H](O)[C@H](O)[C@H]1C1CC1)c1ccc2cc(F)ccc2n1

>  <score_type>  (15) 
oracle

>  <origin>  (15) 
autodockgpu

>  <m_score__min__energy>  (15) 
-7.7000000000000002

>  <m_primary>  (15) 
energy

>  <rmsd>  (15) 
4.117556207941583

>  <m_score__min__rmsd>  (15) 
4.117556207941583

>  <meeko>  (15) 
{"free_energy": -7.33, "intermolecular_energy": -9.42, "internal_energy": -2.83, "cluster_size": 11, "cluster_id": 1, "rank_in_cluster": 5}

>  <energy>  (15) 
-7.06

>  <cluster_rmsd>  (15) 
0.99

>  <cluster>  (15) 
3

$$$$

     RDKit          3D

 47 50  0  0  0  0  0  0  0  0999 V2000
  138.6620   75.1610  221.6850 O   0  0  0  0  0  0  0  0  0  0  0  0
  139.8600   75.5480  221.7620 C   0  0  0  0  0  0  0  0  0  0  0  0
  140.9660   74.7450  221.3730 N   0  0  0  0  0  0  0  0  0  0  0  0
  140.7830   73.3810  220.8460 C   0  0  0  0  0  0  0  0  0  0  0  0
  142.0900   72.7480  220.8600 C   0  0  0  0  0  0  0  0  0  0  0  0
  142.1990   71.6290  221.4740 O   0  0  0  0  0  0  0  0  0  0  0  0
  143.2830   73.2300  220.2660 N   0  0  0  0  0  0  0  0  0  0  0  0
  144.0310   72.4310  219.2910 C   0  0  0  0  0  0  0  0  0  0  0  0
  145.4650   72.8960  219.3470 C   0  0  2  0  0  0  0  0  0  0  0  0
  146.3070   71.8190  219.6090 O   0  0  0  0  0  0  0  0  0  0  0  0
  145.4620   73.9220  220.4660 C   0  0  2  0  0  0  0  0  0  0  0  0
  145.6060   73.2250  221.6620 O   0  0  0  0  0  0  0  0  0  0  0  0
  144.0230   74.4380  220.4150 C   0  0  1  0  0  0  0  0  0  0  0  0
  143.8500   75.4890  219.3880 C   0  0  0  0  0  0  0  0  0  0  0  0
  142.7930   76.5510  219.6800 C   0  0  0  0  0  0  0  0  0  0  0  0
  142.7170   75.6560  218.4850 C   0  0  0  0  0  0  0  0  0  0  0  0
  140.1050   76.9070  222.2840 C   0  0  0  0  0  0  0  0  0  0  0  0
  139.0770   77.7020  222.7210 C   0  0  0  0  0  0  0  0  0  0  0  0
  139.3250   78.9510  223.1990 C   0  0  0  0  0  0  0  0  0  0  0  0
  140.6130   79.4490  223.2560 C   0  0  0  0  0  0  0  0  0  0  0  0
  140.8870   80.7080  223.7360 C   0  0  0  0  0  0  0  0  0  0  0  0
  142.1950   81.1450  223.7660 C   0  0  0  0  0  0  0  0  0  0  0  0
  142.4270   82.4000  224.2490 F   0  0  0  0  0  0  0  0  0  0  0  0
  143.2360   80.3320  223.3210 C   0  0  0  0  0  0  0  0  0  0  0  0
  142.9580   79.0650  222.8390 C   0  0  0  0  0  0  0  0  0  0  0  0
  141.6440   78.6340  222.8120 C   0  0  0  0  0  0  0  0  0  0  0  0
  141.3670   77.4040  222.3450 N   0  0  0  0  0  0  0  0  0  0  0  0
  141.9100   75.1730  221.4810 H   0  0  0  0  0  0  0  0  0  0  0  0
  140.0833   72.8196  221.4826 H   0  0  0  0  0  0  0  0  0  0  0  0
  140.3656   73.4032  219.8285 H   0  0  0  0  0  0  0  0  0  0  0  0
  143.9695   71.3638  219.5505 H   0  0  0  0  0  0  0  0  0  0  0  0
  143.6167   72.5569  218.2798 H   0  0  0  0  0  0  0  0  0  0  0  0
  145.8339   73.3270  218.4046 H   0  0  0  0  0  0  0  0  0  0  0  0
  146.0820   71.4880  220.5250 H   0  0  0  0  0  0  0  0  0  0  0  0
  146.2358   74.6994  220.3836 H   0  0  0  0  0  0  0  0  0  0  0  0
  145.4740   72.2600  221.5480 H   0  0  0  0  0  0  0  0  0  0  0  0
  143.6709   74.9876  221.3004 H   0  0  0  0  0  0  0  0  0  0  0  0
  144.9265   75.4095  219.1761 H   0  0  0  0  0  0  0  0  0  0  0  0
  142.0912   76.4219  220.5172 H   0  0  0  0  0  0  0  0  0  0  0  0
  142.7902   77.6367  219.8566 H   0  0  0  0  0  0  0  0  0  0  0  0
  141.9408   74.8780  218.4369 H   0  0  0  0  0  0  0  0  0  0  0  0
  142.6209   75.8315  217.4033 H   0  0  0  0  0  0  0  0  0  0  0  0
  138.0436   77.3268  222.6847 H   0  0  0  0  0  0  0  0  0  0  0  0
  138.4876   79.5744  223.5456 H   0  0  0  0  0  0  0  0  0  0  0  0
  140.0739   81.3581  224.0913 H   0  0  0  0  0  0  0  0  0  0  0  0
  144.2736   80.6958  223.3528 H   0  0  0  0  0  0  0  0  0  0  0  0
  143.7683   78.4117  222.4833 H   0  0  0  0  0  0  0  0  0  0  0  0
  1  2  2  0
  2  3  1  0
  3  4  1  0
  4  5  1  0
  5  6  2  0
  5  7  1  0
  7  8  1  0
  8  9  1  0
  9 10  1  0
  9 11  1  0
 11 12  1  0
 11 13  1  0
 13 14  1  0
 14 15  1  0
 15 16  1  0
  2 17  1  0
 17 18  2  0
 18 19  1  0
 19 20  2  0
 20 21  1  0
 21 22  2  0
 22 23  1  0
 22 24  1  0
 24 25  2  0
 25 26  1  0
 26 27  2  0
 13  7  1  0
 16 14  1  0
 27 17  1  0
 26 20  1  0
  3 28  1  0
  4 29  1  0
  4 30  1  0
  8 31  1  0
  8 32  1  0
  9 33  1  6
 10 34  1  0
 11 35  1  6
 12 36  1  0
 13 37  1  1
 14 38  1  0
 15 39  1  0
 15 40  1  0
 16 41  1  0
 16 42  1  0
 18 43  1  0
 19 44  1  0
 21 45  1  0
 24 46  1  0
 25 47  1  0
M  END
>  <smiles>  (16) 
O=C(NCC(=O)N1C[C@H](O)[C@H](O)[C@H]1C1CC1)c1ccc2cc(F)ccc2n1

>  <score_type>  (16) 
oracle

>  <origin>  (16) 
autodockgpu

>  <m_score__min__energy>  (16) 
-7.7000000000000002

>  <m_primary>  (16) 
energy

>  <rmsd>  (16) 
7.829447936043824

>  <m_score__min__rmsd>  (16) 
7.829447936043824

>  <meeko>  (16) 
{"free_energy": -7.12, "intermolecular_energy": -9.21, "internal_energy": -3.23, "cluster_size": 2, "cluster_id": 2, "rank_in_cluster": 2}

>  <energy>  (16) 
-6.26

>  <cluster_rmsd>  (16) 
1.8

>  <cluster>  (16) 
3

$$$$

     RDKit          3D

 47 50  0  0  0  0  0  0  0  0999 V2000
  138.1730   74.2960  220.4990 O   0  0  0  0  0  0  0  0  0  0  0  0
  139.0820   74.5260  221.3430 C   0  0  0  0  0  0  0  0  0  0  0  0
  138.9100   75.3860  222.4610 N   0  0  0  0  0  0  0  0  0  0  0  0
  137.6350   76.0810  222.7120 C   0  0  0  0  0  0  0  0  0  0  0  0
  137.8770   77.4950  222.4870 C   0  0  0  0  0  0  0  0  0  0  0  0
  136.8570   78.2680  222.4260 O   0  0  0  0  0  0  0  0  0  0  0  0
  139.1310   78.1340  222.3200 N   0  0  0  0  0  0  0  0  0  0  0  0
  139.7680   78.2390  221.0030 C   0  0  0  0  0  0  0  0  0  0  0  0
  141.2520   78.3660  221.2400 C   0  0  2  0  0  0  0  0  0  0  0  0
  141.9330   77.3650  220.5510 O   0  0  0  0  0  0  0  0  0  0  0  0
  141.3830   78.2310  222.7470 C   0  0  2  0  0  0  0  0  0  0  0  0
  141.4190   76.8700  223.0360 O   0  0  0  0  0  0  0  0  0  0  0  0
  140.0310   78.7590  223.2280 C   0  0  1  0  0  0  0  0  0  0  0  0
  140.0160   80.2370  223.3160 C   0  0  0  0  0  0  0  0  0  0  0  0
  138.7740   80.8620  223.9460 C   0  0  0  0  0  0  0  0  0  0  0  0
  139.1900   81.1530  222.5380 C   0  0  0  0  0  0  0  0  0  0  0  0
  140.3830   73.8570  221.1430 C   0  0  0  0  0  0  0  0  0  0  0  0
  140.5010   72.4920  221.1840 C   0  0  0  0  0  0  0  0  0  0  0  0
  141.7090   71.8970  220.9960 C   0  0  0  0  0  0  0  0  0  0  0  0
  142.8450   72.6490  220.7600 C   0  0  0  0  0  0  0  0  0  0  0  0
  144.0770   72.0690  220.5670 C   0  0  0  0  0  0  0  0  0  0  0  0
  145.1700   72.8770  220.3370 C   0  0  0  0  0  0  0  0  0  0  0  0
  146.3750   72.2650  220.1500 F   0  0  0  0  0  0  0  0  0  0  0  0
  145.0440   74.2650  220.2960 C   0  0  0  0  0  0  0  0  0  0  0  0
  143.8040   74.8470  220.4900 C   0  0  0  0  0  0  0  0  0  0  0  0
  142.7120   74.0300  220.7210 C   0  0  0  0  0  0  0  0  0  0  0  0
  141.5030   74.5880  220.9100 N   0  0  0  0  0  0  0  0  0  0  0  0
  139.7330   75.4980  223.0910 H   0  0  0  0  0  0  0  0  0  0  0  0
  136.8614   75.7145  222.0211 H   0  0  0  0  0  0  0  0  0  0  0  0
  137.2814   75.8992  223.7377 H   0  0  0  0  0  0  0  0  0  0  0  0
  139.5562   77.3384  220.4080 H   0  0  0  0  0  0  0  0  0  0  0  0
  139.3831   79.1078  220.4489 H   0  0  0  0  0  0  0  0  0  0  0  0
  141.6851   79.3106  220.8793 H   0  0  0  0  0  0  0  0  0  0  0  0
  142.2210   76.6890  221.2270 H   0  0  0  0  0  0  0  0  0  0  0  0
  142.2584   78.7349  223.1827 H   0  0  0  0  0  0  0  0  0  0  0  0
  141.6720   76.3310  222.2570 H   0  0  0  0  0  0  0  0  0  0  0  0
  139.7511   78.5115  224.2626 H   0  0  0  0  0  0  0  0  0  0  0  0
  141.1062   80.2057  223.4594 H   0  0  0  0  0  0  0  0  0  0  0  0
  137.8836   80.2483  224.1475 H   0  0  0  0  0  0  0  0  0  0  0  0
  138.5571   81.4563  224.8458 H   0  0  0  0  0  0  0  0  0  0  0  0
  138.5883   80.7664  221.7022 H   0  0  0  0  0  0  0  0  0  0  0  0
  139.3933   82.0765  221.9760 H   0  0  0  0  0  0  0  0  0  0  0  0
  139.6111   71.8729  221.3705 H   0  0  0  0  0  0  0  0  0  0  0  0
  141.7837   70.8001  221.0322 H   0  0  0  0  0  0  0  0  0  0  0  0
  144.1887   70.9751  220.5958 H   0  0  0  0  0  0  0  0  0  0  0  0
  145.9267   74.8945  220.1102 H   0  0  0  0  0  0  0  0  0  0  0  0
  143.6885   75.9405  220.4611 H   0  0  0  0  0  0  0  0  0  0  0  0
  1  2  2  0
  2  3  1  0
  3  4  1  0
  4  5  1  0
  5  6  2  0
  5  7  1  0
  7  8  1  0
  8  9  1  0
  9 10  1  0
  9 11  1  0
 11 12  1  0
 11 13  1  0
 13 14  1  0
 14 15  1  0
 15 16  1  0
  2 17  1  0
 17 18  2  0
 18 19  1  0
 19 20  2  0
 20 21  1  0
 21 22  2  0
 22 23  1  0
 22 24  1  0
 24 25  2  0
 25 26  1  0
 26 27  2  0
 13  7  1  0
 16 14  1  0
 27 17  1  0
 26 20  1  0
  3 28  1  0
  4 29  1  0
  4 30  1  0
  8 31  1  0
  8 32  1  0
  9 33  1  6
 10 34  1  0
 11 35  1  1
 12 36  1  0
 13 37  1  1
 14 38  1  0
 15 39  1  0
 15 40  1  0
 16 41  1  0
 16 42  1  0
 18 43  1  0
 19 44  1  0
 21 45  1  0
 24 46  1  0
 25 47  1  0
M  END
>  <smiles>  (17) 
O=C(NCC(=O)N1C[C@H](O)[C@H](O)[C@H]1C1CC1)c1ccc2cc(F)ccc2n1

>  <score_type>  (17) 
oracle

>  <origin>  (17) 
autodockgpu

>  <m_score__min__energy>  (17) 
-7.7000000000000002

>  <m_primary>  (17) 
energy

>  <rmsd>  (17) 
5.978901672706678

>  <m_score__min__rmsd>  (17) 
5.978901672706678

>  <meeko>  (17) 
{"free_energy": -5.35, "intermolecular_energy": -7.44, "internal_energy": -4.86, "cluster_size": 24, "cluster_id": 4, "rank_in_cluster": 24}

>  <energy>  (17) 
-6.0

>  <cluster_rmsd>  (17) 
1.71

>  <cluster>  (17) 
3

$$$$

     RDKit          3D

 47 50  0  0  0  0  0  0  0  0999 V2000
  140.2630   73.6630  222.3570 O   0  0  0  0  0  0  0  0  0  0  0  0
  140.3190   72.4170  222.1650 C   0  0  0  0  0  0  0  0  0  0  0  0
  140.5250   71.8330  220.8870 N   0  0  0  0  0  0  0  0  0  0  0  0
  140.6890   72.6580  219.6770 C   0  0  0  0  0  0  0  0  0  0  0  0
  142.0010   72.3520  219.1350 C   0  0  0  0  0  0  0  0  0  0  0  0
  142.0970   71.3410  218.3540 O   0  0  0  0  0  0  0  0  0  0  0  0
  143.2110   73.0500  219.3740 N   0  0  0  0  0  0  0  0  0  0  0  0
  144.4390   72.7280  218.6400 C   0  0  0  0  0  0  0  0  0  0  0  0
  145.5960   73.1480  219.5110 C   0  0  2  0  0  0  0  0  0  0  0  0
  146.4480   72.0680  219.7270 O   0  0  0  0  0  0  0  0  0  0  0  0
  144.9250   73.6270  220.7860 C   0  0  2  0  0  0  0  0  0  0  0  0
  144.6950   72.5040  221.5750 O   0  0  0  0  0  0  0  0  0  0  0  0
  143.5670   74.1000  220.2670 C   0  0  1  0  0  0  0  0  0  0  0  0
  143.6310   75.4770  219.7280 C   0  0  0  0  0  0  0  0  0  0  0  0
  142.3430   76.2940  219.8060 C   0  0  0  0  0  0  0  0  0  0  0  0
  143.0080   75.9710  218.5060 C   0  0  0  0  0  0  0  0  0  0  0  0
  140.1590   71.5400  223.3420 C   0  0  0  0  0  0  0  0  0  0  0  0
  139.5080   70.3370  223.2550 C   0  0  0  0  0  0  0  0  0  0  0  0
  139.3720   69.5440  224.3510 C   0  0  0  0  0  0  0  0  0  0  0  0
  139.8860   69.9280  225.5760 C   0  0  0  0  0  0  0  0  0  0  0  0
  139.7610   69.1420  226.6980 C   0  0  0  0  0  0  0  0  0  0  0  0
  140.2960   69.5850  227.8890 C   0  0  0  0  0  0  0  0  0  0  0  0
  140.1520   68.7770  228.9800 F   0  0  0  0  0  0  0  0  0  0  0  0
  140.9570   70.8080  227.9720 C   0  0  0  0  0  0  0  0  0  0  0  0
  141.0820   71.5970  226.8420 C   0  0  0  0  0  0  0  0  0  0  0  0
  140.5430   71.1470  225.6500 C   0  0  0  0  0  0  0  0  0  0  0  0
  140.6610   71.9090  224.5480 N   0  0  0  0  0  0  0  0  0  0  0  0
  140.5530   70.7910  220.8530 H   0  0  0  0  0  0  0  0  0  0  0  0
  139.9087   72.4114  218.9419 H   0  0  0  0  0  0  0  0  0  0  0  0
  140.5998   73.7284  219.9142 H   0  0  0  0  0  0  0  0  0  0  0  0
  144.4882   71.6471  218.4418 H   0  0  0  0  0  0  0  0  0  0  0  0
  144.4663   73.2502  217.6722 H   0  0  0  0  0  0  0  0  0  0  0  0
  146.2293   73.9311  219.0687 H   0  0  0  0  0  0  0  0  0  0  0  0
  146.1940   71.6650  220.6050 H   0  0  0  0  0  0  0  0  0  0  0  0
  145.4916   74.3802  221.3532 H   0  0  0  0  0  0  0  0  0  0  0  0
  145.5050   71.9680  221.7040 H   0  0  0  0  0  0  0  0  0  0  0  0
  142.7782   74.2350  221.0217 H   0  0  0  0  0  0  0  0  0  0  0  0
  144.6772   75.5220  220.0648 H   0  0  0  0  0  0  0  0  0  0  0  0
  141.3935   75.8110  220.0804 H   0  0  0  0  0  0  0  0  0  0  0  0
  142.0163   77.2090  220.3219 H   0  0  0  0  0  0  0  0  0  0  0  0
  142.5318   75.2614  217.8133 H   0  0  0  0  0  0  0  0  0  0  0  0
  143.3623   76.5753  217.6579 H   0  0  0  0  0  0  0  0  0  0  0  0
  139.0921   70.0104  222.2905 H   0  0  0  0  0  0  0  0  0  0  0  0
  138.8452   68.5825  224.2619 H   0  0  0  0  0  0  0  0  0  0  0  0
  139.2416   68.1738  226.6457 H   0  0  0  0  0  0  0  0  0  0  0  0
  141.3776   71.1451  228.9309 H   0  0  0  0  0  0  0  0  0  0  0  0
  141.6011   72.5656  226.8907 H   0  0  0  0  0  0  0  0  0  0  0  0
  1  2  2  0
  2  3  1  0
  3  4  1  0
  4  5  1  0
  5  6  2  0
  5  7  1  0
  7  8  1  0
  8  9  1  0
  9 10  1  0
  9 11  1  0
 11 12  1  0
 11 13  1  0
 13 14  1  0
 14 15  1  0
 15 16  1  0
  2 17  1  0
 17 18  2  0
 18 19  1  0
 19 20  2  0
 20 21  1  0
 21 22  2  0
 22 23  1  0
 22 24  1  0
 24 25  2  0
 25 26  1  0
 26 27  2  0
 13  7  1  0
 16 14  1  0
 27 17  1  0
 26 20  1  0
  3 28  1  0
  4 29  1  0
  4 30  1  0
  8 31  1  0
  8 32  1  0
  9 33  1  6
 10 34  1  0
 11 35  1  1
 12 36  1  0
 13 37  1  1
 14 38  1  0
 15 39  1  0
 15 40  1  0
 16 41  1  0
 16 42  1  0
 18 43  1  0
 19 44  1  0
 21 45  1  0
 24 46  1  0
 25 47  1  0
M  END
>  <smiles>  (18) 
O=C(NCC(=O)N1C[C@H](O)[C@H](O)[C@H]1C1CC1)c1ccc2cc(F)ccc2n1

>  <score_type>  (18) 
oracle

>  <origin>  (18) 
autodockgpu

>  <m_score__min__energy>  (18) 
-7.7000000000000002

>  <m_primary>  (18) 
energy

>  <rmsd>  (18) 
3.754860688124054

>  <m_score__min__rmsd>  (18) 
3.754860688124054

>  <meeko>  (18) 
{"free_energy": -7.7, "intermolecular_energy": -9.79, "internal_energy": -2.54, "cluster_size": 11, "cluster_id": 1, "rank_in_cluster": 1}

>  <energy>  (18) 
-5.89

>  <cluster_rmsd>  (18) 
1.78

>  <cluster>  (18) 
3

$$$$

     RDKit          3D

 47 50  0  0  0  0  0  0  0  0999 V2000
  140.6710   78.2980  217.0550 O   0  0  0  0  0  0  0  0  0  0  0  0
  141.7230   78.3110  217.7510 C   0  0  0  0  0  0  0  0  0  0  0  0
  142.8660   77.5210  217.4530 N   0  0  0  0  0  0  0  0  0  0  0  0
  142.8980   76.6160  216.2910 C   0  0  0  0  0  0  0  0  0  0  0  0
  142.9330   75.2630  216.8140 C   0  0  0  0  0  0  0  0  0  0  0  0
  142.9010   74.3000  215.9690 O   0  0  0  0  0  0  0  0  0  0  0  0
  142.9950   74.8710  218.1750 N   0  0  0  0  0  0  0  0  0  0  0  0
  141.7910   74.8070  219.0100 C   0  0  0  0  0  0  0  0  0  0  0  0
  142.2370   74.9870  220.4390 C   0  0  2  0  0  0  0  0  0  0  0  0
  141.5560   76.0550  221.0200 O   0  0  0  0  0  0  0  0  0  0  0  0
  143.7290   75.2430  220.3170 C   0  0  2  0  0  0  0  0  0  0  0  0
  143.8930   76.6000  220.0580 O   0  0  0  0  0  0  0  0  0  0  0  0
  144.0700   74.4930  219.0290 C   0  0  1  0  0  0  0  0  0  0  0  0
  144.2900   73.0500  219.2720 C   0  0  0  0  0  0  0  0  0  0  0  0
  144.8260   72.6720  220.6500 C   0  0  0  0  0  0  0  0  0  0  0  0
  145.5720   72.3660  219.3910 C   0  0  0  0  0  0  0  0  0  0  0  0
  141.7480   79.1990  218.9310 C   0  0  0  0  0  0  0  0  0  0  0  0
  141.5950   80.5550  218.8100 C   0  0  0  0  0  0  0  0  0  0  0  0
  141.6220   81.3550  219.9090 C   0  0  0  0  0  0  0  0  0  0  0  0
  141.8020   80.8220  221.1720 C   0  0  0  0  0  0  0  0  0  0  0  0
  141.8320   81.6110  222.2990 C   0  0  0  0  0  0  0  0  0  0  0  0
  142.0160   81.0160  223.5290 C   0  0  0  0  0  0  0  0  0  0  0  0
  142.0390   81.8320  224.6230 F   0  0  0  0  0  0  0  0  0  0  0  0
  142.1700   79.6370  223.6470 C   0  0  0  0  0  0  0  0  0  0  0  0
  142.1400   78.8450  222.5130 C   0  0  0  0  0  0  0  0  0  0  0  0
  141.9550   79.4480  221.2810 C   0  0  0  0  0  0  0  0  0  0  0  0
  141.9240   78.6850  220.1740 N   0  0  0  0  0  0  0  0  0  0  0  0
  143.6770   77.6170  218.1010 H   0  0  0  0  0  0  0  0  0  0  0  0
  141.9989   76.7602  215.6738 H   0  0  0  0  0  0  0  0  0  0  0  0
  143.7749   76.8172  215.6581 H   0  0  0  0  0  0  0  0  0  0  0  0
  141.0925   75.6087  218.7282 H   0  0  0  0  0  0  0  0  0  0  0  0
  141.2720   73.8461  218.8783 H   0  0  0  0  0  0  0  0  0  0  0  0
  142.0273   74.1229  221.0865 H   0  0  0  0  0  0  0  0  0  0  0  0
  142.2300   76.7710  221.1960 H   0  0  0  0  0  0  0  0  0  0  0  0
  144.3231   74.9500  221.1952 H   0  0  0  0  0  0  0  0  0  0  0  0
  143.3850   77.1620  220.6810 H   0  0  0  0  0  0  0  0  0  0  0  0
  145.0309   74.7470  218.5575 H   0  0  0  0  0  0  0  0  0  0  0  0
  143.4289   72.8444  218.6191 H   0  0  0  0  0  0  0  0  0  0  0  0
  145.1905   73.4494  221.3376 H   0  0  0  0  0  0  0  0  0  0  0  0
  144.4576   72.0954  221.5113 H   0  0  0  0  0  0  0  0  0  0  0  0
  146.5012   72.9091  219.1639 H   0  0  0  0  0  0  0  0  0  0  0  0
  145.9918   71.4474  218.9551 H   0  0  0  0  0  0  0  0  0  0  0  0
  141.4490   81.0005  217.8149 H   0  0  0  0  0  0  0  0  0  0  0  0
  141.4989   82.4418  219.7917 H   0  0  0  0  0  0  0  0  0  0  0  0
  141.7108   82.7014  222.2196 H   0  0  0  0  0  0  0  0  0  0  0  0
  142.3148   79.1797  224.6369 H   0  0  0  0  0  0  0  0  0  0  0  0
  142.2611   77.7544  222.5892 H   0  0  0  0  0  0  0  0  0  0  0  0
  1  2  2  0
  2  3  1  0
  3  4  1  0
  4  5  1  0
  5  6  2  0
  5  7  1  0
  7  8  1  0
  8  9  1  0
  9 10  1  0
  9 11  1  0
 11 12  1  0
 11 13  1  0
 13 14  1  0
 14 15  1  0
 15 16  1  0
  2 17  1  0
 17 18  2  0
 18 19  1  0
 19 20  2  0
 20 21  1  0
 21 22  2  0
 22 23  1  0
 22 24  1  0
 24 25  2  0
 25 26  1  0
 26 27  2  0
 13  7  1  0
 16 14  1  0
 27 17  1  0
 26 20  1  0
  3 28  1  0
  4 29  1  0
  4 30  1  0
  8 31  1  0
  8 32  1  0
  9 33  1  1
 10 34  1  0
 11 35  1  1
 12 36  1  0
 13 37  1  6
 14 38  1  0
 15 39  1  0
 15 40  1  0
 16 41  1  0
 16 42  1  0
 18 43  1  0
 19 44  1  0
 21 45  1  0
 24 46  1  0
 25 47  1  0
M  END
>  <smiles>  (19) 
O=C(NCC(=O)N1C[C@H](O)[C@H](O)[C@H]1C1CC1)c1ccc2cc(F)ccc2n1

>  <score_type>  (19) 
oracle

>  <origin>  (19) 
autodockgpu

>  <m_score__min__energy>  (19) 
-7.7000000000000002

>  <m_primary>  (19) 
energy

>  <rmsd>  (19) 
9.039327881762521

>  <m_score__min__rmsd>  (19) 
9.039327881762521

>  <meeko>  (19) 
{"free_energy": -5.2, "intermolecular_energy": -7.28, "internal_energy": -4.95, "cluster_size": 5, "cluster_id": 5, "rank_in_cluster": 4}

>  <energy>  (19) 
-5.82

>  <cluster_rmsd>  (19) 
1.83

>  <cluster>  (19) 
3

$$$$

     RDKit          3D

 47 50  0  0  0  0  0  0  0  0999 V2000
  140.0580   74.3670  222.0780 O   0  0  0  0  0  0  0  0  0  0  0  0
  140.4060   73.2160  221.6960 C   0  0  0  0  0  0  0  0  0  0  0  0
  140.9370   72.9500  220.4050 N   0  0  0  0  0  0  0  0  0  0  0  0
  141.1160   74.0190  219.4070 C   0  0  0  0  0  0  0  0  0  0  0  0
  142.5460   74.1700  219.2080 C   0  0  0  0  0  0  0  0  0  0  0  0
  142.9420   75.1540  218.4880 O   0  0  0  0  0  0  0  0  0  0  0  0
  143.5760   73.3420  219.7200 N   0  0  0  0  0  0  0  0  0  0  0  0
  144.4010   73.7610  220.8580 C   0  0  0  0  0  0  0  0  0  0  0  0
  145.7130   73.0260  220.7440 C   0  0  2  0  0  0  0  0  0  0  0  0
  146.7690   73.9350  220.7310 O   0  0  0  0  0  0  0  0  0  0  0  0
  145.5820   72.2640  219.4380 C   0  0  2  0  0  0  0  0  0  0  0  0
  145.9430   73.1360  218.4160 O   0  0  0  0  0  0  0  0  0  0  0  0
  144.0690   72.0600  219.3450 C   0  0  1  0  0  0  0  0  0  0  0  0
  143.6210   70.8870  220.1290 C   0  0  0  0  0  0  0  0  0  0  0  0
  144.1270   69.5270  219.6570 C   0  0  0  0  0  0  0  0  0  0  0  0
  142.6710   69.8630  219.7100 C   0  0  0  0  0  0  0  0  0  0  0  0
  140.2470   72.1040  222.6530 C   0  0  0  0  0  0  0  0  0  0  0  0
  139.6720   70.9160  222.2830 C   0  0  0  0  0  0  0  0  0  0  0  0
  139.5350   69.9040  223.1810 C   0  0  0  0  0  0  0  0  0  0  0  0
  139.9710   70.0460  224.4850 C   0  0  0  0  0  0  0  0  0  0  0  0
  139.8430   69.0370  225.4100 C   0  0  0  0  0  0  0  0  0  0  0  0
  140.2980   69.2430  226.6950 C   0  0  0  0  0  0  0  0  0  0  0  0
  140.1540   68.2180  227.5850 F   0  0  0  0  0  0  0  0  0  0  0  0
  140.8820   70.4530  227.0670 C   0  0  0  0  0  0  0  0  0  0  0  0
  141.0100   71.4670  226.1350 C   0  0  0  0  0  0  0  0  0  0  0  0
  140.5510   71.2530  224.8480 C   0  0  0  0  0  0  0  0  0  0  0  0
  140.6720   72.2340  223.9360 N   0  0  0  0  0  0  0  0  0  0  0  0
  141.1890   71.9580  220.2040 H   0  0  0  0  0  0  0  0  0  0  0  0
  140.6292   73.7396  218.4610 H   0  0  0  0  0  0  0  0  0  0  0  0
  140.6632   74.9606  219.7509 H   0  0  0  0  0  0  0  0  0  0  0  0
  144.5717   74.8471  220.8216 H   0  0  0  0  0  0  0  0  0  0  0  0
  143.9026   73.5301  221.8110 H   0  0  0  0  0  0  0  0  0  0  0  0
  145.9233   72.3501  221.5860 H   0  0  0  0  0  0  0  0  0  0  0  0
  146.6500   74.5100  219.9230 H   0  0  0  0  0  0  0  0  0  0  0  0
  146.1782   71.3415  219.3777 H   0  0  0  0  0  0  0  0  0  0  0  0
  145.9610   74.0700  218.7120 H   0  0  0  0  0  0  0  0  0  0  0  0
  143.6751   71.7806  218.3567 H   0  0  0  0  0  0  0  0  0  0  0  0
  143.6347   71.5245  221.0253 H   0  0  0  0  0  0  0  0  0  0  0  0
  144.6406   69.4299  218.6891 H   0  0  0  0  0  0  0  0  0  0  0  0
  144.7719   68.7366  220.0686 H   0  0  0  0  0  0  0  0  0  0  0  0
  142.1086   69.9934  218.7737 H   0  0  0  0  0  0  0  0  0  0  0  0
  141.7947   69.3941  220.1815 H   0  0  0  0  0  0  0  0  0  0  0  0
  139.3182   70.7800  221.2504 H   0  0  0  0  0  0  0  0  0  0  0  0
  139.0703   68.9584  222.8650 H   0  0  0  0  0  0  0  0  0  0  0  0
  139.3836   68.0780  225.1285 H   0  0  0  0  0  0  0  0  0  0  0  0
  141.2393   70.6006  228.0968 H   0  0  0  0  0  0  0  0  0  0  0  0
  141.4690   72.4273  226.4127 H   0  0  0  0  0  0  0  0  0  0  0  0
  1  2  2  0
  2  3  1  0
  3  4  1  0
  4  5  1  0
  5  6  2  0
  5  7  1  0
  7  8  1  0
  8  9  1  0
  9 10  1  0
  9 11  1  0
 11 12  1  0
 11 13  1  0
 13 14  1  0
 14 15  1  0
 15 16  1  0
  2 17  1  0
 17 18  2  0
 18 19  1  0
 19 20  2  0
 20 21  1  0
 21 22  2  0
 22 23  1  0
 22 24  1  0
 24 25  2  0
 25 26  1  0
 26 27  2  0
 13  7  1  0
 16 14  1  0
 27 17  1  0
 26 20  1  0
  3 28  1  0
  4 29  1  0
  4 30  1  0
  8 31  1  0
  8 32  1  0
  9 33  1  1
 10 34  1  0
 11 35  1  1
 12 36  1  0
 13 37  1  6
 14 38  1  0
 15 39  1  0
 15 40  1  0
 16 41  1  0
 16 42  1  0
 18 43  1  0
 19 44  1  0
 21 45  1  0
 24 46  1  0
 25 47  1  0
M  END
>  <smiles>  (20) 
O=C(NCC(=O)N1C[C@H](O)[C@H](O)[C@H]1C1CC1)c1ccc2cc(F)ccc2n1

>  <score_type>  (20) 
oracle

>  <origin>  (20) 
autodockgpu

>  <m_score__min__energy>  (20) 
-7.7000000000000002

>  <m_primary>  (20) 
energy

>  <rmsd>  (20) 
4.145117584050361

>  <m_score__min__rmsd>  (20) 
4.145117584050361

>  <meeko>  (20) 
{"free_energy": -7.4, "intermolecular_energy": -9.49, "internal_energy": -2.9, "cluster_size": 11, "cluster_id": 1, "rank_in_cluster": 3}

>  <energy>  (20) 
-5.93

>  <cluster_rmsd>  (20) 
0.0

>  <cluster>  (20) 
4

$$$$

     RDKit          3D

 47 50  0  0  0  0  0  0  0  0999 V2000
  139.0030   71.7330  221.5470 O   0  0  0  0  0  0  0  0  0  0  0  0
  138.4240   71.8070  222.6660 C   0  0  0  0  0  0  0  0  0  0  0  0
  137.3210   72.6680  222.9180 N   0  0  0  0  0  0  0  0  0  0  0  0
  136.7720   73.5470  221.8710 C   0  0  0  0  0  0  0  0  0  0  0  0
  137.5130   74.7940  221.9400 C   0  0  0  0  0  0  0  0  0  0  0  0
  136.9400   75.7920  222.5050 O   0  0  0  0  0  0  0  0  0  0  0  0
  138.8160   75.0450  221.4450 N   0  0  0  0  0  0  0  0  0  0  0  0
  139.2190   74.6270  220.0990 C   0  0  0  0  0  0  0  0  0  0  0  0
  140.7180   74.4590  220.1190 C   0  0  2  0  0  0  0  0  0  0  0  0
  141.0600   73.1750  219.7030 O   0  0  0  0  0  0  0  0  0  0  0  0
  141.0850   74.7200  221.5690 C   0  0  2  0  0  0  0  0  0  0  0  0
  140.9070   73.5250  222.2590 O   0  0  0  0  0  0  0  0  0  0  0  0
  139.9670   75.6660  222.0100 C   0  0  1  0  0  0  0  0  0  0  0  0
  140.2530   77.0690  221.6370 C   0  0  0  0  0  0  0  0  0  0  0  0
  141.0980   77.8710  222.6230 C   0  0  0  0  0  0  0  0  0  0  0  0
  139.7040   78.2710  222.2550 C   0  0  0  0  0  0  0  0  0  0  0  0
  138.9320   70.9500  223.7540 C   0  0  0  0  0  0  0  0  0  0  0  0
  138.8110   69.5850  223.7070 C   0  0  0  0  0  0  0  0  0  0  0  0
  139.2860   68.8140  224.7210 C   0  0  0  0  0  0  0  0  0  0  0  0
  139.9010   69.3820  225.8200 C   0  0  0  0  0  0  0  0  0  0  0  0
  140.3900   68.6220  226.8570 C   0  0  0  0  0  0  0  0  0  0  0  0
  140.9920   69.2530  227.9250 C   0  0  0  0  0  0  0  0  0  0  0  0
  141.4650   68.4640  228.9350 F   0  0  0  0  0  0  0  0  0  0  0  0
  141.1130   70.6400  227.9680 C   0  0  0  0  0  0  0  0  0  0  0  0
  140.6210   71.4030  226.9240 C   0  0  0  0  0  0  0  0  0  0  0  0
  140.0180   70.7640  225.8560 C   0  0  0  0  0  0  0  0  0  0  0  0
  139.5380   71.5000  224.8370 N   0  0  0  0  0  0  0  0  0  0  0  0
  136.9240   72.6420  223.8810 H   0  0  0  0  0  0  0  0  0  0  0  0
  136.9010   73.0839  220.8816 H   0  0  0  0  0  0  0  0  0  0  0  0
  135.6960   73.7180  222.0229 H   0  0  0  0  0  0  0  0  0  0  0  0
  138.7356   73.6737  219.8390 H   0  0  0  0  0  0  0  0  0  0  0  0
  138.9179   75.3739  219.3497 H   0  0  0  0  0  0  0  0  0  0  0  0
  141.2545   75.1359  219.4378 H   0  0  0  0  0  0  0  0  0  0  0  0
  140.6320   72.5360  220.3410 H   0  0  0  0  0  0  0  0  0  0  0  0
  142.1044   75.1019  221.7271 H   0  0  0  0  0  0  0  0  0  0  0  0
  140.3880   72.8710  221.7440 H   0  0  0  0  0  0  0  0  0  0  0  0
  139.8323   75.7889  223.0948 H   0  0  0  0  0  0  0  0  0  0  0  0
  140.2657   76.7495  220.5845 H   0  0  0  0  0  0  0  0  0  0  0  0
  141.3157   77.4698  223.6238 H   0  0  0  0  0  0  0  0  0  0  0  0
  142.0881   78.3500  222.6093 H   0  0  0  0  0  0  0  0  0  0  0  0
  138.8982   78.1808  222.9983 H   0  0  0  0  0  0  0  0  0  0  0  0
  139.2514   79.1939  221.8633 H   0  0  0  0  0  0  0  0  0  0  0  0
  138.3256   69.1099  222.8418 H   0  0  0  0  0  0  0  0  0  0  0  0
  139.1790   67.7206  224.6655 H   0  0  0  0  0  0  0  0  0  0  0  0
  140.3020   67.5258  226.8345 H   0  0  0  0  0  0  0  0  0  0  0  0
  141.5973   71.1262  228.8277 H   0  0  0  0  0  0  0  0  0  0  0  0
  140.7080   72.4994  226.9431 H   0  0  0  0  0  0  0  0  0  0  0  0
  1  2  2  0
  2  3  1  0
  3  4  1  0
  4  5  1  0
  5  6  2  0
  5  7  1  0
  7  8  1  0
  8  9  1  0
  9 10  1  0
  9 11  1  0
 11 12  1  0
 11 13  1  0
 13 14  1  0
 14 15  1  0
 15 16  1  0
  2 17  1  0
 17 18  2  0
 18 19  1  0
 19 20  2  0
 20 21  1  0
 21 22  2  0
 22 23  1  0
 22 24  1  0
 24 25  2  0
 25 26  1  0
 26 27  2  0
 13  7  1  0
 16 14  1  0
 27 17  1  0
 26 20  1  0
  3 28  1  0
  4 29  1  0
  4 30  1  0
  8 31  1  0
  8 32  1  0
  9 33  1  6
 10 34  1  0
 11 35  1  6
 12 36  1  0
 13 37  1  1
 14 38  1  0
 15 39  1  0
 15 40  1  0
 16 41  1  0
 16 42  1  0
 18 43  1  0
 19 44  1  0
 21 45  1  0
 24 46  1  0
 25 47  1  0
M  END
>  <smiles>  (21) 
O=C(NCC(=O)N1C[C@H](O)[C@H](O)[C@H]1C1CC1)c1ccc2cc(F)ccc2n1

>  <score_type>  (21) 
oracle

>  <origin>  (21) 
autodockgpu

>  <m_score__min__energy>  (21) 
-7.7000000000000002

>  <m_primary>  (21) 
energy

>  <rmsd>  (21) 
2.4126513492084447

>  <m_score__min__rmsd>  (21) 
2.4126513492084447

>  <meeko>  (21) 
{"free_energy": -6.0, "intermolecular_energy": -8.09, "internal_energy": -4.2, "cluster_size": 6, "cluster_id": 3, "rank_in_cluster": 4}

>  <energy>  (21) 
-5.82

>  <cluster_rmsd>  (21) 
0.21

>  <cluster>  (21) 
4

$$$$

     RDKit          3D

 47 50  0  0  0  0  0  0  0  0999 V2000
  140.3690   74.3520  221.9750 O   0  0  0  0  0  0  0  0  0  0  0  0
  140.5310   73.1630  221.5850 C   0  0  0  0  0  0  0  0  0  0  0  0
  140.8980   72.8210  220.2550 N   0  0  0  0  0  0  0  0  0  0  0  0
  141.1150   73.8510  219.2250 C   0  0  0  0  0  0  0  0  0  0  0  0
  142.5390   74.1320  219.2060 C   0  0  0  0  0  0  0  0  0  0  0  0
  142.9180   75.2360  218.6770 O   0  0  0  0  0  0  0  0  0  0  0  0
  143.5810   73.3140  219.7090 N   0  0  0  0  0  0  0  0  0  0  0  0
  144.3990   73.7310  220.8530 C   0  0  0  0  0  0  0  0  0  0  0  0
  145.7220   73.0180  220.7320 C   0  0  2  0  0  0  0  0  0  0  0  0
  146.7640   73.9420  220.7310 O   0  0  0  0  0  0  0  0  0  0  0  0
  145.6030   72.2690  219.4170 C   0  0  2  0  0  0  0  0  0  0  0  0
  145.9520   73.1590  218.4050 O   0  0  0  0  0  0  0  0  0  0  0  0
  144.0940   72.0440  219.3190 C   0  0  1  0  0  0  0  0  0  0  0  0
  143.6630   70.8550  220.0890 C   0  0  0  0  0  0  0  0  0  0  0  0
  144.1830   69.5070  219.5950 C   0  0  0  0  0  0  0  0  0  0  0  0
  142.7230   69.8260  219.6600 C   0  0  0  0  0  0  0  0  0  0  0  0
  140.3240   72.0880  222.5750 C   0  0  0  0  0  0  0  0  0  0  0  0
  139.7440   70.8960  222.2270 C   0  0  0  0  0  0  0  0  0  0  0  0
  139.5630   69.9180  223.1550 C   0  0  0  0  0  0  0  0  0  0  0  0
  139.9580   70.1000  224.4660 C   0  0  0  0  0  0  0  0  0  0  0  0
  139.7860   69.1250  225.4220 C   0  0  0  0  0  0  0  0  0  0  0  0
  140.2020   69.3710  226.7130 C   0  0  0  0  0  0  0  0  0  0  0  0
  140.0140   68.3790  227.6320 F   0  0  0  0  0  0  0  0  0  0  0  0
  140.7920   70.5840  227.0620 C   0  0  0  0  0  0  0  0  0  0  0  0
  140.9650   71.5630  226.1000 C   0  0  0  0  0  0  0  0  0  0  0  0
  140.5450   71.3100  224.8060 C   0  0  0  0  0  0  0  0  0  0  0  0
  140.7100   72.2570  223.8650 N   0  0  0  0  0  0  0  0  0  0  0  0
  141.0030   71.8050  220.0510 H   0  0  0  0  0  0  0  0  0  0  0  0
  140.7894   73.4785  218.2425 H   0  0  0  0  0  0  0  0  0  0  0  0
  140.5364   74.7597  219.4476 H   0  0  0  0  0  0  0  0  0  0  0  0
  144.5532   74.8199  220.8302 H   0  0  0  0  0  0  0  0  0  0  0  0
  143.9032   73.4802  221.8024 H   0  0  0  0  0  0  0  0  0  0  0  0
  145.9423   72.3360  221.5665 H   0  0  0  0  0  0  0  0  0  0  0  0
  146.6400   74.5220  219.9270 H   0  0  0  0  0  0  0  0  0  0  0  0
  146.2125   71.3560  219.3473 H   0  0  0  0  0  0  0  0  0  0  0  0
  145.9600   74.0890  218.7140 H   0  0  0  0  0  0  0  0  0  0  0  0
  143.7057   71.7711  218.3266 H   0  0  0  0  0  0  0  0  0  0  0  0
  143.6733   71.4799  220.9942 H   0  0  0  0  0  0  0  0  0  0  0  0
  144.6928   69.4296  218.6234 H   0  0  0  0  0  0  0  0  0  0  0  0
  144.8390   68.7183  219.9920 H   0  0  0  0  0  0  0  0  0  0  0  0
  142.1545   69.9632  218.7284 H   0  0  0  0  0  0  0  0  0  0  0  0
  141.8546   69.3404  220.1291 H   0  0  0  0  0  0  0  0  0  0  0  0
  139.4221   70.7287  221.1885 H   0  0  0  0  0  0  0  0  0  0  0  0
  139.0951   68.9681  222.8569 H   0  0  0  0  0  0  0  0  0  0  0  0
  139.3228   68.1624  225.1595 H   0  0  0  0  0  0  0  0  0  0  0  0
  141.1186   70.7623  228.0972 H   0  0  0  0  0  0  0  0  0  0  0  0
  141.4286   72.5263  226.3593 H   0  0  0  0  0  0  0  0  0  0  0  0
  1  2  2  0
  2  3  1  0
  3  4  1  0
  4  5  1  0
  5  6  2  0
  5  7  1  0
  7  8  1  0
  8  9  1  0
  9 10  1  0
  9 11  1  0
 11 12  1  0
 11 13  1  0
 13 14  1  0
 14 15  1  0
 15 16  1  0
  2 17  1  0
 17 18  2  0
 18 19  1  0
 19 20  2  0
 20 21  1  0
 21 22  2  0
 22 23  1  0
 22 24  1  0
 24 25  2  0
 25 26  1  0
 26 27  2  0
 13  7  1  0
 16 14  1  0
 27 17  1  0
 26 20  1  0
  3 28  1  0
  4 29  1  0
  4 30  1  0
  8 31  1  0
  8 32  1  0
  9 33  1  1
 10 34  1  0
 11 35  1  1
 12 36  1  0
 13 37  1  6
 14 38  1  0
 15 39  1  0
 15 40  1  0
 16 41  1  0
 16 42  1  0
 18 43  1  0
 19 44  1  0
 21 45  1  0
 24 46  1  0
 25 47  1  0
M  END
>  <smiles>  (22) 
O=C(NCC(=O)N1C[C@H](O)[C@H](O)[C@H]1C1CC1)c1ccc2cc(F)ccc2n1

>  <score_type>  (22) 
oracle

>  <origin>  (22) 
autodockgpu

>  <m_score__min__energy>  (22) 
-7.7000000000000002

>  <m_primary>  (22) 
energy

>  <rmsd>  (22) 
4.160824381080872

>  <m_score__min__rmsd>  (22) 
4.160824381080872

>  <meeko>  (22) 
{"free_energy": -7.37, "intermolecular_energy": -9.46, "internal_energy": -2.94, "cluster_size": 11, "cluster_id": 1, "rank_in_cluster": 4}

>  <energy>  (22) 
-5.82

>  <cluster_rmsd>  (22) 
0.48

>  <cluster>  (22) 
4

$$$$

     RDKit          3D

 47 50  0  0  0  0  0  0  0  0999 V2000
  138.3190   74.7570  220.3580 O   0  0  0  0  0  0  0  0  0  0  0  0
  139.1180   74.7910  221.3330 C   0  0  0  0  0  0  0  0  0  0  0  0
  138.8450   75.4860  222.5420 N   0  0  0  0  0  0  0  0  0  0  0  0
  137.5880   76.2280  222.7400 C   0  0  0  0  0  0  0  0  0  0  0  0
  137.9010   77.6360  222.5770 C   0  0  0  0  0  0  0  0  0  0  0  0
  136.9210   78.4620  222.5560 O   0  0  0  0  0  0  0  0  0  0  0  0
  139.1850   78.2170  222.4320 N   0  0  0  0  0  0  0  0  0  0  0  0
  139.8110   78.3760  221.1150 C   0  0  0  0  0  0  0  0  0  0  0  0
  141.3020   78.4070  221.3370 C   0  0  2  0  0  0  0  0  0  0  0  0
  141.9190   77.4200  220.5720 O   0  0  0  0  0  0  0  0  0  0  0  0
  141.4450   78.1650  222.8290 C   0  0  2  0  0  0  0  0  0  0  0  0
  141.4100   76.7880  223.0270 O   0  0  0  0  0  0  0  0  0  0  0  0
  140.1300   78.7310  223.3660 C   0  0  1  0  0  0  0  0  0  0  0  0
  140.1950   80.1980  223.5500 C   0  0  0  0  0  0  0  0  0  0  0  0
  138.8770   80.8980  223.8730 C   0  0  0  0  0  0  0  0  0  0  0  0
  139.6750   81.2200  222.6490 C   0  0  0  0  0  0  0  0  0  0  0  0
  140.3970   74.0670  221.1910 C   0  0  0  0  0  0  0  0  0  0  0  0
  140.4710   72.7080  221.3480 C   0  0  0  0  0  0  0  0  0  0  0  0
  141.6590   72.0600  221.2130 C   0  0  0  0  0  0  0  0  0  0  0  0
  142.8170   72.7520  220.9150 C   0  0  0  0  0  0  0  0  0  0  0  0
  144.0300   72.1190  220.7730 C   0  0  0  0  0  0  0  0  0  0  0  0
  145.1480   72.8690  220.4760 C   0  0  0  0  0  0  0  0  0  0  0  0
  146.3330   72.2040  220.3430 F   0  0  0  0  0  0  0  0  0  0  0  0
  145.0670   74.2510  220.3170 C   0  0  0  0  0  0  0  0  0  0  0  0
  143.8470   74.8870  220.4600 C   0  0  0  0  0  0  0  0  0  0  0  0
  142.7290   74.1280  220.7580 C   0  0  0  0  0  0  0  0  0  0  0  0
  141.5390   74.7390  220.8980 N   0  0  0  0  0  0  0  0  0  0  0  0
  139.5820   75.4420  223.2780 H   0  0  0  0  0  0  0  0  0  0  0  0
  136.8431   75.9169  221.9928 H   0  0  0  0  0  0  0  0  0  0  0  0
  137.1663   76.0306  223.7366 H   0  0  0  0  0  0  0  0  0  0  0  0
  139.5433   77.5301  220.4648 H   0  0  0  0  0  0  0  0  0  0  0  0
  139.4675   79.2994  220.6258 H   0  0  0  0  0  0  0  0  0  0  0  0
  141.7811   79.3495  221.0334 H   0  0  0  0  0  0  0  0  0  0  0  0
  142.2950   76.7490  221.2090 H   0  0  0  0  0  0  0  0  0  0  0  0
  142.3522   78.5911  223.2822 H   0  0  0  0  0  0  0  0  0  0  0  0
  141.9080   76.3010  222.3370 H   0  0  0  0  0  0  0  0  0  0  0  0
  139.8517   78.4299  224.3867 H   0  0  0  0  0  0  0  0  0  0  0  0
  141.2017   80.0642  223.9727 H   0  0  0  0  0  0  0  0  0  0  0  0
  137.9238   80.3555  223.7889 H   0  0  0  0  0  0  0  0  0  0  0  0
  138.4695   81.4642  224.7235 H   0  0  0  0  0  0  0  0  0  0  0  0
  139.2936   80.9291  221.6591 H   0  0  0  0  0  0  0  0  0  0  0  0
  140.0869   82.1487  222.2273 H   0  0  0  0  0  0  0  0  0  0  0  0
  139.5618   72.1361  221.5853 H   0  0  0  0  0  0  0  0  0  0  0  0
  141.6985   70.9684  221.3430 H   0  0  0  0  0  0  0  0  0  0  0  0
  144.1070   71.0285  220.8948 H   0  0  0  0  0  0  0  0  0  0  0  0
  145.9692   74.8335  220.0788 H   0  0  0  0  0  0  0  0  0  0  0  0
  143.7669   75.9774  220.3389 H   0  0  0  0  0  0  0  0  0  0  0  0
  1  2  2  0
  2  3  1  0
  3  4  1  0
  4  5  1  0
  5  6  2  0
  5  7  1  0
  7  8  1  0
  8  9  1  0
  9 10  1  0
  9 11  1  0
 11 12  1  0
 11 13  1  0
 13 14  1  0
 14 15  1  0
 15 16  1  0
  2 17  1  0
 17 18  2  0
 18 19  1  0
 19 20  2  0
 20 21  1  0
 21 22  2  0
 22 23  1  0
 22 24  1  0
 24 25  2  0
 25 26  1  0
 26 27  2  0
 13  7  1  0
 16 14  1  0
 27 17  1  0
 26 20  1  0
  3 28  1  0
  4 29  1  0
  4 30  1  0
  8 31  1  0
  8 32  1  0
  9 33  1  1
 10 34  1  0
 11 35  1  1
 12 36  1  0
 13 37  1  1
 14 38  1  0
 15 39  1  0
 15 40  1  0
 16 41  1  0
 16 42  1  0
 18 43  1  0
 19 44  1  0
 21 45  1  0
 24 46  1  0
 25 47  1  0
M  END
>  <smiles>  (23) 
O=C(NCC(=O)N1C[C@H](O)[C@H](O)[C@H]1C1CC1)c1ccc2cc(F)ccc2n1

>  <score_type>  (23) 
oracle

>  <origin>  (23) 
autodockgpu

>  <m_score__min__energy>  (23) 
-7.7000000000000002

>  <m_primary>  (23) 
energy

>  <rmsd>  (23) 
6.0237550897177465

>  <m_score__min__rmsd>  (23) 
6.0237550897177465

>  <meeko>  (23) 
{"free_energy": -5.66, "intermolecular_energy": -7.75, "internal_energy": -4.86, "cluster_size": 24, "cluster_id": 4, "rank_in_cluster": 11}

>  <energy>  (23) 
-5.78

>  <cluster_rmsd>  (23) 
0.27

>  <cluster>  (23) 
4

$$$$

     RDKit          3D

 47 50  0  0  0  0  0  0  0  0999 V2000
  138.2600   74.5460  220.4070 O   0  0  0  0  0  0  0  0  0  0  0  0
  139.1020   74.6750  221.3380 C   0  0  0  0  0  0  0  0  0  0  0  0
  138.8640   75.4530  222.5040 N   0  0  0  0  0  0  0  0  0  0  0  0
  137.5960   76.1750  222.7050 C   0  0  0  0  0  0  0  0  0  0  0  0
  137.9060   77.5920  222.6430 C   0  0  0  0  0  0  0  0  0  0  0  0
  136.9320   78.4160  222.7610 O   0  0  0  0  0  0  0  0  0  0  0  0
  139.1800   78.1840  222.4610 N   0  0  0  0  0  0  0  0  0  0  0  0
  139.7810   78.3150  221.1290 C   0  0  0  0  0  0  0  0  0  0  0  0
  141.2760   78.3690  221.3240 C   0  0  2  0  0  0  0  0  0  0  0  0
  141.8910   77.3690  220.5740 O   0  0  0  0  0  0  0  0  0  0  0  0
  141.4470   78.1670  222.8190 C   0  0  2  0  0  0  0  0  0  0  0  0
  141.4320   76.7960  223.0530 O   0  0  0  0  0  0  0  0  0  0  0  0
  140.1350   78.7330  223.3640 C   0  0  1  0  0  0  0  0  0  0  0  0
  140.1860   80.2050  223.5090 C   0  0  0  0  0  0  0  0  0  0  0  0
  138.8720   80.8940  223.8670 C   0  0  0  0  0  0  0  0  0  0  0  0
  139.6150   81.1960  222.6050 C   0  0  0  0  0  0  0  0  0  0  0  0
  140.3930   73.9750  221.1900 C   0  0  0  0  0  0  0  0  0  0  0  0
  140.4910   72.6150  221.3310 C   0  0  0  0  0  0  0  0  0  0  0  0
  141.6900   71.9900  221.1900 C   0  0  0  0  0  0  0  0  0  0  0  0
  142.8370   72.7060  220.9040 C   0  0  0  0  0  0  0  0  0  0  0  0
  144.0610   72.0960  220.7570 C   0  0  0  0  0  0  0  0  0  0  0  0
  145.1660   72.8690  220.4720 C   0  0  0  0  0  0  0  0  0  0  0  0
  146.3630   72.2270  220.3330 F   0  0  0  0  0  0  0  0  0  0  0  0
  145.0620   74.2510  220.3300 C   0  0  0  0  0  0  0  0  0  0  0  0
  143.8300   74.8640  220.4770 C   0  0  0  0  0  0  0  0  0  0  0  0
  142.7250   74.0820  220.7640 C   0  0  0  0  0  0  0  0  0  0  0  0
  141.5240   74.6700  220.9090 N   0  0  0  0  0  0  0  0  0  0  0  0
  139.6350   75.4840  223.2050 H   0  0  0  0  0  0  0  0  0  0  0  0
  136.8793   75.9092  221.9140 H   0  0  0  0  0  0  0  0  0  0  0  0
  137.1410   75.9123  223.6714 H   0  0  0  0  0  0  0  0  0  0  0  0
  139.5121   77.4490  220.5062 H   0  0  0  0  0  0  0  0  0  0  0  0
  139.4180   79.2209  220.6215 H   0  0  0  0  0  0  0  0  0  0  0  0
  141.7389   79.3086  220.9880 H   0  0  0  0  0  0  0  0  0  0  0  0
  142.2660   76.7070  221.2220 H   0  0  0  0  0  0  0  0  0  0  0  0
  142.3569   78.6144  223.2456 H   0  0  0  0  0  0  0  0  0  0  0  0
  141.8660   76.2910  222.3340 H   0  0  0  0  0  0  0  0  0  0  0  0
  139.8781   78.4562  224.3971 H   0  0  0  0  0  0  0  0  0  0  0  0
  141.2107   80.0963  223.8939 H   0  0  0  0  0  0  0  0  0  0  0  0
  137.9245   80.3361  223.8348 H   0  0  0  0  0  0  0  0  0  0  0  0
  138.4902   81.4758  224.7189 H   0  0  0  0  0  0  0  0  0  0  0  0
  139.1988   80.8747  221.6388 H   0  0  0  0  0  0  0  0  0  0  0  0
  139.9955   82.1195  222.1442 H   0  0  0  0  0  0  0  0  0  0  0  0
  139.5918   72.0243  221.5602 H   0  0  0  0  0  0  0  0  0  0  0  0
  141.7481   70.8976  221.3053 H   0  0  0  0  0  0  0  0  0  0  0  0
  144.1568   71.0056  220.8655 H   0  0  0  0  0  0  0  0  0  0  0  0
  145.9547   74.8520  220.1022 H   0  0  0  0  0  0  0  0  0  0  0  0
  143.7308   75.9540  220.3676 H   0  0  0  0  0  0  0  0  0  0  0  0
  1  2  2  0
  2  3  1  0
  3  4  1  0
  4  5  1  0
  5  6  2  0
  5  7  1  0
  7  8  1  0
  8  9  1  0
  9 10  1  0
  9 11  1  0
 11 12  1  0
 11 13  1  0
 13 14  1  0
 14 15  1  0
 15 16  1  0
  2 17  1  0
 17 18  2  0
 18 19  1  0
 19 20  2  0
 20 21  1  0
 21 22  2  0
 22 23  1  0
 22 24  1  0
 24 25  2  0
 25 26  1  0
 26 27  2  0
 13  7  1  0
 16 14  1  0
 27 17  1  0
 26 20  1  0
  3 28  1  0
  4 29  1  0
  4 30  1  0
  8 31  1  0
  8 32  1  0
  9 33  1  6
 10 34  1  0
 11 35  1  1
 12 36  1  0
 13 37  1  1
 14 38  1  0
 15 39  1  0
 15 40  1  0
 16 41  1  0
 16 42  1  0
 18 43  1  0
 19 44  1  0
 21 45  1  0
 24 46  1  0
 25 47  1  0
M  END
>  <smiles>  (24) 
O=C(NCC(=O)N1C[C@H](O)[C@H](O)[C@H]1C1CC1)c1ccc2cc(F)ccc2n1

>  <score_type>  (24) 
oracle

>  <origin>  (24) 
autodockgpu

>  <m_score__min__energy>  (24) 
-7.7000000000000002

>  <m_primary>  (24) 
energy

>  <rmsd>  (24) 
6.000449857705238

>  <m_score__min__rmsd>  (24) 
6.000449857705238

>  <meeko>  (24) 
{"free_energy": -5.6, "intermolecular_energy": -7.69, "internal_energy": -4.88, "cluster_size": 24, "cluster_id": 4, "rank_in_cluster": 20}

>  <energy>  (24) 
-5.72

>  <cluster_rmsd>  (24) 
0.3

>  <cluster>  (24) 
4

$$$$

     RDKit          3D

 47 50  0  0  0  0  0  0  0  0999 V2000
  138.3550   74.7960  220.2400 O   0  0  0  0  0  0  0  0  0  0  0  0
  139.1110   74.7920  221.2500 C   0  0  0  0  0  0  0  0  0  0  0  0
  138.7890   75.4510  222.4680 N   0  0  0  0  0  0  0  0  0  0  0  0
  137.5300   76.1990  222.6320 C   0  0  0  0  0  0  0  0  0  0  0  0
  137.8830   77.6050  222.6970 C   0  0  0  0  0  0  0  0  0  0  0  0
  136.9440   78.4400  222.9500 O   0  0  0  0  0  0  0  0  0  0  0  0
  139.1660   78.1770  222.5060 N   0  0  0  0  0  0  0  0  0  0  0  0
  139.7540   78.3120  221.1700 C   0  0  0  0  0  0  0  0  0  0  0  0
  141.2520   78.3380  221.3490 C   0  0  2  0  0  0  0  0  0  0  0  0
  141.8420   77.3360  220.5830 O   0  0  0  0  0  0  0  0  0  0  0  0
  141.4360   78.1190  222.8400 C   0  0  2  0  0  0  0  0  0  0  0  0
  141.3990   76.7450  223.0600 O   0  0  0  0  0  0  0  0  0  0  0  0
  140.1390   78.7010  223.4040 C   0  0  1  0  0  0  0  0  0  0  0  0
  140.2170   80.1700  223.5640 C   0  0  0  0  0  0  0  0  0  0  0  0
  138.8980   80.8910  223.8310 C   0  0  0  0  0  0  0  0  0  0  0  0
  139.7390   81.1810  222.6280 C   0  0  0  0  0  0  0  0  0  0  0  0
  140.3880   74.0600  221.1430 C   0  0  0  0  0  0  0  0  0  0  0  0
  140.4540   72.7040  221.3290 C   0  0  0  0  0  0  0  0  0  0  0  0
  141.6410   72.0490  221.2250 C   0  0  0  0  0  0  0  0  0  0  0  0
  142.8070   72.7300  220.9310 C   0  0  0  0  0  0  0  0  0  0  0  0
  144.0190   72.0890  220.8210 C   0  0  0  0  0  0  0  0  0  0  0  0
  145.1450   72.8290  220.5260 C   0  0  0  0  0  0  0  0  0  0  0  0
  146.3290   72.1570  220.4250 F   0  0  0  0  0  0  0  0  0  0  0  0
  145.0720   74.2070  220.3380 C   0  0  0  0  0  0  0  0  0  0  0  0
  143.8530   74.8510  220.4490 C   0  0  0  0  0  0  0  0  0  0  0  0
  142.7270   74.1030  220.7450 C   0  0  0  0  0  0  0  0  0  0  0  0
  141.5380   74.7210  220.8540 N   0  0  0  0  0  0  0  0  0  0  0  0
  139.4920   75.3770  223.2340 H   0  0  0  0  0  0  0  0  0  0  0  0
  136.8656   76.0146  221.7749 H   0  0  0  0  0  0  0  0  0  0  0  0
  136.9988   75.8830  223.5419 H   0  0  0  0  0  0  0  0  0  0  0  0
  139.4633   77.4577  220.5410 H   0  0  0  0  0  0  0  0  0  0  0  0
  139.4012   79.2295  220.6763 H   0  0  0  0  0  0  0  0  0  0  0  0
  141.7271   79.2727  221.0166 H   0  0  0  0  0  0  0  0  0  0  0  0
  142.3130   76.7230  221.2150 H   0  0  0  0  0  0  0  0  0  0  0  0
  142.3576   78.5468  223.2613 H   0  0  0  0  0  0  0  0  0  0  0  0
  141.8790   76.2450  222.3680 H   0  0  0  0  0  0  0  0  0  0  0  0
  139.8871   78.4180  224.4367 H   0  0  0  0  0  0  0  0  0  0  0  0
  141.2077   80.0324  224.0218 H   0  0  0  0  0  0  0  0  0  0  0  0
  137.9415   80.3581  223.7257 H   0  0  0  0  0  0  0  0  0  0  0  0
  138.4701   81.4776  224.6573 H   0  0  0  0  0  0  0  0  0  0  0  0
  139.3863   80.8762  221.6317 H   0  0  0  0  0  0  0  0  0  0  0  0
  140.1756   82.0969  222.2031 H   0  0  0  0  0  0  0  0  0  0  0  0
  139.5390   72.1406  221.5644 H   0  0  0  0  0  0  0  0  0  0  0  0
  141.6737   70.9601  221.3773 H   0  0  0  0  0  0  0  0  0  0  0  0
  144.0893   71.0009  220.9663 H   0  0  0  0  0  0  0  0  0  0  0  0
  145.9803   74.7810  220.1021 H   0  0  0  0  0  0  0  0  0  0  0  0
  143.7798   75.9390  220.3045 H   0  0  0  0  0  0  0  0  0  0  0  0
  1  2  2  0
  2  3  1  0
  3  4  1  0
  4  5  1  0
  5  6  2  0
  5  7  1  0
  7  8  1  0
  8  9  1  0
  9 10  1  0
  9 11  1  0
 11 12  1  0
 11 13  1  0
 13 14  1  0
 14 15  1  0
 15 16  1  0
  2 17  1  0
 17 18  2  0
 18 19  1  0
 19 20  2  0
 20 21  1  0
 21 22  2  0
 22 23  1  0
 22 24  1  0
 24 25  2  0
 25 26  1  0
 26 27  2  0
 13  7  1  0
 16 14  1  0
 27 17  1  0
 26 20  1  0
  3 28  1  0
  4 29  1  0
  4 30  1  0
  8 31  1  0
  8 32  1  0
  9 33  1  6
 10 34  1  0
 11 35  1  1
 12 36  1  0
 13 37  1  1
 14 38  1  0
 15 39  1  0
 15 40  1  0
 16 41  1  0
 16 42  1  0
 18 43  1  0
 19 44  1  0
 21 45  1  0
 24 46  1  0
 25 47  1  0
M  END
>  <smiles>  (25) 
O=C(NCC(=O)N1C[C@H](O)[C@H](O)[C@H]1C1CC1)c1ccc2cc(F)ccc2n1

>  <score_type>  (25) 
oracle

>  <origin>  (25) 
autodockgpu

>  <m_score__min__energy>  (25) 
-7.7000000000000002

>  <m_primary>  (25) 
energy

>  <rmsd>  (25) 
6.003346576694273

>  <m_score__min__rmsd>  (25) 
6.003346576694273

>  <meeko>  (25) 
{"free_energy": -5.68, "intermolecular_energy": -7.77, "internal_energy": -4.76, "cluster_size": 24, "cluster_id": 4, "rank_in_cluster": 9}

>  <energy>  (25) 
-5.72

>  <cluster_rmsd>  (25) 
0.33

>  <cluster>  (25) 
4

$$$$

     RDKit          3D

 47 50  0  0  0  0  0  0  0  0999 V2000
  138.3370   74.6050  220.1170 O   0  0  0  0  0  0  0  0  0  0  0  0
  139.1290   74.7360  221.0910 C   0  0  0  0  0  0  0  0  0  0  0  0
  138.8410   75.5360  222.2290 N   0  0  0  0  0  0  0  0  0  0  0  0
  137.5770   76.2830  222.3490 C   0  0  0  0  0  0  0  0  0  0  0  0
  137.9170   77.6930  222.3050 C   0  0  0  0  0  0  0  0  0  0  0  0
  136.9610   78.5370  222.4420 O   0  0  0  0  0  0  0  0  0  0  0  0
  139.2020   78.2600  222.1230 N   0  0  0  0  0  0  0  0  0  0  0  0
  139.8450   78.2950  220.8050 C   0  0  0  0  0  0  0  0  0  0  0  0
  141.3330   78.3490  221.0420 C   0  0  2  0  0  0  0  0  0  0  0  0
  141.9610   77.2950  220.3830 O   0  0  0  0  0  0  0  0  0  0  0  0
  141.4570   78.2500  222.5520 C   0  0  2  0  0  0  0  0  0  0  0  0
  141.4200   76.8980  222.8790 O   0  0  0  0  0  0  0  0  0  0  0  0
  140.1340   78.8630  223.0150 C   0  0  1  0  0  0  0  0  0  0  0  0
  140.1970   80.3410  223.0610 C   0  0  0  0  0  0  0  0  0  0  0  0
  141.4350   80.9830  222.4400 C   0  0  0  0  0  0  0  0  0  0  0  0
  141.0820   81.1560  223.8830 C   0  0  0  0  0  0  0  0  0  0  0  0
  140.4140   74.0120  221.0250 C   0  0  0  0  0  0  0  0  0  0  0  0
  140.4810   72.6540  221.1970 C   0  0  0  0  0  0  0  0  0  0  0  0
  141.6750   72.0070  221.1330 C   0  0  0  0  0  0  0  0  0  0  0  0
  142.8480   72.6990  220.8930 C   0  0  0  0  0  0  0  0  0  0  0  0
  144.0670   72.0660  220.8230 C   0  0  0  0  0  0  0  0  0  0  0  0
  145.1990   72.8150  220.5810 C   0  0  0  0  0  0  0  0  0  0  0  0
  146.3900   72.1510  220.5190 F   0  0  0  0  0  0  0  0  0  0  0  0
  145.1250   74.1950  220.4070 C   0  0  0  0  0  0  0  0  0  0  0  0
  143.8980   74.8310  220.4770 C   0  0  0  0  0  0  0  0  0  0  0  0
  142.7670   74.0730  220.7200 C   0  0  0  0  0  0  0  0  0  0  0  0
  141.5700   74.6830  220.7900 N   0  0  0  0  0  0  0  0  0  0  0  0
  139.5730   75.5670  222.9710 H   0  0  0  0  0  0  0  0  0  0  0  0
  136.9065   76.0290  221.5148 H   0  0  0  0  0  0  0  0  0  0  0  0
  137.0575   76.0315  223.2854 H   0  0  0  0  0  0  0  0  0  0  0  0
  139.5859   77.3911  220.2341 H   0  0  0  0  0  0  0  0  0  0  0  0
  139.5076   79.1677  220.2266 H   0  0  0  0  0  0  0  0  0  0  0  0
  141.8150   79.2592  220.6557 H   0  0  0  0  0  0  0  0  0  0  0  0
  142.3620   76.7080  221.0850 H   0  0  0  0  0  0  0  0  0  0  0  0
  142.3580   78.7183  222.9750 H   0  0  0  0  0  0  0  0  0  0  0  0
  141.8080   76.3350  222.1770 H   0  0  0  0  0  0  0  0  0  0  0  0
  139.8409   78.6608  224.0558 H   0  0  0  0  0  0  0  0  0  0  0  0
  139.1017   80.3559  222.9605 H   0  0  0  0  0  0  0  0  0  0  0  0
  142.2959   80.3636  222.1482 H   0  0  0  0  0  0  0  0  0  0  0  0
  141.6382   81.6503  221.5895 H   0  0  0  0  0  0  0  0  0  0  0  0
  141.7012   80.6765  224.6554 H   0  0  0  0  0  0  0  0  0  0  0  0
  140.9313   82.0301  224.5335 H   0  0  0  0  0  0  0  0  0  0  0  0
  139.5608   72.0826  221.3885 H   0  0  0  0  0  0  0  0  0  0  0  0
  141.7085   70.9166  221.2742 H   0  0  0  0  0  0  0  0  0  0  0  0
  144.1379   70.9767  220.9583 H   0  0  0  0  0  0  0  0  0  0  0  0
  146.0384   74.7770  220.2147 H   0  0  0  0  0  0  0  0  0  0  0  0
  143.8235   75.9201  220.3418 H   0  0  0  0  0  0  0  0  0  0  0  0
  1  2  2  0
  2  3  1  0
  3  4  1  0
  4  5  1  0
  5  6  2  0
  5  7  1  0
  7  8  1  0
  8  9  1  0
  9 10  1  0
  9 11  1  0
 11 12  1  0
 11 13  1  0
 13 14  1  0
 14 15  1  0
 15 16  1  0
  2 17  1  0
 17 18  2  0
 18 19  1  0
 19 20  2  0
 20 21  1  0
 21 22  2  0
 22 23  1  0
 22 24  1  0
 24 25  2  0
 25 26  1  0
 26 27  2  0
 13  7  1  0
 16 14  1  0
 27 17  1  0
 26 20  1  0
  3 28  1  0
  4 29  1  0
  4 30  1  0
  8 31  1  0
  8 32  1  0
  9 33  1  6
 10 34  1  0
 11 35  1  1
 12 36  1  0
 13 37  1  1
 14 38  1  0
 15 39  1  0
 15 40  1  0
 16 41  1  0
 16 42  1  0
 18 43  1  0
 19 44  1  0
 21 45  1  0
 24 46  1  0
 25 47  1  0
M  END
>  <smiles>  (26) 
O=C(NCC(=O)N1C[C@H](O)[C@H](O)[C@H]1C1CC1)c1ccc2cc(F)ccc2n1

>  <score_type>  (26) 
oracle

>  <origin>  (26) 
autodockgpu

>  <m_score__min__energy>  (26) 
-7.7000000000000002

>  <m_primary>  (26) 
energy

>  <rmsd>  (26) 
5.915500117853768

>  <m_score__min__rmsd>  (26) 
5.915500117853768

>  <meeko>  (26) 
{"free_energy": -5.53, "intermolecular_energy": -7.62, "internal_energy": -4.67, "cluster_size": 24, "cluster_id": 4, "rank_in_cluster": 22}

>  <energy>  (26) 
-5.7

>  <cluster_rmsd>  (26) 
0.33

>  <cluster>  (26) 
4

$$$$

     RDKit          3D

 47 50  0  0  0  0  0  0  0  0999 V2000
  138.6360   75.1770  221.6740 O   0  0  0  0  0  0  0  0  0  0  0  0
  139.8360   75.5440  221.8010 C   0  0  0  0  0  0  0  0  0  0  0  0
  140.9440   74.7210  221.4630 N   0  0  0  0  0  0  0  0  0  0  0  0
  140.7610   73.3580  220.9330 C   0  0  0  0  0  0  0  0  0  0  0  0
  142.0680   72.7260  220.9410 C   0  0  0  0  0  0  0  0  0  0  0  0
  142.1830   71.6130  221.5660 O   0  0  0  0  0  0  0  0  0  0  0  0
  143.2560   73.2030  220.3330 N   0  0  0  0  0  0  0  0  0  0  0  0
  144.0020   72.3910  219.3670 C   0  0  0  0  0  0  0  0  0  0  0  0
  145.4340   72.8630  219.4070 C   0  0  2  0  0  0  0  0  0  0  0  0
  146.2820   71.7930  219.6820 O   0  0  0  0  0  0  0  0  0  0  0  0
  145.4330   73.9070  220.5090 C   0  0  2  0  0  0  0  0  0  0  0  0
  145.5870   73.2300  221.7150 O   0  0  0  0  0  0  0  0  0  0  0  0
  143.9920   74.4160  220.4580 C   0  0  1  0  0  0  0  0  0  0  0  0
  143.8090   75.4500  219.4150 C   0  0  0  0  0  0  0  0  0  0  0  0
  142.9290   76.6390  219.7910 C   0  0  0  0  0  0  0  0  0  0  0  0
  142.5950   75.7250  218.6560 C   0  0  0  0  0  0  0  0  0  0  0  0
  140.0820   76.9000  222.3300 C   0  0  0  0  0  0  0  0  0  0  0  0
  139.0540   77.6940  222.7690 C   0  0  0  0  0  0  0  0  0  0  0  0
  139.3020   78.9410  223.2530 C   0  0  0  0  0  0  0  0  0  0  0  0
  140.5900   79.4370  223.3140 C   0  0  0  0  0  0  0  0  0  0  0  0
  140.8650   80.6940  223.8000 C   0  0  0  0  0  0  0  0  0  0  0  0
  142.1730   81.1300  223.8330 C   0  0  0  0  0  0  0  0  0  0  0  0
  142.4060   82.3830  224.3220 F   0  0  0  0  0  0  0  0  0  0  0  0
  143.2140   80.3180  223.3860 C   0  0  0  0  0  0  0  0  0  0  0  0
  142.9360   79.0540  222.8980 C   0  0  0  0  0  0  0  0  0  0  0  0
  141.6210   78.6240  222.8670 C   0  0  0  0  0  0  0  0  0  0  0  0
  141.3430   77.3960  222.3950 N   0  0  0  0  0  0  0  0  0  0  0  0
  141.8900   75.1330  221.6110 H   0  0  0  0  0  0  0  0  0  0  0  0
  140.0638   72.7943  221.5703 H   0  0  0  0  0  0  0  0  0  0  0  0
  140.3407   73.3827  219.9168 H   0  0  0  0  0  0  0  0  0  0  0  0
  143.9467   71.3280  219.6445 H   0  0  0  0  0  0  0  0  0  0  0  0
  143.5814   72.4982  218.3563 H   0  0  0  0  0  0  0  0  0  0  0  0
  145.7959   73.2803  218.4557 H   0  0  0  0  0  0  0  0  0  0  0  0
  146.1050   71.5150  220.6250 H   0  0  0  0  0  0  0  0  0  0  0  0
  146.2028   74.6864  220.4096 H   0  0  0  0  0  0  0  0  0  0  0  0
  145.4540   72.2640  221.6190 H   0  0  0  0  0  0  0  0  0  0  0  0
  143.6425   74.9783  221.3365 H   0  0  0  0  0  0  0  0  0  0  0  0
  144.8321   75.2359  219.0724 H   0  0  0  0  0  0  0  0  0  0  0  0
  142.3325   76.6194  220.7150 H   0  0  0  0  0  0  0  0  0  0  0  0
  143.0744   77.7219  219.9183 H   0  0  0  0  0  0  0  0  0  0  0  0
  141.7349   75.0446  218.7409 H   0  0  0  0  0  0  0  0  0  0  0  0
  142.3793   75.8791  217.5884 H   0  0  0  0  0  0  0  0  0  0  0  0
  138.0204   77.3197  222.7295 H   0  0  0  0  0  0  0  0  0  0  0  0
  138.4646   79.5636  223.6010 H   0  0  0  0  0  0  0  0  0  0  0  0
  140.0522   81.3431  224.1577 H   0  0  0  0  0  0  0  0  0  0  0  0
  144.2519   80.6808  223.4212 H   0  0  0  0  0  0  0  0  0  0  0  0
  143.7464   78.4017  222.5406 H   0  0  0  0  0  0  0  0  0  0  0  0
  1  2  2  0
  2  3  1  0
  3  4  1  0
  4  5  1  0
  5  6  2  0
  5  7  1  0
  7  8  1  0
  8  9  1  0
  9 10  1  0
  9 11  1  0
 11 12  1  0
 11 13  1  0
 13 14  1  0
 14 15  1  0
 15 16  1  0
  2 17  1  0
 17 18  2  0
 18 19  1  0
 19 20  2  0
 20 21  1  0
 21 22  2  0
 22 23  1  0
 22 24  1  0
 24 25  2  0
 25 26  1  0
 26 27  2  0
 13  7  1  0
 16 14  1  0
 27 17  1  0
 26 20  1  0
  3 28  1  0
  4 29  1  0
  4 30  1  0
  8 31  1  0
  8 32  1  0
  9 33  1  6
 10 34  1  0
 11 35  1  6
 12 36  1  0
 13 37  1  1
 14 38  1  0
 15 39  1  0
 15 40  1  0
 16 41  1  0
 16 42  1  0
 18 43  1  0
 19 44  1  0
 21 45  1  0
 24 46  1  0
 25 47  1  0
M  END
>  <smiles>  (27) 
O=C(NCC(=O)N1C[C@H](O)[C@H](O)[C@H]1C1CC1)c1ccc2cc(F)ccc2n1

>  <score_type>  (27) 
oracle

>  <origin>  (27) 
autodockgpu

>  <m_score__min__energy>  (27) 
-7.7000000000000002

>  <m_primary>  (27) 
energy

>  <rmsd>  (27) 
7.812634762885425

>  <m_score__min__rmsd>  (27) 
7.812634762885425

>  <meeko>  (27) 
{"free_energy": -7.15, "intermolecular_energy": -9.24, "internal_energy": -3.26, "cluster_size": 2, "cluster_id": 2, "rank_in_cluster": 1}

>  <energy>  (27) 
-5.69

>  <cluster_rmsd>  (27) 
0.33

>  <cluster>  (27) 
4

$$$$

     RDKit          3D

 47 50  0  0  0  0  0  0  0  0999 V2000
  140.6440   78.1020  217.1520 O   0  0  0  0  0  0  0  0  0  0  0  0
  141.7150   78.1430  217.8180 C   0  0  0  0  0  0  0  0  0  0  0  0
  142.8600   77.3630  217.5030 N   0  0  0  0  0  0  0  0  0  0  0  0
  142.8730   76.4360  216.3580 C   0  0  0  0  0  0  0  0  0  0  0  0
  142.8280   75.0920  216.9060 C   0  0  0  0  0  0  0  0  0  0  0  0
  142.6530   74.1240  216.0850 O   0  0  0  0  0  0  0  0  0  0  0  0
  142.9530   74.7160  218.2670 N   0  0  0  0  0  0  0  0  0  0  0  0
  141.7850   74.6310  219.1490 C   0  0  0  0  0  0  0  0  0  0  0  0
  142.2810   74.8380  220.5580 C   0  0  2  0  0  0  0  0  0  0  0  0
  141.5970   75.8950  221.1550 O   0  0  0  0  0  0  0  0  0  0  0  0
  143.7600   75.1290  220.3750 C   0  0  2  0  0  0  0  0  0  0  0  0
  143.8800   76.4870  220.0970 O   0  0  0  0  0  0  0  0  0  0  0  0
  144.0700   74.3750  219.0810 C   0  0  1  0  0  0  0  0  0  0  0  0
  144.3360   72.9400  219.3300 C   0  0  0  0  0  0  0  0  0  0  0  0
  144.7390   72.5650  220.7530 C   0  0  0  0  0  0  0  0  0  0  0  0
  145.6300   72.3170  219.5780 C   0  0  0  0  0  0  0  0  0  0  0  0
  141.7600   79.0530  218.9790 C   0  0  0  0  0  0  0  0  0  0  0  0
  141.7010   80.4140  218.8250 C   0  0  0  0  0  0  0  0  0  0  0  0
  141.7440   81.2350  219.9080 C   0  0  0  0  0  0  0  0  0  0  0  0
  141.8470   80.7210  221.1870 C   0  0  0  0  0  0  0  0  0  0  0  0
  141.8920   81.5320  222.2970 C   0  0  0  0  0  0  0  0  0  0  0  0
  141.9970   80.9550  223.5450 C   0  0  0  0  0  0  0  0  0  0  0  0
  142.0380   81.7920  224.6230 F   0  0  0  0  0  0  0  0  0  0  0  0
  142.0570   79.5710  223.6960 C   0  0  0  0  0  0  0  0  0  0  0  0
  142.0110   78.7570  222.5790 C   0  0  0  0  0  0  0  0  0  0  0  0
  141.9060   79.3420  221.3300 C   0  0  0  0  0  0  0  0  0  0  0  0
  141.8620   78.5580  220.2380 N   0  0  0  0  0  0  0  0  0  0  0  0
  143.6880   77.4830  218.1260 H   0  0  0  0  0  0  0  0  0  0  0  0
  141.9966   76.6133  215.7172 H   0  0  0  0  0  0  0  0  0  0  0  0
  143.7730   76.5814  215.7425 H   0  0  0  0  0  0  0  0  0  0  0  0
  141.0558   75.4116  218.8866 H   0  0  0  0  0  0  0  0  0  0  0  0
  141.2864   73.6558  219.0475 H   0  0  0  0  0  0  0  0  0  0  0  0
  142.1175   73.9763  221.2219 H   0  0  0  0  0  0  0  0  0  0  0  0
  142.2440   76.6510  221.2410 H   0  0  0  0  0  0  0  0  0  0  0  0
  144.3945   74.8591  221.2321 H   0  0  0  0  0  0  0  0  0  0  0  0
  143.3840   77.0430  220.7340 H   0  0  0  0  0  0  0  0  0  0  0  0
  145.0044   74.6488  218.5691 H   0  0  0  0  0  0  0  0  0  0  0  0
  143.5614   72.7042  218.5854 H   0  0  0  0  0  0  0  0  0  0  0  0
  144.9884   73.3473  221.4850 H   0  0  0  0  0  0  0  0  0  0  0  0
  144.3096   71.9567  221.5627 H   0  0  0  0  0  0  0  0  0  0  0  0
  146.5499   72.9082  219.4588 H   0  0  0  0  0  0  0  0  0  0  0  0
  146.1393   71.4274  219.1790 H   0  0  0  0  0  0  0  0  0  0  0  0
  141.6182   80.8455  217.8166 H   0  0  0  0  0  0  0  0  0  0  0  0
  141.6961   82.3245  219.7642 H   0  0  0  0  0  0  0  0  0  0  0  0
  141.8449   82.6258  222.1906 H   0  0  0  0  0  0  0  0  0  0  0  0
  142.1406   79.1279  224.6993 H   0  0  0  0  0  0  0  0  0  0  0  0
  142.0571   77.6628  222.6820 H   0  0  0  0  0  0  0  0  0  0  0  0
  1  2  2  0
  2  3  1  0
  3  4  1  0
  4  5  1  0
  5  6  2  0
  5  7  1  0
  7  8  1  0
  8  9  1  0
  9 10  1  0
  9 11  1  0
 11 12  1  0
 11 13  1  0
 13 14  1  0
 14 15  1  0
 15 16  1  0
  2 17  1  0
 17 18  2  0
 18 19  1  0
 19 20  2  0
 20 21  1  0
 21 22  2  0
 22 23  1  0
 22 24  1  0
 24 25  2  0
 25 26  1  0
 26 27  2  0
 13  7  1  0
 16 14  1  0
 27 17  1  0
 26 20  1  0
  3 28  1  0
  4 29  1  0
  4 30  1  0
  8 31  1  0
  8 32  1  0
  9 33  1  1
 10 34  1  0
 11 35  1  1
 12 36  1  0
 13 37  1  6
 14 38  1  0
 15 39  1  0
 15 40  1  0
 16 41  1  0
 16 42  1  0
 18 43  1  0
 19 44  1  0
 21 45  1  0
 24 46  1  0
 25 47  1  0
M  END
>  <smiles>  (28) 
O=C(NCC(=O)N1C[C@H](O)[C@H](O)[C@H]1C1CC1)c1ccc2cc(F)ccc2n1

>  <score_type>  (28) 
oracle

>  <origin>  (28) 
autodockgpu

>  <m_score__min__energy>  (28) 
-7.7000000000000002

>  <m_primary>  (28) 
energy

>  <rmsd>  (28) 
8.972761620814602

>  <m_score__min__rmsd>  (28) 
8.972761620814602

>  <meeko>  (28) 
{"free_energy": -5.22, "intermolecular_energy": -7.31, "internal_energy": -4.91, "cluster_size": 5, "cluster_id": 5, "rank_in_cluster": 2}

>  <energy>  (28) 
-5.68

>  <cluster_rmsd>  (28) 
0.42

>  <cluster>  (28) 
4

$$$$

     RDKit          3D

 47 50  0  0  0  0  0  0  0  0999 V2000
  138.2670   74.6370  220.3850 O   0  0  0  0  0  0  0  0  0  0  0  0
  139.0880   74.7220  221.3400 C   0  0  0  0  0  0  0  0  0  0  0  0
  138.8300   75.4590  222.5280 N   0  0  0  0  0  0  0  0  0  0  0  0
  137.5660   76.1890  222.7250 C   0  0  0  0  0  0  0  0  0  0  0  0
  137.8880   77.6040  222.6860 C   0  0  0  0  0  0  0  0  0  0  0  0
  136.9240   78.4350  222.8330 O   0  0  0  0  0  0  0  0  0  0  0  0
  139.1660   78.1870  222.4990 N   0  0  0  0  0  0  0  0  0  0  0  0
  139.7550   78.3290  221.1630 C   0  0  0  0  0  0  0  0  0  0  0  0
  141.2520   78.3690  221.3440 C   0  0  2  0  0  0  0  0  0  0  0  0
  141.8520   77.3720  220.5780 O   0  0  0  0  0  0  0  0  0  0  0  0
  141.4350   78.1490  222.8350 C   0  0  2  0  0  0  0  0  0  0  0  0
  141.4110   76.7750  223.0540 O   0  0  0  0  0  0  0  0  0  0  0  0
  140.1330   78.7190  223.3990 C   0  0  1  0  0  0  0  0  0  0  0  0
  140.1980   80.1890  223.5600 C   0  0  0  0  0  0  0  0  0  0  0  0
  138.8820   80.8900  223.8880 C   0  0  0  0  0  0  0  0  0  0  0  0
  139.6640   81.1950  222.6500 C   0  0  0  0  0  0  0  0  0  0  0  0
  140.3740   74.0120  221.1970 C   0  0  0  0  0  0  0  0  0  0  0  0
  140.4630   72.6520  221.3510 C   0  0  0  0  0  0  0  0  0  0  0  0
  141.6570   72.0180  221.2150 C   0  0  0  0  0  0  0  0  0  0  0  0
  142.8090   72.7240  220.9200 C   0  0  0  0  0  0  0  0  0  0  0  0
  144.0280   72.1030  220.7780 C   0  0  0  0  0  0  0  0  0  0  0  0
  145.1380   72.8660  220.4840 C   0  0  0  0  0  0  0  0  0  0  0  0
  146.3300   72.2150  220.3500 F   0  0  0  0  0  0  0  0  0  0  0  0
  145.0430   74.2480  220.3290 C   0  0  0  0  0  0  0  0  0  0  0  0
  143.8160   74.8700  220.4720 C   0  0  0  0  0  0  0  0  0  0  0  0
  142.7060   74.0990  220.7670 C   0  0  0  0  0  0  0  0  0  0  0  0
  141.5090   74.6960  220.9070 N   0  0  0  0  0  0  0  0  0  0  0  0
  139.5840   75.4550  223.2480 H   0  0  0  0  0  0  0  0  0  0  0  0
  136.8559   75.9400  221.9226 H   0  0  0  0  0  0  0  0  0  0  0  0
  137.0984   75.9170  223.6828 H   0  0  0  0  0  0  0  0  0  0  0  0
  139.4733   77.4726  220.5328 H   0  0  0  0  0  0  0  0  0  0  0  0
  139.3943   79.2436  220.6697 H   0  0  0  0  0  0  0  0  0  0  0  0
  141.7192   79.3084  221.0134 H   0  0  0  0  0  0  0  0  0  0  0  0
  142.2590   76.7190  221.2140 H   0  0  0  0  0  0  0  0  0  0  0  0
  142.3524   78.5846  223.2577 H   0  0  0  0  0  0  0  0  0  0  0  0
  141.8710   76.2780  222.3460 H   0  0  0  0  0  0  0  0  0  0  0  0
  139.8826   78.4334  224.4313 H   0  0  0  0  0  0  0  0  0  0  0  0
  141.2102   80.0648  223.9723 H   0  0  0  0  0  0  0  0  0  0  0  0
  137.9295   80.3435  223.8239 H   0  0  0  0  0  0  0  0  0  0  0  0
  138.4830   81.4682  224.7344 H   0  0  0  0  0  0  0  0  0  0  0  0
  139.2715   80.8876  221.6695 H   0  0  0  0  0  0  0  0  0  0  0  0
  140.0679   82.1183  222.2090 H   0  0  0  0  0  0  0  0  0  0  0  0
  139.5600   72.0696  221.5866 H   0  0  0  0  0  0  0  0  0  0  0  0
  141.7081   70.9265  221.3415 H   0  0  0  0  0  0  0  0  0  0  0  0
  144.1160   71.0130  220.8973 H   0  0  0  0  0  0  0  0  0  0  0  0
  145.9393   74.8409  220.0941 H   0  0  0  0  0  0  0  0  0  0  0  0
  143.7243   75.9597  220.3531 H   0  0  0  0  0  0  0  0  0  0  0  0
  1  2  2  0
  2  3  1  0
  3  4  1  0
  4  5  1  0
  5  6  2  0
  5  7  1  0
  7  8  1  0
  8  9  1  0
  9 10  1  0
  9 11  1  0
 11 12  1  0
 11 13  1  0
 13 14  1  0
 14 15  1  0
 15 16  1  0
  2 17  1  0
 17 18  2  0
 18 19  1  0
 19 20  2  0
 20 21  1  0
 21 22  2  0
 22 23  1  0
 22 24  1  0
 24 25  2  0
 25 26  1  0
 26 27  2  0
 13  7  1  0
 16 14  1  0
 27 17  1  0
 26 20  1  0
  3 28  1  0
  4 29  1  0
  4 30  1  0
  8 31  1  0
  8 32  1  0
  9 33  1  6
 10 34  1  0
 11 35  1  1
 12 36  1  0
 13 37  1  1
 14 38  1  0
 15 39  1  0
 15 40  1  0
 16 41  1  0
 16 42  1  0
 18 43  1  0
 19 44  1  0
 21 45  1  0
 24 46  1  0
 25 47  1  0
M  END
>  <smiles>  (29) 
O=C(NCC(=O)N1C[C@H](O)[C@H](O)[C@H]1C1CC1)c1ccc2cc(F)ccc2n1

>  <score_type>  (29) 
oracle

>  <origin>  (29) 
autodockgpu

>  <m_score__min__energy>  (29) 
-7.7000000000000002

>  <m_primary>  (29) 
energy

>  <rmsd>  (29) 
6.006027089739425

>  <m_score__min__rmsd>  (29) 
6.006027089739425

>  <meeko>  (29) 
{"free_energy": -5.64, "intermolecular_energy": -7.72, "internal_energy": -4.86, "cluster_size": 24, "cluster_id": 4, "rank_in_cluster": 17}

>  <energy>  (29) 
-5.66

>  <cluster_rmsd>  (29) 
0.38

>  <cluster>  (29) 
4

$$$$

     RDKit          3D

 47 50  0  0  0  0  0  0  0  0999 V2000
  138.3260   74.7310  220.3540 O   0  0  0  0  0  0  0  0  0  0  0  0
  139.1270   74.7690  221.3280 C   0  0  0  0  0  0  0  0  0  0  0  0
  138.8540   75.4660  222.5360 N   0  0  0  0  0  0  0  0  0  0  0  0
  137.5960   76.2060  222.7340 C   0  0  0  0  0  0  0  0  0  0  0  0
  137.9090   77.6150  222.5770 C   0  0  0  0  0  0  0  0  0  0  0  0
  136.9300   78.4420  222.5770 O   0  0  0  0  0  0  0  0  0  0  0  0
  139.1910   78.1960  222.4180 N   0  0  0  0  0  0  0  0  0  0  0  0
  139.8120   78.3330  221.0960 C   0  0  0  0  0  0  0  0  0  0  0  0
  141.3040   78.3710  221.3120 C   0  0  2  0  0  0  0  0  0  0  0  0
  141.9210   77.3710  220.5630 O   0  0  0  0  0  0  0  0  0  0  0  0
  141.4530   78.1560  222.8080 C   0  0  2  0  0  0  0  0  0  0  0  0
  141.4210   76.7820  223.0300 O   0  0  0  0  0  0  0  0  0  0  0  0
  140.1380   78.7290  223.3390 C   0  0  1  0  0  0  0  0  0  0  0  0
  140.2010   80.1990  223.4970 C   0  0  0  0  0  0  0  0  0  0  0  0
  138.8910   80.8970  223.8550 C   0  0  0  0  0  0  0  0  0  0  0  0
  139.6430   81.2030  222.5980 C   0  0  0  0  0  0  0  0  0  0  0  0
  140.4060   74.0470  221.1860 C   0  0  0  0  0  0  0  0  0  0  0  0
  140.4850   72.6890  221.3530 C   0  0  0  0  0  0  0  0  0  0  0  0
  141.6730   72.0430  221.2180 C   0  0  0  0  0  0  0  0  0  0  0  0
  142.8290   72.7360  220.9090 C   0  0  0  0  0  0  0  0  0  0  0  0
  144.0420   72.1040  220.7670 C   0  0  0  0  0  0  0  0  0  0  0  0
  145.1570   72.8540  220.4590 C   0  0  0  0  0  0  0  0  0  0  0  0
  146.3430   72.1910  220.3250 F   0  0  0  0  0  0  0  0  0  0  0  0
  145.0720   74.2350  220.2890 C   0  0  0  0  0  0  0  0  0  0  0  0
  143.8510   74.8690  220.4320 C   0  0  0  0  0  0  0  0  0  0  0  0
  142.7370   74.1100  220.7420 C   0  0  0  0  0  0  0  0  0  0  0  0
  141.5460   74.7190  220.8830 N   0  0  0  0  0  0  0  0  0  0  0  0
  139.5930   75.4260  223.2710 H   0  0  0  0  0  0  0  0  0  0  0  0
  136.8530   75.8973  221.9839 H   0  0  0  0  0  0  0  0  0  0  0  0
  137.1718   76.0044  223.7287 H   0  0  0  0  0  0  0  0  0  0  0  0
  139.5438   77.4752  220.4618 H   0  0  0  0  0  0  0  0  0  0  0  0
  139.4648   79.2469  220.5918 H   0  0  0  0  0  0  0  0  0  0  0  0
  141.7796   79.3089  220.9893 H   0  0  0  0  0  0  0  0  0  0  0  0
  142.3210   76.7250  221.2110 H   0  0  0  0  0  0  0  0  0  0  0  0
  142.3608   78.5917  223.2508 H   0  0  0  0  0  0  0  0  0  0  0  0
  141.8950   76.2820  222.3330 H   0  0  0  0  0  0  0  0  0  0  0  0
  139.8631   78.4459  224.3658 H   0  0  0  0  0  0  0  0  0  0  0  0
  141.2227   80.0779  223.8861 H   0  0  0  0  0  0  0  0  0  0  0  0
  137.9388   80.3479  223.8139 H   0  0  0  0  0  0  0  0  0  0  0  0
  138.5105   81.4751  224.7100 H   0  0  0  0  0  0  0  0  0  0  0  0
  139.2284   80.8934  221.6273 H   0  0  0  0  0  0  0  0  0  0  0  0
  140.0339   82.1268  222.1465 H   0  0  0  0  0  0  0  0  0  0  0  0
  139.5783   72.1166  221.5986 H   0  0  0  0  0  0  0  0  0  0  0  0
  141.7156   70.9526  221.3566 H   0  0  0  0  0  0  0  0  0  0  0  0
  144.1216   71.0147  220.8974 H   0  0  0  0  0  0  0  0  0  0  0  0
  145.9717   74.8178  220.0423 H   0  0  0  0  0  0  0  0  0  0  0  0
  143.7674   75.9580  220.3015 H   0  0  0  0  0  0  0  0  0  0  0  0
  1  2  2  0
  2  3  1  0
  3  4  1  0
  4  5  1  0
  5  6  2  0
  5  7  1  0
  7  8  1  0
  8  9  1  0
  9 10  1  0
  9 11  1  0
 11 12  1  0
 11 13  1  0
 13 14  1  0
 14 15  1  0
 15 16  1  0
  2 17  1  0
 17 18  2  0
 18 19  1  0
 19 20  2  0
 20 21  1  0
 21 22  2  0
 22 23  1  0
 22 24  1  0
 24 25  2  0
 25 26  1  0
 26 27  2  0
 13  7  1  0
 16 14  1  0
 27 17  1  0
 26 20  1  0
  3 28  1  0
  4 29  1  0
  4 30  1  0
  8 31  1  0
  8 32  1  0
  9 33  1  6
 10 34  1  0
 11 35  1  1
 12 36  1  0
 13 37  1  1
 14 38  1  0
 15 39  1  0
 15 40  1  0
 16 41  1  0
 16 42  1  0
 18 43  1  0
 19 44  1  0
 21 45  1  0
 24 46  1  0
 25 47  1  0
M  END
>  <smiles>  (30) 
O=C(NCC(=O)N1C[C@H](O)[C@H](O)[C@H]1C1CC1)c1ccc2cc(F)ccc2n1

>  <score_type>  (30) 
oracle

>  <origin>  (30) 
autodockgpu

>  <m_score__min__energy>  (30) 
-7.7000000000000002

>  <m_primary>  (30) 
energy

>  <rmsd>  (30) 
6.014066278274628

>  <m_score__min__rmsd>  (30) 
6.014066278274628

>  <meeko>  (30) 
{"free_energy": -5.66, "intermolecular_energy": -7.75, "internal_energy": -4.86, "cluster_size": 24, "cluster_id": 4, "rank_in_cluster": 10}

>  <energy>  (30) 
-5.66

>  <cluster_rmsd>  (30) 
0.38

>  <cluster>  (30) 
4

$$$$

     RDKit          3D

 47 50  0  0  0  0  0  0  0  0999 V2000
  138.2900   74.6870  220.3520 O   0  0  0  0  0  0  0  0  0  0  0  0
  139.1000   74.7470  221.3180 C   0  0  0  0  0  0  0  0  0  0  0  0
  138.8330   75.4590  222.5180 N   0  0  0  0  0  0  0  0  0  0  0  0
  137.5700   76.1900  222.7190 C   0  0  0  0  0  0  0  0  0  0  0  0
  137.8720   77.6010  222.5580 C   0  0  0  0  0  0  0  0  0  0  0  0
  136.8870   78.4210  222.5570 O   0  0  0  0  0  0  0  0  0  0  0  0
  139.1500   78.1910  222.3960 N   0  0  0  0  0  0  0  0  0  0  0  0
  139.7710   78.3240  221.0740 C   0  0  0  0  0  0  0  0  0  0  0  0
  141.2630   78.3750  221.2910 C   0  0  2  0  0  0  0  0  0  0  0  0
  141.8880   77.3760  220.5490 O   0  0  0  0  0  0  0  0  0  0  0  0
  141.4120   78.1700  222.7880 C   0  0  2  0  0  0  0  0  0  0  0  0
  141.3910   76.7980  223.0190 O   0  0  0  0  0  0  0  0  0  0  0  0
  140.0920   78.7370  223.3150 C   0  0  1  0  0  0  0  0  0  0  0  0
  140.1440   80.2080  223.4640 C   0  0  0  0  0  0  0  0  0  0  0  0
  138.8830   80.8760  224.0070 C   0  0  0  0  0  0  0  0  0  0  0  0
  139.4400   81.1970  222.6560 C   0  0  0  0  0  0  0  0  0  0  0  0
  140.3850   74.0340  221.1730 C   0  0  0  0  0  0  0  0  0  0  0  0
  140.4720   72.6750  221.3300 C   0  0  0  0  0  0  0  0  0  0  0  0
  141.6650   72.0380  221.1930 C   0  0  0  0  0  0  0  0  0  0  0  0
  142.8170   72.7410  220.8920 C   0  0  0  0  0  0  0  0  0  0  0  0
  144.0350   72.1190  220.7480 C   0  0  0  0  0  0  0  0  0  0  0  0
  145.1450   72.8790  220.4480 C   0  0  0  0  0  0  0  0  0  0  0  0
  146.3360   72.2250  220.3120 F   0  0  0  0  0  0  0  0  0  0  0  0
  145.0510   74.2600  220.2880 C   0  0  0  0  0  0  0  0  0  0  0  0
  143.8260   74.8850  220.4330 C   0  0  0  0  0  0  0  0  0  0  0  0
  142.7160   74.1160  220.7350 C   0  0  0  0  0  0  0  0  0  0  0  0
  141.5210   74.7160  220.8770 N   0  0  0  0  0  0  0  0  0  0  0  0
  139.5790   75.4350  223.2460 H   0  0  0  0  0  0  0  0  0  0  0  0
  136.8267   75.8742  221.9722 H   0  0  0  0  0  0  0  0  0  0  0  0
  137.1508   75.9872  223.7156 H   0  0  0  0  0  0  0  0  0  0  0  0
  139.5100   77.4599  220.4453 H   0  0  0  0  0  0  0  0  0  0  0  0
  139.4172   79.2319  220.5635 H   0  0  0  0  0  0  0  0  0  0  0  0
  141.7317   79.3146  220.9631 H   0  0  0  0  0  0  0  0  0  0  0  0
  142.2790   76.7280  221.2020 H   0  0  0  0  0  0  0  0  0  0  0  0
  142.3162   78.6152  223.2287 H   0  0  0  0  0  0  0  0  0  0  0  0
  141.8750   76.2980  222.3290 H   0  0  0  0  0  0  0  0  0  0  0  0
  139.8182   78.4586  224.3434 H   0  0  0  0  0  0  0  0  0  0  0  0
  141.2136   80.1114  223.7021 H   0  0  0  0  0  0  0  0  0  0  0  0
  137.9477   80.3049  224.1018 H   0  0  0  0  0  0  0  0  0  0  0  0
  138.6155   81.4467  224.9085 H   0  0  0  0  0  0  0  0  0  0  0  0
  138.8980   80.8762  221.7542 H   0  0  0  0  0  0  0  0  0  0  0  0
  139.7407   82.1288  222.1547 H   0  0  0  0  0  0  0  0  0  0  0  0
  139.5685   72.0949  221.5690 H   0  0  0  0  0  0  0  0  0  0  0  0
  141.7147   70.9469  221.3235 H   0  0  0  0  0  0  0  0  0  0  0  0
  144.1222   71.0293  220.8706 H   0  0  0  0  0  0  0  0  0  0  0  0
  145.9473   74.8505  220.0474 H   0  0  0  0  0  0  0  0  0  0  0  0
  143.7356   75.9744  220.3104 H   0  0  0  0  0  0  0  0  0  0  0  0
  1  2  2  0
  2  3  1  0
  3  4  1  0
  4  5  1  0
  5  6  2  0
  5  7  1  0
  7  8  1  0
  8  9  1  0
  9 10  1  0
  9 11  1  0
 11 12  1  0
 11 13  1  0
 13 14  1  0
 14 15  1  0
 15 16  1  0
  2 17  1  0
 17 18  2  0
 18 19  1  0
 19 20  2  0
 20 21  1  0
 21 22  2  0
 22 23  1  0
 22 24  1  0
 24 25  2  0
 25 26  1  0
 26 27  2  0
 13  7  1  0
 16 14  1  0
 27 17  1  0
 26 20  1  0
  3 28  1  0
  4 29  1  0
  4 30  1  0
  8 31  1  0
  8 32  1  0
  9 33  1  6
 10 34  1  0
 11 35  1  1
 12 36  1  0
 13 37  1  1
 14 38  1  0
 15 39  1  0
 15 40  1  0
 16 41  1  0
 16 42  1  0
 18 43  1  0
 19 44  1  0
 21 45  1  0
 24 46  1  0
 25 47  1  0
M  END
>  <smiles>  (31) 
O=C(NCC(=O)N1C[C@H](O)[C@H](O)[C@H]1C1CC1)c1ccc2cc(F)ccc2n1

>  <score_type>  (31) 
oracle

>  <origin>  (31) 
autodockgpu

>  <m_score__min__energy>  (31) 
-7.7000000000000002

>  <m_primary>  (31) 
energy

>  <rmsd>  (31) 
6.006755001188755

>  <m_score__min__rmsd>  (31) 
6.006755001188755

>  <meeko>  (31) 
{"free_energy": -5.63, "intermolecular_energy": -7.72, "internal_energy": -4.86, "cluster_size": 24, "cluster_id": 4, "rank_in_cluster": 19}

>  <energy>  (31) 
-5.66

>  <cluster_rmsd>  (31) 
0.41

>  <cluster>  (31) 
4

$$$$

     RDKit          3D

 47 50  0  0  0  0  0  0  0  0999 V2000
  138.2380   75.1920  220.4510 O   0  0  0  0  0  0  0  0  0  0  0  0
  138.9980   75.0960  221.4540 C   0  0  0  0  0  0  0  0  0  0  0  0
  138.7190   75.7080  222.7060 N   0  0  0  0  0  0  0  0  0  0  0  0
  137.5040   76.5130  222.9190 C   0  0  0  0  0  0  0  0  0  0  0  0
  137.8780   77.9010  222.7160 C   0  0  0  0  0  0  0  0  0  0  0  0
  136.9360   78.7690  222.6870 O   0  0  0  0  0  0  0  0  0  0  0  0
  139.1850   78.4190  222.5380 N   0  0  0  0  0  0  0  0  0  0  0  0
  139.7820   78.5520  221.2050 C   0  0  0  0  0  0  0  0  0  0  0  0
  141.2790   78.5090  221.3870 C   0  0  2  0  0  0  0  0  0  0  0  0
  141.8270   77.4960  220.6050 O   0  0  0  0  0  0  0  0  0  0  0  0
  141.4490   78.2560  222.8750 C   0  0  2  0  0  0  0  0  0  0  0  0
  141.3520   76.8810  223.0700 O   0  0  0  0  0  0  0  0  0  0  0  0
  140.1770   78.8840  223.4470 C   0  0  1  0  0  0  0  0  0  0  0  0
  140.3190   80.3450  223.6330 C   0  0  0  0  0  0  0  0  0  0  0  0
  139.3240   81.2210  222.8770 C   0  0  0  0  0  0  0  0  0  0  0  0
  140.8000   81.3110  222.6530 C   0  0  0  0  0  0  0  0  0  0  0  0
  140.2330   74.3030  221.2990 C   0  0  0  0  0  0  0  0  0  0  0  0
  140.2590   72.9580  221.5610 C   0  0  0  0  0  0  0  0  0  0  0  0
  141.4080   72.2460  221.4120 C   0  0  0  0  0  0  0  0  0  0  0  0
  142.5750   72.8580  220.9930 C   0  0  0  0  0  0  0  0  0  0  0  0
  143.7480   72.1580  220.8350 C   0  0  0  0  0  0  0  0  0  0  0  0
  144.8780   72.8290  220.4150 C   0  0  0  0  0  0  0  0  0  0  0  0
  146.0230   72.1010  220.2700 F   0  0  0  0  0  0  0  0  0  0  0  0
  144.8460   74.1970  220.1510 C   0  0  0  0  0  0  0  0  0  0  0  0
  143.6650   74.8990  220.3100 C   0  0  0  0  0  0  0  0  0  0  0  0
  142.5360   74.2190  220.7320 C   0  0  0  0  0  0  0  0  0  0  0  0
  141.3840   74.8950  220.8890 N   0  0  0  0  0  0  0  0  0  0  0  0
  139.4220   75.5580  223.4620 H   0  0  0  0  0  0  0  0  0  0  0  0
  136.7257   76.2215  222.1984 H   0  0  0  0  0  0  0  0  0  0  0  0
  137.1004   76.3574  223.9304 H   0  0  0  0  0  0  0  0  0  0  0  0
  139.4557   77.7226  220.5603 H   0  0  0  0  0  0  0  0  0  0  0  0
  139.4711   79.4928  220.7273 H   0  0  0  0  0  0  0  0  0  0  0  0
  141.7954   79.4276  221.0716 H   0  0  0  0  0  0  0  0  0  0  0  0
  142.2610   76.8470  221.2280 H   0  0  0  0  0  0  0  0  0  0  0  0
  142.3870   78.6360  223.3060 H   0  0  0  0  0  0  0  0  0  0  0  0
  141.8420   76.3730  222.3900 H   0  0  0  0  0  0  0  0  0  0  0  0
  139.9098   78.5943  224.4740 H   0  0  0  0  0  0  0  0  0  0  0  0
  140.6517   80.1466  224.6625 H   0  0  0  0  0  0  0  0  0  0  0  0
  138.6702   80.7839  222.1079 H   0  0  0  0  0  0  0  0  0  0  0  0
  138.5208   81.9217  223.1489 H   0  0  0  0  0  0  0  0  0  0  0  0
  141.2287   80.9557  221.7043 H   0  0  0  0  0  0  0  0  0  0  0  0
  141.5294   82.1338  222.6848 H   0  0  0  0  0  0  0  0  0  0  0  0
  139.3423   72.4499  221.8948 H   0  0  0  0  0  0  0  0  0  0  0  0
  141.4091   71.1674  221.6280 H   0  0  0  0  0  0  0  0  0  0  0  0
  143.7849   71.0780  221.0406 H   0  0  0  0  0  0  0  0  0  0  0  0
  145.7565   74.7164  219.8175 H   0  0  0  0  0  0  0  0  0  0  0  0
  143.6238   75.9789  220.1046 H   0  0  0  0  0  0  0  0  0  0  0  0
  1  2  2  0
  2  3  1  0
  3  4  1  0
  4  5  1  0
  5  6  2  0
  5  7  1  0
  7  8  1  0
  8  9  1  0
  9 10  1  0
  9 11  1  0
 11 12  1  0
 11 13  1  0
 13 14  1  0
 14 15  1  0
 15 16  1  0
  2 17  1  0
 17 18  2  0
 18 19  1  0
 19 20  2  0
 20 21  1  0
 21 22  2  0
 22 23  1  0
 22 24  1  0
 24 25  2  0
 25 26  1  0
 26 27  2  0
 13  7  1  0
 16 14  1  0
 27 17  1  0
 26 20  1  0
  3 28  1  0
  4 29  1  0
  4 30  1  0
  8 31  1  0
  8 32  1  0
  9 33  1  6
 10 34  1  0
 11 35  1  1
 12 36  1  0
 13 37  1  1
 14 38  1  0
 15 39  1  0
 15 40  1  0
 16 41  1  0
 16 42  1  0
 18 43  1  0
 19 44  1  0
 21 45  1  0
 24 46  1  0
 25 47  1  0
M  END
>  <smiles>  (32) 
O=C(NCC(=O)N1C[C@H](O)[C@H](O)[C@H]1C1CC1)c1ccc2cc(F)ccc2n1

>  <score_type>  (32) 
oracle

>  <origin>  (32) 
autodockgpu

>  <m_score__min__energy>  (32) 
-7.7000000000000002

>  <m_primary>  (32) 
energy

>  <rmsd>  (32) 
6.101611774524602

>  <m_score__min__rmsd>  (32) 
6.101611774524602

>  <meeko>  (32) 
{"free_energy": -5.82, "intermolecular_energy": -7.91, "internal_energy": -4.65, "cluster_size": 24, "cluster_id": 4, "rank_in_cluster": 3}

>  <energy>  (32) 
-5.65

>  <cluster_rmsd>  (32) 
0.38

>  <cluster>  (32) 
4

$$$$

     RDKit          3D

 47 50  0  0  0  0  0  0  0  0999 V2000
  139.8080   71.6960  220.5390 O   0  0  0  0  0  0  0  0  0  0  0  0
  140.3330   72.1970  221.5720 C   0  0  0  0  0  0  0  0  0  0  0  0
  141.0370   73.4320  221.5680 N   0  0  0  0  0  0  0  0  0  0  0  0
  141.2060   74.2210  220.3350 C   0  0  0  0  0  0  0  0  0  0  0  0
  142.6280   74.4760  220.1920 C   0  0  0  0  0  0  0  0  0  0  0  0
  143.0040   75.6980  220.0970 O   0  0  0  0  0  0  0  0  0  0  0  0
  143.6700   73.5180  220.1410 N   0  0  0  0  0  0  0  0  0  0  0  0
  144.9050   73.6850  220.9160 C   0  0  0  0  0  0  0  0  0  0  0  0
  145.9830   72.9120  220.1980 C   0  0  2  0  0  0  0  0  0  0  0  0
  147.0560   73.7510  219.9040 O   0  0  0  0  0  0  0  0  0  0  0  0
  145.2840   72.4000  218.9520 C   0  0  2  0  0  0  0  0  0  0  0  0
  145.3350   73.4170  218.0040 O   0  0  0  0  0  0  0  0  0  0  0  0
  143.8330   72.2970  219.4260 C   0  0  1  0  0  0  0  0  0  0  0  0
  143.5770   71.0300  220.1470 C   0  0  0  0  0  0  0  0  0  0  0  0
  144.1990   69.7730  219.5450 C   0  0  0  0  0  0  0  0  0  0  0  0
  142.7220   69.9320  219.7150 C   0  0  0  0  0  0  0  0  0  0  0  0
  140.1980   71.4490  222.8370 C   0  0  0  0  0  0  0  0  0  0  0  0
  139.5640   70.2350  222.8870 C   0  0  0  0  0  0  0  0  0  0  0  0
  139.4500   69.5620  224.0630 C   0  0  0  0  0  0  0  0  0  0  0  0
  139.9690   70.0830  225.2330 C   0  0  0  0  0  0  0  0  0  0  0  0
  139.8660   69.4200  226.4340 C   0  0  0  0  0  0  0  0  0  0  0  0
  140.4050   69.9950  227.5660 C   0  0  0  0  0  0  0  0  0  0  0  0
  140.2830   69.3070  228.7390 F   0  0  0  0  0  0  0  0  0  0  0  0
  141.0480   71.2290  227.5100 C   0  0  0  0  0  0  0  0  0  0  0  0
  141.1510   71.8940  226.3010 C   0  0  0  0  0  0  0  0  0  0  0  0
  140.6080   71.3120  225.1700 C   0  0  0  0  0  0  0  0  0  0  0  0
  140.7040   71.9520  223.9910 N   0  0  0  0  0  0  0  0  0  0  0  0
  141.4270   73.7460  222.4820 H   0  0  0  0  0  0  0  0  0  0  0  0
  140.8339   73.6543  219.4688 H   0  0  0  0  0  0  0  0  0  0  0  0
  140.6395   75.1624  220.3880 H   0  0  0  0  0  0  0  0  0  0  0  0
  145.1759   74.7497  220.9705 H   0  0  0  0  0  0  0  0  0  0  0  0
  144.7763   73.3169  221.9445 H   0  0  0  0  0  0  0  0  0  0  0  0
  146.4125   72.0883  220.7872 H   0  0  0  0  0  0  0  0  0  0  0  0
  146.7020   74.4880  219.3300 H   0  0  0  0  0  0  0  0  0  0  0  0
  145.7023   71.4719  218.5353 H   0  0  0  0  0  0  0  0  0  0  0  0
  145.6860   74.2540  218.3760 H   0  0  0  0  0  0  0  0  0  0  0  0
  143.0679   72.2176  218.6397 H   0  0  0  0  0  0  0  0  0  0  0  0
  143.5820   71.6043  221.0852 H   0  0  0  0  0  0  0  0  0  0  0  0
  144.6498   69.8009  218.5420 H   0  0  0  0  0  0  0  0  0  0  0  0
  144.9568   69.0385  219.8554 H   0  0  0  0  0  0  0  0  0  0  0  0
  142.0830   70.0569  218.8284 H   0  0  0  0  0  0  0  0  0  0  0  0
  141.9402   69.3334  220.2054 H   0  0  0  0  0  0  0  0  0  0  0  0
  139.1436   69.8012  221.9677 H   0  0  0  0  0  0  0  0  0  0  0  0
  138.9373   68.5890  224.0833 H   0  0  0  0  0  0  0  0  0  0  0  0
  139.3607   68.4446  226.4908 H   0  0  0  0  0  0  0  0  0  0  0  0
  141.4721   71.6730  228.4227 H   0  0  0  0  0  0  0  0  0  0  0  0
  141.6563   72.8692  226.2404 H   0  0  0  0  0  0  0  0  0  0  0  0
  1  2  2  0
  2  3  1  0
  3  4  1  0
  4  5  1  0
  5  6  2  0
  5  7  1  0
  7  8  1  0
  8  9  1  0
  9 10  1  0
  9 11  1  0
 11 12  1  0
 11 13  1  0
 13 14  1  0
 14 15  1  0
 15 16  1  0
  2 17  1  0
 17 18  2  0
 18 19  1  0
 19 20  2  0
 20 21  1  0
 21 22  2  0
 22 23  1  0
 22 24  1  0
 24 25  2  0
 25 26  1  0
 26 27  2  0
 13  7  1  0
 16 14  1  0
 27 17  1  0
 26 20  1  0
  3 28  1  0
  4 29  1  0
  4 30  1  0
  8 31  1  0
  8 32  1  0
  9 33  1  1
 10 34  1  0
 11 35  1  6
 12 36  1  0
 13 37  1  6
 14 38  1  0
 15 39  1  0
 15 40  1  0
 16 41  1  0
 16 42  1  0
 18 43  1  0
 19 44  1  0
 21 45  1  0
 24 46  1  0
 25 47  1  0
M  END
>  <smiles>  (33) 
O=C(NCC(=O)N1C[C@H](O)[C@H](O)[C@H]1C1CC1)c1ccc2cc(F)ccc2n1

>  <score_type>  (33) 
oracle

>  <origin>  (33) 
autodockgpu

>  <m_score__min__energy>  (33) 
-7.7000000000000002

>  <m_primary>  (33) 
energy

>  <rmsd>  (33) 
3.939238332416282

>  <m_score__min__rmsd>  (33) 
3.939238332416282

>  <meeko>  (33) 
{"free_energy": -6.87, "intermolecular_energy": -8.96, "internal_energy": -3.16, "cluster_size": 11, "cluster_id": 1, "rank_in_cluster": 10}

>  <energy>  (33) 
-5.64

>  <cluster_rmsd>  (33) 
0.36

>  <cluster>  (33) 
4

$$$$

     RDKit          3D

 47 50  0  0  0  0  0  0  0  0999 V2000
  138.2860   74.6480  220.3520 O   0  0  0  0  0  0  0  0  0  0  0  0
  139.0990   74.7390  221.3130 C   0  0  0  0  0  0  0  0  0  0  0  0
  138.8320   75.4830  222.4940 N   0  0  0  0  0  0  0  0  0  0  0  0
  137.5650   76.2130  222.6770 C   0  0  0  0  0  0  0  0  0  0  0  0
  137.8980   77.6250  222.7200 C   0  0  0  0  0  0  0  0  0  0  0  0
  136.9480   78.4500  222.9650 O   0  0  0  0  0  0  0  0  0  0  0  0
  139.1720   78.2130  222.5180 N   0  0  0  0  0  0  0  0  0  0  0  0
  139.7510   78.3450  221.1770 C   0  0  0  0  0  0  0  0  0  0  0  0
  141.2490   78.3920  221.3470 C   0  0  2  0  0  0  0  0  0  0  0  0
  141.8480   77.3920  220.5860 O   0  0  0  0  0  0  0  0  0  0  0  0
  141.4440   78.1870  222.8390 C   0  0  2  0  0  0  0  0  0  0  0  0
  141.4270   76.8150  223.0700 O   0  0  0  0  0  0  0  0  0  0  0  0
  140.1430   78.7570  223.4060 C   0  0  1  0  0  0  0  0  0  0  0  0
  140.2030   80.2280  223.5530 C   0  0  0  0  0  0  0  0  0  0  0  0
  138.8790   80.9310  223.8460 C   0  0  0  0  0  0  0  0  0  0  0  0
  139.6870   81.2240  222.6220 C   0  0  0  0  0  0  0  0  0  0  0  0
  140.3870   74.0290  221.1850 C   0  0  0  0  0  0  0  0  0  0  0  0
  140.4760   72.6710  221.3540 C   0  0  0  0  0  0  0  0  0  0  0  0
  141.6730   72.0370  221.2310 C   0  0  0  0  0  0  0  0  0  0  0  0
  142.8250   72.7410  220.9340 C   0  0  0  0  0  0  0  0  0  0  0  0
  144.0460   72.1200  220.8050 C   0  0  0  0  0  0  0  0  0  0  0  0
  145.1570   72.8810  220.5080 C   0  0  0  0  0  0  0  0  0  0  0  0
  146.3500   72.2300  220.3880 F   0  0  0  0  0  0  0  0  0  0  0  0
  145.0600   74.2610  220.3370 C   0  0  0  0  0  0  0  0  0  0  0  0
  143.8310   74.8830  220.4670 C   0  0  0  0  0  0  0  0  0  0  0  0
  142.7210   74.1140  220.7650 C   0  0  0  0  0  0  0  0  0  0  0  0
  141.5230   74.7120  220.8930 N   0  0  0  0  0  0  0  0  0  0  0  0
  139.5800   75.4840  223.2200 H   0  0  0  0  0  0  0  0  0  0  0  0
  136.8856   76.0094  221.8362 H   0  0  0  0  0  0  0  0  0  0  0  0
  137.0577   75.8984  223.6010 H   0  0  0  0  0  0  0  0  0  0  0  0
  139.4680   77.4819  220.5565 H   0  0  0  0  0  0  0  0  0  0  0  0
  139.3835   79.2539  220.6781 H   0  0  0  0  0  0  0  0  0  0  0  0
  141.7098   79.3302  221.0043 H   0  0  0  0  0  0  0  0  0  0  0  0
  142.2530   76.7400  221.2260 H   0  0  0  0  0  0  0  0  0  0  0  0
  142.3623   78.6301  223.2519 H   0  0  0  0  0  0  0  0  0  0  0  0
  141.8380   76.3100  222.3380 H   0  0  0  0  0  0  0  0  0  0  0  0
  139.9007   78.4797  224.4425 H   0  0  0  0  0  0  0  0  0  0  0  0
  141.2065   80.1092  223.9875 H   0  0  0  0  0  0  0  0  0  0  0  0
  137.9286   80.3828  223.7672 H   0  0  0  0  0  0  0  0  0  0  0  0
  138.4615   81.5174  224.6777 H   0  0  0  0  0  0  0  0  0  0  0  0
  139.3157   80.9061  221.6366 H   0  0  0  0  0  0  0  0  0  0  0  0
  140.0992   82.1433  222.1804 H   0  0  0  0  0  0  0  0  0  0  0  0
  139.5724   72.0901  221.5908 H   0  0  0  0  0  0  0  0  0  0  0  0
  141.7252   70.9471  221.3700 H   0  0  0  0  0  0  0  0  0  0  0  0
  144.1347   71.0316  220.9369 H   0  0  0  0  0  0  0  0  0  0  0  0
  145.9564   74.8527  220.0998 H   0  0  0  0  0  0  0  0  0  0  0  0
  143.7384   75.9712  220.3355 H   0  0  0  0  0  0  0  0  0  0  0  0
  1  2  2  0
  2  3  1  0
  3  4  1  0
  4  5  1  0
  5  6  2  0
  5  7  1  0
  7  8  1  0
  8  9  1  0
  9 10  1  0
  9 11  1  0
 11 12  1  0
 11 13  1  0
 13 14  1  0
 14 15  1  0
 15 16  1  0
  2 17  1  0
 17 18  2  0
 18 19  1  0
 19 20  2  0
 20 21  1  0
 21 22  2  0
 22 23  1  0
 22 24  1  0
 24 25  2  0
 25 26  1  0
 26 27  2  0
 13  7  1  0
 16 14  1  0
 27 17  1  0
 26 20  1  0
  3 28  1  0
  4 29  1  0
  4 30  1  0
  8 31  1  0
  8 32  1  0
  9 33  1  6
 10 34  1  0
 11 35  1  1
 12 36  1  0
 13 37  1  1
 14 38  1  0
 15 39  1  0
 15 40  1  0
 16 41  1  0
 16 42  1  0
 18 43  1  0
 19 44  1  0
 21 45  1  0
 24 46  1  0
 25 47  1  0
M  END
>  <smiles>  (34) 
O=C(NCC(=O)N1C[C@H](O)[C@H](O)[C@H]1C1CC1)c1ccc2cc(F)ccc2n1

>  <score_type>  (34) 
oracle

>  <origin>  (34) 
autodockgpu

>  <m_score__min__energy>  (34) 
-7.7000000000000002

>  <m_primary>  (34) 
energy

>  <rmsd>  (34) 
6.015312776210672

>  <m_score__min__rmsd>  (34) 
6.015312776210672

>  <meeko>  (34) 
{"free_energy": -5.64, "intermolecular_energy": -7.73, "internal_energy": -4.82, "cluster_size": 24, "cluster_id": 4, "rank_in_cluster": 15}

>  <energy>  (34) 
-5.64

>  <cluster_rmsd>  (34) 
0.45

>  <cluster>  (34) 
4

$$$$

     RDKit          3D

 47 50  0  0  0  0  0  0  0  0999 V2000
  139.8890   71.4460  221.0450 O   0  0  0  0  0  0  0  0  0  0  0  0
  139.7730   72.0080  222.1690 C   0  0  0  0  0  0  0  0  0  0  0  0
  139.6730   73.4170  222.3310 N   0  0  0  0  0  0  0  0  0  0  0  0
  139.7010   74.3310  221.1760 C   0  0  0  0  0  0  0  0  0  0  0  0
  141.0960   74.6380  220.9180 C   0  0  0  0  0  0  0  0  0  0  0  0
  141.5150   75.8050  221.2440 O   0  0  0  0  0  0  0  0  0  0  0  0
  142.0680   73.7880  220.3340 N   0  0  0  0  0  0  0  0  0  0  0  0
  141.8490   73.1570  219.0280 C   0  0  0  0  0  0  0  0  0  0  0  0
  142.6930   71.9070  218.9960 C   0  0  2  0  0  0  0  0  0  0  0  0
  141.8950   70.8000  218.7180 O   0  0  0  0  0  0  0  0  0  0  0  0
  143.3010   71.8530  220.3860 C   0  0  2  0  0  0  0  0  0  0  0  0
  142.3690   71.2440  221.2200 O   0  0  0  0  0  0  0  0  0  0  0  0
  143.3470   73.3340  220.7660 C   0  0  1  0  0  0  0  0  0  0  0  0
  144.5440   74.0080  220.2160 C   0  0  0  0  0  0  0  0  0  0  0  0
  145.6730   73.0970  219.7410 C   0  0  0  0  0  0  0  0  0  0  0  0
  145.8610   74.1000  220.8350 C   0  0  0  0  0  0  0  0  0  0  0  0
  139.7420   71.1420  223.3640 C   0  0  0  0  0  0  0  0  0  0  0  0
  139.2210   69.8750  223.3160 C   0  0  0  0  0  0  0  0  0  0  0  0
  139.2020   69.0930  224.4290 C   0  0  0  0  0  0  0  0  0  0  0  0
  139.7050   69.5530  225.6310 C   0  0  0  0  0  0  0  0  0  0  0  0
  139.6970   68.7810  226.7690 C   0  0  0  0  0  0  0  0  0  0  0  0
  140.2140   69.3000  227.9370 C   0  0  0  0  0  0  0  0  0  0  0  0
  140.1880   68.5030  229.0440 F   0  0  0  0  0  0  0  0  0  0  0  0
  140.7430   70.5890  227.9790 C   0  0  0  0  0  0  0  0  0  0  0  0
  140.7510   71.3650  226.8340 C   0  0  0  0  0  0  0  0  0  0  0  0
  140.2300   70.8370  225.6660 C   0  0  0  0  0  0  0  0  0  0  0  0
  140.2340   71.5850  224.5480 N   0  0  0  0  0  0  0  0  0  0  0  0
  139.5810   73.7650  223.3090 H   0  0  0  0  0  0  0  0  0  0  0  0
  139.2514   73.8450  220.2975 H   0  0  0  0  0  0  0  0  0  0  0  0
  139.1271   75.2463  221.3829 H   0  0  0  0  0  0  0  0  0  0  0  0
  140.7866   72.8989  218.9064 H   0  0  0  0  0  0  0  0  0  0  0  0
  142.1259   73.8391  218.2107 H   0  0  0  0  0  0  0  0  0  0  0  0
  143.4680   71.9090  218.2154 H   0  0  0  0  0  0  0  0  0  0  0  0
  141.2170   70.7360  219.4490 H   0  0  0  0  0  0  0  0  0  0  0  0
  144.2657   71.3282  220.4487 H   0  0  0  0  0  0  0  0  0  0  0  0
  141.4840   71.1790  220.8030 H   0  0  0  0  0  0  0  0  0  0  0  0
  143.4848   73.5583  221.8340 H   0  0  0  0  0  0  0  0  0  0  0  0
  143.8801   74.7955  219.8299 H   0  0  0  0  0  0  0  0  0  0  0  0
  145.6534   72.0212  219.9698 H   0  0  0  0  0  0  0  0  0  0  0  0
  146.1588   72.8746  218.7795 H   0  0  0  0  0  0  0  0  0  0  0  0
  146.0005   73.7556  221.8704 H   0  0  0  0  0  0  0  0  0  0  0  0
  146.5707   74.9233  221.0038 H   0  0  0  0  0  0  0  0  0  0  0  0
  138.8150   69.4875  222.3699 H   0  0  0  0  0  0  0  0  0  0  0  0
  138.7797   68.0789  224.3712 H   0  0  0  0  0  0  0  0  0  0  0  0
  139.2833   67.7620  226.7477 H   0  0  0  0  0  0  0  0  0  0  0  0
  141.1524   70.9875  228.9190 H   0  0  0  0  0  0  0  0  0  0  0  0
  141.1644   72.3842  226.8517 H   0  0  0  0  0  0  0  0  0  0  0  0
  1  2  2  0
  2  3  1  0
  3  4  1  0
  4  5  1  0
  5  6  2  0
  5  7  1  0
  7  8  1  0
  8  9  1  0
  9 10  1  0
  9 11  1  0
 11 12  1  0
 11 13  1  0
 13 14  1  0
 14 15  1  0
 15 16  1  0
  2 17  1  0
 17 18  2  0
 18 19  1  0
 19 20  2  0
 20 21  1  0
 21 22  2  0
 22 23  1  0
 22 24  1  0
 24 25  2  0
 25 26  1  0
 26 27  2  0
 13  7  1  0
 16 14  1  0
 27 17  1  0
 26 20  1  0
  3 28  1  0
  4 29  1  0
  4 30  1  0
  8 31  1  0
  8 32  1  0
  9 33  1  6
 10 34  1  0
 11 35  1  6
 12 36  1  0
 13 37  1  1
 14 38  1  0
 15 39  1  0
 15 40  1  0
 16 41  1  0
 16 42  1  0
 18 43  1  0
 19 44  1  0
 21 45  1  0
 24 46  1  0
 25 47  1  0
M  END
>  <smiles>  (35) 
O=C(NCC(=O)N1C[C@H](O)[C@H](O)[C@H]1C1CC1)c1ccc2cc(F)ccc2n1

>  <score_type>  (35) 
oracle

>  <origin>  (35) 
autodockgpu

>  <m_score__min__energy>  (35) 
-7.7000000000000002

>  <m_primary>  (35) 
energy

>  <rmsd>  (35) 
2.8997220206280163

>  <m_score__min__rmsd>  (35) 
2.8997220206280163

>  <meeko>  (35) 
{"free_energy": -6.07, "intermolecular_energy": -8.16, "internal_energy": -4.24, "cluster_size": 11, "cluster_id": 1, "rank_in_cluster": 11}

>  <energy>  (35) 
-5.64

>  <cluster_rmsd>  (35) 
0.41

>  <cluster>  (35) 
4

$$$$

     RDKit          3D

 47 50  0  0  0  0  0  0  0  0999 V2000
  138.3820   74.8600  220.3150 O   0  0  0  0  0  0  0  0  0  0  0  0
  139.1570   74.8470  221.3110 C   0  0  0  0  0  0  0  0  0  0  0  0
  138.8590   75.4970  222.5390 N   0  0  0  0  0  0  0  0  0  0  0  0
  137.6050   76.2450  222.7330 C   0  0  0  0  0  0  0  0  0  0  0  0
  137.9120   77.6450  222.5020 C   0  0  0  0  0  0  0  0  0  0  0  0
  136.9260   78.4570  222.3970 O   0  0  0  0  0  0  0  0  0  0  0  0
  139.1950   78.2310  222.3720 N   0  0  0  0  0  0  0  0  0  0  0  0
  139.8420   78.3790  221.0640 C   0  0  0  0  0  0  0  0  0  0  0  0
  141.3300   78.4200  221.3100 C   0  0  2  0  0  0  0  0  0  0  0  0
  141.9650   77.4280  220.5670 O   0  0  0  0  0  0  0  0  0  0  0  0
  141.4490   78.1960  222.8070 C   0  0  2  0  0  0  0  0  0  0  0  0
  141.4170   76.8210  223.0200 O   0  0  0  0  0  0  0  0  0  0  0  0
  140.1210   78.7610  223.3150 C   0  0  1  0  0  0  0  0  0  0  0  0
  140.1760   80.2310  223.4840 C   0  0  0  0  0  0  0  0  0  0  0  0
  138.8660   80.9160  223.8640 C   0  0  0  0  0  0  0  0  0  0  0  0
  139.6000   81.2370  222.6010 C   0  0  0  0  0  0  0  0  0  0  0  0
  140.4300   74.1130  221.1740 C   0  0  0  0  0  0  0  0  0  0  0  0
  140.4940   72.7530  221.3270 C   0  0  0  0  0  0  0  0  0  0  0  0
  141.6780   72.0970  221.1970 C   0  0  0  0  0  0  0  0  0  0  0  0
  142.8430   72.7810  220.9070 C   0  0  0  0  0  0  0  0  0  0  0  0
  144.0510   72.1390  220.7700 C   0  0  0  0  0  0  0  0  0  0  0  0
  145.1770   72.8820  220.4810 C   0  0  0  0  0  0  0  0  0  0  0  0
  146.3570   72.2080  220.3530 F   0  0  0  0  0  0  0  0  0  0  0  0
  145.1070   74.2650  220.3260 C   0  0  0  0  0  0  0  0  0  0  0  0
  143.8910   74.9090  220.4640 C   0  0  0  0  0  0  0  0  0  0  0  0
  142.7660   74.1580  220.7540 C   0  0  0  0  0  0  0  0  0  0  0  0
  141.5790   74.7770  220.8890 N   0  0  0  0  0  0  0  0  0  0  0  0
  139.5760   75.4160  223.2910 H   0  0  0  0  0  0  0  0  0  0  0  0
  136.8441   75.9010  222.0170 H   0  0  0  0  0  0  0  0  0  0  0  0
  137.2057   76.0903  223.7462 H   0  0  0  0  0  0  0  0  0  0  0  0
  139.5892   77.5248  220.4187 H   0  0  0  0  0  0  0  0  0  0  0  0
  139.5021   79.2954  220.5594 H   0  0  0  0  0  0  0  0  0  0  0  0
  141.8095   79.3612  221.0030 H   0  0  0  0  0  0  0  0  0  0  0  0
  142.3570   76.7810  221.2190 H   0  0  0  0  0  0  0  0  0  0  0  0
  142.3462   78.6321  223.2706 H   0  0  0  0  0  0  0  0  0  0  0  0
  141.9420   76.3300  222.3540 H   0  0  0  0  0  0  0  0  0  0  0  0
  139.8260   78.4701  224.3340 H   0  0  0  0  0  0  0  0  0  0  0  0
  141.2035   80.1145  223.8590 H   0  0  0  0  0  0  0  0  0  0  0  0
  137.9173   80.3602  223.8303 H   0  0  0  0  0  0  0  0  0  0  0  0
  138.4919   81.4845  224.7282 H   0  0  0  0  0  0  0  0  0  0  0  0
  139.1757   80.9320  221.6330 H   0  0  0  0  0  0  0  0  0  0  0  0
  139.9786   82.1672  222.1522 H   0  0  0  0  0  0  0  0  0  0  0  0
  139.5795   72.1867  221.5570 H   0  0  0  0  0  0  0  0  0  0  0  0
  141.7088   71.0049  221.3247 H   0  0  0  0  0  0  0  0  0  0  0  0
  144.1188   71.0476  220.8892 H   0  0  0  0  0  0  0  0  0  0  0  0
  146.0147   74.8418  220.0950 H   0  0  0  0  0  0  0  0  0  0  0  0
  143.8195   76.0002  220.3452 H   0  0  0  0  0  0  0  0  0  0  0  0
  1  2  2  0
  2  3  1  0
  3  4  1  0
  4  5  1  0
  5  6  2  0
  5  7  1  0
  7  8  1  0
  8  9  1  0
  9 10  1  0
  9 11  1  0
 11 12  1  0
 11 13  1  0
 13 14  1  0
 14 15  1  0
 15 16  1  0
  2 17  1  0
 17 18  2  0
 18 19  1  0
 19 20  2  0
 20 21  1  0
 21 22  2  0
 22 23  1  0
 22 24  1  0
 24 25  2  0
 25 26  1  0
 26 27  2  0
 13  7  1  0
 16 14  1  0
 27 17  1  0
 26 20  1  0
  3 28  1  0
  4 29  1  0
  4 30  1  0
  8 31  1  0
  8 32  1  0
  9 33  1  1
 10 34  1  0
 11 35  1  1
 12 36  1  0
 13 37  1  1
 14 38  1  0
 15 39  1  0
 15 40  1  0
 16 41  1  0
 16 42  1  0
 18 43  1  0
 19 44  1  0
 21 45  1  0
 24 46  1  0
 25 47  1  0
M  END
>  <smiles>  (36) 
O=C(NCC(=O)N1C[C@H](O)[C@H](O)[C@H]1C1CC1)c1ccc2cc(F)ccc2n1

>  <score_type>  (36) 
oracle

>  <origin>  (36) 
autodockgpu

>  <m_score__min__energy>  (36) 
-7.7000000000000002

>  <m_primary>  (36) 
energy

>  <rmsd>  (36) 
6.0332464364664595

>  <m_score__min__rmsd>  (36) 
6.0332464364664595

>  <meeko>  (36) 
{"free_energy": -5.7, "intermolecular_energy": -7.78, "internal_energy": -4.82, "cluster_size": 24, "cluster_id": 4, "rank_in_cluster": 7}

>  <energy>  (36) 
-5.64

>  <cluster_rmsd>  (36) 
0.44

>  <cluster>  (36) 
4

$$$$

     RDKit          3D

 47 50  0  0  0  0  0  0  0  0999 V2000
  139.6930   73.4740  222.3250 O   0  0  0  0  0  0  0  0  0  0  0  0
  140.3630   72.4040  222.3400 C   0  0  0  0  0  0  0  0  0  0  0  0
  141.2550   72.0280  221.3000 N   0  0  0  0  0  0  0  0  0  0  0  0
  141.4580   72.8740  220.1120 C   0  0  0  0  0  0  0  0  0  0  0  0
  141.8670   74.1820  220.5940 C   0  0  0  0  0  0  0  0  0  0  0  0
  143.0990   74.3370  220.9120 O   0  0  0  0  0  0  0  0  0  0  0  0
  141.0510   75.3280  220.7600 N   0  0  0  0  0  0  0  0  0  0  0  0
  140.8850   75.9680  222.0690 C   0  0  0  0  0  0  0  0  0  0  0  0
  139.5590   76.6860  222.0440 C   0  0  2  0  0  0  0  0  0  0  0  0
  138.7610   76.2510  223.1000 O   0  0  0  0  0  0  0  0  0  0  0  0
  138.9830   76.3210  220.6880 C   0  0  2  0  0  0  0  0  0  0  0  0
  138.3520   75.0890  220.8280 O   0  0  0  0  0  0  0  0  0  0  0  0
  140.2490   76.0880  219.8620 C   0  0  1  0  0  0  0  0  0  0  0  0
  140.8060   77.3550  219.3370 C   0  0  0  0  0  0  0  0  0  0  0  0
  142.2830   77.3360  218.9540 C   0  0  0  0  0  0  0  0  0  0  0  0
  141.7430   78.2470  220.0100 C   0  0  0  0  0  0  0  0  0  0  0  0
  140.1990   71.5140  223.5060 C   0  0  0  0  0  0  0  0  0  0  0  0
  139.5880   70.2920  223.3940 C   0  0  0  0  0  0  0  0  0  0  0  0
  139.4470   69.4880  224.4810 C   0  0  0  0  0  0  0  0  0  0  0  0
  139.9140   69.8790  225.7220 C   0  0  0  0  0  0  0  0  0  0  0  0
  139.7820   69.0820  226.8350 C   0  0  0  0  0  0  0  0  0  0  0  0
  140.2700   69.5320  228.0440 C   0  0  0  0  0  0  0  0  0  0  0  0
  140.1210   68.7120  229.1250 F   0  0  0  0  0  0  0  0  0  0  0  0
  140.8900   70.7750  228.1520 C   0  0  0  0  0  0  0  0  0  0  0  0
  141.0220   71.5750  227.0320 C   0  0  0  0  0  0  0  0  0  0  0  0
  140.5300   71.1170  225.8220 C   0  0  0  0  0  0  0  0  0  0  0  0
  140.6550   71.8900  224.7280 N   0  0  0  0  0  0  0  0  0  0  0  0
  141.7540   71.1210  221.4240 H   0  0  0  0  0  0  0  0  0  0  0  0
  142.2417   72.4446  219.4706 H   0  0  0  0  0  0  0  0  0  0  0  0
  140.5370   72.9434  219.5145 H   0  0  0  0  0  0  0  0  0  0  0  0
  140.8881   75.2079  222.8642 H   0  0  0  0  0  0  0  0  0  0  0  0
  141.7077   76.6700  222.2698 H   0  0  0  0  0  0  0  0  0  0  0  0
  139.6364   77.7760  222.1700 H   0  0  0  0  0  0  0  0  0  0  0  0
  138.6760   75.2600  223.0130 H   0  0  0  0  0  0  0  0  0  0  0  0
  138.2848   77.0597  220.2675 H   0  0  0  0  0  0  0  0  0  0  0  0
  138.6020   74.6350  221.6600 H   0  0  0  0  0  0  0  0  0  0  0  0
  140.1196   75.5389  218.9177 H   0  0  0  0  0  0  0  0  0  0  0  0
  139.8233   77.5594  218.8870 H   0  0  0  0  0  0  0  0  0  0  0  0
  142.9179   76.4808  219.2287 H   0  0  0  0  0  0  0  0  0  0  0  0
  142.8612   77.4559  218.0259 H   0  0  0  0  0  0  0  0  0  0  0  0
  142.0005   78.0699  221.0647 H   0  0  0  0  0  0  0  0  0  0  0  0
  141.7803   79.3340  220.1742 H   0  0  0  0  0  0  0  0  0  0  0  0
  139.2087   69.9593  222.4165 H   0  0  0  0  0  0  0  0  0  0  0  0
  138.9536   68.5110  224.3714 H   0  0  0  0  0  0  0  0  0  0  0  0
  139.2938   68.0990  226.7620 H   0  0  0  0  0  0  0  0  0  0  0  0
  141.2729   71.1185  229.1243 H   0  0  0  0  0  0  0  0  0  0  0  0
  141.5097   72.5586  227.1014 H   0  0  0  0  0  0  0  0  0  0  0  0
  1  2  2  0
  2  3  1  0
  3  4  1  0
  4  5  1  0
  5  6  2  0
  5  7  1  0
  7  8  1  0
  8  9  1  0
  9 10  1  0
  9 11  1  0
 11 12  1  0
 11 13  1  0
 13 14  1  0
 14 15  1  0
 15 16  1  0
  2 17  1  0
 17 18  2  0
 18 19  1  0
 19 20  2  0
 20 21  1  0
 21 22  2  0
 22 23  1  0
 22 24  1  0
 24 25  2  0
 25 26  1  0
 26 27  2  0
 13  7  1  0
 16 14  1  0
 27 17  1  0
 26 20  1  0
  3 28  1  0
  4 29  1  0
  4 30  1  0
  8 31  1  0
  8 32  1  0
  9 33  1  6
 10 34  1  0
 11 35  1  6
 12 36  1  0
 13 37  1  6
 14 38  1  0
 15 39  1  0
 15 40  1  0
 16 41  1  0
 16 42  1  0
 18 43  1  0
 19 44  1  0
 21 45  1  0
 24 46  1  0
 25 47  1  0
M  END
>  <smiles>  (37) 
O=C(NCC(=O)N1C[C@H](O)[C@H](O)[C@H]1C1CC1)c1ccc2cc(F)ccc2n1

>  <score_type>  (37) 
oracle

>  <origin>  (37) 
autodockgpu

>  <m_score__min__energy>  (37) 
-7.7000000000000002

>  <m_primary>  (37) 
energy

>  <rmsd>  (37) 
2.9924753924235343

>  <m_score__min__rmsd>  (37) 
2.9924753924235343

>  <meeko>  (37) 
{"free_energy": -6.26, "intermolecular_energy": -8.35, "internal_energy": -3.82, "cluster_size": 6, "cluster_id": 3, "rank_in_cluster": 3}

>  <energy>  (37) 
-5.63

>  <cluster_rmsd>  (37) 
0.4

>  <cluster>  (37) 
4

$$$$

     RDKit          3D

 47 50  0  0  0  0  0  0  0  0999 V2000
  138.4590   75.0310  220.2920 O   0  0  0  0  0  0  0  0  0  0  0  0
  139.1980   74.9200  221.3100 C   0  0  0  0  0  0  0  0  0  0  0  0
  138.8770   75.4860  222.5730 N   0  0  0  0  0  0  0  0  0  0  0  0
  137.6380   76.2560  222.7820 C   0  0  0  0  0  0  0  0  0  0  0  0
  137.9330   77.6310  222.4200 C   0  0  0  0  0  0  0  0  0  0  0  0
  136.9420   78.3990  222.1560 O   0  0  0  0  0  0  0  0  0  0  0  0
  139.2100   78.2360  222.3190 N   0  0  0  0  0  0  0  0  0  0  0  0
  139.8790   78.4050  221.0250 C   0  0  0  0  0  0  0  0  0  0  0  0
  141.3610   78.4640  221.2980 C   0  0  2  0  0  0  0  0  0  0  0  0
  142.0220   77.4870  220.5580 O   0  0  0  0  0  0  0  0  0  0  0  0
  141.4560   78.2270  222.7950 C   0  0  2  0  0  0  0  0  0  0  0  0
  141.4390   76.8500  222.9940 O   0  0  0  0  0  0  0  0  0  0  0  0
  140.1120   78.7690  223.2840 C   0  0  1  0  0  0  0  0  0  0  0  0
  140.1440   80.2380  223.4670 C   0  0  0  0  0  0  0  0  0  0  0  0
  138.8370   80.8910  223.9110 C   0  0  0  0  0  0  0  0  0  0  0  0
  139.5090   81.2420  222.6220 C   0  0  0  0  0  0  0  0  0  0  0  0
  140.4550   74.1600  221.1590 C   0  0  0  0  0  0  0  0  0  0  0  0
  140.4870   72.7960  221.2910 C   0  0  0  0  0  0  0  0  0  0  0  0
  141.6550   72.1160  221.1490 C   0  0  0  0  0  0  0  0  0  0  0  0
  142.8360   72.7780  220.8690 C   0  0  0  0  0  0  0  0  0  0  0  0
  144.0290   72.1100  220.7200 C   0  0  0  0  0  0  0  0  0  0  0  0
  145.1710   72.8320  220.4420 C   0  0  0  0  0  0  0  0  0  0  0  0
  146.3360   72.1340  220.3010 F   0  0  0  0  0  0  0  0  0  0  0  0
  145.1330   74.2180  220.3090 C   0  0  0  0  0  0  0  0  0  0  0  0
  143.9310   74.8880  220.4580 C   0  0  0  0  0  0  0  0  0  0  0  0
  142.7900   74.1580  220.7380 C   0  0  0  0  0  0  0  0  0  0  0  0
  141.6180   74.8020  220.8840 N   0  0  0  0  0  0  0  0  0  0  0  0
  139.5640   75.3280  223.3400 H   0  0  0  0  0  0  0  0  0  0  0  0
  136.8340   75.8605  222.1439 H   0  0  0  0  0  0  0  0  0  0  0  0
  137.3012   76.1863  223.8269 H   0  0  0  0  0  0  0  0  0  0  0  0
  139.6498   77.5535  220.3674 H   0  0  0  0  0  0  0  0  0  0  0  0
  139.5360   79.3217  220.5230 H   0  0  0  0  0  0  0  0  0  0  0  0
  141.8331   79.4144  221.0084 H   0  0  0  0  0  0  0  0  0  0  0  0
  142.3660   76.8110  221.2070 H   0  0  0  0  0  0  0  0  0  0  0  0
  142.3386   78.6705  223.2791 H   0  0  0  0  0  0  0  0  0  0  0  0
  141.9780   76.3710  222.3300 H   0  0  0  0  0  0  0  0  0  0  0  0
  139.8030   78.4641  224.2947 H   0  0  0  0  0  0  0  0  0  0  0  0
  141.1892   80.1391  223.7953 H   0  0  0  0  0  0  0  0  0  0  0  0
  137.8995   80.3156  223.9110 H   0  0  0  0  0  0  0  0  0  0  0  0
  138.4887   81.4416  224.7973 H   0  0  0  0  0  0  0  0  0  0  0  0
  139.0498   80.9392  221.6694 H   0  0  0  0  0  0  0  0  0  0  0  0
  139.8484   82.1852  222.1691 H   0  0  0  0  0  0  0  0  0  0  0  0
  139.5599   72.2475  221.5136 H   0  0  0  0  0  0  0  0  0  0  0  0
  141.6609   71.0215  221.2586 H   0  0  0  0  0  0  0  0  0  0  0  0
  144.0718   71.0155  220.8211 H   0  0  0  0  0  0  0  0  0  0  0  0
  146.0537   74.7774  220.0867 H   0  0  0  0  0  0  0  0  0  0  0  0
  143.8840   75.9822  220.3555 H   0  0  0  0  0  0  0  0  0  0  0  0
  1  2  2  0
  2  3  1  0
  3  4  1  0
  4  5  1  0
  5  6  2  0
  5  7  1  0
  7  8  1  0
  8  9  1  0
  9 10  1  0
  9 11  1  0
 11 12  1  0
 11 13  1  0
 13 14  1  0
 14 15  1  0
 15 16  1  0
  2 17  1  0
 17 18  2  0
 18 19  1  0
 19 20  2  0
 20 21  1  0
 21 22  2  0
 22 23  1  0
 22 24  1  0
 24 25  2  0
 25 26  1  0
 26 27  2  0
 13  7  1  0
 16 14  1  0
 27 17  1  0
 26 20  1  0
  3 28  1  0
  4 29  1  0
  4 30  1  0
  8 31  1  0
  8 32  1  0
  9 33  1  1
 10 34  1  0
 11 35  1  1
 12 36  1  0
 13 37  1  1
 14 38  1  0
 15 39  1  0
 15 40  1  0
 16 41  1  0
 16 42  1  0
 18 43  1  0
 19 44  1  0
 21 45  1  0
 24 46  1  0
 25 47  1  0
M  END
>  <smiles>  (38) 
O=C(NCC(=O)N1C[C@H](O)[C@H](O)[C@H]1C1CC1)c1ccc2cc(F)ccc2n1

>  <score_type>  (38) 
oracle

>  <origin>  (38) 
autodockgpu

>  <m_score__min__energy>  (38) 
-7.7000000000000002

>  <m_primary>  (38) 
energy

>  <rmsd>  (38) 
6.0431108186802485

>  <m_score__min__rmsd>  (38) 
6.0431108186802485

>  <meeko>  (38) 
{"free_energy": -5.78, "intermolecular_energy": -7.87, "internal_energy": -4.71, "cluster_size": 24, "cluster_id": 4, "rank_in_cluster": 4}

>  <energy>  (38) 
-5.63

>  <cluster_rmsd>  (38) 
0.4

>  <cluster>  (38) 
4

$$$$

     RDKit          3D

 47 50  0  0  0  0  0  0  0  0999 V2000
  140.3280   74.4810  222.1900 O   0  0  0  0  0  0  0  0  0  0  0  0
  140.5230   73.3280  221.7170 C   0  0  0  0  0  0  0  0  0  0  0  0
  140.9440   73.0930  220.3800 N   0  0  0  0  0  0  0  0  0  0  0  0
  141.1820   74.2020  219.4390 C   0  0  0  0  0  0  0  0  0  0  0  0
  142.5920   74.1630  219.0940 C   0  0  0  0  0  0  0  0  0  0  0  0
  142.9930   74.9370  218.1550 O   0  0  0  0  0  0  0  0  0  0  0  0
  143.5960   73.3540  219.6810 N   0  0  0  0  0  0  0  0  0  0  0  0
  144.3550   73.8030  220.8530 C   0  0  0  0  0  0  0  0  0  0  0  0
  145.6750   73.0750  220.8290 C   0  0  2  0  0  0  0  0  0  0  0  0
  146.7250   73.9900  220.8540 O   0  0  0  0  0  0  0  0  0  0  0  0
  145.6210   72.2830  219.5350 C   0  0  2  0  0  0  0  0  0  0  0  0
  146.0330   73.1350  218.5150 O   0  0  0  0  0  0  0  0  0  0  0  0
  144.1170   72.0670  219.3630 C   0  0  1  0  0  0  0  0  0  0  0  0
  143.6320   70.9090  220.1470 C   0  0  0  0  0  0  0  0  0  0  0  0
  144.1160   69.5350  219.6890 C   0  0  0  0  0  0  0  0  0  0  0  0
  142.6670   69.9030  219.7200 C   0  0  0  0  0  0  0  0  0  0  0  0
  140.2970   72.1770  222.6130 C   0  0  0  0  0  0  0  0  0  0  0  0
  139.6900   71.0310  222.1700 C   0  0  0  0  0  0  0  0  0  0  0  0
  139.4920   69.9830  223.0120 C   0  0  0  0  0  0  0  0  0  0  0  0
  139.8960   70.0440  224.3330 C   0  0  0  0  0  0  0  0  0  0  0  0
  139.7070   68.9960  225.2030 C   0  0  0  0  0  0  0  0  0  0  0  0
  140.1340   69.1230  226.5080 C   0  0  0  0  0  0  0  0  0  0  0  0
  139.9280   68.0610  227.3410 F   0  0  0  0  0  0  0  0  0  0  0  0
  140.7510   70.2900  226.9540 C   0  0  0  0  0  0  0  0  0  0  0  0
  140.9410   71.3430  226.0780 C   0  0  0  0  0  0  0  0  0  0  0  0
  140.5100   71.2090  224.7700 C   0  0  0  0  0  0  0  0  0  0  0  0
  140.6920   72.2280  223.9110 N   0  0  0  0  0  0  0  0  0  0  0  0
  141.0720   72.0970  220.1030 H   0  0  0  0  0  0  0  0  0  0  0  0
  140.5673   74.0713  218.5362 H   0  0  0  0  0  0  0  0  0  0  0  0
  140.9123   75.1681  219.8906 H   0  0  0  0  0  0  0  0  0  0  0  0
  144.5216   74.8891  220.8017 H   0  0  0  0  0  0  0  0  0  0  0  0
  143.8057   73.5892  221.7818 H   0  0  0  0  0  0  0  0  0  0  0  0
  145.8418   72.4198  221.6967 H   0  0  0  0  0  0  0  0  0  0  0  0
  146.6560   74.5380  220.0210 H   0  0  0  0  0  0  0  0  0  0  0  0
  146.2248   71.3635  219.5287 H   0  0  0  0  0  0  0  0  0  0  0  0
  146.0290   74.0760  218.7910 H   0  0  0  0  0  0  0  0  0  0  0  0
  143.7810   71.7630  218.3607 H   0  0  0  0  0  0  0  0  0  0  0  0
  143.6457   71.5513  221.0399 H   0  0  0  0  0  0  0  0  0  0  0  0
  144.6408   69.4216  218.7289 H   0  0  0  0  0  0  0  0  0  0  0  0
  144.7380   68.7332  220.1135 H   0  0  0  0  0  0  0  0  0  0  0  0
  142.1206   70.0403  218.7752 H   0  0  0  0  0  0  0  0  0  0  0  0
  141.7745   69.4555  220.1817 H   0  0  0  0  0  0  0  0  0  0  0  0
  139.3600   70.9588  221.1231 H   0  0  0  0  0  0  0  0  0  0  0  0
  139.0028   69.0720  222.6369 H   0  0  0  0  0  0  0  0  0  0  0  0
  139.2219   68.0692  224.8627 H   0  0  0  0  0  0  0  0  0  0  0  0
  141.0856   70.3733  227.9986 H   0  0  0  0  0  0  0  0  0  0  0  0
  141.4262   72.2709  226.4151 H   0  0  0  0  0  0  0  0  0  0  0  0
  1  2  2  0
  2  3  1  0
  3  4  1  0
  4  5  1  0
  5  6  2  0
  5  7  1  0
  7  8  1  0
  8  9  1  0
  9 10  1  0
  9 11  1  0
 11 12  1  0
 11 13  1  0
 13 14  1  0
 14 15  1  0
 15 16  1  0
  2 17  1  0
 17 18  2  0
 18 19  1  0
 19 20  2  0
 20 21  1  0
 21 22  2  0
 22 23  1  0
 22 24  1  0
 24 25  2  0
 25 26  1  0
 26 27  2  0
 13  7  1  0
 16 14  1  0
 27 17  1  0
 26 20  1  0
  3 28  1  0
  4 29  1  0
  4 30  1  0
  8 31  1  0
  8 32  1  0
  9 33  1  1
 10 34  1  0
 11 35  1  1
 12 36  1  0
 13 37  1  6
 14 38  1  0
 15 39  1  0
 15 40  1  0
 16 41  1  0
 16 42  1  0
 18 43  1  0
 19 44  1  0
 21 45  1  0
 24 46  1  0
 25 47  1  0
M  END
>  <smiles>  (39) 
O=C(NCC(=O)N1C[C@H](O)[C@H](O)[C@H]1C1CC1)c1ccc2cc(F)ccc2n1

>  <score_type>  (39) 
oracle

>  <origin>  (39) 
autodockgpu

>  <m_score__min__energy>  (39) 
-7.7000000000000002

>  <m_primary>  (39) 
energy

>  <rmsd>  (39) 
4.196766547169824

>  <m_score__min__rmsd>  (39) 
4.196766547169824

>  <meeko>  (39) 
{"free_energy": -7.31, "intermolecular_energy": -9.4, "internal_energy": -2.93, "cluster_size": 11, "cluster_id": 1, "rank_in_cluster": 7}

>  <energy>  (39) 
-5.6

>  <cluster_rmsd>  (39) 
0.45

>  <cluster>  (39) 
4

$$$$

     RDKit          3D

 47 50  0  0  0  0  0  0  0  0999 V2000
  138.2680   74.6550  220.3740 O   0  0  0  0  0  0  0  0  0  0  0  0
  139.0890   74.7300  221.3300 C   0  0  0  0  0  0  0  0  0  0  0  0
  138.8360   75.4600  222.5220 N   0  0  0  0  0  0  0  0  0  0  0  0
  137.5750   76.1950  222.7240 C   0  0  0  0  0  0  0  0  0  0  0  0
  137.8820   77.6050  222.5710 C   0  0  0  0  0  0  0  0  0  0  0  0
  136.8990   78.4280  222.5720 O   0  0  0  0  0  0  0  0  0  0  0  0
  139.1620   78.1920  222.4150 N   0  0  0  0  0  0  0  0  0  0  0  0
  139.7840   78.3330  221.0940 C   0  0  0  0  0  0  0  0  0  0  0  0
  141.2760   78.3770  221.3130 C   0  0  2  0  0  0  0  0  0  0  0  0
  141.8980   77.3820  220.5630 O   0  0  0  0  0  0  0  0  0  0  0  0
  141.4230   78.1600  222.8080 C   0  0  2  0  0  0  0  0  0  0  0  0
  141.3970   76.7860  223.0280 O   0  0  0  0  0  0  0  0  0  0  0  0
  140.1050   78.7270  223.3380 C   0  0  1  0  0  0  0  0  0  0  0  0
  140.1620   80.1970  223.4990 C   0  0  0  0  0  0  0  0  0  0  0  0
  138.8500   80.8870  223.8650 C   0  0  0  0  0  0  0  0  0  0  0  0
  139.5940   81.2000  222.6060 C   0  0  0  0  0  0  0  0  0  0  0  0
  140.3720   74.0150  221.1820 C   0  0  0  0  0  0  0  0  0  0  0  0
  140.4540   72.6540  221.3250 C   0  0  0  0  0  0  0  0  0  0  0  0
  141.6460   72.0150  221.1850 C   0  0  0  0  0  0  0  0  0  0  0  0
  142.8010   72.7170  220.8960 C   0  0  0  0  0  0  0  0  0  0  0  0
  144.0180   72.0920  220.7490 C   0  0  0  0  0  0  0  0  0  0  0  0
  145.1320   72.8520  220.4620 C   0  0  0  0  0  0  0  0  0  0  0  0
  146.3210   72.1960  220.3230 F   0  0  0  0  0  0  0  0  0  0  0  0
  145.0430   74.2350  220.3170 C   0  0  0  0  0  0  0  0  0  0  0  0
  143.8190   74.8620  220.4640 C   0  0  0  0  0  0  0  0  0  0  0  0
  142.7050   74.0940  220.7530 C   0  0  0  0  0  0  0  0  0  0  0  0
  141.5110   74.6960  220.8980 N   0  0  0  0  0  0  0  0  0  0  0  0
  139.5890   75.4480  223.2420 H   0  0  0  0  0  0  0  0  0  0  0  0
  136.8322   75.8857  221.9740 H   0  0  0  0  0  0  0  0  0  0  0  0
  137.1531   75.9888  223.7187 H   0  0  0  0  0  0  0  0  0  0  0  0
  139.5204   77.4747  220.4585 H   0  0  0  0  0  0  0  0  0  0  0  0
  139.4336   79.2457  220.5898 H   0  0  0  0  0  0  0  0  0  0  0  0
  141.7486   79.3175  220.9934 H   0  0  0  0  0  0  0  0  0  0  0  0
  142.2680   76.7160  221.2100 H   0  0  0  0  0  0  0  0  0  0  0  0
  142.3283   78.5987  223.2530 H   0  0  0  0  0  0  0  0  0  0  0  0
  141.8660   76.2880  222.3260 H   0  0  0  0  0  0  0  0  0  0  0  0
  139.8295   78.4411  224.3638 H   0  0  0  0  0  0  0  0  0  0  0  0
  141.1865   80.0804  223.8822 H   0  0  0  0  0  0  0  0  0  0  0  0
  137.9005   80.3329  223.8270 H   0  0  0  0  0  0  0  0  0  0  0  0
  138.4705   81.4609  224.7232 H   0  0  0  0  0  0  0  0  0  0  0  0
  139.1764   80.8907  221.6365 H   0  0  0  0  0  0  0  0  0  0  0  0
  139.9776   82.1271  222.1552 H   0  0  0  0  0  0  0  0  0  0  0  0
  139.5480   72.0741  221.5549 H   0  0  0  0  0  0  0  0  0  0  0  0
  141.6918   70.9224  221.3036 H   0  0  0  0  0  0  0  0  0  0  0  0
  144.1010   71.0007  220.8590 H   0  0  0  0  0  0  0  0  0  0  0  0
  145.9421   74.8254  220.0867 H   0  0  0  0  0  0  0  0  0  0  0  0
  143.7326   75.9530  220.3530 H   0  0  0  0  0  0  0  0  0  0  0  0
  1  2  2  0
  2  3  1  0
  3  4  1  0
  4  5  1  0
  5  6  2  0
  5  7  1  0
  7  8  1  0
  8  9  1  0
  9 10  1  0
  9 11  1  0
 11 12  1  0
 11 13  1  0
 13 14  1  0
 14 15  1  0
 15 16  1  0
  2 17  1  0
 17 18  2  0
 18 19  1  0
 19 20  2  0
 20 21  1  0
 21 22  2  0
 22 23  1  0
 22 24  1  0
 24 25  2  0
 25 26  1  0
 26 27  2  0
 13  7  1  0
 16 14  1  0
 27 17  1  0
 26 20  1  0
  3 28  1  0
  4 29  1  0
  4 30  1  0
  8 31  1  0
  8 32  1  0
  9 33  1  6
 10 34  1  0
 11 35  1  1
 12 36  1  0
 13 37  1  1
 14 38  1  0
 15 39  1  0
 15 40  1  0
 16 41  1  0
 16 42  1  0
 18 43  1  0
 19 44  1  0
 21 45  1  0
 24 46  1  0
 25 47  1  0
M  END
>  <smiles>  (40) 
O=C(NCC(=O)N1C[C@H](O)[C@H](O)[C@H]1C1CC1)c1ccc2cc(F)ccc2n1

>  <score_type>  (40) 
oracle

>  <origin>  (40) 
autodockgpu

>  <m_score__min__energy>  (40) 
-7.7000000000000002

>  <m_primary>  (40) 
energy

>  <rmsd>  (40) 
6.0000502141941725

>  <m_score__min__rmsd>  (40) 
6.0000502141941725

>  <meeko>  (40) 
{"free_energy": -5.64, "intermolecular_energy": -7.73, "internal_energy": -4.87, "cluster_size": 24, "cluster_id": 4, "rank_in_cluster": 16}

>  <energy>  (40) 
-5.54

>  <cluster_rmsd>  (40) 
0.47

>  <cluster>  (40) 
4

$$$$

     RDKit          3D

 47 50  0  0  0  0  0  0  0  0999 V2000
  138.7340   71.5310  221.5230 O   0  0  0  0  0  0  0  0  0  0  0  0
  138.2570   71.6810  222.6820 C   0  0  0  0  0  0  0  0  0  0  0  0
  137.1990   72.5810  222.9800 N   0  0  0  0  0  0  0  0  0  0  0  0
  136.5780   73.4150  221.9370 C   0  0  0  0  0  0  0  0  0  0  0  0
  137.2950   74.6780  221.9280 C   0  0  0  0  0  0  0  0  0  0  0  0
  136.6930   75.7030  222.4080 O   0  0  0  0  0  0  0  0  0  0  0  0
  138.6030   74.9180  221.4410 N   0  0  0  0  0  0  0  0  0  0  0  0
  139.0190   74.4710  220.1070 C   0  0  0  0  0  0  0  0  0  0  0  0
  140.5170   74.3020  220.1460 C   0  0  2  0  0  0  0  0  0  0  0  0
  140.8610   73.0090  219.7590 O   0  0  0  0  0  0  0  0  0  0  0  0
  140.8700   74.5920  221.5930 C   0  0  2  0  0  0  0  0  0  0  0  0
  140.6840   73.4120  222.3060 O   0  0  0  0  0  0  0  0  0  0  0  0
  139.7490   75.5480  222.0040 C   0  0  1  0  0  0  0  0  0  0  0  0
  140.0410   76.9430  221.6040 C   0  0  0  0  0  0  0  0  0  0  0  0
  141.1170   77.6650  222.4110 C   0  0  0  0  0  0  0  0  0  0  0  0
  139.7060   78.1550  222.3420 C   0  0  0  0  0  0  0  0  0  0  0  0
  138.8420   70.8710  223.7690 C   0  0  0  0  0  0  0  0  0  0  0  0
  138.8140   69.5010  223.7360 C   0  0  0  0  0  0  0  0  0  0  0  0
  139.3580   68.7740  224.7480 C   0  0  0  0  0  0  0  0  0  0  0  0
  139.9530   69.3950  225.8310 C   0  0  0  0  0  0  0  0  0  0  0  0
  140.5100   68.6800  226.8650 C   0  0  0  0  0  0  0  0  0  0  0  0
  141.0870   69.3610  227.9160 C   0  0  0  0  0  0  0  0  0  0  0  0
  141.6300   68.6170  228.9240 F   0  0  0  0  0  0  0  0  0  0  0  0
  141.1140   70.7540  227.9440 C   0  0  0  0  0  0  0  0  0  0  0  0
  140.5530   71.4710  226.9030 C   0  0  0  0  0  0  0  0  0  0  0  0
  139.9760   70.7820  225.8510 C   0  0  0  0  0  0  0  0  0  0  0  0
  139.4280   71.4720  224.8350 N   0  0  0  0  0  0  0  0  0  0  0  0
  136.8890   72.6180  223.9740 H   0  0  0  0  0  0  0  0  0  0  0  0
  136.6651   72.9231  220.9570 H   0  0  0  0  0  0  0  0  0  0  0  0
  135.5081   73.5698  222.1403 H   0  0  0  0  0  0  0  0  0  0  0  0
  138.5370   73.5130  219.8622 H   0  0  0  0  0  0  0  0  0  0  0  0
  138.7262   75.2020  219.3390 H   0  0  0  0  0  0  0  0  0  0  0  0
  141.0615   74.9646  219.4572 H   0  0  0  0  0  0  0  0  0  0  0  0
  140.4190   72.3840  220.4010 H   0  0  0  0  0  0  0  0  0  0  0  0
  141.8884   74.9758  221.7527 H   0  0  0  0  0  0  0  0  0  0  0  0
  140.1810   72.7430  221.7950 H   0  0  0  0  0  0  0  0  0  0  0  0
  139.6041   75.6927  223.0848 H   0  0  0  0  0  0  0  0  0  0  0  0
  139.8199   76.6551  220.5656 H   0  0  0  0  0  0  0  0  0  0  0  0
  141.5073   77.2221  223.3392 H   0  0  0  0  0  0  0  0  0  0  0  0
  142.1118   78.0863  222.2041 H   0  0  0  0  0  0  0  0  0  0  0  0
  139.0635   78.0893  223.2324 H   0  0  0  0  0  0  0  0  0  0  0  0
  139.2423   79.1139  222.0671 H   0  0  0  0  0  0  0  0  0  0  0  0
  138.3475   68.9854  222.8836 H   0  0  0  0  0  0  0  0  0  0  0  0
  139.3243   67.6754  224.7047 H   0  0  0  0  0  0  0  0  0  0  0  0
  140.4955   67.5802  226.8539 H   0  0  0  0  0  0  0  0  0  0  0  0
  141.5793   71.2808  228.7901 H   0  0  0  0  0  0  0  0  0  0  0  0
  140.5653   72.5709  226.9112 H   0  0  0  0  0  0  0  0  0  0  0  0
  1  2  2  0
  2  3  1  0
  3  4  1  0
  4  5  1  0
  5  6  2  0
  5  7  1  0
  7  8  1  0
  8  9  1  0
  9 10  1  0
  9 11  1  0
 11 12  1  0
 11 13  1  0
 13 14  1  0
 14 15  1  0
 15 16  1  0
  2 17  1  0
 17 18  2  0
 18 19  1  0
 19 20  2  0
 20 21  1  0
 21 22  2  0
 22 23  1  0
 22 24  1  0
 24 25  2  0
 25 26  1  0
 26 27  2  0
 13  7  1  0
 16 14  1  0
 27 17  1  0
 26 20  1  0
  3 28  1  0
  4 29  1  0
  4 30  1  0
  8 31  1  0
  8 32  1  0
  9 33  1  6
 10 34  1  0
 11 35  1  6
 12 36  1  0
 13 37  1  1
 14 38  1  0
 15 39  1  0
 15 40  1  0
 16 41  1  0
 16 42  1  0
 18 43  1  0
 19 44  1  0
 21 45  1  0
 24 46  1  0
 25 47  1  0
M  END
>  <smiles>  (41) 
O=C(NCC(=O)N1C[C@H](O)[C@H](O)[C@H]1C1CC1)c1ccc2cc(F)ccc2n1

>  <score_type>  (41) 
oracle

>  <origin>  (41) 
autodockgpu

>  <m_score__min__energy>  (41) 
-7.7000000000000002

>  <m_primary>  (41) 
energy

>  <rmsd>  (41) 
2.489408191754254

>  <m_score__min__rmsd>  (41) 
2.489408191754254

>  <meeko>  (41) 
{"free_energy": -5.89, "intermolecular_energy": -7.98, "internal_energy": -4.22, "cluster_size": 6, "cluster_id": 3, "rank_in_cluster": 5}

>  <energy>  (41) 
-5.53

>  <cluster_rmsd>  (41) 
0.6

>  <cluster>  (41) 
4

$$$$

     RDKit          3D

 47 50  0  0  0  0  0  0  0  0999 V2000
  138.3880   74.8610  220.2880 O   0  0  0  0  0  0  0  0  0  0  0  0
  139.1500   74.8160  221.2920 C   0  0  0  0  0  0  0  0  0  0  0  0
  138.8460   75.4420  222.5310 N   0  0  0  0  0  0  0  0  0  0  0  0
  137.5990   76.2020  222.7270 C   0  0  0  0  0  0  0  0  0  0  0  0
  137.9130   77.5960  222.4710 C   0  0  0  0  0  0  0  0  0  0  0  0
  136.9300   78.4070  222.3290 O   0  0  0  0  0  0  0  0  0  0  0  0
  139.1990   78.1780  222.3530 N   0  0  0  0  0  0  0  0  0  0  0  0
  139.8570   78.3270  221.0510 C   0  0  0  0  0  0  0  0  0  0  0  0
  141.3430   78.3620  221.3090 C   0  0  2  0  0  0  0  0  0  0  0  0
  141.9800   77.3690  220.5690 O   0  0  0  0  0  0  0  0  0  0  0  0
  141.4480   78.1330  222.8070 C   0  0  2  0  0  0  0  0  0  0  0  0
  141.4100   76.7580  223.0150 O   0  0  0  0  0  0  0  0  0  0  0  0
  140.1190   78.7020  223.3050 C   0  0  1  0  0  0  0  0  0  0  0  0
  140.1780   80.1710  223.4790 C   0  0  0  0  0  0  0  0  0  0  0  0
  138.8660   80.8600  223.8430 C   0  0  0  0  0  0  0  0  0  0  0  0
  139.6170   81.1820  222.5910 C   0  0  0  0  0  0  0  0  0  0  0  0
  140.4170   74.0700  221.1540 C   0  0  0  0  0  0  0  0  0  0  0  0
  140.4680   72.7090  221.3150 C   0  0  0  0  0  0  0  0  0  0  0  0
  141.6450   72.0420  221.1830 C   0  0  0  0  0  0  0  0  0  0  0  0
  142.8150   72.7140  220.8840 C   0  0  0  0  0  0  0  0  0  0  0  0
  144.0170   72.0590  220.7450 C   0  0  0  0  0  0  0  0  0  0  0  0
  145.1480   72.7900  220.4470 C   0  0  0  0  0  0  0  0  0  0  0  0
  146.3210   72.1050  220.3170 F   0  0  0  0  0  0  0  0  0  0  0  0
  145.0900   74.1720  220.2840 C   0  0  0  0  0  0  0  0  0  0  0  0
  143.8810   74.8290  220.4240 C   0  0  0  0  0  0  0  0  0  0  0  0
  142.7500   74.0900  220.7230 C   0  0  0  0  0  0  0  0  0  0  0  0
  141.5700   74.7210  220.8600 N   0  0  0  0  0  0  0  0  0  0  0  0
  139.5530   75.3360  223.2900 H   0  0  0  0  0  0  0  0  0  0  0  0
  136.8280   75.8523  222.0247 H   0  0  0  0  0  0  0  0  0  0  0  0
  137.2098   76.0658  223.7468 H   0  0  0  0  0  0  0  0  0  0  0  0
  139.6063   77.4754  220.4014 H   0  0  0  0  0  0  0  0  0  0  0  0
  139.5246   79.2460  220.5461 H   0  0  0  0  0  0  0  0  0  0  0  0
  141.8289   79.3020  221.0083 H   0  0  0  0  0  0  0  0  0  0  0  0
  142.3620   76.7170  221.2220 H   0  0  0  0  0  0  0  0  0  0  0  0
  142.3424   78.5642  223.2803 H   0  0  0  0  0  0  0  0  0  0  0  0
  141.9120   76.2640  222.3330 H   0  0  0  0  0  0  0  0  0  0  0  0
  139.8144   78.4099  224.3208 H   0  0  0  0  0  0  0  0  0  0  0  0
  141.2000   80.0495  223.8674 H   0  0  0  0  0  0  0  0  0  0  0  0
  137.9158   80.3079  223.7953 H   0  0  0  0  0  0  0  0  0  0  0  0
  138.4828   81.4276  224.7038 H   0  0  0  0  0  0  0  0  0  0  0  0
  139.2042   80.8813  221.6167 H   0  0  0  0  0  0  0  0  0  0  0  0
  140.0047   82.1121  222.1498 H   0  0  0  0  0  0  0  0  0  0  0  0
  139.5493   72.1528  221.5528 H   0  0  0  0  0  0  0  0  0  0  0  0
  141.6666   70.9503  221.3162 H   0  0  0  0  0  0  0  0  0  0  0  0
  144.0751   70.9676  220.8698 H   0  0  0  0  0  0  0  0  0  0  0  0
  146.0020   74.7386  220.0449 H   0  0  0  0  0  0  0  0  0  0  0  0
  143.8196   75.9202  220.2998 H   0  0  0  0  0  0  0  0  0  0  0  0
  1  2  2  0
  2  3  1  0
  3  4  1  0
  4  5  1  0
  5  6  2  0
  5  7  1  0
  7  8  1  0
  8  9  1  0
  9 10  1  0
  9 11  1  0
 11 12  1  0
 11 13  1  0
 13 14  1  0
 14 15  1  0
 15 16  1  0
  2 17  1  0
 17 18  2  0
 18 19  1  0
 19 20  2  0
 20 21  1  0
 21 22  2  0
 22 23  1  0
 22 24  1  0
 24 25  2  0
 25 26  1  0
 26 27  2  0
 13  7  1  0
 16 14  1  0
 27 17  1  0
 26 20  1  0
  3 28  1  0
  4 29  1  0
  4 30  1  0
  8 31  1  0
  8 32  1  0
  9 33  1  1
 10 34  1  0
 11 35  1  1
 12 36  1  0
 13 37  1  1
 14 38  1  0
 15 39  1  0
 15 40  1  0
 16 41  1  0
 16 42  1  0
 18 43  1  0
 19 44  1  0
 21 45  1  0
 24 46  1  0
 25 47  1  0
M  END
>  <smiles>  (42) 
O=C(NCC(=O)N1C[C@H](O)[C@H](O)[C@H]1C1CC1)c1ccc2cc(F)ccc2n1

>  <score_type>  (42) 
oracle

>  <origin>  (42) 
autodockgpu

>  <m_score__min__energy>  (42) 
-7.7000000000000002

>  <m_primary>  (42) 
energy

>  <rmsd>  (42) 
6.00631540843412

>  <m_score__min__rmsd>  (42) 
6.00631540843412

>  <meeko>  (42) 
{"free_energy": -5.72, "intermolecular_energy": -7.8, "internal_energy": -4.78, "cluster_size": 24, "cluster_id": 4, "rank_in_cluster": 6}

>  <energy>  (42) 
-5.36

>  <cluster_rmsd>  (42) 
1.18

>  <cluster>  (42) 
4

$$$$

     RDKit          3D

 47 50  0  0  0  0  0  0  0  0999 V2000
  136.1170   71.5720  221.7780 O   0  0  0  0  0  0  0  0  0  0  0  0
  137.0490   72.0520  222.4800 C   0  0  0  0  0  0  0  0  0  0  0  0
  137.5200   73.3860  222.3440 N   0  0  0  0  0  0  0  0  0  0  0  0
  136.9420   74.3130  221.3550 C   0  0  0  0  0  0  0  0  0  0  0  0
  137.9700   74.5580  220.3600 C   0  0  0  0  0  0  0  0  0  0  0  0
  137.6500   75.2680  219.3410 O   0  0  0  0  0  0  0  0  0  0  0  0
  139.3090   74.0960  220.3780 N   0  0  0  0  0  0  0  0  0  0  0  0
  139.6570   72.7380  219.9470 C   0  0  0  0  0  0  0  0  0  0  0  0
  140.9390   72.3680  220.6500 C   0  0  2  0  0  0  0  0  0  0  0  0
  140.7670   71.1860  221.3670 O   0  0  0  0  0  0  0  0  0  0  0  0
  141.2100   73.5620  221.5470 C   0  0  2  0  0  0  0  0  0  0  0  0
  140.4760   73.3730  222.7150 O   0  0  0  0  0  0  0  0  0  0  0  0
  140.5390   74.6960  220.7710 C   0  0  1  0  0  0  0  0  0  0  0  0
  141.4190   75.2350  219.7110 C   0  0  0  0  0  0  0  0  0  0  0  0
  142.9200   75.1790  219.9860 C   0  0  0  0  0  0  0  0  0  0  0  0
  142.1960   76.4680  219.7580 C   0  0  0  0  0  0  0  0  0  0  0  0
  137.6680   71.1690  223.4870 C   0  0  0  0  0  0  0  0  0  0  0  0
  136.9940   70.0960  224.0100 C   0  0  0  0  0  0  0  0  0  0  0  0
  137.5830   69.2940  224.9370 C   0  0  0  0  0  0  0  0  0  0  0  0
  138.8710   69.5390  225.3740 C   0  0  0  0  0  0  0  0  0  0  0  0
  139.4880   68.7420  226.3100 C   0  0  0  0  0  0  0  0  0  0  0  0
  140.7750   69.0420  226.7040 C   0  0  0  0  0  0  0  0  0  0  0  0
  141.3520   68.2270  227.6340 F   0  0  0  0  0  0  0  0  0  0  0  0
  141.4560   70.1340  226.1690 C   0  0  0  0  0  0  0  0  0  0  0  0
  140.8340   70.9340  225.2270 C   0  0  0  0  0  0  0  0  0  0  0  0
  139.5430   70.6280  224.8370 C   0  0  0  0  0  0  0  0  0  0  0  0
  138.9330   71.4010  223.9220 N   0  0  0  0  0  0  0  0  0  0  0  0
  138.2950   73.6710  222.9800 H   0  0  0  0  0  0  0  0  0  0  0  0
  136.0579   73.8600  220.8826 H   0  0  0  0  0  0  0  0  0  0  0  0
  136.6228   75.2512  221.8324 H   0  0  0  0  0  0  0  0  0  0  0  0
  138.8570   72.0364  220.2259 H   0  0  0  0  0  0  0  0  0  0  0  0
  139.7804   72.6919  218.8549 H   0  0  0  0  0  0  0  0  0  0  0  0
  141.7825   72.1732  219.9714 H   0  0  0  0  0  0  0  0  0  0  0  0
  140.1180   71.3820  222.1010 H   0  0  0  0  0  0  0  0  0  0  0  0
  142.2702   73.7295  221.7875 H   0  0  0  0  0  0  0  0  0  0  0  0
  139.7910   72.6790  222.6150 H   0  0  0  0  0  0  0  0  0  0  0  0
  140.3423   75.6210  221.3328 H   0  0  0  0  0  0  0  0  0  0  0  0
  140.6857   74.8810  218.9714 H   0  0  0  0  0  0  0  0  0  0  0  0
  143.2927   74.9200  220.9880 H   0  0  0  0  0  0  0  0  0  0  0  0
  143.7874   74.6693  219.5413 H   0  0  0  0  0  0  0  0  0  0  0  0
  142.0551   77.1679  220.5949 H   0  0  0  0  0  0  0  0  0  0  0  0
  142.3352   77.3107  219.0648 H   0  0  0  0  0  0  0  0  0  0  0  0
  135.9678   69.8818  223.6769 H   0  0  0  0  0  0  0  0  0  0  0  0
  137.0260   68.4377  225.3450 H   0  0  0  0  0  0  0  0  0  0  0  0
  138.9616   67.8765  226.7387 H   0  0  0  0  0  0  0  0  0  0  0  0
  142.4826   70.3587  226.4940 H   0  0  0  0  0  0  0  0  0  0  0  0
  141.3579   71.7995  224.7952 H   0  0  0  0  0  0  0  0  0  0  0  0
  1  2  2  0
  2  3  1  0
  3  4  1  0
  4  5  1  0
  5  6  2  0
  5  7  1  0
  7  8  1  0
  8  9  1  0
  9 10  1  0
  9 11  1  0
 11 12  1  0
 11 13  1  0
 13 14  1  0
 14 15  1  0
 15 16  1  0
  2 17  1  0
 17 18  2  0
 18 19  1  0
 19 20  2  0
 20 21  1  0
 21 22  2  0
 22 23  1  0
 22 24  1  0
 24 25  2  0
 25 26  1  0
 26 27  2  0
 13  7  1  0
 16 14  1  0
 27 17  1  0
 26 20  1  0
  3 28  1  0
  4 29  1  0
  4 30  1  0
  8 31  1  0
  8 32  1  0
  9 33  1  6
 10 34  1  0
 11 35  1  1
 12 36  1  0
 13 37  1  1
 14 38  1  0
 15 39  1  0
 15 40  1  0
 16 41  1  0
 16 42  1  0
 18 43  1  0
 19 44  1  0
 21 45  1  0
 24 46  1  0
 25 47  1  0
M  END
>  <smiles>  (43) 
O=C(NCC(=O)N1C[C@H](O)[C@H](O)[C@H]1C1CC1)c1ccc2cc(F)ccc2n1

>  <score_type>  (43) 
oracle

>  <origin>  (43) 
autodockgpu

>  <m_score__min__energy>  (43) 
-7.7000000000000002

>  <m_primary>  (43) 
energy

>  <rmsd>  (43) 
2.9556670771674143

>  <m_score__min__rmsd>  (43) 
2.9556670771674143

>  <meeko>  (43) 
{"free_energy": -4.74, "intermolecular_energy": -6.83, "internal_energy": -5.23, "cluster_size": 2, "cluster_id": 6, "rank_in_cluster": 2}

>  <energy>  (43) 
-5.35

>  <cluster_rmsd>  (43) 
0.5

>  <cluster>  (43) 
4

$$$$

     RDKit          3D

 47 50  0  0  0  0  0  0  0  0999 V2000
  138.3230   74.7730  220.3400 O   0  0  0  0  0  0  0  0  0  0  0  0
  139.1240   74.8150  221.3140 C   0  0  0  0  0  0  0  0  0  0  0  0
  138.8520   75.5160  222.5190 N   0  0  0  0  0  0  0  0  0  0  0  0
  137.5930   76.2570  222.7150 C   0  0  0  0  0  0  0  0  0  0  0  0
  137.8970   77.6610  222.5080 C   0  0  0  0  0  0  0  0  0  0  0  0
  136.9100   78.4750  222.4310 O   0  0  0  0  0  0  0  0  0  0  0  0
  139.1790   78.2510  222.3770 N   0  0  0  0  0  0  0  0  0  0  0  0
  139.8210   78.4050  221.0670 C   0  0  0  0  0  0  0  0  0  0  0  0
  141.3090   78.4490  221.3090 C   0  0  2  0  0  0  0  0  0  0  0  0
  141.9440   77.4610  220.5600 O   0  0  0  0  0  0  0  0  0  0  0  0
  141.4330   78.2180  222.8040 C   0  0  2  0  0  0  0  0  0  0  0  0
  141.4060   76.8420  223.0120 O   0  0  0  0  0  0  0  0  0  0  0  0
  140.1070   78.7790  223.3190 C   0  0  1  0  0  0  0  0  0  0  0  0
  140.1590   80.2470  223.4940 C   0  0  0  0  0  0  0  0  0  0  0  0
  138.8420   80.9320  223.8490 C   0  0  0  0  0  0  0  0  0  0  0  0
  139.6020   81.2570  222.6030 C   0  0  0  0  0  0  0  0  0  0  0  0
  140.4030   74.0910  221.1740 C   0  0  0  0  0  0  0  0  0  0  0  0
  140.4770   72.7310  221.3200 C   0  0  0  0  0  0  0  0  0  0  0  0
  141.6660   72.0840  221.1870 C   0  0  0  0  0  0  0  0  0  0  0  0
  142.8260   72.7790  220.9030 C   0  0  0  0  0  0  0  0  0  0  0  0
  144.0390   72.1470  220.7640 C   0  0  0  0  0  0  0  0  0  0  0  0
  145.1600   72.8990  220.4800 C   0  0  0  0  0  0  0  0  0  0  0  0
  146.3450   72.2350  220.3490 F   0  0  0  0  0  0  0  0  0  0  0  0
  145.0800   74.2820  220.3320 C   0  0  0  0  0  0  0  0  0  0  0  0
  143.8580   74.9170  220.4720 C   0  0  0  0  0  0  0  0  0  0  0  0
  142.7390   74.1560  220.7570 C   0  0  0  0  0  0  0  0  0  0  0  0
  141.5480   74.7660  220.8940 N   0  0  0  0  0  0  0  0  0  0  0  0
  139.5900   75.4780  223.2540 H   0  0  0  0  0  0  0  0  0  0  0  0
  136.8388   75.9215  221.9879 H   0  0  0  0  0  0  0  0  0  0  0  0
  137.1864   76.0853  223.7225 H   0  0  0  0  0  0  0  0  0  0  0  0
  139.5684   77.5523  220.4197 H   0  0  0  0  0  0  0  0  0  0  0  0
  139.4770   79.3219  220.5660 H   0  0  0  0  0  0  0  0  0  0  0  0
  141.7850   79.3930  221.0050 H   0  0  0  0  0  0  0  0  0  0  0  0
  142.2920   76.7820  221.2050 H   0  0  0  0  0  0  0  0  0  0  0  0
  142.3310   78.6535  223.2666 H   0  0  0  0  0  0  0  0  0  0  0  0
  141.9070   76.3530  222.3260 H   0  0  0  0  0  0  0  0  0  0  0  0
  139.8168   78.4841  224.3382 H   0  0  0  0  0  0  0  0  0  0  0  0
  141.1784   80.1280  223.8898 H   0  0  0  0  0  0  0  0  0  0  0  0
  137.8937   80.3773  223.7935 H   0  0  0  0  0  0  0  0  0  0  0  0
  138.4506   81.4977  224.7073 H   0  0  0  0  0  0  0  0  0  0  0  0
  139.1975   80.9560  221.6253 H   0  0  0  0  0  0  0  0  0  0  0  0
  139.9905   82.1885  222.1656 H   0  0  0  0  0  0  0  0  0  0  0  0
  139.5665   72.1569  221.5469 H   0  0  0  0  0  0  0  0  0  0  0  0
  141.7047   70.9913  221.3073 H   0  0  0  0  0  0  0  0  0  0  0  0
  144.1146   71.0555  220.8778 H   0  0  0  0  0  0  0  0  0  0  0  0
  145.9837   74.8666  220.1050 H   0  0  0  0  0  0  0  0  0  0  0  0
  143.7784   76.0082  220.3585 H   0  0  0  0  0  0  0  0  0  0  0  0
  1  2  2  0
  2  3  1  0
  3  4  1  0
  4  5  1  0
  5  6  2  0
  5  7  1  0
  7  8  1  0
  8  9  1  0
  9 10  1  0
  9 11  1  0
 11 12  1  0
 11 13  1  0
 13 14  1  0
 14 15  1  0
 15 16  1  0
  2 17  1  0
 17 18  2  0
 18 19  1  0
 19 20  2  0
 20 21  1  0
 21 22  2  0
 22 23  1  0
 22 24  1  0
 24 25  2  0
 25 26  1  0
 26 27  2  0
 13  7  1  0
 16 14  1  0
 27 17  1  0
 26 20  1  0
  3 28  1  0
  4 29  1  0
  4 30  1  0
  8 31  1  0
  8 32  1  0
  9 33  1  1
 10 34  1  0
 11 35  1  1
 12 36  1  0
 13 37  1  1
 14 38  1  0
 15 39  1  0
 15 40  1  0
 16 41  1  0
 16 42  1  0
 18 43  1  0
 19 44  1  0
 21 45  1  0
 24 46  1  0
 25 47  1  0
M  END
>  <smiles>  (44) 
O=C(NCC(=O)N1C[C@H](O)[C@H](O)[C@H]1C1CC1)c1ccc2cc(F)ccc2n1

>  <score_type>  (44) 
oracle

>  <origin>  (44) 
autodockgpu

>  <m_score__min__energy>  (44) 
-7.7000000000000002

>  <m_primary>  (44) 
energy

>  <rmsd>  (44) 
6.031919706411187

>  <m_score__min__rmsd>  (44) 
6.031919706411187

>  <meeko>  (44) 
{"free_energy": -5.64, "intermolecular_energy": -7.73, "internal_energy": -4.86, "cluster_size": 24, "cluster_id": 4, "rank_in_cluster": 14}

>  <energy>  (44) 
-5.28

>  <cluster_rmsd>  (44) 
0.0

>  <cluster>  (44) 
5

$$$$

     RDKit          3D

 47 50  0  0  0  0  0  0  0  0999 V2000
  140.3260   74.5040  222.2510 O   0  0  0  0  0  0  0  0  0  0  0  0
  140.5050   73.3530  221.7680 C   0  0  0  0  0  0  0  0  0  0  0  0
  140.9110   73.1250  220.4250 N   0  0  0  0  0  0  0  0  0  0  0  0
  141.1510   74.2380  219.4910 C   0  0  0  0  0  0  0  0  0  0  0  0
  142.5420   74.1510  219.0830 C   0  0  0  0  0  0  0  0  0  0  0  0
  142.9160   74.8750  218.0940 O   0  0  0  0  0  0  0  0  0  0  0  0
  143.5550   73.3430  219.6580 N   0  0  0  0  0  0  0  0  0  0  0  0
  144.3250   73.7920  220.8220 C   0  0  0  0  0  0  0  0  0  0  0  0
  145.6470   73.0660  220.7820 C   0  0  2  0  0  0  0  0  0  0  0  0
  146.6960   73.9830  220.7960 O   0  0  0  0  0  0  0  0  0  0  0  0
  145.5790   72.2760  219.4880 C   0  0  2  0  0  0  0  0  0  0  0  0
  145.9780   73.1290  218.4640 O   0  0  0  0  0  0  0  0  0  0  0  0
  144.0740   72.0570  219.3320 C   0  0  1  0  0  0  0  0  0  0  0  0
  143.6000   70.8970  220.1200 C   0  0  0  0  0  0  0  0  0  0  0  0
  144.0880   69.5250  219.6610 C   0  0  0  0  0  0  0  0  0  0  0  0
  142.6370   69.8860  219.7000 C   0  0  0  0  0  0  0  0  0  0  0  0
  140.2770   72.1970  222.6580 C   0  0  0  0  0  0  0  0  0  0  0  0
  139.6530   71.0610  222.2110 C   0  0  0  0  0  0  0  0  0  0  0  0
  139.4520   70.0090  223.0470 C   0  0  0  0  0  0  0  0  0  0  0  0
  139.8710   70.0550  224.3640 C   0  0  0  0  0  0  0  0  0  0  0  0
  139.6790   69.0030  225.2280 C   0  0  0  0  0  0  0  0  0  0  0  0
  140.1200   69.1150  226.5300 C   0  0  0  0  0  0  0  0  0  0  0  0
  139.9120   68.0490  227.3570 F   0  0  0  0  0  0  0  0  0  0  0  0
  140.7540   70.2720  226.9790 C   0  0  0  0  0  0  0  0  0  0  0  0
  140.9460   71.3290  226.1080 C   0  0  0  0  0  0  0  0  0  0  0  0
  140.5010   71.2100  224.8040 C   0  0  0  0  0  0  0  0  0  0  0  0
  140.6840   72.2350  223.9520 N   0  0  0  0  0  0  0  0  0  0  0  0
  141.0270   72.1290  220.1390 H   0  0  0  0  0  0  0  0  0  0  0  0
  140.4928   74.1454  218.6145 H   0  0  0  0  0  0  0  0  0  0  0  0
  140.9395   75.2063  219.9682 H   0  0  0  0  0  0  0  0  0  0  0  0
  144.4888   74.8785  220.7705 H   0  0  0  0  0  0  0  0  0  0  0  0
  143.7863   73.5762  221.7565 H   0  0  0  0  0  0  0  0  0  0  0  0
  145.8253   72.4102  221.6470 H   0  0  0  0  0  0  0  0  0  0  0  0
  146.6110   74.5360  219.9680 H   0  0  0  0  0  0  0  0  0  0  0  0
  146.1843   71.3576  219.4745 H   0  0  0  0  0  0  0  0  0  0  0  0
  145.9750   74.0700  218.7410 H   0  0  0  0  0  0  0  0  0  0  0  0
  143.7270   71.7535  218.3333 H   0  0  0  0  0  0  0  0  0  0  0  0
  143.6164   71.5403  221.0121 H   0  0  0  0  0  0  0  0  0  0  0  0
  144.6077   69.4129  218.6980 H   0  0  0  0  0  0  0  0  0  0  0  0
  144.7164   68.7268  220.0829 H   0  0  0  0  0  0  0  0  0  0  0  0
  142.0844   70.0194  218.7583 H   0  0  0  0  0  0  0  0  0  0  0  0
  141.7493   69.4349  220.1675 H   0  0  0  0  0  0  0  0  0  0  0  0
  139.3123   71.0008  221.1668 H   0  0  0  0  0  0  0  0  0  0  0  0
  138.9481   69.1067  222.6703 H   0  0  0  0  0  0  0  0  0  0  0  0
  139.1804   68.0843  224.8855 H   0  0  0  0  0  0  0  0  0  0  0  0
  141.0999   70.3442  228.0207 H   0  0  0  0  0  0  0  0  0  0  0  0
  141.4444   72.2492  226.4469 H   0  0  0  0  0  0  0  0  0  0  0  0
  1  2  2  0
  2  3  1  0
  3  4  1  0
  4  5  1  0
  5  6  2  0
  5  7  1  0
  7  8  1  0
  8  9  1  0
  9 10  1  0
  9 11  1  0
 11 12  1  0
 11 13  1  0
 13 14  1  0
 14 15  1  0
 15 16  1  0
  2 17  1  0
 17 18  2  0
 18 19  1  0
 19 20  2  0
 20 21  1  0
 21 22  2  0
 22 23  1  0
 22 24  1  0
 24 25  2  0
 25 26  1  0
 26 27  2  0
 13  7  1  0
 16 14  1  0
 27 17  1  0
 26 20  1  0
  3 28  1  0
  4 29  1  0
  4 30  1  0
  8 31  1  0
  8 32  1  0
  9 33  1  1
 10 34  1  0
 11 35  1  1
 12 36  1  0
 13 37  1  6
 14 38  1  0
 15 39  1  0
 15 40  1  0
 16 41  1  0
 16 42  1  0
 18 43  1  0
 19 44  1  0
 21 45  1  0
 24 46  1  0
 25 47  1  0
M  END
>  <smiles>  (45) 
O=C(NCC(=O)N1C[C@H](O)[C@H](O)[C@H]1C1CC1)c1ccc2cc(F)ccc2n1

>  <score_type>  (45) 
oracle

>  <origin>  (45) 
autodockgpu

>  <m_score__min__energy>  (45) 
-7.7000000000000002

>  <m_primary>  (45) 
energy

>  <rmsd>  (45) 
4.174964424262998

>  <m_score__min__rmsd>  (45) 
4.174964424262998

>  <meeko>  (45) 
{"free_energy": -7.32, "intermolecular_energy": -9.41, "internal_energy": -2.91, "cluster_size": 11, "cluster_id": 1, "rank_in_cluster": 6}

>  <energy>  (45) 
-5.22

>  <cluster_rmsd>  (45) 
0.14

>  <cluster>  (45) 
5

$$$$

     RDKit          3D

 47 50  0  0  0  0  0  0  0  0999 V2000
  140.3860   77.8460  217.3430 O   0  0  0  0  0  0  0  0  0  0  0  0
  141.5100   77.9350  217.9100 C   0  0  0  0  0  0  0  0  0  0  0  0
  142.6500   77.1900  217.5050 N   0  0  0  0  0  0  0  0  0  0  0  0
  142.5940   76.2430  216.3770 C   0  0  0  0  0  0  0  0  0  0  0  0
  142.7160   74.9110  216.9410 C   0  0  0  0  0  0  0  0  0  0  0  0
  142.6840   73.9200  216.1300 O   0  0  0  0  0  0  0  0  0  0  0  0
  142.8670   74.5690  218.3080 N   0  0  0  0  0  0  0  0  0  0  0  0
  141.7110   74.4660  219.2050 C   0  0  0  0  0  0  0  0  0  0  0  0
  142.2140   74.7200  220.6040 C   0  0  2  0  0  0  0  0  0  0  0  0
  141.5020   75.7660  221.1850 O   0  0  0  0  0  0  0  0  0  0  0  0
  143.6810   75.0540  220.3990 C   0  0  2  0  0  0  0  0  0  0  0  0
  143.7540   76.4090  220.0900 O   0  0  0  0  0  0  0  0  0  0  0  0
  144.0020   74.2820  219.1180 C   0  0  1  0  0  0  0  0  0  0  0  0
  144.3170   72.8620  219.3950 C   0  0  0  0  0  0  0  0  0  0  0  0
  145.3010   72.5980  220.5310 C   0  0  0  0  0  0  0  0  0  0  0  0
  145.5730   72.1730  219.1230 C   0  0  0  0  0  0  0  0  0  0  0  0
  141.6260   78.8680  219.0480 C   0  0  0  0  0  0  0  0  0  0  0  0
  141.6780   80.2240  218.8610 C   0  0  0  0  0  0  0  0  0  0  0  0
  141.7850   81.0650  219.9240 C   0  0  0  0  0  0  0  0  0  0  0  0
  141.8430   80.5770  221.2160 C   0  0  0  0  0  0  0  0  0  0  0  0
  141.9500   81.4080  222.3060 C   0  0  0  0  0  0  0  0  0  0  0  0
  142.0040   80.8550  223.5680 C   0  0  0  0  0  0  0  0  0  0  0  0
  142.1110   81.7130  224.6250 F   0  0  0  0  0  0  0  0  0  0  0  0
  141.9500   79.4750  223.7530 C   0  0  0  0  0  0  0  0  0  0  0  0
  141.8420   78.6410  222.6560 C   0  0  0  0  0  0  0  0  0  0  0  0
  141.7890   79.2020  221.3920 C   0  0  0  0  0  0  0  0  0  0  0  0
  141.6830   78.3960  220.3200 N   0  0  0  0  0  0  0  0  0  0  0  0
  143.5240   77.3490  218.0490 H   0  0  0  0  0  0  0  0  0  0  0  0
  141.6359   76.3430  215.8458 H   0  0  0  0  0  0  0  0  0  0  0  0
  143.3999   76.4412  215.6550 H   0  0  0  0  0  0  0  0  0  0  0  0
  140.9542   75.2168  218.9336 H   0  0  0  0  0  0  0  0  0  0  0  0
  141.2436   73.4731  219.1303 H   0  0  0  0  0  0  0  0  0  0  0  0
  142.0854   73.8685  221.2884 H   0  0  0  0  0  0  0  0  0  0  0  0
  142.1440   76.5210  221.3140 H   0  0  0  0  0  0  0  0  0  0  0  0
  144.3325   74.8235  221.2548 H   0  0  0  0  0  0  0  0  0  0  0  0
  143.2430   76.9620  220.7180 H   0  0  0  0  0  0  0  0  0  0  0  0
  144.9218   74.5747  218.5905 H   0  0  0  0  0  0  0  0  0  0  0  0
  143.2872   72.6124  219.0997 H   0  0  0  0  0  0  0  0  0  0  0  0
  145.8667   73.4272  220.9809 H   0  0  0  0  0  0  0  0  0  0  0  0
  145.2616   72.1038  221.5129 H   0  0  0  0  0  0  0  0  0  0  0  0
  146.3577   72.6813  218.5435 H   0  0  0  0  0  0  0  0  0  0  0  0
  145.8325   71.2143  218.6502 H   0  0  0  0  0  0  0  0  0  0  0  0
  141.6328   80.6360  217.8421 H   0  0  0  0  0  0  0  0  0  0  0  0
  141.8261   82.1509  219.7531 H   0  0  0  0  0  0  0  0  0  0  0  0
  141.9920   82.4991  222.1732 H   0  0  0  0  0  0  0  0  0  0  0  0
  141.9931   79.0513  224.7672 H   0  0  0  0  0  0  0  0  0  0  0  0
  141.7989   77.5495  222.7855 H   0  0  0  0  0  0  0  0  0  0  0  0
  1  2  2  0
  2  3  1  0
  3  4  1  0
  4  5  1  0
  5  6  2  0
  5  7  1  0
  7  8  1  0
  8  9  1  0
  9 10  1  0
  9 11  1  0
 11 12  1  0
 11 13  1  0
 13 14  1  0
 14 15  1  0
 15 16  1  0
  2 17  1  0
 17 18  2  0
 18 19  1  0
 19 20  2  0
 20 21  1  0
 21 22  2  0
 22 23  1  0
 22 24  1  0
 24 25  2  0
 25 26  1  0
 26 27  2  0
 13  7  1  0
 16 14  1  0
 27 17  1  0
 26 20  1  0
  3 28  1  0
  4 29  1  0
  4 30  1  0
  8 31  1  0
  8 32  1  0
  9 33  1  1
 10 34  1  0
 11 35  1  1
 12 36  1  0
 13 37  1  6
 14 38  1  0
 15 39  1  0
 15 40  1  0
 16 41  1  0
 16 42  1  0
 18 43  1  0
 19 44  1  0
 21 45  1  0
 24 46  1  0
 25 47  1  0
M  END
>  <smiles>  (46) 
O=C(NCC(=O)N1C[C@H](O)[C@H](O)[C@H]1C1CC1)c1ccc2cc(F)ccc2n1

>  <score_type>  (46) 
oracle

>  <origin>  (46) 
autodockgpu

>  <m_score__min__energy>  (46) 
-7.7000000000000002

>  <m_primary>  (46) 
energy

>  <rmsd>  (46) 
8.846591911156265

>  <m_score__min__rmsd>  (46) 
8.846591911156265

>  <meeko>  (46) 
{"free_energy": -5.2, "intermolecular_energy": -7.29, "internal_energy": -4.91, "cluster_size": 5, "cluster_id": 5, "rank_in_cluster": 3}

>  <energy>  (46) 
-5.2

>  <cluster_rmsd>  (46) 
0.22

>  <cluster>  (46) 
5

$$$$

     RDKit          3D

 47 50  0  0  0  0  0  0  0  0999 V2000
  140.8750   74.3930  221.9350 O   0  0  0  0  0  0  0  0  0  0  0  0
  140.7230   73.2400  221.4450 C   0  0  0  0  0  0  0  0  0  0  0  0
  140.8380   72.9600  220.0570 N   0  0  0  0  0  0  0  0  0  0  0  0
  141.1460   74.0170  219.0780 C   0  0  0  0  0  0  0  0  0  0  0  0
  142.5640   74.3030  219.2030 C   0  0  0  0  0  0  0  0  0  0  0  0
  142.9700   75.4570  218.8220 O   0  0  0  0  0  0  0  0  0  0  0  0
  143.5720   73.4420  219.7030 N   0  0  0  0  0  0  0  0  0  0  0  0
  144.4160   73.8290  220.8380 C   0  0  0  0  0  0  0  0  0  0  0  0
  145.7060   73.0560  220.7110 C   0  0  2  0  0  0  0  0  0  0  0  0
  146.7880   73.9330  220.6960 O   0  0  0  0  0  0  0  0  0  0  0  0
  145.5430   72.3060  219.4010 C   0  0  2  0  0  0  0  0  0  0  0  0
  145.9230   73.1740  218.3820 O   0  0  0  0  0  0  0  0  0  0  0  0
  144.0240   72.1490  219.3170 C   0  0  1  0  0  0  0  0  0  0  0  0
  143.5460   70.9840  220.0960 C   0  0  0  0  0  0  0  0  0  0  0  0
  144.0620   69.6180  219.6520 C   0  0  0  0  0  0  0  0  0  0  0  0
  142.6060   69.9610  219.6570 C   0  0  0  0  0  0  0  0  0  0  0  0
  140.4100   72.1400  222.3790 C   0  0  0  0  0  0  0  0  0  0  0  0
  139.8310   70.9750  221.9450 C   0  0  0  0  0  0  0  0  0  0  0  0
  139.5510   69.9740  222.8220 C   0  0  0  0  0  0  0  0  0  0  0  0
  139.8420   70.1040  224.1670 C   0  0  0  0  0  0  0  0  0  0  0  0
  139.5680   69.1050  225.0720 C   0  0  0  0  0  0  0  0  0  0  0  0
  139.8830   69.2990  226.4000 C   0  0  0  0  0  0  0  0  0  0  0  0
  139.5970   68.2850  227.2680 F   0  0  0  0  0  0  0  0  0  0  0  0
  140.4720   70.4840  226.8360 C   0  0  0  0  0  0  0  0  0  0  0  0
  140.7470   71.4880  225.9240 C   0  0  0  0  0  0  0  0  0  0  0  0
  140.4280   71.2870  224.5930 C   0  0  0  0  0  0  0  0  0  0  0  0
  140.6920   72.2580  223.7010 N   0  0  0  0  0  0  0  0  0  0  0  0
  140.6910   71.9680  219.7710 H   0  0  0  0  0  0  0  0  0  0  0  0
  140.9181   73.6685  218.0599 H   0  0  0  0  0  0  0  0  0  0  0  0
  140.5432   74.9177  219.2662 H   0  0  0  0  0  0  0  0  0  0  0  0
  144.6184   74.9098  220.8073 H   0  0  0  0  0  0  0  0  0  0  0  0
  143.9169   73.6066  221.7927 H   0  0  0  0  0  0  0  0  0  0  0  0
  145.9024   72.3694  221.5477 H   0  0  0  0  0  0  0  0  0  0  0  0
  146.6800   74.5170  219.8930 H   0  0  0  0  0  0  0  0  0  0  0  0
  146.1103   71.3662  219.3310 H   0  0  0  0  0  0  0  0  0  0  0  0
  145.9710   74.1050  218.6840 H   0  0  0  0  0  0  0  0  0  0  0  0
  143.6152   71.8889  218.3295 H   0  0  0  0  0  0  0  0  0  0  0  0
  143.5335   71.6294  220.9867 H   0  0  0  0  0  0  0  0  0  0  0  0
  144.6050   69.5104  218.7015 H   0  0  0  0  0  0  0  0  0  0  0  0
  144.6907   68.8288  220.0901 H   0  0  0  0  0  0  0  0  0  0  0  0
  142.0734   70.0855  218.7026 H   0  0  0  0  0  0  0  0  0  0  0  0
  141.7135   69.4999  220.1052 H   0  0  0  0  0  0  0  0  0  0  0  0
  139.5911   70.8492  220.8789 H   0  0  0  0  0  0  0  0  0  0  0  0
  139.0859   69.0470  222.4555 H   0  0  0  0  0  0  0  0  0  0  0  0
  139.1039   68.1643  224.7407 H   0  0  0  0  0  0  0  0  0  0  0  0
  140.7172   70.6209  227.8996 H   0  0  0  0  0  0  0  0  0  0  0  0
  141.2113   72.4298  226.2519 H   0  0  0  0  0  0  0  0  0  0  0  0
  1  2  2  0
  2  3  1  0
  3  4  1  0
  4  5  1  0
  5  6  2  0
  5  7  1  0
  7  8  1  0
  8  9  1  0
  9 10  1  0
  9 11  1  0
 11 12  1  0
 11 13  1  0
 13 14  1  0
 14 15  1  0
 15 16  1  0
  2 17  1  0
 17 18  2  0
 18 19  1  0
 19 20  2  0
 20 21  1  0
 21 22  2  0
 22 23  1  0
 22 24  1  0
 24 25  2  0
 25 26  1  0
 26 27  2  0
 13  7  1  0
 16 14  1  0
 27 17  1  0
 26 20  1  0
  3 28  1  0
  4 29  1  0
  4 30  1  0
  8 31  1  0
  8 32  1  0
  9 33  1  1
 10 34  1  0
 11 35  1  1
 12 36  1  0
 13 37  1  6
 14 38  1  0
 15 39  1  0
 15 40  1  0
 16 41  1  0
 16 42  1  0
 18 43  1  0
 19 44  1  0
 21 45  1  0
 24 46  1  0
 25 47  1  0
M  END
>  <smiles>  (47) 
O=C(NCC(=O)N1C[C@H](O)[C@H](O)[C@H]1C1CC1)c1ccc2cc(F)ccc2n1

>  <score_type>  (47) 
oracle

>  <origin>  (47) 
autodockgpu

>  <m_score__min__energy>  (47) 
-7.7000000000000002

>  <m_primary>  (47) 
energy

>  <rmsd>  (47) 
4.188983619224049

>  <m_score__min__rmsd>  (47) 
4.188983619224049

>  <meeko>  (47) 
{"free_energy": -7.12, "intermolecular_energy": -9.21, "internal_energy": -3.06, "cluster_size": 11, "cluster_id": 1, "rank_in_cluster": 9}

>  <energy>  (47) 
-5.2

>  <cluster_rmsd>  (47) 
0.26

>  <cluster>  (47) 
5

$$$$

     RDKit          3D

 47 50  0  0  0  0  0  0  0  0999 V2000
  140.5640   77.9520  217.1550 O   0  0  0  0  0  0  0  0  0  0  0  0
  141.6500   78.0130  217.7930 C   0  0  0  0  0  0  0  0  0  0  0  0
  142.7980   77.2470  217.4530 N   0  0  0  0  0  0  0  0  0  0  0  0
  142.7950   76.3120  216.3140 C   0  0  0  0  0  0  0  0  0  0  0  0
  142.9250   74.9760  216.8670 C   0  0  0  0  0  0  0  0  0  0  0  0
  142.9560   73.9950  216.0430 O   0  0  0  0  0  0  0  0  0  0  0  0
  143.0210   74.6200  218.2350 N   0  0  0  0  0  0  0  0  0  0  0  0
  141.8310   74.5120  219.0850 C   0  0  0  0  0  0  0  0  0  0  0  0
  142.2790   74.7500  220.5050 C   0  0  2  0  0  0  0  0  0  0  0  0
  141.5480   75.7930  221.0680 O   0  0  0  0  0  0  0  0  0  0  0  0
  143.7540   75.0810  220.3610 C   0  0  2  0  0  0  0  0  0  0  0  0
  143.8430   76.4390  220.0690 O   0  0  0  0  0  0  0  0  0  0  0  0
  144.1230   74.3210  219.0860 C   0  0  1  0  0  0  0  0  0  0  0  0
  144.4220   72.8970  219.3600 C   0  0  0  0  0  0  0  0  0  0  0  0
  144.7250   72.5390  220.8130 C   0  0  0  0  0  0  0  0  0  0  0  0
  145.7150   72.3240  219.7130 C   0  0  0  0  0  0  0  0  0  0  0  0
  141.7120   78.9310  218.9470 C   0  0  0  0  0  0  0  0  0  0  0  0
  141.7200   80.2920  218.7800 C   0  0  0  0  0  0  0  0  0  0  0  0
  141.7780   81.1200  219.8560 C   0  0  0  0  0  0  0  0  0  0  0  0
  141.8300   80.6140  221.1420 C   0  0  0  0  0  0  0  0  0  0  0  0
  141.8880   81.4330  222.2450 C   0  0  0  0  0  0  0  0  0  0  0  0
  141.9390   80.8640  223.5000 C   0  0  0  0  0  0  0  0  0  0  0  0
  141.9960   81.7080  224.5710 F   0  0  0  0  0  0  0  0  0  0  0  0
  141.9310   79.4800  223.6650 C   0  0  0  0  0  0  0  0  0  0  0  0
  141.8720   78.6580  222.5540 C   0  0  0  0  0  0  0  0  0  0  0  0
  141.8210   79.2360  221.2970 C   0  0  0  0  0  0  0  0  0  0  0  0
  141.7640   78.4430  220.2120 N   0  0  0  0  0  0  0  0  0  0  0  0
  143.6390   77.3820  218.0540 H   0  0  0  0  0  0  0  0  0  0  0  0
  141.8521   76.4000  215.7544 H   0  0  0  0  0  0  0  0  0  0  0  0
  143.6190   76.5334  215.6197 H   0  0  0  0  0  0  0  0  0  0  0  0
  141.0877   75.2681  218.7919 H   0  0  0  0  0  0  0  0  0  0  0  0
  141.3642   73.5213  218.9820 H   0  0  0  0  0  0  0  0  0  0  0  0
  142.1208   73.8923  221.1752 H   0  0  0  0  0  0  0  0  0  0  0  0
  142.1840   76.5490  221.2170 H   0  0  0  0  0  0  0  0  0  0  0  0
  144.3708   74.8395  221.2392 H   0  0  0  0  0  0  0  0  0  0  0  0
  143.3040   76.9860  220.6780 H   0  0  0  0  0  0  0  0  0  0  0  0
  145.0640   74.6160  218.5987 H   0  0  0  0  0  0  0  0  0  0  0  0
  143.7187   72.6310  218.5571 H   0  0  0  0  0  0  0  0  0  0  0  0
  144.8858   73.3310  221.5593 H   0  0  0  0  0  0  0  0  0  0  0  0
  144.2562   71.9157  221.5887 H   0  0  0  0  0  0  0  0  0  0  0  0
  146.6184   72.9497  219.6646 H   0  0  0  0  0  0  0  0  0  0  0  0
  146.2877   71.4539  219.3593 H   0  0  0  0  0  0  0  0  0  0  0  0
  141.6791   80.7172  217.7663 H   0  0  0  0  0  0  0  0  0  0  0  0
  141.7837   82.2091  219.7018 H   0  0  0  0  0  0  0  0  0  0  0  0
  141.8936   82.5267  222.1279 H   0  0  0  0  0  0  0  0  0  0  0  0
  141.9714   79.0435  224.6739 H   0  0  0  0  0  0  0  0  0  0  0  0
  141.8657   77.5639  222.6673 H   0  0  0  0  0  0  0  0  0  0  0  0
  1  2  2  0
  2  3  1  0
  3  4  1  0
  4  5  1  0
  5  6  2  0
  5  7  1  0
  7  8  1  0
  8  9  1  0
  9 10  1  0
  9 11  1  0
 11 12  1  0
 11 13  1  0
 13 14  1  0
 14 15  1  0
 15 16  1  0
  2 17  1  0
 17 18  2  0
 18 19  1  0
 19 20  2  0
 20 21  1  0
 21 22  2  0
 22 23  1  0
 22 24  1  0
 24 25  2  0
 25 26  1  0
 26 27  2  0
 13  7  1  0
 16 14  1  0
 27 17  1  0
 26 20  1  0
  3 28  1  0
  4 29  1  0
  4 30  1  0
  8 31  1  0
  8 32  1  0
  9 33  1  1
 10 34  1  0
 11 35  1  1
 12 36  1  0
 13 37  1  6
 14 38  1  0
 15 39  1  0
 15 40  1  0
 16 41  1  0
 16 42  1  0
 18 43  1  0
 19 44  1  0
 21 45  1  0
 24 46  1  0
 25 47  1  0
M  END
>  <smiles>  (48) 
O=C(NCC(=O)N1C[C@H](O)[C@H](O)[C@H]1C1CC1)c1ccc2cc(F)ccc2n1

>  <score_type>  (48) 
oracle

>  <origin>  (48) 
autodockgpu

>  <m_score__min__energy>  (48) 
-7.7000000000000002

>  <m_primary>  (48) 
energy

>  <rmsd>  (48) 
8.920886191726254

>  <m_score__min__rmsd>  (48) 
8.920886191726254

>  <meeko>  (48) 
{"free_energy": -5.28, "intermolecular_energy": -7.36, "internal_energy": -4.91, "cluster_size": 5, "cluster_id": 5, "rank_in_cluster": 1}

>  <energy>  (48) 
-5.17

>  <cluster_rmsd>  (48) 
0.28

>  <cluster>  (48) 
5

$$$$

     RDKit          3D

 47 50  0  0  0  0  0  0  0  0999 V2000
  138.2860   74.7200  220.3990 O   0  0  0  0  0  0  0  0  0  0  0  0
  139.0950   74.7630  221.3670 C   0  0  0  0  0  0  0  0  0  0  0  0
  138.8300   75.4610  222.5760 N   0  0  0  0  0  0  0  0  0  0  0  0
  137.5710   76.1980  222.7830 C   0  0  0  0  0  0  0  0  0  0  0  0
  137.8840   77.6090  222.6500 C   0  0  0  0  0  0  0  0  0  0  0  0
  136.9080   78.4380  222.6910 O   0  0  0  0  0  0  0  0  0  0  0  0
  139.1640   78.1910  222.4740 N   0  0  0  0  0  0  0  0  0  0  0  0
  139.7670   78.3300  221.1440 C   0  0  0  0  0  0  0  0  0  0  0  0
  141.2620   78.3680  221.3400 C   0  0  2  0  0  0  0  0  0  0  0  0
  141.8680   77.3700  220.5810 O   0  0  0  0  0  0  0  0  0  0  0  0
  141.4310   78.1500  222.8330 C   0  0  2  0  0  0  0  0  0  0  0  0
  141.4020   76.7760  223.0530 O   0  0  0  0  0  0  0  0  0  0  0  0
  140.1230   78.7220  223.3830 C   0  0  1  0  0  0  0  0  0  0  0  0
  140.1890   80.1920  223.5430 C   0  0  0  0  0  0  0  0  0  0  0  0
  138.8760   80.8930  223.8850 C   0  0  0  0  0  0  0  0  0  0  0  0
  139.6440   81.1980  222.6390 C   0  0  0  0  0  0  0  0  0  0  0  0
  140.3760   74.0440  221.2160 C   0  0  0  0  0  0  0  0  0  0  0  0
  140.4560   72.6840  221.3660 C   0  0  0  0  0  0  0  0  0  0  0  0
  141.6460   72.0420  221.2230 C   0  0  0  0  0  0  0  0  0  0  0  0
  142.8000   72.7400  220.9220 C   0  0  0  0  0  0  0  0  0  0  0  0
  144.0140   72.1120  220.7720 C   0  0  0  0  0  0  0  0  0  0  0  0
  145.1280   72.8680  220.4730 C   0  0  0  0  0  0  0  0  0  0  0  0
  146.3150   72.2080  220.3320 F   0  0  0  0  0  0  0  0  0  0  0  0
  145.0410   74.2500  220.3210 C   0  0  0  0  0  0  0  0  0  0  0  0
  143.8190   74.8800  220.4720 C   0  0  0  0  0  0  0  0  0  0  0  0
  142.7060   74.1160  220.7720 C   0  0  0  0  0  0  0  0  0  0  0  0
  141.5140   74.7220  220.9200 N   0  0  0  0  0  0  0  0  0  0  0  0
  139.5750   75.4250  223.3040 H   0  0  0  0  0  0  0  0  0  0  0  0
  136.8299   75.9016  222.0261 H   0  0  0  0  0  0  0  0  0  0  0  0
  137.1445   75.9801  223.7732 H   0  0  0  0  0  0  0  0  0  0  0  0
  139.4904   77.4730  220.5123 H   0  0  0  0  0  0  0  0  0  0  0  0
  139.4128   79.2445  220.6458 H   0  0  0  0  0  0  0  0  0  0  0  0
  141.7334   79.3066  221.0131 H   0  0  0  0  0  0  0  0  0  0  0  0
  142.2900   76.7300  221.2220 H   0  0  0  0  0  0  0  0  0  0  0  0
  142.3448   78.5848  223.2642 H   0  0  0  0  0  0  0  0  0  0  0  0
  141.8930   76.2790  222.3650 H   0  0  0  0  0  0  0  0  0  0  0  0
  139.8613   78.4369  224.4127 H   0  0  0  0  0  0  0  0  0  0  0  0
  141.2058   80.0681  223.9440 H   0  0  0  0  0  0  0  0  0  0  0  0
  137.9230   80.3462  223.8313 H   0  0  0  0  0  0  0  0  0  0  0  0
  138.4861   81.4713  224.7356 H   0  0  0  0  0  0  0  0  0  0  0  0
  139.2408   80.8904  221.6629 H   0  0  0  0  0  0  0  0  0  0  0  0
  140.0425   82.1215  222.1937 H   0  0  0  0  0  0  0  0  0  0  0  0
  139.5501   72.1072  221.6040 H   0  0  0  0  0  0  0  0  0  0  0  0
  141.6908   70.9501  221.3489 H   0  0  0  0  0  0  0  0  0  0  0  0
  144.0956   71.0213  220.8889 H   0  0  0  0  0  0  0  0  0  0  0  0
  145.9398   74.8374  220.0820 H   0  0  0  0  0  0  0  0  0  0  0  0
  143.7339   75.9705  220.3554 H   0  0  0  0  0  0  0  0  0  0  0  0
  1  2  2  0
  2  3  1  0
  3  4  1  0
  4  5  1  0
  5  6  2  0
  5  7  1  0
  7  8  1  0
  8  9  1  0
  9 10  1  0
  9 11  1  0
 11 12  1  0
 11 13  1  0
 13 14  1  0
 14 15  1  0
 15 16  1  0
  2 17  1  0
 17 18  2  0
 18 19  1  0
 19 20  2  0
 20 21  1  0
 21 22  2  0
 22 23  1  0
 22 24  1  0
 24 25  2  0
 25 26  1  0
 26 27  2  0
 13  7  1  0
 16 14  1  0
 27 17  1  0
 26 20  1  0
  3 28  1  0
  4 29  1  0
  4 30  1  0
  8 31  1  0
  8 32  1  0
  9 33  1  6
 10 34  1  0
 11 35  1  1
 12 36  1  0
 13 37  1  1
 14 38  1  0
 15 39  1  0
 15 40  1  0
 16 41  1  0
 16 42  1  0
 18 43  1  0
 19 44  1  0
 21 45  1  0
 24 46  1  0
 25 47  1  0
M  END
>  <smiles>  (49) 
O=C(NCC(=O)N1C[C@H](O)[C@H](O)[C@H]1C1CC1)c1ccc2cc(F)ccc2n1

>  <score_type>  (49) 
oracle

>  <origin>  (49) 
autodockgpu

>  <m_score__min__energy>  (49) 
-7.7000000000000002

>  <m_primary>  (49) 
energy

>  <rmsd>  (49) 
6.011641201821136

>  <m_score__min__rmsd>  (49) 
6.011641201821136

>  <meeko>  (49) 
{"free_energy": -5.66, "intermolecular_energy": -7.75, "internal_energy": -4.85, "cluster_size": 24, "cluster_id": 4, "rank_in_cluster": 12}

>  <energy>  (49) 
-4.74

>  <cluster_rmsd>  (49) 
0.0

>  <cluster>  (49) 
6

$$$$

     RDKit          3D

 47 50  0  0  0  0  0  0  0  0999 V2000
  140.3140   74.2980  222.2000 O   0  0  0  0  0  0  0  0  0  0  0  0
  140.4790   73.1110  221.8050 C   0  0  0  0  0  0  0  0  0  0  0  0
  140.8280   72.7740  220.4690 N   0  0  0  0  0  0  0  0  0  0  0  0
  141.0220   73.8080  219.4370 C   0  0  0  0  0  0  0  0  0  0  0  0
  142.3870   73.6730  218.9600 C   0  0  0  0  0  0  0  0  0  0  0  0
  142.6680   74.1820  217.8180 O   0  0  0  0  0  0  0  0  0  0  0  0
  143.4650   73.0300  219.6170 N   0  0  0  0  0  0  0  0  0  0  0  0
  144.0670   73.5910  220.8320 C   0  0  0  0  0  0  0  0  0  0  0  0
  145.4840   73.0790  220.8980 C   0  0  2  0  0  0  0  0  0  0  0  0
  146.3740   74.1470  220.9830 O   0  0  0  0  0  0  0  0  0  0  0  0
  145.6380   72.2910  219.6100 C   0  0  2  0  0  0  0  0  0  0  0  0
  145.9770   73.1980  218.6110 O   0  0  0  0  0  0  0  0  0  0  0  0
  144.2000   71.8420  219.3440 C   0  0  1  0  0  0  0  0  0  0  0  0
  143.8540   70.6200  220.1050 C   0  0  0  0  0  0  0  0  0  0  0  0
  144.3670   69.3010  219.5340 C   0  0  0  0  0  0  0  0  0  0  0  0
  142.9090   69.5810  219.7130 C   0  0  0  0  0  0  0  0  0  0  0  0
  140.2960   72.0320  222.7950 C   0  0  0  0  0  0  0  0  0  0  0  0
  139.7300   70.8320  222.4510 C   0  0  0  0  0  0  0  0  0  0  0  0
  139.5700   69.8510  223.3800 C   0  0  0  0  0  0  0  0  0  0  0  0
  139.9730   70.0380  224.6880 C   0  0  0  0  0  0  0  0  0  0  0  0
  139.8220   69.0610  225.6440 C   0  0  0  0  0  0  0  0  0  0  0  0
  140.2440   69.3110  226.9330 C   0  0  0  0  0  0  0  0  0  0  0  0
  140.0780   68.3170  227.8530 F   0  0  0  0  0  0  0  0  0  0  0  0
  140.8190   70.5330  227.2770 C   0  0  0  0  0  0  0  0  0  0  0  0
  140.9710   71.5150  226.3150 C   0  0  0  0  0  0  0  0  0  0  0  0
  140.5450   71.2570  225.0240 C   0  0  0  0  0  0  0  0  0  0  0  0
  140.6890   72.2060  224.0830 N   0  0  0  0  0  0  0  0  0  0  0  0
  140.9380   71.7590  220.2610 H   0  0  0  0  0  0  0  0  0  0  0  0
  140.3144   73.6542  218.6089 H   0  0  0  0  0  0  0  0  0  0  0  0
  140.8445   74.8132  219.8468 H   0  0  0  0  0  0  0  0  0  0  0  0
  144.0642   74.6899  220.7824 H   0  0  0  0  0  0  0  0  0  0  0  0
  143.4994   73.2923  221.7256 H   0  0  0  0  0  0  0  0  0  0  0  0
  145.6952   72.4563  221.7798 H   0  0  0  0  0  0  0  0  0  0  0  0
  146.4340   74.5500  220.0700 H   0  0  0  0  0  0  0  0  0  0  0  0
  146.3774   71.4776  219.6502 H   0  0  0  0  0  0  0  0  0  0  0  0
  145.8110   74.1260  218.8800 H   0  0  0  0  0  0  0  0  0  0  0  0
  143.9799   71.4913  218.3249 H   0  0  0  0  0  0  0  0  0  0  0  0
  143.9163   71.2182  221.0260 H   0  0  0  0  0  0  0  0  0  0  0  0
  144.8069   69.2647  218.5264 H   0  0  0  0  0  0  0  0  0  0  0  0
  145.0678   68.5177  219.8586 H   0  0  0  0  0  0  0  0  0  0  0  0
  142.2716   69.7311  218.8292 H   0  0  0  0  0  0  0  0  0  0  0  0
  142.0880   69.0604  220.2278 H   0  0  0  0  0  0  0  0  0  0  0  0
  139.4023   70.6607  221.4150 H   0  0  0  0  0  0  0  0  0  0  0  0
  139.1130   68.8948  223.0852 H   0  0  0  0  0  0  0  0  0  0  0  0
  139.3703   68.0923  225.3839 H   0  0  0  0  0  0  0  0  0  0  0  0
  141.1507   70.7158  228.3097 H   0  0  0  0  0  0  0  0  0  0  0  0
  141.4228   72.4845  226.5718 H   0  0  0  0  0  0  0  0  0  0  0  0
  1  2  2  0
  2  3  1  0
  3  4  1  0
  4  5  1  0
  5  6  2  0
  5  7  1  0
  7  8  1  0
  8  9  1  0
  9 10  1  0
  9 11  1  0
 11 12  1  0
 11 13  1  0
 13 14  1  0
 14 15  1  0
 15 16  1  0
  2 17  1  0
 17 18  2  0
 18 19  1  0
 19 20  2  0
 20 21  1  0
 21 22  2  0
 22 23  1  0
 22 24  1  0
 24 25  2  0
 25 26  1  0
 26 27  2  0
 13  7  1  0
 16 14  1  0
 27 17  1  0
 26 20  1  0
  3 28  1  0
  4 29  1  0
  4 30  1  0
  8 31  1  0
  8 32  1  0
  9 33  1  1
 10 34  1  0
 11 35  1  1
 12 36  1  0
 13 37  1  6
 14 38  1  0
 15 39  1  0
 15 40  1  0
 16 41  1  0
 16 42  1  0
 18 43  1  0
 19 44  1  0
 21 45  1  0
 24 46  1  0
 25 47  1  0
M  END
>  <smiles>  (50) 
O=C(NCC(=O)N1C[C@H](O)[C@H](O)[C@H]1C1CC1)c1ccc2cc(F)ccc2n1

>  <score_type>  (50) 
oracle

>  <origin>  (50) 
autodockgpu

>  <m_score__min__energy>  (50) 
-7.7000000000000002

>  <m_primary>  (50) 
energy

>  <rmsd>  (50) 
4.144424795152487

>  <m_score__min__rmsd>  (50) 
4.144424795152487

>  <meeko>  (50) 
{"free_energy": -7.3, "intermolecular_energy": -9.39, "internal_energy": -2.84, "cluster_size": 11, "cluster_id": 1, "rank_in_cluster": 8}

>  <energy>  (50) 
-4.74

>  <cluster_rmsd>  (50) 
0.07

>  <cluster>  (50) 
6

$$$$
