
     RDKit          3D

 51 54  0  0  0  0  0  0  0  0999 V2000
  140.6090   71.7920  221.1390 O   0  0  0  0  0  0  0  0  0  0  0  0
  140.2250   72.2810  222.2340 C   0  0  0  0  0  0  0  0  0  0  0  0
  139.8900   73.6700  222.2190 N   0  0  0  0  0  0  0  0  0  0  0  0
  140.0340   74.3570  220.9390 C   0  0  0  0  0  0  0  0  0  0  0  0
  140.6160   75.6920  221.2310 C   0  0  0  0  0  0  0  0  0  0  0  0
  140.7040   76.0190  222.4470 O   0  0  0  0  0  0  0  0  0  0  0  0
  141.0440   76.5380  220.1700 N   0  0  0  0  0  0  0  0  0  0  0  0
  141.9930   76.0750  219.2000 C   0  0  0  0  0  0  0  0  0  0  0  0
  142.9520   77.1110  218.7120 C   0  0  0  0  0  0  0  0  0  0  0  0
  142.4170   78.5030  218.6560 C   0  0  0  0  0  0  0  0  0  0  0  0
  140.9420   78.5840  218.8800 C   0  0  0  0  0  0  0  0  0  0  0  0
  140.4790   77.8870  220.1160 C   0  0  2  0  0  0  0  0  0  0  0  0
  140.8070   78.6040  221.3780 C   0  0  0  0  0  0  0  0  0  0  0  0
  142.0990   79.0410  221.6650 C   0  0  0  0  0  0  0  0  0  0  0  0
  142.4070   79.7060  222.8340 C   0  0  0  0  0  0  0  0  0  0  0  0
  143.6780   80.1330  223.1100 F   0  0  0  0  0  0  0  0  0  0  0  0
  141.4270   79.9650  223.7740 C   0  0  0  0  0  0  0  0  0  0  0  0
  140.1390   79.5430  223.5150 C   0  0  0  0  0  0  0  0  0  0  0  0
  139.1670   79.7870  224.4240 F   0  0  0  0  0  0  0  0  0  0  0  0
  139.8520   78.8750  222.3350 C   0  0  0  0  0  0  0  0  0  0  0  0
  140.1230   71.4850  223.4470 C   0  0  0  0  0  0  0  0  0  0  0  0
  139.4410   70.2880  223.3810 C   0  0  0  0  0  0  0  0  0  0  0  0
  139.2840   69.4530  224.4750 C   0  0  0  0  0  0  0  0  0  0  0  0
  139.8510   69.8780  225.6600 C   0  0  0  0  0  0  0  0  0  0  0  0
  139.7260   69.0830  226.7880 C   0  0  0  0  0  0  0  0  0  0  0  0
  140.2790   69.4750  227.9890 C   0  0  0  0  0  0  0  0  0  0  0  0
  140.1450   68.6770  229.0870 F   0  0  0  0  0  0  0  0  0  0  0  0
  140.9570   70.6670  228.0510 C   0  0  0  0  0  0  0  0  0  0  0  0
  141.0900   71.4750  226.9280 C   0  0  0  0  0  0  0  0  0  0  0  0
  140.5340   71.0880  225.7060 C   0  0  0  0  0  0  0  0  0  0  0  0
  140.6650   71.8770  224.6130 N   0  0  0  0  0  0  0  0  0  0  0  0
  139.5630   74.1490  223.0880 H   0  0  0  0  0  0  0  0  0  0  0  0
  140.7040   73.7884  220.2774 H   0  0  0  0  0  0  0  0  0  0  0  0
  139.0630   74.4525  220.4311 H   0  0  0  0  0  0  0  0  0  0  0  0
  142.5741   75.2585  219.6535 H   0  0  0  0  0  0  0  0  0  0  0  0
  141.4082   75.7596  218.3234 H   0  0  0  0  0  0  0  0  0  0  0  0
  143.8238   77.1093  219.3828 H   0  0  0  0  0  0  0  0  0  0  0  0
  143.1921   76.8367  217.6742 H   0  0  0  0  0  0  0  0  0  0  0  0
  142.9201   79.1008  219.4303 H   0  0  0  0  0  0  0  0  0  0  0  0
  142.6118   78.8840  217.6426 H   0  0  0  0  0  0  0  0  0  0  0  0
  140.6607   79.6448  218.9545 H   0  0  0  0  0  0  0  0  0  0  0  0
  140.4615   78.0786  218.0293 H   0  0  0  0  0  0  0  0  0  0  0  0
  139.3816   77.8546  220.0479 H   0  0  0  0  0  0  0  0  0  0  0  0
  142.8996   78.8494  220.9354 H   0  0  0  0  0  0  0  0  0  0  0  0
  141.6684   80.4953  224.7070 H   0  0  0  0  0  0  0  0  0  0  0  0
  138.8178   78.5469  222.1541 H   0  0  0  0  0  0  0  0  0  0  0  0
  139.0032   69.9836  222.4189 H   0  0  0  0  0  0  0  0  0  0  0  0
  138.7365   68.5016  224.4035 H   0  0  0  0  0  0  0  0  0  0  0  0
  139.1804   68.1300  226.7249 H   0  0  0  0  0  0  0  0  0  0  0  0
  141.4020   70.9877  229.0045 H   0  0  0  0  0  0  0  0  0  0  0  0
  141.6371   72.4264  227.0018 H   0  0  0  0  0  0  0  0  0  0  0  0
  1  2  2  0
  2  3  1  0
  3  4  1  0
  4  5  1  0
  5  6  2  0
  5  7  1  0
  7  8  1  0
  8  9  1  0
  9 10  1  0
 10 11  1  0
 11 12  1  0
 12 13  1  0
 13 14  2  0
 14 15  1  0
 15 16  1  0
 15 17  2  0
 17 18  1  0
 18 19  1  0
 18 20  2  0
  2 21  1  0
 21 22  2  0
 22 23  1  0
 23 24  2  0
 24 25  1  0
 25 26  2  0
 26 27  1  0
 26 28  1  0
 28 29  2  0
 29 30  1  0
 30 31  2  0
 12  7  1  0
 20 13  1  0
 31 21  1  0
 30 24  1  0
  3 32  1  0
  4 33  1  0
  4 34  1  0
  8 35  1  0
  8 36  1  0
  9 37  1  0
  9 38  1  0
 10 39  1  0
 10 40  1  0
 11 41  1  0
 11 42  1  0
 12 43  1  6
 14 44  1  0
 17 45  1  0
 20 46  1  0
 22 47  1  0
 23 48  1  0
 25 49  1  0
 28 50  1  0
 29 51  1  0
M  END
>  <smiles>  (1) 
O=C(NCC(=O)N1CCCCC1c1cc(F)cc(F)c1)c1ccc2cc(F)ccc2n1

>  <score_type>  (1) 
oracle

>  <origin>  (1) 
autodockgpu

>  <m_score__min__energy>  (1) 
-8.9000000000000004

>  <m_primary>  (1) 
energy

>  <rmsd>  (1) 
1.945230138307805

>  <m_score__min__rmsd>  (1) 
1.945230138307805

>  <meeko>  (1) 
{"free_energy": -8.87, "intermolecular_energy": -10.36, "internal_energy": -1.72, "cluster_size": 33, "cluster_id": 1, "rank_in_cluster": 6}

>  <energy>  (1) 
-8.9

>  <cluster_rmsd>  (1) 
0.0

>  <cluster>  (1) 
1

$$$$

     RDKit          3D

 51 54  0  0  0  0  0  0  0  0999 V2000
  140.7720   72.2150  221.3340 O   0  0  0  0  0  0  0  0  0  0  0  0
  140.0400   72.4360  222.3340 C   0  0  0  0  0  0  0  0  0  0  0  0
  139.2310   73.6120  222.2740 N   0  0  0  0  0  0  0  0  0  0  0  0
  139.3490   74.4170  221.0620 C   0  0  0  0  0  0  0  0  0  0  0  0
  140.5530   75.2710  221.2290 C   0  0  0  0  0  0  0  0  0  0  0  0
  141.1330   75.2220  222.3480 O   0  0  0  0  0  0  0  0  0  0  0  0
  141.0050   76.0950  220.1590 N   0  0  0  0  0  0  0  0  0  0  0  0
  142.0020   75.6240  219.2430 C   0  0  0  0  0  0  0  0  0  0  0  0
  142.9580   76.6660  218.7610 C   0  0  0  0  0  0  0  0  0  0  0  0
  142.3950   78.0430  218.6400 C   0  0  0  0  0  0  0  0  0  0  0  0
  140.9110   78.0970  218.8030 C   0  0  0  0  0  0  0  0  0  0  0  0
  140.4130   77.4280  220.0400 C   0  0  2  0  0  0  0  0  0  0  0  0
  140.6740   78.1900  221.2910 C   0  0  0  0  0  0  0  0  0  0  0  0
  141.9430   78.6700  221.6130 C   0  0  0  0  0  0  0  0  0  0  0  0
  142.1890   79.3770  222.7720 C   0  0  0  0  0  0  0  0  0  0  0  0
  143.4370   79.8460  223.0820 F   0  0  0  0  0  0  0  0  0  0  0  0
  141.1670   79.6370  223.6670 C   0  0  0  0  0  0  0  0  0  0  0  0
  139.9020   79.1730  223.3730 C   0  0  0  0  0  0  0  0  0  0  0  0
  138.8900   79.4170  224.2360 F   0  0  0  0  0  0  0  0  0  0  0  0
  139.6770   78.4640  222.2030 C   0  0  0  0  0  0  0  0  0  0  0  0
  140.0130   71.5510  223.4880 C   0  0  0  0  0  0  0  0  0  0  0  0
  139.3880   70.3280  223.3510 C   0  0  0  0  0  0  0  0  0  0  0  0
  139.3040   69.4100  224.3840 C   0  0  0  0  0  0  0  0  0  0  0  0
  139.8830   69.7760  225.5820 C   0  0  0  0  0  0  0  0  0  0  0  0
  139.8300   68.8970  226.6520 C   0  0  0  0  0  0  0  0  0  0  0  0
  140.3970   69.2290  227.8640 C   0  0  0  0  0  0  0  0  0  0  0  0
  140.3330   68.3480  228.9040 F   0  0  0  0  0  0  0  0  0  0  0  0
  141.0170   70.4460  227.9970 C   0  0  0  0  0  0  0  0  0  0  0  0
  141.0790   71.3380  226.9330 C   0  0  0  0  0  0  0  0  0  0  0  0
  140.5070   71.0120  225.7000 C   0  0  0  0  0  0  0  0  0  0  0  0
  140.5680   71.8840  224.6660 N   0  0  0  0  0  0  0  0  0  0  0  0
  138.5970   73.8640  223.0650 H   0  0  0  0  0  0  0  0  0  0  0  0
  139.4663   73.7646  220.1841 H   0  0  0  0  0  0  0  0  0  0  0  0
  138.4490   75.0300  220.9064 H   0  0  0  0  0  0  0  0  0  0  0  0
  142.5814   74.8351  219.7450 H   0  0  0  0  0  0  0  0  0  0  0  0
  141.4601   75.2687  218.3541 H   0  0  0  0  0  0  0  0  0  0  0  0
  143.8017   76.7048  219.4658 H   0  0  0  0  0  0  0  0  0  0  0  0
  143.2466   76.3655  217.7430 H   0  0  0  0  0  0  0  0  0  0  0  0
  142.8535   78.6758  219.4142 H   0  0  0  0  0  0  0  0  0  0  0  0
  142.6217   78.3968  217.6234 H   0  0  0  0  0  0  0  0  0  0  0  0
  140.6043   79.1529  218.8331 H   0  0  0  0  0  0  0  0  0  0  0  0
  140.4766   77.5546  217.9503 H   0  0  0  0  0  0  0  0  0  0  0  0
  139.3202   77.3686  219.9288 H   0  0  0  0  0  0  0  0  0  0  0  0
  142.7755   78.4786  220.9200 H   0  0  0  0  0  0  0  0  0  0  0  0
  141.3588   80.2008  224.5919 H   0  0  0  0  0  0  0  0  0  0  0  0
  138.6588   78.1045  221.9933 H   0  0  0  0  0  0  0  0  0  0  0  0
  138.9378   70.0720  222.3805 H   0  0  0  0  0  0  0  0  0  0  0  0
  138.8020   68.4396  224.2565 H   0  0  0  0  0  0  0  0  0  0  0  0
  139.3303   67.9243  226.5331 H   0  0  0  0  0  0  0  0  0  0  0  0
  141.4718   70.7197  228.9604 H   0  0  0  0  0  0  0  0  0  0  0  0
  141.5819   72.3077  227.0622 H   0  0  0  0  0  0  0  0  0  0  0  0
  1  2  2  0
  2  3  1  0
  3  4  1  0
  4  5  1  0
  5  6  2  0
  5  7  1  0
  7  8  1  0
  8  9  1  0
  9 10  1  0
 10 11  1  0
 11 12  1  0
 12 13  1  0
 13 14  2  0
 14 15  1  0
 15 16  1  0
 15 17  2  0
 17 18  1  0
 18 19  1  0
 18 20  2  0
  2 21  1  0
 21 22  2  0
 22 23  1  0
 23 24  2  0
 24 25  1  0
 25 26  2  0
 26 27  1  0
 26 28  1  0
 28 29  2  0
 29 30  1  0
 30 31  2  0
 12  7  1  0
 20 13  1  0
 31 21  1  0
 30 24  1  0
  3 32  1  0
  4 33  1  0
  4 34  1  0
  8 35  1  0
  8 36  1  0
  9 37  1  0
  9 38  1  0
 10 39  1  0
 10 40  1  0
 11 41  1  0
 11 42  1  0
 12 43  1  6
 14 44  1  0
 17 45  1  0
 20 46  1  0
 22 47  1  0
 23 48  1  0
 25 49  1  0
 28 50  1  0
 29 51  1  0
M  END
>  <smiles>  (2) 
O=C(NCC(=O)N1CCCCC1c1cc(F)cc(F)c1)c1ccc2cc(F)ccc2n1

>  <score_type>  (2) 
oracle

>  <origin>  (2) 
autodockgpu

>  <m_score__min__energy>  (2) 
-8.9000000000000004

>  <m_primary>  (2) 
energy

>  <rmsd>  (2) 
1.7693018654029125

>  <m_score__min__rmsd>  (2) 
1.7693018654029125

>  <meeko>  (2) 
{"free_energy": -8.74, "intermolecular_energy": -10.23, "internal_energy": -1.41, "cluster_size": 33, "cluster_id": 1, "rank_in_cluster": 28}

>  <energy>  (2) 
-8.88

>  <cluster_rmsd>  (2) 
0.27

>  <cluster>  (2) 
1

$$$$

     RDKit          3D

 51 54  0  0  0  0  0  0  0  0999 V2000
  140.8860   72.0860  221.4590 O   0  0  0  0  0  0  0  0  0  0  0  0
  140.1310   72.3320  222.4360 C   0  0  0  0  0  0  0  0  0  0  0  0
  139.3060   73.4920  222.3160 N   0  0  0  0  0  0  0  0  0  0  0  0
  139.4370   74.2550  221.0780 C   0  0  0  0  0  0  0  0  0  0  0  0
  140.2280   75.4690  221.4030 C   0  0  0  0  0  0  0  0  0  0  0  0
  140.3080   75.7850  222.6220 O   0  0  0  0  0  0  0  0  0  0  0  0
  140.8530   76.2190  220.3680 N   0  0  0  0  0  0  0  0  0  0  0  0
  141.8940   75.6410  219.5690 C   0  0  0  0  0  0  0  0  0  0  0  0
  142.9780   76.5860  219.1640 C   0  0  0  0  0  0  0  0  0  0  0  0
  142.5480   78.0000  218.9550 C   0  0  0  0  0  0  0  0  0  0  0  0
  141.0650   78.1800  218.9640 C   0  0  0  0  0  0  0  0  0  0  0  0
  140.3910   77.5920  220.1590 C   0  0  2  0  0  0  0  0  0  0  0  0
  140.5890   78.3680  221.4120 C   0  0  0  0  0  0  0  0  0  0  0  0
  139.5230   78.7280  222.2350 C   0  0  0  0  0  0  0  0  0  0  0  0
  139.7020   79.4470  223.3990 C   0  0  0  0  0  0  0  0  0  0  0  0
  138.6510   79.7970  224.2030 F   0  0  0  0  0  0  0  0  0  0  0  0
  140.9680   79.8420  223.7920 C   0  0  0  0  0  0  0  0  0  0  0  0
  142.0410   79.5000  222.9960 C   0  0  0  0  0  0  0  0  0  0  0  0
  143.2860   79.8780  223.3650 F   0  0  0  0  0  0  0  0  0  0  0  0
  141.8380   78.7770  221.8310 C   0  0  0  0  0  0  0  0  0  0  0  0
  140.0920   71.4890  223.6210 C   0  0  0  0  0  0  0  0  0  0  0  0
  139.5070   70.2440  223.5100 C   0  0  0  0  0  0  0  0  0  0  0  0
  139.4160   69.3620  224.5740 C   0  0  0  0  0  0  0  0  0  0  0  0
  139.9480   69.7880  225.7750 C   0  0  0  0  0  0  0  0  0  0  0  0
  139.8860   68.9470  226.8740 C   0  0  0  0  0  0  0  0  0  0  0  0
  140.4060   69.3390  228.0900 C   0  0  0  0  0  0  0  0  0  0  0  0
  140.3350   68.4950  229.1590 F   0  0  0  0  0  0  0  0  0  0  0  0
  140.9870   70.5780  228.1950 C   0  0  0  0  0  0  0  0  0  0  0  0
  141.0560   71.4330  227.1020 C   0  0  0  0  0  0  0  0  0  0  0  0
  140.5320   71.0460  225.8650 C   0  0  0  0  0  0  0  0  0  0  0  0
  140.6010   71.8810  224.8010 N   0  0  0  0  0  0  0  0  0  0  0  0
  138.6520   73.7640  223.0850 H   0  0  0  0  0  0  0  0  0  0  0  0
  139.9587   73.6557  220.3174 H   0  0  0  0  0  0  0  0  0  0  0  0
  138.4498   74.5239  220.6742 H   0  0  0  0  0  0  0  0  0  0  0  0
  142.3518   74.8232  220.1448 H   0  0  0  0  0  0  0  0  0  0  0  0
  141.4155   75.3048  218.6373 H   0  0  0  0  0  0  0  0  0  0  0  0
  143.7471   76.5776  219.9504 H   0  0  0  0  0  0  0  0  0  0  0  0
  143.3408   76.2315  218.1879 H   0  0  0  0  0  0  0  0  0  0  0  0
  142.9784   78.6169  219.7576 H   0  0  0  0  0  0  0  0  0  0  0  0
  142.9043   78.3025  217.9592 H   0  0  0  0  0  0  0  0  0  0  0  0
  140.8469   79.2579  218.9389 H   0  0  0  0  0  0  0  0  0  0  0  0
  140.6738   77.6490  218.0836 H   0  0  0  0  0  0  0  0  0  0  0  0
  139.3138   77.6187  219.9379 H   0  0  0  0  0  0  0  0  0  0  0  0
  138.5045   78.4287  221.9467 H   0  0  0  0  0  0  0  0  0  0  0  0
  141.1156   80.4160  224.7187 H   0  0  0  0  0  0  0  0  0  0  0  0
  142.7109   78.5181  221.2137 H   0  0  0  0  0  0  0  0  0  0  0  0
  139.0960   69.9395  222.5362 H   0  0  0  0  0  0  0  0  0  0  0  0
  138.9446   68.3738  224.4679 H   0  0  0  0  0  0  0  0  0  0  0  0
  139.4174   67.9566  226.7760 H   0  0  0  0  0  0  0  0  0  0  0  0
  141.4049   70.8994  229.1604 H   0  0  0  0  0  0  0  0  0  0  0  0
  141.5263   72.4214  227.2107 H   0  0  0  0  0  0  0  0  0  0  0  0
  1  2  2  0
  2  3  1  0
  3  4  1  0
  4  5  1  0
  5  6  2  0
  5  7  1  0
  7  8  1  0
  8  9  1  0
  9 10  1  0
 10 11  1  0
 11 12  1  0
 12 13  1  0
 13 14  2  0
 14 15  1  0
 15 16  1  0
 15 17  2  0
 17 18  1  0
 18 19  1  0
 18 20  2  0
  2 21  1  0
 21 22  2  0
 22 23  1  0
 23 24  2  0
 24 25  1  0
 25 26  2  0
 26 27  1  0
 26 28  1  0
 28 29  2  0
 29 30  1  0
 30 31  2  0
 12  7  1  0
 20 13  1  0
 31 21  1  0
 30 24  1  0
  3 32  1  0
  4 33  1  0
  4 34  1  0
  8 35  1  0
  8 36  1  0
  9 37  1  0
  9 38  1  0
 10 39  1  0
 10 40  1  0
 11 41  1  0
 11 42  1  0
 12 43  1  6
 14 44  1  0
 17 45  1  0
 20 46  1  0
 22 47  1  0
 23 48  1  0
 25 49  1  0
 28 50  1  0
 29 51  1  0
M  END
>  <smiles>  (3) 
O=C(NCC(=O)N1CCCCC1c1cc(F)cc(F)c1)c1ccc2cc(F)ccc2n1

>  <score_type>  (3) 
oracle

>  <origin>  (3) 
autodockgpu

>  <m_score__min__energy>  (3) 
-8.9000000000000004

>  <m_primary>  (3) 
energy

>  <rmsd>  (3) 
1.8295807217187445

>  <m_score__min__rmsd>  (3) 
1.8295807217187445

>  <meeko>  (3) 
{"free_energy": -8.9, "intermolecular_energy": -10.39, "internal_energy": -1.45, "cluster_size": 33, "cluster_id": 1, "rank_in_cluster": 1}

>  <energy>  (3) 
-8.87

>  <cluster_rmsd>  (3) 
0.4

>  <cluster>  (3) 
1

$$$$

     RDKit          3D

 51 54  0  0  0  0  0  0  0  0999 V2000
  140.0910   71.3540  221.0710 O   0  0  0  0  0  0  0  0  0  0  0  0
  139.9230   71.8900  222.1980 C   0  0  0  0  0  0  0  0  0  0  0  0
  139.7330   73.3060  222.1990 N   0  0  0  0  0  0  0  0  0  0  0  0
  139.7570   73.9630  220.8950 C   0  0  0  0  0  0  0  0  0  0  0  0
  140.6410   75.1490  221.0280 C   0  0  0  0  0  0  0  0  0  0  0  0
  140.8650   75.5620  222.1990 O   0  0  0  0  0  0  0  0  0  0  0  0
  141.1930   75.7680  219.8710 N   0  0  0  0  0  0  0  0  0  0  0  0
  140.3620   76.1050  218.7530 C   0  0  0  0  0  0  0  0  0  0  0  0
  141.0090   75.9460  217.4160 C   0  0  0  0  0  0  0  0  0  0  0  0
  142.4790   76.2040  217.3830 C   0  0  0  0  0  0  0  0  0  0  0  0
  143.0090   76.7980  218.6470 C   0  0  0  0  0  0  0  0  0  0  0  0
  142.6310   76.0420  219.8760 C   0  0  2  0  0  0  0  0  0  0  0  0
  143.3690   74.7630  220.0560 C   0  0  0  0  0  0  0  0  0  0  0  0
  142.7740   73.5260  219.8130 C   0  0  0  0  0  0  0  0  0  0  0  0
  143.4550   72.3380  219.9780 C   0  0  0  0  0  0  0  0  0  0  0  0
  142.8660   71.1260  219.7370 F   0  0  0  0  0  0  0  0  0  0  0  0
  144.7740   72.3360  220.3960 C   0  0  0  0  0  0  0  0  0  0  0  0
  145.3870   73.5460  220.6440 C   0  0  0  0  0  0  0  0  0  0  0  0
  146.6750   73.5650  221.0540 F   0  0  0  0  0  0  0  0  0  0  0  0
  144.6830   74.7290  220.4720 C   0  0  0  0  0  0  0  0  0  0  0  0
  139.9200   71.1200  223.4320 C   0  0  0  0  0  0  0  0  0  0  0  0
  139.3190   69.8780  223.4190 C   0  0  0  0  0  0  0  0  0  0  0  0
  139.2590   69.0630  224.5360 C   0  0  0  0  0  0  0  0  0  0  0  0
  139.8380   69.5540  225.6890 C   0  0  0  0  0  0  0  0  0  0  0  0
  139.8090   68.7820  226.8390 C   0  0  0  0  0  0  0  0  0  0  0  0
  140.3760   69.2410  228.0100 C   0  0  0  0  0  0  0  0  0  0  0  0
  140.3370   68.4640  229.1300 F   0  0  0  0  0  0  0  0  0  0  0  0
  140.9730   70.4770  228.0180 C   0  0  0  0  0  0  0  0  0  0  0  0
  141.0100   71.2630  226.8730 C   0  0  0  0  0  0  0  0  0  0  0  0
  140.4380   70.8080  225.6820 C   0  0  0  0  0  0  0  0  0  0  0  0
  140.4760   71.5770  224.5680 N   0  0  0  0  0  0  0  0  0  0  0  0
  139.5870   73.8240  223.0940 H   0  0  0  0  0  0  0  0  0  0  0  0
  140.1555   73.2773  220.1328 H   0  0  0  0  0  0  0  0  0  0  0  0
  138.7443   74.2586  220.5834 H   0  0  0  0  0  0  0  0  0  0  0  0
  139.4729   75.4579  218.7812 H   0  0  0  0  0  0  0  0  0  0  0  0
  140.1266   77.1746  218.8558 H   0  0  0  0  0  0  0  0  0  0  0  0
  140.8376   74.9139  217.0763 H   0  0  0  0  0  0  0  0  0  0  0  0
  140.5524   76.7063  216.7652 H   0  0  0  0  0  0  0  0  0  0  0  0
  142.9959   75.2498  217.2034 H   0  0  0  0  0  0  0  0  0  0  0  0
  142.6610   76.9348  216.5813 H   0  0  0  0  0  0  0  0  0  0  0  0
  144.1067   76.8269  218.5823 H   0  0  0  0  0  0  0  0  0  0  0  0
  142.5644   77.7999  218.7395 H   0  0  0  0  0  0  0  0  0  0  0  0
  142.9096   76.6884  220.7213 H   0  0  0  0  0  0  0  0  0  0  0  0
  141.7265   73.4964  219.4785 H   0  0  0  0  0  0  0  0  0  0  0  0
  145.3211   71.3908  220.5275 H   0  0  0  0  0  0  0  0  0  0  0  0
  145.1952   75.6808  220.6763 H   0  0  0  0  0  0  0  0  0  0  0  0
  138.8686   69.5205  222.4813 H   0  0  0  0  0  0  0  0  0  0  0  0
  138.7752   68.0755  224.5066 H   0  0  0  0  0  0  0  0  0  0  0  0
  139.3288   67.7926  226.8182 H   0  0  0  0  0  0  0  0  0  0  0  0
  141.4296   70.8513  228.9461 H   0  0  0  0  0  0  0  0  0  0  0  0
  141.4931   72.2507  226.9042 H   0  0  0  0  0  0  0  0  0  0  0  0
  1  2  2  0
  2  3  1  0
  3  4  1  0
  4  5  1  0
  5  6  2  0
  5  7  1  0
  7  8  1  0
  8  9  1  0
  9 10  1  0
 10 11  1  0
 11 12  1  0
 12 13  1  0
 13 14  2  0
 14 15  1  0
 15 16  1  0
 15 17  2  0
 17 18  1  0
 18 19  1  0
 18 20  2  0
  2 21  1  0
 21 22  2  0
 22 23  1  0
 23 24  2  0
 24 25  1  0
 25 26  2  0
 26 27  1  0
 26 28  1  0
 28 29  2  0
 29 30  1  0
 30 31  2  0
 12  7  1  0
 20 13  1  0
 31 21  1  0
 30 24  1  0
  3 32  1  0
  4 33  1  0
  4 34  1  0
  8 35  1  0
  8 36  1  0
  9 37  1  0
  9 38  1  0
 10 39  1  0
 10 40  1  0
 11 41  1  0
 11 42  1  0
 12 43  1  1
 14 44  1  0
 17 45  1  0
 20 46  1  0
 22 47  1  0
 23 48  1  0
 25 49  1  0
 28 50  1  0
 29 51  1  0
M  END
>  <smiles>  (4) 
O=C(NCC(=O)N1CCCCC1c1cc(F)cc(F)c1)c1ccc2cc(F)ccc2n1

>  <score_type>  (4) 
oracle

>  <origin>  (4) 
autodockgpu

>  <m_score__min__energy>  (4) 
-8.9000000000000004

>  <m_primary>  (4) 
energy

>  <rmsd>  (4) 
1.5178340136760615

>  <m_score__min__rmsd>  (4) 
1.5178340136760615

>  <meeko>  (4) 
{"free_energy": -8.29, "intermolecular_energy": -9.78, "internal_energy": -1.94, "cluster_size": 12, "cluster_id": 2, "rank_in_cluster": 5}

>  <energy>  (4) 
-8.87

>  <cluster_rmsd>  (4) 
0.09

>  <cluster>  (4) 
1

$$$$

     RDKit          3D

 51 54  0  0  0  0  0  0  0  0999 V2000
  140.3110   73.7530  222.3430 O   0  0  0  0  0  0  0  0  0  0  0  0
  140.4340   72.5040  222.2420 C   0  0  0  0  0  0  0  0  0  0  0  0
  140.7240   72.0040  220.9350 N   0  0  0  0  0  0  0  0  0  0  0  0
  140.8420   72.9990  219.8730 C   0  0  0  0  0  0  0  0  0  0  0  0
  141.9090   72.5230  218.9560 C   0  0  0  0  0  0  0  0  0  0  0  0
  141.5340   72.0260  217.8590 O   0  0  0  0  0  0  0  0  0  0  0  0
  143.2790   72.6350  219.3250 N   0  0  0  0  0  0  0  0  0  0  0  0
  143.7880   71.9400  220.4710 C   0  0  0  0  0  0  0  0  0  0  0  0
  144.8390   72.6750  221.2380 C   0  0  0  0  0  0  0  0  0  0  0  0
  145.7220   73.5600  220.4240 C   0  0  0  0  0  0  0  0  0  0  0  0
  145.5490   73.3840  218.9510 C   0  0  0  0  0  0  0  0  0  0  0  0
  144.1330   73.4820  218.4920 C   0  0  2  0  0  0  0  0  0  0  0  0
  143.5890   74.8660  218.4870 C   0  0  0  0  0  0  0  0  0  0  0  0
  143.1190   75.4800  219.6470 C   0  0  0  0  0  0  0  0  0  0  0  0
  142.6140   76.7640  219.6460 C   0  0  0  0  0  0  0  0  0  0  0  0
  142.1540   77.3610  220.7880 F   0  0  0  0  0  0  0  0  0  0  0  0
  142.5570   77.4960  218.4740 C   0  0  0  0  0  0  0  0  0  0  0  0
  143.0150   76.9120  217.3110 C   0  0  0  0  0  0  0  0  0  0  0  0
  142.9680   77.6130  216.1550 F   0  0  0  0  0  0  0  0  0  0  0  0
  143.5180   75.6210  217.3340 C   0  0  0  0  0  0  0  0  0  0  0  0
  140.2930   71.6140  223.3840 C   0  0  0  0  0  0  0  0  0  0  0  0
  139.6900   70.3900  223.1790 C   0  0  0  0  0  0  0  0  0  0  0  0
  139.5050   69.4670  224.1950 C   0  0  0  0  0  0  0  0  0  0  0  0
  139.9580   69.8290  225.4470 C   0  0  0  0  0  0  0  0  0  0  0  0
  139.7990   68.9460  226.5020 C   0  0  0  0  0  0  0  0  0  0  0  0
  140.2390   69.2750  227.7680 C   0  0  0  0  0  0  0  0  0  0  0  0
  140.0730   68.3890  228.7920 F   0  0  0  0  0  0  0  0  0  0  0  0
  140.8380   70.4930  227.9670 C   0  0  0  0  0  0  0  0  0  0  0  0
  141.0030   71.3900  226.9190 C   0  0  0  0  0  0  0  0  0  0  0  0
  140.5610   71.0680  225.6330 C   0  0  0  0  0  0  0  0  0  0  0  0
  140.7240   71.9440  224.6130 N   0  0  0  0  0  0  0  0  0  0  0  0
  140.8410   70.9790  220.7700 H   0  0  0  0  0  0  0  0  0  0  0  0
  139.8891   73.0891  219.3309 H   0  0  0  0  0  0  0  0  0  0  0  0
  141.0880   73.9888  220.2849 H   0  0  0  0  0  0  0  0  0  0  0  0
  142.9465   71.7397  221.1505 H   0  0  0  0  0  0  0  0  0  0  0  0
  144.2672   71.0263  220.0895 H   0  0  0  0  0  0  0  0  0  0  0  0
  144.3359   73.2981  221.9921 H   0  0  0  0  0  0  0  0  0  0  0  0
  145.4953   71.9045  221.6688 H   0  0  0  0  0  0  0  0  0  0  0  0
  145.4959   74.6060  220.6784 H   0  0  0  0  0  0  0  0  0  0  0  0
  146.7607   73.2872  220.6621 H   0  0  0  0  0  0  0  0  0  0  0  0
  146.1337   74.1620  218.4383 H   0  0  0  0  0  0  0  0  0  0  0  0
  145.8933   72.3678  218.7086 H   0  0  0  0  0  0  0  0  0  0  0  0
  144.1333   73.1397  217.4466 H   0  0  0  0  0  0  0  0  0  0  0  0
  143.1519   74.9223  220.5946 H   0  0  0  0  0  0  0  0  0  0  0  0
  142.1558   78.5202  218.4692 H   0  0  0  0  0  0  0  0  0  0  0  0
  143.8762   75.1789  216.3926 H   0  0  0  0  0  0  0  0  0  0  0  0
  139.3418   70.1367  222.1668 H   0  0  0  0  0  0  0  0  0  0  0  0
  139.0219   68.4956  224.0132 H   0  0  0  0  0  0  0  0  0  0  0  0
  139.3171   67.9724  226.3291 H   0  0  0  0  0  0  0  0  0  0  0  0
  141.1933   70.7637  228.9722 H   0  0  0  0  0  0  0  0  0  0  0  0
  141.4854   72.3613  227.1030 H   0  0  0  0  0  0  0  0  0  0  0  0
  1  2  2  0
  2  3  1  0
  3  4  1  0
  4  5  1  0
  5  6  2  0
  5  7  1  0
  7  8  1  0
  8  9  1  0
  9 10  1  0
 10 11  1  0
 11 12  1  0
 12 13  1  0
 13 14  2  0
 14 15  1  0
 15 16  1  0
 15 17  2  0
 17 18  1  0
 18 19  1  0
 18 20  2  0
  2 21  1  0
 21 22  2  0
 22 23  1  0
 23 24  2  0
 24 25  1  0
 25 26  2  0
 26 27  1  0
 26 28  1  0
 28 29  2  0
 29 30  1  0
 30 31  2  0
 12  7  1  0
 20 13  1  0
 31 21  1  0
 30 24  1  0
  3 32  1  0
  4 33  1  0
  4 34  1  0
  8 35  1  0
  8 36  1  0
  9 37  1  0
  9 38  1  0
 10 39  1  0
 10 40  1  0
 11 41  1  0
 11 42  1  0
 12 43  1  6
 14 44  1  0
 17 45  1  0
 20 46  1  0
 22 47  1  0
 23 48  1  0
 25 49  1  0
 28 50  1  0
 29 51  1  0
M  END
>  <smiles>  (5) 
O=C(NCC(=O)N1CCCCC1c1cc(F)cc(F)c1)c1ccc2cc(F)ccc2n1

>  <score_type>  (5) 
oracle

>  <origin>  (5) 
autodockgpu

>  <m_score__min__energy>  (5) 
-8.9000000000000004

>  <m_primary>  (5) 
energy

>  <rmsd>  (5) 
3.8947970712285107

>  <m_score__min__rmsd>  (5) 
3.8947970712285107

>  <meeko>  (5) 
{"free_energy": -7.52, "intermolecular_energy": -9.01, "internal_energy": -1.56, "cluster_size": 1, "cluster_id": 4, "rank_in_cluster": 1}

>  <energy>  (5) 
-8.87

>  <cluster_rmsd>  (5) 
0.34

>  <cluster>  (5) 
1

$$$$

     RDKit          3D

 51 54  0  0  0  0  0  0  0  0999 V2000
  140.8620   72.0150  221.2920 O   0  0  0  0  0  0  0  0  0  0  0  0
  140.2020   72.3370  222.3140 C   0  0  0  0  0  0  0  0  0  0  0  0
  139.4970   73.5780  222.2430 N   0  0  0  0  0  0  0  0  0  0  0  0
  139.6250   74.3240  220.9940 C   0  0  0  0  0  0  0  0  0  0  0  0
  140.5210   75.4760  221.2740 C   0  0  0  0  0  0  0  0  0  0  0  0
  140.7860   75.7090  222.4850 O   0  0  0  0  0  0  0  0  0  0  0  0
  141.0390   76.2610  220.2050 N   0  0  0  0  0  0  0  0  0  0  0  0
  142.0180   75.7220  219.3070 C   0  0  0  0  0  0  0  0  0  0  0  0
  143.0430   76.6990  218.8320 C   0  0  0  0  0  0  0  0  0  0  0  0
  142.5680   78.1060  218.6910 C   0  0  0  0  0  0  0  0  0  0  0  0
  141.0880   78.2530  218.8320 C   0  0  0  0  0  0  0  0  0  0  0  0
  140.5320   77.6270  220.0670 C   0  0  2  0  0  0  0  0  0  0  0  0
  140.8210   78.3820  221.3150 C   0  0  0  0  0  0  0  0  0  0  0  0
  142.1010   78.8440  221.6190 C   0  0  0  0  0  0  0  0  0  0  0  0
  142.3730   79.5450  222.7760 C   0  0  0  0  0  0  0  0  0  0  0  0
  143.6320   79.9970  223.0690 F   0  0  0  0  0  0  0  0  0  0  0  0
  141.3680   79.8160  223.6870 C   0  0  0  0  0  0  0  0  0  0  0  0
  140.0930   79.3700  223.4100 C   0  0  0  0  0  0  0  0  0  0  0  0
  139.0970   79.6250  224.2890 F   0  0  0  0  0  0  0  0  0  0  0  0
  139.8410   78.6670  222.2420 C   0  0  0  0  0  0  0  0  0  0  0  0
  140.1530   71.5010  223.5040 C   0  0  0  0  0  0  0  0  0  0  0  0
  139.5590   70.2600  223.3980 C   0  0  0  0  0  0  0  0  0  0  0  0
  139.4580   69.3840  224.4660 C   0  0  0  0  0  0  0  0  0  0  0  0
  139.9880   69.8130  225.6660 C   0  0  0  0  0  0  0  0  0  0  0  0
  139.9160   68.9790  226.7700 C   0  0  0  0  0  0  0  0  0  0  0  0
  140.4330   69.3740  227.9860 C   0  0  0  0  0  0  0  0  0  0  0  0
  140.3520   68.5370  229.0590 F   0  0  0  0  0  0  0  0  0  0  0  0
  141.0230   70.6100  228.0870 C   0  0  0  0  0  0  0  0  0  0  0  0
  141.1020   71.4580  226.9890 C   0  0  0  0  0  0  0  0  0  0  0  0
  140.5800   71.0670  225.7530 C   0  0  0  0  0  0  0  0  0  0  0  0
  140.6600   71.8960  224.6840 N   0  0  0  0  0  0  0  0  0  0  0  0
  138.9260   73.9150  223.0500 H   0  0  0  0  0  0  0  0  0  0  0  0
  140.0628   73.6842  220.2136 H   0  0  0  0  0  0  0  0  0  0  0  0
  138.6429   74.6651  220.6347 H   0  0  0  0  0  0  0  0  0  0  0  0
  142.5403   74.9029  219.8230 H   0  0  0  0  0  0  0  0  0  0  0  0
  141.4679   75.3937  218.4128 H   0  0  0  0  0  0  0  0  0  0  0  0
  143.8766   76.6924  219.5497 H   0  0  0  0  0  0  0  0  0  0  0  0
  143.3280   76.3723  217.8210 H   0  0  0  0  0  0  0  0  0  0  0  0
  143.0538   78.7167  219.4662 H   0  0  0  0  0  0  0  0  0  0  0  0
  142.8302   78.4354  217.6747 H   0  0  0  0  0  0  0  0  0  0  0  0
  140.8469   79.3261  218.8492 H   0  0  0  0  0  0  0  0  0  0  0  0
  140.6330   77.7309  217.9774 H   0  0  0  0  0  0  0  0  0  0  0  0
  139.4393   77.6342  219.9404 H   0  0  0  0  0  0  0  0  0  0  0  0
  142.9207   78.6431  220.9135 H   0  0  0  0  0  0  0  0  0  0  0  0
  141.5809   80.3742  224.6106 H   0  0  0  0  0  0  0  0  0  0  0  0
  138.8151   78.3217  222.0464 H   0  0  0  0  0  0  0  0  0  0  0  0
  139.1485   69.9537  222.4245 H   0  0  0  0  0  0  0  0  0  0  0  0
  138.9805   68.3984  224.3633 H   0  0  0  0  0  0  0  0  0  0  0  0
  139.4414   67.9912  226.6756 H   0  0  0  0  0  0  0  0  0  0  0  0
  141.4396   70.9338  229.0522 H   0  0  0  0  0  0  0  0  0  0  0  0
  141.5787   72.4438  227.0934 H   0  0  0  0  0  0  0  0  0  0  0  0
  1  2  2  0
  2  3  1  0
  3  4  1  0
  4  5  1  0
  5  6  2  0
  5  7  1  0
  7  8  1  0
  8  9  1  0
  9 10  1  0
 10 11  1  0
 11 12  1  0
 12 13  1  0
 13 14  2  0
 14 15  1  0
 15 16  1  0
 15 17  2  0
 17 18  1  0
 18 19  1  0
 18 20  2  0
  2 21  1  0
 21 22  2  0
 22 23  1  0
 23 24  2  0
 24 25  1  0
 25 26  2  0
 26 27  1  0
 26 28  1  0
 28 29  2  0
 29 30  1  0
 30 31  2  0
 12  7  1  0
 20 13  1  0
 31 21  1  0
 30 24  1  0
  3 32  1  0
  4 33  1  0
  4 34  1  0
  8 35  1  0
  8 36  1  0
  9 37  1  0
  9 38  1  0
 10 39  1  0
 10 40  1  0
 11 41  1  0
 11 42  1  0
 12 43  1  6
 14 44  1  0
 17 45  1  0
 20 46  1  0
 22 47  1  0
 23 48  1  0
 25 49  1  0
 28 50  1  0
 29 51  1  0
M  END
>  <smiles>  (6) 
O=C(NCC(=O)N1CCCCC1c1cc(F)cc(F)c1)c1ccc2cc(F)ccc2n1

>  <score_type>  (6) 
oracle

>  <origin>  (6) 
autodockgpu

>  <m_score__min__energy>  (6) 
-8.9000000000000004

>  <m_primary>  (6) 
energy

>  <rmsd>  (6) 
1.8375734733484732

>  <m_score__min__rmsd>  (6) 
1.8375734733484732

>  <meeko>  (6) 
{"free_energy": -8.88, "intermolecular_energy": -10.37, "internal_energy": -1.46, "cluster_size": 33, "cluster_id": 1, "rank_in_cluster": 2}

>  <energy>  (6) 
-8.87

>  <cluster_rmsd>  (6) 
0.44

>  <cluster>  (6) 
1

$$$$

     RDKit          3D

 51 54  0  0  0  0  0  0  0  0999 V2000
  140.5990   71.7740  221.1460 O   0  0  0  0  0  0  0  0  0  0  0  0
  140.2270   72.2630  222.2450 C   0  0  0  0  0  0  0  0  0  0  0  0
  139.8980   73.6530  222.2360 N   0  0  0  0  0  0  0  0  0  0  0  0
  140.0320   74.3410  220.9560 C   0  0  0  0  0  0  0  0  0  0  0  0
  140.5780   75.6910  221.2500 C   0  0  0  0  0  0  0  0  0  0  0  0
  140.6110   76.0380  222.4620 O   0  0  0  0  0  0  0  0  0  0  0  0
  141.0320   76.5300  220.1930 N   0  0  0  0  0  0  0  0  0  0  0  0
  141.9860   76.0510  219.2360 C   0  0  0  0  0  0  0  0  0  0  0  0
  142.9670   77.0720  218.7600 C   0  0  0  0  0  0  0  0  0  0  0  0
  142.4520   78.4710  218.6940 C   0  0  0  0  0  0  0  0  0  0  0  0
  140.9760   78.5740  218.8990 C   0  0  0  0  0  0  0  0  0  0  0  0
  140.4860   77.8860  220.1290 C   0  0  2  0  0  0  0  0  0  0  0  0
  140.8080   78.6000  221.3940 C   0  0  0  0  0  0  0  0  0  0  0  0
  139.8380   78.8700  222.3580 C   0  0  0  0  0  0  0  0  0  0  0  0
  140.1320   79.5320  223.5320 C   0  0  0  0  0  0  0  0  0  0  0  0
  139.1750   79.7930  224.4750 F   0  0  0  0  0  0  0  0  0  0  0  0
  141.4220   79.9560  223.7950 C   0  0  0  0  0  0  0  0  0  0  0  0
  142.4020   79.7020  222.8580 C   0  0  0  0  0  0  0  0  0  0  0  0
  143.6690   80.1100  223.0980 F   0  0  0  0  0  0  0  0  0  0  0  0
  142.0840   79.0370  221.6840 C   0  0  0  0  0  0  0  0  0  0  0  0
  140.1340   71.4650  223.4590 C   0  0  0  0  0  0  0  0  0  0  0  0
  139.5030   70.2410  223.3810 C   0  0  0  0  0  0  0  0  0  0  0  0
  139.3590   69.4020  224.4730 C   0  0  0  0  0  0  0  0  0  0  0  0
  139.8840   69.8510  225.6690 C   0  0  0  0  0  0  0  0  0  0  0  0
  139.7690   69.0540  226.7960 C   0  0  0  0  0  0  0  0  0  0  0  0
  140.2810   69.4700  228.0070 C   0  0  0  0  0  0  0  0  0  0  0  0
  140.1580   68.6690  229.1040 F   0  0  0  0  0  0  0  0  0  0  0  0
  140.9080   70.6890  228.0800 C   0  0  0  0  0  0  0  0  0  0  0  0
  141.0300   71.5000  226.9580 C   0  0  0  0  0  0  0  0  0  0  0  0
  140.5150   71.0880  225.7260 C   0  0  0  0  0  0  0  0  0  0  0  0
  140.6360   71.8810  224.6340 N   0  0  0  0  0  0  0  0  0  0  0  0
  139.5810   74.1310  223.1090 H   0  0  0  0  0  0  0  0  0  0  0  0
  140.7204   73.7888  220.2994 H   0  0  0  0  0  0  0  0  0  0  0  0
  139.0621   74.4107  220.4417 H   0  0  0  0  0  0  0  0  0  0  0  0
  142.5484   75.2261  219.6978 H   0  0  0  0  0  0  0  0  0  0  0  0
  141.4081   75.7432  218.3521 H   0  0  0  0  0  0  0  0  0  0  0  0
  143.8289   77.0593  219.4434 H   0  0  0  0  0  0  0  0  0  0  0  0
  143.2189   76.7922  217.7264 H   0  0  0  0  0  0  0  0  0  0  0  0
  142.9537   79.0636  219.4732 H   0  0  0  0  0  0  0  0  0  0  0  0
  142.6646   78.8461  217.6820 H   0  0  0  0  0  0  0  0  0  0  0  0
  140.7097   79.6390  218.9687 H   0  0  0  0  0  0  0  0  0  0  0  0
  140.4995   78.0741  218.0428 H   0  0  0  0  0  0  0  0  0  0  0  0
  139.3893   77.8690  220.0458 H   0  0  0  0  0  0  0  0  0  0  0  0
  138.8032   78.5442  222.1764 H   0  0  0  0  0  0  0  0  0  0  0  0
  141.6610   80.4837  224.7301 H   0  0  0  0  0  0  0  0  0  0  0  0
  142.8835   78.8497  220.9521 H   0  0  0  0  0  0  0  0  0  0  0  0
  139.0973   69.9179  222.4109 H   0  0  0  0  0  0  0  0  0  0  0  0
  138.8529   68.4287  224.3922 H   0  0  0  0  0  0  0  0  0  0  0  0
  139.2641   68.0793  226.7243 H   0  0  0  0  0  0  0  0  0  0  0  0
  141.3202   71.0292  229.0414 H   0  0  0  0  0  0  0  0  0  0  0  0
  141.5357   72.4734  227.0403 H   0  0  0  0  0  0  0  0  0  0  0  0
  1  2  2  0
  2  3  1  0
  3  4  1  0
  4  5  1  0
  5  6  2  0
  5  7  1  0
  7  8  1  0
  8  9  1  0
  9 10  1  0
 10 11  1  0
 11 12  1  0
 12 13  1  0
 13 14  2  0
 14 15  1  0
 15 16  1  0
 15 17  2  0
 17 18  1  0
 18 19  1  0
 18 20  2  0
  2 21  1  0
 21 22  2  0
 22 23  1  0
 23 24  2  0
 24 25  1  0
 25 26  2  0
 26 27  1  0
 26 28  1  0
 28 29  2  0
 29 30  1  0
 30 31  2  0
 12  7  1  0
 20 13  1  0
 31 21  1  0
 30 24  1  0
  3 32  1  0
  4 33  1  0
  4 34  1  0
  8 35  1  0
  8 36  1  0
  9 37  1  0
  9 38  1  0
 10 39  1  0
 10 40  1  0
 11 41  1  0
 11 42  1  0
 12 43  1  6
 14 44  1  0
 17 45  1  0
 20 46  1  0
 22 47  1  0
 23 48  1  0
 25 49  1  0
 28 50  1  0
 29 51  1  0
M  END
>  <smiles>  (7) 
O=C(NCC(=O)N1CCCCC1c1cc(F)cc(F)c1)c1ccc2cc(F)ccc2n1

>  <score_type>  (7) 
oracle

>  <origin>  (7) 
autodockgpu

>  <m_score__min__energy>  (7) 
-8.9000000000000004

>  <m_primary>  (7) 
energy

>  <rmsd>  (7) 
1.9403446252735428

>  <m_score__min__rmsd>  (7) 
1.9403446252735428

>  <meeko>  (7) 
{"free_energy": -8.85, "intermolecular_energy": -10.35, "internal_energy": -1.74, "cluster_size": 33, "cluster_id": 1, "rank_in_cluster": 10}

>  <energy>  (7) 
-8.87

>  <cluster_rmsd>  (7) 
0.45

>  <cluster>  (7) 
1

$$$$

     RDKit          3D

 51 54  0  0  0  0  0  0  0  0999 V2000
  141.1320   72.1250  221.4420 O   0  0  0  0  0  0  0  0  0  0  0  0
  140.3730   72.4380  222.3970 C   0  0  0  0  0  0  0  0  0  0  0  0
  139.6740   73.6760  222.2640 N   0  0  0  0  0  0  0  0  0  0  0  0
  139.9220   74.4320  221.0390 C   0  0  0  0  0  0  0  0  0  0  0  0
  139.1590   75.7010  221.1560 C   0  0  0  0  0  0  0  0  0  0  0  0
  138.0990   75.7900  220.4780 O   0  0  0  0  0  0  0  0  0  0  0  0
  139.6270   76.7470  221.9990 N   0  0  0  0  0  0  0  0  0  0  0  0
  138.7060   77.5760  222.7200 C   0  0  0  0  0  0  0  0  0  0  0  0
  139.1190   79.0050  222.8580 C   0  0  0  0  0  0  0  0  0  0  0  0
  140.5900   79.2410  222.9450 C   0  0  0  0  0  0  0  0  0  0  0  0
  141.3850   77.9860  223.1090 C   0  0  0  0  0  0  0  0  0  0  0  0
  141.0750   76.9360  222.0950 C   0  0  2  0  0  0  0  0  0  0  0  0
  141.6200   77.2180  220.7400 C   0  0  0  0  0  0  0  0  0  0  0  0
  142.4250   76.3040  220.0620 C   0  0  0  0  0  0  0  0  0  0  0  0
  142.9330   76.5620  218.8050 C   0  0  0  0  0  0  0  0  0  0  0  0
  143.7220   75.6600  218.1440 F   0  0  0  0  0  0  0  0  0  0  0  0
  142.6540   77.7570  218.1670 C   0  0  0  0  0  0  0  0  0  0  0  0
  141.8600   78.6790  218.8150 C   0  0  0  0  0  0  0  0  0  0  0  0
  141.5770   79.8540  218.2070 F   0  0  0  0  0  0  0  0  0  0  0  0
  141.3610   78.4000  220.0780 C   0  0  0  0  0  0  0  0  0  0  0  0
  140.2110   71.5930  223.5700 C   0  0  0  0  0  0  0  0  0  0  0  0
  139.5150   70.4100  223.4250 C   0  0  0  0  0  0  0  0  0  0  0  0
  139.3020   69.5330  224.4740 C   0  0  0  0  0  0  0  0  0  0  0  0
  139.8250   69.8980  225.6990 C   0  0  0  0  0  0  0  0  0  0  0  0
  139.6430   69.0580  226.7850 C   0  0  0  0  0  0  0  0  0  0  0  0
  140.1500   69.3910  228.0240 C   0  0  0  0  0  0  0  0  0  0  0  0
  139.9600   68.5490  229.0800 F   0  0  0  0  0  0  0  0  0  0  0  0
  140.8420   70.5680  228.1640 C   0  0  0  0  0  0  0  0  0  0  0  0
  141.0320   71.4200  227.0840 C   0  0  0  0  0  0  0  0  0  0  0  0
  140.5210   71.0940  225.8250 C   0  0  0  0  0  0  0  0  0  0  0  0
  140.7090   71.9260  224.7730 N   0  0  0  0  0  0  0  0  0  0  0  0
  139.0240   74.0060  223.0130 H   0  0  0  0  0  0  0  0  0  0  0  0
  140.9964   74.6442  220.9359 H   0  0  0  0  0  0  0  0  0  0  0  0
  139.6065   73.8620  220.1527 H   0  0  0  0  0  0  0  0  0  0  0  0
  137.7396   77.5491  222.1953 H   0  0  0  0  0  0  0  0  0  0  0  0
  138.6596   77.1690  223.7409 H   0  0  0  0  0  0  0  0  0  0  0  0
  138.7384   79.5541  221.9841 H   0  0  0  0  0  0  0  0  0  0  0  0
  138.6997   79.3505  223.8145 H   0  0  0  0  0  0  0  0  0  0  0  0
  140.9175   79.7430  222.0226 H   0  0  0  0  0  0  0  0  0  0  0  0
  140.7673   79.8563  223.8394 H   0  0  0  0  0  0  0  0  0  0  0  0
  142.4524   78.2395  223.0296 H   0  0  0  0  0  0  0  0  0  0  0  0
  141.1217   77.5679  224.0918 H   0  0  0  0  0  0  0  0  0  0  0  0
  141.5721   76.0214  222.4505 H   0  0  0  0  0  0  0  0  0  0  0  0
  142.6634   75.3449  220.5451 H   0  0  0  0  0  0  0  0  0  0  0  0
  143.0566   77.9670  217.1651 H   0  0  0  0  0  0  0  0  0  0  0  0
  140.7314   79.1537  220.5735 H   0  0  0  0  0  0  0  0  0  0  0  0
  139.1127   70.1535  222.4339 H   0  0  0  0  0  0  0  0  0  0  0  0
  138.7451   68.5940  224.3392 H   0  0  0  0  0  0  0  0  0  0  0  0
  139.0889   68.1162  226.6584 H   0  0  0  0  0  0  0  0  0  0  0  0
  141.2526   70.8408  229.1474 H   0  0  0  0  0  0  0  0  0  0  0  0
  141.5890   72.3586  227.2207 H   0  0  0  0  0  0  0  0  0  0  0  0
  1  2  2  0
  2  3  1  0
  3  4  1  0
  4  5  1  0
  5  6  2  0
  5  7  1  0
  7  8  1  0
  8  9  1  0
  9 10  1  0
 10 11  1  0
 11 12  1  0
 12 13  1  0
 13 14  2  0
 14 15  1  0
 15 16  1  0
 15 17  2  0
 17 18  1  0
 18 19  1  0
 18 20  2  0
  2 21  1  0
 21 22  2  0
 22 23  1  0
 23 24  2  0
 24 25  1  0
 25 26  2  0
 26 27  1  0
 26 28  1  0
 28 29  2  0
 29 30  1  0
 30 31  2  0
 12  7  1  0
 20 13  1  0
 31 21  1  0
 30 24  1  0
  3 32  1  0
  4 33  1  0
  4 34  1  0
  8 35  1  0
  8 36  1  0
  9 37  1  0
  9 38  1  0
 10 39  1  0
 10 40  1  0
 11 41  1  0
 11 42  1  0
 12 43  1  1
 14 44  1  0
 17 45  1  0
 20 46  1  0
 22 47  1  0
 23 48  1  0
 25 49  1  0
 28 50  1  0
 29 51  1  0
M  END
>  <smiles>  (8) 
O=C(NCC(=O)N1CCCCC1c1cc(F)cc(F)c1)c1ccc2cc(F)ccc2n1

>  <score_type>  (8) 
oracle

>  <origin>  (8) 
autodockgpu

>  <m_score__min__energy>  (8) 
-8.9000000000000004

>  <m_primary>  (8) 
energy

>  <rmsd>  (8) 
3.1727467846457738

>  <m_score__min__rmsd>  (8) 
3.1727467846457738

>  <meeko>  (8) 
{"free_energy": -8.31, "intermolecular_energy": -9.8, "internal_energy": -1.36, "cluster_size": 2, "cluster_id": 3, "rank_in_cluster": 1}

>  <energy>  (8) 
-8.86

>  <cluster_rmsd>  (8) 
0.41

>  <cluster>  (8) 
1

$$$$

     RDKit          3D

 51 54  0  0  0  0  0  0  0  0999 V2000
  140.0870   71.4060  221.0600 O   0  0  0  0  0  0  0  0  0  0  0  0
  139.9190   71.9360  222.1900 C   0  0  0  0  0  0  0  0  0  0  0  0
  139.7260   73.3520  222.1980 N   0  0  0  0  0  0  0  0  0  0  0  0
  139.7460   74.0150  220.8980 C   0  0  0  0  0  0  0  0  0  0  0  0
  140.6640   75.1770  221.0230 C   0  0  0  0  0  0  0  0  0  0  0  0
  140.9180   75.5760  222.1920 O   0  0  0  0  0  0  0  0  0  0  0  0
  141.2130   75.7890  219.8610 N   0  0  0  0  0  0  0  0  0  0  0  0
  140.3750   76.1370  218.7510 C   0  0  0  0  0  0  0  0  0  0  0  0
  141.0070   75.9700  217.4080 C   0  0  0  0  0  0  0  0  0  0  0  0
  142.4800   76.2060  217.3600 C   0  0  0  0  0  0  0  0  0  0  0  0
  143.0310   76.7930  218.6190 C   0  0  0  0  0  0  0  0  0  0  0  0
  142.6540   76.0420  219.8520 C   0  0  2  0  0  0  0  0  0  0  0  0
  143.3760   74.7530  220.0240 C   0  0  0  0  0  0  0  0  0  0  0  0
  144.6930   74.6980  220.4770 C   0  0  0  0  0  0  0  0  0  0  0  0
  145.3660   73.5050  220.6370 C   0  0  0  0  0  0  0  0  0  0  0  0
  146.6590   73.4570  221.0840 F   0  0  0  0  0  0  0  0  0  0  0  0
  144.7450   72.3030  220.3490 C   0  0  0  0  0  0  0  0  0  0  0  0
  143.4420   72.3290  219.8990 C   0  0  0  0  0  0  0  0  0  0  0  0
  142.8170   71.1640  219.6110 F   0  0  0  0  0  0  0  0  0  0  0  0
  142.7840   73.5390  219.7430 C   0  0  0  0  0  0  0  0  0  0  0  0
  139.9200   71.1600  223.4210 C   0  0  0  0  0  0  0  0  0  0  0  0
  139.3500   69.9040  223.3930 C   0  0  0  0  0  0  0  0  0  0  0  0
  139.2970   69.0810  224.5060 C   0  0  0  0  0  0  0  0  0  0  0  0
  139.8490   69.5810  225.6690 C   0  0  0  0  0  0  0  0  0  0  0  0
  139.8240   68.8020  226.8140 C   0  0  0  0  0  0  0  0  0  0  0  0
  140.3650   69.2680  227.9940 C   0  0  0  0  0  0  0  0  0  0  0  0
  140.3300   68.4850  229.1100 F   0  0  0  0  0  0  0  0  0  0  0  0
  140.9310   70.5190  228.0170 C   0  0  0  0  0  0  0  0  0  0  0  0
  140.9630   71.3120  226.8760 C   0  0  0  0  0  0  0  0  0  0  0  0
  140.4170   70.8490  225.6760 C   0  0  0  0  0  0  0  0  0  0  0  0
  140.4500   71.6240  224.5650 N   0  0  0  0  0  0  0  0  0  0  0  0
  139.5800   73.8650  223.0970 H   0  0  0  0  0  0  0  0  0  0  0  0
  140.1136   73.3233  220.1257 H   0  0  0  0  0  0  0  0  0  0  0  0
  138.7366   74.3391  220.6045 H   0  0  0  0  0  0  0  0  0  0  0  0
  139.4780   75.5013  218.7878 H   0  0  0  0  0  0  0  0  0  0  0  0
  140.1539   77.2094  218.8562 H   0  0  0  0  0  0  0  0  0  0  0  0
  140.8169   74.9409  217.0691 H   0  0  0  0  0  0  0  0  0  0  0  0
  140.5557   76.7383  216.7629 H   0  0  0  0  0  0  0  0  0  0  0  0
  142.9809   75.2441  217.1760 H   0  0  0  0  0  0  0  0  0  0  0  0
  142.6651   76.9334  216.5558 H   0  0  0  0  0  0  0  0  0  0  0  0
  144.1283   76.8064  218.5436 H   0  0  0  0  0  0  0  0  0  0  0  0
  142.6019   77.8012  218.7156 H   0  0  0  0  0  0  0  0  0  0  0  0
  142.9494   76.6837  220.6952 H   0  0  0  0  0  0  0  0  0  0  0  0
  145.2130   75.6377  220.7149 H   0  0  0  0  0  0  0  0  0  0  0  0
  145.2780   71.3492  220.4760 H   0  0  0  0  0  0  0  0  0  0  0  0
  141.7457   73.5309  219.3797 H   0  0  0  0  0  0  0  0  0  0  0  0
  138.9199   69.5411  222.4479 H   0  0  0  0  0  0  0  0  0  0  0  0
  138.8392   68.0816  224.4656 H   0  0  0  0  0  0  0  0  0  0  0  0
  139.3680   67.8015  226.7819 H   0  0  0  0  0  0  0  0  0  0  0  0
  141.3658   70.8994  228.9531 H   0  0  0  0  0  0  0  0  0  0  0  0
  141.4213   72.3111  226.9179 H   0  0  0  0  0  0  0  0  0  0  0  0
  1  2  2  0
  2  3  1  0
  3  4  1  0
  4  5  1  0
  5  6  2  0
  5  7  1  0
  7  8  1  0
  8  9  1  0
  9 10  1  0
 10 11  1  0
 11 12  1  0
 12 13  1  0
 13 14  2  0
 14 15  1  0
 15 16  1  0
 15 17  2  0
 17 18  1  0
 18 19  1  0
 18 20  2  0
  2 21  1  0
 21 22  2  0
 22 23  1  0
 23 24  2  0
 24 25  1  0
 25 26  2  0
 26 27  1  0
 26 28  1  0
 28 29  2  0
 29 30  1  0
 30 31  2  0
 12  7  1  0
 20 13  1  0
 31 21  1  0
 30 24  1  0
  3 32  1  0
  4 33  1  0
  4 34  1  0
  8 35  1  0
  8 36  1  0
  9 37  1  0
  9 38  1  0
 10 39  1  0
 10 40  1  0
 11 41  1  0
 11 42  1  0
 12 43  1  1
 14 44  1  0
 17 45  1  0
 20 46  1  0
 22 47  1  0
 23 48  1  0
 25 49  1  0
 28 50  1  0
 29 51  1  0
M  END
>  <smiles>  (9) 
O=C(NCC(=O)N1CCCCC1c1cc(F)cc(F)c1)c1ccc2cc(F)ccc2n1

>  <score_type>  (9) 
oracle

>  <origin>  (9) 
autodockgpu

>  <m_score__min__energy>  (9) 
-8.9000000000000004

>  <m_primary>  (9) 
energy

>  <rmsd>  (9) 
1.5285825415152385

>  <m_score__min__rmsd>  (9) 
1.5285825415152385

>  <meeko>  (9) 
{"free_energy": -8.26, "intermolecular_energy": -9.75, "internal_energy": -1.97, "cluster_size": 12, "cluster_id": 2, "rank_in_cluster": 7}

>  <energy>  (9) 
-8.86

>  <cluster_rmsd>  (9) 
0.41

>  <cluster>  (9) 
1

$$$$

     RDKit          3D

 51 54  0  0  0  0  0  0  0  0999 V2000
  140.5540   71.7830  221.1390 O   0  0  0  0  0  0  0  0  0  0  0  0
  140.2030   72.2620  222.2500 C   0  0  0  0  0  0  0  0  0  0  0  0
  139.8670   73.6500  222.2590 N   0  0  0  0  0  0  0  0  0  0  0  0
  139.9710   74.3490  220.9810 C   0  0  0  0  0  0  0  0  0  0  0  0
  140.5590   75.6830  221.2680 C   0  0  0  0  0  0  0  0  0  0  0  0
  140.6080   76.0330  222.4790 O   0  0  0  0  0  0  0  0  0  0  0  0
  141.0350   76.5030  220.2070 N   0  0  0  0  0  0  0  0  0  0  0  0
  141.9930   76.0020  219.2660 C   0  0  0  0  0  0  0  0  0  0  0  0
  142.9920   77.0050  218.7880 C   0  0  0  0  0  0  0  0  0  0  0  0
  142.4960   78.4090  218.7010 C   0  0  0  0  0  0  0  0  0  0  0  0
  141.0180   78.5330  218.8890 C   0  0  0  0  0  0  0  0  0  0  0  0
  140.5070   77.8660  220.1220 C   0  0  2  0  0  0  0  0  0  0  0  0
  140.8250   78.5900  221.3820 C   0  0  0  0  0  0  0  0  0  0  0  0
  139.8530   78.8610  222.3440 C   0  0  0  0  0  0  0  0  0  0  0  0
  140.1430   79.5320  223.5140 C   0  0  0  0  0  0  0  0  0  0  0  0
  139.1840   79.7940  224.4550 F   0  0  0  0  0  0  0  0  0  0  0  0
  141.4310   79.9650  223.7740 C   0  0  0  0  0  0  0  0  0  0  0  0
  142.4120   79.7110  222.8390 C   0  0  0  0  0  0  0  0  0  0  0  0
  143.6770   80.1270  223.0760 F   0  0  0  0  0  0  0  0  0  0  0  0
  142.0980   79.0350  221.6700 C   0  0  0  0  0  0  0  0  0  0  0  0
  140.1380   71.4550  223.4590 C   0  0  0  0  0  0  0  0  0  0  0  0
  139.5510   70.2090  223.3740 C   0  0  0  0  0  0  0  0  0  0  0  0
  139.4370   69.3590  224.4620 C   0  0  0  0  0  0  0  0  0  0  0  0
  139.9470   69.8200  225.6600 C   0  0  0  0  0  0  0  0  0  0  0  0
  139.8610   69.0130  226.7820 C   0  0  0  0  0  0  0  0  0  0  0  0
  140.3580   69.4400  227.9960 C   0  0  0  0  0  0  0  0  0  0  0  0
  140.2630   68.6290  229.0880 F   0  0  0  0  0  0  0  0  0  0  0  0
  140.9410   70.6800  228.0750 C   0  0  0  0  0  0  0  0  0  0  0  0
  141.0340   71.5010  226.9580 C   0  0  0  0  0  0  0  0  0  0  0  0
  140.5330   71.0780  225.7240 C   0  0  0  0  0  0  0  0  0  0  0  0
  140.6260   71.8810  224.6360 N   0  0  0  0  0  0  0  0  0  0  0  0
  139.5650   74.1200  223.1410 H   0  0  0  0  0  0  0  0  0  0  0  0
  140.6220   73.7880  220.2944 H   0  0  0  0  0  0  0  0  0  0  0  0
  138.9850   74.4468  220.5032 H   0  0  0  0  0  0  0  0  0  0  0  0
  142.5404   75.1758  219.7433 H   0  0  0  0  0  0  0  0  0  0  0  0
  141.4203   75.6917  218.3796 H   0  0  0  0  0  0  0  0  0  0  0  0
  143.8469   76.9891  219.4800 H   0  0  0  0  0  0  0  0  0  0  0  0
  143.2504   76.7101  217.7603 H   0  0  0  0  0  0  0  0  0  0  0  0
  142.9969   79.0039  219.4790 H   0  0  0  0  0  0  0  0  0  0  0  0
  142.7242   78.7701  217.6874 H   0  0  0  0  0  0  0  0  0  0  0  0
  140.7643   79.6020  218.9431 H   0  0  0  0  0  0  0  0  0  0  0  0
  140.5441   78.0290  218.0338 H   0  0  0  0  0  0  0  0  0  0  0  0
  139.4110   77.8626  220.0279 H   0  0  0  0  0  0  0  0  0  0  0  0
  138.8200   78.5286  222.1640 H   0  0  0  0  0  0  0  0  0  0  0  0
  141.6671   80.4999  224.7057 H   0  0  0  0  0  0  0  0  0  0  0  0
  142.8992   78.8454  220.9405 H   0  0  0  0  0  0  0  0  0  0  0  0
  139.1573   69.8769  222.4020 H   0  0  0  0  0  0  0  0  0  0  0  0
  138.9651   68.3690  224.3763 H   0  0  0  0  0  0  0  0  0  0  0  0
  139.3915   68.0212  226.7045 H   0  0  0  0  0  0  0  0  0  0  0  0
  141.3411   71.0295  229.0382 H   0  0  0  0  0  0  0  0  0  0  0  0
  141.5054   72.4910  227.0457 H   0  0  0  0  0  0  0  0  0  0  0  0
  1  2  2  0
  2  3  1  0
  3  4  1  0
  4  5  1  0
  5  6  2  0
  5  7  1  0
  7  8  1  0
  8  9  1  0
  9 10  1  0
 10 11  1  0
 11 12  1  0
 12 13  1  0
 13 14  2  0
 14 15  1  0
 15 16  1  0
 15 17  2  0
 17 18  1  0
 18 19  1  0
 18 20  2  0
  2 21  1  0
 21 22  2  0
 22 23  1  0
 23 24  2  0
 24 25  1  0
 25 26  2  0
 26 27  1  0
 26 28  1  0
 28 29  2  0
 29 30  1  0
 30 31  2  0
 12  7  1  0
 20 13  1  0
 31 21  1  0
 30 24  1  0
  3 32  1  0
  4 33  1  0
  4 34  1  0
  8 35  1  0
  8 36  1  0
  9 37  1  0
  9 38  1  0
 10 39  1  0
 10 40  1  0
 11 41  1  0
 11 42  1  0
 12 43  1  6
 14 44  1  0
 17 45  1  0
 20 46  1  0
 22 47  1  0
 23 48  1  0
 25 49  1  0
 28 50  1  0
 29 51  1  0
M  END
>  <smiles>  (10) 
O=C(NCC(=O)N1CCCCC1c1cc(F)cc(F)c1)c1ccc2cc(F)ccc2n1

>  <score_type>  (10) 
oracle

>  <origin>  (10) 
autodockgpu

>  <m_score__min__energy>  (10) 
-8.9000000000000004

>  <m_primary>  (10) 
energy

>  <rmsd>  (10) 
1.9216125247937395

>  <m_score__min__rmsd>  (10) 
1.9216125247937395

>  <meeko>  (10) 
{"free_energy": -8.86, "intermolecular_energy": -10.35, "internal_energy": -1.72, "cluster_size": 33, "cluster_id": 1, "rank_in_cluster": 9}

>  <energy>  (10) 
-8.85

>  <cluster_rmsd>  (10) 
0.43

>  <cluster>  (10) 
1

$$$$

     RDKit          3D

 51 54  0  0  0  0  0  0  0  0999 V2000
  139.7770   73.7440  222.7100 O   0  0  0  0  0  0  0  0  0  0  0  0
  140.0760   72.5310  222.5520 C   0  0  0  0  0  0  0  0  0  0  0  0
  140.4110   72.1340  221.2210 N   0  0  0  0  0  0  0  0  0  0  0  0
  140.3670   73.1800  220.2030 C   0  0  0  0  0  0  0  0  0  0  0  0
  141.4550   72.8840  219.2360 C   0  0  0  0  0  0  0  0  0  0  0  0
  141.8290   71.6820  219.1530 O   0  0  0  0  0  0  0  0  0  0  0  0
  142.0280   73.9270  218.4560 N   0  0  0  0  0  0  0  0  0  0  0  0
  141.6410   74.1170  217.0880 C   0  0  0  0  0  0  0  0  0  0  0  0
  142.7380   74.5650  216.1790 C   0  0  0  0  0  0  0  0  0  0  0  0
  143.7760   75.4330  216.8090 C   0  0  0  0  0  0  0  0  0  0  0  0
  143.4160   75.8910  218.1850 C   0  0  0  0  0  0  0  0  0  0  0  0
  143.0180   74.7870  219.1060 C   0  0  2  0  0  0  0  0  0  0  0  0
  144.1530   73.9510  219.5790 C   0  0  0  0  0  0  0  0  0  0  0  0
  144.8510   74.2450  220.7500 C   0  0  0  0  0  0  0  0  0  0  0  0
  145.9040   73.4720  221.1920 C   0  0  0  0  0  0  0  0  0  0  0  0
  146.5850   73.7660  222.3420 F   0  0  0  0  0  0  0  0  0  0  0  0
  146.3090   72.3600  220.4750 C   0  0  0  0  0  0  0  0  0  0  0  0
  145.6360   72.0460  219.3130 C   0  0  0  0  0  0  0  0  0  0  0  0
  146.0170   70.9620  218.5990 F   0  0  0  0  0  0  0  0  0  0  0  0
  144.5800   72.8370  218.8870 C   0  0  0  0  0  0  0  0  0  0  0  0
  140.0840   71.5820  223.6550 C   0  0  0  0  0  0  0  0  0  0  0  0
  139.5420   70.3320  223.4370 C   0  0  0  0  0  0  0  0  0  0  0  0
  139.4980   69.3540  224.4150 C   0  0  0  0  0  0  0  0  0  0  0  0
  140.0300   69.6870  225.6450 C   0  0  0  0  0  0  0  0  0  0  0  0
  140.0130   68.7480  226.6620 C   0  0  0  0  0  0  0  0  0  0  0  0
  140.5350   69.0460  227.9040 C   0  0  0  0  0  0  0  0  0  0  0  0
  140.5090   68.1050  228.8910 F   0  0  0  0  0  0  0  0  0  0  0  0
  141.0740   70.2900  228.1170 C   0  0  0  0  0  0  0  0  0  0  0  0
  141.0970   71.2430  227.1060 C   0  0  0  0  0  0  0  0  0  0  0  0
  140.5700   70.9520  225.8440 C   0  0  0  0  0  0  0  0  0  0  0  0
  140.5950   71.8830  224.8610 N   0  0  0  0  0  0  0  0  0  0  0  0
  140.6710   71.1450  221.0090 H   0  0  0  0  0  0  0  0  0  0  0  0
  139.3930   73.1702  219.6918 H   0  0  0  0  0  0  0  0  0  0  0  0
  140.4992   74.1748  220.6534 H   0  0  0  0  0  0  0  0  0  0  0  0
  141.2513   73.1613  216.7076 H   0  0  0  0  0  0  0  0  0  0  0  0
  140.8932   74.9237  217.0889 H   0  0  0  0  0  0  0  0  0  0  0  0
  143.2389   73.6689  215.7840 H   0  0  0  0  0  0  0  0  0  0  0  0
  142.2576   75.1802  215.4039 H   0  0  0  0  0  0  0  0  0  0  0  0
  144.7165   74.8653  216.8661 H   0  0  0  0  0  0  0  0  0  0  0  0
  143.8685   76.3326  216.1828 H   0  0  0  0  0  0  0  0  0  0  0  0
  144.2868   76.4055  218.6174 H   0  0  0  0  0  0  0  0  0  0  0  0
  142.5423   76.5514  218.0827 H   0  0  0  0  0  0  0  0  0  0  0  0
  142.5949   75.2772  219.9952 H   0  0  0  0  0  0  0  0  0  0  0  0
  144.5515   75.1231  221.3410 H   0  0  0  0  0  0  0  0  0  0  0  0
  147.1485   71.7407  220.8239 H   0  0  0  0  0  0  0  0  0  0  0  0
  144.0602   72.5642  217.9567 H   0  0  0  0  0  0  0  0  0  0  0  0
  139.1275   70.1033  222.4441 H   0  0  0  0  0  0  0  0  0  0  0  0
  139.0618   68.3627  224.2226 H   0  0  0  0  0  0  0  0  0  0  0  0
  139.5789   67.7541  226.4781 H   0  0  0  0  0  0  0  0  0  0  0  0
  141.4943   70.5365  229.1032 H   0  0  0  0  0  0  0  0  0  0  0  0
  141.5332   72.2340  227.3000 H   0  0  0  0  0  0  0  0  0  0  0  0
  1  2  2  0
  2  3  1  0
  3  4  1  0
  4  5  1  0
  5  6  2  0
  5  7  1  0
  7  8  1  0
  8  9  1  0
  9 10  1  0
 10 11  1  0
 11 12  1  0
 12 13  1  0
 13 14  2  0
 14 15  1  0
 15 16  1  0
 15 17  2  0
 17 18  1  0
 18 19  1  0
 18 20  2  0
  2 21  1  0
 21 22  2  0
 22 23  1  0
 23 24  2  0
 24 25  1  0
 25 26  2  0
 26 27  1  0
 26 28  1  0
 28 29  2  0
 29 30  1  0
 30 31  2  0
 12  7  1  0
 20 13  1  0
 31 21  1  0
 30 24  1  0
  3 32  1  0
  4 33  1  0
  4 34  1  0
  8 35  1  0
  8 36  1  0
  9 37  1  0
  9 38  1  0
 10 39  1  0
 10 40  1  0
 11 41  1  0
 11 42  1  0
 12 43  1  1
 14 44  1  0
 17 45  1  0
 20 46  1  0
 22 47  1  0
 23 48  1  0
 25 49  1  0
 28 50  1  0
 29 51  1  0
M  END
>  <smiles>  (11) 
O=C(NCC(=O)N1CCCCC1c1cc(F)cc(F)c1)c1ccc2cc(F)ccc2n1

>  <score_type>  (11) 
oracle

>  <origin>  (11) 
autodockgpu

>  <m_score__min__energy>  (11) 
-8.9000000000000004

>  <m_primary>  (11) 
energy

>  <rmsd>  (11) 
2.4370761158139094

>  <m_score__min__rmsd>  (11) 
2.4370761158139094

>  <meeko>  (11) 
{"free_energy": -7.58, "intermolecular_energy": -9.08, "internal_energy": -1.87, "cluster_size": 12, "cluster_id": 2, "rank_in_cluster": 12}

>  <energy>  (11) 
-8.85

>  <cluster_rmsd>  (11) 
0.43

>  <cluster>  (11) 
1

$$$$

     RDKit          3D

 51 54  0  0  0  0  0  0  0  0999 V2000
  140.8180   71.9340  221.2080 O   0  0  0  0  0  0  0  0  0  0  0  0
  140.2290   72.3270  222.2490 C   0  0  0  0  0  0  0  0  0  0  0  0
  139.6450   73.6290  222.1880 N   0  0  0  0  0  0  0  0  0  0  0  0
  139.8000   74.3490  220.9270 C   0  0  0  0  0  0  0  0  0  0  0  0
  140.7310   75.4770  221.1890 C   0  0  0  0  0  0  0  0  0  0  0  0
  141.0920   75.6490  222.3860 O   0  0  0  0  0  0  0  0  0  0  0  0
  141.1750   76.3070  220.1210 N   0  0  0  0  0  0  0  0  0  0  0  0
  142.1460   75.8320  219.1790 C   0  0  0  0  0  0  0  0  0  0  0  0
  143.1080   76.8650  218.6910 C   0  0  0  0  0  0  0  0  0  0  0  0
  142.5650   78.2520  218.5980 C   0  0  0  0  0  0  0  0  0  0  0  0
  141.0850   78.3270  218.7910 C   0  0  0  0  0  0  0  0  0  0  0  0
  140.6010   77.6500  220.0300 C   0  0  2  0  0  0  0  0  0  0  0  0
  140.8990   78.3920  221.2850 C   0  0  0  0  0  0  0  0  0  0  0  0
  142.1720   78.8870  221.5660 C   0  0  0  0  0  0  0  0  0  0  0  0
  142.4520   79.5750  222.7290 C   0  0  0  0  0  0  0  0  0  0  0  0
  143.7030   80.0590  223.0000 F   0  0  0  0  0  0  0  0  0  0  0  0
  141.4620   79.8020  223.6670 C   0  0  0  0  0  0  0  0  0  0  0  0
  140.1930   79.3230  223.4140 C   0  0  0  0  0  0  0  0  0  0  0  0
  139.2120   79.5350  224.3200 F   0  0  0  0  0  0  0  0  0  0  0  0
  139.9340   78.6330  222.2400 C   0  0  0  0  0  0  0  0  0  0  0  0
  140.1420   71.5090  223.4500 C   0  0  0  0  0  0  0  0  0  0  0  0
  139.4930   70.2950  223.3590 C   0  0  0  0  0  0  0  0  0  0  0  0
  139.3530   69.4380  224.4380 C   0  0  0  0  0  0  0  0  0  0  0  0
  139.9010   69.8580  225.6340 C   0  0  0  0  0  0  0  0  0  0  0  0
  139.7920   69.0430  226.7480 C   0  0  0  0  0  0  0  0  0  0  0  0
  140.3270   69.4300  227.9590 C   0  0  0  0  0  0  0  0  0  0  0  0
  140.2080   68.6100  229.0430 F   0  0  0  0  0  0  0  0  0  0  0  0
  140.9710   70.6390  228.0440 C   0  0  0  0  0  0  0  0  0  0  0  0
  141.0890   71.4680  226.9360 C   0  0  0  0  0  0  0  0  0  0  0  0
  140.5500   71.0860  225.7040 C   0  0  0  0  0  0  0  0  0  0  0  0
  140.6670   71.8960  224.6250 N   0  0  0  0  0  0  0  0  0  0  0  0
  139.1380   74.0260  223.0110 H   0  0  0  0  0  0  0  0  0  0  0  0
  140.2194   73.6822  220.1592 H   0  0  0  0  0  0  0  0  0  0  0  0
  138.8300   74.7148  220.5593 H   0  0  0  0  0  0  0  0  0  0  0  0
  142.7229   75.0279  219.6593 H   0  0  0  0  0  0  0  0  0  0  0  0
  141.5809   75.4962  218.2970 H   0  0  0  0  0  0  0  0  0  0  0  0
  143.9660   76.8818  219.3792 H   0  0  0  0  0  0  0  0  0  0  0  0
  143.3711   76.5729  217.6636 H   0  0  0  0  0  0  0  0  0  0  0  0
  143.0485   78.8677  219.3707 H   0  0  0  0  0  0  0  0  0  0  0  0
  142.7776   78.6152  217.5817 H   0  0  0  0  0  0  0  0  0  0  0  0
  140.7955   79.3871  218.8401 H   0  0  0  0  0  0  0  0  0  0  0  0
  140.6254   77.8023  217.9404 H   0  0  0  0  0  0  0  0  0  0  0  0
  139.5055   77.6088  219.9399 H   0  0  0  0  0  0  0  0  0  0  0  0
  142.9793   78.7238  220.8369 H   0  0  0  0  0  0  0  0  0  0  0  0
  141.6811   80.3521  224.5941 H   0  0  0  0  0  0  0  0  0  0  0  0
  138.9140   78.2614  222.0624 H   0  0  0  0  0  0  0  0  0  0  0  0
  139.0691   69.9952  222.3892 H   0  0  0  0  0  0  0  0  0  0  0  0
  138.8325   68.4732  224.3471 H   0  0  0  0  0  0  0  0  0  0  0  0
  139.2732   68.0765  226.6664 H   0  0  0  0  0  0  0  0  0  0  0  0
  141.4007   70.9566  229.0055 H   0  0  0  0  0  0  0  0  0  0  0  0
  141.6104   72.4322  227.0285 H   0  0  0  0  0  0  0  0  0  0  0  0
  1  2  2  0
  2  3  1  0
  3  4  1  0
  4  5  1  0
  5  6  2  0
  5  7  1  0
  7  8  1  0
  8  9  1  0
  9 10  1  0
 10 11  1  0
 11 12  1  0
 12 13  1  0
 13 14  2  0
 14 15  1  0
 15 16  1  0
 15 17  2  0
 17 18  1  0
 18 19  1  0
 18 20  2  0
  2 21  1  0
 21 22  2  0
 22 23  1  0
 23 24  2  0
 24 25  1  0
 25 26  2  0
 26 27  1  0
 26 28  1  0
 28 29  2  0
 29 30  1  0
 30 31  2  0
 12  7  1  0
 20 13  1  0
 31 21  1  0
 30 24  1  0
  3 32  1  0
  4 33  1  0
  4 34  1  0
  8 35  1  0
  8 36  1  0
  9 37  1  0
  9 38  1  0
 10 39  1  0
 10 40  1  0
 11 41  1  0
 11 42  1  0
 12 43  1  6
 14 44  1  0
 17 45  1  0
 20 46  1  0
 22 47  1  0
 23 48  1  0
 25 49  1  0
 28 50  1  0
 29 51  1  0
M  END
>  <smiles>  (12) 
O=C(NCC(=O)N1CCCCC1c1cc(F)cc(F)c1)c1ccc2cc(F)ccc2n1

>  <score_type>  (12) 
oracle

>  <origin>  (12) 
autodockgpu

>  <m_score__min__energy>  (12) 
-8.9000000000000004

>  <m_primary>  (12) 
energy

>  <rmsd>  (12) 
1.8866353795994255

>  <m_score__min__rmsd>  (12) 
1.8866353795994255

>  <meeko>  (12) 
{"free_energy": -8.87, "intermolecular_energy": -10.36, "internal_energy": -1.48, "cluster_size": 33, "cluster_id": 1, "rank_in_cluster": 3}

>  <energy>  (12) 
-8.85

>  <cluster_rmsd>  (12) 
0.42

>  <cluster>  (12) 
1

$$$$

     RDKit          3D

 51 54  0  0  0  0  0  0  0  0999 V2000
  139.7440   71.2790  221.0820 O   0  0  0  0  0  0  0  0  0  0  0  0
  139.7500   71.8120  222.2230 C   0  0  0  0  0  0  0  0  0  0  0  0
  139.7210   73.2400  222.2500 N   0  0  0  0  0  0  0  0  0  0  0  0
  139.6870   73.9110  220.9540 C   0  0  0  0  0  0  0  0  0  0  0  0
  140.5880   75.0880  221.0570 C   0  0  0  0  0  0  0  0  0  0  0  0
  140.8440   75.5070  222.2190 O   0  0  0  0  0  0  0  0  0  0  0  0
  141.1200   75.6930  219.8840 N   0  0  0  0  0  0  0  0  0  0  0  0
  140.2760   75.9800  218.7610 C   0  0  0  0  0  0  0  0  0  0  0  0
  140.9220   75.8050  217.4250 C   0  0  0  0  0  0  0  0  0  0  0  0
  142.3850   76.1000  217.3800 C   0  0  0  0  0  0  0  0  0  0  0  0
  142.9040   76.7390  218.6270 C   0  0  0  0  0  0  0  0  0  0  0  0
  142.5500   76.0040  219.8760 C   0  0  2  0  0  0  0  0  0  0  0  0
  143.3220   74.7490  220.0830 C   0  0  0  0  0  0  0  0  0  0  0  0
  144.6620   74.7610  220.4680 C   0  0  0  0  0  0  0  0  0  0  0  0
  145.3810   73.5990  220.6610 C   0  0  0  0  0  0  0  0  0  0  0  0
  146.6960   73.6170  221.0390 F   0  0  0  0  0  0  0  0  0  0  0  0
  144.7850   72.3650  220.4770 C   0  0  0  0  0  0  0  0  0  0  0  0
  143.4600   72.3250  220.0960 C   0  0  0  0  0  0  0  0  0  0  0  0
  142.8600   71.1260  219.9100 F   0  0  0  0  0  0  0  0  0  0  0  0
  142.7560   73.5040  219.9060 C   0  0  0  0  0  0  0  0  0  0  0  0
  139.7840   71.0270  223.4470 C   0  0  0  0  0  0  0  0  0  0  0  0
  139.2250   69.7660  223.4230 C   0  0  0  0  0  0  0  0  0  0  0  0
  139.2020   68.9350  224.5310 C   0  0  0  0  0  0  0  0  0  0  0  0
  139.7760   69.4300  225.6840 C   0  0  0  0  0  0  0  0  0  0  0  0
  139.7820   68.6430  226.8240 C   0  0  0  0  0  0  0  0  0  0  0  0
  140.3450   69.1060  227.9950 C   0  0  0  0  0  0  0  0  0  0  0  0
  140.3420   68.3140  229.1060 F   0  0  0  0  0  0  0  0  0  0  0  0
  140.9010   70.3610  228.0150 C   0  0  0  0  0  0  0  0  0  0  0  0
  140.9010   71.1620  226.8800 C   0  0  0  0  0  0  0  0  0  0  0  0
  140.3330   70.7040  225.6880 C   0  0  0  0  0  0  0  0  0  0  0  0
  140.3350   71.4870  224.5830 N   0  0  0  0  0  0  0  0  0  0  0  0
  139.7230   73.7560  223.1580 H   0  0  0  0  0  0  0  0  0  0  0  0
  140.0413   73.2305  220.1657 H   0  0  0  0  0  0  0  0  0  0  0  0
  138.6631   74.2188  220.6953 H   0  0  0  0  0  0  0  0  0  0  0  0
  139.4045   75.3105  218.8091 H   0  0  0  0  0  0  0  0  0  0  0  0
  140.0129   77.0453  218.8383 H   0  0  0  0  0  0  0  0  0  0  0  0
  140.7761   74.7609  217.1111 H   0  0  0  0  0  0  0  0  0  0  0  0
  140.4435   76.5369  216.7576 H   0  0  0  0  0  0  0  0  0  0  0  0
  142.9258   75.1552  217.2222 H   0  0  0  0  0  0  0  0  0  0  0  0
  142.5452   76.8152  216.5598 H   0  0  0  0  0  0  0  0  0  0  0  0
  144.0004   76.7947  218.5570 H   0  0  0  0  0  0  0  0  0  0  0  0
  142.4340   77.7311  218.6965 H   0  0  0  0  0  0  0  0  0  0  0  0
  142.8143   76.6777  220.7044 H   0  0  0  0  0  0  0  0  0  0  0  0
  145.1624   75.7283  220.6230 H   0  0  0  0  0  0  0  0  0  0  0  0
  145.3545   71.4366  220.6310 H   0  0  0  0  0  0  0  0  0  0  0  0
  141.7008   73.4439  219.6011 H   0  0  0  0  0  0  0  0  0  0  0  0
  138.7788   69.4053  222.4845 H   0  0  0  0  0  0  0  0  0  0  0  0
  138.7498   67.9329  224.4937 H   0  0  0  0  0  0  0  0  0  0  0  0
  139.3334   67.6390  226.7951 H   0  0  0  0  0  0  0  0  0  0  0  0
  141.3535   70.7381  228.9440 H   0  0  0  0  0  0  0  0  0  0  0  0
  141.3516   72.1647  226.9198 H   0  0  0  0  0  0  0  0  0  0  0  0
  1  2  2  0
  2  3  1  0
  3  4  1  0
  4  5  1  0
  5  6  2  0
  5  7  1  0
  7  8  1  0
  8  9  1  0
  9 10  1  0
 10 11  1  0
 11 12  1  0
 12 13  1  0
 13 14  2  0
 14 15  1  0
 15 16  1  0
 15 17  2  0
 17 18  1  0
 18 19  1  0
 18 20  2  0
  2 21  1  0
 21 22  2  0
 22 23  1  0
 23 24  2  0
 24 25  1  0
 25 26  2  0
 26 27  1  0
 26 28  1  0
 28 29  2  0
 29 30  1  0
 30 31  2  0
 12  7  1  0
 20 13  1  0
 31 21  1  0
 30 24  1  0
  3 32  1  0
  4 33  1  0
  4 34  1  0
  8 35  1  0
  8 36  1  0
  9 37  1  0
  9 38  1  0
 10 39  1  0
 10 40  1  0
 11 41  1  0
 11 42  1  0
 12 43  1  1
 14 44  1  0
 17 45  1  0
 20 46  1  0
 22 47  1  0
 23 48  1  0
 25 49  1  0
 28 50  1  0
 29 51  1  0
M  END
>  <smiles>  (13) 
O=C(NCC(=O)N1CCCCC1c1cc(F)cc(F)c1)c1ccc2cc(F)ccc2n1

>  <score_type>  (13) 
oracle

>  <origin>  (13) 
autodockgpu

>  <m_score__min__energy>  (13) 
-8.9000000000000004

>  <m_primary>  (13) 
energy

>  <rmsd>  (13) 
1.4450015646244594

>  <m_score__min__rmsd>  (13) 
1.4450015646244594

>  <meeko>  (13) 
{"free_energy": -8.19, "intermolecular_energy": -9.68, "internal_energy": -2.01, "cluster_size": 12, "cluster_id": 2, "rank_in_cluster": 8}

>  <energy>  (13) 
-8.85

>  <cluster_rmsd>  (13) 
0.43

>  <cluster>  (13) 
1

$$$$

     RDKit          3D

 51 54  0  0  0  0  0  0  0  0999 V2000
  140.9650   72.1140  221.3120 O   0  0  0  0  0  0  0  0  0  0  0  0
  140.2080   72.3780  222.2830 C   0  0  0  0  0  0  0  0  0  0  0  0
  139.4140   73.5590  222.1590 N   0  0  0  0  0  0  0  0  0  0  0  0
  139.5750   74.3200  220.9230 C   0  0  0  0  0  0  0  0  0  0  0  0
  140.6490   75.3170  221.1690 C   0  0  0  0  0  0  0  0  0  0  0  0
  141.0980   75.3880  222.3460 O   0  0  0  0  0  0  0  0  0  0  0  0
  141.1270   76.1360  220.1090 N   0  0  0  0  0  0  0  0  0  0  0  0
  142.1270   75.6530  219.2020 C   0  0  0  0  0  0  0  0  0  0  0  0
  143.1050   76.6810  218.7360 C   0  0  0  0  0  0  0  0  0  0  0  0
  142.5660   78.0670  218.6130 C   0  0  0  0  0  0  0  0  0  0  0  0
  141.0810   78.1450  218.7590 C   0  0  0  0  0  0  0  0  0  0  0  0
  140.5580   77.4790  219.9880 C   0  0  2  0  0  0  0  0  0  0  0  0
  140.8170   78.2320  221.2440 C   0  0  0  0  0  0  0  0  0  0  0  0
  139.8070   78.4990  222.1680 C   0  0  0  0  0  0  0  0  0  0  0  0
  140.0430   79.1970  223.3340 C   0  0  0  0  0  0  0  0  0  0  0  0
  139.0470   79.4560  224.2370 F   0  0  0  0  0  0  0  0  0  0  0  0
  141.3120   79.6620  223.6300 C   0  0  0  0  0  0  0  0  0  0  0  0
  142.3290   79.4120  222.7340 C   0  0  0  0  0  0  0  0  0  0  0  0
  143.5770   79.8590  223.0060 F   0  0  0  0  0  0  0  0  0  0  0  0
  142.0700   78.7090  221.5670 C   0  0  0  0  0  0  0  0  0  0  0  0
  140.1380   71.5340  223.4660 C   0  0  0  0  0  0  0  0  0  0  0  0
  139.5220   70.3040  223.3480 C   0  0  0  0  0  0  0  0  0  0  0  0
  139.4000   69.4230  224.4080 C   0  0  0  0  0  0  0  0  0  0  0  0
  139.9320   69.8330  225.6150 C   0  0  0  0  0  0  0  0  0  0  0  0
  139.8390   68.9920  226.7110 C   0  0  0  0  0  0  0  0  0  0  0  0
  140.3580   69.3690  227.9330 C   0  0  0  0  0  0  0  0  0  0  0  0
  140.2560   68.5250  228.9990 F   0  0  0  0  0  0  0  0  0  0  0  0
  140.9690   70.5930  228.0460 C   0  0  0  0  0  0  0  0  0  0  0  0
  141.0690   71.4470  226.9550 C   0  0  0  0  0  0  0  0  0  0  0  0
  140.5470   71.0760  225.7130 C   0  0  0  0  0  0  0  0  0  0  0  0
  140.6460   71.9110  224.6510 N   0  0  0  0  0  0  0  0  0  0  0  0
  138.7610   73.8460  222.9220 H   0  0  0  0  0  0  0  0  0  0  0  0
  139.8625   73.6491  220.1000 H   0  0  0  0  0  0  0  0  0  0  0  0
  138.6346   74.8151  220.6392 H   0  0  0  0  0  0  0  0  0  0  0  0
  142.6877   74.8525  219.7068 H   0  0  0  0  0  0  0  0  0  0  0  0
  141.5896   75.3108  218.3053 H   0  0  0  0  0  0  0  0  0  0  0  0
  143.9403   76.7038  219.4514 H   0  0  0  0  0  0  0  0  0  0  0  0
  143.4013   76.3795  217.7205 H   0  0  0  0  0  0  0  0  0  0  0  0
  143.0257   78.6898  219.3945 H   0  0  0  0  0  0  0  0  0  0  0  0
  142.8102   78.4200  217.6002 H   0  0  0  0  0  0  0  0  0  0  0  0
  140.7913   79.2057  218.7900 H   0  0  0  0  0  0  0  0  0  0  0  0
  140.6474   77.6136  217.8990 H   0  0  0  0  0  0  0  0  0  0  0  0
  139.4658   77.4372  219.8639 H   0  0  0  0  0  0  0  0  0  0  0  0
  138.7880   78.1409  221.9599 H   0  0  0  0  0  0  0  0  0  0  0  0
  141.5048   80.2184  224.5591 H   0  0  0  0  0  0  0  0  0  0  0  0
  142.8997   78.5239  220.8689 H   0  0  0  0  0  0  0  0  0  0  0  0
  139.1110   70.0122  222.3703 H   0  0  0  0  0  0  0  0  0  0  0  0
  138.9052   68.4471  224.2953 H   0  0  0  0  0  0  0  0  0  0  0  0
  139.3467   68.0139  226.6067 H   0  0  0  0  0  0  0  0  0  0  0  0
  141.3860   70.9025  229.0157 H   0  0  0  0  0  0  0  0  0  0  0  0
  141.5630   72.4231  227.0697 H   0  0  0  0  0  0  0  0  0  0  0  0
  1  2  2  0
  2  3  1  0
  3  4  1  0
  4  5  1  0
  5  6  2  0
  5  7  1  0
  7  8  1  0
  8  9  1  0
  9 10  1  0
 10 11  1  0
 11 12  1  0
 12 13  1  0
 13 14  2  0
 14 15  1  0
 15 16  1  0
 15 17  2  0
 17 18  1  0
 18 19  1  0
 18 20  2  0
  2 21  1  0
 21 22  2  0
 22 23  1  0
 23 24  2  0
 24 25  1  0
 25 26  2  0
 26 27  1  0
 26 28  1  0
 28 29  2  0
 29 30  1  0
 30 31  2  0
 12  7  1  0
 20 13  1  0
 31 21  1  0
 30 24  1  0
  3 32  1  0
  4 33  1  0
  4 34  1  0
  8 35  1  0
  8 36  1  0
  9 37  1  0
  9 38  1  0
 10 39  1  0
 10 40  1  0
 11 41  1  0
 11 42  1  0
 12 43  1  6
 14 44  1  0
 17 45  1  0
 20 46  1  0
 22 47  1  0
 23 48  1  0
 25 49  1  0
 28 50  1  0
 29 51  1  0
M  END
>  <smiles>  (14) 
O=C(NCC(=O)N1CCCCC1c1cc(F)cc(F)c1)c1ccc2cc(F)ccc2n1

>  <score_type>  (14) 
oracle

>  <origin>  (14) 
autodockgpu

>  <m_score__min__energy>  (14) 
-8.9000000000000004

>  <m_primary>  (14) 
energy

>  <rmsd>  (14) 
1.828380200122781

>  <m_score__min__rmsd>  (14) 
1.828380200122781

>  <meeko>  (14) 
{"free_energy": -8.85, "intermolecular_energy": -10.34, "internal_energy": -1.43, "cluster_size": 33, "cluster_id": 1, "rank_in_cluster": 18}

>  <energy>  (14) 
-8.85

>  <cluster_rmsd>  (14) 
0.42

>  <cluster>  (14) 
1

$$$$

     RDKit          3D

 51 54  0  0  0  0  0  0  0  0999 V2000
  140.4760   71.7560  221.1340 O   0  0  0  0  0  0  0  0  0  0  0  0
  140.1490   72.2390  222.2500 C   0  0  0  0  0  0  0  0  0  0  0  0
  139.8300   73.6310  222.2630 N   0  0  0  0  0  0  0  0  0  0  0  0
  139.9220   74.3290  220.9840 C   0  0  0  0  0  0  0  0  0  0  0  0
  140.5190   75.6600  221.2620 C   0  0  0  0  0  0  0  0  0  0  0  0
  140.5530   76.0250  222.4690 O   0  0  0  0  0  0  0  0  0  0  0  0
  141.0180   76.4620  220.1980 N   0  0  0  0  0  0  0  0  0  0  0  0
  141.9760   75.9360  219.2700 C   0  0  0  0  0  0  0  0  0  0  0  0
  142.9950   76.9170  218.7920 C   0  0  0  0  0  0  0  0  0  0  0  0
  142.5240   78.3290  218.6870 C   0  0  0  0  0  0  0  0  0  0  0  0
  141.0470   78.4790  218.8610 C   0  0  0  0  0  0  0  0  0  0  0  0
  140.5140   77.8320  220.0950 C   0  0  2  0  0  0  0  0  0  0  0  0
  140.8320   78.5630  221.3510 C   0  0  0  0  0  0  0  0  0  0  0  0
  142.1240   78.9970  221.6470 C   0  0  0  0  0  0  0  0  0  0  0  0
  142.4220   79.6750  222.8110 C   0  0  0  0  0  0  0  0  0  0  0  0
  143.6920   80.0990  223.0950 F   0  0  0  0  0  0  0  0  0  0  0  0
  141.4330   79.9520  223.7360 C   0  0  0  0  0  0  0  0  0  0  0  0
  140.1460   79.5340  223.4680 C   0  0  0  0  0  0  0  0  0  0  0  0
  139.1650   79.7960  224.3620 F   0  0  0  0  0  0  0  0  0  0  0  0
  139.8680   78.8530  222.2930 C   0  0  0  0  0  0  0  0  0  0  0  0
  140.0950   71.4330  223.4600 C   0  0  0  0  0  0  0  0  0  0  0  0
  139.5090   70.1860  223.3810 C   0  0  0  0  0  0  0  0  0  0  0  0
  139.4050   69.3380  224.4710 C   0  0  0  0  0  0  0  0  0  0  0  0
  139.9210   69.8010  225.6640 C   0  0  0  0  0  0  0  0  0  0  0  0
  139.8450   68.9950  226.7880 C   0  0  0  0  0  0  0  0  0  0  0  0
  140.3490   69.4250  227.9980 C   0  0  0  0  0  0  0  0  0  0  0  0
  140.2640   68.6150  229.0920 F   0  0  0  0  0  0  0  0  0  0  0  0
  140.9310   70.6660  228.0720 C   0  0  0  0  0  0  0  0  0  0  0  0
  141.0140   71.4860  226.9530 C   0  0  0  0  0  0  0  0  0  0  0  0
  140.5060   71.0600  225.7230 C   0  0  0  0  0  0  0  0  0  0  0  0
  140.5890   71.8620  224.6340 N   0  0  0  0  0  0  0  0  0  0  0  0
  139.5490   74.1060  223.1510 H   0  0  0  0  0  0  0  0  0  0  0  0
  140.5622   73.7646  220.2900 H   0  0  0  0  0  0  0  0  0  0  0  0
  138.9306   74.4312  220.5186 H   0  0  0  0  0  0  0  0  0  0  0  0
  142.5053   75.1054  219.7598 H   0  0  0  0  0  0  0  0  0  0  0  0
  141.4060   75.6268  218.3815 H   0  0  0  0  0  0  0  0  0  0  0  0
  143.8433   76.8934  219.4919 H   0  0  0  0  0  0  0  0  0  0  0  0
  143.2569   76.6080  217.7693 H   0  0  0  0  0  0  0  0  0  0  0  0
  143.0282   78.9230  219.4635 H   0  0  0  0  0  0  0  0  0  0  0  0
  142.7674   78.6768  217.6722 H   0  0  0  0  0  0  0  0  0  0  0  0
  140.8107   79.5525  218.9033 H   0  0  0  0  0  0  0  0  0  0  0  0
  140.5724   77.9749  218.0062 H   0  0  0  0  0  0  0  0  0  0  0  0
  139.4191   77.8453  219.9904 H   0  0  0  0  0  0  0  0  0  0  0  0
  142.9317   78.7920  220.9290 H   0  0  0  0  0  0  0  0  0  0  0  0
  141.6668   80.4934  224.6646 H   0  0  0  0  0  0  0  0  0  0  0  0
  138.8336   78.5300  222.1041 H   0  0  0  0  0  0  0  0  0  0  0  0
  139.1081   69.8519  222.4126 H   0  0  0  0  0  0  0  0  0  0  0  0
  138.9353   68.3466  224.3899 H   0  0  0  0  0  0  0  0  0  0  0  0
  139.3779   68.0018  226.7150 H   0  0  0  0  0  0  0  0  0  0  0  0
  141.3380   71.0169  229.0318 H   0  0  0  0  0  0  0  0  0  0  0  0
  141.4830   72.4775  227.0362 H   0  0  0  0  0  0  0  0  0  0  0  0
  1  2  2  0
  2  3  1  0
  3  4  1  0
  4  5  1  0
  5  6  2  0
  5  7  1  0
  7  8  1  0
  8  9  1  0
  9 10  1  0
 10 11  1  0
 11 12  1  0
 12 13  1  0
 13 14  2  0
 14 15  1  0
 15 16  1  0
 15 17  2  0
 17 18  1  0
 18 19  1  0
 18 20  2  0
  2 21  1  0
 21 22  2  0
 22 23  1  0
 23 24  2  0
 24 25  1  0
 25 26  2  0
 26 27  1  0
 26 28  1  0
 28 29  2  0
 29 30  1  0
 30 31  2  0
 12  7  1  0
 20 13  1  0
 31 21  1  0
 30 24  1  0
  3 32  1  0
  4 33  1  0
  4 34  1  0
  8 35  1  0
  8 36  1  0
  9 37  1  0
  9 38  1  0
 10 39  1  0
 10 40  1  0
 11 41  1  0
 11 42  1  0
 12 43  1  6
 14 44  1  0
 17 45  1  0
 20 46  1  0
 22 47  1  0
 23 48  1  0
 25 49  1  0
 28 50  1  0
 29 51  1  0
M  END
>  <smiles>  (15) 
O=C(NCC(=O)N1CCCCC1c1cc(F)cc(F)c1)c1ccc2cc(F)ccc2n1

>  <score_type>  (15) 
oracle

>  <origin>  (15) 
autodockgpu

>  <m_score__min__energy>  (15) 
-8.9000000000000004

>  <m_primary>  (15) 
energy

>  <rmsd>  (15) 
1.8901995660273456

>  <m_score__min__rmsd>  (15) 
1.8901995660273456

>  <meeko>  (15) 
{"free_energy": -8.85, "intermolecular_energy": -10.34, "internal_energy": -1.73, "cluster_size": 33, "cluster_id": 1, "rank_in_cluster": 15}

>  <energy>  (15) 
-8.85

>  <cluster_rmsd>  (15) 
0.39

>  <cluster>  (15) 
1

$$$$

     RDKit          3D

 51 54  0  0  0  0  0  0  0  0999 V2000
  141.3950   72.4940  221.7780 O   0  0  0  0  0  0  0  0  0  0  0  0
  140.4390   72.5560  222.5950 C   0  0  0  0  0  0  0  0  0  0  0  0
  139.4910   73.6020  222.3750 N   0  0  0  0  0  0  0  0  0  0  0  0
  139.7430   74.4750  221.2320 C   0  0  0  0  0  0  0  0  0  0  0  0
  139.9530   75.8420  221.7730 C   0  0  0  0  0  0  0  0  0  0  0  0
  141.1030   76.1060  222.2190 O   0  0  0  0  0  0  0  0  0  0  0  0
  138.8880   76.7860  221.7750 N   0  0  0  0  0  0  0  0  0  0  0  0
  137.7890   76.6540  220.8640 C   0  0  0  0  0  0  0  0  0  0  0  0
  137.2360   77.9440  220.3520 C   0  0  0  0  0  0  0  0  0  0  0  0
  137.3100   79.0930  221.3010 C   0  0  0  0  0  0  0  0  0  0  0  0
  137.7170   78.7000  222.6840 C   0  0  0  0  0  0  0  0  0  0  0  0
  138.9660   77.8850  222.7390 C   0  0  2  0  0  0  0  0  0  0  0  0
  140.2100   78.6620  222.4920 C   0  0  0  0  0  0  0  0  0  0  0  0
  140.6370   78.9830  221.2040 C   0  0  0  0  0  0  0  0  0  0  0  0
  141.7900   79.7040  220.9710 C   0  0  0  0  0  0  0  0  0  0  0  0
  142.2040   80.0170  219.7040 F   0  0  0  0  0  0  0  0  0  0  0  0
  142.5730   80.1380  222.0250 C   0  0  0  0  0  0  0  0  0  0  0  0
  142.1730   79.8340  223.3090 C   0  0  0  0  0  0  0  0  0  0  0  0
  142.9260   80.2500  224.3530 F   0  0  0  0  0  0  0  0  0  0  0  0
  141.0110   79.1080  223.5210 C   0  0  0  0  0  0  0  0  0  0  0  0
  140.2990   71.6210  223.7000 C   0  0  0  0  0  0  0  0  0  0  0  0
  139.6660   70.4190  223.4550 C   0  0  0  0  0  0  0  0  0  0  0  0
  139.4790   69.4580  224.4340 C   0  0  0  0  0  0  0  0  0  0  0  0
  139.9620   69.7570  225.6920 C   0  0  0  0  0  0  0  0  0  0  0  0
  139.8040   68.8320  226.7110 C   0  0  0  0  0  0  0  0  0  0  0  0
  140.2730   69.0970  227.9810 C   0  0  0  0  0  0  0  0  0  0  0  0
  140.1070   68.1720  228.9690 F   0  0  0  0  0  0  0  0  0  0  0  0
  140.9020   70.2940  228.2200 C   0  0  0  0  0  0  0  0  0  0  0  0
  141.0680   71.2310  227.2090 C   0  0  0  0  0  0  0  0  0  0  0  0
  140.5960   70.9730  225.9190 C   0  0  0  0  0  0  0  0  0  0  0  0
  140.7590   71.8890  224.9340 N   0  0  0  0  0  0  0  0  0  0  0  0
  138.6690   73.7200  223.0100 H   0  0  0  0  0  0  0  0  0  0  0  0
  140.6401   74.1402  220.6906 H   0  0  0  0  0  0  0  0  0  0  0  0
  138.8987   74.4553  220.5271 H   0  0  0  0  0  0  0  0  0  0  0  0
  138.1297   76.0623  220.0015 H   0  0  0  0  0  0  0  0  0  0  0  0
  136.9767   76.1736  221.4291 H   0  0  0  0  0  0  0  0  0  0  0  0
  137.7949   78.2166  219.4446 H   0  0  0  0  0  0  0  0  0  0  0  0
  136.1652   77.7657  220.1745 H   0  0  0  0  0  0  0  0  0  0  0  0
  138.0431   79.8165  220.9149 H   0  0  0  0  0  0  0  0  0  0  0  0
  136.2986   79.5199  221.3709 H   0  0  0  0  0  0  0  0  0  0  0  0
  137.8753   79.6162  223.2718 H   0  0  0  0  0  0  0  0  0  0  0  0
  136.9088   78.0728  223.0882 H   0  0  0  0  0  0  0  0  0  0  0  0
  139.0304   77.5049  223.7692 H   0  0  0  0  0  0  0  0  0  0  0  0
  140.0349   78.6505  220.3456 H   0  0  0  0  0  0  0  0  0  0  0  0
  143.4934   80.7123  221.8433 H   0  0  0  0  0  0  0  0  0  0  0  0
  140.7156   78.8780  224.5553 H   0  0  0  0  0  0  0  0  0  0  0  0
  139.2947   70.2162  222.4396 H   0  0  0  0  0  0  0  0  0  0  0  0
  138.9718   68.5056  224.2204 H   0  0  0  0  0  0  0  0  0  0  0  0
  139.2994   67.8764  226.5054 H   0  0  0  0  0  0  0  0  0  0  0  0
  141.2806   70.5141  229.2291 H   0  0  0  0  0  0  0  0  0  0  0  0
  141.5746   72.1832  227.4248 H   0  0  0  0  0  0  0  0  0  0  0  0
  1  2  2  0
  2  3  1  0
  3  4  1  0
  4  5  1  0
  5  6  2  0
  5  7  1  0
  7  8  1  0
  8  9  1  0
  9 10  1  0
 10 11  1  0
 11 12  1  0
 12 13  1  0
 13 14  2  0
 14 15  1  0
 15 16  1  0
 15 17  2  0
 17 18  1  0
 18 19  1  0
 18 20  2  0
  2 21  1  0
 21 22  2  0
 22 23  1  0
 23 24  2  0
 24 25  1  0
 25 26  2  0
 26 27  1  0
 26 28  1  0
 28 29  2  0
 29 30  1  0
 30 31  2  0
 12  7  1  0
 20 13  1  0
 31 21  1  0
 30 24  1  0
  3 32  1  0
  4 33  1  0
  4 34  1  0
  8 35  1  0
  8 36  1  0
  9 37  1  0
  9 38  1  0
 10 39  1  0
 10 40  1  0
 11 41  1  0
 11 42  1  0
 12 43  1  1
 14 44  1  0
 17 45  1  0
 20 46  1  0
 22 47  1  0
 23 48  1  0
 25 49  1  0
 28 50  1  0
 29 51  1  0
M  END
>  <smiles>  (16) 
O=C(NCC(=O)N1CCCCC1c1cc(F)cc(F)c1)c1ccc2cc(F)ccc2n1

>  <score_type>  (16) 
oracle

>  <origin>  (16) 
autodockgpu

>  <m_score__min__energy>  (16) 
-8.9000000000000004

>  <m_primary>  (16) 
energy

>  <rmsd>  (16) 
2.9283304912492594

>  <m_score__min__rmsd>  (16) 
2.9283304912492594

>  <meeko>  (16) 
{"free_energy": -8.41, "intermolecular_energy": -9.9, "internal_energy": -1.21, "cluster_size": 33, "cluster_id": 1, "rank_in_cluster": 32}

>  <energy>  (16) 
-8.85

>  <cluster_rmsd>  (16) 
0.42

>  <cluster>  (16) 
1

$$$$

     RDKit          3D

 51 54  0  0  0  0  0  0  0  0999 V2000
  140.5230   71.7860  221.1400 O   0  0  0  0  0  0  0  0  0  0  0  0
  140.1830   72.2710  222.2510 C   0  0  0  0  0  0  0  0  0  0  0  0
  139.8640   73.6640  222.2590 N   0  0  0  0  0  0  0  0  0  0  0  0
  139.9700   74.3590  220.9790 C   0  0  0  0  0  0  0  0  0  0  0  0
  140.6110   75.6700  221.2550 C   0  0  0  0  0  0  0  0  0  0  0  0
  140.7260   76.0030  222.4660 O   0  0  0  0  0  0  0  0  0  0  0  0
  141.0610   76.4910  220.1820 N   0  0  0  0  0  0  0  0  0  0  0  0
  142.0160   75.9980  219.2340 C   0  0  0  0  0  0  0  0  0  0  0  0
  142.9930   77.0130  218.7370 C   0  0  0  0  0  0  0  0  0  0  0  0
  142.4740   78.4090  218.6460 C   0  0  0  0  0  0  0  0  0  0  0  0
  140.9970   78.5110  218.8510 C   0  0  0  0  0  0  0  0  0  0  0  0
  140.5110   77.8440  220.0940 C   0  0  2  0  0  0  0  0  0  0  0  0
  140.8320   78.5820  221.3450 C   0  0  0  0  0  0  0  0  0  0  0  0
  142.1230   79.0210  221.6340 C   0  0  0  0  0  0  0  0  0  0  0  0
  142.4240   79.7060  222.7930 C   0  0  0  0  0  0  0  0  0  0  0  0
  143.6940   80.1350  223.0710 F   0  0  0  0  0  0  0  0  0  0  0  0
  141.4370   79.9840  223.7220 C   0  0  0  0  0  0  0  0  0  0  0  0
  140.1510   79.5610  223.4610 C   0  0  0  0  0  0  0  0  0  0  0  0
  139.1730   79.8230  224.3570 F   0  0  0  0  0  0  0  0  0  0  0  0
  139.8700   78.8730  222.2900 C   0  0  0  0  0  0  0  0  0  0  0  0
  140.1160   71.4680  223.4630 C   0  0  0  0  0  0  0  0  0  0  0  0
  139.4920   70.2390  223.3900 C   0  0  0  0  0  0  0  0  0  0  0  0
  139.3720   69.3950  224.4810 C   0  0  0  0  0  0  0  0  0  0  0  0
  139.9130   69.8420  225.6690 C   0  0  0  0  0  0  0  0  0  0  0  0
  139.8230   69.0390  226.7940 C   0  0  0  0  0  0  0  0  0  0  0  0
  140.3510   69.4540  227.9990 C   0  0  0  0  0  0  0  0  0  0  0  0
  140.2520   68.6470  229.0940 F   0  0  0  0  0  0  0  0  0  0  0  0
  140.9710   70.6770  228.0670 C   0  0  0  0  0  0  0  0  0  0  0  0
  141.0690   71.4940  226.9470 C   0  0  0  0  0  0  0  0  0  0  0  0
  140.5360   71.0840  225.7220 C   0  0  0  0  0  0  0  0  0  0  0  0
  140.6340   71.8820  224.6320 N   0  0  0  0  0  0  0  0  0  0  0  0
  139.5740   74.1400  223.1420 H   0  0  0  0  0  0  0  0  0  0  0  0
  140.5876   73.7749  220.2808 H   0  0  0  0  0  0  0  0  0  0  0  0
  138.9798   74.4926  220.5190 H   0  0  0  0  0  0  0  0  0  0  0  0
  142.5820   75.1844  219.7112 H   0  0  0  0  0  0  0  0  0  0  0  0
  141.4383   75.6715  218.3567 H   0  0  0  0  0  0  0  0  0  0  0  0
  143.8563   77.0155  219.4187 H   0  0  0  0  0  0  0  0  0  0  0  0
  143.2434   76.7148  217.7082 H   0  0  0  0  0  0  0  0  0  0  0  0
  142.9748   79.0173  219.4136 H   0  0  0  0  0  0  0  0  0  0  0  0
  142.6845   78.7664  217.6272 H   0  0  0  0  0  0  0  0  0  0  0  0
  140.7272   79.5762  218.9015 H   0  0  0  0  0  0  0  0  0  0  0  0
  140.5210   77.9941  218.0047 H   0  0  0  0  0  0  0  0  0  0  0  0
  139.4142   77.8219  220.0126 H   0  0  0  0  0  0  0  0  0  0  0  0
  142.9286   78.8144  220.9140 H   0  0  0  0  0  0  0  0  0  0  0  0
  141.6729   80.5299  224.6474 H   0  0  0  0  0  0  0  0  0  0  0  0
  138.8360   78.5454  222.1069 H   0  0  0  0  0  0  0  0  0  0  0  0
  139.0728   69.9168  222.4254 H   0  0  0  0  0  0  0  0  0  0  0  0
  138.8712   68.4186  224.4046 H   0  0  0  0  0  0  0  0  0  0  0  0
  139.3254   68.0603  226.7259 H   0  0  0  0  0  0  0  0  0  0  0  0
  141.3969   71.0156  229.0230 H   0  0  0  0  0  0  0  0  0  0  0  0
  141.5697   72.4703  227.0254 H   0  0  0  0  0  0  0  0  0  0  0  0
  1  2  2  0
  2  3  1  0
  3  4  1  0
  4  5  1  0
  5  6  2  0
  5  7  1  0
  7  8  1  0
  8  9  1  0
  9 10  1  0
 10 11  1  0
 11 12  1  0
 12 13  1  0
 13 14  2  0
 14 15  1  0
 15 16  1  0
 15 17  2  0
 17 18  1  0
 18 19  1  0
 18 20  2  0
  2 21  1  0
 21 22  2  0
 22 23  1  0
 23 24  2  0
 24 25  1  0
 25 26  2  0
 26 27  1  0
 26 28  1  0
 28 29  2  0
 29 30  1  0
 30 31  2  0
 12  7  1  0
 20 13  1  0
 31 21  1  0
 30 24  1  0
  3 32  1  0
  4 33  1  0
  4 34  1  0
  8 35  1  0
  8 36  1  0
  9 37  1  0
  9 38  1  0
 10 39  1  0
 10 40  1  0
 11 41  1  0
 11 42  1  0
 12 43  1  6
 14 44  1  0
 17 45  1  0
 20 46  1  0
 22 47  1  0
 23 48  1  0
 25 49  1  0
 28 50  1  0
 29 51  1  0
M  END
>  <smiles>  (17) 
O=C(NCC(=O)N1CCCCC1c1cc(F)cc(F)c1)c1ccc2cc(F)ccc2n1

>  <score_type>  (17) 
oracle

>  <origin>  (17) 
autodockgpu

>  <m_score__min__energy>  (17) 
-8.9000000000000004

>  <m_primary>  (17) 
energy

>  <rmsd>  (17) 
1.91819432477852

>  <m_score__min__rmsd>  (17) 
1.91819432477852

>  <meeko>  (17) 
{"free_energy": -8.85, "intermolecular_energy": -10.35, "internal_energy": -1.73, "cluster_size": 33, "cluster_id": 1, "rank_in_cluster": 12}

>  <energy>  (17) 
-8.85

>  <cluster_rmsd>  (17) 
0.42

>  <cluster>  (17) 
1

$$$$

     RDKit          3D

 51 54  0  0  0  0  0  0  0  0999 V2000
  140.5030   71.7950  221.1430 O   0  0  0  0  0  0  0  0  0  0  0  0
  140.1730   72.2800  222.2570 C   0  0  0  0  0  0  0  0  0  0  0  0
  139.8590   73.6730  222.2680 N   0  0  0  0  0  0  0  0  0  0  0  0
  139.9580   74.3700  220.9890 C   0  0  0  0  0  0  0  0  0  0  0  0
  140.6130   75.6750  221.2600 C   0  0  0  0  0  0  0  0  0  0  0  0
  140.7370   76.0070  222.4700 O   0  0  0  0  0  0  0  0  0  0  0  0
  141.0690   76.4880  220.1840 N   0  0  0  0  0  0  0  0  0  0  0  0
  142.0250   75.9880  219.2400 C   0  0  0  0  0  0  0  0  0  0  0  0
  143.0060   76.9980  218.7410 C   0  0  0  0  0  0  0  0  0  0  0  0
  142.4900   78.3950  218.6420 C   0  0  0  0  0  0  0  0  0  0  0  0
  141.0130   78.5020  218.8420 C   0  0  0  0  0  0  0  0  0  0  0  0
  140.5220   77.8430  220.0880 C   0  0  2  0  0  0  0  0  0  0  0  0
  140.8420   78.5860  221.3360 C   0  0  0  0  0  0  0  0  0  0  0  0
  142.1340   79.0230  221.6260 C   0  0  0  0  0  0  0  0  0  0  0  0
  142.4340   79.7130  222.7830 C   0  0  0  0  0  0  0  0  0  0  0  0
  143.7040   80.1390  223.0620 F   0  0  0  0  0  0  0  0  0  0  0  0
  141.4450   79.9990  223.7070 C   0  0  0  0  0  0  0  0  0  0  0  0
  140.1580   79.5780  223.4440 C   0  0  0  0  0  0  0  0  0  0  0  0
  139.1780   79.8480  224.3370 F   0  0  0  0  0  0  0  0  0  0  0  0
  139.8790   78.8850  222.2760 C   0  0  0  0  0  0  0  0  0  0  0  0
  140.1120   71.4750  223.4680 C   0  0  0  0  0  0  0  0  0  0  0  0
  139.4910   70.2450  223.3960 C   0  0  0  0  0  0  0  0  0  0  0  0
  139.3770   69.3990  224.4860 C   0  0  0  0  0  0  0  0  0  0  0  0
  139.9220   69.8470  225.6730 C   0  0  0  0  0  0  0  0  0  0  0  0
  139.8370   69.0430  226.7980 C   0  0  0  0  0  0  0  0  0  0  0  0
  140.3690   69.4570  228.0010 C   0  0  0  0  0  0  0  0  0  0  0  0
  140.2750   68.6490  229.0960 F   0  0  0  0  0  0  0  0  0  0  0  0
  140.9870   70.6810  228.0680 C   0  0  0  0  0  0  0  0  0  0  0  0
  141.0790   71.4990  226.9480 C   0  0  0  0  0  0  0  0  0  0  0  0
  140.5420   71.0890  225.7250 C   0  0  0  0  0  0  0  0  0  0  0  0
  140.6340   71.8890  224.6350 N   0  0  0  0  0  0  0  0  0  0  0  0
  139.5760   74.1490  223.1540 H   0  0  0  0  0  0  0  0  0  0  0  0
  140.5632   73.7820  220.2833 H   0  0  0  0  0  0  0  0  0  0  0  0
  138.9640   74.5134  220.5401 H   0  0  0  0  0  0  0  0  0  0  0  0
  142.5875   75.1748  219.7220 H   0  0  0  0  0  0  0  0  0  0  0  0
  141.4484   75.6594  218.3628 H   0  0  0  0  0  0  0  0  0  0  0  0
  143.8673   77.0018  219.4252 H   0  0  0  0  0  0  0  0  0  0  0  0
  143.2591   76.6942  217.7145 H   0  0  0  0  0  0  0  0  0  0  0  0
  142.9900   79.0056  219.4082 H   0  0  0  0  0  0  0  0  0  0  0  0
  142.7041   78.7468  217.6220 H   0  0  0  0  0  0  0  0  0  0  0  0
  140.7458   79.5681  218.8857 H   0  0  0  0  0  0  0  0  0  0  0  0
  140.5379   77.9818  217.9972 H   0  0  0  0  0  0  0  0  0  0  0  0
  139.4253   77.8241  220.0045 H   0  0  0  0  0  0  0  0  0  0  0  0
  142.9407   78.8108  220.9090 H   0  0  0  0  0  0  0  0  0  0  0  0
  141.6795   80.5494  224.6301 H   0  0  0  0  0  0  0  0  0  0  0  0
  138.8445   78.5597  222.0914 H   0  0  0  0  0  0  0  0  0  0  0  0
  139.0689   69.9232  222.4325 H   0  0  0  0  0  0  0  0  0  0  0  0
  138.8785   68.4214  224.4104 H   0  0  0  0  0  0  0  0  0  0  0  0
  139.3399   68.0640  226.7309 H   0  0  0  0  0  0  0  0  0  0  0  0
  141.4160   71.0196  229.0226 H   0  0  0  0  0  0  0  0  0  0  0  0
  141.5782   72.4762  227.0250 H   0  0  0  0  0  0  0  0  0  0  0  0
  1  2  2  0
  2  3  1  0
  3  4  1  0
  4  5  1  0
  5  6  2  0
  5  7  1  0
  7  8  1  0
  8  9  1  0
  9 10  1  0
 10 11  1  0
 11 12  1  0
 12 13  1  0
 13 14  2  0
 14 15  1  0
 15 16  1  0
 15 17  2  0
 17 18  1  0
 18 19  1  0
 18 20  2  0
  2 21  1  0
 21 22  2  0
 22 23  1  0
 23 24  2  0
 24 25  1  0
 25 26  2  0
 26 27  1  0
 26 28  1  0
 28 29  2  0
 29 30  1  0
 30 31  2  0
 12  7  1  0
 20 13  1  0
 31 21  1  0
 30 24  1  0
  3 32  1  0
  4 33  1  0
  4 34  1  0
  8 35  1  0
  8 36  1  0
  9 37  1  0
  9 38  1  0
 10 39  1  0
 10 40  1  0
 11 41  1  0
 11 42  1  0
 12 43  1  6
 14 44  1  0
 17 45  1  0
 20 46  1  0
 22 47  1  0
 23 48  1  0
 25 49  1  0
 28 50  1  0
 29 51  1  0
M  END
>  <smiles>  (18) 
O=C(NCC(=O)N1CCCCC1c1cc(F)cc(F)c1)c1ccc2cc(F)ccc2n1

>  <score_type>  (18) 
oracle

>  <origin>  (18) 
autodockgpu

>  <m_score__min__energy>  (18) 
-8.9000000000000004

>  <m_primary>  (18) 
energy

>  <rmsd>  (18) 
1.9180952391229373

>  <m_score__min__rmsd>  (18) 
1.9180952391229373

>  <meeko>  (18) 
{"free_energy": -8.85, "intermolecular_energy": -10.34, "internal_energy": -1.73, "cluster_size": 33, "cluster_id": 1, "rank_in_cluster": 16}

>  <energy>  (18) 
-8.85

>  <cluster_rmsd>  (18) 
0.34

>  <cluster>  (18) 
1

$$$$

     RDKit          3D

 51 54  0  0  0  0  0  0  0  0999 V2000
  141.0470   72.1840  221.4940 O   0  0  0  0  0  0  0  0  0  0  0  0
  140.2070   72.3730  222.4130 C   0  0  0  0  0  0  0  0  0  0  0  0
  139.3050   73.4650  222.2240 N   0  0  0  0  0  0  0  0  0  0  0  0
  139.4640   74.2310  220.9910 C   0  0  0  0  0  0  0  0  0  0  0  0
  140.2330   75.4520  221.3410 C   0  0  0  0  0  0  0  0  0  0  0  0
  140.2890   75.7570  222.5640 O   0  0  0  0  0  0  0  0  0  0  0  0
  140.8640   76.2220  220.3230 N   0  0  0  0  0  0  0  0  0  0  0  0
  141.8960   75.6520  219.5070 C   0  0  0  0  0  0  0  0  0  0  0  0
  142.9890   76.5950  219.1240 C   0  0  0  0  0  0  0  0  0  0  0  0
  142.5750   78.0180  218.9520 C   0  0  0  0  0  0  0  0  0  0  0  0
  141.0940   78.2150  218.9690 C   0  0  0  0  0  0  0  0  0  0  0  0
  140.4170   77.6040  220.1510 C   0  0  2  0  0  0  0  0  0  0  0  0
  140.6260   78.3460  221.4230 C   0  0  0  0  0  0  0  0  0  0  0  0
  141.8940   78.7440  221.8460 C   0  0  0  0  0  0  0  0  0  0  0  0
  142.0920   79.4320  223.0260 C   0  0  0  0  0  0  0  0  0  0  0  0
  143.3390   79.8200  223.4360 F   0  0  0  0  0  0  0  0  0  0  0  0
  141.0210   79.7550  223.8390 C   0  0  0  0  0  0  0  0  0  0  0  0
  139.7570   79.3740  223.4440 C   0  0  0  0  0  0  0  0  0  0  0  0
  138.6970   79.6810  224.2260 F   0  0  0  0  0  0  0  0  0  0  0  0
  139.5800   78.6820  222.2550 C   0  0  0  0  0  0  0  0  0  0  0  0
  140.1490   71.5340  223.6000 C   0  0  0  0  0  0  0  0  0  0  0  0
  139.5310   70.3050  223.4940 C   0  0  0  0  0  0  0  0  0  0  0  0
  139.4210   69.4280  224.5600 C   0  0  0  0  0  0  0  0  0  0  0  0
  139.9660   69.8430  225.7580 C   0  0  0  0  0  0  0  0  0  0  0  0
  139.8850   69.0070  226.8590 C   0  0  0  0  0  0  0  0  0  0  0  0
  140.4180   69.3880  228.0730 C   0  0  0  0  0  0  0  0  0  0  0  0
  140.3280   68.5480  229.1440 F   0  0  0  0  0  0  0  0  0  0  0  0
  141.0320   70.6110  228.1740 C   0  0  0  0  0  0  0  0  0  0  0  0
  141.1200   71.4610  227.0790 C   0  0  0  0  0  0  0  0  0  0  0  0
  140.5830   71.0850  225.8440 C   0  0  0  0  0  0  0  0  0  0  0  0
  140.6710   71.9160  224.7780 N   0  0  0  0  0  0  0  0  0  0  0  0
  138.5780   73.6870  222.9410 H   0  0  0  0  0  0  0  0  0  0  0  0
  140.0136   73.6381  220.2450 H   0  0  0  0  0  0  0  0  0  0  0  0
  138.4864   74.4905  220.5586 H   0  0  0  0  0  0  0  0  0  0  0  0
  142.3458   74.8147  220.0607 H   0  0  0  0  0  0  0  0  0  0  0  0
  141.4118   75.3441  218.5685 H   0  0  0  0  0  0  0  0  0  0  0  0
  143.7595   76.5581  219.9082 H   0  0  0  0  0  0  0  0  0  0  0  0
  143.3455   76.2616  218.1382 H   0  0  0  0  0  0  0  0  0  0  0  0
  143.0141   78.6094  219.7690 H   0  0  0  0  0  0  0  0  0  0  0  0
  142.9327   78.3414  217.9633 H   0  0  0  0  0  0  0  0  0  0  0  0
  140.8882   79.2956  218.9720 H   0  0  0  0  0  0  0  0  0  0  0  0
  140.6943   77.7119  218.0762 H   0  0  0  0  0  0  0  0  0  0  0  0
  139.3395   77.6480  219.9341 H   0  0  0  0  0  0  0  0  0  0  0  0
  142.7646   78.5017  221.2188 H   0  0  0  0  0  0  0  0  0  0  0  0
  141.1746   80.3037  224.7799 H   0  0  0  0  0  0  0  0  0  0  0  0
  138.5607   78.3887  221.9636 H   0  0  0  0  0  0  0  0  0  0  0  0
  139.1082   70.0096  222.5225 H   0  0  0  0  0  0  0  0  0  0  0  0
  138.9251   68.4515  224.4572 H   0  0  0  0  0  0  0  0  0  0  0  0
  139.3905   68.0290  226.7646 H   0  0  0  0  0  0  0  0  0  0  0  0
  141.4613   70.9232  229.1374 H   0  0  0  0  0  0  0  0  0  0  0  0
  141.6159   72.4372  227.1842 H   0  0  0  0  0  0  0  0  0  0  0  0
  1  2  2  0
  2  3  1  0
  3  4  1  0
  4  5  1  0
  5  6  2  0
  5  7  1  0
  7  8  1  0
  8  9  1  0
  9 10  1  0
 10 11  1  0
 11 12  1  0
 12 13  1  0
 13 14  2  0
 14 15  1  0
 15 16  1  0
 15 17  2  0
 17 18  1  0
 18 19  1  0
 18 20  2  0
  2 21  1  0
 21 22  2  0
 22 23  1  0
 23 24  2  0
 24 25  1  0
 25 26  2  0
 26 27  1  0
 26 28  1  0
 28 29  2  0
 29 30  1  0
 30 31  2  0
 12  7  1  0
 20 13  1  0
 31 21  1  0
 30 24  1  0
  3 32  1  0
  4 33  1  0
  4 34  1  0
  8 35  1  0
  8 36  1  0
  9 37  1  0
  9 38  1  0
 10 39  1  0
 10 40  1  0
 11 41  1  0
 11 42  1  0
 12 43  1  6
 14 44  1  0
 17 45  1  0
 20 46  1  0
 22 47  1  0
 23 48  1  0
 25 49  1  0
 28 50  1  0
 29 51  1  0
M  END
>  <smiles>  (19) 
O=C(NCC(=O)N1CCCCC1c1cc(F)cc(F)c1)c1ccc2cc(F)ccc2n1

>  <score_type>  (19) 
oracle

>  <origin>  (19) 
autodockgpu

>  <m_score__min__energy>  (19) 
-8.9000000000000004

>  <m_primary>  (19) 
energy

>  <rmsd>  (19) 
1.8451245480360972

>  <m_score__min__rmsd>  (19) 
1.8451245480360972

>  <meeko>  (19) 
{"free_energy": -8.87, "intermolecular_energy": -10.36, "internal_energy": -1.41, "cluster_size": 33, "cluster_id": 1, "rank_in_cluster": 4}

>  <energy>  (19) 
-8.85

>  <cluster_rmsd>  (19) 
0.41

>  <cluster>  (19) 
1

$$$$

     RDKit          3D

 51 54  0  0  0  0  0  0  0  0999 V2000
  141.0300   72.0760  221.3210 O   0  0  0  0  0  0  0  0  0  0  0  0
  140.2580   72.3460  222.2780 C   0  0  0  0  0  0  0  0  0  0  0  0
  139.4580   73.5200  222.1300 N   0  0  0  0  0  0  0  0  0  0  0  0
  139.6310   74.2680  220.8870 C   0  0  0  0  0  0  0  0  0  0  0  0
  140.6580   75.3080  221.1510 C   0  0  0  0  0  0  0  0  0  0  0  0
  141.0720   75.4080  222.3380 O   0  0  0  0  0  0  0  0  0  0  0  0
  141.1300   76.1370  220.0950 N   0  0  0  0  0  0  0  0  0  0  0  0
  142.1350   75.6660  219.1870 C   0  0  0  0  0  0  0  0  0  0  0  0
  143.1050   76.7050  218.7270 C   0  0  0  0  0  0  0  0  0  0  0  0
  142.5550   78.0870  218.6110 C   0  0  0  0  0  0  0  0  0  0  0  0
  141.0690   78.1520  218.7560 C   0  0  0  0  0  0  0  0  0  0  0  0
  140.5510   77.4760  219.9800 C   0  0  2  0  0  0  0  0  0  0  0  0
  140.8010   78.2250  221.2410 C   0  0  0  0  0  0  0  0  0  0  0  0
  139.7870   78.4810  222.1630 C   0  0  0  0  0  0  0  0  0  0  0  0
  140.0160   79.1750  223.3330 C   0  0  0  0  0  0  0  0  0  0  0  0
  139.0170   79.4230  224.2340 F   0  0  0  0  0  0  0  0  0  0  0  0
  141.2810   79.6470  223.6340 C   0  0  0  0  0  0  0  0  0  0  0  0
  142.3030   79.4070  222.7390 C   0  0  0  0  0  0  0  0  0  0  0  0
  143.5460   79.8610  223.0170 F   0  0  0  0  0  0  0  0  0  0  0  0
  142.0510   78.7080  221.5690 C   0  0  0  0  0  0  0  0  0  0  0  0
  140.1780   71.5150  223.4700 C   0  0  0  0  0  0  0  0  0  0  0  0
  139.5440   70.2940  223.3660 C   0  0  0  0  0  0  0  0  0  0  0  0
  139.4110   69.4260  224.4360 C   0  0  0  0  0  0  0  0  0  0  0  0
  139.9500   69.8410  225.6370 C   0  0  0  0  0  0  0  0  0  0  0  0
  139.8470   69.0130  226.7430 C   0  0  0  0  0  0  0  0  0  0  0  0
  140.3740   69.3950  227.9600 C   0  0  0  0  0  0  0  0  0  0  0  0
  140.2620   68.5640  229.0350 F   0  0  0  0  0  0  0  0  0  0  0  0
  141.0040   70.6100  228.0590 C   0  0  0  0  0  0  0  0  0  0  0  0
  141.1140   71.4520  226.9590 C   0  0  0  0  0  0  0  0  0  0  0  0
  140.5840   71.0750  225.7220 C   0  0  0  0  0  0  0  0  0  0  0  0
  140.6940   71.8970  224.6510 N   0  0  0  0  0  0  0  0  0  0  0  0
  138.7930   73.8110  222.8810 H   0  0  0  0  0  0  0  0  0  0  0  0
  139.9701   73.5960  220.0848 H   0  0  0  0  0  0  0  0  0  0  0  0
  138.6826   74.7228  220.5649 H   0  0  0  0  0  0  0  0  0  0  0  0
  142.7018   74.8680  219.6889 H   0  0  0  0  0  0  0  0  0  0  0  0
  141.6018   75.3228  218.2882 H   0  0  0  0  0  0  0  0  0  0  0  0
  143.9396   76.7309  219.4431 H   0  0  0  0  0  0  0  0  0  0  0  0
  143.4041   76.4114  217.7100 H   0  0  0  0  0  0  0  0  0  0  0  0
  143.0089   78.7093  219.3963 H   0  0  0  0  0  0  0  0  0  0  0  0
  142.7973   78.4476  217.6004 H   0  0  0  0  0  0  0  0  0  0  0  0
  140.7705   79.2101  218.7922 H   0  0  0  0  0  0  0  0  0  0  0  0
  140.6406   77.6215  217.8928 H   0  0  0  0  0  0  0  0  0  0  0  0
  139.4594   77.4260  219.8539 H   0  0  0  0  0  0  0  0  0  0  0  0
  138.7708   78.1176  221.9504 H   0  0  0  0  0  0  0  0  0  0  0  0
  141.4677   80.2011  224.5658 H   0  0  0  0  0  0  0  0  0  0  0  0
  142.8834   78.5307  220.8720 H   0  0  0  0  0  0  0  0  0  0  0  0
  139.1269   69.9980  222.3922 H   0  0  0  0  0  0  0  0  0  0  0  0
  138.9022   68.4560  224.3345 H   0  0  0  0  0  0  0  0  0  0  0  0
  139.3400   68.0412  226.6502 H   0  0  0  0  0  0  0  0  0  0  0  0
  141.4287   70.9224  229.0244 H   0  0  0  0  0  0  0  0  0  0  0  0
  141.6219   72.4222  227.0626 H   0  0  0  0  0  0  0  0  0  0  0  0
  1  2  2  0
  2  3  1  0
  3  4  1  0
  4  5  1  0
  5  6  2  0
  5  7  1  0
  7  8  1  0
  8  9  1  0
  9 10  1  0
 10 11  1  0
 11 12  1  0
 12 13  1  0
 13 14  2  0
 14 15  1  0
 15 16  1  0
 15 17  2  0
 17 18  1  0
 18 19  1  0
 18 20  2  0
  2 21  1  0
 21 22  2  0
 22 23  1  0
 23 24  2  0
 24 25  1  0
 25 26  2  0
 26 27  1  0
 26 28  1  0
 28 29  2  0
 29 30  1  0
 30 31  2  0
 12  7  1  0
 20 13  1  0
 31 21  1  0
 30 24  1  0
  3 32  1  0
  4 33  1  0
  4 34  1  0
  8 35  1  0
  8 36  1  0
  9 37  1  0
  9 38  1  0
 10 39  1  0
 10 40  1  0
 11 41  1  0
 11 42  1  0
 12 43  1  6
 14 44  1  0
 17 45  1  0
 20 46  1  0
 22 47  1  0
 23 48  1  0
 25 49  1  0
 28 50  1  0
 29 51  1  0
M  END
>  <smiles>  (20) 
O=C(NCC(=O)N1CCCCC1c1cc(F)cc(F)c1)c1ccc2cc(F)ccc2n1

>  <score_type>  (20) 
oracle

>  <origin>  (20) 
autodockgpu

>  <m_score__min__energy>  (20) 
-8.9000000000000004

>  <m_primary>  (20) 
energy

>  <rmsd>  (20) 
1.8380070568423401

>  <m_score__min__rmsd>  (20) 
1.8380070568423401

>  <meeko>  (20) 
{"free_energy": -8.87, "intermolecular_energy": -10.36, "internal_energy": -1.43, "cluster_size": 33, "cluster_id": 1, "rank_in_cluster": 5}

>  <energy>  (20) 
-8.84

>  <cluster_rmsd>  (20) 
0.4

>  <cluster>  (20) 
1

$$$$

     RDKit          3D

 51 54  0  0  0  0  0  0  0  0999 V2000
  140.4400   71.7860  221.1560 O   0  0  0  0  0  0  0  0  0  0  0  0
  140.1370   72.2650  222.2800 C   0  0  0  0  0  0  0  0  0  0  0  0
  139.8330   73.6600  222.3090 N   0  0  0  0  0  0  0  0  0  0  0  0
  139.9090   74.3660  221.0330 C   0  0  0  0  0  0  0  0  0  0  0  0
  140.5740   75.6670  221.3010 C   0  0  0  0  0  0  0  0  0  0  0  0
  140.6880   76.0080  222.5100 O   0  0  0  0  0  0  0  0  0  0  0  0
  141.0490   76.4670  220.2240 N   0  0  0  0  0  0  0  0  0  0  0  0
  142.0050   75.9480  219.2900 C   0  0  0  0  0  0  0  0  0  0  0  0
  143.0030   76.9410  218.7920 C   0  0  0  0  0  0  0  0  0  0  0  0
  142.5080   78.3450  218.6810 C   0  0  0  0  0  0  0  0  0  0  0  0
  141.0310   78.4730  218.8700 C   0  0  0  0  0  0  0  0  0  0  0  0
  140.5220   77.8290  220.1150 C   0  0  2  0  0  0  0  0  0  0  0  0
  140.8430   78.5750  221.3610 C   0  0  0  0  0  0  0  0  0  0  0  0
  142.1360   79.0110  221.6500 C   0  0  0  0  0  0  0  0  0  0  0  0
  142.4370   79.7030  222.8050 C   0  0  0  0  0  0  0  0  0  0  0  0
  143.7080   80.1290  223.0820 F   0  0  0  0  0  0  0  0  0  0  0  0
  141.4490   79.9930  223.7290 C   0  0  0  0  0  0  0  0  0  0  0  0
  140.1620   79.5730  223.4680 C   0  0  0  0  0  0  0  0  0  0  0  0
  139.1820   79.8470  224.3600 F   0  0  0  0  0  0  0  0  0  0  0  0
  139.8810   78.8780  222.3020 C   0  0  0  0  0  0  0  0  0  0  0  0
  140.0970   71.4510  223.4860 C   0  0  0  0  0  0  0  0  0  0  0  0
  139.5180   70.2010  223.4030 C   0  0  0  0  0  0  0  0  0  0  0  0
  139.4260   69.3450  224.4880 C   0  0  0  0  0  0  0  0  0  0  0  0
  139.9490   69.8040  225.6810 C   0  0  0  0  0  0  0  0  0  0  0  0
  139.8850   68.9910  226.8000 C   0  0  0  0  0  0  0  0  0  0  0  0
  140.3960   69.4160  228.0090 C   0  0  0  0  0  0  0  0  0  0  0  0
  140.3230   68.5980  229.0980 F   0  0  0  0  0  0  0  0  0  0  0  0
  140.9710   70.6600  228.0860 C   0  0  0  0  0  0  0  0  0  0  0  0
  141.0410   71.4870  226.9720 C   0  0  0  0  0  0  0  0  0  0  0  0
  140.5260   71.0670  225.7430 C   0  0  0  0  0  0  0  0  0  0  0  0
  140.5970   71.8750  224.6590 N   0  0  0  0  0  0  0  0  0  0  0  0
  139.5720   74.1310  223.2050 H   0  0  0  0  0  0  0  0  0  0  0  0
  140.4981   73.7812  220.3112 H   0  0  0  0  0  0  0  0  0  0  0  0
  138.9070   74.5159  220.6047 H   0  0  0  0  0  0  0  0  0  0  0  0
  142.5529   75.1303  219.7811 H   0  0  0  0  0  0  0  0  0  0  0  0
  141.4303   75.6218  218.4106 H   0  0  0  0  0  0  0  0  0  0  0  0
  143.8596   76.9366  219.4821 H   0  0  0  0  0  0  0  0  0  0  0  0
  143.2582   76.6276  217.7690 H   0  0  0  0  0  0  0  0  0  0  0  0
  143.0111   78.9532  219.4472 H   0  0  0  0  0  0  0  0  0  0  0  0
  142.7346   78.6883  217.6608 H   0  0  0  0  0  0  0  0  0  0  0  0
  140.7780   79.5429  218.9054 H   0  0  0  0  0  0  0  0  0  0  0  0
  140.5553   77.9537  218.0250 H   0  0  0  0  0  0  0  0  0  0  0  0
  139.4259   77.8249  220.0226 H   0  0  0  0  0  0  0  0  0  0  0  0
  142.9424   78.7960  220.9334 H   0  0  0  0  0  0  0  0  0  0  0  0
  141.6848   80.5457  224.6504 H   0  0  0  0  0  0  0  0  0  0  0  0
  138.8458   78.5540  222.1192 H   0  0  0  0  0  0  0  0  0  0  0  0
  139.1128   69.8708  222.4351 H   0  0  0  0  0  0  0  0  0  0  0  0
  138.9608   68.3518  224.4039 H   0  0  0  0  0  0  0  0  0  0  0  0
  139.4220   67.9961  226.7243 H   0  0  0  0  0  0  0  0  0  0  0  0
  141.3829   71.0076  229.0449 H   0  0  0  0  0  0  0  0  0  0  0  0
  141.5056   72.4804  227.0582 H   0  0  0  0  0  0  0  0  0  0  0  0
  1  2  2  0
  2  3  1  0
  3  4  1  0
  4  5  1  0
  5  6  2  0
  5  7  1  0
  7  8  1  0
  8  9  1  0
  9 10  1  0
 10 11  1  0
 11 12  1  0
 12 13  1  0
 13 14  2  0
 14 15  1  0
 15 16  1  0
 15 17  2  0
 17 18  1  0
 18 19  1  0
 18 20  2  0
  2 21  1  0
 21 22  2  0
 22 23  1  0
 23 24  2  0
 24 25  1  0
 25 26  2  0
 26 27  1  0
 26 28  1  0
 28 29  2  0
 29 30  1  0
 30 31  2  0
 12  7  1  0
 20 13  1  0
 31 21  1  0
 30 24  1  0
  3 32  1  0
  4 33  1  0
  4 34  1  0
  8 35  1  0
  8 36  1  0
  9 37  1  0
  9 38  1  0
 10 39  1  0
 10 40  1  0
 11 41  1  0
 11 42  1  0
 12 43  1  6
 14 44  1  0
 17 45  1  0
 20 46  1  0
 22 47  1  0
 23 48  1  0
 25 49  1  0
 28 50  1  0
 29 51  1  0
M  END
>  <smiles>  (21) 
O=C(NCC(=O)N1CCCCC1c1cc(F)cc(F)c1)c1ccc2cc(F)ccc2n1

>  <score_type>  (21) 
oracle

>  <origin>  (21) 
autodockgpu

>  <m_score__min__energy>  (21) 
-8.9000000000000004

>  <m_primary>  (21) 
energy

>  <rmsd>  (21) 
1.8993370757305994

>  <m_score__min__rmsd>  (21) 
1.8993370757305994

>  <meeko>  (21) 
{"free_energy": -8.84, "intermolecular_energy": -10.33, "internal_energy": -1.75, "cluster_size": 33, "cluster_id": 1, "rank_in_cluster": 20}

>  <energy>  (21) 
-8.84

>  <cluster_rmsd>  (21) 
0.41

>  <cluster>  (21) 
1

$$$$

     RDKit          3D

 51 54  0  0  0  0  0  0  0  0999 V2000
  140.6850   71.0110  221.6930 O   0  0  0  0  0  0  0  0  0  0  0  0
  140.3980   71.6670  222.7280 C   0  0  0  0  0  0  0  0  0  0  0  0
  140.0110   73.0270  222.5230 N   0  0  0  0  0  0  0  0  0  0  0  0
  139.9940   73.4940  221.1400 C   0  0  0  0  0  0  0  0  0  0  0  0
  140.3840   74.9270  221.1660 C   0  0  0  0  0  0  0  0  0  0  0  0
  140.2510   75.5310  222.2660 O   0  0  0  0  0  0  0  0  0  0  0  0
  140.8780   75.5600  219.9920 N   0  0  0  0  0  0  0  0  0  0  0  0
  139.9940   75.9060  218.9170 C   0  0  0  0  0  0  0  0  0  0  0  0
  140.5780   75.7630  217.5500 C   0  0  0  0  0  0  0  0  0  0  0  0
  142.0430   76.0260  217.4490 C   0  0  0  0  0  0  0  0  0  0  0  0
  142.6310   76.6090  218.6930 C   0  0  0  0  0  0  0  0  0  0  0  0
  142.3140   75.8390  219.9310 C   0  0  2  0  0  0  0  0  0  0  0  0
  143.0630   74.5610  220.0620 C   0  0  0  0  0  0  0  0  0  0  0  0
  142.5760   73.3620  219.5430 C   0  0  0  0  0  0  0  0  0  0  0  0
  143.2690   72.1750  219.6620 C   0  0  0  0  0  0  0  0  0  0  0  0
  142.7860   71.0010  219.1510 F   0  0  0  0  0  0  0  0  0  0  0  0
  144.4900   72.1350  220.3110 C   0  0  0  0  0  0  0  0  0  0  0  0
  144.9950   73.3070  220.8340 C   0  0  0  0  0  0  0  0  0  0  0  0
  146.1870   73.2880  221.4720 F   0  0  0  0  0  0  0  0  0  0  0  0
  144.2820   74.4890  220.7040 C   0  0  0  0  0  0  0  0  0  0  0  0
  140.4530   71.0830  224.0600 C   0  0  0  0  0  0  0  0  0  0  0  0
  140.9360   71.8650  225.0890 C   0  0  0  0  0  0  0  0  0  0  0  0
  141.0320   71.4100  226.3930 C   0  0  0  0  0  0  0  0  0  0  0  0
  140.6150   70.1140  226.6260 C   0  0  0  0  0  0  0  0  0  0  0  0
  140.6880   69.6050  227.9120 C   0  0  0  0  0  0  0  0  0  0  0  0
  140.2820   68.3140  228.1820 C   0  0  0  0  0  0  0  0  0  0  0  0
  140.3620   67.8330  229.4560 F   0  0  0  0  0  0  0  0  0  0  0  0
  139.8020   67.5400  227.1550 C   0  0  0  0  0  0  0  0  0  0  0  0
  139.7240   68.0370  225.8600 C   0  0  0  0  0  0  0  0  0  0  0  0
  140.1330   69.3430  225.5750 C   0  0  0  0  0  0  0  0  0  0  0  0
  140.0550   69.8250  224.3120 N   0  0  0  0  0  0  0  0  0  0  0  0
  139.7570   73.6370  223.3330 H   0  0  0  0  0  0  0  0  0  0  0  0
  140.7107   72.9174  220.5368 H   0  0  0  0  0  0  0  0  0  0  0  0
  138.9979   73.3642  220.6918 H   0  0  0  0  0  0  0  0  0  0  0  0
  139.1090   75.2557  218.9799 H   0  0  0  0  0  0  0  0  0  0  0  0
  139.7606   76.9737  219.0419 H   0  0  0  0  0  0  0  0  0  0  0  0
  140.3937   74.7338  217.2082 H   0  0  0  0  0  0  0  0  0  0  0  0
  140.0892   76.5291  216.9301 H   0  0  0  0  0  0  0  0  0  0  0  0
  142.5535   75.0754  217.2349 H   0  0  0  0  0  0  0  0  0  0  0  0
  142.1845   76.7653  216.6469 H   0  0  0  0  0  0  0  0  0  0  0  0
  143.7243   76.6423  218.5765 H   0  0  0  0  0  0  0  0  0  0  0  0
  142.1884   77.6084  218.8169 H   0  0  0  0  0  0  0  0  0  0  0  0
  142.6307   76.4778  220.7686 H   0  0  0  0  0  0  0  0  0  0  0  0
  141.6075   73.3625  219.0215 H   0  0  0  0  0  0  0  0  0  0  0  0
  145.0453   71.1904  220.4077 H   0  0  0  0  0  0  0  0  0  0  0  0
  144.7067   75.4093  221.1313 H   0  0  0  0  0  0  0  0  0  0  0  0
  141.2581   72.8924  224.8640 H   0  0  0  0  0  0  0  0  0  0  0  0
  141.4201   72.0473  227.2013 H   0  0  0  0  0  0  0  0  0  0  0  0
  141.0735   70.2361  228.7263 H   0  0  0  0  0  0  0  0  0  0  0  0
  139.4741   66.5103  227.3605 H   0  0  0  0  0  0  0  0  0  0  0  0
  139.3374   67.3978  225.0526 H   0  0  0  0  0  0  0  0  0  0  0  0
  1  2  2  0
  2  3  1  0
  3  4  1  0
  4  5  1  0
  5  6  2  0
  5  7  1  0
  7  8  1  0
  8  9  1  0
  9 10  1  0
 10 11  1  0
 11 12  1  0
 12 13  1  0
 13 14  2  0
 14 15  1  0
 15 16  1  0
 15 17  2  0
 17 18  1  0
 18 19  1  0
 18 20  2  0
  2 21  1  0
 21 22  2  0
 22 23  1  0
 23 24  2  0
 24 25  1  0
 25 26  2  0
 26 27  1  0
 26 28  1  0
 28 29  2  0
 29 30  1  0
 30 31  2  0
 12  7  1  0
 20 13  1  0
 31 21  1  0
 30 24  1  0
  3 32  1  0
  4 33  1  0
  4 34  1  0
  8 35  1  0
  8 36  1  0
  9 37  1  0
  9 38  1  0
 10 39  1  0
 10 40  1  0
 11 41  1  0
 11 42  1  0
 12 43  1  1
 14 44  1  0
 17 45  1  0
 20 46  1  0
 22 47  1  0
 23 48  1  0
 25 49  1  0
 28 50  1  0
 29 51  1  0
M  END
>  <smiles>  (22) 
O=C(NCC(=O)N1CCCCC1c1cc(F)cc(F)c1)c1ccc2cc(F)ccc2n1

>  <score_type>  (22) 
oracle

>  <origin>  (22) 
autodockgpu

>  <m_score__min__energy>  (22) 
-8.9000000000000004

>  <m_primary>  (22) 
energy

>  <rmsd>  (22) 
2.6910097809676956

>  <m_score__min__rmsd>  (22) 
2.6910097809676956

>  <meeko>  (22) 
{"free_energy": -7.68, "intermolecular_energy": -9.17, "internal_energy": -2.04, "cluster_size": 12, "cluster_id": 2, "rank_in_cluster": 11}

>  <energy>  (22) 
-8.84

>  <cluster_rmsd>  (22) 
0.4

>  <cluster>  (22) 
1

$$$$

     RDKit          3D

 51 54  0  0  0  0  0  0  0  0999 V2000
  139.4630   74.9720  222.6750 O   0  0  0  0  0  0  0  0  0  0  0  0
  140.0660   75.0850  221.5760 C   0  0  0  0  0  0  0  0  0  0  0  0
  139.5470   76.0610  220.6710 N   0  0  0  0  0  0  0  0  0  0  0  0
  138.3800   76.8110  221.1280 C   0  0  0  0  0  0  0  0  0  0  0  0
  138.7730   78.2440  221.1510 C   0  0  0  0  0  0  0  0  0  0  0  0
  138.2390   78.9920  220.2870 O   0  0  0  0  0  0  0  0  0  0  0  0
  139.7090   78.7180  222.1120 N   0  0  0  0  0  0  0  0  0  0  0  0
  139.3140   79.6630  223.1150 C   0  0  0  0  0  0  0  0  0  0  0  0
  140.3580   80.6670  223.4810 C   0  0  0  0  0  0  0  0  0  0  0  0
  141.7670   80.1830  223.3970 C   0  0  0  0  0  0  0  0  0  0  0  0
  141.8800   78.7090  223.1810 C   0  0  0  0  0  0  0  0  0  0  0  0
  141.0760   78.2030  222.0300 C   0  0  2  0  0  0  0  0  0  0  0  0
  141.6440   78.5380  220.6970 C   0  0  0  0  0  0  0  0  0  0  0  0
  142.1830   77.5640  219.8570 C   0  0  0  0  0  0  0  0  0  0  0  0
  142.7100   77.8720  218.6200 C   0  0  0  0  0  0  0  0  0  0  0  0
  143.2370   76.9110  217.7990 F   0  0  0  0  0  0  0  0  0  0  0  0
  142.7210   79.1780  218.1650 C   0  0  0  0  0  0  0  0  0  0  0  0
  142.1940   80.1610  218.9760 C   0  0  0  0  0  0  0  0  0  0  0  0
  142.1960   81.4440  218.5490 F   0  0  0  0  0  0  0  0  0  0  0  0
  141.6700   79.8300  220.2160 C   0  0  0  0  0  0  0  0  0  0  0  0
  141.2250   74.2730  221.2380 C   0  0  0  0  0  0  0  0  0  0  0  0
  141.0580   72.9050  221.1660 C   0  0  0  0  0  0  0  0  0  0  0  0
  142.0930   72.0400  220.8530 C   0  0  0  0  0  0  0  0  0  0  0  0
  143.3250   72.6150  220.6110 C   0  0  0  0  0  0  0  0  0  0  0  0
  144.3970   71.7980  220.2930 C   0  0  0  0  0  0  0  0  0  0  0  0
  145.6430   72.3370  220.0450 C   0  0  0  0  0  0  0  0  0  0  0  0
  146.6850   71.5140  219.7330 F   0  0  0  0  0  0  0  0  0  0  0  0
  145.8040   73.6980  220.1180 C   0  0  0  0  0  0  0  0  0  0  0  0
  144.7380   74.5300  220.4360 C   0  0  0  0  0  0  0  0  0  0  0  0
  143.4720   73.9950  220.6900 C   0  0  0  0  0  0  0  0  0  0  0  0
  142.4350   74.8080  220.9990 N   0  0  0  0  0  0  0  0  0  0  0  0
  139.9930   76.2150  219.7390 H   0  0  0  0  0  0  0  0  0  0  0  0
  137.5382   76.6602  220.4362 H   0  0  0  0  0  0  0  0  0  0  0  0
  138.0592   76.4735  222.1246 H   0  0  0  0  0  0  0  0  0  0  0  0
  138.4327   80.2066  222.7438 H   0  0  0  0  0  0  0  0  0  0  0  0
  139.1148   79.0798  224.0261 H   0  0  0  0  0  0  0  0  0  0  0  0
  140.2536   81.5277  222.8040 H   0  0  0  0  0  0  0  0  0  0  0  0
  140.1843   80.9139  224.5388 H   0  0  0  0  0  0  0  0  0  0  0  0
  142.2619   80.6964  222.5595 H   0  0  0  0  0  0  0  0  0  0  0  0
  142.2432   80.4054  224.3633 H   0  0  0  0  0  0  0  0  0  0  0  0
  142.9371   78.4658  222.9985 H   0  0  0  0  0  0  0  0  0  0  0  0
  141.4846   78.2226  224.0849 H   0  0  0  0  0  0  0  0  0  0  0  0
  141.0924   77.1062  222.1126 H   0  0  0  0  0  0  0  0  0  0  0  0
  142.1881   76.5162  220.1917 H   0  0  0  0  0  0  0  0  0  0  0  0
  143.1404   79.4269  217.1790 H   0  0  0  0  0  0  0  0  0  0  0  0
  141.2568   80.6333  220.8437 H   0  0  0  0  0  0  0  0  0  0  0  0
  140.0614   72.4843  221.3655 H   0  0  0  0  0  0  0  0  0  0  0  0
  141.9418   70.9517  220.7999 H   0  0  0  0  0  0  0  0  0  0  0  0
  144.2540   70.7087  220.2375 H   0  0  0  0  0  0  0  0  0  0  0  0
  146.7932   74.1371  219.9215 H   0  0  0  0  0  0  0  0  0  0  0  0
  144.8914   75.6180  220.4883 H   0  0  0  0  0  0  0  0  0  0  0  0
  1  2  2  0
  2  3  1  0
  3  4  1  0
  4  5  1  0
  5  6  2  0
  5  7  1  0
  7  8  1  0
  8  9  1  0
  9 10  1  0
 10 11  1  0
 11 12  1  0
 12 13  1  0
 13 14  2  0
 14 15  1  0
 15 16  1  0
 15 17  2  0
 17 18  1  0
 18 19  1  0
 18 20  2  0
  2 21  1  0
 21 22  2  0
 22 23  1  0
 23 24  2  0
 24 25  1  0
 25 26  2  0
 26 27  1  0
 26 28  1  0
 28 29  2  0
 29 30  1  0
 30 31  2  0
 12  7  1  0
 20 13  1  0
 31 21  1  0
 30 24  1  0
  3 32  1  0
  4 33  1  0
  4 34  1  0
  8 35  1  0
  8 36  1  0
  9 37  1  0
  9 38  1  0
 10 39  1  0
 10 40  1  0
 11 41  1  0
 11 42  1  0
 12 43  1  1
 14 44  1  0
 17 45  1  0
 20 46  1  0
 22 47  1  0
 23 48  1  0
 25 49  1  0
 28 50  1  0
 29 51  1  0
M  END
>  <smiles>  (23) 
O=C(NCC(=O)N1CCCCC1c1cc(F)cc(F)c1)c1ccc2cc(F)ccc2n1

>  <score_type>  (23) 
oracle

>  <origin>  (23) 
autodockgpu

>  <m_score__min__energy>  (23) 
-8.9000000000000004

>  <m_primary>  (23) 
energy

>  <rmsd>  (23) 
6.41338271817487

>  <m_score__min__rmsd>  (23) 
6.41338271817487

>  <meeko>  (23) 
{"free_energy": -7.02, "intermolecular_energy": -8.52, "internal_energy": -2.19, "cluster_size": 1, "cluster_id": 6, "rank_in_cluster": 1}

>  <energy>  (23) 
-8.84

>  <cluster_rmsd>  (23) 
0.4

>  <cluster>  (23) 
1

$$$$

     RDKit          3D

 51 54  0  0  0  0  0  0  0  0999 V2000
  140.5810   71.7870  221.1270 O   0  0  0  0  0  0  0  0  0  0  0  0
  140.2230   72.2720  222.2320 C   0  0  0  0  0  0  0  0  0  0  0  0
  139.8950   73.6630  222.2320 N   0  0  0  0  0  0  0  0  0  0  0  0
  140.0150   74.3560  220.9530 C   0  0  0  0  0  0  0  0  0  0  0  0
  140.5650   75.7050  221.2450 C   0  0  0  0  0  0  0  0  0  0  0  0
  140.5880   76.0580  222.4550 O   0  0  0  0  0  0  0  0  0  0  0  0
  141.0340   76.5350  220.1880 N   0  0  0  0  0  0  0  0  0  0  0  0
  141.9910   76.0440  219.2400 C   0  0  0  0  0  0  0  0  0  0  0  0
  142.9840   77.0540  218.7660 C   0  0  0  0  0  0  0  0  0  0  0  0
  142.4830   78.4580  218.6920 C   0  0  0  0  0  0  0  0  0  0  0  0
  141.0060   78.5750  218.8870 C   0  0  0  0  0  0  0  0  0  0  0  0
  140.5020   77.8960  220.1160 C   0  0  2  0  0  0  0  0  0  0  0  0
  140.8220   78.6120  221.3800 C   0  0  0  0  0  0  0  0  0  0  0  0
  142.1110   79.0520  221.6750 C   0  0  0  0  0  0  0  0  0  0  0  0
  142.4120   79.7160  222.8460 C   0  0  0  0  0  0  0  0  0  0  0  0
  143.6800   80.1470  223.1290 F   0  0  0  0  0  0  0  0  0  0  0  0
  141.4260   79.9700  223.7820 C   0  0  0  0  0  0  0  0  0  0  0  0
  140.1410   79.5450  223.5160 C   0  0  0  0  0  0  0  0  0  0  0  0
  139.1640   79.7840  224.4200 F   0  0  0  0  0  0  0  0  0  0  0  0
  139.8610   78.8790  222.3330 C   0  0  0  0  0  0  0  0  0  0  0  0
  140.1430   71.4710  223.4440 C   0  0  0  0  0  0  0  0  0  0  0  0
  139.5300   70.2370  223.3640 C   0  0  0  0  0  0  0  0  0  0  0  0
  139.3990   69.3940  224.4550 C   0  0  0  0  0  0  0  0  0  0  0  0
  139.9180   69.8480  225.6510 C   0  0  0  0  0  0  0  0  0  0  0  0
  139.8170   69.0470  226.7760 C   0  0  0  0  0  0  0  0  0  0  0  0
  140.3230   69.4680  227.9880 C   0  0  0  0  0  0  0  0  0  0  0  0
  140.2130   68.6630  229.0830 F   0  0  0  0  0  0  0  0  0  0  0  0
  140.9320   70.6960  228.0630 C   0  0  0  0  0  0  0  0  0  0  0  0
  141.0410   71.5110  226.9430 C   0  0  0  0  0  0  0  0  0  0  0  0
  140.5310   71.0950  225.7100 C   0  0  0  0  0  0  0  0  0  0  0  0
  140.6390   71.8910  224.6200 N   0  0  0  0  0  0  0  0  0  0  0  0
  139.5890   74.1390  223.1100 H   0  0  0  0  0  0  0  0  0  0  0  0
  140.6956   73.8058  220.2867 H   0  0  0  0  0  0  0  0  0  0  0  0
  139.0392   74.4282  220.4504 H   0  0  0  0  0  0  0  0  0  0  0  0
  142.5432   75.2166  219.7096 H   0  0  0  0  0  0  0  0  0  0  0  0
  141.4166   75.7374  218.3534 H   0  0  0  0  0  0  0  0  0  0  0  0
  143.8419   77.0356  219.4543 H   0  0  0  0  0  0  0  0  0  0  0  0
  143.2386   76.7681  217.7348 H   0  0  0  0  0  0  0  0  0  0  0  0
  142.9851   79.0484  219.4726 H   0  0  0  0  0  0  0  0  0  0  0  0
  142.7061   78.8282  217.6805 H   0  0  0  0  0  0  0  0  0  0  0  0
  140.7488   79.6426  218.9511 H   0  0  0  0  0  0  0  0  0  0  0  0
  140.5306   78.0763  218.0295 H   0  0  0  0  0  0  0  0  0  0  0  0
  139.4057   77.8886  220.0262 H   0  0  0  0  0  0  0  0  0  0  0  0
  142.9158   78.8634  220.9493 H   0  0  0  0  0  0  0  0  0  0  0  0
  141.6612   80.4990  224.7174 H   0  0  0  0  0  0  0  0  0  0  0  0
  138.8283   78.5493  222.1461 H   0  0  0  0  0  0  0  0  0  0  0  0
  139.1289   69.9095  222.3935 H   0  0  0  0  0  0  0  0  0  0  0  0
  138.9070   68.4136  224.3728 H   0  0  0  0  0  0  0  0  0  0  0  0
  139.3280   68.0644  226.7023 H   0  0  0  0  0  0  0  0  0  0  0  0
  141.3401   71.0401  229.0248 H   0  0  0  0  0  0  0  0  0  0  0  0
  141.5326   72.4914  227.0274 H   0  0  0  0  0  0  0  0  0  0  0  0
  1  2  2  0
  2  3  1  0
  3  4  1  0
  4  5  1  0
  5  6  2  0
  5  7  1  0
  7  8  1  0
  8  9  1  0
  9 10  1  0
 10 11  1  0
 11 12  1  0
 12 13  1  0
 13 14  2  0
 14 15  1  0
 15 16  1  0
 15 17  2  0
 17 18  1  0
 18 19  1  0
 18 20  2  0
  2 21  1  0
 21 22  2  0
 22 23  1  0
 23 24  2  0
 24 25  1  0
 25 26  2  0
 26 27  1  0
 26 28  1  0
 28 29  2  0
 29 30  1  0
 30 31  2  0
 12  7  1  0
 20 13  1  0
 31 21  1  0
 30 24  1  0
  3 32  1  0
  4 33  1  0
  4 34  1  0
  8 35  1  0
  8 36  1  0
  9 37  1  0
  9 38  1  0
 10 39  1  0
 10 40  1  0
 11 41  1  0
 11 42  1  0
 12 43  1  6
 14 44  1  0
 17 45  1  0
 20 46  1  0
 22 47  1  0
 23 48  1  0
 25 49  1  0
 28 50  1  0
 29 51  1  0
M  END
>  <smiles>  (24) 
O=C(NCC(=O)N1CCCCC1c1cc(F)cc(F)c1)c1ccc2cc(F)ccc2n1

>  <score_type>  (24) 
oracle

>  <origin>  (24) 
autodockgpu

>  <m_score__min__energy>  (24) 
-8.9000000000000004

>  <m_primary>  (24) 
energy

>  <rmsd>  (24) 
1.939193092555252

>  <m_score__min__rmsd>  (24) 
1.939193092555252

>  <meeko>  (24) 
{"free_energy": -8.85, "intermolecular_energy": -10.34, "internal_energy": -1.73, "cluster_size": 33, "cluster_id": 1, "rank_in_cluster": 13}

>  <energy>  (24) 
-8.84

>  <cluster_rmsd>  (24) 
0.41

>  <cluster>  (24) 
1

$$$$

     RDKit          3D

 51 54  0  0  0  0  0  0  0  0999 V2000
  140.4300   71.7980  221.1750 O   0  0  0  0  0  0  0  0  0  0  0  0
  140.1310   72.2760  222.3010 C   0  0  0  0  0  0  0  0  0  0  0  0
  139.8280   73.6720  222.3310 N   0  0  0  0  0  0  0  0  0  0  0  0
  139.9020   74.3780  221.0560 C   0  0  0  0  0  0  0  0  0  0  0  0
  140.5960   75.6660  221.3180 C   0  0  0  0  0  0  0  0  0  0  0  0
  140.7210   76.0070  222.5250 O   0  0  0  0  0  0  0  0  0  0  0  0
  141.0830   76.4540  220.2370 N   0  0  0  0  0  0  0  0  0  0  0  0
  142.0460   75.9220  219.3170 C   0  0  0  0  0  0  0  0  0  0  0  0
  143.0520   76.9070  218.8190 C   0  0  0  0  0  0  0  0  0  0  0  0
  142.5620   78.3100  218.6880 C   0  0  0  0  0  0  0  0  0  0  0  0
  141.0840   78.4450  218.8620 C   0  0  0  0  0  0  0  0  0  0  0  0
  140.5620   77.8150  220.1090 C   0  0  2  0  0  0  0  0  0  0  0  0
  140.8730   78.5740  221.3500 C   0  0  0  0  0  0  0  0  0  0  0  0
  142.1640   79.0100  221.6460 C   0  0  0  0  0  0  0  0  0  0  0  0
  142.4560   79.7140  222.7960 C   0  0  0  0  0  0  0  0  0  0  0  0
  143.7260   80.1400  223.0800 F   0  0  0  0  0  0  0  0  0  0  0  0
  141.4610   80.0150  223.7080 C   0  0  0  0  0  0  0  0  0  0  0  0
  140.1750   79.5950  223.4400 C   0  0  0  0  0  0  0  0  0  0  0  0
  139.1890   79.8790  224.3210 F   0  0  0  0  0  0  0  0  0  0  0  0
  139.9030   78.8880  222.2790 C   0  0  0  0  0  0  0  0  0  0  0  0
  140.0920   71.4610  223.5060 C   0  0  0  0  0  0  0  0  0  0  0  0
  139.5120   70.2120  223.4230 C   0  0  0  0  0  0  0  0  0  0  0  0
  139.4220   69.3550  224.5070 C   0  0  0  0  0  0  0  0  0  0  0  0
  139.9470   69.8120  225.6990 C   0  0  0  0  0  0  0  0  0  0  0  0
  139.8840   68.9980  226.8180 C   0  0  0  0  0  0  0  0  0  0  0  0
  140.3970   69.4220  228.0260 C   0  0  0  0  0  0  0  0  0  0  0  0
  140.3260   68.6040  229.1150 F   0  0  0  0  0  0  0  0  0  0  0  0
  140.9730   70.6660  228.1040 C   0  0  0  0  0  0  0  0  0  0  0  0
  141.0420   71.4940  226.9910 C   0  0  0  0  0  0  0  0  0  0  0  0
  140.5250   71.0750  225.7620 C   0  0  0  0  0  0  0  0  0  0  0  0
  140.5940   71.8840  224.6780 N   0  0  0  0  0  0  0  0  0  0  0  0
  139.5700   74.1420  223.2280 H   0  0  0  0  0  0  0  0  0  0  0  0
  140.4706   73.7831  220.3261 H   0  0  0  0  0  0  0  0  0  0  0  0
  138.8979   74.5481  220.6402 H   0  0  0  0  0  0  0  0  0  0  0  0
  142.5863   75.1073  219.8213 H   0  0  0  0  0  0  0  0  0  0  0  0
  141.4786   75.5886  218.4355 H   0  0  0  0  0  0  0  0  0  0  0  0
  143.9013   76.9078  219.5181 H   0  0  0  0  0  0  0  0  0  0  0  0
  143.3174   76.5820  217.8022 H   0  0  0  0  0  0  0  0  0  0  0  0
  143.0599   78.9252  219.4519 H   0  0  0  0  0  0  0  0  0  0  0  0
  142.7985   78.6407  217.6659 H   0  0  0  0  0  0  0  0  0  0  0  0
  140.8344   79.5161  218.8844 H   0  0  0  0  0  0  0  0  0  0  0  0
  140.6139   77.9192  218.0179 H   0  0  0  0  0  0  0  0  0  0  0  0
  139.4668   77.8122  220.0065 H   0  0  0  0  0  0  0  0  0  0  0  0
  142.9764   78.7852  220.9393 H   0  0  0  0  0  0  0  0  0  0  0  0
  141.6899   80.5764  224.6258 H   0  0  0  0  0  0  0  0  0  0  0  0
  138.8690   78.5634  222.0905 H   0  0  0  0  0  0  0  0  0  0  0  0
  139.1042   69.8833  222.4557 H   0  0  0  0  0  0  0  0  0  0  0  0
  138.9565   68.3620  224.4226 H   0  0  0  0  0  0  0  0  0  0  0  0
  139.4202   68.0034  226.7424 H   0  0  0  0  0  0  0  0  0  0  0  0
  141.3862   71.0122  229.0629 H   0  0  0  0  0  0  0  0  0  0  0  0
  141.5071   72.4871  227.0775 H   0  0  0  0  0  0  0  0  0  0  0  0
  1  2  2  0
  2  3  1  0
  3  4  1  0
  4  5  1  0
  5  6  2  0
  5  7  1  0
  7  8  1  0
  8  9  1  0
  9 10  1  0
 10 11  1  0
 11 12  1  0
 12 13  1  0
 13 14  2  0
 14 15  1  0
 15 16  1  0
 15 17  2  0
 17 18  1  0
 18 19  1  0
 18 20  2  0
  2 21  1  0
 21 22  2  0
 22 23  1  0
 23 24  2  0
 24 25  1  0
 25 26  2  0
 26 27  1  0
 26 28  1  0
 28 29  2  0
 29 30  1  0
 30 31  2  0
 12  7  1  0
 20 13  1  0
 31 21  1  0
 30 24  1  0
  3 32  1  0
  4 33  1  0
  4 34  1  0
  8 35  1  0
  8 36  1  0
  9 37  1  0
  9 38  1  0
 10 39  1  0
 10 40  1  0
 11 41  1  0
 11 42  1  0
 12 43  1  6
 14 44  1  0
 17 45  1  0
 20 46  1  0
 22 47  1  0
 23 48  1  0
 25 49  1  0
 28 50  1  0
 29 51  1  0
M  END
>  <smiles>  (25) 
O=C(NCC(=O)N1CCCCC1c1cc(F)cc(F)c1)c1ccc2cc(F)ccc2n1

>  <score_type>  (25) 
oracle

>  <origin>  (25) 
autodockgpu

>  <m_score__min__energy>  (25) 
-8.9000000000000004

>  <m_primary>  (25) 
energy

>  <rmsd>  (25) 
1.9076327929986743

>  <m_score__min__rmsd>  (25) 
1.9076327929986743

>  <meeko>  (25) 
{"free_energy": -8.84, "intermolecular_energy": -10.33, "internal_energy": -1.74, "cluster_size": 33, "cluster_id": 1, "rank_in_cluster": 24}

>  <energy>  (25) 
-8.83

>  <cluster_rmsd>  (25) 
0.36

>  <cluster>  (25) 
1

$$$$

     RDKit          3D

 51 54  0  0  0  0  0  0  0  0999 V2000
  140.7690   71.7190  221.1150 O   0  0  0  0  0  0  0  0  0  0  0  0
  140.2140   72.1700  222.1520 C   0  0  0  0  0  0  0  0  0  0  0  0
  139.6480   73.4770  222.0440 N   0  0  0  0  0  0  0  0  0  0  0  0
  139.7790   74.1350  220.7470 C   0  0  0  0  0  0  0  0  0  0  0  0
  140.8080   75.1950  220.9060 C   0  0  0  0  0  0  0  0  0  0  0  0
  141.1160   75.5150  222.0860 O   0  0  0  0  0  0  0  0  0  0  0  0
  141.3990   75.8010  219.7610 N   0  0  0  0  0  0  0  0  0  0  0  0
  140.5980   76.1700  218.6310 C   0  0  0  0  0  0  0  0  0  0  0  0
  141.2620   75.9960  217.3040 C   0  0  0  0  0  0  0  0  0  0  0  0
  142.7390   76.2050  217.2960 C   0  0  0  0  0  0  0  0  0  0  0  0
  143.2680   76.7750  218.5720 C   0  0  0  0  0  0  0  0  0  0  0  0
  142.8450   76.0270  219.7910 C   0  0  2  0  0  0  0  0  0  0  0  0
  143.5370   74.7230  219.9760 C   0  0  0  0  0  0  0  0  0  0  0  0
  142.9470   73.5140  219.6110 C   0  0  0  0  0  0  0  0  0  0  0  0
  143.5860   72.3030  219.7810 C   0  0  0  0  0  0  0  0  0  0  0  0
  143.0010   71.1200  219.4200 F   0  0  0  0  0  0  0  0  0  0  0  0
  144.8560   72.2490  220.3270 C   0  0  0  0  0  0  0  0  0  0  0  0
  145.4630   73.4310  220.6970 C   0  0  0  0  0  0  0  0  0  0  0  0
  146.7040   73.3980  221.2340 F   0  0  0  0  0  0  0  0  0  0  0  0
  144.8020   74.6370  220.5190 C   0  0  0  0  0  0  0  0  0  0  0  0
  140.1480   71.4110  223.3910 C   0  0  0  0  0  0  0  0  0  0  0  0
  139.5400   70.1730  223.3600 C   0  0  0  0  0  0  0  0  0  0  0  0
  139.4220   69.3670  224.4800 C   0  0  0  0  0  0  0  0  0  0  0  0
  139.9500   69.8650  225.6540 C   0  0  0  0  0  0  0  0  0  0  0  0
  139.8620   69.1030  226.8080 C   0  0  0  0  0  0  0  0  0  0  0  0
  140.3770   69.5670  228.0000 C   0  0  0  0  0  0  0  0  0  0  0  0
  140.2800   68.8000  229.1230 F   0  0  0  0  0  0  0  0  0  0  0  0
  140.9820   70.7990  228.0260 C   0  0  0  0  0  0  0  0  0  0  0  0
  141.0780   71.5750  226.8780 C   0  0  0  0  0  0  0  0  0  0  0  0
  140.5580   71.1150  225.6650 C   0  0  0  0  0  0  0  0  0  0  0  0
  140.6540   71.8730  224.5470 N   0  0  0  0  0  0  0  0  0  0  0  0
  139.1700   73.9210  222.8610 H   0  0  0  0  0  0  0  0  0  0  0  0
  140.0977   73.4091  219.9844 H   0  0  0  0  0  0  0  0  0  0  0  0
  138.8188   74.5622  220.4221 H   0  0  0  0  0  0  0  0  0  0  0  0
  139.6880   75.5521  218.6411 H   0  0  0  0  0  0  0  0  0  0  0  0
  140.3956   77.2462  218.7353 H   0  0  0  0  0  0  0  0  0  0  0  0
  141.0622   74.9718  216.9561 H   0  0  0  0  0  0  0  0  0  0  0  0
  140.8419   76.7745  216.6502 H   0  0  0  0  0  0  0  0  0  0  0  0
  143.2268   75.2350  217.1195 H   0  0  0  0  0  0  0  0  0  0  0  0
  142.9581   76.9333  216.5013 H   0  0  0  0  0  0  0  0  0  0  0  0
  144.3670   76.7671  218.5252 H   0  0  0  0  0  0  0  0  0  0  0  0
  142.8556   77.7907  218.6624 H   0  0  0  0  0  0  0  0  0  0  0  0
  143.1308   76.6599  220.6441 H   0  0  0  0  0  0  0  0  0  0  0  0
  141.9382   73.5258  219.1727 H   0  0  0  0  0  0  0  0  0  0  0  0
  145.3697   71.2859  220.4629 H   0  0  0  0  0  0  0  0  0  0  0  0
  145.3082   75.5648  220.8239 H   0  0  0  0  0  0  0  0  0  0  0  0
  139.1316   69.8107  222.4051 H   0  0  0  0  0  0  0  0  0  0  0  0
  138.9335   68.3824  224.4363 H   0  0  0  0  0  0  0  0  0  0  0  0
  139.3759   68.1169  226.7728 H   0  0  0  0  0  0  0  0  0  0  0  0
  141.3975   71.1778  228.9714 H   0  0  0  0  0  0  0  0  0  0  0  0
  141.5671   72.5592  226.9239 H   0  0  0  0  0  0  0  0  0  0  0  0
  1  2  2  0
  2  3  1  0
  3  4  1  0
  4  5  1  0
  5  6  2  0
  5  7  1  0
  7  8  1  0
  8  9  1  0
  9 10  1  0
 10 11  1  0
 11 12  1  0
 12 13  1  0
 13 14  2  0
 14 15  1  0
 15 16  1  0
 15 17  2  0
 17 18  1  0
 18 19  1  0
 18 20  2  0
  2 21  1  0
 21 22  2  0
 22 23  1  0
 23 24  2  0
 24 25  1  0
 25 26  2  0
 26 27  1  0
 26 28  1  0
 28 29  2  0
 29 30  1  0
 30 31  2  0
 12  7  1  0
 20 13  1  0
 31 21  1  0
 30 24  1  0
  3 32  1  0
  4 33  1  0
  4 34  1  0
  8 35  1  0
  8 36  1  0
  9 37  1  0
  9 38  1  0
 10 39  1  0
 10 40  1  0
 11 41  1  0
 11 42  1  0
 12 43  1  1
 14 44  1  0
 17 45  1  0
 20 46  1  0
 22 47  1  0
 23 48  1  0
 25 49  1  0
 28 50  1  0
 29 51  1  0
M  END
>  <smiles>  (26) 
O=C(NCC(=O)N1CCCCC1c1cc(F)cc(F)c1)c1ccc2cc(F)ccc2n1

>  <score_type>  (26) 
oracle

>  <origin>  (26) 
autodockgpu

>  <m_score__min__energy>  (26) 
-8.9000000000000004

>  <m_primary>  (26) 
energy

>  <rmsd>  (26) 
1.6877424256542777

>  <m_score__min__rmsd>  (26) 
1.6877424256542777

>  <meeko>  (26) 
{"free_energy": -8.36, "intermolecular_energy": -9.85, "internal_energy": -1.8, "cluster_size": 12, "cluster_id": 2, "rank_in_cluster": 3}

>  <energy>  (26) 
-8.8

>  <cluster_rmsd>  (26) 
0.44

>  <cluster>  (26) 
1

$$$$

     RDKit          3D

 51 54  0  0  0  0  0  0  0  0999 V2000
  140.4570   71.7960  221.1570 O   0  0  0  0  0  0  0  0  0  0  0  0
  140.1470   72.2700  222.2820 C   0  0  0  0  0  0  0  0  0  0  0  0
  139.8340   73.6640  222.3110 N   0  0  0  0  0  0  0  0  0  0  0  0
  139.9100   74.3720  221.0370 C   0  0  0  0  0  0  0  0  0  0  0  0
  140.5700   75.6740  221.3080 C   0  0  0  0  0  0  0  0  0  0  0  0
  140.6800   76.0140  222.5180 O   0  0  0  0  0  0  0  0  0  0  0  0
  141.0450   76.4790  220.2340 N   0  0  0  0  0  0  0  0  0  0  0  0
  141.9960   75.9610  219.2950 C   0  0  0  0  0  0  0  0  0  0  0  0
  142.9970   76.9530  218.7990 C   0  0  0  0  0  0  0  0  0  0  0  0
  142.5060   78.3590  218.6960 C   0  0  0  0  0  0  0  0  0  0  0  0
  141.0310   78.4910  218.8900 C   0  0  0  0  0  0  0  0  0  0  0  0
  140.5230   77.8420  220.1340 C   0  0  2  0  0  0  0  0  0  0  0  0
  140.8500   78.5820  221.3830 C   0  0  0  0  0  0  0  0  0  0  0  0
  142.1450   79.0100  221.6700 C   0  0  0  0  0  0  0  0  0  0  0  0
  142.4520   79.6960  222.8270 C   0  0  0  0  0  0  0  0  0  0  0  0
  143.7250   80.1150  223.1040 F   0  0  0  0  0  0  0  0  0  0  0  0
  141.4680   79.9860  223.7550 C   0  0  0  0  0  0  0  0  0  0  0  0
  140.1780   79.5730  223.4950 C   0  0  0  0  0  0  0  0  0  0  0  0
  139.2020   79.8470  224.3910 F   0  0  0  0  0  0  0  0  0  0  0  0
  139.8910   78.8840  222.3270 C   0  0  0  0  0  0  0  0  0  0  0  0
  140.1070   71.4540  223.4860 C   0  0  0  0  0  0  0  0  0  0  0  0
  139.5380   70.2000  223.3990 C   0  0  0  0  0  0  0  0  0  0  0  0
  139.4470   69.3420  224.4810 C   0  0  0  0  0  0  0  0  0  0  0  0
  139.9610   69.8020  225.6770 C   0  0  0  0  0  0  0  0  0  0  0  0
  139.8990   68.9870  226.7950 C   0  0  0  0  0  0  0  0  0  0  0  0
  140.4010   69.4130  228.0070 C   0  0  0  0  0  0  0  0  0  0  0  0
  140.3300   68.5940  229.0940 F   0  0  0  0  0  0  0  0  0  0  0  0
  140.9670   70.6610  228.0890 C   0  0  0  0  0  0  0  0  0  0  0  0
  141.0370   71.4910  226.9760 C   0  0  0  0  0  0  0  0  0  0  0  0
  140.5300   71.0690  225.7440 C   0  0  0  0  0  0  0  0  0  0  0  0
  140.6000   71.8800  224.6610 N   0  0  0  0  0  0  0  0  0  0  0  0
  139.5670   74.1310  223.2070 H   0  0  0  0  0  0  0  0  0  0  0  0
  140.5023   73.7903  220.3153 H   0  0  0  0  0  0  0  0  0  0  0  0
  138.9082   74.5194  220.6072 H   0  0  0  0  0  0  0  0  0  0  0  0
  142.5420   75.1387  219.7805 H   0  0  0  0  0  0  0  0  0  0  0  0
  141.4176   75.6414  218.4156 H   0  0  0  0  0  0  0  0  0  0  0  0
  143.8553   76.9425  219.4869 H   0  0  0  0  0  0  0  0  0  0  0  0
  143.2493   76.6435  217.7740 H   0  0  0  0  0  0  0  0  0  0  0  0
  143.0134   78.9620  219.4634 H   0  0  0  0  0  0  0  0  0  0  0  0
  142.7305   78.7061  217.6766 H   0  0  0  0  0  0  0  0  0  0  0  0
  140.7818   79.5616  218.9316 H   0  0  0  0  0  0  0  0  0  0  0  0
  140.5510   77.9776  218.0438 H   0  0  0  0  0  0  0  0  0  0  0  0
  139.4266   77.8414  220.0455 H   0  0  0  0  0  0  0  0  0  0  0  0
  142.9485   78.7938  220.9506 H   0  0  0  0  0  0  0  0  0  0  0  0
  141.7087   80.5331  224.6785 H   0  0  0  0  0  0  0  0  0  0  0  0
  138.8542   78.5645  222.1453 H   0  0  0  0  0  0  0  0  0  0  0  0
  139.1399   69.8683  222.4287 H   0  0  0  0  0  0  0  0  0  0  0  0
  138.9892   68.3457  224.3928 H   0  0  0  0  0  0  0  0  0  0  0  0
  139.4442   67.9886  226.7155 H   0  0  0  0  0  0  0  0  0  0  0  0
  141.3715   71.0098  229.0506 H   0  0  0  0  0  0  0  0  0  0  0  0
  141.4948   72.4872  227.0657 H   0  0  0  0  0  0  0  0  0  0  0  0
  1  2  2  0
  2  3  1  0
  3  4  1  0
  4  5  1  0
  5  6  2  0
  5  7  1  0
  7  8  1  0
  8  9  1  0
  9 10  1  0
 10 11  1  0
 11 12  1  0
 12 13  1  0
 13 14  2  0
 14 15  1  0
 15 16  1  0
 15 17  2  0
 17 18  1  0
 18 19  1  0
 18 20  2  0
  2 21  1  0
 21 22  2  0
 22 23  1  0
 23 24  2  0
 24 25  1  0
 25 26  2  0
 26 27  1  0
 26 28  1  0
 28 29  2  0
 29 30  1  0
 30 31  2  0
 12  7  1  0
 20 13  1  0
 31 21  1  0
 30 24  1  0
  3 32  1  0
  4 33  1  0
  4 34  1  0
  8 35  1  0
  8 36  1  0
  9 37  1  0
  9 38  1  0
 10 39  1  0
 10 40  1  0
 11 41  1  0
 11 42  1  0
 12 43  1  6
 14 44  1  0
 17 45  1  0
 20 46  1  0
 22 47  1  0
 23 48  1  0
 25 49  1  0
 28 50  1  0
 29 51  1  0
M  END
>  <smiles>  (27) 
O=C(NCC(=O)N1CCCCC1c1cc(F)cc(F)c1)c1ccc2cc(F)ccc2n1

>  <score_type>  (27) 
oracle

>  <origin>  (27) 
autodockgpu

>  <m_score__min__energy>  (27) 
-8.9000000000000004

>  <m_primary>  (27) 
energy

>  <rmsd>  (27) 
1.9036441431921032

>  <m_score__min__rmsd>  (27) 
1.9036441431921032

>  <meeko>  (27) 
{"free_energy": -8.85, "intermolecular_energy": -10.34, "internal_energy": -1.74, "cluster_size": 33, "cluster_id": 1, "rank_in_cluster": 19}

>  <energy>  (27) 
-8.8

>  <cluster_rmsd>  (27) 
0.43

>  <cluster>  (27) 
1

$$$$

     RDKit          3D

 51 54  0  0  0  0  0  0  0  0999 V2000
  140.4580   71.7940  221.1580 O   0  0  0  0  0  0  0  0  0  0  0  0
  140.1510   72.2700  222.2830 C   0  0  0  0  0  0  0  0  0  0  0  0
  139.8380   73.6630  222.3120 N   0  0  0  0  0  0  0  0  0  0  0  0
  139.9120   74.3700  221.0370 C   0  0  0  0  0  0  0  0  0  0  0  0
  140.5620   75.6780  221.3080 C   0  0  0  0  0  0  0  0  0  0  0  0
  140.6610   76.0230  222.5180 O   0  0  0  0  0  0  0  0  0  0  0  0
  141.0400   76.4810  220.2340 N   0  0  0  0  0  0  0  0  0  0  0  0
  141.9960   75.9630  219.3000 C   0  0  0  0  0  0  0  0  0  0  0  0
  142.9970   76.9560  218.8070 C   0  0  0  0  0  0  0  0  0  0  0  0
  142.5050   78.3600  218.6990 C   0  0  0  0  0  0  0  0  0  0  0  0
  141.0280   78.4910  218.8860 C   0  0  0  0  0  0  0  0  0  0  0  0
  140.5170   77.8440  220.1290 C   0  0  2  0  0  0  0  0  0  0  0  0
  140.8370   78.5860  221.3780 C   0  0  0  0  0  0  0  0  0  0  0  0
  139.8630   78.8890  222.3280 C   0  0  0  0  0  0  0  0  0  0  0  0
  140.1560   79.5770  223.4880 C   0  0  0  0  0  0  0  0  0  0  0  0
  139.1960   79.8710  224.4170 F   0  0  0  0  0  0  0  0  0  0  0  0
  141.4490   79.9950  223.7490 C   0  0  0  0  0  0  0  0  0  0  0  0
  142.4320   79.7090  222.8250 C   0  0  0  0  0  0  0  0  0  0  0  0
  143.7010   80.1110  223.0620 F   0  0  0  0  0  0  0  0  0  0  0  0
  142.1150   79.0170  221.6660 C   0  0  0  0  0  0  0  0  0  0  0  0
  140.1120   71.4550  223.4880 C   0  0  0  0  0  0  0  0  0  0  0  0
  139.5490   70.1990  223.4010 C   0  0  0  0  0  0  0  0  0  0  0  0
  139.4600   69.3410  224.4850 C   0  0  0  0  0  0  0  0  0  0  0  0
  139.9700   69.8050  225.6810 C   0  0  0  0  0  0  0  0  0  0  0  0
  139.9100   68.9900  226.7990 C   0  0  0  0  0  0  0  0  0  0  0  0
  140.4080   69.4200  228.0110 C   0  0  0  0  0  0  0  0  0  0  0  0
  140.3390   68.6010  229.1000 F   0  0  0  0  0  0  0  0  0  0  0  0
  140.9680   70.6710  228.0930 C   0  0  0  0  0  0  0  0  0  0  0  0
  141.0360   71.5000  226.9800 C   0  0  0  0  0  0  0  0  0  0  0  0
  140.5330   71.0740  225.7470 C   0  0  0  0  0  0  0  0  0  0  0  0
  140.6010   71.8840  224.6640 N   0  0  0  0  0  0  0  0  0  0  0  0
  139.5730   74.1320  223.2070 H   0  0  0  0  0  0  0  0  0  0  0  0
  140.5104   73.7917  220.3176 H   0  0  0  0  0  0  0  0  0  0  0  0
  138.9102   74.5094  220.6045 H   0  0  0  0  0  0  0  0  0  0  0  0
  142.5414   75.1425  219.7892 H   0  0  0  0  0  0  0  0  0  0  0  0
  141.4221   75.6407  218.4187 H   0  0  0  0  0  0  0  0  0  0  0  0
  143.8521   76.9482  219.4990 H   0  0  0  0  0  0  0  0  0  0  0  0
  143.2540   76.6451  217.7836 H   0  0  0  0  0  0  0  0  0  0  0  0
  143.0081   78.9652  219.4675 H   0  0  0  0  0  0  0  0  0  0  0  0
  142.7336   78.7051  217.6799 H   0  0  0  0  0  0  0  0  0  0  0  0
  140.7772   79.5613  218.9243 H   0  0  0  0  0  0  0  0  0  0  0  0
  140.5517   77.9760  218.0387 H   0  0  0  0  0  0  0  0  0  0  0  0
  139.4210   77.8424  220.0356 H   0  0  0  0  0  0  0  0  0  0  0  0
  138.8262   78.5691  222.1471 H   0  0  0  0  0  0  0  0  0  0  0  0
  141.6874   80.5430  224.6725 H   0  0  0  0  0  0  0  0  0  0  0  0
  142.9176   78.8025  220.9450 H   0  0  0  0  0  0  0  0  0  0  0  0
  139.1541   69.8645  222.4303 H   0  0  0  0  0  0  0  0  0  0  0  0
  139.0068   68.3425  224.3974 H   0  0  0  0  0  0  0  0  0  0  0  0
  139.4604   67.9892  226.7195 H   0  0  0  0  0  0  0  0  0  0  0  0
  141.3692   71.0225  229.0551 H   0  0  0  0  0  0  0  0  0  0  0  0
  141.4887   72.4985  227.0696 H   0  0  0  0  0  0  0  0  0  0  0  0
  1  2  2  0
  2  3  1  0
  3  4  1  0
  4  5  1  0
  5  6  2  0
  5  7  1  0
  7  8  1  0
  8  9  1  0
  9 10  1  0
 10 11  1  0
 11 12  1  0
 12 13  1  0
 13 14  2  0
 14 15  1  0
 15 16  1  0
 15 17  2  0
 17 18  1  0
 18 19  1  0
 18 20  2  0
  2 21  1  0
 21 22  2  0
 22 23  1  0
 23 24  2  0
 24 25  1  0
 25 26  2  0
 26 27  1  0
 26 28  1  0
 28 29  2  0
 29 30  1  0
 30 31  2  0
 12  7  1  0
 20 13  1  0
 31 21  1  0
 30 24  1  0
  3 32  1  0
  4 33  1  0
  4 34  1  0
  8 35  1  0
  8 36  1  0
  9 37  1  0
  9 38  1  0
 10 39  1  0
 10 40  1  0
 11 41  1  0
 11 42  1  0
 12 43  1  6
 14 44  1  0
 17 45  1  0
 20 46  1  0
 22 47  1  0
 23 48  1  0
 25 49  1  0
 28 50  1  0
 29 51  1  0
M  END
>  <smiles>  (28) 
O=C(NCC(=O)N1CCCCC1c1cc(F)cc(F)c1)c1ccc2cc(F)ccc2n1

>  <score_type>  (28) 
oracle

>  <origin>  (28) 
autodockgpu

>  <m_score__min__energy>  (28) 
-8.9000000000000004

>  <m_primary>  (28) 
energy

>  <rmsd>  (28) 
1.9057739743702216

>  <m_score__min__rmsd>  (28) 
1.9057739743702216

>  <meeko>  (28) 
{"free_energy": -8.84, "intermolecular_energy": -10.33, "internal_energy": -1.74, "cluster_size": 33, "cluster_id": 1, "rank_in_cluster": 23}

>  <energy>  (28) 
-8.74

>  <cluster_rmsd>  (28) 
0.32

>  <cluster>  (28) 
1

$$$$

     RDKit          3D

 51 54  0  0  0  0  0  0  0  0999 V2000
  140.5700   71.7990  221.1320 O   0  0  0  0  0  0  0  0  0  0  0  0
  140.2130   72.2750  222.2410 C   0  0  0  0  0  0  0  0  0  0  0  0
  139.8790   73.6640  222.2520 N   0  0  0  0  0  0  0  0  0  0  0  0
  139.9910   74.3660  220.9760 C   0  0  0  0  0  0  0  0  0  0  0  0
  140.5340   75.7150  221.2750 C   0  0  0  0  0  0  0  0  0  0  0  0
  140.5530   76.0640  222.4870 O   0  0  0  0  0  0  0  0  0  0  0  0
  141.0030   76.5520  220.2230 N   0  0  0  0  0  0  0  0  0  0  0  0
  141.9590   76.0670  219.2710 C   0  0  0  0  0  0  0  0  0  0  0  0
  142.9520   77.0790  218.8030 C   0  0  0  0  0  0  0  0  0  0  0  0
  142.4510   78.4830  218.7370 C   0  0  0  0  0  0  0  0  0  0  0  0
  140.9740   78.5990  218.9330 C   0  0  0  0  0  0  0  0  0  0  0  0
  140.4710   77.9140  220.1590 C   0  0  2  0  0  0  0  0  0  0  0  0
  140.7910   78.6210  221.4280 C   0  0  0  0  0  0  0  0  0  0  0  0
  139.8210   78.8830  222.3940 C   0  0  0  0  0  0  0  0  0  0  0  0
  140.1150   79.5400  223.5710 C   0  0  0  0  0  0  0  0  0  0  0  0
  139.1580   79.7940  224.5160 F   0  0  0  0  0  0  0  0  0  0  0  0
  141.4040   79.9660  223.8360 C   0  0  0  0  0  0  0  0  0  0  0  0
  142.3830   79.7200  222.8970 C   0  0  0  0  0  0  0  0  0  0  0  0
  143.6500   80.1290  223.1370 F   0  0  0  0  0  0  0  0  0  0  0  0
  142.0660   79.0590  221.7200 C   0  0  0  0  0  0  0  0  0  0  0  0
  140.1420   71.4650  223.4480 C   0  0  0  0  0  0  0  0  0  0  0  0
  139.5380   70.2270  223.3620 C   0  0  0  0  0  0  0  0  0  0  0  0
  139.4160   69.3760  224.4470 C   0  0  0  0  0  0  0  0  0  0  0  0
  139.9340   69.8270  225.6450 C   0  0  0  0  0  0  0  0  0  0  0  0
  139.8410   69.0180  226.7650 C   0  0  0  0  0  0  0  0  0  0  0  0
  140.3470   69.4350  227.9790 C   0  0  0  0  0  0  0  0  0  0  0  0
  140.2450   68.6220  229.0690 F   0  0  0  0  0  0  0  0  0  0  0  0
  140.9470   70.6670  228.0600 C   0  0  0  0  0  0  0  0  0  0  0  0
  141.0480   71.4900  226.9450 C   0  0  0  0  0  0  0  0  0  0  0  0
  140.5380   71.0770  225.7110 C   0  0  0  0  0  0  0  0  0  0  0  0
  140.6380   71.8820  224.6260 N   0  0  0  0  0  0  0  0  0  0  0  0
  139.5730   74.1330  223.1340 H   0  0  0  0  0  0  0  0  0  0  0  0
  140.6725   73.8238  220.3040 H   0  0  0  0  0  0  0  0  0  0  0  0
  139.0133   74.4357  220.4767 H   0  0  0  0  0  0  0  0  0  0  0  0
  142.5110   75.2362  219.7346 H   0  0  0  0  0  0  0  0  0  0  0  0
  141.3836   75.7670  218.3828 H   0  0  0  0  0  0  0  0  0  0  0  0
  143.8098   77.0566  219.4913 H   0  0  0  0  0  0  0  0  0  0  0  0
  143.2071   76.7989  217.7703 H   0  0  0  0  0  0  0  0  0  0  0  0
  142.9533   79.0691  219.5208 H   0  0  0  0  0  0  0  0  0  0  0  0
  142.6738   78.8588  217.7275 H   0  0  0  0  0  0  0  0  0  0  0  0
  140.7166   79.6662  219.0023 H   0  0  0  0  0  0  0  0  0  0  0  0
  140.4982   78.1047  218.0732 H   0  0  0  0  0  0  0  0  0  0  0  0
  139.3747   77.9093  220.0692 H   0  0  0  0  0  0  0  0  0  0  0  0
  138.7869   78.5551  222.2119 H   0  0  0  0  0  0  0  0  0  0  0  0
  141.6424   80.4888  224.7740 H   0  0  0  0  0  0  0  0  0  0  0  0
  142.8659   78.8760  220.9874 H   0  0  0  0  0  0  0  0  0  0  0  0
  139.1367   69.9029  222.3905 H   0  0  0  0  0  0  0  0  0  0  0  0
  138.9318   68.3922  224.3595 H   0  0  0  0  0  0  0  0  0  0  0  0
  139.3587   68.0326  226.6860 H   0  0  0  0  0  0  0  0  0  0  0  0
  141.3544   71.0082  229.0231 H   0  0  0  0  0  0  0  0  0  0  0  0
  141.5327   72.4734  227.0342 H   0  0  0  0  0  0  0  0  0  0  0  0
  1  2  2  0
  2  3  1  0
  3  4  1  0
  4  5  1  0
  5  6  2  0
  5  7  1  0
  7  8  1  0
  8  9  1  0
  9 10  1  0
 10 11  1  0
 11 12  1  0
 12 13  1  0
 13 14  2  0
 14 15  1  0
 15 16  1  0
 15 17  2  0
 17 18  1  0
 18 19  1  0
 18 20  2  0
  2 21  1  0
 21 22  2  0
 22 23  1  0
 23 24  2  0
 24 25  1  0
 25 26  2  0
 26 27  1  0
 26 28  1  0
 28 29  2  0
 29 30  1  0
 30 31  2  0
 12  7  1  0
 20 13  1  0
 31 21  1  0
 30 24  1  0
  3 32  1  0
  4 33  1  0
  4 34  1  0
  8 35  1  0
  8 36  1  0
  9 37  1  0
  9 38  1  0
 10 39  1  0
 10 40  1  0
 11 41  1  0
 11 42  1  0
 12 43  1  6
 14 44  1  0
 17 45  1  0
 20 46  1  0
 22 47  1  0
 23 48  1  0
 25 49  1  0
 28 50  1  0
 29 51  1  0
M  END
>  <smiles>  (29) 
O=C(NCC(=O)N1CCCCC1c1cc(F)cc(F)c1)c1ccc2cc(F)ccc2n1

>  <score_type>  (29) 
oracle

>  <origin>  (29) 
autodockgpu

>  <m_score__min__energy>  (29) 
-8.9000000000000004

>  <m_primary>  (29) 
energy

>  <rmsd>  (29) 
1.9382938763527053

>  <m_score__min__rmsd>  (29) 
1.9382938763527053

>  <meeko>  (29) 
{"free_energy": -8.85, "intermolecular_energy": -10.34, "internal_energy": -1.73, "cluster_size": 33, "cluster_id": 1, "rank_in_cluster": 14}

>  <energy>  (29) 
-8.73

>  <cluster_rmsd>  (29) 
0.41

>  <cluster>  (29) 
1

$$$$

     RDKit          3D

 51 54  0  0  0  0  0  0  0  0999 V2000
  140.5900   71.8260  221.1500 O   0  0  0  0  0  0  0  0  0  0  0  0
  140.2000   72.2930  222.2520 C   0  0  0  0  0  0  0  0  0  0  0  0
  139.8240   73.6710  222.2540 N   0  0  0  0  0  0  0  0  0  0  0  0
  139.9380   74.3750  220.9790 C   0  0  0  0  0  0  0  0  0  0  0  0
  140.6250   75.6620  221.2590 C   0  0  0  0  0  0  0  0  0  0  0  0
  140.7490   75.9870  222.4720 O   0  0  0  0  0  0  0  0  0  0  0  0
  141.1060   76.4680  220.1900 N   0  0  0  0  0  0  0  0  0  0  0  0
  142.0770   75.9580  219.2660 C   0  0  0  0  0  0  0  0  0  0  0  0
  143.0740   76.9590  218.7820 C   0  0  0  0  0  0  0  0  0  0  0  0
  142.5710   78.3590  218.6680 C   0  0  0  0  0  0  0  0  0  0  0  0
  141.0910   78.4770  218.8400 C   0  0  0  0  0  0  0  0  0  0  0  0
  140.5720   77.8260  220.0780 C   0  0  2  0  0  0  0  0  0  0  0  0
  140.8730   78.5720  221.3300 C   0  0  0  0  0  0  0  0  0  0  0  0
  139.8870   78.8620  222.2730 C   0  0  0  0  0  0  0  0  0  0  0  0
  140.1630   79.5530  223.4340 C   0  0  0  0  0  0  0  0  0  0  0  0
  139.1910   79.8340  224.3570 F   0  0  0  0  0  0  0  0  0  0  0  0
  141.4470   79.9890  223.7060 C   0  0  0  0  0  0  0  0  0  0  0  0
  142.4410   79.7150  222.7890 C   0  0  0  0  0  0  0  0  0  0  0  0
  143.7030   80.1340  223.0370 F   0  0  0  0  0  0  0  0  0  0  0  0
  142.1430   79.0200  221.6280 C   0  0  0  0  0  0  0  0  0  0  0  0
  140.1310   71.4830  223.4590 C   0  0  0  0  0  0  0  0  0  0  0  0
  139.5110   70.2530  223.3780 C   0  0  0  0  0  0  0  0  0  0  0  0
  139.3900   69.4020  224.4640 C   0  0  0  0  0  0  0  0  0  0  0  0
  139.9250   69.8450  225.6560 C   0  0  0  0  0  0  0  0  0  0  0  0
  139.8330   69.0370  226.7770 C   0  0  0  0  0  0  0  0  0  0  0  0
  140.3560   69.4470  227.9860 C   0  0  0  0  0  0  0  0  0  0  0  0
  140.2550   68.6340  229.0760 F   0  0  0  0  0  0  0  0  0  0  0  0
  140.9710   70.6710  228.0620 C   0  0  0  0  0  0  0  0  0  0  0  0
  141.0710   71.4940  226.9470 C   0  0  0  0  0  0  0  0  0  0  0  0
  140.5440   71.0890  225.7180 C   0  0  0  0  0  0  0  0  0  0  0  0
  140.6430   71.8920  224.6320 N   0  0  0  0  0  0  0  0  0  0  0  0
  139.4890   74.1320  223.1300 H   0  0  0  0  0  0  0  0  0  0  0  0
  140.5279   73.7778  220.2681 H   0  0  0  0  0  0  0  0  0  0  0  0
  138.9473   74.5455  220.5325 H   0  0  0  0  0  0  0  0  0  0  0  0
  142.6247   75.1430  219.7617 H   0  0  0  0  0  0  0  0  0  0  0  0
  141.5150   75.6301  218.3791 H   0  0  0  0  0  0  0  0  0  0  0  0
  143.9223   76.9591  219.4822 H   0  0  0  0  0  0  0  0  0  0  0  0
  143.3435   76.6495  217.7614 H   0  0  0  0  0  0  0  0  0  0  0  0
  143.0610   78.9690  219.4412 H   0  0  0  0  0  0  0  0  0  0  0  0
  142.8070   78.7056  217.6511 H   0  0  0  0  0  0  0  0  0  0  0  0
  140.8306   79.5451  218.8752 H   0  0  0  0  0  0  0  0  0  0  0  0
  140.6283   77.9571  217.9881 H   0  0  0  0  0  0  0  0  0  0  0  0
  139.4771   77.8143  219.9727 H   0  0  0  0  0  0  0  0  0  0  0  0
  138.8558   78.5287  222.0844 H   0  0  0  0  0  0  0  0  0  0  0  0
  141.6704   80.5408  224.6309 H   0  0  0  0  0  0  0  0  0  0  0  0
  142.9541   78.8168  220.9133 H   0  0  0  0  0  0  0  0  0  0  0  0
  139.0955   69.9350  222.4104 H   0  0  0  0  0  0  0  0  0  0  0  0
  138.8933   68.4241  224.3805 H   0  0  0  0  0  0  0  0  0  0  0  0
  139.3375   68.0577  226.7026 H   0  0  0  0  0  0  0  0  0  0  0  0
  141.3918   71.0063  229.0214 H   0  0  0  0  0  0  0  0  0  0  0  0
  141.5686   72.4713  227.0325 H   0  0  0  0  0  0  0  0  0  0  0  0
  1  2  2  0
  2  3  1  0
  3  4  1  0
  4  5  1  0
  5  6  2  0
  5  7  1  0
  7  8  1  0
  8  9  1  0
  9 10  1  0
 10 11  1  0
 11 12  1  0
 12 13  1  0
 13 14  2  0
 14 15  1  0
 15 16  1  0
 15 17  2  0
 17 18  1  0
 18 19  1  0
 18 20  2  0
  2 21  1  0
 21 22  2  0
 22 23  1  0
 23 24  2  0
 24 25  1  0
 25 26  2  0
 26 27  1  0
 26 28  1  0
 28 29  2  0
 29 30  1  0
 30 31  2  0
 12  7  1  0
 20 13  1  0
 31 21  1  0
 30 24  1  0
  3 32  1  0
  4 33  1  0
  4 34  1  0
  8 35  1  0
  8 36  1  0
  9 37  1  0
  9 38  1  0
 10 39  1  0
 10 40  1  0
 11 41  1  0
 11 42  1  0
 12 43  1  6
 14 44  1  0
 17 45  1  0
 20 46  1  0
 22 47  1  0
 23 48  1  0
 25 49  1  0
 28 50  1  0
 29 51  1  0
M  END
>  <smiles>  (30) 
O=C(NCC(=O)N1CCCCC1c1cc(F)cc(F)c1)c1ccc2cc(F)ccc2n1

>  <score_type>  (30) 
oracle

>  <origin>  (30) 
autodockgpu

>  <m_score__min__energy>  (30) 
-8.9000000000000004

>  <m_primary>  (30) 
energy

>  <rmsd>  (30) 
1.9275009787409834

>  <m_score__min__rmsd>  (30) 
1.9275009787409834

>  <meeko>  (30) 
{"free_energy": -8.86, "intermolecular_energy": -10.36, "internal_energy": -1.68, "cluster_size": 33, "cluster_id": 1, "rank_in_cluster": 8}

>  <energy>  (30) 
-8.72

>  <cluster_rmsd>  (30) 
0.32

>  <cluster>  (30) 
1

$$$$

     RDKit          3D

 51 54  0  0  0  0  0  0  0  0999 V2000
  140.5070   71.8000  221.1550 O   0  0  0  0  0  0  0  0  0  0  0  0
  140.1700   72.2820  222.2690 C   0  0  0  0  0  0  0  0  0  0  0  0
  139.8510   73.6750  222.2800 N   0  0  0  0  0  0  0  0  0  0  0  0
  139.9530   74.3730  221.0020 C   0  0  0  0  0  0  0  0  0  0  0  0
  140.5820   75.6890  221.2820 C   0  0  0  0  0  0  0  0  0  0  0  0
  140.6900   76.0210  222.4940 O   0  0  0  0  0  0  0  0  0  0  0  0
  141.0300   76.5140  220.2120 N   0  0  0  0  0  0  0  0  0  0  0  0
  141.9810   76.0250  219.2570 C   0  0  0  0  0  0  0  0  0  0  0  0
  142.9580   77.0410  218.7630 C   0  0  0  0  0  0  0  0  0  0  0  0
  142.4410   78.4390  218.6810 C   0  0  0  0  0  0  0  0  0  0  0  0
  140.9650   78.5420  218.8910 C   0  0  0  0  0  0  0  0  0  0  0  0
  140.4820   77.8690  220.1330 C   0  0  2  0  0  0  0  0  0  0  0  0
  140.8080   78.6000  221.3860 C   0  0  0  0  0  0  0  0  0  0  0  0
  142.1030   79.0270  221.6780 C   0  0  0  0  0  0  0  0  0  0  0  0
  142.4090   79.7050  222.8400 C   0  0  0  0  0  0  0  0  0  0  0  0
  143.6820   80.1220  223.1210 F   0  0  0  0  0  0  0  0  0  0  0  0
  141.4240   79.9890  223.7680 C   0  0  0  0  0  0  0  0  0  0  0  0
  140.1340   79.5780  223.5050 C   0  0  0  0  0  0  0  0  0  0  0  0
  139.1570   79.8460  224.4010 F   0  0  0  0  0  0  0  0  0  0  0  0
  139.8480   78.8970  222.3310 C   0  0  0  0  0  0  0  0  0  0  0  0
  140.1050   71.4760  223.4780 C   0  0  0  0  0  0  0  0  0  0  0  0
  139.5020   70.2370  223.3980 C   0  0  0  0  0  0  0  0  0  0  0  0
  139.3860   69.3890  224.4860 C   0  0  0  0  0  0  0  0  0  0  0  0
  139.9110   69.8430  225.6800 C   0  0  0  0  0  0  0  0  0  0  0  0
  139.8240   69.0370  226.8030 C   0  0  0  0  0  0  0  0  0  0  0  0
  140.3360   69.4570  228.0130 C   0  0  0  0  0  0  0  0  0  0  0  0
  140.2400   68.6470  229.1060 F   0  0  0  0  0  0  0  0  0  0  0  0
  140.9350   70.6900  228.0870 C   0  0  0  0  0  0  0  0  0  0  0  0
  141.0290   71.5100  226.9700 C   0  0  0  0  0  0  0  0  0  0  0  0
  140.5130   71.0940  225.7400 C   0  0  0  0  0  0  0  0  0  0  0  0
  140.6070   71.8950  224.6520 N   0  0  0  0  0  0  0  0  0  0  0  0
  139.5610   74.1480  223.1650 H   0  0  0  0  0  0  0  0  0  0  0  0
  140.5769   73.7958  220.3038 H   0  0  0  0  0  0  0  0  0  0  0  0
  138.9625   74.4987  220.5403 H   0  0  0  0  0  0  0  0  0  0  0  0
  142.5471   75.2073  219.7270 H   0  0  0  0  0  0  0  0  0  0  0  0
  141.3995   75.7053  218.3797 H   0  0  0  0  0  0  0  0  0  0  0  0
  143.8232   77.0383  219.4423 H   0  0  0  0  0  0  0  0  0  0  0  0
  143.2049   76.7480  217.7319 H   0  0  0  0  0  0  0  0  0  0  0  0
  142.9451   79.0423  219.4504 H   0  0  0  0  0  0  0  0  0  0  0  0
  142.6491   78.8018  217.6636 H   0  0  0  0  0  0  0  0  0  0  0  0
  140.6968   79.6073  218.9477 H   0  0  0  0  0  0  0  0  0  0  0  0
  140.4856   78.0302  218.0436 H   0  0  0  0  0  0  0  0  0  0  0  0
  139.3849   77.8490  220.0555 H   0  0  0  0  0  0  0  0  0  0  0  0
  142.9074   78.8162  220.9579 H   0  0  0  0  0  0  0  0  0  0  0  0
  141.6639   80.5304  224.6950 H   0  0  0  0  0  0  0  0  0  0  0  0
  138.8111   78.5801  222.1455 H   0  0  0  0  0  0  0  0  0  0  0  0
  139.0967   69.9097  222.4292 H   0  0  0  0  0  0  0  0  0  0  0  0
  138.9011   68.4051  224.4038 H   0  0  0  0  0  0  0  0  0  0  0  0
  139.3414   68.0513  226.7291 H   0  0  0  0  0  0  0  0  0  0  0  0
  141.3474   71.0343  229.0469 H   0  0  0  0  0  0  0  0  0  0  0  0
  141.5132   72.4941  227.0543 H   0  0  0  0  0  0  0  0  0  0  0  0
  1  2  2  0
  2  3  1  0
  3  4  1  0
  4  5  1  0
  5  6  2  0
  5  7  1  0
  7  8  1  0
  8  9  1  0
  9 10  1  0
 10 11  1  0
 11 12  1  0
 12 13  1  0
 13 14  2  0
 14 15  1  0
 15 16  1  0
 15 17  2  0
 17 18  1  0
 18 19  1  0
 18 20  2  0
  2 21  1  0
 21 22  2  0
 22 23  1  0
 23 24  2  0
 24 25  1  0
 25 26  2  0
 26 27  1  0
 26 28  1  0
 28 29  2  0
 29 30  1  0
 30 31  2  0
 12  7  1  0
 20 13  1  0
 31 21  1  0
 30 24  1  0
  3 32  1  0
  4 33  1  0
  4 34  1  0
  8 35  1  0
  8 36  1  0
  9 37  1  0
  9 38  1  0
 10 39  1  0
 10 40  1  0
 11 41  1  0
 11 42  1  0
 12 43  1  6
 14 44  1  0
 17 45  1  0
 20 46  1  0
 22 47  1  0
 23 48  1  0
 25 49  1  0
 28 50  1  0
 29 51  1  0
M  END
>  <smiles>  (31) 
O=C(NCC(=O)N1CCCCC1c1cc(F)cc(F)c1)c1ccc2cc(F)ccc2n1

>  <score_type>  (31) 
oracle

>  <origin>  (31) 
autodockgpu

>  <m_score__min__energy>  (31) 
-8.9000000000000004

>  <m_primary>  (31) 
energy

>  <rmsd>  (31) 
1.9202715544052704

>  <m_score__min__rmsd>  (31) 
1.9202715544052704

>  <meeko>  (31) 
{"free_energy": -8.84, "intermolecular_energy": -10.33, "internal_energy": -1.74, "cluster_size": 33, "cluster_id": 1, "rank_in_cluster": 21}

>  <energy>  (31) 
-8.55

>  <cluster_rmsd>  (31) 
0.44

>  <cluster>  (31) 
1

$$$$

     RDKit          3D

 51 54  0  0  0  0  0  0  0  0999 V2000
  140.6060   71.7950  221.1390 O   0  0  0  0  0  0  0  0  0  0  0  0
  140.2270   72.2840  222.2350 C   0  0  0  0  0  0  0  0  0  0  0  0
  139.9010   73.6750  222.2230 N   0  0  0  0  0  0  0  0  0  0  0  0
  140.0460   74.3640  220.9440 C   0  0  0  0  0  0  0  0  0  0  0  0
  140.6270   75.6990  221.2380 C   0  0  0  0  0  0  0  0  0  0  0  0
  140.7180   76.0220  222.4540 O   0  0  0  0  0  0  0  0  0  0  0  0
  141.0500   76.5490  220.1780 N   0  0  0  0  0  0  0  0  0  0  0  0
  142.0000   76.0920  219.2060 C   0  0  0  0  0  0  0  0  0  0  0  0
  142.9540   77.1330  218.7200 C   0  0  0  0  0  0  0  0  0  0  0  0
  142.4120   78.5220  218.6660 C   0  0  0  0  0  0  0  0  0  0  0  0
  140.9370   78.5960  218.8920 C   0  0  0  0  0  0  0  0  0  0  0  0
  140.4780   77.8950  220.1270 C   0  0  2  0  0  0  0  0  0  0  0  0
  140.8040   78.6110  221.3900 C   0  0  0  0  0  0  0  0  0  0  0  0
  142.0940   79.0560  221.6750 C   0  0  0  0  0  0  0  0  0  0  0  0
  142.4000   79.7210  222.8450 C   0  0  0  0  0  0  0  0  0  0  0  0
  143.6690   80.1560  223.1190 F   0  0  0  0  0  0  0  0  0  0  0  0
  141.4200   79.9700  223.7880 C   0  0  0  0  0  0  0  0  0  0  0  0
  140.1350   79.5400  223.5310 C   0  0  0  0  0  0  0  0  0  0  0  0
  139.1640   79.7750  224.4420 F   0  0  0  0  0  0  0  0  0  0  0  0
  139.8500   78.8740  222.3500 C   0  0  0  0  0  0  0  0  0  0  0  0
  140.1230   71.4880  223.4480 C   0  0  0  0  0  0  0  0  0  0  0  0
  139.4410   70.2900  223.3780 C   0  0  0  0  0  0  0  0  0  0  0  0
  139.2820   69.4540  224.4710 C   0  0  0  0  0  0  0  0  0  0  0  0
  139.8460   69.8770  225.6580 C   0  0  0  0  0  0  0  0  0  0  0  0
  139.7190   69.0820  226.7840 C   0  0  0  0  0  0  0  0  0  0  0  0
  140.2680   69.4730  227.9880 C   0  0  0  0  0  0  0  0  0  0  0  0
  140.1310   68.6740  229.0850 F   0  0  0  0  0  0  0  0  0  0  0  0
  140.9450   70.6650  228.0520 C   0  0  0  0  0  0  0  0  0  0  0  0
  141.0810   71.4740  226.9310 C   0  0  0  0  0  0  0  0  0  0  0  0
  140.5270   71.0880  225.7070 C   0  0  0  0  0  0  0  0  0  0  0  0
  140.6620   71.8780  224.6150 N   0  0  0  0  0  0  0  0  0  0  0  0
  139.5780   74.1550  223.0940 H   0  0  0  0  0  0  0  0  0  0  0  0
  140.7170   73.7966  220.2823 H   0  0  0  0  0  0  0  0  0  0  0  0
  139.0753   74.4598  220.4355 H   0  0  0  0  0  0  0  0  0  0  0  0
  142.5848   75.2768  219.6570 H   0  0  0  0  0  0  0  0  0  0  0  0
  141.4158   75.7761  218.3291 H   0  0  0  0  0  0  0  0  0  0  0  0
  143.8255   77.1346  219.3912 H   0  0  0  0  0  0  0  0  0  0  0  0
  143.1962   76.8614  217.6819 H   0  0  0  0  0  0  0  0  0  0  0  0
  142.9132   79.1216  219.4401 H   0  0  0  0  0  0  0  0  0  0  0  0
  142.6034   78.9045  217.6526 H   0  0  0  0  0  0  0  0  0  0  0  0
  140.6512   79.6554  218.9687 H   0  0  0  0  0  0  0  0  0  0  0  0
  140.4580   78.0896  218.0410 H   0  0  0  0  0  0  0  0  0  0  0  0
  139.3807   77.8578  220.0599 H   0  0  0  0  0  0  0  0  0  0  0  0
  142.8943   78.8710  220.9433 H   0  0  0  0  0  0  0  0  0  0  0  0
  141.6598   80.4991  224.7221 H   0  0  0  0  0  0  0  0  0  0  0  0
  138.8173   78.5404  222.1704 H   0  0  0  0  0  0  0  0  0  0  0  0
  139.0057   69.9866  222.4144 H   0  0  0  0  0  0  0  0  0  0  0  0
  138.7348   68.5026  224.3970 H   0  0  0  0  0  0  0  0  0  0  0  0
  139.1746   68.1284  226.7183 H   0  0  0  0  0  0  0  0  0  0  0  0
  141.3873   70.9852  229.0069 H   0  0  0  0  0  0  0  0  0  0  0  0
  141.6285   72.4250  227.0070 H   0  0  0  0  0  0  0  0  0  0  0  0
  1  2  2  0
  2  3  1  0
  3  4  1  0
  4  5  1  0
  5  6  2  0
  5  7  1  0
  7  8  1  0
  8  9  1  0
  9 10  1  0
 10 11  1  0
 11 12  1  0
 12 13  1  0
 13 14  2  0
 14 15  1  0
 15 16  1  0
 15 17  2  0
 17 18  1  0
 18 19  1  0
 18 20  2  0
  2 21  1  0
 21 22  2  0
 22 23  1  0
 23 24  2  0
 24 25  1  0
 25 26  2  0
 26 27  1  0
 26 28  1  0
 28 29  2  0
 29 30  1  0
 30 31  2  0
 12  7  1  0
 20 13  1  0
 31 21  1  0
 30 24  1  0
  3 32  1  0
  4 33  1  0
  4 34  1  0
  8 35  1  0
  8 36  1  0
  9 37  1  0
  9 38  1  0
 10 39  1  0
 10 40  1  0
 11 41  1  0
 11 42  1  0
 12 43  1  6
 14 44  1  0
 17 45  1  0
 20 46  1  0
 22 47  1  0
 23 48  1  0
 25 49  1  0
 28 50  1  0
 29 51  1  0
M  END
>  <smiles>  (32) 
O=C(NCC(=O)N1CCCCC1c1cc(F)cc(F)c1)c1ccc2cc(F)ccc2n1

>  <score_type>  (32) 
oracle

>  <origin>  (32) 
autodockgpu

>  <m_score__min__energy>  (32) 
-8.9000000000000004

>  <m_primary>  (32) 
energy

>  <rmsd>  (32) 
1.9531482984339839

>  <m_score__min__rmsd>  (32) 
1.9531482984339839

>  <meeko>  (32) 
{"free_energy": -8.87, "intermolecular_energy": -10.36, "internal_energy": -1.72, "cluster_size": 33, "cluster_id": 1, "rank_in_cluster": 7}

>  <energy>  (32) 
-8.41

>  <cluster_rmsd>  (32) 
1.62

>  <cluster>  (32) 
1

$$$$

     RDKit          3D

 51 54  0  0  0  0  0  0  0  0999 V2000
  140.7960   71.1540  221.7270 O   0  0  0  0  0  0  0  0  0  0  0  0
  140.3410   71.7290  222.7490 C   0  0  0  0  0  0  0  0  0  0  0  0
  139.7480   73.0110  222.5380 N   0  0  0  0  0  0  0  0  0  0  0  0
  139.7390   73.5020  221.1620 C   0  0  0  0  0  0  0  0  0  0  0  0
  140.4920   74.7830  221.1590 C   0  0  0  0  0  0  0  0  0  0  0  0
  140.7050   75.3190  222.2800 O   0  0  0  0  0  0  0  0  0  0  0  0
  140.9360   75.3530  219.9330 N   0  0  0  0  0  0  0  0  0  0  0  0
  140.0310   75.5260  218.8340 C   0  0  0  0  0  0  0  0  0  0  0  0
  140.6330   75.3170  217.4830 C   0  0  0  0  0  0  0  0  0  0  0  0
  142.0710   75.6970  217.3580 C   0  0  0  0  0  0  0  0  0  0  0  0
  142.5990   76.4340  218.5460 C   0  0  0  0  0  0  0  0  0  0  0  0
  142.3420   75.7490  219.8460 C   0  0  2  0  0  0  0  0  0  0  0  0
  143.2000   74.5580  220.0850 C   0  0  0  0  0  0  0  0  0  0  0  0
  142.7240   73.2580  219.9120 C   0  0  0  0  0  0  0  0  0  0  0  0
  143.5160   72.1510  220.1330 C   0  0  0  0  0  0  0  0  0  0  0  0
  143.0440   70.8770  219.9610 F   0  0  0  0  0  0  0  0  0  0  0  0
  144.8300   72.2960  220.5400 C   0  0  0  0  0  0  0  0  0  0  0  0
  145.3260   73.5710  220.7190 C   0  0  0  0  0  0  0  0  0  0  0  0
  146.6080   73.7330  221.1170 F   0  0  0  0  0  0  0  0  0  0  0  0
  144.5120   74.6700  220.4930 C   0  0  0  0  0  0  0  0  0  0  0  0
  140.4100   71.1320  224.0740 C   0  0  0  0  0  0  0  0  0  0  0  0
  140.9870   71.8690  225.0870 C   0  0  0  0  0  0  0  0  0  0  0  0
  141.1040   71.3980  226.3840 C   0  0  0  0  0  0  0  0  0  0  0  0
  140.6100   70.1320  226.6260 C   0  0  0  0  0  0  0  0  0  0  0  0
  140.7000   69.6070  227.9050 C   0  0  0  0  0  0  0  0  0  0  0  0
  140.2170   68.3460  228.1840 C   0  0  0  0  0  0  0  0  0  0  0  0
  140.3160   67.8490  229.4510 F   0  0  0  0  0  0  0  0  0  0  0  0
  139.6440   67.6150  227.1730 C   0  0  0  0  0  0  0  0  0  0  0  0
  139.5470   68.1270  225.8850 C   0  0  0  0  0  0  0  0  0  0  0  0
  140.0340   69.4040  225.5910 C   0  0  0  0  0  0  0  0  0  0  0  0
  139.9370   69.9010  224.3350 N   0  0  0  0  0  0  0  0  0  0  0  0
  139.3470   73.5530  223.3370 H   0  0  0  0  0  0  0  0  0  0  0  0
  140.2269   72.7742  220.4969 H   0  0  0  0  0  0  0  0  0  0  0  0
  138.7101   73.6479  220.8014 H   0  0  0  0  0  0  0  0  0  0  0  0
  139.2060   74.8086  218.9549 H   0  0  0  0  0  0  0  0  0  0  0  0
  139.7043   76.5759  218.8665 H   0  0  0  0  0  0  0  0  0  0  0  0
  140.5406   74.2501  217.2315 H   0  0  0  0  0  0  0  0  0  0  0  0
  140.0832   75.9810  216.7998 H   0  0  0  0  0  0  0  0  0  0  0  0
  142.6633   74.7795  217.2262 H   0  0  0  0  0  0  0  0  0  0  0  0
  142.1525   76.3742  216.4950 H   0  0  0  0  0  0  0  0  0  0  0  0
  143.6860   76.5516  218.4255 H   0  0  0  0  0  0  0  0  0  0  0  0
  142.0713   77.3984  218.5837 H   0  0  0  0  0  0  0  0  0  0  0  0
  142.5954   76.4822  220.6259 H   0  0  0  0  0  0  0  0  0  0  0  0
  141.6829   73.1113  219.5887 H   0  0  0  0  0  0  0  0  0  0  0  0
  145.4648   71.4152  220.7169 H   0  0  0  0  0  0  0  0  0  0  0  0
  144.9313   75.6754  220.6459 H   0  0  0  0  0  0  0  0  0  0  0  0
  141.3705   72.8735  224.8548 H   0  0  0  0  0  0  0  0  0  0  0  0
  141.5663   72.0010  227.1795 H   0  0  0  0  0  0  0  0  0  0  0  0
  141.1617   70.2025  228.7064 H   0  0  0  0  0  0  0  0  0  0  0  0
  139.2556   66.6081  227.3860 H   0  0  0  0  0  0  0  0  0  0  0  0
  139.0836   67.5231  225.0909 H   0  0  0  0  0  0  0  0  0  0  0  0
  1  2  2  0
  2  3  1  0
  3  4  1  0
  4  5  1  0
  5  6  2  0
  5  7  1  0
  7  8  1  0
  8  9  1  0
  9 10  1  0
 10 11  1  0
 11 12  1  0
 12 13  1  0
 13 14  2  0
 14 15  1  0
 15 16  1  0
 15 17  2  0
 17 18  1  0
 18 19  1  0
 18 20  2  0
  2 21  1  0
 21 22  2  0
 22 23  1  0
 23 24  2  0
 24 25  1  0
 25 26  2  0
 26 27  1  0
 26 28  1  0
 28 29  2  0
 29 30  1  0
 30 31  2  0
 12  7  1  0
 20 13  1  0
 31 21  1  0
 30 24  1  0
  3 32  1  0
  4 33  1  0
  4 34  1  0
  8 35  1  0
  8 36  1  0
  9 37  1  0
  9 38  1  0
 10 39  1  0
 10 40  1  0
 11 41  1  0
 11 42  1  0
 12 43  1  1
 14 44  1  0
 17 45  1  0
 20 46  1  0
 22 47  1  0
 23 48  1  0
 25 49  1  0
 28 50  1  0
 29 51  1  0
M  END
>  <smiles>  (33) 
O=C(NCC(=O)N1CCCCC1c1cc(F)cc(F)c1)c1ccc2cc(F)ccc2n1

>  <score_type>  (33) 
oracle

>  <origin>  (33) 
autodockgpu

>  <m_score__min__energy>  (33) 
-8.9000000000000004

>  <m_primary>  (33) 
energy

>  <rmsd>  (33) 
2.657972993459619

>  <m_score__min__rmsd>  (33) 
2.657972993459619

>  <meeko>  (33) 
{"free_energy": -8.13, "intermolecular_energy": -9.62, "internal_energy": -1.78, "cluster_size": 12, "cluster_id": 2, "rank_in_cluster": 9}

>  <energy>  (33) 
-7.95

>  <cluster_rmsd>  (33) 
0.76

>  <cluster>  (33) 
1

$$$$

     RDKit          3D

 51 54  0  0  0  0  0  0  0  0999 V2000
  140.5790   71.8120  221.1210 O   0  0  0  0  0  0  0  0  0  0  0  0
  140.2190   72.2870  222.2300 C   0  0  0  0  0  0  0  0  0  0  0  0
  139.8830   73.6750  222.2400 N   0  0  0  0  0  0  0  0  0  0  0  0
  139.9960   74.3780  220.9660 C   0  0  0  0  0  0  0  0  0  0  0  0
  140.5990   75.7040  221.2590 C   0  0  0  0  0  0  0  0  0  0  0  0
  140.6890   76.0310  222.4740 O   0  0  0  0  0  0  0  0  0  0  0  0
  141.0430   76.5430  220.1980 N   0  0  0  0  0  0  0  0  0  0  0  0
  141.9960   76.0680  219.2380 C   0  0  0  0  0  0  0  0  0  0  0  0
  142.9680   77.0930  218.7540 C   0  0  0  0  0  0  0  0  0  0  0  0
  142.4450   78.4890  218.6880 C   0  0  0  0  0  0  0  0  0  0  0  0
  140.9690   78.5840  218.9000 C   0  0  0  0  0  0  0  0  0  0  0  0
  140.4890   77.8960  220.1340 C   0  0  2  0  0  0  0  0  0  0  0  0
  140.8130   78.6140  221.3950 C   0  0  0  0  0  0  0  0  0  0  0  0
  139.8450   78.8810  222.3630 C   0  0  0  0  0  0  0  0  0  0  0  0
  140.1410   79.5470  223.5340 C   0  0  0  0  0  0  0  0  0  0  0  0
  139.1870   79.8060  224.4810 F   0  0  0  0  0  0  0  0  0  0  0  0
  141.4300   79.9790  223.7910 C   0  0  0  0  0  0  0  0  0  0  0  0
  142.4070   79.7280  222.8500 C   0  0  0  0  0  0  0  0  0  0  0  0
  143.6730   80.1430  223.0830 F   0  0  0  0  0  0  0  0  0  0  0  0
  142.0870   79.0580  221.6790 C   0  0  0  0  0  0  0  0  0  0  0  0
  140.1460   71.4770  223.4370 C   0  0  0  0  0  0  0  0  0  0  0  0
  139.5410   70.2400  223.3490 C   0  0  0  0  0  0  0  0  0  0  0  0
  139.4180   69.3880  224.4340 C   0  0  0  0  0  0  0  0  0  0  0  0
  139.9360   69.8370  225.6320 C   0  0  0  0  0  0  0  0  0  0  0  0
  139.8420   69.0270  226.7520 C   0  0  0  0  0  0  0  0  0  0  0  0
  140.3470   69.4430  227.9660 C   0  0  0  0  0  0  0  0  0  0  0  0
  140.2440   68.6290  229.0560 F   0  0  0  0  0  0  0  0  0  0  0  0
  140.9480   70.6750  228.0480 C   0  0  0  0  0  0  0  0  0  0  0  0
  141.0500   71.4980  226.9340 C   0  0  0  0  0  0  0  0  0  0  0  0
  140.5410   71.0870  225.6990 C   0  0  0  0  0  0  0  0  0  0  0  0
  140.6420   71.8920  224.6150 N   0  0  0  0  0  0  0  0  0  0  0  0
  139.5750   74.1430  223.1220 H   0  0  0  0  0  0  0  0  0  0  0  0
  140.6411   73.8125  220.2775 H   0  0  0  0  0  0  0  0  0  0  0  0
  139.0115   74.4892  220.4880 H   0  0  0  0  0  0  0  0  0  0  0  0
  142.5660   75.2483  219.6997 H   0  0  0  0  0  0  0  0  0  0  0  0
  141.4157   75.7544  218.3577 H   0  0  0  0  0  0  0  0  0  0  0  0
  143.8341   77.0866  219.4322 H   0  0  0  0  0  0  0  0  0  0  0  0
  143.2151   76.8123  217.7195 H   0  0  0  0  0  0  0  0  0  0  0  0
  142.9471   79.0858  219.4637 H   0  0  0  0  0  0  0  0  0  0  0  0
  142.6507   78.8636  217.6744 H   0  0  0  0  0  0  0  0  0  0  0  0
  140.6969   79.6476  218.9685 H   0  0  0  0  0  0  0  0  0  0  0  0
  140.4912   78.0794  218.0473 H   0  0  0  0  0  0  0  0  0  0  0  0
  139.3920   77.8728  220.0565 H   0  0  0  0  0  0  0  0  0  0  0  0
  138.8111   78.5494  222.1867 H   0  0  0  0  0  0  0  0  0  0  0  0
  141.6701   80.5102  224.7238 H   0  0  0  0  0  0  0  0  0  0  0  0
  142.8845   78.8726  220.9444 H   0  0  0  0  0  0  0  0  0  0  0  0
  139.1398   69.9172  222.3770 H   0  0  0  0  0  0  0  0  0  0  0  0
  138.9328   68.4048  224.3456 H   0  0  0  0  0  0  0  0  0  0  0  0
  139.3595   68.0417  226.6721 H   0  0  0  0  0  0  0  0  0  0  0  0
  141.3552   71.0155  229.0115 H   0  0  0  0  0  0  0  0  0  0  0  0
  141.5352   72.4811  227.0244 H   0  0  0  0  0  0  0  0  0  0  0  0
  1  2  2  0
  2  3  1  0
  3  4  1  0
  4  5  1  0
  5  6  2  0
  5  7  1  0
  7  8  1  0
  8  9  1  0
  9 10  1  0
 10 11  1  0
 11 12  1  0
 12 13  1  0
 13 14  2  0
 14 15  1  0
 15 16  1  0
 15 17  2  0
 17 18  1  0
 18 19  1  0
 18 20  2  0
  2 21  1  0
 21 22  2  0
 22 23  1  0
 23 24  2  0
 24 25  1  0
 25 26  2  0
 26 27  1  0
 26 28  1  0
 28 29  2  0
 29 30  1  0
 30 31  2  0
 12  7  1  0
 20 13  1  0
 31 21  1  0
 30 24  1  0
  3 32  1  0
  4 33  1  0
  4 34  1  0
  8 35  1  0
  8 36  1  0
  9 37  1  0
  9 38  1  0
 10 39  1  0
 10 40  1  0
 11 41  1  0
 11 42  1  0
 12 43  1  6
 14 44  1  0
 17 45  1  0
 20 46  1  0
 22 47  1  0
 23 48  1  0
 25 49  1  0
 28 50  1  0
 29 51  1  0
M  END
>  <smiles>  (34) 
O=C(NCC(=O)N1CCCCC1c1cc(F)cc(F)c1)c1ccc2cc(F)ccc2n1

>  <score_type>  (34) 
oracle

>  <origin>  (34) 
autodockgpu

>  <m_score__min__energy>  (34) 
-8.9000000000000004

>  <m_primary>  (34) 
energy

>  <rmsd>  (34) 
1.9393930625581361

>  <m_score__min__rmsd>  (34) 
1.9393930625581361

>  <meeko>  (34) 
{"free_energy": -8.85, "intermolecular_energy": -10.35, "internal_energy": -1.73, "cluster_size": 33, "cluster_id": 1, "rank_in_cluster": 11}

>  <energy>  (34) 
-8.38

>  <cluster_rmsd>  (34) 
0.0

>  <cluster>  (34) 
2

$$$$

     RDKit          3D

 51 54  0  0  0  0  0  0  0  0999 V2000
  140.5160   71.7980  221.1380 O   0  0  0  0  0  0  0  0  0  0  0  0
  140.1780   72.2860  222.2480 C   0  0  0  0  0  0  0  0  0  0  0  0
  139.8680   73.6800  222.2540 N   0  0  0  0  0  0  0  0  0  0  0  0
  139.9790   74.3730  220.9740 C   0  0  0  0  0  0  0  0  0  0  0  0
  140.7010   75.6450  221.2360 C   0  0  0  0  0  0  0  0  0  0  0  0
  140.9280   75.9310  222.4430 O   0  0  0  0  0  0  0  0  0  0  0  0
  141.1040   76.4790  220.1550 N   0  0  0  0  0  0  0  0  0  0  0  0
  142.0600   76.0190  219.1910 C   0  0  0  0  0  0  0  0  0  0  0  0
  142.9920   77.0670  218.6770 C   0  0  0  0  0  0  0  0  0  0  0  0
  142.4230   78.4440  218.5940 C   0  0  0  0  0  0  0  0  0  0  0  0
  140.9470   78.4940  218.8240 C   0  0  0  0  0  0  0  0  0  0  0  0
  140.5060   77.8120  220.0760 C   0  0  2  0  0  0  0  0  0  0  0  0
  140.8210   78.5630  221.3210 C   0  0  0  0  0  0  0  0  0  0  0  0
  139.8480   78.8530  222.2760 C   0  0  0  0  0  0  0  0  0  0  0  0
  140.1370   79.5480  223.4320 C   0  0  0  0  0  0  0  0  0  0  0  0
  139.1770   79.8290  224.3660 F   0  0  0  0  0  0  0  0  0  0  0  0
  141.4240   79.9870  223.6850 C   0  0  0  0  0  0  0  0  0  0  0  0
  142.4060   79.7140  222.7560 C   0  0  0  0  0  0  0  0  0  0  0  0
  143.6700   80.1360  222.9860 F   0  0  0  0  0  0  0  0  0  0  0  0
  142.0940   79.0150  221.6010 C   0  0  0  0  0  0  0  0  0  0  0  0
  140.1050   71.4840  223.4600 C   0  0  0  0  0  0  0  0  0  0  0  0
  139.4730   70.2590  223.3880 C   0  0  0  0  0  0  0  0  0  0  0  0
  139.3460   69.4160  224.4790 C   0  0  0  0  0  0  0  0  0  0  0  0
  139.8900   69.8610  225.6670 C   0  0  0  0  0  0  0  0  0  0  0  0
  139.7930   69.0600  226.7930 C   0  0  0  0  0  0  0  0  0  0  0  0
  140.3230   69.4720  227.9980 C   0  0  0  0  0  0  0  0  0  0  0  0
  140.2170   68.6670  229.0940 F   0  0  0  0  0  0  0  0  0  0  0  0
  140.9510   70.6910  228.0650 C   0  0  0  0  0  0  0  0  0  0  0  0
  141.0550   71.5060  226.9450 C   0  0  0  0  0  0  0  0  0  0  0  0
  140.5210   71.0980  225.7200 C   0  0  0  0  0  0  0  0  0  0  0  0
  140.6240   71.8950  224.6290 N   0  0  0  0  0  0  0  0  0  0  0  0
  139.5780   74.1590  223.1360 H   0  0  0  0  0  0  0  0  0  0  0  0
  140.5434   73.7577  220.2579 H   0  0  0  0  0  0  0  0  0  0  0  0
  138.9860   74.5646  220.5413 H   0  0  0  0  0  0  0  0  0  0  0  0
  142.6623   75.2264  219.6590 H   0  0  0  0  0  0  0  0  0  0  0  0
  141.4794   75.6716  218.3237 H   0  0  0  0  0  0  0  0  0  0  0  0
  143.8661   77.1006  219.3439 H   0  0  0  0  0  0  0  0  0  0  0  0
  143.2351   76.7765  217.6443 H   0  0  0  0  0  0  0  0  0  0  0  0
  142.9150   79.0704  219.3527 H   0  0  0  0  0  0  0  0  0  0  0  0
  142.6037   78.8077  217.5717 H   0  0  0  0  0  0  0  0  0  0  0  0
  140.6406   79.5491  218.8781 H   0  0  0  0  0  0  0  0  0  0  0  0
  140.4753   77.9593  217.9864 H   0  0  0  0  0  0  0  0  0  0  0  0
  139.4094   77.7512  220.0139 H   0  0  0  0  0  0  0  0  0  0  0  0
  138.8153   78.5164  222.1021 H   0  0  0  0  0  0  0  0  0  0  0  0
  141.6588   80.5410  224.6058 H   0  0  0  0  0  0  0  0  0  0  0  0
  142.8959   78.8117  220.8760 H   0  0  0  0  0  0  0  0  0  0  0  0
  139.0525   69.9390  222.4232 H   0  0  0  0  0  0  0  0  0  0  0  0
  138.8384   68.4431  224.4030 H   0  0  0  0  0  0  0  0  0  0  0  0
  139.2880   68.0851  226.7255 H   0  0  0  0  0  0  0  0  0  0  0  0
  141.3787   71.0277  229.0209 H   0  0  0  0  0  0  0  0  0  0  0  0
  141.5613   72.4794  227.0230 H   0  0  0  0  0  0  0  0  0  0  0  0
  1  2  2  0
  2  3  1  0
  3  4  1  0
  4  5  1  0
  5  6  2  0
  5  7  1  0
  7  8  1  0
  8  9  1  0
  9 10  1  0
 10 11  1  0
 11 12  1  0
 12 13  1  0
 13 14  2  0
 14 15  1  0
 15 16  1  0
 15 17  2  0
 17 18  1  0
 18 19  1  0
 18 20  2  0
  2 21  1  0
 21 22  2  0
 22 23  1  0
 23 24  2  0
 24 25  1  0
 25 26  2  0
 26 27  1  0
 26 28  1  0
 28 29  2  0
 29 30  1  0
 30 31  2  0
 12  7  1  0
 20 13  1  0
 31 21  1  0
 30 24  1  0
  3 32  1  0
  4 33  1  0
  4 34  1  0
  8 35  1  0
  8 36  1  0
  9 37  1  0
  9 38  1  0
 10 39  1  0
 10 40  1  0
 11 41  1  0
 11 42  1  0
 12 43  1  6
 14 44  1  0
 17 45  1  0
 20 46  1  0
 22 47  1  0
 23 48  1  0
 25 49  1  0
 28 50  1  0
 29 51  1  0
M  END
>  <smiles>  (35) 
O=C(NCC(=O)N1CCCCC1c1cc(F)cc(F)c1)c1ccc2cc(F)ccc2n1

>  <score_type>  (35) 
oracle

>  <origin>  (35) 
autodockgpu

>  <m_score__min__energy>  (35) 
-8.9000000000000004

>  <m_primary>  (35) 
energy

>  <rmsd>  (35) 
1.922620400416835

>  <m_score__min__rmsd>  (35) 
1.922620400416835

>  <meeko>  (35) 
{"free_energy": -8.8, "intermolecular_energy": -10.3, "internal_energy": -1.73, "cluster_size": 33, "cluster_id": 1, "rank_in_cluster": 26}

>  <energy>  (35) 
-8.36

>  <cluster_rmsd>  (35) 
0.27

>  <cluster>  (35) 
2

$$$$

     RDKit          3D

 51 54  0  0  0  0  0  0  0  0999 V2000
  140.9140   72.1700  221.3020 O   0  0  0  0  0  0  0  0  0  0  0  0
  140.1620   72.4240  222.2790 C   0  0  0  0  0  0  0  0  0  0  0  0
  139.3630   73.6030  222.1680 N   0  0  0  0  0  0  0  0  0  0  0  0
  139.5130   74.3730  220.9360 C   0  0  0  0  0  0  0  0  0  0  0  0
  140.6050   75.3520  221.1730 C   0  0  0  0  0  0  0  0  0  0  0  0
  141.0680   75.4130  222.3440 O   0  0  0  0  0  0  0  0  0  0  0  0
  141.0820   76.1680  220.1090 N   0  0  0  0  0  0  0  0  0  0  0  0
  142.0590   75.6710  219.1850 C   0  0  0  0  0  0  0  0  0  0  0  0
  143.0490   76.6830  218.7080 C   0  0  0  0  0  0  0  0  0  0  0  0
  142.5350   78.0790  218.6010 C   0  0  0  0  0  0  0  0  0  0  0  0
  141.0540   78.1840  218.7700 C   0  0  0  0  0  0  0  0  0  0  0  0
  140.5370   77.5220  220.0040 C   0  0  2  0  0  0  0  0  0  0  0  0
  140.8290   78.2640  221.2600 C   0  0  0  0  0  0  0  0  0  0  0  0
  139.8480   78.5070  222.2190 C   0  0  0  0  0  0  0  0  0  0  0  0
  140.1150   79.1940  223.3860 C   0  0  0  0  0  0  0  0  0  0  0  0
  139.1470   79.4300  224.3240 F   0  0  0  0  0  0  0  0  0  0  0  0
  141.3870   79.6710  223.6450 C   0  0  0  0  0  0  0  0  0  0  0  0
  142.3770   79.4440  222.7120 C   0  0  0  0  0  0  0  0  0  0  0  0
  143.6270   79.9030  222.9470 F   0  0  0  0  0  0  0  0  0  0  0  0
  142.0870   78.7520  221.5460 C   0  0  0  0  0  0  0  0  0  0  0  0
  140.1030   71.5720  223.4570 C   0  0  0  0  0  0  0  0  0  0  0  0
  139.5000   70.3370  223.3310 C   0  0  0  0  0  0  0  0  0  0  0  0
  139.3890   69.4470  224.3870 C   0  0  0  0  0  0  0  0  0  0  0  0
  139.9180   69.8550  225.5950 C   0  0  0  0  0  0  0  0  0  0  0  0
  139.8360   69.0070  226.6870 C   0  0  0  0  0  0  0  0  0  0  0  0
  140.3520   69.3810  227.9100 C   0  0  0  0  0  0  0  0  0  0  0  0
  140.2610   68.5290  228.9710 F   0  0  0  0  0  0  0  0  0  0  0  0
  140.9510   70.6110  228.0290 C   0  0  0  0  0  0  0  0  0  0  0  0
  141.0400   71.4730  226.9440 C   0  0  0  0  0  0  0  0  0  0  0  0
  140.5200   71.1040  225.7000 C   0  0  0  0  0  0  0  0  0  0  0  0
  140.6090   71.9470  224.6440 N   0  0  0  0  0  0  0  0  0  0  0  0
  138.7130   73.8810  222.9370 H   0  0  0  0  0  0  0  0  0  0  0  0
  139.7767   73.7059  220.1020 H   0  0  0  0  0  0  0  0  0  0  0  0
  138.5750   74.8836  220.6726 H   0  0  0  0  0  0  0  0  0  0  0  0
  142.6125   74.8582  219.6779 H   0  0  0  0  0  0  0  0  0  0  0  0
  141.5017   75.3429  218.2952 H   0  0  0  0  0  0  0  0  0  0  0  0
  143.8962   76.6860  219.4096 H   0  0  0  0  0  0  0  0  0  0  0  0
  143.3227   76.3814  217.6862 H   0  0  0  0  0  0  0  0  0  0  0  0
  143.0182   78.6884  219.3789 H   0  0  0  0  0  0  0  0  0  0  0  0
  142.7706   78.4335  217.5867 H   0  0  0  0  0  0  0  0  0  0  0  0
  140.7848   79.2498  218.8102 H   0  0  0  0  0  0  0  0  0  0  0  0
  140.5977   77.6648  217.9143 H   0  0  0  0  0  0  0  0  0  0  0  0
  139.4424   77.5017  219.8971 H   0  0  0  0  0  0  0  0  0  0  0  0
  138.8269   78.1392  222.0402 H   0  0  0  0  0  0  0  0  0  0  0  0
  141.6041   80.2189  224.5738 H   0  0  0  0  0  0  0  0  0  0  0  0
  142.8946   78.5851  220.8181 H   0  0  0  0  0  0  0  0  0  0  0  0
  139.0907   70.0474  222.3519 H   0  0  0  0  0  0  0  0  0  0  0  0
  138.9046   68.4665  224.2690 H   0  0  0  0  0  0  0  0  0  0  0  0
  139.3540   68.0243  226.5776 H   0  0  0  0  0  0  0  0  0  0  0  0
  141.3671   70.9184  228.9997 H   0  0  0  0  0  0  0  0  0  0  0  0
  141.5234   72.4537  227.0643 H   0  0  0  0  0  0  0  0  0  0  0  0
  1  2  2  0
  2  3  1  0
  3  4  1  0
  4  5  1  0
  5  6  2  0
  5  7  1  0
  7  8  1  0
  8  9  1  0
  9 10  1  0
 10 11  1  0
 11 12  1  0
 12 13  1  0
 13 14  2  0
 14 15  1  0
 15 16  1  0
 15 17  2  0
 17 18  1  0
 18 19  1  0
 18 20  2  0
  2 21  1  0
 21 22  2  0
 22 23  1  0
 23 24  2  0
 24 25  1  0
 25 26  2  0
 26 27  1  0
 26 28  1  0
 28 29  2  0
 29 30  1  0
 30 31  2  0
 12  7  1  0
 20 13  1  0
 31 21  1  0
 30 24  1  0
  3 32  1  0
  4 33  1  0
  4 34  1  0
  8 35  1  0
  8 36  1  0
  9 37  1  0
  9 38  1  0
 10 39  1  0
 10 40  1  0
 11 41  1  0
 11 42  1  0
 12 43  1  6
 14 44  1  0
 17 45  1  0
 20 46  1  0
 22 47  1  0
 23 48  1  0
 25 49  1  0
 28 50  1  0
 29 51  1  0
M  END
>  <smiles>  (36) 
O=C(NCC(=O)N1CCCCC1c1cc(F)cc(F)c1)c1ccc2cc(F)ccc2n1

>  <score_type>  (36) 
oracle

>  <origin>  (36) 
autodockgpu

>  <m_score__min__energy>  (36) 
-8.9000000000000004

>  <m_primary>  (36) 
energy

>  <rmsd>  (36) 
1.8134724548994423

>  <m_score__min__rmsd>  (36) 
1.8134724548994423

>  <meeko>  (36) 
{"free_energy": -8.83, "intermolecular_energy": -10.32, "internal_energy": -1.42, "cluster_size": 33, "cluster_id": 1, "rank_in_cluster": 25}

>  <energy>  (36) 
-8.36

>  <cluster_rmsd>  (36) 
0.26

>  <cluster>  (36) 
2

$$$$

     RDKit          3D

 51 54  0  0  0  0  0  0  0  0999 V2000
  140.5030   71.8030  221.1560 O   0  0  0  0  0  0  0  0  0  0  0  0
  140.1760   72.2880  222.2710 C   0  0  0  0  0  0  0  0  0  0  0  0
  139.8640   73.6820  222.2830 N   0  0  0  0  0  0  0  0  0  0  0  0
  139.9630   74.3790  221.0040 C   0  0  0  0  0  0  0  0  0  0  0  0
  140.6620   75.6630  221.2680 C   0  0  0  0  0  0  0  0  0  0  0  0
  140.8510   75.9680  222.4770 O   0  0  0  0  0  0  0  0  0  0  0  0
  141.0840   76.4880  220.1870 N   0  0  0  0  0  0  0  0  0  0  0  0
  142.0370   76.0100  219.2290 C   0  0  0  0  0  0  0  0  0  0  0  0
  142.9880   77.0420  218.7170 C   0  0  0  0  0  0  0  0  0  0  0  0
  142.4410   78.4270  218.6280 C   0  0  0  0  0  0  0  0  0  0  0  0
  140.9660   78.5020  218.8500 C   0  0  0  0  0  0  0  0  0  0  0  0
  140.5070   77.8300  220.1010 C   0  0  2  0  0  0  0  0  0  0  0  0
  140.8290   78.5790  221.3460 C   0  0  0  0  0  0  0  0  0  0  0  0
  139.8570   78.8790  222.3000 C   0  0  0  0  0  0  0  0  0  0  0  0
  140.1520   79.5730  223.4550 C   0  0  0  0  0  0  0  0  0  0  0  0
  139.1940   79.8640  224.3880 F   0  0  0  0  0  0  0  0  0  0  0  0
  141.4430   80.0000  223.7090 C   0  0  0  0  0  0  0  0  0  0  0  0
  142.4230   79.7160  222.7820 C   0  0  0  0  0  0  0  0  0  0  0  0
  143.6910   80.1260  223.0130 F   0  0  0  0  0  0  0  0  0  0  0  0
  142.1050   79.0190  221.6270 C   0  0  0  0  0  0  0  0  0  0  0  0
  140.1140   71.4830  223.4810 C   0  0  0  0  0  0  0  0  0  0  0  0
  139.5000   70.2490  223.4060 C   0  0  0  0  0  0  0  0  0  0  0  0
  139.3850   69.4020  224.4960 C   0  0  0  0  0  0  0  0  0  0  0  0
  139.9220   69.8530  225.6850 C   0  0  0  0  0  0  0  0  0  0  0  0
  139.8370   69.0480  226.8100 C   0  0  0  0  0  0  0  0  0  0  0  0
  140.3610   69.4650  228.0150 C   0  0  0  0  0  0  0  0  0  0  0  0
  140.2670   68.6560  229.1090 F   0  0  0  0  0  0  0  0  0  0  0  0
  140.9710   70.6930  228.0850 C   0  0  0  0  0  0  0  0  0  0  0  0
  141.0630   71.5120  226.9660 C   0  0  0  0  0  0  0  0  0  0  0  0
  140.5350   71.0990  225.7400 C   0  0  0  0  0  0  0  0  0  0  0  0
  140.6270   71.8990  224.6510 N   0  0  0  0  0  0  0  0  0  0  0  0
  139.5830   74.1580  223.1700 H   0  0  0  0  0  0  0  0  0  0  0  0
  140.5385   73.7750  220.2871 H   0  0  0  0  0  0  0  0  0  0  0  0
  138.9668   74.5536  220.5714 H   0  0  0  0  0  0  0  0  0  0  0  0
  142.6244   75.2092  219.7020 H   0  0  0  0  0  0  0  0  0  0  0  0
  141.4553   75.6692  218.3598 H   0  0  0  0  0  0  0  0  0  0  0  0
  143.8593   77.0635  219.3881 H   0  0  0  0  0  0  0  0  0  0  0  0
  143.2318   76.7452  217.6862 H   0  0  0  0  0  0  0  0  0  0  0  0
  142.9391   79.0472  219.3877 H   0  0  0  0  0  0  0  0  0  0  0  0
  142.6322   78.7846  217.6055 H   0  0  0  0  0  0  0  0  0  0  0  0
  140.6770   79.5621  218.9005 H   0  0  0  0  0  0  0  0  0  0  0  0
  140.4899   77.9735  218.0110 H   0  0  0  0  0  0  0  0  0  0  0  0
  139.4100   77.7864  220.0328 H   0  0  0  0  0  0  0  0  0  0  0  0
  138.8214   78.5515  222.1258 H   0  0  0  0  0  0  0  0  0  0  0  0
  141.6820   80.5533  224.6292 H   0  0  0  0  0  0  0  0  0  0  0  0
  142.9056   78.8076  220.9029 H   0  0  0  0  0  0  0  0  0  0  0  0
  139.0847   69.9247  222.4404 H   0  0  0  0  0  0  0  0  0  0  0  0
  138.8918   68.4218  224.4182 H   0  0  0  0  0  0  0  0  0  0  0  0
  139.3463   68.0660  226.7407 H   0  0  0  0  0  0  0  0  0  0  0  0
  141.3935   71.0339  229.0417 H   0  0  0  0  0  0  0  0  0  0  0  0
  141.5551   72.4925  227.0460 H   0  0  0  0  0  0  0  0  0  0  0  0
  1  2  2  0
  2  3  1  0
  3  4  1  0
  4  5  1  0
  5  6  2  0
  5  7  1  0
  7  8  1  0
  8  9  1  0
  9 10  1  0
 10 11  1  0
 11 12  1  0
 12 13  1  0
 13 14  2  0
 14 15  1  0
 15 16  1  0
 15 17  2  0
 17 18  1  0
 18 19  1  0
 18 20  2  0
  2 21  1  0
 21 22  2  0
 22 23  1  0
 23 24  2  0
 24 25  1  0
 25 26  2  0
 26 27  1  0
 26 28  1  0
 28 29  2  0
 29 30  1  0
 30 31  2  0
 12  7  1  0
 20 13  1  0
 31 21  1  0
 30 24  1  0
  3 32  1  0
  4 33  1  0
  4 34  1  0
  8 35  1  0
  8 36  1  0
  9 37  1  0
  9 38  1  0
 10 39  1  0
 10 40  1  0
 11 41  1  0
 11 42  1  0
 12 43  1  6
 14 44  1  0
 17 45  1  0
 20 46  1  0
 22 47  1  0
 23 48  1  0
 25 49  1  0
 28 50  1  0
 29 51  1  0
M  END
>  <smiles>  (37) 
O=C(NCC(=O)N1CCCCC1c1cc(F)cc(F)c1)c1ccc2cc(F)ccc2n1

>  <score_type>  (37) 
oracle

>  <origin>  (37) 
autodockgpu

>  <m_score__min__energy>  (37) 
-8.9000000000000004

>  <m_primary>  (37) 
energy

>  <rmsd>  (37) 
1.9219944447304378

>  <m_score__min__rmsd>  (37) 
1.9219944447304378

>  <meeko>  (37) 
{"free_energy": -8.8, "intermolecular_energy": -10.29, "internal_energy": -1.74, "cluster_size": 33, "cluster_id": 1, "rank_in_cluster": 27}

>  <energy>  (37) 
-8.32

>  <cluster_rmsd>  (37) 
0.35

>  <cluster>  (37) 
2

$$$$

     RDKit          3D

 51 54  0  0  0  0  0  0  0  0999 V2000
  140.8940   71.6800  221.3300 O   0  0  0  0  0  0  0  0  0  0  0  0
  140.3830   72.1940  222.3590 C   0  0  0  0  0  0  0  0  0  0  0  0
  139.9920   73.5630  222.2500 N   0  0  0  0  0  0  0  0  0  0  0  0
  140.2300   74.2040  220.9600 C   0  0  0  0  0  0  0  0  0  0  0  0
  140.5010   75.6380  221.2370 C   0  0  0  0  0  0  0  0  0  0  0  0
  140.3180   76.0320  222.4210 O   0  0  0  0  0  0  0  0  0  0  0  0
  140.9430   76.5010  220.1950 N   0  0  0  0  0  0  0  0  0  0  0  0
  141.9440   76.0730  219.2630 C   0  0  0  0  0  0  0  0  0  0  0  0
  142.8880   77.1410  218.8150 C   0  0  0  0  0  0  0  0  0  0  0  0
  142.3090   78.5140  218.7390 C   0  0  0  0  0  0  0  0  0  0  0  0
  140.8240   78.5460  218.9050 C   0  0  0  0  0  0  0  0  0  0  0  0
  140.3350   77.8310  220.1200 C   0  0  2  0  0  0  0  0  0  0  0  0
  140.5890   78.5540  221.3940 C   0  0  0  0  0  0  0  0  0  0  0  0
  141.8700   78.9480  221.7790 C   0  0  0  0  0  0  0  0  0  0  0  0
  142.1090   79.6190  222.9610 C   0  0  0  0  0  0  0  0  0  0  0  0
  143.3690   80.0030  223.3330 F   0  0  0  0  0  0  0  0  0  0  0  0
  141.0670   79.9290  223.8160 C   0  0  0  0  0  0  0  0  0  0  0  0
  139.7890   79.5510  223.4600 C   0  0  0  0  0  0  0  0  0  0  0  0
  138.7580   79.8450  224.2840 F   0  0  0  0  0  0  0  0  0  0  0  0
  139.5720   78.8760  222.2680 C   0  0  0  0  0  0  0  0  0  0  0  0
  140.1970   71.4440  223.5920 C   0  0  0  0  0  0  0  0  0  0  0  0
  139.5320   70.2370  223.5210 C   0  0  0  0  0  0  0  0  0  0  0  0
  139.3010   69.4440  224.6320 C   0  0  0  0  0  0  0  0  0  0  0  0
  139.7730   69.9190  225.8390 C   0  0  0  0  0  0  0  0  0  0  0  0
  139.5700   69.1680  226.9840 C   0  0  0  0  0  0  0  0  0  0  0  0
  140.0270   69.6120  228.2080 C   0  0  0  0  0  0  0  0  0  0  0  0
  139.8180   68.8550  229.3230 F   0  0  0  0  0  0  0  0  0  0  0  0
  140.6890   70.8130  228.2730 C   0  0  0  0  0  0  0  0  0  0  0  0
  140.8990   71.5780  227.1330 C   0  0  0  0  0  0  0  0  0  0  0  0
  140.4400   71.1380  225.8890 C   0  0  0  0  0  0  0  0  0  0  0  0
  140.6470   71.8860  224.7790 N   0  0  0  0  0  0  0  0  0  0  0  0
  139.5590   74.0610  223.0610 H   0  0  0  0  0  0  0  0  0  0  0  0
  141.0966   73.7440  220.4627 H   0  0  0  0  0  0  0  0  0  0  0  0
  139.3614   74.0877  220.2952 H   0  0  0  0  0  0  0  0  0  0  0  0
  142.5329   75.2743  219.7377 H   0  0  0  0  0  0  0  0  0  0  0  0
  141.4047   75.7423  218.3631 H   0  0  0  0  0  0  0  0  0  0  0  0
  143.7315   77.1666  219.5206 H   0  0  0  0  0  0  0  0  0  0  0  0
  143.1799   76.8771  217.7878 H   0  0  0  0  0  0  0  0  0  0  0  0
  142.7612   79.1267  219.5328 H   0  0  0  0  0  0  0  0  0  0  0  0
  142.5302   78.9027  217.7340 H   0  0  0  0  0  0  0  0  0  0  0  0
  140.5055   79.5969  218.9701 H   0  0  0  0  0  0  0  0  0  0  0  0
  140.3947   78.0272  218.0352 H   0  0  0  0  0  0  0  0  0  0  0  0
  139.2429   77.7626  220.0078 H   0  0  0  0  0  0  0  0  0  0  0  0
  142.7185   78.7162  221.1184 H   0  0  0  0  0  0  0  0  0  0  0  0
  141.2531   80.4648  224.7585 H   0  0  0  0  0  0  0  0  0  0  0  0
  138.5436   78.5847  222.0083 H   0  0  0  0  0  0  0  0  0  0  0  0
  139.1706   69.8907  222.5415 H   0  0  0  0  0  0  0  0  0  0  0  0
  138.7685   68.4844  224.5567 H   0  0  0  0  0  0  0  0  0  0  0  0
  139.0388   68.2071  226.9174 H   0  0  0  0  0  0  0  0  0  0  0  0
  141.0590   71.1752  229.2435 H   0  0  0  0  0  0  0  0  0  0  0  0
  141.4309   72.5378  227.2102 H   0  0  0  0  0  0  0  0  0  0  0  0
  1  2  2  0
  2  3  1  0
  3  4  1  0
  4  5  1  0
  5  6  2  0
  5  7  1  0
  7  8  1  0
  8  9  1  0
  9 10  1  0
 10 11  1  0
 11 12  1  0
 12 13  1  0
 13 14  2  0
 14 15  1  0
 15 16  1  0
 15 17  2  0
 17 18  1  0
 18 19  1  0
 18 20  2  0
  2 21  1  0
 21 22  2  0
 22 23  1  0
 23 24  2  0
 24 25  1  0
 25 26  2  0
 26 27  1  0
 26 28  1  0
 28 29  2  0
 29 30  1  0
 30 31  2  0
 12  7  1  0
 20 13  1  0
 31 21  1  0
 30 24  1  0
  3 32  1  0
  4 33  1  0
  4 34  1  0
  8 35  1  0
  8 36  1  0
  9 37  1  0
  9 38  1  0
 10 39  1  0
 10 40  1  0
 11 41  1  0
 11 42  1  0
 12 43  1  6
 14 44  1  0
 17 45  1  0
 20 46  1  0
 22 47  1  0
 23 48  1  0
 25 49  1  0
 28 50  1  0
 29 51  1  0
M  END
>  <smiles>  (38) 
O=C(NCC(=O)N1CCCCC1c1cc(F)cc(F)c1)c1ccc2cc(F)ccc2n1

>  <score_type>  (38) 
oracle

>  <origin>  (38) 
autodockgpu

>  <m_score__min__energy>  (38) 
-8.9000000000000004

>  <m_primary>  (38) 
energy

>  <rmsd>  (38) 
1.9935201397177535

>  <m_score__min__rmsd>  (38) 
1.9935201397177535

>  <meeko>  (38) 
{"free_energy": -8.73, "intermolecular_energy": -10.22, "internal_energy": -1.76, "cluster_size": 33, "cluster_id": 1, "rank_in_cluster": 29}

>  <energy>  (38) 
-8.29

>  <cluster_rmsd>  (38) 
0.41

>  <cluster>  (38) 
2

$$$$

     RDKit          3D

 51 54  0  0  0  0  0  0  0  0999 V2000
  140.6350   71.7570  221.1370 O   0  0  0  0  0  0  0  0  0  0  0  0
  140.1320   72.2040  222.2010 C   0  0  0  0  0  0  0  0  0  0  0  0
  139.5980   73.5270  222.1370 N   0  0  0  0  0  0  0  0  0  0  0  0
  139.6980   74.2040  220.8470 C   0  0  0  0  0  0  0  0  0  0  0  0
  140.7590   75.2350  220.9850 C   0  0  0  0  0  0  0  0  0  0  0  0
  141.0910   75.5540  222.1590 O   0  0  0  0  0  0  0  0  0  0  0  0
  141.3510   75.8170  219.8290 N   0  0  0  0  0  0  0  0  0  0  0  0
  140.5490   76.1710  218.6940 C   0  0  0  0  0  0  0  0  0  0  0  0
  141.2090   75.9700  217.3690 C   0  0  0  0  0  0  0  0  0  0  0  0
  142.6880   76.1700  217.3540 C   0  0  0  0  0  0  0  0  0  0  0  0
  143.2220   76.7600  218.6190 C   0  0  0  0  0  0  0  0  0  0  0  0
  142.7980   76.0350  219.8520 C   0  0  2  0  0  0  0  0  0  0  0  0
  143.4830   74.7310  220.0580 C   0  0  0  0  0  0  0  0  0  0  0  0
  142.8710   73.5170  219.7490 C   0  0  0  0  0  0  0  0  0  0  0  0
  143.5030   72.3060  219.9390 C   0  0  0  0  0  0  0  0  0  0  0  0
  142.8970   71.1180  219.6330 F   0  0  0  0  0  0  0  0  0  0  0  0
  144.7880   72.2560  220.4500 C   0  0  0  0  0  0  0  0  0  0  0  0
  145.4160   73.4430  220.7650 C   0  0  0  0  0  0  0  0  0  0  0  0
  146.6720   73.4140  221.2660 F   0  0  0  0  0  0  0  0  0  0  0  0
  144.7620   74.6490  220.5670 C   0  0  0  0  0  0  0  0  0  0  0  0
  140.0930   71.4250  223.4300 C   0  0  0  0  0  0  0  0  0  0  0  0
  139.5220   70.1690  223.3810 C   0  0  0  0  0  0  0  0  0  0  0  0
  139.4320   69.3440  224.4890 C   0  0  0  0  0  0  0  0  0  0  0  0
  139.9470   69.8400  225.6700 C   0  0  0  0  0  0  0  0  0  0  0  0
  139.8850   69.0590  226.8120 C   0  0  0  0  0  0  0  0  0  0  0  0
  140.3890   69.5220  228.0100 C   0  0  0  0  0  0  0  0  0  0  0  0
  140.3180   68.7350  229.1220 F   0  0  0  0  0  0  0  0  0  0  0  0
  140.9560   70.7710  228.0540 C   0  0  0  0  0  0  0  0  0  0  0  0
  141.0250   71.5670  226.9170 C   0  0  0  0  0  0  0  0  0  0  0  0
  140.5170   71.1080  225.6980 C   0  0  0  0  0  0  0  0  0  0  0  0
  140.5860   71.8850  224.5910 N   0  0  0  0  0  0  0  0  0  0  0  0
  139.1630   73.9680  222.9780 H   0  0  0  0  0  0  0  0  0  0  0  0
  139.9697   73.4837  220.0613 H   0  0  0  0  0  0  0  0  0  0  0  0
  138.7378   74.6607  220.5652 H   0  0  0  0  0  0  0  0  0  0  0  0
  139.6355   75.5586  218.7169 H   0  0  0  0  0  0  0  0  0  0  0  0
  140.3528   77.2499  218.7799 H   0  0  0  0  0  0  0  0  0  0  0  0
  141.0022   74.9411  217.0394 H   0  0  0  0  0  0  0  0  0  0  0  0
  140.7922   76.7396  216.7027 H   0  0  0  0  0  0  0  0  0  0  0  0
  143.1698   75.1941  217.1943 H   0  0  0  0  0  0  0  0  0  0  0  0
  142.9103   76.8820  216.5455 H   0  0  0  0  0  0  0  0  0  0  0  0
  144.3208   76.7466  218.5703 H   0  0  0  0  0  0  0  0  0  0  0  0
  142.8141   77.7790  218.6924 H   0  0  0  0  0  0  0  0  0  0  0  0
  143.0897   76.6805  220.6936 H   0  0  0  0  0  0  0  0  0  0  0  0
  141.8499   73.5253  219.3400 H   0  0  0  0  0  0  0  0  0  0  0  0
  145.2966   71.2925  220.6014 H   0  0  0  0  0  0  0  0  0  0  0  0
  145.2857   75.5807  220.8271 H   0  0  0  0  0  0  0  0  0  0  0  0
  139.1219   69.8088  222.4217 H   0  0  0  0  0  0  0  0  0  0  0  0
  138.9741   68.3455  224.4314 H   0  0  0  0  0  0  0  0  0  0  0  0
  139.4291   68.0591  226.7634 H   0  0  0  0  0  0  0  0  0  0  0  0
  141.3622   71.1480  229.0042 H   0  0  0  0  0  0  0  0  0  0  0  0
  141.4826   72.5655  226.9765 H   0  0  0  0  0  0  0  0  0  0  0  0
  1  2  2  0
  2  3  1  0
  3  4  1  0
  4  5  1  0
  5  6  2  0
  5  7  1  0
  7  8  1  0
  8  9  1  0
  9 10  1  0
 10 11  1  0
 11 12  1  0
 12 13  1  0
 13 14  2  0
 14 15  1  0
 15 16  1  0
 15 17  2  0
 17 18  1  0
 18 19  1  0
 18 20  2  0
  2 21  1  0
 21 22  2  0
 22 23  1  0
 23 24  2  0
 24 25  1  0
 25 26  2  0
 26 27  1  0
 26 28  1  0
 28 29  2  0
 29 30  1  0
 30 31  2  0
 12  7  1  0
 20 13  1  0
 31 21  1  0
 30 24  1  0
  3 32  1  0
  4 33  1  0
  4 34  1  0
  8 35  1  0
  8 36  1  0
  9 37  1  0
  9 38  1  0
 10 39  1  0
 10 40  1  0
 11 41  1  0
 11 42  1  0
 12 43  1  1
 14 44  1  0
 17 45  1  0
 20 46  1  0
 22 47  1  0
 23 48  1  0
 25 49  1  0
 28 50  1  0
 29 51  1  0
M  END
>  <smiles>  (39) 
O=C(NCC(=O)N1CCCCC1c1cc(F)cc(F)c1)c1ccc2cc(F)ccc2n1

>  <score_type>  (39) 
oracle

>  <origin>  (39) 
autodockgpu

>  <m_score__min__energy>  (39) 
-8.9000000000000004

>  <m_primary>  (39) 
energy

>  <rmsd>  (39) 
1.6551038735040395

>  <m_score__min__rmsd>  (39) 
1.6551038735040395

>  <meeko>  (39) 
{"free_energy": -8.36, "intermolecular_energy": -9.85, "internal_energy": -1.8, "cluster_size": 12, "cluster_id": 2, "rank_in_cluster": 2}

>  <energy>  (39) 
-8.28

>  <cluster_rmsd>  (39) 
0.39

>  <cluster>  (39) 
2

$$$$

     RDKit          3D

 51 54  0  0  0  0  0  0  0  0999 V2000
  140.4080   71.8120  221.1720 O   0  0  0  0  0  0  0  0  0  0  0  0
  140.1170   72.2850  222.3010 C   0  0  0  0  0  0  0  0  0  0  0  0
  139.8170   73.6810  222.3400 N   0  0  0  0  0  0  0  0  0  0  0  0
  139.8850   74.3930  221.0680 C   0  0  0  0  0  0  0  0  0  0  0  0
  140.5730   75.6830  221.3330 C   0  0  0  0  0  0  0  0  0  0  0  0
  140.6960   76.0220  222.5420 O   0  0  0  0  0  0  0  0  0  0  0  0
  141.0590   76.4750  220.2550 N   0  0  0  0  0  0  0  0  0  0  0  0
  142.0160   75.9450  219.3290 C   0  0  0  0  0  0  0  0  0  0  0  0
  143.0240   76.9280  218.8310 C   0  0  0  0  0  0  0  0  0  0  0  0
  142.5390   78.3350  218.7100 C   0  0  0  0  0  0  0  0  0  0  0  0
  141.0620   78.4740  218.8910 C   0  0  0  0  0  0  0  0  0  0  0  0
  140.5420   77.8390  220.1370 C   0  0  2  0  0  0  0  0  0  0  0  0
  140.8620   78.5890  221.3810 C   0  0  0  0  0  0  0  0  0  0  0  0
  142.1560   79.0180  221.6750 C   0  0  0  0  0  0  0  0  0  0  0  0
  142.4560   79.7140  222.8280 C   0  0  0  0  0  0  0  0  0  0  0  0
  143.7280   80.1320  223.1100 F   0  0  0  0  0  0  0  0  0  0  0  0
  141.4650   80.0150  223.7450 C   0  0  0  0  0  0  0  0  0  0  0  0
  140.1760   79.6030  223.4790 C   0  0  0  0  0  0  0  0  0  0  0  0
  139.1940   79.8870  224.3650 F   0  0  0  0  0  0  0  0  0  0  0  0
  139.8970   78.9030  222.3150 C   0  0  0  0  0  0  0  0  0  0  0  0
  140.0830   71.4650  223.5030 C   0  0  0  0  0  0  0  0  0  0  0  0
  139.5060   70.2140  223.4160 C   0  0  0  0  0  0  0  0  0  0  0  0
  139.4210   69.3520  224.4970 C   0  0  0  0  0  0  0  0  0  0  0  0
  139.9490   69.8060  225.6890 C   0  0  0  0  0  0  0  0  0  0  0  0
  139.8920   68.9860  226.8050 C   0  0  0  0  0  0  0  0  0  0  0  0
  140.4080   69.4060  228.0130 C   0  0  0  0  0  0  0  0  0  0  0  0
  140.3420   68.5820  229.0990 F   0  0  0  0  0  0  0  0  0  0  0  0
  140.9810   70.6500  228.0950 C   0  0  0  0  0  0  0  0  0  0  0  0
  141.0450   71.4840  226.9850 C   0  0  0  0  0  0  0  0  0  0  0  0
  140.5240   71.0690  225.7560 C   0  0  0  0  0  0  0  0  0  0  0  0
  140.5890   71.8830  224.6760 N   0  0  0  0  0  0  0  0  0  0  0  0
  139.5650   74.1480  223.2410 H   0  0  0  0  0  0  0  0  0  0  0  0
  140.4549   73.8038  220.3345 H   0  0  0  0  0  0  0  0  0  0  0  0
  138.8790   74.5602  220.6556 H   0  0  0  0  0  0  0  0  0  0  0  0
  142.5554   75.1259  219.8271 H   0  0  0  0  0  0  0  0  0  0  0  0
  141.4434   75.6189  218.4482 H   0  0  0  0  0  0  0  0  0  0  0  0
  143.8769   76.9213  219.5256 H   0  0  0  0  0  0  0  0  0  0  0  0
  143.2829   76.6073  217.8111 H   0  0  0  0  0  0  0  0  0  0  0  0
  143.0424   78.9439  219.4754 H   0  0  0  0  0  0  0  0  0  0  0  0
  142.7730   78.6713  217.6891 H   0  0  0  0  0  0  0  0  0  0  0  0
  140.8162   79.5458  218.9202 H   0  0  0  0  0  0  0  0  0  0  0  0
  140.5870   77.9540  218.0461 H   0  0  0  0  0  0  0  0  0  0  0  0
  139.4464   77.8416  220.0392 H   0  0  0  0  0  0  0  0  0  0  0  0
  142.9647   78.7940  220.9638 H   0  0  0  0  0  0  0  0  0  0  0  0
  141.6997   80.5702  224.6652 H   0  0  0  0  0  0  0  0  0  0  0  0
  138.8609   78.5842  222.1284 H   0  0  0  0  0  0  0  0  0  0  0  0
  139.0968   69.8882  222.4483 H   0  0  0  0  0  0  0  0  0  0  0  0
  138.9573   68.3583  224.4102 H   0  0  0  0  0  0  0  0  0  0  0  0
  139.4307   67.9905  226.7264 H   0  0  0  0  0  0  0  0  0  0  0  0
  141.3962   70.9926  229.0543 H   0  0  0  0  0  0  0  0  0  0  0  0
  141.5088   72.4774  227.0742 H   0  0  0  0  0  0  0  0  0  0  0  0
  1  2  2  0
  2  3  1  0
  3  4  1  0
  4  5  1  0
  5  6  2  0
  5  7  1  0
  7  8  1  0
  8  9  1  0
  9 10  1  0
 10 11  1  0
 11 12  1  0
 12 13  1  0
 13 14  2  0
 14 15  1  0
 15 16  1  0
 15 17  2  0
 17 18  1  0
 18 19  1  0
 18 20  2  0
  2 21  1  0
 21 22  2  0
 22 23  1  0
 23 24  2  0
 24 25  1  0
 25 26  2  0
 26 27  1  0
 26 28  1  0
 28 29  2  0
 29 30  1  0
 30 31  2  0
 12  7  1  0
 20 13  1  0
 31 21  1  0
 30 24  1  0
  3 32  1  0
  4 33  1  0
  4 34  1  0
  8 35  1  0
  8 36  1  0
  9 37  1  0
  9 38  1  0
 10 39  1  0
 10 40  1  0
 11 41  1  0
 11 42  1  0
 12 43  1  6
 14 44  1  0
 17 45  1  0
 20 46  1  0
 22 47  1  0
 23 48  1  0
 25 49  1  0
 28 50  1  0
 29 51  1  0
M  END
>  <smiles>  (40) 
O=C(NCC(=O)N1CCCCC1c1cc(F)cc(F)c1)c1ccc2cc(F)ccc2n1

>  <score_type>  (40) 
oracle

>  <origin>  (40) 
autodockgpu

>  <m_score__min__energy>  (40) 
-8.9000000000000004

>  <m_primary>  (40) 
energy

>  <rmsd>  (40) 
1.9067037910310989

>  <m_score__min__rmsd>  (40) 
1.9067037910310989

>  <meeko>  (40) 
{"free_energy": -8.84, "intermolecular_energy": -10.33, "internal_energy": -1.74, "cluster_size": 33, "cluster_id": 1, "rank_in_cluster": 22}

>  <energy>  (40) 
-8.26

>  <cluster_rmsd>  (40) 
0.4

>  <cluster>  (40) 
2

$$$$

     RDKit          3D

 51 54  0  0  0  0  0  0  0  0999 V2000
  140.2120   71.5230  221.1810 O   0  0  0  0  0  0  0  0  0  0  0  0
  139.9990   72.0040  222.3250 C   0  0  0  0  0  0  0  0  0  0  0  0
  139.7620   73.4120  222.3810 N   0  0  0  0  0  0  0  0  0  0  0  0
  139.7950   74.1250  221.1070 C   0  0  0  0  0  0  0  0  0  0  0  0
  140.3230   75.4840  221.3900 C   0  0  0  0  0  0  0  0  0  0  0  0
  140.2170   75.8980  222.5770 O   0  0  0  0  0  0  0  0  0  0  0  0
  140.9140   76.2570  220.3520 N   0  0  0  0  0  0  0  0  0  0  0  0
  141.9530   75.7090  219.5300 C   0  0  0  0  0  0  0  0  0  0  0  0
  143.0090   76.6810  219.1160 C   0  0  0  0  0  0  0  0  0  0  0  0
  142.5460   78.0870  218.9280 C   0  0  0  0  0  0  0  0  0  0  0  0
  141.0590   78.2350  218.9640 C   0  0  0  0  0  0  0  0  0  0  0  0
  140.4190   77.6220  220.1640 C   0  0  2  0  0  0  0  0  0  0  0  0
  140.6210   78.3900  221.4210 C   0  0  0  0  0  0  0  0  0  0  0  0
  141.8870   78.7960  221.8440 C   0  0  0  0  0  0  0  0  0  0  0  0
  142.0780   79.5090  223.0090 C   0  0  0  0  0  0  0  0  0  0  0  0
  143.3230   79.9060  223.4180 F   0  0  0  0  0  0  0  0  0  0  0  0
  141.0030   79.8500  223.8090 C   0  0  0  0  0  0  0  0  0  0  0  0
  139.7400   79.4610  223.4150 C   0  0  0  0  0  0  0  0  0  0  0  0
  138.6770   79.7840  224.1850 F   0  0  0  0  0  0  0  0  0  0  0  0
  139.5700   78.7440  222.2410 C   0  0  0  0  0  0  0  0  0  0  0  0
  139.9910   71.1820  223.5250 C   0  0  0  0  0  0  0  0  0  0  0  0
  139.3950   69.9390  223.4540 C   0  0  0  0  0  0  0  0  0  0  0  0
  139.3320   69.0760  224.5350 C   0  0  0  0  0  0  0  0  0  0  0  0
  139.9010   69.5200  225.7120 C   0  0  0  0  0  0  0  0  0  0  0  0
  139.8680   68.6990  226.8270 C   0  0  0  0  0  0  0  0  0  0  0  0
  140.4260   69.1090  228.0200 C   0  0  0  0  0  0  0  0  0  0  0  0
  140.3820   68.2840  229.1050 F   0  0  0  0  0  0  0  0  0  0  0  0
  141.0170   70.3460  228.0860 C   0  0  0  0  0  0  0  0  0  0  0  0
  141.0580   71.1800  226.9760 C   0  0  0  0  0  0  0  0  0  0  0  0
  140.4950   70.7750  225.7630 C   0  0  0  0  0  0  0  0  0  0  0  0
  140.5370   71.5910  224.6830 N   0  0  0  0  0  0  0  0  0  0  0  0
  139.5760   73.8860  223.2930 H   0  0  0  0  0  0  0  0  0  0  0  0
  140.4539   73.6028  220.3976 H   0  0  0  0  0  0  0  0  0  0  0  0
  138.7925   74.1766  220.6572 H   0  0  0  0  0  0  0  0  0  0  0  0
  142.4382   74.8960  220.0900 H   0  0  0  0  0  0  0  0  0  0  0  0
  141.4660   75.3709  218.6034 H   0  0  0  0  0  0  0  0  0  0  0  0
  143.7915   76.6818  219.8891 H   0  0  0  0  0  0  0  0  0  0  0  0
  143.3620   76.3436  218.1303 H   0  0  0  0  0  0  0  0  0  0  0  0
  142.9769   78.7055  219.7291 H   0  0  0  0  0  0  0  0  0  0  0  0
  142.8788   78.4064  217.9294 H   0  0  0  0  0  0  0  0  0  0  0  0
  140.8175   79.3081  218.9529 H   0  0  0  0  0  0  0  0  0  0  0  0
  140.6641   77.7039  218.0854 H   0  0  0  0  0  0  0  0  0  0  0  0
  139.3379   77.6278  219.9612 H   0  0  0  0  0  0  0  0  0  0  0  0
  142.7614   78.5390  221.2281 H   0  0  0  0  0  0  0  0  0  0  0  0
  141.1519   80.4187  224.7387 H   0  0  0  0  0  0  0  0  0  0  0  0
  138.5523   78.4442  221.9506 H   0  0  0  0  0  0  0  0  0  0  0  0
  138.9517   69.6208  222.4989 H   0  0  0  0  0  0  0  0  0  0  0  0
  138.8536   68.0883  224.4600 H   0  0  0  0  0  0  0  0  0  0  0  0
  139.3918   67.7096  226.7605 H   0  0  0  0  0  0  0  0  0  0  0  0
  141.4652   70.6821  229.0327 H   0  0  0  0  0  0  0  0  0  0  0  0
  141.5375   72.1671  227.0525 H   0  0  0  0  0  0  0  0  0  0  0  0
  1  2  2  0
  2  3  1  0
  3  4  1  0
  4  5  1  0
  5  6  2  0
  5  7  1  0
  7  8  1  0
  8  9  1  0
  9 10  1  0
 10 11  1  0
 11 12  1  0
 12 13  1  0
 13 14  2  0
 14 15  1  0
 15 16  1  0
 15 17  2  0
 17 18  1  0
 18 19  1  0
 18 20  2  0
  2 21  1  0
 21 22  2  0
 22 23  1  0
 23 24  2  0
 24 25  1  0
 25 26  2  0
 26 27  1  0
 26 28  1  0
 28 29  2  0
 29 30  1  0
 30 31  2  0
 12  7  1  0
 20 13  1  0
 31 21  1  0
 30 24  1  0
  3 32  1  0
  4 33  1  0
  4 34  1  0
  8 35  1  0
  8 36  1  0
  9 37  1  0
  9 38  1  0
 10 39  1  0
 10 40  1  0
 11 41  1  0
 11 42  1  0
 12 43  1  6
 14 44  1  0
 17 45  1  0
 20 46  1  0
 22 47  1  0
 23 48  1  0
 25 49  1  0
 28 50  1  0
 29 51  1  0
M  END
>  <smiles>  (41) 
O=C(NCC(=O)N1CCCCC1c1cc(F)cc(F)c1)c1ccc2cc(F)ccc2n1

>  <score_type>  (41) 
oracle

>  <origin>  (41) 
autodockgpu

>  <m_score__min__energy>  (41) 
-8.9000000000000004

>  <m_primary>  (41) 
energy

>  <rmsd>  (41) 
1.8186422242215683

>  <m_score__min__rmsd>  (41) 
1.8186422242215683

>  <meeko>  (41) 
{"free_energy": -8.72, "intermolecular_energy": -10.21, "internal_energy": -1.79, "cluster_size": 33, "cluster_id": 1, "rank_in_cluster": 30}

>  <energy>  (41) 
-8.19

>  <cluster_rmsd>  (41) 
0.49

>  <cluster>  (41) 
2

$$$$

     RDKit          3D

 51 54  0  0  0  0  0  0  0  0999 V2000
  140.8000   71.6310  221.0580 O   0  0  0  0  0  0  0  0  0  0  0  0
  140.2320   72.1160  222.0710 C   0  0  0  0  0  0  0  0  0  0  0  0
  139.7090   73.4380  221.9270 N   0  0  0  0  0  0  0  0  0  0  0  0
  139.8950   74.0690  220.6230 C   0  0  0  0  0  0  0  0  0  0  0  0
  140.8240   75.2100  220.8270 C   0  0  0  0  0  0  0  0  0  0  0  0
  141.0360   75.5630  222.0200 O   0  0  0  0  0  0  0  0  0  0  0  0
  141.4290   75.8540  219.7120 N   0  0  0  0  0  0  0  0  0  0  0  0
  140.6420   76.2660  218.5870 C   0  0  0  0  0  0  0  0  0  0  0  0
  141.3190   76.1360  217.2620 C   0  0  0  0  0  0  0  0  0  0  0  0
  142.7970   76.3400  217.2770 C   0  0  0  0  0  0  0  0  0  0  0  0
  143.3140   76.8630  218.5770 C   0  0  0  0  0  0  0  0  0  0  0  0
  142.8750   76.0730  219.7650 C   0  0  2  0  0  0  0  0  0  0  0  0
  143.5620   74.7620  219.9110 C   0  0  0  0  0  0  0  0  0  0  0  0
  142.9750   73.5690  219.4890 C   0  0  0  0  0  0  0  0  0  0  0  0
  143.6080   72.3510  219.6220 C   0  0  0  0  0  0  0  0  0  0  0  0
  143.0270   71.1840  219.2050 F   0  0  0  0  0  0  0  0  0  0  0  0
  144.8680   72.2720  220.1880 C   0  0  0  0  0  0  0  0  0  0  0  0
  145.4710   73.4370  220.6140 C   0  0  0  0  0  0  0  0  0  0  0  0
  146.7030   73.3790  221.1710 F   0  0  0  0  0  0  0  0  0  0  0  0
  144.8160   74.6500  220.4720 C   0  0  0  0  0  0  0  0  0  0  0  0
  140.1100   71.3810  223.3200 C   0  0  0  0  0  0  0  0  0  0  0  0
  139.4710   70.1580  223.2910 C   0  0  0  0  0  0  0  0  0  0  0  0
  139.3000   69.3760  224.4210 C   0  0  0  0  0  0  0  0  0  0  0  0
  139.8050   69.8800  225.6020 C   0  0  0  0  0  0  0  0  0  0  0  0
  139.6630   69.1410  226.7650 C   0  0  0  0  0  0  0  0  0  0  0  0
  140.1540   69.6130  227.9640 C   0  0  0  0  0  0  0  0  0  0  0  0
  140.0030   68.8680  229.0970 F   0  0  0  0  0  0  0  0  0  0  0  0
  140.7890   70.8300  227.9880 C   0  0  0  0  0  0  0  0  0  0  0  0
  140.9390   71.5830  226.8310 C   0  0  0  0  0  0  0  0  0  0  0  0
  140.4440   71.1140  225.6110 C   0  0  0  0  0  0  0  0  0  0  0  0
  140.5920   71.8510  224.4840 N   0  0  0  0  0  0  0  0  0  0  0  0
  139.2230   73.9090  222.7220 H   0  0  0  0  0  0  0  0  0  0  0  0
  140.3288   73.3498  219.9127 H   0  0  0  0  0  0  0  0  0  0  0  0
  138.9348   74.4109  220.2094 H   0  0  0  0  0  0  0  0  0  0  0  0
  139.7294   75.6522  218.5657 H   0  0  0  0  0  0  0  0  0  0  0  0
  140.4433   77.3388  218.7270 H   0  0  0  0  0  0  0  0  0  0  0  0
  141.1196   75.1253  216.8765 H   0  0  0  0  0  0  0  0  0  0  0  0
  140.9082   76.9381  216.6312 H   0  0  0  0  0  0  0  0  0  0  0  0
  143.2836   75.3750  217.0719 H   0  0  0  0  0  0  0  0  0  0  0  0
  143.0268   77.0949  216.5106 H   0  0  0  0  0  0  0  0  0  0  0  0
  144.4134   76.8530  218.5416 H   0  0  0  0  0  0  0  0  0  0  0  0
  142.9042   77.8765  218.6987 H   0  0  0  0  0  0  0  0  0  0  0  0
  143.1528   76.6738  220.6436 H   0  0  0  0  0  0  0  0  0  0  0  0
  141.9736   73.6008  219.0349 H   0  0  0  0  0  0  0  0  0  0  0  0
  145.3769   71.3028  220.2957 H   0  0  0  0  0  0  0  0  0  0  0  0
  145.3189   75.5634  220.8224 H   0  0  0  0  0  0  0  0  0  0  0  0
  139.0815   69.7892  222.3307 H   0  0  0  0  0  0  0  0  0  0  0  0
  138.7880   68.4033  224.3792 H   0  0  0  0  0  0  0  0  0  0  0  0
  139.1530   68.1670  226.7317 H   0  0  0  0  0  0  0  0  0  0  0  0
  141.1854   71.2148  228.9392 H   0  0  0  0  0  0  0  0  0  0  0  0
  141.4510   72.5556  226.8749 H   0  0  0  0  0  0  0  0  0  0  0  0
  1  2  2  0
  2  3  1  0
  3  4  1  0
  4  5  1  0
  5  6  2  0
  5  7  1  0
  7  8  1  0
  8  9  1  0
  9 10  1  0
 10 11  1  0
 11 12  1  0
 12 13  1  0
 13 14  2  0
 14 15  1  0
 15 16  1  0
 15 17  2  0
 17 18  1  0
 18 19  1  0
 18 20  2  0
  2 21  1  0
 21 22  2  0
 22 23  1  0
 23 24  2  0
 24 25  1  0
 25 26  2  0
 26 27  1  0
 26 28  1  0
 28 29  2  0
 29 30  1  0
 30 31  2  0
 12  7  1  0
 20 13  1  0
 31 21  1  0
 30 24  1  0
  3 32  1  0
  4 33  1  0
  4 34  1  0
  8 35  1  0
  8 36  1  0
  9 37  1  0
  9 38  1  0
 10 39  1  0
 10 40  1  0
 11 41  1  0
 11 42  1  0
 12 43  1  1
 14 44  1  0
 17 45  1  0
 20 46  1  0
 22 47  1  0
 23 48  1  0
 25 49  1  0
 28 50  1  0
 29 51  1  0
M  END
>  <smiles>  (42) 
O=C(NCC(=O)N1CCCCC1c1cc(F)cc(F)c1)c1ccc2cc(F)ccc2n1

>  <score_type>  (42) 
oracle

>  <origin>  (42) 
autodockgpu

>  <m_score__min__energy>  (42) 
-8.9000000000000004

>  <m_primary>  (42) 
energy

>  <rmsd>  (42) 
1.723525073650713

>  <m_score__min__rmsd>  (42) 
1.723525073650713

>  <meeko>  (42) 
{"free_energy": -8.32, "intermolecular_energy": -9.81, "internal_energy": -1.81, "cluster_size": 12, "cluster_id": 2, "rank_in_cluster": 4}

>  <energy>  (42) 
-8.13

>  <cluster_rmsd>  (42) 
0.82

>  <cluster>  (42) 
2

$$$$

     RDKit          3D

 51 54  0  0  0  0  0  0  0  0999 V2000
  140.6030   71.1110  221.3120 O   0  0  0  0  0  0  0  0  0  0  0  0
  140.2170   71.6750  222.3700 C   0  0  0  0  0  0  0  0  0  0  0  0
  139.9090   73.0660  222.2640 N   0  0  0  0  0  0  0  0  0  0  0  0
  140.0790   73.6680  220.9440 C   0  0  0  0  0  0  0  0  0  0  0  0
  140.7150   74.9930  221.1570 C   0  0  0  0  0  0  0  0  0  0  0  0
  140.7140   75.4410  222.3360 O   0  0  0  0  0  0  0  0  0  0  0  0
  141.2880   75.7000  220.0620 N   0  0  0  0  0  0  0  0  0  0  0  0
  140.4690   76.1720  218.9850 C   0  0  0  0  0  0  0  0  0  0  0  0
  141.1080   76.1190  217.6360 C   0  0  0  0  0  0  0  0  0  0  0  0
  142.5860   76.3240  217.6210 C   0  0  0  0  0  0  0  0  0  0  0  0
  143.1400   76.7750  218.9330 C   0  0  0  0  0  0  0  0  0  0  0  0
  142.7350   75.9190  220.0870 C   0  0  2  0  0  0  0  0  0  0  0  0
  143.4260   74.6030  220.1390 C   0  0  0  0  0  0  0  0  0  0  0  0
  144.6430   74.4330  220.7980 C   0  0  0  0  0  0  0  0  0  0  0  0
  145.2870   73.2140  220.8490 C   0  0  0  0  0  0  0  0  0  0  0  0
  146.4810   73.0530  221.4970 F   0  0  0  0  0  0  0  0  0  0  0  0
  144.7350   72.1020  220.2380 C   0  0  0  0  0  0  0  0  0  0  0  0
  143.5320   72.2420  219.5800 C   0  0  0  0  0  0  0  0  0  0  0  0
  142.9770   71.1660  218.9760 F   0  0  0  0  0  0  0  0  0  0  0  0
  142.9020   73.4770  219.5400 C   0  0  0  0  0  0  0  0  0  0  0  0
  140.0870   70.9600  223.6300 C   0  0  0  0  0  0  0  0  0  0  0  0
  139.4480   69.7360  223.6170 C   0  0  0  0  0  0  0  0  0  0  0  0
  139.2700   68.9720  224.7580 C   0  0  0  0  0  0  0  0  0  0  0  0
  139.7680   69.4960  225.9340 C   0  0  0  0  0  0  0  0  0  0  0  0
  139.6190   68.7750  227.1080 C   0  0  0  0  0  0  0  0  0  0  0  0
  140.1030   69.2670  228.3020 C   0  0  0  0  0  0  0  0  0  0  0  0
  139.9460   68.5410  229.4450 F   0  0  0  0  0  0  0  0  0  0  0  0
  140.7380   70.4840  228.3100 C   0  0  0  0  0  0  0  0  0  0  0  0
  140.8950   71.2190  227.1410 C   0  0  0  0  0  0  0  0  0  0  0  0
  140.4070   70.7300  225.9260 C   0  0  0  0  0  0  0  0  0  0  0  0
  140.5620   71.4480  224.7880 N   0  0  0  0  0  0  0  0  0  0  0  0
  139.5810   73.6050  223.0970 H   0  0  0  0  0  0  0  0  0  0  0  0
  140.7246   73.0339  220.3186 H   0  0  0  0  0  0  0  0  0  0  0  0
  139.1124   73.7716  220.4293 H   0  0  0  0  0  0  0  0  0  0  0  0
  139.5572   75.5575  218.9550 H   0  0  0  0  0  0  0  0  0  0  0  0
  140.2729   77.2346  219.1908 H   0  0  0  0  0  0  0  0  0  0  0  0
  140.8976   75.1317  217.1990 H   0  0  0  0  0  0  0  0  0  0  0  0
  140.6795   76.9551  217.0639 H   0  0  0  0  0  0  0  0  0  0  0  0
  143.0664   75.3725  217.3491 H   0  0  0  0  0  0  0  0  0  0  0  0
  142.7940   77.1208  216.8917 H   0  0  0  0  0  0  0  0  0  0  0  0
  144.2379   76.7690  218.8658 H   0  0  0  0  0  0  0  0  0  0  0  0
  142.7340   77.7796  219.1227 H   0  0  0  0  0  0  0  0  0  0  0  0
  143.0371   76.4701  220.9898 H   0  0  0  0  0  0  0  0  0  0  0  0
  145.1049   75.2996  221.2937 H   0  0  0  0  0  0  0  0  0  0  0  0
  145.2448   71.1280  220.2765 H   0  0  0  0  0  0  0  0  0  0  0  0
  141.9432   73.5618  219.0076 H   0  0  0  0  0  0  0  0  0  0  0  0
  139.0644   69.3519  222.6603 H   0  0  0  0  0  0  0  0  0  0  0  0
  138.7586   67.9986  224.7289 H   0  0  0  0  0  0  0  0  0  0  0  0
  139.1095   67.8003  227.0873 H   0  0  0  0  0  0  0  0  0  0  0  0
  141.1290   70.8840  229.2572 H   0  0  0  0  0  0  0  0  0  0  0  0
  141.4068   72.1922  227.1722 H   0  0  0  0  0  0  0  0  0  0  0  0
  1  2  2  0
  2  3  1  0
  3  4  1  0
  4  5  1  0
  5  6  2  0
  5  7  1  0
  7  8  1  0
  8  9  1  0
  9 10  1  0
 10 11  1  0
 11 12  1  0
 12 13  1  0
 13 14  2  0
 14 15  1  0
 15 16  1  0
 15 17  2  0
 17 18  1  0
 18 19  1  0
 18 20  2  0
  2 21  1  0
 21 22  2  0
 22 23  1  0
 23 24  2  0
 24 25  1  0
 25 26  2  0
 26 27  1  0
 26 28  1  0
 28 29  2  0
 29 30  1  0
 30 31  2  0
 12  7  1  0
 20 13  1  0
 31 21  1  0
 30 24  1  0
  3 32  1  0
  4 33  1  0
  4 34  1  0
  8 35  1  0
  8 36  1  0
  9 37  1  0
  9 38  1  0
 10 39  1  0
 10 40  1  0
 11 41  1  0
 11 42  1  0
 12 43  1  1
 14 44  1  0
 17 45  1  0
 20 46  1  0
 22 47  1  0
 23 48  1  0
 25 49  1  0
 28 50  1  0
 29 51  1  0
M  END
>  <smiles>  (43) 
O=C(NCC(=O)N1CCCCC1c1cc(F)cc(F)c1)c1ccc2cc(F)ccc2n1

>  <score_type>  (43) 
oracle

>  <origin>  (43) 
autodockgpu

>  <m_score__min__energy>  (43) 
-8.9000000000000004

>  <m_primary>  (43) 
energy

>  <rmsd>  (43) 
1.6692748044761896

>  <m_score__min__rmsd>  (43) 
1.6692748044761896

>  <meeko>  (43) 
{"free_energy": -8.09, "intermolecular_energy": -9.58, "internal_energy": -2.06, "cluster_size": 12, "cluster_id": 2, "rank_in_cluster": 10}

>  <energy>  (43) 
-8.09

>  <cluster_rmsd>  (43) 
0.57

>  <cluster>  (43) 
2

$$$$

     RDKit          3D

 51 54  0  0  0  0  0  0  0  0999 V2000
  139.1090   71.6480  221.2430 O   0  0  0  0  0  0  0  0  0  0  0  0
  139.7890   71.9690  222.2520 C   0  0  0  0  0  0  0  0  0  0  0  0
  140.5250   73.1890  222.1530 N   0  0  0  0  0  0  0  0  0  0  0  0
  140.4030   73.9180  220.8940 C   0  0  0  0  0  0  0  0  0  0  0  0
  140.9190   75.2890  221.1390 C   0  0  0  0  0  0  0  0  0  0  0  0
  141.0760   75.6290  222.3440 O   0  0  0  0  0  0  0  0  0  0  0  0
  141.2110   76.1540  220.0480 N   0  0  0  0  0  0  0  0  0  0  0  0
  142.1700   75.7780  219.0510 C   0  0  0  0  0  0  0  0  0  0  0  0
  142.9900   76.9030  218.5080 C   0  0  0  0  0  0  0  0  0  0  0  0
  142.3010   78.2250  218.4470 C   0  0  0  0  0  0  0  0  0  0  0  0
  140.8350   78.1470  218.7260 C   0  0  0  0  0  0  0  0  0  0  0  0
  140.4970   77.4310  219.9910 C   0  0  2  0  0  0  0  0  0  0  0  0
  140.7880   78.2060  221.2260 C   0  0  0  0  0  0  0  0  0  0  0  0
  139.8010   78.4970  222.1660 C   0  0  0  0  0  0  0  0  0  0  0  0
  140.0670   79.2160  223.3130 C   0  0  0  0  0  0  0  0  0  0  0  0
  139.0930   79.4980  224.2330 F   0  0  0  0  0  0  0  0  0  0  0  0
  141.3440   79.6800  223.5720 C   0  0  0  0  0  0  0  0  0  0  0  0
  142.3400   79.4070  222.6580 C   0  0  0  0  0  0  0  0  0  0  0  0
  143.5950   79.8520  222.8930 F   0  0  0  0  0  0  0  0  0  0  0  0
  142.0510   78.6830  221.5110 C   0  0  0  0  0  0  0  0  0  0  0  0
  139.8280   71.1520  223.4560 C   0  0  0  0  0  0  0  0  0  0  0  0
  139.2270   69.9110  223.4150 C   0  0  0  0  0  0  0  0  0  0  0  0
  139.2050   69.0520  224.5010 C   0  0  0  0  0  0  0  0  0  0  0  0
  139.8240   69.4990  225.6520 C   0  0  0  0  0  0  0  0  0  0  0  0
  139.8330   68.6830  226.7710 C   0  0  0  0  0  0  0  0  0  0  0  0
  140.4400   69.0970  227.9380 C   0  0  0  0  0  0  0  0  0  0  0  0
  140.4390   68.2760  229.0280 F   0  0  0  0  0  0  0  0  0  0  0  0
  141.0380   70.3320  227.9750 C   0  0  0  0  0  0  0  0  0  0  0  0
  141.0360   71.1620  226.8610 C   0  0  0  0  0  0  0  0  0  0  0  0
  140.4220   70.7530  225.6730 C   0  0  0  0  0  0  0  0  0  0  0  0
  140.4230   71.5650  224.5880 N   0  0  0  0  0  0  0  0  0  0  0  0
  141.1130   73.5240  222.9490 H   0  0  0  0  0  0  0  0  0  0  0  0
  140.9976   73.4240  220.1114 H   0  0  0  0  0  0  0  0  0  0  0  0
  139.3572   73.9453  220.5539 H   0  0  0  0  0  0  0  0  0  0  0  0
  142.8543   75.0409  219.4964 H   0  0  0  0  0  0  0  0  0  0  0  0
  141.5926   75.3810  218.2030 H   0  0  0  0  0  0  0  0  0  0  0  0
  143.8798   77.0130  219.1453 H   0  0  0  0  0  0  0  0  0  0  0  0
  143.2228   76.6339  217.4671 H   0  0  0  0  0  0  0  0  0  0  0  0
  142.7618   78.8923  219.1902 H   0  0  0  0  0  0  0  0  0  0  0  0
  142.4151   78.6020  217.4200 H   0  0  0  0  0  0  0  0  0  0  0  0
  140.4401   79.1716  218.7919 H   0  0  0  0  0  0  0  0  0  0  0  0
  140.3838   77.5723  217.9037 H   0  0  0  0  0  0  0  0  0  0  0  0
  139.4082   77.2768  219.9647 H   0  0  0  0  0  0  0  0  0  0  0  0
  138.7755   78.1415  221.9874 H   0  0  0  0  0  0  0  0  0  0  0  0
  141.5601   80.2533  224.4856 H   0  0  0  0  0  0  0  0  0  0  0  0
  142.8635   78.4803  220.7978 H   0  0  0  0  0  0  0  0  0  0  0  0
  138.7447   69.5901  222.4799 H   0  0  0  0  0  0  0  0  0  0  0  0
  138.7202   68.0659  224.4497 H   0  0  0  0  0  0  0  0  0  0  0  0
  139.3512   67.6950  226.7285 H   0  0  0  0  0  0  0  0  0  0  0  0
  141.5263   70.6697  228.9010 H   0  0  0  0  0  0  0  0  0  0  0  0
  141.5208   72.1480  226.9138 H   0  0  0  0  0  0  0  0  0  0  0  0
  1  2  2  0
  2  3  1  0
  3  4  1  0
  4  5  1  0
  5  6  2  0
  5  7  1  0
  7  8  1  0
  8  9  1  0
  9 10  1  0
 10 11  1  0
 11 12  1  0
 12 13  1  0
 13 14  2  0
 14 15  1  0
 15 16  1  0
 15 17  2  0
 17 18  1  0
 18 19  1  0
 18 20  2  0
  2 21  1  0
 21 22  2  0
 22 23  1  0
 23 24  2  0
 24 25  1  0
 25 26  2  0
 26 27  1  0
 26 28  1  0
 28 29  2  0
 29 30  1  0
 30 31  2  0
 12  7  1  0
 20 13  1  0
 31 21  1  0
 30 24  1  0
  3 32  1  0
  4 33  1  0
  4 34  1  0
  8 35  1  0
  8 36  1  0
  9 37  1  0
  9 38  1  0
 10 39  1  0
 10 40  1  0
 11 41  1  0
 11 42  1  0
 12 43  1  6
 14 44  1  0
 17 45  1  0
 20 46  1  0
 22 47  1  0
 23 48  1  0
 25 49  1  0
 28 50  1  0
 29 51  1  0
M  END
>  <smiles>  (44) 
O=C(NCC(=O)N1CCCCC1c1cc(F)cc(F)c1)c1ccc2cc(F)ccc2n1

>  <score_type>  (44) 
oracle

>  <origin>  (44) 
autodockgpu

>  <m_score__min__energy>  (44) 
-8.9000000000000004

>  <m_primary>  (44) 
energy

>  <rmsd>  (44) 
1.8590069074263542

>  <m_score__min__rmsd>  (44) 
1.8590069074263542

>  <meeko>  (44) 
{"free_energy": -7.95, "intermolecular_energy": -9.44, "internal_energy": -1.96, "cluster_size": 33, "cluster_id": 1, "rank_in_cluster": 33}

>  <energy>  (44) 
-7.68

>  <cluster_rmsd>  (44) 
0.91

>  <cluster>  (44) 
2

$$$$

     RDKit          3D

 51 54  0  0  0  0  0  0  0  0999 V2000
  141.1660   72.1860  221.5140 O   0  0  0  0  0  0  0  0  0  0  0  0
  140.3610   72.4550  222.4440 C   0  0  0  0  0  0  0  0  0  0  0  0
  139.6060   73.6590  222.2930 N   0  0  0  0  0  0  0  0  0  0  0  0
  139.8570   74.4330  221.0810 C   0  0  0  0  0  0  0  0  0  0  0  0
  139.0970   75.7020  221.2170 C   0  0  0  0  0  0  0  0  0  0  0  0
  138.0090   75.7830  220.5840 O   0  0  0  0  0  0  0  0  0  0  0  0
  139.5990   76.7580  222.0290 N   0  0  0  0  0  0  0  0  0  0  0  0
  138.7050   77.6300  222.7330 C   0  0  0  0  0  0  0  0  0  0  0  0
  139.1560   79.0510  222.8300 C   0  0  0  0  0  0  0  0  0  0  0  0
  140.6340   79.2490  222.9020 C   0  0  0  0  0  0  0  0  0  0  0  0
  141.3970   77.9780  223.0950 C   0  0  0  0  0  0  0  0  0  0  0  0
  141.0520   76.9100  222.1120 C   0  0  2  0  0  0  0  0  0  0  0  0
  141.5960   77.1420  220.7470 C   0  0  0  0  0  0  0  0  0  0  0  0
  141.3460   78.3180  220.0410 C   0  0  0  0  0  0  0  0  0  0  0  0
  141.8480   78.5360  218.7750 C   0  0  0  0  0  0  0  0  0  0  0  0
  141.6000   79.6940  218.0880 F   0  0  0  0  0  0  0  0  0  0  0  0
  142.6290   77.5780  218.1540 C   0  0  0  0  0  0  0  0  0  0  0  0
  142.8920   76.4050  218.8300 C   0  0  0  0  0  0  0  0  0  0  0  0
  143.6530   75.4570  218.2380 F   0  0  0  0  0  0  0  0  0  0  0  0
  142.3760   76.2060  220.1010 C   0  0  0  0  0  0  0  0  0  0  0  0
  140.2010   71.5960  223.6070 C   0  0  0  0  0  0  0  0  0  0  0  0
  139.4930   70.4220  223.4510 C   0  0  0  0  0  0  0  0  0  0  0  0
  139.2810   69.5320  224.4910 C   0  0  0  0  0  0  0  0  0  0  0  0
  139.8180   69.8750  225.7150 C   0  0  0  0  0  0  0  0  0  0  0  0
  139.6380   69.0230  226.7920 C   0  0  0  0  0  0  0  0  0  0  0  0
  140.1590   69.3340  228.0310 C   0  0  0  0  0  0  0  0  0  0  0  0
  139.9700   68.4800  229.0770 F   0  0  0  0  0  0  0  0  0  0  0  0
  140.8620   70.5030  228.1810 C   0  0  0  0  0  0  0  0  0  0  0  0
  141.0510   71.3690  227.1110 C   0  0  0  0  0  0  0  0  0  0  0  0
  140.5260   71.0640  225.8520 C   0  0  0  0  0  0  0  0  0  0  0  0
  140.7120   71.9090  224.8100 N   0  0  0  0  0  0  0  0  0  0  0  0
  138.9160   73.9510  223.0220 H   0  0  0  0  0  0  0  0  0  0  0  0
  140.9320   74.6441  220.9824 H   0  0  0  0  0  0  0  0  0  0  0  0
  139.5409   73.8777  220.1856 H   0  0  0  0  0  0  0  0  0  0  0  0
  137.7346   77.6144  222.2152 H   0  0  0  0  0  0  0  0  0  0  0  0
  138.6552   77.2518  223.7648 H   0  0  0  0  0  0  0  0  0  0  0  0
  138.7844   79.5865  221.9439 H   0  0  0  0  0  0  0  0  0  0  0  0
  138.7518   79.4338  223.7788 H   0  0  0  0  0  0  0  0  0  0  0  0
  140.9687   79.7171  221.9645 H   0  0  0  0  0  0  0  0  0  0  0  0
  140.8333   79.8825  223.7789 H   0  0  0  0  0  0  0  0  0  0  0  0
  142.4702   78.2008  223.0018 H   0  0  0  0  0  0  0  0  0  0  0  0
  141.1301   77.5937  224.0905 H   0  0  0  0  0  0  0  0  0  0  0  0
  141.5256   75.9917  222.4892 H   0  0  0  0  0  0  0  0  0  0  0  0
  140.7277   79.0980  220.5093 H   0  0  0  0  0  0  0  0  0  0  0  0
  143.0310   77.7478  217.1443 H   0  0  0  0  0  0  0  0  0  0  0  0
  142.5984   75.2603  220.6169 H   0  0  0  0  0  0  0  0  0  0  0  0
  139.0799   70.1830  222.4599 H   0  0  0  0  0  0  0  0  0  0  0  0
  138.7140   68.6002  224.3486 H   0  0  0  0  0  0  0  0  0  0  0  0
  139.0736   68.0884  226.6581 H   0  0  0  0  0  0  0  0  0  0  0  0
  141.2829   70.7587  229.1646 H   0  0  0  0  0  0  0  0  0  0  0  0
  141.6175   72.3007  227.2556 H   0  0  0  0  0  0  0  0  0  0  0  0
  1  2  2  0
  2  3  1  0
  3  4  1  0
  4  5  1  0
  5  6  2  0
  5  7  1  0
  7  8  1  0
  8  9  1  0
  9 10  1  0
 10 11  1  0
 11 12  1  0
 12 13  1  0
 13 14  2  0
 14 15  1  0
 15 16  1  0
 15 17  2  0
 17 18  1  0
 18 19  1  0
 18 20  2  0
  2 21  1  0
 21 22  2  0
 22 23  1  0
 23 24  2  0
 24 25  1  0
 25 26  2  0
 26 27  1  0
 26 28  1  0
 28 29  2  0
 29 30  1  0
 30 31  2  0
 12  7  1  0
 20 13  1  0
 31 21  1  0
 30 24  1  0
  3 32  1  0
  4 33  1  0
  4 34  1  0
  8 35  1  0
  8 36  1  0
  9 37  1  0
  9 38  1  0
 10 39  1  0
 10 40  1  0
 11 41  1  0
 11 42  1  0
 12 43  1  1
 14 44  1  0
 17 45  1  0
 20 46  1  0
 22 47  1  0
 23 48  1  0
 25 49  1  0
 28 50  1  0
 29 51  1  0
M  END
>  <smiles>  (45) 
O=C(NCC(=O)N1CCCCC1c1cc(F)cc(F)c1)c1ccc2cc(F)ccc2n1

>  <score_type>  (45) 
oracle

>  <origin>  (45) 
autodockgpu

>  <m_score__min__energy>  (45) 
-8.9000000000000004

>  <m_primary>  (45) 
energy

>  <rmsd>  (45) 
3.1743467719132332

>  <m_score__min__rmsd>  (45) 
3.1743467719132332

>  <meeko>  (45) 
{"free_energy": -8.3, "intermolecular_energy": -9.79, "internal_energy": -1.35, "cluster_size": 2, "cluster_id": 3, "rank_in_cluster": 2}

>  <energy>  (45) 
-7.58

>  <cluster_rmsd>  (45) 
1.46

>  <cluster>  (45) 
2

$$$$

     RDKit          3D

 51 54  0  0  0  0  0  0  0  0999 V2000
  140.6320   72.2080  221.1740 O   0  0  0  0  0  0  0  0  0  0  0  0
  140.0240   72.5200  222.2310 C   0  0  0  0  0  0  0  0  0  0  0  0
  139.3540   73.7810  222.2220 N   0  0  0  0  0  0  0  0  0  0  0  0
  139.4530   74.5590  220.9900 C   0  0  0  0  0  0  0  0  0  0  0  0
  140.7260   75.3210  221.0660 C   0  0  0  0  0  0  0  0  0  0  0  0
  141.4370   75.1390  222.0920 O   0  0  0  0  0  0  0  0  0  0  0  0
  141.0980   76.2060  220.0150 N   0  0  0  0  0  0  0  0  0  0  0  0
  142.0890   75.8250  219.0520 C   0  0  0  0  0  0  0  0  0  0  0  0
  142.9710   76.9350  218.5810 C   0  0  0  0  0  0  0  0  0  0  0  0
  142.3300   78.2820  218.5290 C   0  0  0  0  0  0  0  0  0  0  0  0
  140.8510   78.2480  218.7390 C   0  0  0  0  0  0  0  0  0  0  0  0
  140.4310   77.5080  219.9650 C   0  0  2  0  0  0  0  0  0  0  0  0
  140.6910   78.2370  221.2350 C   0  0  0  0  0  0  0  0  0  0  0  0
  141.9620   78.6970  221.5770 C   0  0  0  0  0  0  0  0  0  0  0  0
  142.2060   79.3740  222.7540 C   0  0  0  0  0  0  0  0  0  0  0  0
  143.4560   79.8230  223.0840 F   0  0  0  0  0  0  0  0  0  0  0  0
  141.1800   79.6230  223.6470 C   0  0  0  0  0  0  0  0  0  0  0  0
  139.9130   79.1790  223.3330 C   0  0  0  0  0  0  0  0  0  0  0  0
  138.8970   79.4130  224.1950 F   0  0  0  0  0  0  0  0  0  0  0  0
  139.6890   78.5000  222.1460 C   0  0  0  0  0  0  0  0  0  0  0  0
  139.9990   71.6520  223.3990 C   0  0  0  0  0  0  0  0  0  0  0  0
  139.3690   70.4290  223.2820 C   0  0  0  0  0  0  0  0  0  0  0  0
  139.2870   69.5270  224.3290 C   0  0  0  0  0  0  0  0  0  0  0  0
  139.8720   69.9090  225.5200 C   0  0  0  0  0  0  0  0  0  0  0  0
  139.8210   69.0460  226.6020 C   0  0  0  0  0  0  0  0  0  0  0  0
  140.3940   69.3940  227.8070 C   0  0  0  0  0  0  0  0  0  0  0  0
  140.3330   68.5290  228.8600 F   0  0  0  0  0  0  0  0  0  0  0  0
  141.0200   70.6110  227.9180 C   0  0  0  0  0  0  0  0  0  0  0  0
  141.0790   71.4870  226.8420 C   0  0  0  0  0  0  0  0  0  0  0  0
  140.5000   71.1450  225.6160 C   0  0  0  0  0  0  0  0  0  0  0  0
  140.5600   72.0010  224.5680 N   0  0  0  0  0  0  0  0  0  0  0  0
  138.8260   74.1110  223.0620 H   0  0  0  0  0  0  0  0  0  0  0  0
  139.4644   73.8883  220.1182 H   0  0  0  0  0  0  0  0  0  0  0  0
  138.5931   75.2361  220.8801 H   0  0  0  0  0  0  0  0  0  0  0  0
  142.7264   75.0518  219.5058 H   0  0  0  0  0  0  0  0  0  0  0  0
  141.5385   75.4730  218.1671 H   0  0  0  0  0  0  0  0  0  0  0  0
  143.8335   76.9953  219.2610 H   0  0  0  0  0  0  0  0  0  0  0  0
  143.2429   76.6878  217.5442 H   0  0  0  0  0  0  0  0  0  0  0  0
  142.7783   78.9111  219.3121 H   0  0  0  0  0  0  0  0  0  0  0  0
  142.5039   78.6838  217.5199 H   0  0  0  0  0  0  0  0  0  0  0  0
  140.4886   79.2836  218.8183 H   0  0  0  0  0  0  0  0  0  0  0  0
  140.4188   77.7139  217.8800 H   0  0  0  0  0  0  0  0  0  0  0  0
  139.3400   77.3925  219.8854 H   0  0  0  0  0  0  0  0  0  0  0  0
  142.7977   78.5141  220.8855 H   0  0  0  0  0  0  0  0  0  0  0  0
  141.3703   80.1629  224.5863 H   0  0  0  0  0  0  0  0  0  0  0  0
  138.6688   78.1561  221.9205 H   0  0  0  0  0  0  0  0  0  0  0  0
  138.9136   70.1603  222.3174 H   0  0  0  0  0  0  0  0  0  0  0  0
  138.7819   68.5562  224.2179 H   0  0  0  0  0  0  0  0  0  0  0  0
  139.3183   68.0730  226.4991 H   0  0  0  0  0  0  0  0  0  0  0  0
  141.4822   70.8967  228.8745 H   0  0  0  0  0  0  0  0  0  0  0  0
  141.5850   72.4572  226.9550 H   0  0  0  0  0  0  0  0  0  0  0  0
  1  2  2  0
  2  3  1  0
  3  4  1  0
  4  5  1  0
  5  6  2  0
  5  7  1  0
  7  8  1  0
  8  9  1  0
  9 10  1  0
 10 11  1  0
 11 12  1  0
 12 13  1  0
 13 14  2  0
 14 15  1  0
 15 16  1  0
 15 17  2  0
 17 18  1  0
 18 19  1  0
 18 20  2  0
  2 21  1  0
 21 22  2  0
 22 23  1  0
 23 24  2  0
 24 25  1  0
 25 26  2  0
 26 27  1  0
 26 28  1  0
 28 29  2  0
 29 30  1  0
 30 31  2  0
 12  7  1  0
 20 13  1  0
 31 21  1  0
 30 24  1  0
  3 32  1  0
  4 33  1  0
  4 34  1  0
  8 35  1  0
  8 36  1  0
  9 37  1  0
  9 38  1  0
 10 39  1  0
 10 40  1  0
 11 41  1  0
 11 42  1  0
 12 43  1  6
 14 44  1  0
 17 45  1  0
 20 46  1  0
 22 47  1  0
 23 48  1  0
 25 49  1  0
 28 50  1  0
 29 51  1  0
M  END
>  <smiles>  (46) 
O=C(NCC(=O)N1CCCCC1c1cc(F)cc(F)c1)c1ccc2cc(F)ccc2n1

>  <score_type>  (46) 
oracle

>  <origin>  (46) 
autodockgpu

>  <m_score__min__energy>  (46) 
-8.9000000000000004

>  <m_primary>  (46) 
energy

>  <rmsd>  (46) 
1.8296263257933365

>  <m_score__min__rmsd>  (46) 
1.8296263257933365

>  <meeko>  (46) 
{"free_energy": -8.55, "intermolecular_energy": -10.04, "internal_energy": -1.43, "cluster_size": 33, "cluster_id": 1, "rank_in_cluster": 31}

>  <energy>  (46) 
-8.31

>  <cluster_rmsd>  (46) 
0.0

>  <cluster>  (46) 
3

$$$$

     RDKit          3D

 51 54  0  0  0  0  0  0  0  0999 V2000
  133.7320   70.4640  226.5080 O   0  0  0  0  0  0  0  0  0  0  0  0
  133.9550   71.6020  226.0170 C   0  0  0  0  0  0  0  0  0  0  0  0
  134.8900   71.6480  224.9380 N   0  0  0  0  0  0  0  0  0  0  0  0
  135.4750   70.3730  224.5330 C   0  0  0  0  0  0  0  0  0  0  0  0
  136.6740   70.6910  223.7160 C   0  0  0  0  0  0  0  0  0  0  0  0
  137.0580   71.8920  223.7150 O   0  0  0  0  0  0  0  0  0  0  0  0
  137.3350   69.6680  222.9790 N   0  0  0  0  0  0  0  0  0  0  0  0
  136.5860   68.6350  222.3260 C   0  0  0  0  0  0  0  0  0  0  0  0
  137.2350   67.2890  222.3260 C   0  0  0  0  0  0  0  0  0  0  0  0
  138.7270   67.2990  222.2800 C   0  0  0  0  0  0  0  0  0  0  0  0
  139.3060   68.6500  222.0120 C   0  0  0  0  0  0  0  0  0  0  0  0
  138.7960   69.7190  222.9200 C   0  0  2  0  0  0  0  0  0  0  0  0
  139.3410   69.6540  224.3030 C   0  0  0  0  0  0  0  0  0  0  0  0
  140.0850   70.6960  224.8540 C   0  0  0  0  0  0  0  0  0  0  0  0
  140.5930   70.6400  226.1350 C   0  0  0  0  0  0  0  0  0  0  0  0
  141.3220   71.6670  226.6710 F   0  0  0  0  0  0  0  0  0  0  0  0
  140.3750   69.5280  226.9290 C   0  0  0  0  0  0  0  0  0  0  0  0
  139.6420   68.4820  226.4080 C   0  0  0  0  0  0  0  0  0  0  0  0
  139.4200   67.3860  227.1690 F   0  0  0  0  0  0  0  0  0  0  0  0
  139.1430   68.5590  225.1170 C   0  0  0  0  0  0  0  0  0  0  0  0
  133.3030   72.8040  226.5120 C   0  0  0  0  0  0  0  0  0  0  0  0
  132.0590   72.6730  227.0940 C   0  0  0  0  0  0  0  0  0  0  0  0
  131.3500   73.7500  227.5990 C   0  0  0  0  0  0  0  0  0  0  0  0
  131.9520   74.9880  227.4920 C   0  0  0  0  0  0  0  0  0  0  0  0
  131.2900   76.1030  227.9790 C   0  0  0  0  0  0  0  0  0  0  0  0
  131.8600   77.3550  227.8890 C   0  0  0  0  0  0  0  0  0  0  0  0
  131.1910   78.4390  228.3760 F   0  0  0  0  0  0  0  0  0  0  0  0
  133.0980   77.4820  227.3090 C   0  0  0  0  0  0  0  0  0  0  0  0
  133.7740   76.3730  226.8160 C   0  0  0  0  0  0  0  0  0  0  0  0
  133.2050   75.0990  226.9010 C   0  0  0  0  0  0  0  0  0  0  0  0
  133.8680   74.0200  226.4190 N   0  0  0  0  0  0  0  0  0  0  0  0
  135.1280   72.5550  224.4760 H   0  0  0  0  0  0  0  0  0  0  0  0
  135.7648   69.7906  225.4200 H   0  0  0  0  0  0  0  0  0  0  0  0
  134.7540   69.7727  223.9587 H   0  0  0  0  0  0  0  0  0  0  0  0
  135.6141   68.5453  222.8333 H   0  0  0  0  0  0  0  0  0  0  0  0
  136.5016   68.9359  221.2713 H   0  0  0  0  0  0  0  0  0  0  0  0
  136.9270   66.7634  223.2419 H   0  0  0  0  0  0  0  0  0  0  0  0
  136.9060   66.7932  221.4008 H   0  0  0  0  0  0  0  0  0  0  0  0
  139.1076   66.9430  223.2487 H   0  0  0  0  0  0  0  0  0  0  0  0
  139.0294   66.6465  221.4477 H   0  0  0  0  0  0  0  0  0  0  0  0
  140.3980   68.5880  222.1294 H   0  0  0  0  0  0  0  0  0  0  0  0
  139.0054   68.9287  220.9912 H   0  0  0  0  0  0  0  0  0  0  0  0
  139.1434   70.6691  222.4880 H   0  0  0  0  0  0  0  0  0  0  0  0
  140.2734   71.5935  224.2465 H   0  0  0  0  0  0  0  0  0  0  0  0
  140.7768   69.4792  227.9518 H   0  0  0  0  0  0  0  0  0  0  0  0
  138.5641   67.7098  224.7251 H   0  0  0  0  0  0  0  0  0  0  0  0
  131.6113   71.6704  227.1597 H   0  0  0  0  0  0  0  0  0  0  0  0
  130.3595   73.6258  228.0610 H   0  0  0  0  0  0  0  0  0  0  0  0
  130.2990   75.9883  228.4424 H   0  0  0  0  0  0  0  0  0  0  0  0
  133.5615   78.4767  227.2336 H   0  0  0  0  0  0  0  0  0  0  0  0
  134.7649   76.4984  226.3551 H   0  0  0  0  0  0  0  0  0  0  0  0
  1  2  2  0
  2  3  1  0
  3  4  1  0
  4  5  1  0
  5  6  2  0
  5  7  1  0
  7  8  1  0
  8  9  1  0
  9 10  1  0
 10 11  1  0
 11 12  1  0
 12 13  1  0
 13 14  2  0
 14 15  1  0
 15 16  1  0
 15 17  2  0
 17 18  1  0
 18 19  1  0
 18 20  2  0
  2 21  1  0
 21 22  2  0
 22 23  1  0
 23 24  2  0
 24 25  1  0
 25 26  2  0
 26 27  1  0
 26 28  1  0
 28 29  2  0
 29 30  1  0
 30 31  2  0
 12  7  1  0
 20 13  1  0
 31 21  1  0
 30 24  1  0
  3 32  1  0
  4 33  1  0
  4 34  1  0
  8 35  1  0
  8 36  1  0
  9 37  1  0
  9 38  1  0
 10 39  1  0
 10 40  1  0
 11 41  1  0
 11 42  1  0
 12 43  1  6
 14 44  1  0
 17 45  1  0
 20 46  1  0
 22 47  1  0
 23 48  1  0
 25 49  1  0
 28 50  1  0
 29 51  1  0
M  END
>  <smiles>  (47) 
O=C(NCC(=O)N1CCCCC1c1cc(F)cc(F)c1)c1ccc2cc(F)ccc2n1

>  <score_type>  (47) 
oracle

>  <origin>  (47) 
autodockgpu

>  <m_score__min__energy>  (47) 
-8.9000000000000004

>  <m_primary>  (47) 
energy

>  <rmsd>  (47) 
8.817929696692753

>  <m_score__min__rmsd>  (47) 
8.817929696692753

>  <meeko>  (47) 
{"free_energy": -7.24, "intermolecular_energy": -8.73, "internal_energy": -2.01, "cluster_size": 1, "cluster_id": 5, "rank_in_cluster": 1}

>  <energy>  (47) 
-8.3

>  <cluster_rmsd>  (47) 
0.1

>  <cluster>  (47) 
3

$$$$

     RDKit          3D

 51 54  0  0  0  0  0  0  0  0999 V2000
  140.5640   71.8100  221.1370 O   0  0  0  0  0  0  0  0  0  0  0  0
  140.2050   72.2890  222.2450 C   0  0  0  0  0  0  0  0  0  0  0  0
  139.8750   73.6790  222.2530 N   0  0  0  0  0  0  0  0  0  0  0  0
  139.9940   74.3790  220.9770 C   0  0  0  0  0  0  0  0  0  0  0  0
  140.6020   75.7030  221.2690 C   0  0  0  0  0  0  0  0  0  0  0  0
  140.6890   76.0320  222.4840 O   0  0  0  0  0  0  0  0  0  0  0  0
  141.0530   76.5380  220.2090 N   0  0  0  0  0  0  0  0  0  0  0  0
  142.0150   76.0600  219.2590 C   0  0  0  0  0  0  0  0  0  0  0  0
  142.9900   77.0860  218.7790 C   0  0  0  0  0  0  0  0  0  0  0  0
  142.4640   78.4800  218.7010 C   0  0  0  0  0  0  0  0  0  0  0  0
  140.9860   78.5720  218.9000 C   0  0  0  0  0  0  0  0  0  0  0  0
  140.4970   77.8890  220.1330 C   0  0  2  0  0  0  0  0  0  0  0  0
  140.8090   78.6140  221.3940 C   0  0  0  0  0  0  0  0  0  0  0  0
  139.8310   78.8880  222.3500 C   0  0  0  0  0  0  0  0  0  0  0  0
  140.1160   79.5600  223.5210 C   0  0  0  0  0  0  0  0  0  0  0  0
  139.1520   79.8250  224.4560 F   0  0  0  0  0  0  0  0  0  0  0  0
  141.4030   79.9920  223.7880 C   0  0  0  0  0  0  0  0  0  0  0  0
  142.3890   79.7340  222.8590 C   0  0  0  0  0  0  0  0  0  0  0  0
  143.6530   80.1490  223.1030 F   0  0  0  0  0  0  0  0  0  0  0  0
  142.0810   79.0580  221.6890 C   0  0  0  0  0  0  0  0  0  0  0  0
  140.1260   71.4810  223.4530 C   0  0  0  0  0  0  0  0  0  0  0  0
  139.4990   70.2540  223.3700 C   0  0  0  0  0  0  0  0  0  0  0  0
  139.3680   69.4050  224.4560 C   0  0  0  0  0  0  0  0  0  0  0  0
  139.9020   69.8460  225.6500 C   0  0  0  0  0  0  0  0  0  0  0  0
  139.8010   69.0390  226.7720 C   0  0  0  0  0  0  0  0  0  0  0  0
  140.3210   69.4470  227.9820 C   0  0  0  0  0  0  0  0  0  0  0  0
  140.2110   68.6360  229.0730 F   0  0  0  0  0  0  0  0  0  0  0  0
  140.9430   70.6680  228.0600 C   0  0  0  0  0  0  0  0  0  0  0  0
  141.0520   71.4890  226.9440 C   0  0  0  0  0  0  0  0  0  0  0  0
  140.5280   71.0850  225.7130 C   0  0  0  0  0  0  0  0  0  0  0  0
  140.6360   71.8880  224.6270 N   0  0  0  0  0  0  0  0  0  0  0  0
  139.5680   74.1500  223.1340 H   0  0  0  0  0  0  0  0  0  0  0  0
  140.6383   73.8093  220.2912 H   0  0  0  0  0  0  0  0  0  0  0  0
  139.0112   74.4933  220.4962 H   0  0  0  0  0  0  0  0  0  0  0  0
  142.5824   75.2432  219.7290 H   0  0  0  0  0  0  0  0  0  0  0  0
  141.4431   75.7411  218.3751 H   0  0  0  0  0  0  0  0  0  0  0  0
  143.8494   77.0852  219.4657 H   0  0  0  0  0  0  0  0  0  0  0  0
  143.2481   76.8008  217.7484 H   0  0  0  0  0  0  0  0  0  0  0  0
  142.9579   79.0824  219.4777 H   0  0  0  0  0  0  0  0  0  0  0  0
  142.6773   78.8498  217.6872 H   0  0  0  0  0  0  0  0  0  0  0  0
  140.7105   79.6352  218.9609 H   0  0  0  0  0  0  0  0  0  0  0  0
  140.5171   78.0617  218.0458 H   0  0  0  0  0  0  0  0  0  0  0  0
  139.4008   77.8632  220.0456 H   0  0  0  0  0  0  0  0  0  0  0  0
  138.7984   78.5575  222.1643 H   0  0  0  0  0  0  0  0  0  0  0  0
  141.6344   80.5289  224.7198 H   0  0  0  0  0  0  0  0  0  0  0  0
  142.8861   78.8673  220.9641 H   0  0  0  0  0  0  0  0  0  0  0  0
  139.0862   69.9375  222.4007 H   0  0  0  0  0  0  0  0  0  0  0  0
  138.8649   68.4304  224.3716 H   0  0  0  0  0  0  0  0  0  0  0  0
  139.3005   68.0624  226.6965 H   0  0  0  0  0  0  0  0  0  0  0  0
  141.3617   71.0019  229.0208 H   0  0  0  0  0  0  0  0  0  0  0  0
  141.5543   72.4638  227.0302 H   0  0  0  0  0  0  0  0  0  0  0  0
  1  2  2  0
  2  3  1  0
  3  4  1  0
  4  5  1  0
  5  6  2  0
  5  7  1  0
  7  8  1  0
  8  9  1  0
  9 10  1  0
 10 11  1  0
 11 12  1  0
 12 13  1  0
 13 14  2  0
 14 15  1  0
 15 16  1  0
 15 17  2  0
 17 18  1  0
 18 19  1  0
 18 20  2  0
  2 21  1  0
 21 22  2  0
 22 23  1  0
 23 24  2  0
 24 25  1  0
 25 26  2  0
 26 27  1  0
 26 28  1  0
 28 29  2  0
 29 30  1  0
 30 31  2  0
 12  7  1  0
 20 13  1  0
 31 21  1  0
 30 24  1  0
  3 32  1  0
  4 33  1  0
  4 34  1  0
  8 35  1  0
  8 36  1  0
  9 37  1  0
  9 38  1  0
 10 39  1  0
 10 40  1  0
 11 41  1  0
 11 42  1  0
 12 43  1  6
 14 44  1  0
 17 45  1  0
 20 46  1  0
 22 47  1  0
 23 48  1  0
 25 49  1  0
 28 50  1  0
 29 51  1  0
M  END
>  <smiles>  (48) 
O=C(NCC(=O)N1CCCCC1c1cc(F)cc(F)c1)c1ccc2cc(F)ccc2n1

>  <score_type>  (48) 
oracle

>  <origin>  (48) 
autodockgpu

>  <m_score__min__energy>  (48) 
-8.9000000000000004

>  <m_primary>  (48) 
energy

>  <rmsd>  (48) 
1.944644438817811

>  <m_score__min__rmsd>  (48) 
1.944644438817811

>  <meeko>  (48) 
{"free_energy": -8.85, "intermolecular_energy": -10.34, "internal_energy": -1.74, "cluster_size": 33, "cluster_id": 1, "rank_in_cluster": 17}

>  <energy>  (48) 
-7.52

>  <cluster_rmsd>  (48) 
0.0

>  <cluster>  (48) 
4

$$$$

     RDKit          3D

 51 54  0  0  0  0  0  0  0  0999 V2000
  140.0830   71.4170  221.0600 O   0  0  0  0  0  0  0  0  0  0  0  0
  139.9320   71.9440  222.1940 C   0  0  0  0  0  0  0  0  0  0  0  0
  139.7460   73.3600  222.2100 N   0  0  0  0  0  0  0  0  0  0  0  0
  139.7540   74.0280  220.9110 C   0  0  0  0  0  0  0  0  0  0  0  0
  140.6850   75.1800  221.0270 C   0  0  0  0  0  0  0  0  0  0  0  0
  140.9480   75.5820  222.1930 O   0  0  0  0  0  0  0  0  0  0  0  0
  141.2370   75.7790  219.8600 N   0  0  0  0  0  0  0  0  0  0  0  0
  140.4040   76.1060  218.7400 C   0  0  0  0  0  0  0  0  0  0  0  0
  141.0450   75.9240  217.4030 C   0  0  0  0  0  0  0  0  0  0  0  0
  142.5160   76.1710  217.3610 C   0  0  0  0  0  0  0  0  0  0  0  0
  143.0560   76.7790  218.6150 C   0  0  0  0  0  0  0  0  0  0  0  0
  142.6770   76.0430  219.8560 C   0  0  2  0  0  0  0  0  0  0  0  0
  143.4070   74.7610  220.0500 C   0  0  0  0  0  0  0  0  0  0  0  0
  142.8040   73.5250  219.8220 C   0  0  0  0  0  0  0  0  0  0  0  0
  143.4780   72.3350  220.0010 C   0  0  0  0  0  0  0  0  0  0  0  0
  142.8810   71.1240  219.7740 F   0  0  0  0  0  0  0  0  0  0  0  0
  144.7960   72.3290  220.4190 C   0  0  0  0  0  0  0  0  0  0  0  0
  145.4160   73.5390  220.6530 C   0  0  0  0  0  0  0  0  0  0  0  0
  146.7050   73.5540  221.0630 F   0  0  0  0  0  0  0  0  0  0  0  0
  144.7210   74.7230  220.4680 C   0  0  0  0  0  0  0  0  0  0  0  0
  139.9430   71.1630  223.4220 C   0  0  0  0  0  0  0  0  0  0  0  0
  139.4020   69.8950  223.3870 C   0  0  0  0  0  0  0  0  0  0  0  0
  139.3610   69.0670  224.4960 C   0  0  0  0  0  0  0  0  0  0  0  0
  139.8950   69.5740  225.6640 C   0  0  0  0  0  0  0  0  0  0  0  0
  139.8820   68.7910  226.8060 C   0  0  0  0  0  0  0  0  0  0  0  0
  140.4060   69.2650  227.9900 C   0  0  0  0  0  0  0  0  0  0  0  0
  140.3840   68.4760  229.1030 F   0  0  0  0  0  0  0  0  0  0  0  0
  140.9440   70.5280  228.0210 C   0  0  0  0  0  0  0  0  0  0  0  0
  140.9640   71.3250  226.8830 C   0  0  0  0  0  0  0  0  0  0  0  0
  140.4350   70.8550  225.6780 C   0  0  0  0  0  0  0  0  0  0  0  0
  140.4570   71.6350  224.5710 N   0  0  0  0  0  0  0  0  0  0  0  0
  139.6140   73.8710  223.1110 H   0  0  0  0  0  0  0  0  0  0  0  0
  140.1036   73.3355  220.1311 H   0  0  0  0  0  0  0  0  0  0  0  0
  138.7438   74.3631  220.6330 H   0  0  0  0  0  0  0  0  0  0  0  0
  139.5107   75.4654  218.7804 H   0  0  0  0  0  0  0  0  0  0  0  0
  140.1762   77.1785  218.8287 H   0  0  0  0  0  0  0  0  0  0  0  0
  140.8651   74.8886  217.0782 H   0  0  0  0  0  0  0  0  0  0  0  0
  140.5914   76.6785  216.7435 H   0  0  0  0  0  0  0  0  0  0  0  0
  143.0253   75.2107  217.1927 H   0  0  0  0  0  0  0  0  0  0  0  0
  142.6997   76.8896  216.5487 H   0  0  0  0  0  0  0  0  0  0  0  0
  144.1536   76.7985  218.5456 H   0  0  0  0  0  0  0  0  0  0  0  0
  142.6197   77.7856  218.6952 H   0  0  0  0  0  0  0  0  0  0  0  0
  142.9627   76.6989  220.6916 H   0  0  0  0  0  0  0  0  0  0  0  0
  141.7562   73.4978  219.4884 H   0  0  0  0  0  0  0  0  0  0  0  0
  145.3373   71.3820  220.5616 H   0  0  0  0  0  0  0  0  0  0  0  0
  145.2392   75.6736  220.6628 H   0  0  0  0  0  0  0  0  0  0  0  0
  138.9855   69.5258  222.4382 H   0  0  0  0  0  0  0  0  0  0  0  0
  138.9257   68.0579  224.4490 H   0  0  0  0  0  0  0  0  0  0  0  0
  139.4492   67.7804  226.7682 H   0  0  0  0  0  0  0  0  0  0  0  0
  141.3654   70.9145  228.9607 H   0  0  0  0  0  0  0  0  0  0  0  0
  141.3997   72.3339  226.9310 H   0  0  0  0  0  0  0  0  0  0  0  0
  1  2  2  0
  2  3  1  0
  3  4  1  0
  4  5  1  0
  5  6  2  0
  5  7  1  0
  7  8  1  0
  8  9  1  0
  9 10  1  0
 10 11  1  0
 11 12  1  0
 12 13  1  0
 13 14  2  0
 14 15  1  0
 15 16  1  0
 15 17  2  0
 17 18  1  0
 18 19  1  0
 18 20  2  0
  2 21  1  0
 21 22  2  0
 22 23  1  0
 23 24  2  0
 24 25  1  0
 25 26  2  0
 26 27  1  0
 26 28  1  0
 28 29  2  0
 29 30  1  0
 30 31  2  0
 12  7  1  0
 20 13  1  0
 31 21  1  0
 30 24  1  0
  3 32  1  0
  4 33  1  0
  4 34  1  0
  8 35  1  0
  8 36  1  0
  9 37  1  0
  9 38  1  0
 10 39  1  0
 10 40  1  0
 11 41  1  0
 11 42  1  0
 12 43  1  1
 14 44  1  0
 17 45  1  0
 20 46  1  0
 22 47  1  0
 23 48  1  0
 25 49  1  0
 28 50  1  0
 29 51  1  0
M  END
>  <smiles>  (49) 
O=C(NCC(=O)N1CCCCC1c1cc(F)cc(F)c1)c1ccc2cc(F)ccc2n1

>  <score_type>  (49) 
oracle

>  <origin>  (49) 
autodockgpu

>  <m_score__min__energy>  (49) 
-8.9000000000000004

>  <m_primary>  (49) 
energy

>  <rmsd>  (49) 
1.5366392707120642

>  <m_score__min__rmsd>  (49) 
1.5366392707120642

>  <meeko>  (49) 
{"free_energy": -8.28, "intermolecular_energy": -9.78, "internal_energy": -1.96, "cluster_size": 12, "cluster_id": 2, "rank_in_cluster": 6}

>  <energy>  (49) 
-7.24

>  <cluster_rmsd>  (49) 
0.0

>  <cluster>  (49) 
5

$$$$

     RDKit          3D

 51 54  0  0  0  0  0  0  0  0999 V2000
  140.7770   71.9310  221.1890 O   0  0  0  0  0  0  0  0  0  0  0  0
  140.1220   72.2690  222.2100 C   0  0  0  0  0  0  0  0  0  0  0  0
  139.3990   73.4970  222.1150 N   0  0  0  0  0  0  0  0  0  0  0  0
  139.5070   74.2150  220.8480 C   0  0  0  0  0  0  0  0  0  0  0  0
  140.8080   74.9320  220.8700 C   0  0  0  0  0  0  0  0  0  0  0  0
  141.4050   74.9900  221.9790 O   0  0  0  0  0  0  0  0  0  0  0  0
  141.3270   75.5170  219.6810 N   0  0  0  0  0  0  0  0  0  0  0  0
  140.4830   75.7390  218.5430 C   0  0  0  0  0  0  0  0  0  0  0  0
  141.1450   75.5440  217.2190 C   0  0  0  0  0  0  0  0  0  0  0  0
  142.5970   75.8860  217.1730 C   0  0  0  0  0  0  0  0  0  0  0  0
  143.0850   76.5820  218.4020 C   0  0  0  0  0  0  0  0  0  0  0  0
  142.7460   75.8750  219.6720 C   0  0  2  0  0  0  0  0  0  0  0  0
  143.5580   74.6550  219.9250 C   0  0  0  0  0  0  0  0  0  0  0  0
  144.8320   74.7180  220.4880 C   0  0  0  0  0  0  0  0  0  0  0  0
  145.5880   73.5890  220.7240 C   0  0  0  0  0  0  0  0  0  0  0  0
  146.8380   73.6570  221.2770 F   0  0  0  0  0  0  0  0  0  0  0  0
  145.0980   72.3350  220.4040 C   0  0  0  0  0  0  0  0  0  0  0  0
  143.8400   72.2440  219.8460 C   0  0  0  0  0  0  0  0  0  0  0  0
  143.3440   71.0270  219.5270 F   0  0  0  0  0  0  0  0  0  0  0  0
  143.0980   73.3920  219.6170 C   0  0  0  0  0  0  0  0  0  0  0  0
  140.0950   71.4610  223.4190 C   0  0  0  0  0  0  0  0  0  0  0  0
  139.5210   70.2080  223.3480 C   0  0  0  0  0  0  0  0  0  0  0  0
  139.4420   69.3570  224.4370 C   0  0  0  0  0  0  0  0  0  0  0  0
  139.9720   69.8230  225.6230 C   0  0  0  0  0  0  0  0  0  0  0  0
  139.9210   69.0150  226.7470 C   0  0  0  0  0  0  0  0  0  0  0  0
  140.4400   69.4480  227.9490 C   0  0  0  0  0  0  0  0  0  0  0  0
  140.3800   68.6360  229.0430 F   0  0  0  0  0  0  0  0  0  0  0  0
  141.0100   70.6960  228.0160 C   0  0  0  0  0  0  0  0  0  0  0  0
  141.0670   71.5180  226.8980 C   0  0  0  0  0  0  0  0  0  0  0  0
  140.5440   71.0890  225.6750 C   0  0  0  0  0  0  0  0  0  0  0  0
  140.6030   71.8930  224.5860 N   0  0  0  0  0  0  0  0  0  0  0  0
  138.8310   73.8460  222.9190 H   0  0  0  0  0  0  0  0  0  0  0  0
  139.4796   73.5059  220.0075 H   0  0  0  0  0  0  0  0  0  0  0  0
  138.6710   74.9184  220.7207 H   0  0  0  0  0  0  0  0  0  0  0  0
  139.6345   75.0419  218.6063 H   0  0  0  0  0  0  0  0  0  0  0  0
  140.1833   76.7966  218.5841 H   0  0  0  0  0  0  0  0  0  0  0  0
  141.0364   74.4861  216.9377 H   0  0  0  0  0  0  0  0  0  0  0  0
  140.6478   76.2388  216.5261 H   0  0  0  0  0  0  0  0  0  0  0  0
  143.1701   74.9553  217.0493 H   0  0  0  0  0  0  0  0  0  0  0  0
  142.7395   76.5790  216.3307 H   0  0  0  0  0  0  0  0  0  0  0  0
  144.1794   76.6725  218.3374 H   0  0  0  0  0  0  0  0  0  0  0  0
  142.5819   77.5596  218.4365 H   0  0  0  0  0  0  0  0  0  0  0  0
  142.9813   76.5832  220.4801 H   0  0  0  0  0  0  0  0  0  0  0  0
  145.2481   75.7012  220.7528 H   0  0  0  0  0  0  0  0  0  0  0  0
  145.6978   71.4319  220.5903 H   0  0  0  0  0  0  0  0  0  0  0  0
  142.0981   73.2912  219.1698 H   0  0  0  0  0  0  0  0  0  0  0  0
  139.1088   69.8712  222.3854 H   0  0  0  0  0  0  0  0  0  0  0  0
  138.9808   68.3612  224.3610 H   0  0  0  0  0  0  0  0  0  0  0  0
  139.4618   68.0177  226.6801 H   0  0  0  0  0  0  0  0  0  0  0  0
  141.4278   71.0499  228.9701 H   0  0  0  0  0  0  0  0  0  0  0  0
  141.5272   72.5141  226.9757 H   0  0  0  0  0  0  0  0  0  0  0  0
  1  2  2  0
  2  3  1  0
  3  4  1  0
  4  5  1  0
  5  6  2  0
  5  7  1  0
  7  8  1  0
  8  9  1  0
  9 10  1  0
 10 11  1  0
 11 12  1  0
 12 13  1  0
 13 14  2  0
 14 15  1  0
 15 16  1  0
 15 17  2  0
 17 18  1  0
 18 19  1  0
 18 20  2  0
  2 21  1  0
 21 22  2  0
 22 23  1  0
 23 24  2  0
 24 25  1  0
 25 26  2  0
 26 27  1  0
 26 28  1  0
 28 29  2  0
 29 30  1  0
 30 31  2  0
 12  7  1  0
 20 13  1  0
 31 21  1  0
 30 24  1  0
  3 32  1  0
  4 33  1  0
  4 34  1  0
  8 35  1  0
  8 36  1  0
  9 37  1  0
  9 38  1  0
 10 39  1  0
 10 40  1  0
 11 41  1  0
 11 42  1  0
 12 43  1  1
 14 44  1  0
 17 45  1  0
 20 46  1  0
 22 47  1  0
 23 48  1  0
 25 49  1  0
 28 50  1  0
 29 51  1  0
M  END
>  <smiles>  (50) 
O=C(NCC(=O)N1CCCCC1c1cc(F)cc(F)c1)c1ccc2cc(F)ccc2n1

>  <score_type>  (50) 
oracle

>  <origin>  (50) 
autodockgpu

>  <m_score__min__energy>  (50) 
-8.9000000000000004

>  <m_primary>  (50) 
energy

>  <rmsd>  (50) 
1.5883893698081772

>  <m_score__min__rmsd>  (50) 
1.5883893698081772

>  <meeko>  (50) 
{"free_energy": -8.38, "intermolecular_energy": -9.87, "internal_energy": -1.67, "cluster_size": 12, "cluster_id": 2, "rank_in_cluster": 1}

>  <energy>  (50) 
-7.02

>  <cluster_rmsd>  (50) 
0.0

>  <cluster>  (50) 
6

$$$$

     RDKit          3D

 51 54  0  0  0  0  0  0  0  0999 V2000
  140.0740   71.5890  221.0390 O   0  0  0  0  0  0  0  0  0  0  0  0
  139.9120   72.1620  222.1610 C   0  0  0  0  0  0  0  0  0  0  0  0
  139.6960   73.5620  222.2750 N   0  0  0  0  0  0  0  0  0  0  0  0
  139.6450   74.4270  221.1240 C   0  0  0  0  0  0  0  0  0  0  0  0
  140.4650   75.6340  221.4630 C   0  0  0  0  0  0  0  0  0  0  0  0
  140.3590   76.2320  222.5650 O   0  0  0  0  0  0  0  0  0  0  0  0
  141.4180   76.1670  220.5330 N   0  0  0  0  0  0  0  0  0  0  0  0
  141.8030   77.5590  220.7610 C   0  0  0  0  0  0  0  0  0  0  0  0
  141.9160   78.2970  219.4280 C   0  0  0  0  0  0  0  0  0  0  0  0
  142.9360   77.5270  218.6210 C   0  0  0  0  0  0  0  0  0  0  0  0
  142.4160   76.1580  218.2860 C   0  0  0  0  0  0  0  0  0  0  0  0
  141.9370   75.3640  219.4670 C   0  0  1  0  0  0  0  0  0  0  0  0
  142.9520   74.3670  219.8940 C   0  0  0  0  0  0  0  0  0  0  0  0
  142.6460   73.0220  220.0470 C   0  0  0  0  0  0  0  0  0  0  0  0
  143.5780   72.0860  220.4430 C   0  0  0  0  0  0  0  0  0  0  0  0
  143.1980   70.7840  220.5690 F   0  0  0  0  0  0  0  0  0  0  0  0
  144.8620   72.5030  220.6950 C   0  0  0  0  0  0  0  0  0  0  0  0
  145.2210   73.8140  220.5610 C   0  0  0  0  0  0  0  0  0  0  0  0
  146.4920   74.2050  220.8150 F   0  0  0  0  0  0  0  0  0  0  0  0
  144.2540   74.7290  220.1600 C   0  0  0  0  0  0  0  0  0  0  0  0
  139.9520   71.3500  223.3760 C   0  0  0  0  0  0  0  0  0  0  0  0
  139.5240   70.0390  223.3630 C   0  0  0  0  0  0  0  0  0  0  0  0
  139.5420   69.2320  224.4920 C   0  0  0  0  0  0  0  0  0  0  0  0
  140.0250   69.8200  225.6630 C   0  0  0  0  0  0  0  0  0  0  0  0
  140.0570   69.0330  226.8170 C   0  0  0  0  0  0  0  0  0  0  0  0
  140.5260   69.5740  227.9990 C   0  0  0  0  0  0  0  0  0  0  0  0
  140.5380   68.7710  229.0940 F   0  0  0  0  0  0  0  0  0  0  0  0
  140.9590   70.8840  228.0280 C   0  0  0  0  0  0  0  0  0  0  0  0
  140.9180   71.6410  226.8750 C   0  0  0  0  0  0  0  0  0  0  0  0
  140.4510   71.1280  225.6720 C   0  0  0  0  0  0  0  0  0  0  0  0
  140.4140   71.8770  224.5460 N   0  0  0  0  0  0  0  0  0  0  0  0
  139.5710   73.9560  223.2550 H   0  0  0  0  0  0  0  0  0  0  0  0
  140.0659   73.9160  220.2455 H   0  0  0  0  0  0  0  0  0  0  0  0
  138.6089   74.7052  220.8808 H   0  0  0  0  0  0  0  0  0  0  0  0
  141.0416   78.0496  221.3852 H   0  0  0  0  0  0  0  0  0  0  0  0
  142.7775   77.5844  221.2706 H   0  0  0  0  0  0  0  0  0  0  0  0
  140.9452   78.3062  218.9109 H   0  0  0  0  0  0  0  0  0  0  0  0
  142.2163   79.3459  219.5682 H   0  0  0  0  0  0  0  0  0  0  0  0
  143.1470   78.0722  217.6892 H   0  0  0  0  0  0  0  0  0  0  0  0
  143.8556   77.4230  219.2156 H   0  0  0  0  0  0  0  0  0  0  0  0
  141.5753   76.2724  217.5859 H   0  0  0  0  0  0  0  0  0  0  0  0
  143.2617   75.5999  217.8580 H   0  0  0  0  0  0  0  0  0  0  0  0
  141.0604   74.7908  219.1308 H   0  0  0  0  0  0  0  0  0  0  0  0
  141.6175   72.6888  219.8440 H   0  0  0  0  0  0  0  0  0  0  0  0
  145.6159   71.7669  221.0109 H   0  0  0  0  0  0  0  0  0  0  0  0
  144.5406   75.7854  220.0507 H   0  0  0  0  0  0  0  0  0  0  0  0
  139.1528   69.6152  222.4182 H   0  0  0  0  0  0  0  0  0  0  0  0
  139.1955   68.1883  224.4659 H   0  0  0  0  0  0  0  0  0  0  0  0
  139.7111   67.9893  226.7849 H   0  0  0  0  0  0  0  0  0  0  0  0
  141.3345   71.3221  228.9645 H   0  0  0  0  0  0  0  0  0  0  0  0
  141.2663   72.6838  226.9099 H   0  0  0  0  0  0  0  0  0  0  0  0
  1  2  2  0
  2  3  1  0
  3  4  1  0
  4  5  1  0
  5  6  2  0
  5  7  1  0
  7  8  1  0
  8  9  1  0
  9 10  1  0
 10 11  1  0
 11 12  1  0
 12 13  1  0
 13 14  2  0
 14 15  1  0
 15 16  1  0
 15 17  2  0
 17 18  1  0
 18 19  1  0
 18 20  2  0
  2 21  1  0
 21 22  2  0
 22 23  1  0
 23 24  2  0
 24 25  1  0
 25 26  2  0
 26 27  1  0
 26 28  1  0
 28 29  2  0
 29 30  1  0
 30 31  2  0
 12  7  1  0
 20 13  1  0
 31 21  1  0
 30 24  1  0
  3 32  1  0
  4 33  1  0
  4 34  1  0
  8 35  1  0
  8 36  1  0
  9 37  1  0
  9 38  1  0
 10 39  1  0
 10 40  1  0
 11 41  1  0
 11 42  1  0
 12 43  1  6
 14 44  1  0
 17 45  1  0
 20 46  1  0
 22 47  1  0
 23 48  1  0
 25 49  1  0
 28 50  1  0
 29 51  1  0
M  END
>  <smiles>  (51) 
O=C(NCC(=O)N1CCCCC1c1cc(F)cc(F)c1)c1ccc2cc(F)ccc2n1

>  <score_type>  (51) 
oracle

>  <origin>  (51) 
autodockgpu

>  <m_score__min__energy>  (51) 
-8.6600000000000001

>  <m_primary>  (51) 
energy

>  <rmsd>  (51) 
2.1805250973996824

>  <m_score__min__rmsd>  (51) 
2.1805250973996824

>  <meeko>  (51) 
{"free_energy": -8.52, "intermolecular_energy": -10.01, "internal_energy": -2.13, "cluster_size": 20, "cluster_id": 3, "rank_in_cluster": 4}

>  <energy>  (51) 
-8.66

>  <cluster_rmsd>  (51) 
0.0

>  <cluster>  (51) 
1

$$$$

     RDKit          3D

 51 54  0  0  0  0  0  0  0  0999 V2000
  140.0610   71.6490  221.0720 O   0  0  0  0  0  0  0  0  0  0  0  0
  139.9080   72.2100  222.2010 C   0  0  0  0  0  0  0  0  0  0  0  0
  139.6940   73.6090  222.3320 N   0  0  0  0  0  0  0  0  0  0  0  0
  139.6350   74.4860  221.1900 C   0  0  0  0  0  0  0  0  0  0  0  0
  140.5010   75.6650  221.5160 C   0  0  0  0  0  0  0  0  0  0  0  0
  140.4530   76.2470  222.6310 O   0  0  0  0  0  0  0  0  0  0  0  0
  141.4330   76.1870  220.5590 N   0  0  0  0  0  0  0  0  0  0  0  0
  141.8260   77.5800  220.7650 C   0  0  0  0  0  0  0  0  0  0  0  0
  141.9080   78.3050  219.4230 C   0  0  0  0  0  0  0  0  0  0  0  0
  142.9080   77.5250  218.6000 C   0  0  0  0  0  0  0  0  0  0  0  0
  142.3780   76.1540  218.2900 C   0  0  0  0  0  0  0  0  0  0  0  0
  141.9250   75.3720  219.4900 C   0  0  1  0  0  0  0  0  0  0  0  0
  142.9490   74.3780  219.9030 C   0  0  0  0  0  0  0  0  0  0  0  0
  142.6490   73.0310  220.0510 C   0  0  0  0  0  0  0  0  0  0  0  0
  143.5890   72.0960  220.4340 C   0  0  0  0  0  0  0  0  0  0  0  0
  143.2160   70.7920  220.5560 F   0  0  0  0  0  0  0  0  0  0  0  0
  144.8730   72.5170  220.6770 C   0  0  0  0  0  0  0  0  0  0  0  0
  145.2260   73.8310  220.5470 C   0  0  0  0  0  0  0  0  0  0  0  0
  146.4970   74.2260  220.7920 F   0  0  0  0  0  0  0  0  0  0  0  0
  144.2510   74.7440  220.1590 C   0  0  0  0  0  0  0  0  0  0  0  0
  139.9540   71.3850  223.4070 C   0  0  0  0  0  0  0  0  0  0  0  0
  139.5120   70.0790  223.3860 C   0  0  0  0  0  0  0  0  0  0  0  0
  139.5360   69.2590  224.5060 C   0  0  0  0  0  0  0  0  0  0  0  0
  140.0410   69.8300  225.6760 C   0  0  0  0  0  0  0  0  0  0  0  0
  140.0790   69.0300  226.8220 C   0  0  0  0  0  0  0  0  0  0  0  0
  140.5700   69.5530  228.0020 C   0  0  0  0  0  0  0  0  0  0  0  0
  140.5880   68.7390  229.0890 F   0  0  0  0  0  0  0  0  0  0  0  0
  141.0180   70.8580  228.0400 C   0  0  0  0  0  0  0  0  0  0  0  0
  140.9690   71.6280  226.8950 C   0  0  0  0  0  0  0  0  0  0  0  0
  140.4810   71.1330  225.6940 C   0  0  0  0  0  0  0  0  0  0  0  0
  140.4370   71.8940  224.5760 N   0  0  0  0  0  0  0  0  0  0  0  0
  139.5750   73.9930  223.3170 H   0  0  0  0  0  0  0  0  0  0  0  0
  140.0145   73.9712  220.2951 H   0  0  0  0  0  0  0  0  0  0  0  0
  138.6011   74.7970  220.9793 H   0  0  0  0  0  0  0  0  0  0  0  0
  141.0809   78.0780  221.4028 H   0  0  0  0  0  0  0  0  0  0  0  0
  142.8125   77.6082  221.2509 H   0  0  0  0  0  0  0  0  0  0  0  0
  140.9252   78.3106  218.9289 H   0  0  0  0  0  0  0  0  0  0  0  0
  142.2124   79.3549  219.5455 H   0  0  0  0  0  0  0  0  0  0  0  0
  143.0986   78.0610  217.6585 H   0  0  0  0  0  0  0  0  0  0  0  0
  143.8407   77.4246  219.1744 H   0  0  0  0  0  0  0  0  0  0  0  0
  141.5215   76.2634  217.6085 H   0  0  0  0  0  0  0  0  0  0  0  0
  143.2125   75.5901  217.8476 H   0  0  0  0  0  0  0  0  0  0  0  0
  141.0400   74.7964  219.1810 H   0  0  0  0  0  0  0  0  0  0  0  0
  141.6201   72.6950  219.8550 H   0  0  0  0  0  0  0  0  0  0  0  0
  145.6326   71.7823  220.9823 H   0  0  0  0  0  0  0  0  0  0  0  0
  144.5320   75.8021  220.0523 H   0  0  0  0  0  0  0  0  0  0  0  0
  139.1239   69.6695  222.4417 H   0  0  0  0  0  0  0  0  0  0  0  0
  139.1779   68.2194  224.4736 H   0  0  0  0  0  0  0  0  0  0  0  0
  139.7201   67.9909  226.7840 H   0  0  0  0  0  0  0  0  0  0  0  0
  141.4113   71.2816  228.9759 H   0  0  0  0  0  0  0  0  0  0  0  0
  141.3282   72.6669  226.9361 H   0  0  0  0  0  0  0  0  0  0  0  0
  1  2  2  0
  2  3  1  0
  3  4  1  0
  4  5  1  0
  5  6  2  0
  5  7  1  0
  7  8  1  0
  8  9  1  0
  9 10  1  0
 10 11  1  0
 11 12  1  0
 12 13  1  0
 13 14  2  0
 14 15  1  0
 15 16  1  0
 15 17  2  0
 17 18  1  0
 18 19  1  0
 18 20  2  0
  2 21  1  0
 21 22  2  0
 22 23  1  0
 23 24  2  0
 24 25  1  0
 25 26  2  0
 26 27  1  0
 26 28  1  0
 28 29  2  0
 29 30  1  0
 30 31  2  0
 12  7  1  0
 20 13  1  0
 31 21  1  0
 30 24  1  0
  3 32  1  0
  4 33  1  0
  4 34  1  0
  8 35  1  0
  8 36  1  0
  9 37  1  0
  9 38  1  0
 10 39  1  0
 10 40  1  0
 11 41  1  0
 11 42  1  0
 12 43  1  6
 14 44  1  0
 17 45  1  0
 20 46  1  0
 22 47  1  0
 23 48  1  0
 25 49  1  0
 28 50  1  0
 29 51  1  0
M  END
>  <smiles>  (52) 
O=C(NCC(=O)N1CCCCC1c1cc(F)cc(F)c1)c1ccc2cc(F)ccc2n1

>  <score_type>  (52) 
oracle

>  <origin>  (52) 
autodockgpu

>  <m_score__min__energy>  (52) 
-8.6600000000000001

>  <m_primary>  (52) 
energy

>  <rmsd>  (52) 
2.1896429603874785

>  <m_score__min__rmsd>  (52) 
2.1896429603874785

>  <meeko>  (52) 
{"free_energy": -8.52, "intermolecular_energy": -10.01, "internal_energy": -2.13, "cluster_size": 20, "cluster_id": 3, "rank_in_cluster": 2}

>  <energy>  (52) 
-8.62

>  <cluster_rmsd>  (52) 
0.14

>  <cluster>  (52) 
1

$$$$

     RDKit          3D

 51 54  0  0  0  0  0  0  0  0999 V2000
  140.0680   71.5800  221.0350 O   0  0  0  0  0  0  0  0  0  0  0  0
  139.9040   72.1550  222.1560 C   0  0  0  0  0  0  0  0  0  0  0  0
  139.6880   73.5560  222.2670 N   0  0  0  0  0  0  0  0  0  0  0  0
  139.6410   74.4190  221.1140 C   0  0  0  0  0  0  0  0  0  0  0  0
  140.4600   75.6270  221.4540 C   0  0  0  0  0  0  0  0  0  0  0  0
  140.3480   76.2270  222.5550 O   0  0  0  0  0  0  0  0  0  0  0  0
  141.4170   76.1580  220.5270 N   0  0  0  0  0  0  0  0  0  0  0  0
  141.8040   77.5490  220.7570 C   0  0  0  0  0  0  0  0  0  0  0  0
  141.9230   78.2870  219.4250 C   0  0  0  0  0  0  0  0  0  0  0  0
  142.9440   77.5140  218.6210 C   0  0  0  0  0  0  0  0  0  0  0  0
  142.4220   76.1470  218.2840 C   0  0  0  0  0  0  0  0  0  0  0  0
  141.9370   75.3530  219.4640 C   0  0  1  0  0  0  0  0  0  0  0  0
  142.9500   74.3540  219.8940 C   0  0  0  0  0  0  0  0  0  0  0  0
  144.2600   74.7110  220.1820 C   0  0  0  0  0  0  0  0  0  0  0  0
  145.2100   73.7940  220.5830 C   0  0  0  0  0  0  0  0  0  0  0  0
  146.4760   74.2240  220.8470 F   0  0  0  0  0  0  0  0  0  0  0  0
  144.8430   72.4770  220.7020 C   0  0  0  0  0  0  0  0  0  0  0  0
  143.5670   72.0680  220.4330 C   0  0  0  0  0  0  0  0  0  0  0  0
  143.2260   70.7640  220.5580 F   0  0  0  0  0  0  0  0  0  0  0  0
  142.6360   73.0200  220.0320 C   0  0  0  0  0  0  0  0  0  0  0  0
  139.9380   71.3450  223.3720 C   0  0  0  0  0  0  0  0  0  0  0  0
  139.5090   70.0350  223.3610 C   0  0  0  0  0  0  0  0  0  0  0  0
  139.5230   69.2290  224.4910 C   0  0  0  0  0  0  0  0  0  0  0  0
  140.0030   69.8200  225.6620 C   0  0  0  0  0  0  0  0  0  0  0  0
  140.0310   69.0340  226.8180 C   0  0  0  0  0  0  0  0  0  0  0  0
  140.4970   69.5770  228.0000 C   0  0  0  0  0  0  0  0  0  0  0  0
  140.5050   68.7760  229.0970 F   0  0  0  0  0  0  0  0  0  0  0  0
  140.9310   70.8870  228.0280 C   0  0  0  0  0  0  0  0  0  0  0  0
  140.8940   71.6420  226.8740 C   0  0  0  0  0  0  0  0  0  0  0  0
  140.4300   71.1270  225.6710 C   0  0  0  0  0  0  0  0  0  0  0  0
  140.3970   71.8740  224.5430 N   0  0  0  0  0  0  0  0  0  0  0  0
  139.5600   73.9520  223.2450 H   0  0  0  0  0  0  0  0  0  0  0  0
  140.0651   73.9064  220.2380 H   0  0  0  0  0  0  0  0  0  0  0  0
  138.6058   74.6967  220.8665 H   0  0  0  0  0  0  0  0  0  0  0  0
  141.0415   78.0409  221.3788 H   0  0  0  0  0  0  0  0  0  0  0  0
  142.7767   77.5723  221.2701 H   0  0  0  0  0  0  0  0  0  0  0  0
  140.9539   78.2989  218.9048 H   0  0  0  0  0  0  0  0  0  0  0  0
  142.2254   79.3352  219.5663 H   0  0  0  0  0  0  0  0  0  0  0  0
  143.1596   78.0589  217.6901 H   0  0  0  0  0  0  0  0  0  0  0  0
  143.8611   77.4073  219.2189 H   0  0  0  0  0  0  0  0  0  0  0  0
  141.5838   76.2637  217.5813 H   0  0  0  0  0  0  0  0  0  0  0  0
  143.2678   75.5870  217.8584 H   0  0  0  0  0  0  0  0  0  0  0  0
  141.0605   74.7804  219.1266 H   0  0  0  0  0  0  0  0  0  0  0  0
  144.5526   75.7671  220.0868 H   0  0  0  0  0  0  0  0  0  0  0  0
  145.5908   71.7357  221.0203 H   0  0  0  0  0  0  0  0  0  0  0  0
  141.6076   72.6946  219.8164 H   0  0  0  0  0  0  0  0  0  0  0  0
  139.1397   69.6101  222.4160 H   0  0  0  0  0  0  0  0  0  0  0  0
  139.1762   68.1854  224.4657 H   0  0  0  0  0  0  0  0  0  0  0  0
  139.6844   67.9905  226.7867 H   0  0  0  0  0  0  0  0  0  0  0  0
  141.3041   71.3263  228.9649 H   0  0  0  0  0  0  0  0  0  0  0  0
  141.2430   72.6846  226.9080 H   0  0  0  0  0  0  0  0  0  0  0  0
  1  2  2  0
  2  3  1  0
  3  4  1  0
  4  5  1  0
  5  6  2  0
  5  7  1  0
  7  8  1  0
  8  9  1  0
  9 10  1  0
 10 11  1  0
 11 12  1  0
 12 13  1  0
 13 14  2  0
 14 15  1  0
 15 16  1  0
 15 17  2  0
 17 18  1  0
 18 19  1  0
 18 20  2  0
  2 21  1  0
 21 22  2  0
 22 23  1  0
 23 24  2  0
 24 25  1  0
 25 26  2  0
 26 27  1  0
 26 28  1  0
 28 29  2  0
 29 30  1  0
 30 31  2  0
 12  7  1  0
 20 13  1  0
 31 21  1  0
 30 24  1  0
  3 32  1  0
  4 33  1  0
  4 34  1  0
  8 35  1  0
  8 36  1  0
  9 37  1  0
  9 38  1  0
 10 39  1  0
 10 40  1  0
 11 41  1  0
 11 42  1  0
 12 43  1  6
 14 44  1  0
 17 45  1  0
 20 46  1  0
 22 47  1  0
 23 48  1  0
 25 49  1  0
 28 50  1  0
 29 51  1  0
M  END
>  <smiles>  (53) 
O=C(NCC(=O)N1CCCCC1c1cc(F)cc(F)c1)c1ccc2cc(F)ccc2n1

>  <score_type>  (53) 
oracle

>  <origin>  (53) 
autodockgpu

>  <m_score__min__energy>  (53) 
-8.6600000000000001

>  <m_primary>  (53) 
energy

>  <rmsd>  (53) 
2.1776948627067014

>  <m_score__min__rmsd>  (53) 
2.1776948627067014

>  <meeko>  (53) 
{"free_energy": -8.5, "intermolecular_energy": -9.99, "internal_energy": -2.14, "cluster_size": 20, "cluster_id": 3, "rank_in_cluster": 13}

>  <energy>  (53) 
-8.61

>  <cluster_rmsd>  (53) 
0.11

>  <cluster>  (53) 
1

$$$$

     RDKit          3D

 51 54  0  0  0  0  0  0  0  0999 V2000
  139.5420   71.7110  220.9760 O   0  0  0  0  0  0  0  0  0  0  0  0
  139.5820   72.2560  222.1220 C   0  0  0  0  0  0  0  0  0  0  0  0
  139.5300   73.6660  222.2960 N   0  0  0  0  0  0  0  0  0  0  0  0
  139.4260   74.5730  221.1810 C   0  0  0  0  0  0  0  0  0  0  0  0
  140.1870   75.8060  221.5640 C   0  0  0  0  0  0  0  0  0  0  0  0
  140.6500   75.9780  222.7230 O   0  0  0  0  0  0  0  0  0  0  0  0
  140.4240   76.8550  220.6170 N   0  0  0  0  0  0  0  0  0  0  0  0
  139.4220   76.9800  219.5590 C   0  0  0  0  0  0  0  0  0  0  0  0
  140.1030   77.2780  218.2240 C   0  0  0  0  0  0  0  0  0  0  0  0
  140.8900   78.5500  218.4440 C   0  0  0  0  0  0  0  0  0  0  0  0
  142.0020   78.3160  219.4270 C   0  0  0  0  0  0  0  0  0  0  0  0
  141.5700   77.7050  220.7280 C   0  0  1  0  0  0  0  0  0  0  0  0
  141.4650   78.7320  221.7970 C   0  0  0  0  0  0  0  0  0  0  0  0
  140.2400   79.1590  222.2910 C   0  0  0  0  0  0  0  0  0  0  0  0
  140.1280   80.1110  223.2830 C   0  0  0  0  0  0  0  0  0  0  0  0
  138.8880   80.4760  223.7140 F   0  0  0  0  0  0  0  0  0  0  0  0
  141.2750   80.6570  223.8020 C   0  0  0  0  0  0  0  0  0  0  0  0
  142.5090   80.2750  223.3560 C   0  0  0  0  0  0  0  0  0  0  0  0
  143.6280   80.8260  223.8820 F   0  0  0  0  0  0  0  0  0  0  0  0
  142.5830   79.3130  222.3550 C   0  0  0  0  0  0  0  0  0  0  0  0
  139.6870   71.4010  223.3030 C   0  0  0  0  0  0  0  0  0  0  0  0
  139.2390   70.0970  223.2720 C   0  0  0  0  0  0  0  0  0  0  0  0
  139.3170   69.2490  224.3680 C   0  0  0  0  0  0  0  0  0  0  0  0
  139.8840   69.7890  225.5250 C   0  0  0  0  0  0  0  0  0  0  0  0
  139.9780   68.9600  226.6460 C   0  0  0  0  0  0  0  0  0  0  0  0
  140.5310   69.4520  227.8130 C   0  0  0  0  0  0  0  0  0  0  0  0
  140.6020   68.6100  228.8760 F   0  0  0  0  0  0  0  0  0  0  0  0
  140.9860   70.7540  227.8600 C   0  0  0  0  0  0  0  0  0  0  0  0
  140.8820   71.5530  226.7390 C   0  0  0  0  0  0  0  0  0  0  0  0
  140.3310   71.0900  225.5530 C   0  0  0  0  0  0  0  0  0  0  0  0
  140.2320   71.8790  224.4580 N   0  0  0  0  0  0  0  0  0  0  0  0
  139.5690   74.0350  223.2920 H   0  0  0  0  0  0  0  0  0  0  0  0
  139.8651   74.1198  220.2800 H   0  0  0  0  0  0  0  0  0  0  0  0
  138.3753   74.8077  220.9554 H   0  0  0  0  0  0  0  0  0  0  0  0
  138.8588   76.0386  219.4781 H   0  0  0  0  0  0  0  0  0  0  0  0
  138.7379   77.8051  219.8065 H   0  0  0  0  0  0  0  0  0  0  0  0
  140.7756   76.4540  217.9437 H   0  0  0  0  0  0  0  0  0  0  0  0
  139.3717   77.3875  217.4096 H   0  0  0  0  0  0  0  0  0  0  0  0
  141.3171   78.8819  217.4862 H   0  0  0  0  0  0  0  0  0  0  0  0
  140.2160   79.3211  218.8454 H   0  0  0  0  0  0  0  0  0  0  0  0
  142.7366   77.6437  218.9598 H   0  0  0  0  0  0  0  0  0  0  0  0
  142.4152   79.3059  219.6704 H   0  0  0  0  0  0  0  0  0  0  0  0
  142.3690   77.0146  221.0361 H   0  0  0  0  0  0  0  0  0  0  0  0
  139.3212   78.7204  221.8745 H   0  0  0  0  0  0  0  0  0  0  0  0
  141.1996   81.4176  224.5931 H   0  0  0  0  0  0  0  0  0  0  0  0
  143.5746   79.0030  221.9936 H   0  0  0  0  0  0  0  0  0  0  0  0
  138.8012   69.7127  222.3389 H   0  0  0  0  0  0  0  0  0  0  0  0
  138.9534   68.2116  224.3279 H   0  0  0  0  0  0  0  0  0  0  0  0
  139.6143   67.9229  226.5998 H   0  0  0  0  0  0  0  0  0  0  0  0
  141.4287   71.1526  228.7847 H   0  0  0  0  0  0  0  0  0  0  0  0
  141.2475   72.5893  226.7877 H   0  0  0  0  0  0  0  0  0  0  0  0
  1  2  2  0
  2  3  1  0
  3  4  1  0
  4  5  1  0
  5  6  2  0
  5  7  1  0
  7  8  1  0
  8  9  1  0
  9 10  1  0
 10 11  1  0
 11 12  1  0
 12 13  1  0
 13 14  2  0
 14 15  1  0
 15 16  1  0
 15 17  2  0
 17 18  1  0
 18 19  1  0
 18 20  2  0
  2 21  1  0
 21 22  2  0
 22 23  1  0
 23 24  2  0
 24 25  1  0
 25 26  2  0
 26 27  1  0
 26 28  1  0
 28 29  2  0
 29 30  1  0
 30 31  2  0
 12  7  1  0
 20 13  1  0
 31 21  1  0
 30 24  1  0
  3 32  1  0
  4 33  1  0
  4 34  1  0
  8 35  1  0
  8 36  1  0
  9 37  1  0
  9 38  1  0
 10 39  1  0
 10 40  1  0
 11 41  1  0
 11 42  1  0
 12 43  1  1
 14 44  1  0
 17 45  1  0
 20 46  1  0
 22 47  1  0
 23 48  1  0
 25 49  1  0
 28 50  1  0
 29 51  1  0
M  END
>  <smiles>  (54) 
O=C(NCC(=O)N1CCCCC1c1cc(F)cc(F)c1)c1ccc2cc(F)ccc2n1

>  <score_type>  (54) 
oracle

>  <origin>  (54) 
autodockgpu

>  <m_score__min__energy>  (54) 
-8.6600000000000001

>  <m_primary>  (54) 
energy

>  <rmsd>  (54) 
1.5544249609289074

>  <m_score__min__rmsd>  (54) 
1.5544249609289074

>  <meeko>  (54) 
{"free_energy": -8.39, "intermolecular_energy": -9.88, "internal_energy": -1.99, "cluster_size": 16, "cluster_id": 1, "rank_in_cluster": 11}

>  <energy>  (54) 
-8.61

>  <cluster_rmsd>  (54) 
0.11

>  <cluster>  (54) 
1

$$$$

     RDKit          3D

 51 54  0  0  0  0  0  0  0  0999 V2000
  139.9370   70.7310  221.2900 O   0  0  0  0  0  0  0  0  0  0  0  0
  139.8370   71.3550  222.3920 C   0  0  0  0  0  0  0  0  0  0  0  0
  139.7350   72.7710  222.4570 N   0  0  0  0  0  0  0  0  0  0  0  0
  139.7360   73.5950  221.2750 C   0  0  0  0  0  0  0  0  0  0  0  0
  140.9970   74.4040  221.3230 C   0  0  0  0  0  0  0  0  0  0  0  0
  141.0700   75.5010  221.9370 O   0  0  0  0  0  0  0  0  0  0  0  0
  142.1890   73.9590  220.6620 N   0  0  0  0  0  0  0  0  0  0  0  0
  142.1720   72.5660  220.2150 C   0  0  0  0  0  0  0  0  0  0  0  0
  143.5320   71.9180  220.4710 C   0  0  0  0  0  0  0  0  0  0  0  0
  144.5350   72.7660  219.7230 C   0  0  0  0  0  0  0  0  0  0  0  0
  144.6170   74.1390  220.3280 C   0  0  0  0  0  0  0  0  0  0  0  0
  143.2980   74.8420  220.4670 C   0  0  1  0  0  0  0  0  0  0  0  0
  143.1010   75.8380  219.3820 C   0  0  0  0  0  0  0  0  0  0  0  0
  142.5780   77.1000  219.6260 C   0  0  0  0  0  0  0  0  0  0  0  0
  142.3900   78.0340  218.6290 C   0  0  0  0  0  0  0  0  0  0  0  0
  141.8710   79.2520  218.9510 F   0  0  0  0  0  0  0  0  0  0  0  0
  142.7350   77.7010  217.3430 C   0  0  0  0  0  0  0  0  0  0  0  0
  143.2550   76.4730  217.0430 C   0  0  0  0  0  0  0  0  0  0  0  0
  143.5890   76.1640  215.7680 F   0  0  0  0  0  0  0  0  0  0  0  0
  143.4310   75.5570  218.0740 C   0  0  0  0  0  0  0  0  0  0  0  0
  139.8290   70.5860  223.6350 C   0  0  0  0  0  0  0  0  0  0  0  0
  139.2220   69.3500  223.6980 C   0  0  0  0  0  0  0  0  0  0  0  0
  139.1880   68.5860  224.8560 C   0  0  0  0  0  0  0  0  0  0  0  0
  139.8120   69.1390  225.9760 C   0  0  0  0  0  0  0  0  0  0  0  0
  139.7970   68.3940  227.1590 C   0  0  0  0  0  0  0  0  0  0  0  0
  140.4020   68.9020  228.2930 C   0  0  0  0  0  0  0  0  0  0  0  0
  140.3610   68.1420  229.4180 F   0  0  0  0  0  0  0  0  0  0  0  0
  141.0150   70.1370  228.2470 C   0  0  0  0  0  0  0  0  0  0  0  0
  141.0170   70.8530  227.0670 C   0  0  0  0  0  0  0  0  0  0  0  0
  140.4180   70.3720  225.9120 C   0  0  0  0  0  0  0  0  0  0  0  0
  140.4240   71.0810  224.7590 N   0  0  0  0  0  0  0  0  0  0  0  0
  139.6560   73.2090  223.4220 H   0  0  0  0  0  0  0  0  0  0  0  0
  139.7220   72.9658  220.3728 H   0  0  0  0  0  0  0  0  0  0  0  0
  138.8479   74.2432  221.2404 H   0  0  0  0  0  0  0  0  0  0  0  0
  141.3965   72.0156  220.7678 H   0  0  0  0  0  0  0  0  0  0  0  0
  141.9548   72.5355  219.1371 H   0  0  0  0  0  0  0  0  0  0  0  0
  143.7591   71.9148  221.5473 H   0  0  0  0  0  0  0  0  0  0  0  0
  143.5533   70.8711  220.1341 H   0  0  0  0  0  0  0  0  0  0  0  0
  145.5241   72.2876  219.7752 H   0  0  0  0  0  0  0  0  0  0  0  0
  144.2132   72.8572  218.6751 H   0  0  0  0  0  0  0  0  0  0  0  0
  145.0633   74.0464  221.3291 H   0  0  0  0  0  0  0  0  0  0  0  0
  145.2224   74.7467  219.6394 H   0  0  0  0  0  0  0  0  0  0  0  0
  143.3376   75.4108  221.4077 H   0  0  0  0  0  0  0  0  0  0  0  0
  142.3021   77.3663  220.6570 H   0  0  0  0  0  0  0  0  0  0  0  0
  142.5902   78.4366  216.5381 H   0  0  0  0  0  0  0  0  0  0  0  0
  143.8505   74.5684  217.8360 H   0  0  0  0  0  0  0  0  0  0  0  0
  138.7438   68.9519  222.7909 H   0  0  0  0  0  0  0  0  0  0  0  0
  138.6979   67.6018  224.8896 H   0  0  0  0  0  0  0  0  0  0  0  0
  139.3067   67.4097  227.1870 H   0  0  0  0  0  0  0  0  0  0  0  0
  141.4991   70.5485  229.1450 H   0  0  0  0  0  0  0  0  0  0  0  0
  141.5093   71.8364  227.0417 H   0  0  0  0  0  0  0  0  0  0  0  0
  1  2  2  0
  2  3  1  0
  3  4  1  0
  4  5  1  0
  5  6  2  0
  5  7  1  0
  7  8  1  0
  8  9  1  0
  9 10  1  0
 10 11  1  0
 11 12  1  0
 12 13  1  0
 13 14  2  0
 14 15  1  0
 15 16  1  0
 15 17  2  0
 17 18  1  0
 18 19  1  0
 18 20  2  0
  2 21  1  0
 21 22  2  0
 22 23  1  0
 23 24  2  0
 24 25  1  0
 25 26  2  0
 26 27  1  0
 26 28  1  0
 28 29  2  0
 29 30  1  0
 30 31  2  0
 12  7  1  0
 20 13  1  0
 31 21  1  0
 30 24  1  0
  3 32  1  0
  4 33  1  0
  4 34  1  0
  8 35  1  0
  8 36  1  0
  9 37  1  0
  9 38  1  0
 10 39  1  0
 10 40  1  0
 11 41  1  0
 11 42  1  0
 12 43  1  1
 14 44  1  0
 17 45  1  0
 20 46  1  0
 22 47  1  0
 23 48  1  0
 25 49  1  0
 28 50  1  0
 29 51  1  0
M  END
>  <smiles>  (55) 
O=C(NCC(=O)N1CCCCC1c1cc(F)cc(F)c1)c1ccc2cc(F)ccc2n1

>  <score_type>  (55) 
oracle

>  <origin>  (55) 
autodockgpu

>  <m_score__min__energy>  (55) 
-8.6600000000000001

>  <m_primary>  (55) 
energy

>  <rmsd>  (55) 
2.8744394277826455

>  <m_score__min__rmsd>  (55) 
2.8744394277826455

>  <meeko>  (55) 
{"free_energy": -8.21, "intermolecular_energy": -9.7, "internal_energy": -1.69, "cluster_size": 3, "cluster_id": 5, "rank_in_cluster": 1}

>  <energy>  (55) 
-8.6

>  <cluster_rmsd>  (55) 
0.09

>  <cluster>  (55) 
1

$$$$

     RDKit          3D

 51 54  0  0  0  0  0  0  0  0999 V2000
  137.0660   75.8010  222.0720 O   0  0  0  0  0  0  0  0  0  0  0  0
  138.3120   75.8640  222.3070 C   0  0  0  0  0  0  0  0  0  0  0  0
  139.1510   74.7160  222.2730 N   0  0  0  0  0  0  0  0  0  0  0  0
  138.6420   73.4030  221.9680 C   0  0  0  0  0  0  0  0  0  0  0  0
  139.7190   72.4320  222.3470 C   0  0  0  0  0  0  0  0  0  0  0  0
  140.8980   72.7980  222.5940 O   0  0  0  0  0  0  0  0  0  0  0  0
  139.4490   71.0270  222.4440 N   0  0  0  0  0  0  0  0  0  0  0  0
  139.9410   70.2180  221.3300 C   0  0  0  0  0  0  0  0  0  0  0  0
  138.9100   69.1520  220.9620 C   0  0  0  0  0  0  0  0  0  0  0  0
  138.6870   68.3480  222.2220 C   0  0  0  0  0  0  0  0  0  0  0  0
  138.0360   69.1970  223.2780 C   0  0  0  0  0  0  0  0  0  0  0  0
  138.7450   70.4880  223.5680 C   0  0  1  0  0  0  0  0  0  0  0  0
  139.5600   70.3890  224.8070 C   0  0  0  0  0  0  0  0  0  0  0  0
  139.6630   69.2080  225.5280 C   0  0  0  0  0  0  0  0  0  0  0  0
  140.4150   69.1020  226.6800 C   0  0  0  0  0  0  0  0  0  0  0  0
  140.4650   67.9060  227.3310 F   0  0  0  0  0  0  0  0  0  0  0  0
  141.0900   70.2100  227.1280 C   0  0  0  0  0  0  0  0  0  0  0  0
  141.0270   71.3990  226.4580 C   0  0  0  0  0  0  0  0  0  0  0  0
  141.7000   72.4800  226.9170 F   0  0  0  0  0  0  0  0  0  0  0  0
  140.2580   71.4690  225.3020 C   0  0  0  0  0  0  0  0  0  0  0  0
  138.9030   77.1630  222.6250 C   0  0  0  0  0  0  0  0  0  0  0  0
  138.1060   78.2690  222.8310 C   0  0  0  0  0  0  0  0  0  0  0  0
  138.6220   79.5210  223.1330 C   0  0  0  0  0  0  0  0  0  0  0  0
  140.0130   79.6090  223.2230 C   0  0  0  0  0  0  0  0  0  0  0  0
  140.5640   80.8570  223.5270 C   0  0  0  0  0  0  0  0  0  0  0  0
  141.9360   80.9910  223.6250 C   0  0  0  0  0  0  0  0  0  0  0  0
  142.4250   82.2220  223.9230 F   0  0  0  0  0  0  0  0  0  0  0  0
  142.7470   79.8930  223.4230 C   0  0  0  0  0  0  0  0  0  0  0  0
  142.1790   78.6720  223.1240 C   0  0  0  0  0  0  0  0  0  0  0  0
  140.8050   78.5040  223.0170 C   0  0  0  0  0  0  0  0  0  0  0  0
  140.2560   77.3020  222.7240 N   0  0  0  0  0  0  0  0  0  0  0  0
  140.1830   74.8620  222.4830 H   0  0  0  0  0  0  0  0  0  0  0  0
  137.7294   73.2045  222.5491 H   0  0  0  0  0  0  0  0  0  0  0  0
  138.3822   73.3140  220.9028 H   0  0  0  0  0  0  0  0  0  0  0  0
  140.1203   70.8669  220.4601 H   0  0  0  0  0  0  0  0  0  0  0  0
  140.8784   69.7256  221.6281 H   0  0  0  0  0  0  0  0  0  0  0  0
  137.9708   69.6229  220.6360 H   0  0  0  0  0  0  0  0  0  0  0  0
  139.2582   68.5191  220.1324 H   0  0  0  0  0  0  0  0  0  0  0  0
  138.0364   67.4908  221.9944 H   0  0  0  0  0  0  0  0  0  0  0  0
  139.6593   67.9960  222.5970 H   0  0  0  0  0  0  0  0  0  0  0  0
  137.0144   69.4339  222.9459 H   0  0  0  0  0  0  0  0  0  0  0  0
  138.0628   68.6112  224.2087 H   0  0  0  0  0  0  0  0  0  0  0  0
  137.9679   71.2409  223.7660 H   0  0  0  0  0  0  0  0  0  0  0  0
  139.1233   68.3203  225.1666 H   0  0  0  0  0  0  0  0  0  0  0  0
  141.6937   70.1392  228.0448 H   0  0  0  0  0  0  0  0  0  0  0  0
  140.2046   72.4251  224.7607 H   0  0  0  0  0  0  0  0  0  0  0  0
  137.0149   78.1539  222.7526 H   0  0  0  0  0  0  0  0  0  0  0  0
  137.9726   80.3945  223.2924 H   0  0  0  0  0  0  0  0  0  0  0  0
  139.9099   81.7268  223.6872 H   0  0  0  0  0  0  0  0  0  0  0  0
  143.8399   79.9908  223.5000 H   0  0  0  0  0  0  0  0  0  0  0  0
  142.8356   77.8038  222.9653 H   0  0  0  0  0  0  0  0  0  0  0  0
  1  2  2  0
  2  3  1  0
  3  4  1  0
  4  5  1  0
  5  6  2  0
  5  7  1  0
  7  8  1  0
  8  9  1  0
  9 10  1  0
 10 11  1  0
 11 12  1  0
 12 13  1  0
 13 14  2  0
 14 15  1  0
 15 16  1  0
 15 17  2  0
 17 18  1  0
 18 19  1  0
 18 20  2  0
  2 21  1  0
 21 22  2  0
 22 23  1  0
 23 24  2  0
 24 25  1  0
 25 26  2  0
 26 27  1  0
 26 28  1  0
 28 29  2  0
 29 30  1  0
 30 31  2  0
 12  7  1  0
 20 13  1  0
 31 21  1  0
 30 24  1  0
  3 32  1  0
  4 33  1  0
  4 34  1  0
  8 35  1  0
  8 36  1  0
  9 37  1  0
  9 38  1  0
 10 39  1  0
 10 40  1  0
 11 41  1  0
 11 42  1  0
 12 43  1  1
 14 44  1  0
 17 45  1  0
 20 46  1  0
 22 47  1  0
 23 48  1  0
 25 49  1  0
 28 50  1  0
 29 51  1  0
M  END
>  <smiles>  (56) 
O=C(NCC(=O)N1CCCCC1c1cc(F)cc(F)c1)c1ccc2cc(F)ccc2n1

>  <score_type>  (56) 
oracle

>  <origin>  (56) 
autodockgpu

>  <m_score__min__energy>  (56) 
-8.6600000000000001

>  <m_primary>  (56) 
energy

>  <rmsd>  (56) 
8.457117910118608

>  <m_score__min__rmsd>  (56) 
8.457117910118608

>  <meeko>  (56) 
{"free_energy": -8.02, "intermolecular_energy": -9.51, "internal_energy": -2.13, "cluster_size": 9, "cluster_id": 2, "rank_in_cluster": 8}

>  <energy>  (56) 
-8.58

>  <cluster_rmsd>  (56) 
0.37

>  <cluster>  (56) 
1

$$$$

     RDKit          3D

 51 54  0  0  0  0  0  0  0  0999 V2000
  140.0810   71.6700  221.0710 O   0  0  0  0  0  0  0  0  0  0  0  0
  139.9140   72.2220  222.2020 C   0  0  0  0  0  0  0  0  0  0  0  0
  139.6930   73.6200  222.3400 N   0  0  0  0  0  0  0  0  0  0  0  0
  139.6420   74.5050  221.2040 C   0  0  0  0  0  0  0  0  0  0  0  0
  140.5250   75.6700  221.5340 C   0  0  0  0  0  0  0  0  0  0  0  0
  140.4930   76.2420  222.6550 O   0  0  0  0  0  0  0  0  0  0  0  0
  141.4550   76.1890  220.5750 N   0  0  0  0  0  0  0  0  0  0  0  0
  141.8240   77.5930  220.7580 C   0  0  0  0  0  0  0  0  0  0  0  0
  141.9050   78.2950  219.4030 C   0  0  0  0  0  0  0  0  0  0  0  0
  142.9240   77.5160  218.6020 C   0  0  0  0  0  0  0  0  0  0  0  0
  142.4190   76.1310  218.3140 C   0  0  0  0  0  0  0  0  0  0  0  0
  141.9690   75.3640  219.5240 C   0  0  1  0  0  0  0  0  0  0  0  0
  143.0060   74.3940  219.9630 C   0  0  0  0  0  0  0  0  0  0  0  0
  142.7140   73.0560  220.1890 C   0  0  0  0  0  0  0  0  0  0  0  0
  143.6660   72.1450  220.5970 C   0  0  0  0  0  0  0  0  0  0  0  0
  143.2990   70.8480  220.7980 F   0  0  0  0  0  0  0  0  0  0  0  0
  144.9540   72.5800  220.7860 C   0  0  0  0  0  0  0  0  0  0  0  0
  145.3000   73.8860  220.5770 C   0  0  0  0  0  0  0  0  0  0  0  0
  146.5760   74.2950  220.7690 F   0  0  0  0  0  0  0  0  0  0  0  0
  144.3140   74.7760  220.1670 C   0  0  0  0  0  0  0  0  0  0  0  0
  139.9520   71.3890  223.4020 C   0  0  0  0  0  0  0  0  0  0  0  0
  139.5140   70.0820  223.3690 C   0  0  0  0  0  0  0  0  0  0  0  0
  139.5310   69.2550  224.4830 C   0  0  0  0  0  0  0  0  0  0  0  0
  140.0230   69.8190  225.6620 C   0  0  0  0  0  0  0  0  0  0  0  0
  140.0530   69.0120  226.8020 C   0  0  0  0  0  0  0  0  0  0  0  0
  140.5310   69.5280  227.9910 C   0  0  0  0  0  0  0  0  0  0  0  0
  140.5420   68.7060  229.0720 F   0  0  0  0  0  0  0  0  0  0  0  0
  140.9740   70.8340  228.0420 C   0  0  0  0  0  0  0  0  0  0  0  0
  140.9340   71.6110  226.9020 C   0  0  0  0  0  0  0  0  0  0  0  0
  140.4590   71.1230  225.6930 C   0  0  0  0  0  0  0  0  0  0  0  0
  140.4230   71.8920  224.5790 N   0  0  0  0  0  0  0  0  0  0  0  0
  139.5630   73.9960  223.3260 H   0  0  0  0  0  0  0  0  0  0  0  0
  140.0113   73.9907  220.3045 H   0  0  0  0  0  0  0  0  0  0  0  0
  138.6117   74.8315  220.9993 H   0  0  0  0  0  0  0  0  0  0  0  0
  141.0659   78.0903  221.3808 H   0  0  0  0  0  0  0  0  0  0  0  0
  142.8061   77.6461  221.2506 H   0  0  0  0  0  0  0  0  0  0  0  0
  140.9262   78.2758  218.9014 H   0  0  0  0  0  0  0  0  0  0  0  0
  142.1916   79.3518  219.5084 H   0  0  0  0  0  0  0  0  0  0  0  0
  143.1130   78.0373  217.6520 H   0  0  0  0  0  0  0  0  0  0  0  0
  143.8537   77.4417  219.1851 H   0  0  0  0  0  0  0  0  0  0  0  0
  141.5665   76.2136  217.6238 H   0  0  0  0  0  0  0  0  0  0  0  0
  143.2665   75.5729  217.8893 H   0  0  0  0  0  0  0  0  0  0  0  0
  141.0955   74.7696  219.2179 H   0  0  0  0  0  0  0  0  0  0  0  0
  141.6817   72.7081  220.0366 H   0  0  0  0  0  0  0  0  0  0  0  0
  145.7227   71.8639  221.1119 H   0  0  0  0  0  0  0  0  0  0  0  0
  144.5891   75.8277  219.9987 H   0  0  0  0  0  0  0  0  0  0  0  0
  139.1349   69.6776  222.4189 H   0  0  0  0  0  0  0  0  0  0  0  0
  139.1771   68.2144  224.4399 H   0  0  0  0  0  0  0  0  0  0  0  0
  139.6981   67.9720  226.7532 H   0  0  0  0  0  0  0  0  0  0  0  0
  141.3563   71.2528  228.9846 H   0  0  0  0  0  0  0  0  0  0  0  0
  141.2901   72.6505  226.9535 H   0  0  0  0  0  0  0  0  0  0  0  0
  1  2  2  0
  2  3  1  0
  3  4  1  0
  4  5  1  0
  5  6  2  0
  5  7  1  0
  7  8  1  0
  8  9  1  0
  9 10  1  0
 10 11  1  0
 11 12  1  0
 12 13  1  0
 13 14  2  0
 14 15  1  0
 15 16  1  0
 15 17  2  0
 17 18  1  0
 18 19  1  0
 18 20  2  0
  2 21  1  0
 21 22  2  0
 22 23  1  0
 23 24  2  0
 24 25  1  0
 25 26  2  0
 26 27  1  0
 26 28  1  0
 28 29  2  0
 29 30  1  0
 30 31  2  0
 12  7  1  0
 20 13  1  0
 31 21  1  0
 30 24  1  0
  3 32  1  0
  4 33  1  0
  4 34  1  0
  8 35  1  0
  8 36  1  0
  9 37  1  0
  9 38  1  0
 10 39  1  0
 10 40  1  0
 11 41  1  0
 11 42  1  0
 12 43  1  6
 14 44  1  0
 17 45  1  0
 20 46  1  0
 22 47  1  0
 23 48  1  0
 25 49  1  0
 28 50  1  0
 29 51  1  0
M  END
>  <smiles>  (57) 
O=C(NCC(=O)N1CCCCC1c1cc(F)cc(F)c1)c1ccc2cc(F)ccc2n1

>  <score_type>  (57) 
oracle

>  <origin>  (57) 
autodockgpu

>  <m_score__min__energy>  (57) 
-8.6600000000000001

>  <m_primary>  (57) 
energy

>  <rmsd>  (57) 
2.193376548529424

>  <m_score__min__rmsd>  (57) 
2.193376548529424

>  <meeko>  (57) 
{"free_energy": -8.51, "intermolecular_energy": -10.0, "internal_energy": -2.12, "cluster_size": 20, "cluster_id": 3, "rank_in_cluster": 9}

>  <energy>  (57) 
-8.58

>  <cluster_rmsd>  (57) 
0.25

>  <cluster>  (57) 
1

$$$$

     RDKit          3D

 51 54  0  0  0  0  0  0  0  0999 V2000
  139.8350   71.3450  221.0750 O   0  0  0  0  0  0  0  0  0  0  0  0
  139.7490   71.9170  222.2060 C   0  0  0  0  0  0  0  0  0  0  0  0
  139.5900   73.3240  222.3360 N   0  0  0  0  0  0  0  0  0  0  0  0
  139.5150   74.1960  221.1920 C   0  0  0  0  0  0  0  0  0  0  0  0
  140.1930   75.4730  221.5870 C   0  0  0  0  0  0  0  0  0  0  0  0
  139.9820   76.0320  222.6950 O   0  0  0  0  0  0  0  0  0  0  0  0
  141.1230   76.1210  220.7090 N   0  0  0  0  0  0  0  0  0  0  0  0
  141.4150   77.5180  221.0280 C   0  0  0  0  0  0  0  0  0  0  0  0
  141.4990   78.3420  219.7440 C   0  0  0  0  0  0  0  0  0  0  0  0
  142.5770   77.6890  218.9100 C   0  0  0  0  0  0  0  0  0  0  0  0
  142.1500   76.3130  218.4840 C   0  0  0  0  0  0  0  0  0  0  0  0
  141.7070   75.4190  219.6060 C   0  0  1  0  0  0  0  0  0  0  0  0
  142.7780   74.4640  219.9910 C   0  0  0  0  0  0  0  0  0  0  0  0
  144.0870   74.8720  220.2030 C   0  0  0  0  0  0  0  0  0  0  0  0
  145.0920   73.9970  220.5610 C   0  0  0  0  0  0  0  0  0  0  0  0
  146.3530   74.4770  220.7510 F   0  0  0  0  0  0  0  0  0  0  0  0
  144.7830   72.6680  220.7120 C   0  0  0  0  0  0  0  0  0  0  0  0
  143.5100   72.2090  220.5160 C   0  0  0  0  0  0  0  0  0  0  0  0
  143.2260   70.8940  220.6710 F   0  0  0  0  0  0  0  0  0  0  0  0
  142.5240   73.1200  220.1570 C   0  0  0  0  0  0  0  0  0  0  0  0
  139.8160   71.0970  223.4140 C   0  0  0  0  0  0  0  0  0  0  0  0
  139.3590   69.7960  223.4110 C   0  0  0  0  0  0  0  0  0  0  0  0
  139.4020   68.9810  224.5340 C   0  0  0  0  0  0  0  0  0  0  0  0
  139.9420   69.5520  225.6890 C   0  0  0  0  0  0  0  0  0  0  0  0
  140.0000   68.7570  226.8370 C   0  0  0  0  0  0  0  0  0  0  0  0
  140.5260   69.2800  228.0020 C   0  0  0  0  0  0  0  0  0  0  0  0
  140.5620   68.4710  229.0920 F   0  0  0  0  0  0  0  0  0  0  0  0
  140.9890   70.5800  228.0220 C   0  0  0  0  0  0  0  0  0  0  0  0
  140.9210   71.3450  226.8750 C   0  0  0  0  0  0  0  0  0  0  0  0
  140.3970   70.8500  225.6890 C   0  0  0  0  0  0  0  0  0  0  0  0
  140.3340   71.6070  224.5680 N   0  0  0  0  0  0  0  0  0  0  0  0
  139.5260   73.7160  223.3220 H   0  0  0  0  0  0  0  0  0  0  0  0
  140.0305   73.7416  220.3331 H   0  0  0  0  0  0  0  0  0  0  0  0
  138.4710   74.3746  220.8949 H   0  0  0  0  0  0  0  0  0  0  0  0
  140.6152   77.9203  221.6671 H   0  0  0  0  0  0  0  0  0  0  0  0
  142.3785   77.5735  221.5557 H   0  0  0  0  0  0  0  0  0  0  0  0
  140.5367   78.3217  219.2114 H   0  0  0  0  0  0  0  0  0  0  0  0
  141.7297   79.3971  219.9526 H   0  0  0  0  0  0  0  0  0  0  0  0
  142.7653   78.3026  218.0167 H   0  0  0  0  0  0  0  0  0  0  0  0
  143.4933   77.6069  219.5131 H   0  0  0  0  0  0  0  0  0  0  0  0
  141.3131   76.4171  217.7778 H   0  0  0  0  0  0  0  0  0  0  0  0
  143.0355   75.8367  218.0378 H   0  0  0  0  0  0  0  0  0  0  0  0
  140.8745   74.8127  219.2197 H   0  0  0  0  0  0  0  0  0  0  0  0
  144.3338   75.9370  220.0806 H   0  0  0  0  0  0  0  0  0  0  0  0
  145.5745   71.9589  220.9961 H   0  0  0  0  0  0  0  0  0  0  0  0
  141.4991   72.7532  219.9989 H   0  0  0  0  0  0  0  0  0  0  0  0
  138.9426   69.3864  222.4789 H   0  0  0  0  0  0  0  0  0  0  0  0
  139.0321   67.9452  224.5155 H   0  0  0  0  0  0  0  0  0  0  0  0
  139.6292   67.7217  226.8128 H   0  0  0  0  0  0  0  0  0  0  0  0
  141.4095   71.0038  228.9459 H   0  0  0  0  0  0  0  0  0  0  0  0
  141.2939   72.3795  226.9018 H   0  0  0  0  0  0  0  0  0  0  0  0
  1  2  2  0
  2  3  1  0
  3  4  1  0
  4  5  1  0
  5  6  2  0
  5  7  1  0
  7  8  1  0
  8  9  1  0
  9 10  1  0
 10 11  1  0
 11 12  1  0
 12 13  1  0
 13 14  2  0
 14 15  1  0
 15 16  1  0
 15 17  2  0
 17 18  1  0
 18 19  1  0
 18 20  2  0
  2 21  1  0
 21 22  2  0
 22 23  1  0
 23 24  2  0
 24 25  1  0
 25 26  2  0
 26 27  1  0
 26 28  1  0
 28 29  2  0
 29 30  1  0
 30 31  2  0
 12  7  1  0
 20 13  1  0
 31 21  1  0
 30 24  1  0
  3 32  1  0
  4 33  1  0
  4 34  1  0
  8 35  1  0
  8 36  1  0
  9 37  1  0
  9 38  1  0
 10 39  1  0
 10 40  1  0
 11 41  1  0
 11 42  1  0
 12 43  1  6
 14 44  1  0
 17 45  1  0
 20 46  1  0
 22 47  1  0
 23 48  1  0
 25 49  1  0
 28 50  1  0
 29 51  1  0
M  END
>  <smiles>  (58) 
O=C(NCC(=O)N1CCCCC1c1cc(F)cc(F)c1)c1ccc2cc(F)ccc2n1

>  <score_type>  (58) 
oracle

>  <origin>  (58) 
autodockgpu

>  <m_score__min__energy>  (58) 
-8.6600000000000001

>  <m_primary>  (58) 
energy

>  <rmsd>  (58) 
2.076723398278402

>  <m_score__min__rmsd>  (58) 
2.076723398278402

>  <meeko>  (58) 
{"free_energy": -8.47, "intermolecular_energy": -9.96, "internal_energy": -2.15, "cluster_size": 20, "cluster_id": 3, "rank_in_cluster": 18}

>  <energy>  (58) 
-8.57

>  <cluster_rmsd>  (58) 
0.18

>  <cluster>  (58) 
1

$$$$

     RDKit          3D

 51 54  0  0  0  0  0  0  0  0999 V2000
  140.2130   71.4980  221.0250 O   0  0  0  0  0  0  0  0  0  0  0  0
  139.9780   72.0990  222.1190 C   0  0  0  0  0  0  0  0  0  0  0  0
  139.7560   73.5010  222.1850 N   0  0  0  0  0  0  0  0  0  0  0  0
  139.7810   74.3370  221.0120 C   0  0  0  0  0  0  0  0  0  0  0  0
  140.0520   75.7320  221.4900 C   0  0  0  0  0  0  0  0  0  0  0  0
  139.9790   76.0520  222.7050 O   0  0  0  0  0  0  0  0  0  0  0  0
  140.4090   76.7730  220.5720 N   0  0  0  0  0  0  0  0  0  0  0  0
  139.4940   76.9550  219.4460 C   0  0  0  0  0  0  0  0  0  0  0  0
  140.2840   77.2270  218.1670 C   0  0  0  0  0  0  0  0  0  0  0  0
  141.1160   78.4550  218.4560 C   0  0  0  0  0  0  0  0  0  0  0  0
  142.1410   78.1590  219.5130 C   0  0  0  0  0  0  0  0  0  0  0  0
  141.5860   77.5630  220.7750 C   0  0  1  0  0  0  0  0  0  0  0  0
  141.4560   78.5870  221.8430 C   0  0  0  0  0  0  0  0  0  0  0  0
  142.5620   79.2070  222.4080 C   0  0  0  0  0  0  0  0  0  0  0  0
  142.4560   80.1590  223.4010 C   0  0  0  0  0  0  0  0  0  0  0  0
  143.5910   80.7210  223.9040 F   0  0  0  0  0  0  0  0  0  0  0  0
  141.2050   80.5070  223.8470 C   0  0  0  0  0  0  0  0  0  0  0  0
  140.0800   79.9310  223.3260 C   0  0  0  0  0  0  0  0  0  0  0  0
  138.8560   80.2890  223.7800 F   0  0  0  0  0  0  0  0  0  0  0  0
  140.2260   78.9750  222.3270 C   0  0  0  0  0  0  0  0  0  0  0  0
  139.9360   71.3170  223.3540 C   0  0  0  0  0  0  0  0  0  0  0  0
  139.4380   70.0310  223.3590 C   0  0  0  0  0  0  0  0  0  0  0  0
  139.3770   69.2530  224.5060 C   0  0  0  0  0  0  0  0  0  0  0  0
  139.8570   69.8440  225.6780 C   0  0  0  0  0  0  0  0  0  0  0  0
  139.8110   69.0850  226.8510 C   0  0  0  0  0  0  0  0  0  0  0  0
  140.2730   69.6300  228.0330 C   0  0  0  0  0  0  0  0  0  0  0  0
  140.2090   68.8560  229.1470 F   0  0  0  0  0  0  0  0  0  0  0  0
  140.7770   70.9150  228.0450 C   0  0  0  0  0  0  0  0  0  0  0  0
  140.8110   71.6440  226.8730 C   0  0  0  0  0  0  0  0  0  0  0  0
  140.3540   71.1260  225.6700 C   0  0  0  0  0  0  0  0  0  0  0  0
  140.3910   71.8480  224.5250 N   0  0  0  0  0  0  0  0  0  0  0  0
  139.5660   73.9190  223.1440 H   0  0  0  0  0  0  0  0  0  0  0  0
  140.5771   74.0082  220.3278 H   0  0  0  0  0  0  0  0  0  0  0  0
  138.8290   74.2820  220.4636 H   0  0  0  0  0  0  0  0  0  0  0  0
  138.8922   76.0436  219.3151 H   0  0  0  0  0  0  0  0  0  0  0  0
  138.8354   77.8117  219.6518 H   0  0  0  0  0  0  0  0  0  0  0  0
  140.9326   76.3716  217.9272 H   0  0  0  0  0  0  0  0  0  0  0  0
  139.6200   77.3795  217.3034 H   0  0  0  0  0  0  0  0  0  0  0  0
  141.6270   78.7711  217.5346 H   0  0  0  0  0  0  0  0  0  0  0  0
  140.4543   79.2563  218.8166 H   0  0  0  0  0  0  0  0  0  0  0  0
  142.8723   77.4527  219.0931 H   0  0  0  0  0  0  0  0  0  0  0  0
  142.5854   79.1251  219.7945 H   0  0  0  0  0  0  0  0  0  0  0  0
  142.3247   76.8316  221.1347 H   0  0  0  0  0  0  0  0  0  0  0  0
  143.5638   78.9279  222.0494 H   0  0  0  0  0  0  0  0  0  0  0  0
  141.1060   81.2640  224.6389 H   0  0  0  0  0  0  0  0  0  0  0  0
  139.3226   78.5096  221.9060 H   0  0  0  0  0  0  0  0  0  0  0  0
  139.0736   69.6039  222.4131 H   0  0  0  0  0  0  0  0  0  0  0  0
  138.9739   68.2296  224.4937 H   0  0  0  0  0  0  0  0  0  0  0  0
  139.4097   68.0610  226.8328 H   0  0  0  0  0  0  0  0  0  0  0  0
  141.1490   71.3552  228.9819 H   0  0  0  0  0  0  0  0  0  0  0  0
  141.2131   72.6677  226.8938 H   0  0  0  0  0  0  0  0  0  0  0  0
  1  2  2  0
  2  3  1  0
  3  4  1  0
  4  5  1  0
  5  6  2  0
  5  7  1  0
  7  8  1  0
  8  9  1  0
  9 10  1  0
 10 11  1  0
 11 12  1  0
 12 13  1  0
 13 14  2  0
 14 15  1  0
 15 16  1  0
 15 17  2  0
 17 18  1  0
 18 19  1  0
 18 20  2  0
  2 21  1  0
 21 22  2  0
 22 23  1  0
 23 24  2  0
 24 25  1  0
 25 26  2  0
 26 27  1  0
 26 28  1  0
 28 29  2  0
 29 30  1  0
 30 31  2  0
 12  7  1  0
 20 13  1  0
 31 21  1  0
 30 24  1  0
  3 32  1  0
  4 33  1  0
  4 34  1  0
  8 35  1  0
  8 36  1  0
  9 37  1  0
  9 38  1  0
 10 39  1  0
 10 40  1  0
 11 41  1  0
 11 42  1  0
 12 43  1  1
 14 44  1  0
 17 45  1  0
 20 46  1  0
 22 47  1  0
 23 48  1  0
 25 49  1  0
 28 50  1  0
 29 51  1  0
M  END
>  <smiles>  (59) 
O=C(NCC(=O)N1CCCCC1c1cc(F)cc(F)c1)c1ccc2cc(F)ccc2n1

>  <score_type>  (59) 
oracle

>  <origin>  (59) 
autodockgpu

>  <m_score__min__energy>  (59) 
-8.6600000000000001

>  <m_primary>  (59) 
energy

>  <rmsd>  (59) 
1.604036983987144

>  <m_score__min__rmsd>  (59) 
1.604036983987144

>  <meeko>  (59) 
{"free_energy": -8.6, "intermolecular_energy": -10.09, "internal_energy": -1.97, "cluster_size": 16, "cluster_id": 1, "rank_in_cluster": 5}

>  <energy>  (59) 
-8.54

>  <cluster_rmsd>  (59) 
0.29

>  <cluster>  (59) 
1

$$$$

     RDKit          3D

 51 54  0  0  0  0  0  0  0  0999 V2000
  139.9260   71.5580  220.9960 O   0  0  0  0  0  0  0  0  0  0  0  0
  139.8240   72.1430  222.1180 C   0  0  0  0  0  0  0  0  0  0  0  0
  139.6480   73.5490  222.2300 N   0  0  0  0  0  0  0  0  0  0  0  0
  139.5710   74.4070  221.0740 C   0  0  0  0  0  0  0  0  0  0  0  0
  139.9750   75.7750  221.5340 C   0  0  0  0  0  0  0  0  0  0  0  0
  139.9620   76.1080  222.7480 O   0  0  0  0  0  0  0  0  0  0  0  0
  140.3970   76.7760  220.5980 N   0  0  0  0  0  0  0  0  0  0  0  0
  139.5200   76.9610  219.4430 C   0  0  0  0  0  0  0  0  0  0  0  0
  140.3540   77.1660  218.1790 C   0  0  0  0  0  0  0  0  0  0  0  0
  141.2260   78.3690  218.4570 C   0  0  0  0  0  0  0  0  0  0  0  0
  142.2100   78.0630  219.5500 C   0  0  0  0  0  0  0  0  0  0  0  0
  141.5990   77.5240  220.8110 C   0  0  1  0  0  0  0  0  0  0  0  0
  141.4810   78.5820  221.8480 C   0  0  0  0  0  0  0  0  0  0  0  0
  140.2530   78.9830  222.3550 C   0  0  0  0  0  0  0  0  0  0  0  0
  140.1290   79.9640  223.3170 C   0  0  0  0  0  0  0  0  0  0  0  0
  138.8870   80.3010  223.7640 F   0  0  0  0  0  0  0  0  0  0  0  0
  141.2670   80.5670  223.7920 C   0  0  0  0  0  0  0  0  0  0  0  0
  142.5040   80.2120  223.3290 C   0  0  0  0  0  0  0  0  0  0  0  0
  143.6140   80.8190  223.8100 F   0  0  0  0  0  0  0  0  0  0  0  0
  142.5900   79.2200  222.3590 C   0  0  0  0  0  0  0  0  0  0  0  0
  139.8930   71.3390  223.3370 C   0  0  0  0  0  0  0  0  0  0  0  0
  139.4910   70.0200  223.3370 C   0  0  0  0  0  0  0  0  0  0  0  0
  139.5380   69.2190  224.4690 C   0  0  0  0  0  0  0  0  0  0  0  0
  140.0210   69.8240  225.6320 C   0  0  0  0  0  0  0  0  0  0  0  0
  140.0810   69.0450  226.7900 C   0  0  0  0  0  0  0  0  0  0  0  0
  140.5520   69.6010  227.9630 C   0  0  0  0  0  0  0  0  0  0  0  0
  140.5920   68.8050  229.0630 F   0  0  0  0  0  0  0  0  0  0  0  0
  140.9590   70.9200  227.9810 C   0  0  0  0  0  0  0  0  0  0  0  0
  140.8900   71.6700  226.8240 C   0  0  0  0  0  0  0  0  0  0  0  0
  140.4210   71.1400  225.6300 C   0  0  0  0  0  0  0  0  0  0  0  0
  140.3570   71.8820  224.4990 N   0  0  0  0  0  0  0  0  0  0  0  0
  139.5720   73.9530  223.2100 H   0  0  0  0  0  0  0  0  0  0  0  0
  140.2561   74.0515  220.2902 H   0  0  0  0  0  0  0  0  0  0  0  0
  138.5565   74.4129  220.6490 H   0  0  0  0  0  0  0  0  0  0  0  0
  138.8865   76.0701  219.3206 H   0  0  0  0  0  0  0  0  0  0  0  0
  138.8902   77.8478  219.6070 H   0  0  0  0  0  0  0  0  0  0  0  0
  140.9746   76.2797  217.9807 H   0  0  0  0  0  0  0  0  0  0  0  0
  139.7196   77.3195  217.2936 H   0  0  0  0  0  0  0  0  0  0  0  0
  141.7735   78.6387  217.5418 H   0  0  0  0  0  0  0  0  0  0  0  0
  140.5873   79.2056  218.7767 H   0  0  0  0  0  0  0  0  0  0  0  0
  142.9241   77.3178  219.1695 H   0  0  0  0  0  0  0  0  0  0  0  0
  142.6839   79.0188  219.8181 H   0  0  0  0  0  0  0  0  0  0  0  0
  142.2989   76.7743  221.2087 H   0  0  0  0  0  0  0  0  0  0  0  0
  139.3415   78.4990  221.9743 H   0  0  0  0  0  0  0  0  0  0  0  0
  141.1824   81.3505  224.5595 H   0  0  0  0  0  0  0  0  0  0  0  0
  143.5836   78.9329  221.9843 H   0  0  0  0  0  0  0  0  0  0  0  0
  139.1169   69.5839  222.3990 H   0  0  0  0  0  0  0  0  0  0  0  0
  139.2136   68.1681  224.4517 H   0  0  0  0  0  0  0  0  0  0  0  0
  139.7549   67.9947  226.7676 H   0  0  0  0  0  0  0  0  0  0  0  0
  141.3358   71.3705  228.9111 H   0  0  0  0  0  0  0  0  0  0  0  0
  141.2168   72.7200  226.8492 H   0  0  0  0  0  0  0  0  0  0  0  0
  1  2  2  0
  2  3  1  0
  3  4  1  0
  4  5  1  0
  5  6  2  0
  5  7  1  0
  7  8  1  0
  8  9  1  0
  9 10  1  0
 10 11  1  0
 11 12  1  0
 12 13  1  0
 13 14  2  0
 14 15  1  0
 15 16  1  0
 15 17  2  0
 17 18  1  0
 18 19  1  0
 18 20  2  0
  2 21  1  0
 21 22  2  0
 22 23  1  0
 23 24  2  0
 24 25  1  0
 25 26  2  0
 26 27  1  0
 26 28  1  0
 28 29  2  0
 29 30  1  0
 30 31  2  0
 12  7  1  0
 20 13  1  0
 31 21  1  0
 30 24  1  0
  3 32  1  0
  4 33  1  0
  4 34  1  0
  8 35  1  0
  8 36  1  0
  9 37  1  0
  9 38  1  0
 10 39  1  0
 10 40  1  0
 11 41  1  0
 11 42  1  0
 12 43  1  1
 14 44  1  0
 17 45  1  0
 20 46  1  0
 22 47  1  0
 23 48  1  0
 25 49  1  0
 28 50  1  0
 29 51  1  0
M  END
>  <smiles>  (60) 
O=C(NCC(=O)N1CCCCC1c1cc(F)cc(F)c1)c1ccc2cc(F)ccc2n1

>  <score_type>  (60) 
oracle

>  <origin>  (60) 
autodockgpu

>  <m_score__min__energy>  (60) 
-8.6600000000000001

>  <m_primary>  (60) 
energy

>  <rmsd>  (60) 
1.5759439876630486

>  <m_score__min__rmsd>  (60) 
1.5759439876630486

>  <meeko>  (60) 
{"free_energy": -8.57, "intermolecular_energy": -10.06, "internal_energy": -1.98, "cluster_size": 16, "cluster_id": 1, "rank_in_cluster": 8}

>  <energy>  (60) 
-8.42

>  <cluster_rmsd>  (60) 
0.29

>  <cluster>  (60) 
1

$$$$

     RDKit          3D

 51 54  0  0  0  0  0  0  0  0999 V2000
  140.1830   70.8230  221.6880 O   0  0  0  0  0  0  0  0  0  0  0  0
  140.0420   71.6010  222.6820 C   0  0  0  0  0  0  0  0  0  0  0  0
  139.7000   72.9730  222.5300 N   0  0  0  0  0  0  0  0  0  0  0  0
  139.4880   73.5720  221.2380 C   0  0  0  0  0  0  0  0  0  0  0  0
  140.6370   74.5070  221.0100 C   0  0  0  0  0  0  0  0  0  0  0  0
  140.5580   75.7410  221.2460 O   0  0  0  0  0  0  0  0  0  0  0  0
  141.8920   74.0300  220.5060 N   0  0  0  0  0  0  0  0  0  0  0  0
  141.8980   72.6360  220.0630 C   0  0  0  0  0  0  0  0  0  0  0  0
  143.1970   71.9550  220.4910 C   0  0  0  0  0  0  0  0  0  0  0  0
  144.3080   72.7760  219.8750 C   0  0  0  0  0  0  0  0  0  0  0  0
  144.3470   74.1480  220.4840 C   0  0  0  0  0  0  0  0  0  0  0  0
  143.0390   74.8850  220.4530 C   0  0  1  0  0  0  0  0  0  0  0  0
  143.0060   75.8800  219.3500 C   0  0  0  0  0  0  0  0  0  0  0  0
  142.5750   77.1840  219.5480 C   0  0  0  0  0  0  0  0  0  0  0  0
  142.5400   78.1180  218.5330 C   0  0  0  0  0  0  0  0  0  0  0  0
  142.1030   79.3800  218.8080 F   0  0  0  0  0  0  0  0  0  0  0  0
  142.9470   77.7420  217.2780 C   0  0  0  0  0  0  0  0  0  0  0  0
  143.3830   76.4710  217.0250 C   0  0  0  0  0  0  0  0  0  0  0  0
  143.7810   76.1190  215.7800 F   0  0  0  0  0  0  0  0  0  0  0  0
  143.4050   75.5560  218.0720 C   0  0  0  0  0  0  0  0  0  0  0  0
  140.2400   71.0650  224.0270 C   0  0  0  0  0  0  0  0  0  0  0  0
  140.7170   71.8670  225.0430 C   0  0  0  0  0  0  0  0  0  0  0  0
  140.9220   71.4010  226.3340 C   0  0  0  0  0  0  0  0  0  0  0  0
  140.6150   70.0580  226.5610 C   0  0  0  0  0  0  0  0  0  0  0  0
  140.8090   69.5580  227.8520 C   0  0  0  0  0  0  0  0  0  0  0  0
  140.5190   68.2350  228.1220 C   0  0  0  0  0  0  0  0  0  0  0  0
  140.7240   67.7950  229.3900 F   0  0  0  0  0  0  0  0  0  0  0  0
  140.0400   67.4200  227.1160 C   0  0  0  0  0  0  0  0  0  0  0  0
  139.8570   67.9360  225.8500 C   0  0  0  0  0  0  0  0  0  0  0  0
  140.1390   69.2610  225.5460 C   0  0  0  0  0  0  0  0  0  0  0  0
  139.9560   69.7600  224.3010 N   0  0  0  0  0  0  0  0  0  0  0  0
  139.6030   73.5500  223.4180 H   0  0  0  0  0  0  0  0  0  0  0  0
  139.4683   72.7966  220.4580 H   0  0  0  0  0  0  0  0  0  0  0  0
  138.5268   74.1054  221.1992 H   0  0  0  0  0  0  0  0  0  0  0  0
  141.0447   72.1075  220.5130 H   0  0  0  0  0  0  0  0  0  0  0  0
  141.8202   72.6063  218.9662 H   0  0  0  0  0  0  0  0  0  0  0  0
  143.2852   71.9507  221.5874 H   0  0  0  0  0  0  0  0  0  0  0  0
  143.2348   70.9062  220.1614 H   0  0  0  0  0  0  0  0  0  0  0  0
  145.2704   72.2737  220.0522 H   0  0  0  0  0  0  0  0  0  0  0  0
  144.1234   72.8711  218.7948 H   0  0  0  0  0  0  0  0  0  0  0  0
  144.6594   74.0482  221.5340 H   0  0  0  0  0  0  0  0  0  0  0  0
  145.0505   74.7375  219.8777 H   0  0  0  0  0  0  0  0  0  0  0  0
  142.9738   75.4575  221.3900 H   0  0  0  0  0  0  0  0  0  0  0  0
  142.2482   77.4851  220.5542 H   0  0  0  0  0  0  0  0  0  0  0  0
  142.9221   78.4769  216.4599 H   0  0  0  0  0  0  0  0  0  0  0  0
  143.7550   74.5326  217.8716 H   0  0  0  0  0  0  0  0  0  0  0  0
  140.9444   72.9200  224.8205 H   0  0  0  0  0  0  0  0  0  0  0  0
  141.3047   72.0528  227.1332 H   0  0  0  0  0  0  0  0  0  0  0  0
  141.1904   70.2144  228.6480 H   0  0  0  0  0  0  0  0  0  0  0  0
  139.8056   66.3653  227.3228 H   0  0  0  0  0  0  0  0  0  0  0  0
  139.4756   67.2769  225.0562 H   0  0  0  0  0  0  0  0  0  0  0  0
  1  2  2  0
  2  3  1  0
  3  4  1  0
  4  5  1  0
  5  6  2  0
  5  7  1  0
  7  8  1  0
  8  9  1  0
  9 10  1  0
 10 11  1  0
 11 12  1  0
 12 13  1  0
 13 14  2  0
 14 15  1  0
 15 16  1  0
 15 17  2  0
 17 18  1  0
 18 19  1  0
 18 20  2  0
  2 21  1  0
 21 22  2  0
 22 23  1  0
 23 24  2  0
 24 25  1  0
 25 26  2  0
 26 27  1  0
 26 28  1  0
 28 29  2  0
 29 30  1  0
 30 31  2  0
 12  7  1  0
 20 13  1  0
 31 21  1  0
 30 24  1  0
  3 32  1  0
  4 33  1  0
  4 34  1  0
  8 35  1  0
  8 36  1  0
  9 37  1  0
  9 38  1  0
 10 39  1  0
 10 40  1  0
 11 41  1  0
 11 42  1  0
 12 43  1  1
 14 44  1  0
 17 45  1  0
 20 46  1  0
 22 47  1  0
 23 48  1  0
 25 49  1  0
 28 50  1  0
 29 51  1  0
M  END
>  <smiles>  (61) 
O=C(NCC(=O)N1CCCCC1c1cc(F)cc(F)c1)c1ccc2cc(F)ccc2n1

>  <score_type>  (61) 
oracle

>  <origin>  (61) 
autodockgpu

>  <m_score__min__energy>  (61) 
-8.6600000000000001

>  <m_primary>  (61) 
energy

>  <rmsd>  (61) 
3.551659331564602

>  <m_score__min__rmsd>  (61) 
3.551659331564602

>  <meeko>  (61) 
{"free_energy": -8.02, "intermolecular_energy": -9.51, "internal_energy": -1.51, "cluster_size": 3, "cluster_id": 5, "rank_in_cluster": 3}

>  <energy>  (61) 
-8.39

>  <cluster_rmsd>  (61) 
0.29

>  <cluster>  (61) 
1

$$$$

     RDKit          3D

 51 54  0  0  0  0  0  0  0  0999 V2000
  133.9380   69.2490  226.3150 O   0  0  0  0  0  0  0  0  0  0  0  0
  134.2360   70.3590  225.7750 C   0  0  0  0  0  0  0  0  0  0  0  0
  135.1510   70.4560  224.6900 N   0  0  0  0  0  0  0  0  0  0  0  0
  135.8000   69.2990  224.1290 C   0  0  0  0  0  0  0  0  0  0  0  0
  137.2270   69.3510  224.5820 C   0  0  0  0  0  0  0  0  0  0  0  0
  137.7060   68.5170  225.3950 O   0  0  0  0  0  0  0  0  0  0  0  0
  138.1190   70.3670  224.1040 N   0  0  0  0  0  0  0  0  0  0  0  0
  137.4730   71.5350  223.5060 C   0  0  0  0  0  0  0  0  0  0  0  0
  138.2480   71.9850  222.2680 C   0  0  0  0  0  0  0  0  0  0  0  0
  139.6530   72.2690  222.7480 C   0  0  0  0  0  0  0  0  0  0  0  0
  140.3170   71.0020  223.2060 C   0  0  0  0  0  0  0  0  0  0  0  0
  139.5380   70.2170  224.2220 C   0  0  1  0  0  0  0  0  0  0  0  0
  140.0620   70.4410  225.5940 C   0  0  0  0  0  0  0  0  0  0  0  0
  139.9660   69.4750  226.5860 C   0  0  0  0  0  0  0  0  0  0  0  0
  140.4480   69.6690  227.8640 C   0  0  0  0  0  0  0  0  0  0  0  0
  140.3140   68.6710  228.7820 F   0  0  0  0  0  0  0  0  0  0  0  0
  141.0480   70.8660  228.1650 C   0  0  0  0  0  0  0  0  0  0  0  0
  141.1720   71.8540  227.2280 C   0  0  0  0  0  0  0  0  0  0  0  0
  141.7680   73.0270  227.5460 F   0  0  0  0  0  0  0  0  0  0  0  0
  140.6740   71.6220  225.9510 C   0  0  0  0  0  0  0  0  0  0  0  0
  133.6170   71.5790  226.2900 C   0  0  0  0  0  0  0  0  0  0  0  0
  132.4890   71.5190  227.0800 C   0  0  0  0  0  0  0  0  0  0  0  0
  131.8670   72.6500  227.5900 C   0  0  0  0  0  0  0  0  0  0  0  0
  132.4510   73.8760  227.2600 C   0  0  0  0  0  0  0  0  0  0  0  0
  131.8490   75.0340  227.7590 C   0  0  0  0  0  0  0  0  0  0  0  0
  132.3910   76.2680  227.4570 C   0  0  0  0  0  0  0  0  0  0  0  0
  131.7710   77.3660  227.9640 F   0  0  0  0  0  0  0  0  0  0  0  0
  133.5200   76.3460  226.6680 C   0  0  0  0  0  0  0  0  0  0  0  0
  134.0960   75.1880  226.1870 C   0  0  0  0  0  0  0  0  0  0  0  0
  133.5760   73.9330  226.4710 C   0  0  0  0  0  0  0  0  0  0  0  0
  134.1470   72.8010  225.9960 N   0  0  0  0  0  0  0  0  0  0  0  0
  135.3410   71.4260  224.3000 H   0  0  0  0  0  0  0  0  0  0  0  0
  135.3188   68.3793  224.4932 H   0  0  0  0  0  0  0  0  0  0  0  0
  135.7307   69.2970  223.0312 H   0  0  0  0  0  0  0  0  0  0  0  0
  136.4443   71.2740  223.2167 H   0  0  0  0  0  0  0  0  0  0  0  0
  137.4580   72.3543  224.2399 H   0  0  0  0  0  0  0  0  0  0  0  0
  138.2552   71.1887  221.5092 H   0  0  0  0  0  0  0  0  0  0  0  0
  137.7909   72.8701  221.8015 H   0  0  0  0  0  0  0  0  0  0  0  0
  140.2360   72.7061  221.9239 H   0  0  0  0  0  0  0  0  0  0  0  0
  139.6058   72.9721  223.5927 H   0  0  0  0  0  0  0  0  0  0  0  0
  140.4759   70.3611  222.3262 H   0  0  0  0  0  0  0  0  0  0  0  0
  141.2541   71.3025  223.6975 H   0  0  0  0  0  0  0  0  0  0  0  0
  139.7016   69.1528  223.9970 H   0  0  0  0  0  0  0  0  0  0  0  0
  139.4860   68.5155  226.3433 H   0  0  0  0  0  0  0  0  0  0  0  0
  141.4369   71.0339  229.1802 H   0  0  0  0  0  0  0  0  0  0  0  0
  140.7728   72.4144  225.1945 H   0  0  0  0  0  0  0  0  0  0  0  0
  132.0636   70.5325  227.3163 H   0  0  0  0  0  0  0  0  0  0  0  0
  130.9661   72.5852  228.2179 H   0  0  0  0  0  0  0  0  0  0  0  0
  130.9494   74.9633  228.3881 H   0  0  0  0  0  0  0  0  0  0  0  0
  133.9582   77.3250  226.4239 H   0  0  0  0  0  0  0  0  0  0  0  0
  134.9958   75.2619  225.5586 H   0  0  0  0  0  0  0  0  0  0  0  0
  1  2  2  0
  2  3  1  0
  3  4  1  0
  4  5  1  0
  5  6  2  0
  5  7  1  0
  7  8  1  0
  8  9  1  0
  9 10  1  0
 10 11  1  0
 11 12  1  0
 12 13  1  0
 13 14  2  0
 14 15  1  0
 15 16  1  0
 15 17  2  0
 17 18  1  0
 18 19  1  0
 18 20  2  0
  2 21  1  0
 21 22  2  0
 22 23  1  0
 23 24  2  0
 24 25  1  0
 25 26  2  0
 26 27  1  0
 26 28  1  0
 28 29  2  0
 29 30  1  0
 30 31  2  0
 12  7  1  0
 20 13  1  0
 31 21  1  0
 30 24  1  0
  3 32  1  0
  4 33  1  0
  4 34  1  0
  8 35  1  0
  8 36  1  0
  9 37  1  0
  9 38  1  0
 10 39  1  0
 10 40  1  0
 11 41  1  0
 11 42  1  0
 12 43  1  6
 14 44  1  0
 17 45  1  0
 20 46  1  0
 22 47  1  0
 23 48  1  0
 25 49  1  0
 28 50  1  0
 29 51  1  0
M  END
>  <smiles>  (62) 
O=C(NCC(=O)N1CCCCC1c1cc(F)cc(F)c1)c1ccc2cc(F)ccc2n1

>  <score_type>  (62) 
oracle

>  <origin>  (62) 
autodockgpu

>  <m_score__min__energy>  (62) 
-8.6600000000000001

>  <m_primary>  (62) 
energy

>  <rmsd>  (62) 
7.956363236085068

>  <m_score__min__rmsd>  (62) 
7.956363236085068

>  <meeko>  (62) 
{"free_energy": -8.57, "intermolecular_energy": -10.07, "internal_energy": -1.45, "cluster_size": 1, "cluster_id": 4, "rank_in_cluster": 1}

>  <energy>  (62) 
-8.26

>  <cluster_rmsd>  (62) 
0.47

>  <cluster>  (62) 
1

$$$$

     RDKit          3D

 51 54  0  0  0  0  0  0  0  0999 V2000
  141.4260   72.0400  221.5470 O   0  0  0  0  0  0  0  0  0  0  0  0
  140.4410   72.3020  222.3050 C   0  0  0  0  0  0  0  0  0  0  0  0
  139.5300   73.3590  222.0310 N   0  0  0  0  0  0  0  0  0  0  0  0
  139.6630   74.2040  220.8720 C   0  0  0  0  0  0  0  0  0  0  0  0
  140.5760   75.3250  221.2670 C   0  0  0  0  0  0  0  0  0  0  0  0
  140.5840   75.8080  222.4300 O   0  0  0  0  0  0  0  0  0  0  0  0
  141.4900   75.9030  220.3260 N   0  0  0  0  0  0  0  0  0  0  0  0
  141.8190   77.3090  220.5570 C   0  0  0  0  0  0  0  0  0  0  0  0
  141.8790   78.0580  219.2260 C   0  0  0  0  0  0  0  0  0  0  0  0
  142.9180   77.3370  218.3990 C   0  0  0  0  0  0  0  0  0  0  0  0
  142.4520   75.9480  218.0650 C   0  0  0  0  0  0  0  0  0  0  0  0
  142.0260   75.1280  219.2480 C   0  0  1  0  0  0  0  0  0  0  0  0
  143.0900   74.1740  219.6540 C   0  0  0  0  0  0  0  0  0  0  0  0
  143.0400   72.8280  219.3180 C   0  0  0  0  0  0  0  0  0  0  0  0
  144.0200   71.9310  219.6880 C   0  0  0  0  0  0  0  0  0  0  0  0
  143.8970   70.6250  219.3190 F   0  0  0  0  0  0  0  0  0  0  0  0
  145.0890   72.3890  220.4180 C   0  0  0  0  0  0  0  0  0  0  0  0
  145.1920   73.7040  220.7760 C   0  0  0  0  0  0  0  0  0  0  0  0
  146.2540   74.1360  221.4960 F   0  0  0  0  0  0  0  0  0  0  0  0
  144.1850   74.5790  220.3850 C   0  0  0  0  0  0  0  0  0  0  0  0
  140.2400   71.4860  223.5010 C   0  0  0  0  0  0  0  0  0  0  0  0
  139.5440   70.2970  223.4360 C   0  0  0  0  0  0  0  0  0  0  0  0
  139.3280   69.4910  224.5440 C   0  0  0  0  0  0  0  0  0  0  0  0
  139.8600   69.9490  225.7520 C   0  0  0  0  0  0  0  0  0  0  0  0
  139.6600   69.1590  226.8880 C   0  0  0  0  0  0  0  0  0  0  0  0
  140.1680   69.5730  228.1040 C   0  0  0  0  0  0  0  0  0  0  0  0
  139.9490   68.7730  229.1800 F   0  0  0  0  0  0  0  0  0  0  0  0
  140.8670   70.7600  228.1860 C   0  0  0  0  0  0  0  0  0  0  0  0
  141.0510   71.5220  227.0500 C   0  0  0  0  0  0  0  0  0  0  0  0
  140.5530   71.1350  225.8140 C   0  0  0  0  0  0  0  0  0  0  0  0
  140.7380   71.8880  224.7050 N   0  0  0  0  0  0  0  0  0  0  0  0
  138.7340   73.5050  222.7200 H   0  0  0  0  0  0  0  0  0  0  0  0
  140.0972   73.6367  220.0356 H   0  0  0  0  0  0  0  0  0  0  0  0
  138.6850   74.5842  220.5418 H   0  0  0  0  0  0  0  0  0  0  0  0
  141.0475   77.7633  221.1961 H   0  0  0  0  0  0  0  0  0  0  0  0
  142.7993   77.3736  221.0519 H   0  0  0  0  0  0  0  0  0  0  0  0
  140.9006   78.0278  218.7242 H   0  0  0  0  0  0  0  0  0  0  0  0
  142.1360   79.1182  219.3674 H   0  0  0  0  0  0  0  0  0  0  0  0
  143.0902   77.8952  217.4669 H   0  0  0  0  0  0  0  0  0  0  0  0
  143.8508   77.2702  218.9782 H   0  0  0  0  0  0  0  0  0  0  0  0
  141.5964   76.0294  217.3785 H   0  0  0  0  0  0  0  0  0  0  0  0
  143.3146   75.4290  217.6216 H   0  0  0  0  0  0  0  0  0  0  0  0
  141.1701   74.5187  218.9222 H   0  0  0  0  0  0  0  0  0  0  0  0
  142.1836   72.4619  218.7326 H   0  0  0  0  0  0  0  0  0  0  0  0
  145.8775   71.6841  220.7204 H   0  0  0  0  0  0  0  0  0  0  0  0
  144.2659   75.6381  220.6710 H   0  0  0  0  0  0  0  0  0  0  0  0
  139.1431   69.9741  222.4639 H   0  0  0  0  0  0  0  0  0  0  0  0
  138.7699   68.5456  224.4756 H   0  0  0  0  0  0  0  0  0  0  0  0
  139.1018   68.2140  226.8140 H   0  0  0  0  0  0  0  0  0  0  0  0
  141.2749   71.0967  229.1505 H   0  0  0  0  0  0  0  0  0  0  0  0
  141.6102   72.4661  227.1269 H   0  0  0  0  0  0  0  0  0  0  0  0
  1  2  2  0
  2  3  1  0
  3  4  1  0
  4  5  1  0
  5  6  2  0
  5  7  1  0
  7  8  1  0
  8  9  1  0
  9 10  1  0
 10 11  1  0
 11 12  1  0
 12 13  1  0
 13 14  2  0
 14 15  1  0
 15 16  1  0
 15 17  2  0
 17 18  1  0
 18 19  1  0
 18 20  2  0
  2 21  1  0
 21 22  2  0
 22 23  1  0
 23 24  2  0
 24 25  1  0
 25 26  2  0
 26 27  1  0
 26 28  1  0
 28 29  2  0
 29 30  1  0
 30 31  2  0
 12  7  1  0
 20 13  1  0
 31 21  1  0
 30 24  1  0
  3 32  1  0
  4 33  1  0
  4 34  1  0
  8 35  1  0
  8 36  1  0
  9 37  1  0
  9 38  1  0
 10 39  1  0
 10 40  1  0
 11 41  1  0
 11 42  1  0
 12 43  1  6
 14 44  1  0
 17 45  1  0
 20 46  1  0
 22 47  1  0
 23 48  1  0
 25 49  1  0
 28 50  1  0
 29 51  1  0
M  END
>  <smiles>  (63) 
O=C(NCC(=O)N1CCCCC1c1cc(F)cc(F)c1)c1ccc2cc(F)ccc2n1

>  <score_type>  (63) 
oracle

>  <origin>  (63) 
autodockgpu

>  <m_score__min__energy>  (63) 
-8.6600000000000001

>  <m_primary>  (63) 
energy

>  <rmsd>  (63) 
2.207557973335434

>  <m_score__min__rmsd>  (63) 
2.207557973335434

>  <meeko>  (63) 
{"free_energy": -8.58, "intermolecular_energy": -10.07, "internal_energy": -1.76, "cluster_size": 20, "cluster_id": 3, "rank_in_cluster": 1}

>  <energy>  (63) 
-8.25

>  <cluster_rmsd>  (63) 
0.65

>  <cluster>  (63) 
1

$$$$

     RDKit          3D

 51 54  0  0  0  0  0  0  0  0999 V2000
  140.0350   71.5670  220.9830 O   0  0  0  0  0  0  0  0  0  0  0  0
  139.8860   72.1570  222.0980 C   0  0  0  0  0  0  0  0  0  0  0  0
  139.7030   73.5640  222.1940 N   0  0  0  0  0  0  0  0  0  0  0  0
  139.6720   74.4150  221.0320 C   0  0  0  0  0  0  0  0  0  0  0  0
  140.0690   75.7830  221.4970 C   0  0  0  0  0  0  0  0  0  0  0  0
  140.0980   76.0970  222.7160 O   0  0  0  0  0  0  0  0  0  0  0  0
  140.4350   76.8060  220.5620 N   0  0  0  0  0  0  0  0  0  0  0  0
  139.5290   76.9670  219.4250 C   0  0  0  0  0  0  0  0  0  0  0  0
  140.3310   77.2130  218.1470 C   0  0  0  0  0  0  0  0  0  0  0  0
  141.1620   78.4460  218.4190 C   0  0  0  0  0  0  0  0  0  0  0  0
  142.1780   78.1690  219.4910 C   0  0  0  0  0  0  0  0  0  0  0  0
  141.6120   77.5980  220.7590 C   0  0  1  0  0  0  0  0  0  0  0  0
  141.4740   78.6430  221.8060 C   0  0  0  0  0  0  0  0  0  0  0  0
  142.5750   79.2950  222.3450 C   0  0  0  0  0  0  0  0  0  0  0  0
  142.4620   80.2660  223.3180 C   0  0  0  0  0  0  0  0  0  0  0  0
  143.5920   80.8590  223.7960 F   0  0  0  0  0  0  0  0  0  0  0  0
  141.2100   80.6020  223.7690 C   0  0  0  0  0  0  0  0  0  0  0  0
  140.0900   79.9950  223.2740 C   0  0  0  0  0  0  0  0  0  0  0  0
  138.8650   80.3410  223.7330 F   0  0  0  0  0  0  0  0  0  0  0  0
  140.2430   79.0200  222.2950 C   0  0  0  0  0  0  0  0  0  0  0  0
  139.9060   71.3600  223.3230 C   0  0  0  0  0  0  0  0  0  0  0  0
  139.4230   70.0690  223.3330 C   0  0  0  0  0  0  0  0  0  0  0  0
  139.4200   69.2760  224.4710 C   0  0  0  0  0  0  0  0  0  0  0  0
  139.9410   69.8580  225.6290 C   0  0  0  0  0  0  0  0  0  0  0  0
  139.9540   69.0850  226.7930 C   0  0  0  0  0  0  0  0  0  0  0  0
  140.4590   69.6210  227.9620 C   0  0  0  0  0  0  0  0  0  0  0  0
  140.4500   68.8320  229.0680 F   0  0  0  0  0  0  0  0  0  0  0  0
  140.9470   70.9120  227.9690 C   0  0  0  0  0  0  0  0  0  0  0  0
  140.9240   71.6550  226.8070 C   0  0  0  0  0  0  0  0  0  0  0  0
  140.4220   71.1470  225.6170 C   0  0  0  0  0  0  0  0  0  0  0  0
  140.4030   71.8830  224.4810 N   0  0  0  0  0  0  0  0  0  0  0  0
  139.5860   73.9730  223.1680 H   0  0  0  0  0  0  0  0  0  0  0  0
  140.3813   74.0502  220.2746 H   0  0  0  0  0  0  0  0  0  0  0  0
  138.6727   74.4251  220.5724 H   0  0  0  0  0  0  0  0  0  0  0  0
  138.9270   76.0540  219.3070 H   0  0  0  0  0  0  0  0  0  0  0  0
  138.8696   77.8281  219.6084 H   0  0  0  0  0  0  0  0  0  0  0  0
  140.9807   76.3524  217.9299 H   0  0  0  0  0  0  0  0  0  0  0  0
  139.6748   77.3490  217.2747 H   0  0  0  0  0  0  0  0  0  0  0  0
  141.6813   78.7436  217.4961 H   0  0  0  0  0  0  0  0  0  0  0  0
  140.4983   79.2551  218.7579 H   0  0  0  0  0  0  0  0  0  0  0  0
  142.9120   77.4541  219.0909 H   0  0  0  0  0  0  0  0  0  0  0  0
  142.6208   79.1399  219.7579 H   0  0  0  0  0  0  0  0  0  0  0  0
  142.3469   76.8726  221.1381 H   0  0  0  0  0  0  0  0  0  0  0  0
  143.5778   79.0263  221.9814 H   0  0  0  0  0  0  0  0  0  0  0  0
  141.1060   81.3753  224.5444 H   0  0  0  0  0  0  0  0  0  0  0  0
  139.3437   78.5294  221.8944 H   0  0  0  0  0  0  0  0  0  0  0  0
  139.0227   69.6496  222.3982 H   0  0  0  0  0  0  0  0  0  0  0  0
  139.0297   68.2476  224.4621 H   0  0  0  0  0  0  0  0  0  0  0  0
  139.5646   68.0563  226.7787 H   0  0  0  0  0  0  0  0  0  0  0  0
  141.3517   71.3457  228.8953 H   0  0  0  0  0  0  0  0  0  0  0  0
  141.3159   72.6827  226.8241 H   0  0  0  0  0  0  0  0  0  0  0  0
  1  2  2  0
  2  3  1  0
  3  4  1  0
  4  5  1  0
  5  6  2  0
  5  7  1  0
  7  8  1  0
  8  9  1  0
  9 10  1  0
 10 11  1  0
 11 12  1  0
 12 13  1  0
 13 14  2  0
 14 15  1  0
 15 16  1  0
 15 17  2  0
 17 18  1  0
 18 19  1  0
 18 20  2  0
  2 21  1  0
 21 22  2  0
 22 23  1  0
 23 24  2  0
 24 25  1  0
 25 26  2  0
 26 27  1  0
 26 28  1  0
 28 29  2  0
 29 30  1  0
 30 31  2  0
 12  7  1  0
 20 13  1  0
 31 21  1  0
 30 24  1  0
  3 32  1  0
  4 33  1  0
  4 34  1  0
  8 35  1  0
  8 36  1  0
  9 37  1  0
  9 38  1  0
 10 39  1  0
 10 40  1  0
 11 41  1  0
 11 42  1  0
 12 43  1  1
 14 44  1  0
 17 45  1  0
 20 46  1  0
 22 47  1  0
 23 48  1  0
 25 49  1  0
 28 50  1  0
 29 51  1  0
M  END
>  <smiles>  (64) 
O=C(NCC(=O)N1CCCCC1c1cc(F)cc(F)c1)c1ccc2cc(F)ccc2n1

>  <score_type>  (64) 
oracle

>  <origin>  (64) 
autodockgpu

>  <m_score__min__energy>  (64) 
-8.6600000000000001

>  <m_primary>  (64) 
energy

>  <rmsd>  (64) 
1.5932937566176302

>  <m_score__min__rmsd>  (64) 
1.5932937566176302

>  <meeko>  (64) 
{"free_energy": -8.61, "intermolecular_energy": -10.1, "internal_energy": -1.97, "cluster_size": 16, "cluster_id": 1, "rank_in_cluster": 4}

>  <energy>  (64) 
-8.14

>  <cluster_rmsd>  (64) 
0.66

>  <cluster>  (64) 
1

$$$$

     RDKit          3D

 51 54  0  0  0  0  0  0  0  0999 V2000
  140.5200   74.1030  220.3040 O   0  0  0  0  0  0  0  0  0  0  0  0
  140.0980   74.8020  221.2760 C   0  0  0  0  0  0  0  0  0  0  0  0
  139.1440   74.3090  222.2090 N   0  0  0  0  0  0  0  0  0  0  0  0
  138.5950   72.9810  222.1150 C   0  0  0  0  0  0  0  0  0  0  0  0
  139.6080   72.0590  222.7230 C   0  0  0  0  0  0  0  0  0  0  0  0
  140.7690   72.4400  223.0260 O   0  0  0  0  0  0  0  0  0  0  0  0
  139.2940   70.6850  222.9880 N   0  0  0  0  0  0  0  0  0  0  0  0
  139.7170   69.7370  221.9580 C   0  0  0  0  0  0  0  0  0  0  0  0
  138.6370   68.6770  221.7470 C   0  0  0  0  0  0  0  0  0  0  0  0
  138.4340   68.0290  223.0970 C   0  0  0  0  0  0  0  0  0  0  0  0
  137.8520   69.0140  224.0700 C   0  0  0  0  0  0  0  0  0  0  0  0
  138.6140   70.3030  224.1890 C   0  0  1  0  0  0  0  0  0  0  0  0
  139.4710   70.3130  225.4030 C   0  0  0  0  0  0  0  0  0  0  0  0
  140.2220   71.4220  225.7650 C   0  0  0  0  0  0  0  0  0  0  0  0
  141.0210   71.4450  226.8890 C   0  0  0  0  0  0  0  0  0  0  0  0
  141.7280   72.5740  227.1770 F   0  0  0  0  0  0  0  0  0  0  0  0
  141.0750   70.3260  227.6810 C   0  0  0  0  0  0  0  0  0  0  0  0
  140.3560   69.2040  227.3740 C   0  0  0  0  0  0  0  0  0  0  0  0
  140.4220   68.1100  228.1690 F   0  0  0  0  0  0  0  0  0  0  0  0
  139.5610   69.2170  226.2330 C   0  0  0  0  0  0  0  0  0  0  0  0
  140.6100   76.1610  221.4380 C   0  0  0  0  0  0  0  0  0  0  0  0
  141.5290   76.6800  220.5500 C   0  0  0  0  0  0  0  0  0  0  0  0
  142.0430   77.9640  220.6650 C   0  0  0  0  0  0  0  0  0  0  0  0
  141.5760   78.7210  221.7420 C   0  0  0  0  0  0  0  0  0  0  0  0
  142.0740   80.0190  221.8850 C   0  0  0  0  0  0  0  0  0  0  0  0
  141.6410   80.8030  222.9360 C   0  0  0  0  0  0  0  0  0  0  0  0
  142.1520   82.0570  223.0340 F   0  0  0  0  0  0  0  0  0  0  0  0
  140.7210   80.3000  223.8330 C   0  0  0  0  0  0  0  0  0  0  0  0
  140.2430   79.0150  223.6700 C   0  0  0  0  0  0  0  0  0  0  0  0
  140.6590   78.2010  222.6260 C   0  0  0  0  0  0  0  0  0  0  0  0
  140.1860   76.9420  222.4730 N   0  0  0  0  0  0  0  0  0  0  0  0
  138.8480   74.9650  222.9920 H   0  0  0  0  0  0  0  0  0  0  0  0
  137.6463   72.9217  222.6686 H   0  0  0  0  0  0  0  0  0  0  0  0
  138.3861   72.7095  221.0697 H   0  0  0  0  0  0  0  0  0  0  0  0
  139.8871   70.2763  221.0145 H   0  0  0  0  0  0  0  0  0  0  0  0
  140.6469   69.2455  222.2801 H   0  0  0  0  0  0  0  0  0  0  0  0
  137.7031   69.1440  221.4010 H   0  0  0  0  0  0  0  0  0  0  0  0
  138.9316   67.9423  220.9831 H   0  0  0  0  0  0  0  0  0  0  0  0
  137.7470   67.1766  222.9900 H   0  0  0  0  0  0  0  0  0  0  0  0
  139.4074   67.6855  223.4772 H   0  0  0  0  0  0  0  0  0  0  0  0
  136.8273   69.2502  223.7471 H   0  0  0  0  0  0  0  0  0  0  0  0
  137.8941   68.5354  225.0596 H   0  0  0  0  0  0  0  0  0  0  0  0
  137.8704   71.1018  224.3269 H   0  0  0  0  0  0  0  0  0  0  0  0
  140.1784   72.3191  225.1299 H   0  0  0  0  0  0  0  0  0  0  0  0
  141.7087   70.3314  228.5801 H   0  0  0  0  0  0  0  0  0  0  0  0
  138.9809   68.3164  225.9832 H   0  0  0  0  0  0  0  0  0  0  0  0
  141.8690   76.0494  219.7152 H   0  0  0  0  0  0  0  0  0  0  0  0
  142.7764   78.3629  219.9487 H   0  0  0  0  0  0  0  0  0  0  0  0
  142.8061   80.4135  221.1650 H   0  0  0  0  0  0  0  0  0  0  0  0
  140.3707   80.9187  224.6724 H   0  0  0  0  0  0  0  0  0  0  0  0
  139.5093   78.6242  224.3904 H   0  0  0  0  0  0  0  0  0  0  0  0
  1  2  2  0
  2  3  1  0
  3  4  1  0
  4  5  1  0
  5  6  2  0
  5  7  1  0
  7  8  1  0
  8  9  1  0
  9 10  1  0
 10 11  1  0
 11 12  1  0
 12 13  1  0
 13 14  2  0
 14 15  1  0
 15 16  1  0
 15 17  2  0
 17 18  1  0
 18 19  1  0
 18 20  2  0
  2 21  1  0
 21 22  2  0
 22 23  1  0
 23 24  2  0
 24 25  1  0
 25 26  2  0
 26 27  1  0
 26 28  1  0
 28 29  2  0
 29 30  1  0
 30 31  2  0
 12  7  1  0
 20 13  1  0
 31 21  1  0
 30 24  1  0
  3 32  1  0
  4 33  1  0
  4 34  1  0
  8 35  1  0
  8 36  1  0
  9 37  1  0
  9 38  1  0
 10 39  1  0
 10 40  1  0
 11 41  1  0
 11 42  1  0
 12 43  1  1
 14 44  1  0
 17 45  1  0
 20 46  1  0
 22 47  1  0
 23 48  1  0
 25 49  1  0
 28 50  1  0
 29 51  1  0
M  END
>  <smiles>  (65) 
O=C(NCC(=O)N1CCCCC1c1cc(F)cc(F)c1)c1ccc2cc(F)ccc2n1

>  <score_type>  (65) 
oracle

>  <origin>  (65) 
autodockgpu

>  <m_score__min__energy>  (65) 
-8.6600000000000001

>  <m_primary>  (65) 
energy

>  <rmsd>  (65) 
8.509734815599861

>  <m_score__min__rmsd>  (65) 
8.509734815599861

>  <meeko>  (65) 
{"free_energy": -8.49, "intermolecular_energy": -9.98, "internal_energy": -1.63, "cluster_size": 9, "cluster_id": 2, "rank_in_cluster": 3}

>  <energy>  (65) 
-8.13

>  <cluster_rmsd>  (65) 
0.72

>  <cluster>  (65) 
1

$$$$

     RDKit          3D

 51 54  0  0  0  0  0  0  0  0999 V2000
  140.0740   71.6740  221.0730 O   0  0  0  0  0  0  0  0  0  0  0  0
  139.9070   72.2290  222.2030 C   0  0  0  0  0  0  0  0  0  0  0  0
  139.6840   73.6270  222.3380 N   0  0  0  0  0  0  0  0  0  0  0  0
  139.6300   74.5090  221.2000 C   0  0  0  0  0  0  0  0  0  0  0  0
  140.5100   75.6770  221.5270 C   0  0  0  0  0  0  0  0  0  0  0  0
  140.4880   76.2410  222.6520 O   0  0  0  0  0  0  0  0  0  0  0  0
  141.4240   76.2100  220.5590 N   0  0  0  0  0  0  0  0  0  0  0  0
  141.7760   77.6180  220.7410 C   0  0  0  0  0  0  0  0  0  0  0  0
  141.8340   78.3220  219.3860 C   0  0  0  0  0  0  0  0  0  0  0  0
  142.8550   77.5580  218.5740 C   0  0  0  0  0  0  0  0  0  0  0  0
  142.3650   76.1670  218.2890 C   0  0  0  0  0  0  0  0  0  0  0  0
  141.9380   75.3920  219.5030 C   0  0  1  0  0  0  0  0  0  0  0  0
  142.9920   74.4360  219.9310 C   0  0  0  0  0  0  0  0  0  0  0  0
  144.3110   74.8260  220.1120 C   0  0  0  0  0  0  0  0  0  0  0  0
  145.2990   73.9490  220.5080 C   0  0  0  0  0  0  0  0  0  0  0  0
  146.5720   74.4110  220.6640 F   0  0  0  0  0  0  0  0  0  0  0  0
  144.9630   72.6370  220.7330 C   0  0  0  0  0  0  0  0  0  0  0  0
  143.6790   72.1960  220.5720 C   0  0  0  0  0  0  0  0  0  0  0  0
  143.3680   70.8990  220.7980 F   0  0  0  0  0  0  0  0  0  0  0  0
  142.7100   73.1090  220.1710 C   0  0  0  0  0  0  0  0  0  0  0  0
  139.9470   71.3990  223.4060 C   0  0  0  0  0  0  0  0  0  0  0  0
  139.5030   70.0940  223.3790 C   0  0  0  0  0  0  0  0  0  0  0  0
  139.5210   69.2700  224.4950 C   0  0  0  0  0  0  0  0  0  0  0  0
  140.0230   69.8350  225.6700 C   0  0  0  0  0  0  0  0  0  0  0  0
  140.0550   69.0310  226.8120 C   0  0  0  0  0  0  0  0  0  0  0  0
  140.5430   69.5480  227.9970 C   0  0  0  0  0  0  0  0  0  0  0  0
  140.5550   68.7300  229.0800 F   0  0  0  0  0  0  0  0  0  0  0  0
  140.9930   70.8520  228.0410 C   0  0  0  0  0  0  0  0  0  0  0  0
  140.9500   71.6270  226.8990 C   0  0  0  0  0  0  0  0  0  0  0  0
  140.4660   71.1370  225.6940 C   0  0  0  0  0  0  0  0  0  0  0  0
  140.4270   71.9030  224.5790 N   0  0  0  0  0  0  0  0  0  0  0  0
  139.5540   74.0050  223.3230 H   0  0  0  0  0  0  0  0  0  0  0  0
  140.0003   73.9936  220.3015 H   0  0  0  0  0  0  0  0  0  0  0  0
  138.5987   74.8321  220.9949 H   0  0  0  0  0  0  0  0  0  0  0  0
  141.0175   78.1044  221.3720 H   0  0  0  0  0  0  0  0  0  0  0  0
  142.7619   77.6840  221.2245 H   0  0  0  0  0  0  0  0  0  0  0  0
  140.8505   78.2900  218.8943 H   0  0  0  0  0  0  0  0  0  0  0  0
  142.1075   79.3824  219.4898 H   0  0  0  0  0  0  0  0  0  0  0  0
  143.0278   78.0831  217.6230 H   0  0  0  0  0  0  0  0  0  0  0  0
  143.7915   77.4952  219.1476 H   0  0  0  0  0  0  0  0  0  0  0  0
  141.5040   76.2395  217.6082 H   0  0  0  0  0  0  0  0  0  0  0  0
  143.2150   75.6207  217.8541 H   0  0  0  0  0  0  0  0  0  0  0  0
  141.0705   74.7848  219.2053 H   0  0  0  0  0  0  0  0  0  0  0  0
  144.5797   75.8774  219.9324 H   0  0  0  0  0  0  0  0  0  0  0  0
  145.7417   71.9271  221.0488 H   0  0  0  0  0  0  0  0  0  0  0  0
  141.6760   72.7574  220.0400 H   0  0  0  0  0  0  0  0  0  0  0  0
  139.1179   69.6887  222.4317 H   0  0  0  0  0  0  0  0  0  0  0  0
  139.1607   68.2314  224.4569 H   0  0  0  0  0  0  0  0  0  0  0  0
  139.6940   67.9928  226.7682 H   0  0  0  0  0  0  0  0  0  0  0  0
  141.3835   71.2713  228.9800 H   0  0  0  0  0  0  0  0  0  0  0  0
  141.3106   72.6652  226.9457 H   0  0  0  0  0  0  0  0  0  0  0  0
  1  2  2  0
  2  3  1  0
  3  4  1  0
  4  5  1  0
  5  6  2  0
  5  7  1  0
  7  8  1  0
  8  9  1  0
  9 10  1  0
 10 11  1  0
 11 12  1  0
 12 13  1  0
 13 14  2  0
 14 15  1  0
 15 16  1  0
 15 17  2  0
 17 18  1  0
 18 19  1  0
 18 20  2  0
  2 21  1  0
 21 22  2  0
 22 23  1  0
 23 24  2  0
 24 25  1  0
 25 26  2  0
 26 27  1  0
 26 28  1  0
 28 29  2  0
 29 30  1  0
 30 31  2  0
 12  7  1  0
 20 13  1  0
 31 21  1  0
 30 24  1  0
  3 32  1  0
  4 33  1  0
  4 34  1  0
  8 35  1  0
  8 36  1  0
  9 37  1  0
  9 38  1  0
 10 39  1  0
 10 40  1  0
 11 41  1  0
 11 42  1  0
 12 43  1  6
 14 44  1  0
 17 45  1  0
 20 46  1  0
 22 47  1  0
 23 48  1  0
 25 49  1  0
 28 50  1  0
 29 51  1  0
M  END
>  <smiles>  (66) 
O=C(NCC(=O)N1CCCCC1c1cc(F)cc(F)c1)c1ccc2cc(F)ccc2n1

>  <score_type>  (66) 
oracle

>  <origin>  (66) 
autodockgpu

>  <m_score__min__energy>  (66) 
-8.6600000000000001

>  <m_primary>  (66) 
energy

>  <rmsd>  (66) 
2.180749181408422

>  <m_score__min__rmsd>  (66) 
2.180749181408422

>  <meeko>  (66) 
{"free_energy": -8.48, "intermolecular_energy": -9.97, "internal_energy": -2.13, "cluster_size": 20, "cluster_id": 3, "rank_in_cluster": 17}

>  <energy>  (66) 
-7.74

>  <cluster_rmsd>  (66) 
1.25

>  <cluster>  (66) 
1

$$$$

     RDKit          3D

 51 54  0  0  0  0  0  0  0  0999 V2000
  140.0400   71.6300  221.0780 O   0  0  0  0  0  0  0  0  0  0  0  0
  139.8940   72.1900  222.2090 C   0  0  0  0  0  0  0  0  0  0  0  0
  139.6850   73.5890  222.3430 N   0  0  0  0  0  0  0  0  0  0  0  0
  139.6220   74.4680  221.2030 C   0  0  0  0  0  0  0  0  0  0  0  0
  140.4760   75.6540  221.5340 C   0  0  0  0  0  0  0  0  0  0  0  0
  140.4160   76.2360  222.6490 O   0  0  0  0  0  0  0  0  0  0  0  0
  141.4090   76.1830  220.5830 N   0  0  0  0  0  0  0  0  0  0  0  0
  141.7960   77.5780  220.7950 C   0  0  0  0  0  0  0  0  0  0  0  0
  141.8810   78.3080  219.4560 C   0  0  0  0  0  0  0  0  0  0  0  0
  142.8860   77.5350  218.6340 C   0  0  0  0  0  0  0  0  0  0  0  0
  142.3630   76.1630  218.3170 C   0  0  0  0  0  0  0  0  0  0  0  0
  141.9090   75.3750  219.5120 C   0  0  1  0  0  0  0  0  0  0  0  0
  142.9350   74.3830  219.9250 C   0  0  0  0  0  0  0  0  0  0  0  0
  144.2460   74.7490  220.1960 C   0  0  0  0  0  0  0  0  0  0  0  0
  145.2090   73.8390  220.5810 C   0  0  0  0  0  0  0  0  0  0  0  0
  146.4750   74.2790  220.8290 F   0  0  0  0  0  0  0  0  0  0  0  0
  144.8550   72.5190  220.7010 C   0  0  0  0  0  0  0  0  0  0  0  0
  143.5790   72.1000  220.4480 C   0  0  0  0  0  0  0  0  0  0  0  0
  143.2500   70.7930  220.5720 F   0  0  0  0  0  0  0  0  0  0  0  0
  142.6350   73.0460  220.0630 C   0  0  0  0  0  0  0  0  0  0  0  0
  139.9460   71.3630  223.4130 C   0  0  0  0  0  0  0  0  0  0  0  0
  139.5300   70.0480  223.3860 C   0  0  0  0  0  0  0  0  0  0  0  0
  139.5600   69.2270  224.5040 C   0  0  0  0  0  0  0  0  0  0  0  0
  140.0420   69.8050  225.6810 C   0  0  0  0  0  0  0  0  0  0  0  0
  140.0850   69.0030  226.8240 C   0  0  0  0  0  0  0  0  0  0  0  0
  140.5530   69.5330  228.0110 C   0  0  0  0  0  0  0  0  0  0  0  0
  140.5770   68.7170  229.0960 F   0  0  0  0  0  0  0  0  0  0  0  0
  140.9740   70.8470  228.0560 C   0  0  0  0  0  0  0  0  0  0  0  0
  140.9210   71.6180  226.9120 C   0  0  0  0  0  0  0  0  0  0  0  0
  140.4550   71.1160  225.7050 C   0  0  0  0  0  0  0  0  0  0  0  0
  140.4070   71.8790  224.5890 N   0  0  0  0  0  0  0  0  0  0  0  0
  139.5720   73.9720  223.3290 H   0  0  0  0  0  0  0  0  0  0  0  0
  140.0091   73.9586  220.3082 H   0  0  0  0  0  0  0  0  0  0  0  0
  138.5860   74.7702  220.9899 H   0  0  0  0  0  0  0  0  0  0  0  0
  141.0463   78.0710  221.4313 H   0  0  0  0  0  0  0  0  0  0  0  0
  142.7804   77.6082  221.2849 H   0  0  0  0  0  0  0  0  0  0  0  0
  140.9001   78.3123  218.9582 H   0  0  0  0  0  0  0  0  0  0  0  0
  142.1818   79.3583  219.5837 H   0  0  0  0  0  0  0  0  0  0  0  0
  143.0777   78.0751  217.6951 H   0  0  0  0  0  0  0  0  0  0  0  0
  143.8169   77.4360  219.2116 H   0  0  0  0  0  0  0  0  0  0  0  0
  141.5086   76.2713  217.6327 H   0  0  0  0  0  0  0  0  0  0  0  0
  143.2015   75.6043  217.8756 H   0  0  0  0  0  0  0  0  0  0  0  0
  141.0273   74.7978  219.1966 H   0  0  0  0  0  0  0  0  0  0  0  0
  144.5289   75.8077  220.0999 H   0  0  0  0  0  0  0  0  0  0  0  0
  145.6133   71.7832  221.0070 H   0  0  0  0  0  0  0  0  0  0  0  0
  141.6065   72.7126  219.8604 H   0  0  0  0  0  0  0  0  0  0  0  0
  139.1586   69.6326  222.4376 H   0  0  0  0  0  0  0  0  0  0  0  0
  139.2234   68.1805  224.4658 H   0  0  0  0  0  0  0  0  0  0  0  0
  139.7486   67.9567  226.7793 H   0  0  0  0  0  0  0  0  0  0  0  0
  141.3490   71.2766  228.9966 H   0  0  0  0  0  0  0  0  0  0  0  0
  141.2590   72.6637  226.9587 H   0  0  0  0  0  0  0  0  0  0  0  0
  1  2  2  0
  2  3  1  0
  3  4  1  0
  4  5  1  0
  5  6  2  0
  5  7  1  0
  7  8  1  0
  8  9  1  0
  9 10  1  0
 10 11  1  0
 11 12  1  0
 12 13  1  0
 13 14  2  0
 14 15  1  0
 15 16  1  0
 15 17  2  0
 17 18  1  0
 18 19  1  0
 18 20  2  0
  2 21  1  0
 21 22  2  0
 22 23  1  0
 23 24  2  0
 24 25  1  0
 25 26  2  0
 26 27  1  0
 26 28  1  0
 28 29  2  0
 29 30  1  0
 30 31  2  0
 12  7  1  0
 20 13  1  0
 31 21  1  0
 30 24  1  0
  3 32  1  0
  4 33  1  0
  4 34  1  0
  8 35  1  0
  8 36  1  0
  9 37  1  0
  9 38  1  0
 10 39  1  0
 10 40  1  0
 11 41  1  0
 11 42  1  0
 12 43  1  6
 14 44  1  0
 17 45  1  0
 20 46  1  0
 22 47  1  0
 23 48  1  0
 25 49  1  0
 28 50  1  0
 29 51  1  0
M  END
>  <smiles>  (67) 
O=C(NCC(=O)N1CCCCC1c1cc(F)cc(F)c1)c1ccc2cc(F)ccc2n1

>  <score_type>  (67) 
oracle

>  <origin>  (67) 
autodockgpu

>  <m_score__min__energy>  (67) 
-8.6600000000000001

>  <m_primary>  (67) 
energy

>  <rmsd>  (67) 
2.1820612239598534

>  <m_score__min__rmsd>  (67) 
2.1820612239598534

>  <meeko>  (67) 
{"free_energy": -8.49, "intermolecular_energy": -9.98, "internal_energy": -2.14, "cluster_size": 20, "cluster_id": 3, "rank_in_cluster": 16}

>  <energy>  (67) 
-8.61

>  <cluster_rmsd>  (67) 
0.0

>  <cluster>  (67) 
2

$$$$

     RDKit          3D

 51 54  0  0  0  0  0  0  0  0999 V2000
  137.1800   75.7360  221.6770 O   0  0  0  0  0  0  0  0  0  0  0  0
  138.4020   75.7970  222.0200 C   0  0  0  0  0  0  0  0  0  0  0  0
  139.2510   74.6570  222.0150 N   0  0  0  0  0  0  0  0  0  0  0  0
  138.7830   73.3530  221.6190 C   0  0  0  0  0  0  0  0  0  0  0  0
  139.5690   72.3590  222.4180 C   0  0  0  0  0  0  0  0  0  0  0  0
  140.6800   72.6430  222.9400 O   0  0  0  0  0  0  0  0  0  0  0  0
  139.0850   71.0250  222.6240 N   0  0  0  0  0  0  0  0  0  0  0  0
  139.2550   70.1170  221.4900 C   0  0  0  0  0  0  0  0  0  0  0  0
  138.0150   69.2380  221.3330 C   0  0  0  0  0  0  0  0  0  0  0  0
  137.8590   68.5150  222.6510 C   0  0  0  0  0  0  0  0  0  0  0  0
  137.5330   69.4870  223.7490 C   0  0  0  0  0  0  0  0  0  0  0  0
  138.4850   70.6420  223.8660 C   0  0  1  0  0  0  0  0  0  0  0  0
  139.4550   70.4320  224.9720 C   0  0  0  0  0  0  0  0  0  0  0  0
  139.7800   69.1650  225.4350 C   0  0  0  0  0  0  0  0  0  0  0  0
  140.6780   68.9540  226.4610 C   0  0  0  0  0  0  0  0  0  0  0  0
  140.9440   67.6780  226.8580 F   0  0  0  0  0  0  0  0  0  0  0  0
  141.2750   70.0430  227.0460 C   0  0  0  0  0  0  0  0  0  0  0  0
  140.9940   71.3150  226.6300 C   0  0  0  0  0  0  0  0  0  0  0  0
  141.5930   72.3750  227.2200 F   0  0  0  0  0  0  0  0  0  0  0  0
  140.0830   71.4880  225.5940 C   0  0  0  0  0  0  0  0  0  0  0  0
  138.9500   77.0870  222.4340 C   0  0  0  0  0  0  0  0  0  0  0  0
  138.1190   78.1520  222.7090 C   0  0  0  0  0  0  0  0  0  0  0  0
  138.5950   79.3950  223.1050 C   0  0  0  0  0  0  0  0  0  0  0  0
  139.9820   79.5170  223.2150 C   0  0  0  0  0  0  0  0  0  0  0  0
  140.4930   80.7550  223.6120 C   0  0  0  0  0  0  0  0  0  0  0  0
  141.8590   80.9220  223.7340 C   0  0  0  0  0  0  0  0  0  0  0  0
  142.3090   82.1430  224.1220 F   0  0  0  0  0  0  0  0  0  0  0  0
  142.7050   79.8650  223.4630 C   0  0  0  0  0  0  0  0  0  0  0  0
  142.1760   78.6520  223.0730 C   0  0  0  0  0  0  0  0  0  0  0  0
  140.8090   78.4520  222.9400 C   0  0  0  0  0  0  0  0  0  0  0  0
  140.2980   77.2590  222.5560 N   0  0  0  0  0  0  0  0  0  0  0  0
  140.2600   74.8020  222.3170 H   0  0  0  0  0  0  0  0  0  0  0  0
  137.7095   73.2521  221.8368 H   0  0  0  0  0  0  0  0  0  0  0  0
  138.9187   73.1923  220.5393 H   0  0  0  0  0  0  0  0  0  0  0  0
  139.4034   70.7046  220.5720 H   0  0  0  0  0  0  0  0  0  0  0  0
  140.1311   69.4763  221.6690 H   0  0  0  0  0  0  0  0  0  0  0  0
  137.1292   69.8570  221.1275 H   0  0  0  0  0  0  0  0  0  0  0  0
  138.1184   68.5351  220.4932 H   0  0  0  0  0  0  0  0  0  0  0  0
  137.0460   67.7789  222.5661 H   0  0  0  0  0  0  0  0  0  0  0  0
  138.8051   68.0089  222.8933 H   0  0  0  0  0  0  0  0  0  0  0  0
  136.5265   69.8898  223.5626 H   0  0  0  0  0  0  0  0  0  0  0  0
  137.6063   68.9265  224.6926 H   0  0  0  0  0  0  0  0  0  0  0  0
  137.8857   71.5223  224.1415 H   0  0  0  0  0  0  0  0  0  0  0  0
  139.3021   68.2930  224.9647 H   0  0  0  0  0  0  0  0  0  0  0  0
  141.9931   69.8895  227.8650 H   0  0  0  0  0  0  0  0  0  0  0  0
  139.8546   72.5100  225.2575 H   0  0  0  0  0  0  0  0  0  0  0  0
  137.0325   78.0112  222.6105 H   0  0  0  0  0  0  0  0  0  0  0  0
  137.9185   80.2353  223.3197 H   0  0  0  0  0  0  0  0  0  0  0  0
  139.8119   81.5918  223.8262 H   0  0  0  0  0  0  0  0  0  0  0  0
  143.7939   79.9893  223.5575 H   0  0  0  0  0  0  0  0  0  0  0  0
  142.8594   77.8167  222.8607 H   0  0  0  0  0  0  0  0  0  0  0  0
  1  2  2  0
  2  3  1  0
  3  4  1  0
  4  5  1  0
  5  6  2  0
  5  7  1  0
  7  8  1  0
  8  9  1  0
  9 10  1  0
 10 11  1  0
 11 12  1  0
 12 13  1  0
 13 14  2  0
 14 15  1  0
 15 16  1  0
 15 17  2  0
 17 18  1  0
 18 19  1  0
 18 20  2  0
  2 21  1  0
 21 22  2  0
 22 23  1  0
 23 24  2  0
 24 25  1  0
 25 26  2  0
 26 27  1  0
 26 28  1  0
 28 29  2  0
 29 30  1  0
 30 31  2  0
 12  7  1  0
 20 13  1  0
 31 21  1  0
 30 24  1  0
  3 32  1  0
  4 33  1  0
  4 34  1  0
  8 35  1  0
  8 36  1  0
  9 37  1  0
  9 38  1  0
 10 39  1  0
 10 40  1  0
 11 41  1  0
 11 42  1  0
 12 43  1  1
 14 44  1  0
 17 45  1  0
 20 46  1  0
 22 47  1  0
 23 48  1  0
 25 49  1  0
 28 50  1  0
 29 51  1  0
M  END
>  <smiles>  (68) 
O=C(NCC(=O)N1CCCCC1c1cc(F)cc(F)c1)c1ccc2cc(F)ccc2n1

>  <score_type>  (68) 
oracle

>  <origin>  (68) 
autodockgpu

>  <m_score__min__energy>  (68) 
-8.6600000000000001

>  <m_primary>  (68) 
energy

>  <rmsd>  (68) 
8.458553086922368

>  <m_score__min__rmsd>  (68) 
8.458553086922368

>  <meeko>  (68) 
{"free_energy": -7.98, "intermolecular_energy": -9.47, "internal_energy": -2.04, "cluster_size": 9, "cluster_id": 2, "rank_in_cluster": 9}

>  <energy>  (68) 
-8.57

>  <cluster_rmsd>  (68) 
0.42

>  <cluster>  (68) 
2

$$$$

     RDKit          3D

 51 54  0  0  0  0  0  0  0  0999 V2000
  139.3550   71.4000  221.0560 O   0  0  0  0  0  0  0  0  0  0  0  0
  139.4750   71.9930  222.1720 C   0  0  0  0  0  0  0  0  0  0  0  0
  139.4830   73.4100  222.2830 N   0  0  0  0  0  0  0  0  0  0  0  0
  139.3530   74.2700  221.1350 C   0  0  0  0  0  0  0  0  0  0  0  0
  139.9200   75.5990  221.5340 C   0  0  0  0  0  0  0  0  0  0  0  0
  140.0400   75.9450  222.7380 O   0  0  0  0  0  0  0  0  0  0  0  0
  140.3530   76.5460  220.5480 N   0  0  0  0  0  0  0  0  0  0  0  0
  139.5410   76.5980  219.3320 C   0  0  0  0  0  0  0  0  0  0  0  0
  140.4420   76.7480  218.1070 C   0  0  0  0  0  0  0  0  0  0  0  0
  141.2390   78.0110  218.3400 C   0  0  0  0  0  0  0  0  0  0  0  0
  142.1660   77.8400  219.5090 C   0  0  0  0  0  0  0  0  0  0  0  0
  141.5030   77.3690  220.7710 C   0  0  1  0  0  0  0  0  0  0  0  0
  141.2730   78.4950  221.7120 C   0  0  0  0  0  0  0  0  0  0  0  0
  140.0190   79.0630  221.8890 C   0  0  0  0  0  0  0  0  0  0  0  0
  139.7910   80.1090  222.7580 C   0  0  0  0  0  0  0  0  0  0  0  0
  138.5300   80.6120  222.8750 F   0  0  0  0  0  0  0  0  0  0  0  0
  140.8480   80.6080  223.4790 C   0  0  0  0  0  0  0  0  0  0  0  0
  142.1050   80.0870  223.3470 C   0  0  0  0  0  0  0  0  0  0  0  0
  143.1340   80.5930  224.0660 F   0  0  0  0  0  0  0  0  0  0  0  0
  142.2970   79.0330  222.4600 C   0  0  0  0  0  0  0  0  0  0  0  0
  139.6110   71.1870  223.3840 C   0  0  0  0  0  0  0  0  0  0  0  0
  139.2240   69.8640  223.3990 C   0  0  0  0  0  0  0  0  0  0  0  0
  139.3330   69.0610  224.5260 C   0  0  0  0  0  0  0  0  0  0  0  0
  139.8660   69.6690  225.6660 C   0  0  0  0  0  0  0  0  0  0  0  0
  139.9900   68.8870  226.8180 C   0  0  0  0  0  0  0  0  0  0  0  0
  140.5110   69.4460  227.9680 C   0  0  0  0  0  0  0  0  0  0  0  0
  140.6120   68.6480  229.0620 F   0  0  0  0  0  0  0  0  0  0  0  0
  140.9040   70.7690  227.9700 C   0  0  0  0  0  0  0  0  0  0  0  0
  140.7720   71.5200  226.8200 C   0  0  0  0  0  0  0  0  0  0  0  0
  140.2510   70.9890  225.6480 C   0  0  0  0  0  0  0  0  0  0  0  0
  140.1250   71.7330  224.5240 N   0  0  0  0  0  0  0  0  0  0  0  0
  139.5870   73.8210  223.2590 H   0  0  0  0  0  0  0  0  0  0  0  0
  139.9151   73.8566  220.2846 H   0  0  0  0  0  0  0  0  0  0  0  0
  138.3020   74.3626  220.8237 H   0  0  0  0  0  0  0  0  0  0  0  0
  138.9578   75.6695  219.2436 H   0  0  0  0  0  0  0  0  0  0  0  0
  138.8620   77.4616  219.3883 H   0  0  0  0  0  0  0  0  0  0  0  0
  141.1136   75.8816  218.0161 H   0  0  0  0  0  0  0  0  0  0  0  0
  139.8578   76.8015  217.1765 H   0  0  0  0  0  0  0  0  0  0  0  0
  141.8294   78.2376  217.4400 H   0  0  0  0  0  0  0  0  0  0  0  0
  140.5437   78.8358  218.5551 H   0  0  0  0  0  0  0  0  0  0  0  0
  142.9358   77.1049  219.2313 H   0  0  0  0  0  0  0  0  0  0  0  0
  142.5781   78.8362  219.7274 H   0  0  0  0  0  0  0  0  0  0  0  0
  142.2103   76.6886  221.2678 H   0  0  0  0  0  0  0  0  0  0  0  0
  139.1723   78.6622  221.3124 H   0  0  0  0  0  0  0  0  0  0  0  0
  140.6801   81.4425  224.1757 H   0  0  0  0  0  0  0  0  0  0  0  0
  143.3074   78.6120  222.3514 H   0  0  0  0  0  0  0  0  0  0  0  0
  138.8111   69.4258  222.4784 H   0  0  0  0  0  0  0  0  0  0  0  0
  139.0181   68.0070  224.5221 H   0  0  0  0  0  0  0  0  0  0  0  0
  139.6746   67.8332  226.8084 H   0  0  0  0  0  0  0  0  0  0  0  0
  141.3197   71.2217  228.8823 H   0  0  0  0  0  0  0  0  0  0  0  0
  141.0897   72.5730  226.8323 H   0  0  0  0  0  0  0  0  0  0  0  0
  1  2  2  0
  2  3  1  0
  3  4  1  0
  4  5  1  0
  5  6  2  0
  5  7  1  0
  7  8  1  0
  8  9  1  0
  9 10  1  0
 10 11  1  0
 11 12  1  0
 12 13  1  0
 13 14  2  0
 14 15  1  0
 15 16  1  0
 15 17  2  0
 17 18  1  0
 18 19  1  0
 18 20  2  0
  2 21  1  0
 21 22  2  0
 22 23  1  0
 23 24  2  0
 24 25  1  0
 25 26  2  0
 26 27  1  0
 26 28  1  0
 28 29  2  0
 29 30  1  0
 30 31  2  0
 12  7  1  0
 20 13  1  0
 31 21  1  0
 30 24  1  0
  3 32  1  0
  4 33  1  0
  4 34  1  0
  8 35  1  0
  8 36  1  0
  9 37  1  0
  9 38  1  0
 10 39  1  0
 10 40  1  0
 11 41  1  0
 11 42  1  0
 12 43  1  1
 14 44  1  0
 17 45  1  0
 20 46  1  0
 22 47  1  0
 23 48  1  0
 25 49  1  0
 28 50  1  0
 29 51  1  0
M  END
>  <smiles>  (69) 
O=C(NCC(=O)N1CCCCC1c1cc(F)cc(F)c1)c1ccc2cc(F)ccc2n1

>  <score_type>  (69) 
oracle

>  <origin>  (69) 
autodockgpu

>  <m_score__min__energy>  (69) 
-8.6600000000000001

>  <m_primary>  (69) 
energy

>  <rmsd>  (69) 
1.3829720757176889

>  <m_score__min__rmsd>  (69) 
1.3829720757176889

>  <meeko>  (69) 
{"free_energy": -8.26, "intermolecular_energy": -9.75, "internal_energy": -2.09, "cluster_size": 16, "cluster_id": 1, "rank_in_cluster": 12}

>  <energy>  (69) 
-8.49

>  <cluster_rmsd>  (69) 
1.07

>  <cluster>  (69) 
2

$$$$

     RDKit          3D

 51 54  0  0  0  0  0  0  0  0999 V2000
  141.1080   71.9560  220.7870 O   0  0  0  0  0  0  0  0  0  0  0  0
  140.7840   72.8590  221.6200 C   0  0  0  0  0  0  0  0  0  0  0  0
  140.1690   72.5590  222.8660 N   0  0  0  0  0  0  0  0  0  0  0  0
  139.8710   71.2080  223.2690 C   0  0  0  0  0  0  0  0  0  0  0  0
  140.3370   71.0760  224.6870 C   0  0  0  0  0  0  0  0  0  0  0  0
  141.0630   71.9430  225.2400 O   0  0  0  0  0  0  0  0  0  0  0  0
  139.9720   69.9410  225.4840 N   0  0  0  0  0  0  0  0  0  0  0  0
  140.0440   70.1440  226.9310 C   0  0  0  0  0  0  0  0  0  0  0  0
  140.6190   68.9000  227.6060 C   0  0  0  0  0  0  0  0  0  0  0  0
  139.7020   67.7640  227.2140 C   0  0  0  0  0  0  0  0  0  0  0  0
  139.7900   67.5030  225.7370 C   0  0  0  0  0  0  0  0  0  0  0  0
  139.5670   68.7110  224.8740 C   0  0  1  0  0  0  0  0  0  0  0  0
  138.1890   68.7310  224.3190 C   0  0  0  0  0  0  0  0  0  0  0  0
  137.8910   68.2110  223.0680 C   0  0  0  0  0  0  0  0  0  0  0  0
  136.6160   68.2220  222.5400 C   0  0  0  0  0  0  0  0  0  0  0  0
  136.4060   67.6920  221.3030 F   0  0  0  0  0  0  0  0  0  0  0  0
  135.6020   68.7700  223.2850 C   0  0  0  0  0  0  0  0  0  0  0  0
  135.8360   69.2960  224.5250 C   0  0  0  0  0  0  0  0  0  0  0  0
  134.8210   69.8320  225.2430 F   0  0  0  0  0  0  0  0  0  0  0  0
  137.1330   69.2670  225.0240 C   0  0  0  0  0  0  0  0  0  0  0  0
  141.0550   74.2550  221.2820 C   0  0  0  0  0  0  0  0  0  0  0  0
  141.6590   74.5880  220.0890 C   0  0  0  0  0  0  0  0  0  0  0  0
  141.9360   75.8990  219.7260 C   0  0  0  0  0  0  0  0  0  0  0  0
  141.5650   76.8840  220.6450 C   0  0  0  0  0  0  0  0  0  0  0  0
  141.8300   78.2140  220.3090 C   0  0  0  0  0  0  0  0  0  0  0  0
  141.4810   79.2220  221.1880 C   0  0  0  0  0  0  0  0  0  0  0  0
  141.7580   80.4990  220.8190 F   0  0  0  0  0  0  0  0  0  0  0  0
  140.8740   78.9050  222.3870 C   0  0  0  0  0  0  0  0  0  0  0  0
  140.6230   77.5830  222.6950 C   0  0  0  0  0  0  0  0  0  0  0  0
  140.9630   76.5490  221.8350 C   0  0  0  0  0  0  0  0  0  0  0  0
  140.7130   75.2550  222.1450 N   0  0  0  0  0  0  0  0  0  0  0  0
  139.9330   73.3780  223.5020 H   0  0  0  0  0  0  0  0  0  0  0  0
  138.7887   71.0222  223.2056 H   0  0  0  0  0  0  0  0  0  0  0  0
  140.3711   70.4779  222.6157 H   0  0  0  0  0  0  0  0  0  0  0  0
  140.6914   71.0070  227.1459 H   0  0  0  0  0  0  0  0  0  0  0  0
  139.0321   70.3303  227.3199 H   0  0  0  0  0  0  0  0  0  0  0  0
  141.6419   68.7081  227.2499 H   0  0  0  0  0  0  0  0  0  0  0  0
  140.6756   69.0190  228.6981 H   0  0  0  0  0  0  0  0  0  0  0  0
  139.9966   66.8559  227.7603 H   0  0  0  0  0  0  0  0  0  0  0  0
  138.6671   68.0389  227.4659 H   0  0  0  0  0  0  0  0  0  0  0  0
  140.7919   67.1053  225.5181 H   0  0  0  0  0  0  0  0  0  0  0  0
  138.9827   66.7954  225.4971 H   0  0  0  0  0  0  0  0  0  0  0  0
  140.2467   68.6177  224.0142 H   0  0  0  0  0  0  0  0  0  0  0  0
  138.7046   67.7717  222.4722 H   0  0  0  0  0  0  0  0  0  0  0  0
  134.5809   68.7863  222.8764 H   0  0  0  0  0  0  0  0  0  0  0  0
  137.3243   69.6888  226.0217 H   0  0  0  0  0  0  0  0  0  0  0  0
  141.9334   73.7803  219.3945 H   0  0  0  0  0  0  0  0  0  0  0  0
  142.4197   76.1480  218.7700 H   0  0  0  0  0  0  0  0  0  0  0  0
  142.3132   78.4573  219.3512 H   0  0  0  0  0  0  0  0  0  0  0  0
  140.5922   79.7008  223.0922 H   0  0  0  0  0  0  0  0  0  0  0  0
  140.1382   77.3419  223.6525 H   0  0  0  0  0  0  0  0  0  0  0  0
  1  2  2  0
  2  3  1  0
  3  4  1  0
  4  5  1  0
  5  6  2  0
  5  7  1  0
  7  8  1  0
  8  9  1  0
  9 10  1  0
 10 11  1  0
 11 12  1  0
 12 13  1  0
 13 14  2  0
 14 15  1  0
 15 16  1  0
 15 17  2  0
 17 18  1  0
 18 19  1  0
 18 20  2  0
  2 21  1  0
 21 22  2  0
 22 23  1  0
 23 24  2  0
 24 25  1  0
 25 26  2  0
 26 27  1  0
 26 28  1  0
 28 29  2  0
 29 30  1  0
 30 31  2  0
 12  7  1  0
 20 13  1  0
 31 21  1  0
 30 24  1  0
  3 32  1  0
  4 33  1  0
  4 34  1  0
  8 35  1  0
  8 36  1  0
  9 37  1  0
  9 38  1  0
 10 39  1  0
 10 40  1  0
 11 41  1  0
 11 42  1  0
 12 43  1  6
 14 44  1  0
 17 45  1  0
 20 46  1  0
 22 47  1  0
 23 48  1  0
 25 49  1  0
 28 50  1  0
 29 51  1  0
M  END
>  <smiles>  (70) 
O=C(NCC(=O)N1CCCCC1c1cc(F)cc(F)c1)c1ccc2cc(F)ccc2n1

>  <score_type>  (70) 
oracle

>  <origin>  (70) 
autodockgpu

>  <m_score__min__energy>  (70) 
-8.6600000000000001

>  <m_primary>  (70) 
energy

>  <rmsd>  (70) 
9.07247903482785

>  <m_score__min__rmsd>  (70) 
9.07247903482785

>  <meeko>  (70) 
{"free_energy": -7.51, "intermolecular_energy": -9.0, "internal_energy": -1.83, "cluster_size": 1, "cluster_id": 6, "rank_in_cluster": 1}

>  <energy>  (70) 
-8.13

>  <cluster_rmsd>  (70) 
0.67

>  <cluster>  (70) 
2

$$$$

     RDKit          3D

 51 54  0  0  0  0  0  0  0  0999 V2000
  140.0610   71.5320  221.0400 O   0  0  0  0  0  0  0  0  0  0  0  0
  139.9030   72.1070  222.1620 C   0  0  0  0  0  0  0  0  0  0  0  0
  139.6980   73.5090  222.2760 N   0  0  0  0  0  0  0  0  0  0  0  0
  139.6530   74.3740  221.1250 C   0  0  0  0  0  0  0  0  0  0  0  0
  140.4650   75.5840  221.4730 C   0  0  0  0  0  0  0  0  0  0  0  0
  140.3540   76.1750  222.5790 O   0  0  0  0  0  0  0  0  0  0  0  0
  141.4150   76.1300  220.5470 N   0  0  0  0  0  0  0  0  0  0  0  0
  141.7930   77.5220  220.7870 C   0  0  0  0  0  0  0  0  0  0  0  0
  141.9020   78.2710  219.4590 C   0  0  0  0  0  0  0  0  0  0  0  0
  142.9260   77.5120  218.6470 C   0  0  0  0  0  0  0  0  0  0  0  0
  142.4140   76.1430  218.3020 C   0  0  0  0  0  0  0  0  0  0  0  0
  141.9390   75.3370  219.4760 C   0  0  1  0  0  0  0  0  0  0  0  0
  142.9600   74.3430  219.8960 C   0  0  0  0  0  0  0  0  0  0  0  0
  142.6590   72.9970  220.0450 C   0  0  0  0  0  0  0  0  0  0  0  0
  143.5970   72.0630  220.4350 C   0  0  0  0  0  0  0  0  0  0  0  0
  143.2220   70.7580  220.5590 F   0  0  0  0  0  0  0  0  0  0  0  0
  144.8790   72.4830  220.6840 C   0  0  0  0  0  0  0  0  0  0  0  0
  145.2340   73.7970  220.5520 C   0  0  0  0  0  0  0  0  0  0  0  0
  146.5040   74.1910  220.8030 F   0  0  0  0  0  0  0  0  0  0  0  0
  144.2620   74.7100  220.1580 C   0  0  0  0  0  0  0  0  0  0  0  0
  139.9360   71.2940  223.3770 C   0  0  0  0  0  0  0  0  0  0  0  0
  139.5080   69.9830  223.3610 C   0  0  0  0  0  0  0  0  0  0  0  0
  139.5200   69.1750  224.4900 C   0  0  0  0  0  0  0  0  0  0  0  0
  139.9960   69.7630  225.6640 C   0  0  0  0  0  0  0  0  0  0  0  0
  140.0210   68.9760  226.8180 C   0  0  0  0  0  0  0  0  0  0  0  0
  140.4830   69.5160  228.0020 C   0  0  0  0  0  0  0  0  0  0  0  0
  140.4890   68.7130  229.0970 F   0  0  0  0  0  0  0  0  0  0  0  0
  140.9160   70.8260  228.0350 C   0  0  0  0  0  0  0  0  0  0  0  0
  140.8810   71.5840  226.8810 C   0  0  0  0  0  0  0  0  0  0  0  0
  140.4220   71.0710  225.6760 C   0  0  0  0  0  0  0  0  0  0  0  0
  140.3910   71.8210  224.5500 N   0  0  0  0  0  0  0  0  0  0  0  0
  139.5740   73.9030  223.2560 H   0  0  0  0  0  0  0  0  0  0  0  0
  140.0839   73.8655  220.2499 H   0  0  0  0  0  0  0  0  0  0  0  0
  138.6180   74.6476  220.8721 H   0  0  0  0  0  0  0  0  0  0  0  0
  141.0292   78.0037  221.4152 H   0  0  0  0  0  0  0  0  0  0  0  0
  142.7671   77.5486  221.2973 H   0  0  0  0  0  0  0  0  0  0  0  0
  140.9312   78.2789  218.9419 H   0  0  0  0  0  0  0  0  0  0  0  0
  142.1964   79.3205  219.6067 H   0  0  0  0  0  0  0  0  0  0  0  0
  143.1344   78.0650  217.7192 H   0  0  0  0  0  0  0  0  0  0  0  0
  143.8457   77.4085  219.2415 H   0  0  0  0  0  0  0  0  0  0  0  0
  141.5730   76.2579  217.6024 H   0  0  0  0  0  0  0  0  0  0  0  0
  143.2634   75.5931  217.8707 H   0  0  0  0  0  0  0  0  0  0  0  0
  141.0663   74.7601  219.1358 H   0  0  0  0  0  0  0  0  0  0  0  0
  141.6311   72.6607  219.8442 H   0  0  0  0  0  0  0  0  0  0  0  0
  145.6361   71.7485  220.9959 H   0  0  0  0  0  0  0  0  0  0  0  0
  144.5439   75.7679  220.0512 H   0  0  0  0  0  0  0  0  0  0  0  0
  139.1418   69.5598  222.4140 H   0  0  0  0  0  0  0  0  0  0  0  0
  139.1743   68.1311  224.4615 H   0  0  0  0  0  0  0  0  0  0  0  0
  139.6747   67.9325  226.7837 H   0  0  0  0  0  0  0  0  0  0  0  0
  141.2864   71.2634  228.9739 H   0  0  0  0  0  0  0  0  0  0  0  0
  141.2279   72.6272  226.9182 H   0  0  0  0  0  0  0  0  0  0  0  0
  1  2  2  0
  2  3  1  0
  3  4  1  0
  4  5  1  0
  5  6  2  0
  5  7  1  0
  7  8  1  0
  8  9  1  0
  9 10  1  0
 10 11  1  0
 11 12  1  0
 12 13  1  0
 13 14  2  0
 14 15  1  0
 15 16  1  0
 15 17  2  0
 17 18  1  0
 18 19  1  0
 18 20  2  0
  2 21  1  0
 21 22  2  0
 22 23  1  0
 23 24  2  0
 24 25  1  0
 25 26  2  0
 26 27  1  0
 26 28  1  0
 28 29  2  0
 29 30  1  0
 30 31  2  0
 12  7  1  0
 20 13  1  0
 31 21  1  0
 30 24  1  0
  3 32  1  0
  4 33  1  0
  4 34  1  0
  8 35  1  0
  8 36  1  0
  9 37  1  0
  9 38  1  0
 10 39  1  0
 10 40  1  0
 11 41  1  0
 11 42  1  0
 12 43  1  6
 14 44  1  0
 17 45  1  0
 20 46  1  0
 22 47  1  0
 23 48  1  0
 25 49  1  0
 28 50  1  0
 29 51  1  0
M  END
>  <smiles>  (71) 
O=C(NCC(=O)N1CCCCC1c1cc(F)cc(F)c1)c1ccc2cc(F)ccc2n1

>  <score_type>  (71) 
oracle

>  <origin>  (71) 
autodockgpu

>  <m_score__min__energy>  (71) 
-8.6600000000000001

>  <m_primary>  (71) 
energy

>  <rmsd>  (71) 
2.1680524061958057

>  <m_score__min__rmsd>  (71) 
2.1680524061958057

>  <meeko>  (71) 
{"free_energy": -8.51, "intermolecular_energy": -10.0, "internal_energy": -2.15, "cluster_size": 20, "cluster_id": 3, "rank_in_cluster": 8}

>  <energy>  (71) 
-8.11

>  <cluster_rmsd>  (71) 
0.7

>  <cluster>  (71) 
2

$$$$

     RDKit          3D

 51 54  0  0  0  0  0  0  0  0999 V2000
  137.0090   75.6550  222.1060 O   0  0  0  0  0  0  0  0  0  0  0  0
  138.2580   75.7530  222.3120 C   0  0  0  0  0  0  0  0  0  0  0  0
  139.1280   74.6290  222.2600 N   0  0  0  0  0  0  0  0  0  0  0  0
  138.6490   73.3020  221.9690 C   0  0  0  0  0  0  0  0  0  0  0  0
  139.6930   72.3540  222.4790 C   0  0  0  0  0  0  0  0  0  0  0  0
  140.8520   72.7340  222.7910 O   0  0  0  0  0  0  0  0  0  0  0  0
  139.4120   70.9560  222.6320 N   0  0  0  0  0  0  0  0  0  0  0  0
  139.8960   70.0990  221.5510 C   0  0  0  0  0  0  0  0  0  0  0  0
  138.8560   69.0270  221.2260 C   0  0  0  0  0  0  0  0  0  0  0  0
  138.6290   68.2770  222.5180 C   0  0  0  0  0  0  0  0  0  0  0  0
  137.9870   69.1710  223.5400 C   0  0  0  0  0  0  0  0  0  0  0  0
  138.7060   70.4680  223.7780 C   0  0  1  0  0  0  0  0  0  0  0  0
  139.5220   70.4120  225.0180 C   0  0  0  0  0  0  0  0  0  0  0  0
  139.6170   69.2590  225.7860 C   0  0  0  0  0  0  0  0  0  0  0  0
  140.3710   69.1930  226.9390 C   0  0  0  0  0  0  0  0  0  0  0  0
  140.4130   68.0240  227.6380 F   0  0  0  0  0  0  0  0  0  0  0  0
  141.0550   70.3120  227.3430 C   0  0  0  0  0  0  0  0  0  0  0  0
  141.0000   71.4750  226.6260 C   0  0  0  0  0  0  0  0  0  0  0  0
  141.6820   72.5680  227.0410 F   0  0  0  0  0  0  0  0  0  0  0  0
  140.2300   71.5040  225.4680 C   0  0  0  0  0  0  0  0  0  0  0  0
  138.8190   77.0690  222.6120 C   0  0  0  0  0  0  0  0  0  0  0  0
  137.9990   78.1640  222.7810 C   0  0  0  0  0  0  0  0  0  0  0  0
  138.4860   79.4320  223.0660 C   0  0  0  0  0  0  0  0  0  0  0  0
  139.8730   79.5480  223.1790 C   0  0  0  0  0  0  0  0  0  0  0  0
  140.3960   80.8110  223.4660 C   0  0  0  0  0  0  0  0  0  0  0  0
  141.7630   80.9730  223.5860 C   0  0  0  0  0  0  0  0  0  0  0  0
  142.2250   82.2190  223.8660 F   0  0  0  0  0  0  0  0  0  0  0  0
  142.5980   79.8860  223.4210 C   0  0  0  0  0  0  0  0  0  0  0  0
  142.0580   78.6490  223.1380 C   0  0  0  0  0  0  0  0  0  0  0  0
  140.6890   78.4530  223.0100 C   0  0  0  0  0  0  0  0  0  0  0  0
  140.1680   77.2360  222.7320 N   0  0  0  0  0  0  0  0  0  0  0  0
  140.1600   74.8050  222.4450 H   0  0  0  0  0  0  0  0  0  0  0  0
  137.6909   73.1230  222.4789 H   0  0  0  0  0  0  0  0  0  0  0  0
  138.4799   73.1665  220.8905 H   0  0  0  0  0  0  0  0  0  0  0  0
  140.0797   70.7111  220.6557 H   0  0  0  0  0  0  0  0  0  0  0  0
  140.8294   69.6111  221.8683 H   0  0  0  0  0  0  0  0  0  0  0  0
  137.9201   69.4916  220.8820 H   0  0  0  0  0  0  0  0  0  0  0  0
  139.1976   68.3587  220.4218 H   0  0  0  0  0  0  0  0  0  0  0  0
  137.9715   67.4163  222.3261 H   0  0  0  0  0  0  0  0  0  0  0  0
  139.5998   67.9341  222.9053 H   0  0  0  0  0  0  0  0  0  0  0  0
  136.9665   69.4020  223.2007 H   0  0  0  0  0  0  0  0  0  0  0  0
  138.0118   68.6221  224.4929 H   0  0  0  0  0  0  0  0  0  0  0  0
  137.9352   71.2342  223.9477 H   0  0  0  0  0  0  0  0  0  0  0  0
  139.0688   68.3621  225.4617 H   0  0  0  0  0  0  0  0  0  0  0  0
  141.6592   70.2726  228.2614 H   0  0  0  0  0  0  0  0  0  0  0  0
  140.1848   72.4375  224.8879 H   0  0  0  0  0  0  0  0  0  0  0  0
  136.9117   78.0269  222.6859 H   0  0  0  0  0  0  0  0  0  0  0  0
  137.8177   80.2961  223.1954 H   0  0  0  0  0  0  0  0  0  0  0  0
  139.7235   81.6717  223.5958 H   0  0  0  0  0  0  0  0  0  0  0  0
  143.6874   80.0059  223.5147 H   0  0  0  0  0  0  0  0  0  0  0  0
  142.7331   77.7901  223.0095 H   0  0  0  0  0  0  0  0  0  0  0  0
  1  2  2  0
  2  3  1  0
  3  4  1  0
  4  5  1  0
  5  6  2  0
  5  7  1  0
  7  8  1  0
  8  9  1  0
  9 10  1  0
 10 11  1  0
 11 12  1  0
 12 13  1  0
 13 14  2  0
 14 15  1  0
 15 16  1  0
 15 17  2  0
 17 18  1  0
 18 19  1  0
 18 20  2  0
  2 21  1  0
 21 22  2  0
 22 23  1  0
 23 24  2  0
 24 25  1  0
 25 26  2  0
 26 27  1  0
 26 28  1  0
 28 29  2  0
 29 30  1  0
 30 31  2  0
 12  7  1  0
 20 13  1  0
 31 21  1  0
 30 24  1  0
  3 32  1  0
  4 33  1  0
  4 34  1  0
  8 35  1  0
  8 36  1  0
  9 37  1  0
  9 38  1  0
 10 39  1  0
 10 40  1  0
 11 41  1  0
 11 42  1  0
 12 43  1  1
 14 44  1  0
 17 45  1  0
 20 46  1  0
 22 47  1  0
 23 48  1  0
 25 49  1  0
 28 50  1  0
 29 51  1  0
M  END
>  <smiles>  (72) 
O=C(NCC(=O)N1CCCCC1c1cc(F)cc(F)c1)c1ccc2cc(F)ccc2n1

>  <score_type>  (72) 
oracle

>  <origin>  (72) 
autodockgpu

>  <m_score__min__energy>  (72) 
-8.6600000000000001

>  <m_primary>  (72) 
energy

>  <rmsd>  (72) 
8.484478983736901

>  <m_score__min__rmsd>  (72) 
8.484478983736901

>  <meeko>  (72) 
{"free_energy": -8.1, "intermolecular_energy": -9.59, "internal_energy": -2.12, "cluster_size": 9, "cluster_id": 2, "rank_in_cluster": 6}

>  <energy>  (72) 
-8.1

>  <cluster_rmsd>  (72) 
0.69

>  <cluster>  (72) 
2

$$$$

     RDKit          3D

 51 54  0  0  0  0  0  0  0  0999 V2000
  140.0650   71.6490  221.0700 O   0  0  0  0  0  0  0  0  0  0  0  0
  139.9070   72.2060  222.2010 C   0  0  0  0  0  0  0  0  0  0  0  0
  139.6990   73.6060  222.3360 N   0  0  0  0  0  0  0  0  0  0  0  0
  139.6530   74.4880  221.1980 C   0  0  0  0  0  0  0  0  0  0  0  0
  140.5290   75.6570  221.5320 C   0  0  0  0  0  0  0  0  0  0  0  0
  140.4910   76.2280  222.6540 O   0  0  0  0  0  0  0  0  0  0  0  0
  141.4590   76.1830  220.5760 N   0  0  0  0  0  0  0  0  0  0  0  0
  141.8240   77.5870  220.7650 C   0  0  0  0  0  0  0  0  0  0  0  0
  141.9040   78.2940  219.4130 C   0  0  0  0  0  0  0  0  0  0  0  0
  142.9260   77.5210  218.6100 C   0  0  0  0  0  0  0  0  0  0  0  0
  142.4240   76.1360  218.3160 C   0  0  0  0  0  0  0  0  0  0  0  0
  141.9760   75.3630  219.5230 C   0  0  1  0  0  0  0  0  0  0  0  0
  143.0140   74.3940  219.9590 C   0  0  0  0  0  0  0  0  0  0  0  0
  142.7230   73.0570  220.1930 C   0  0  0  0  0  0  0  0  0  0  0  0
  143.6770   72.1470  220.5980 C   0  0  0  0  0  0  0  0  0  0  0  0
  143.3100   70.8510  220.8060 F   0  0  0  0  0  0  0  0  0  0  0  0
  144.9660   72.5820  220.7770 C   0  0  0  0  0  0  0  0  0  0  0  0
  145.3120   73.8860  220.5610 C   0  0  0  0  0  0  0  0  0  0  0  0
  146.5900   74.2950  220.7420 F   0  0  0  0  0  0  0  0  0  0  0  0
  144.3240   74.7750  220.1530 C   0  0  0  0  0  0  0  0  0  0  0  0
  139.9400   71.3750  223.4030 C   0  0  0  0  0  0  0  0  0  0  0  0
  139.4840   70.0750  223.3760 C   0  0  0  0  0  0  0  0  0  0  0  0
  139.4960   69.2500  224.4920 C   0  0  0  0  0  0  0  0  0  0  0  0
  140.0040   69.8100  225.6670 C   0  0  0  0  0  0  0  0  0  0  0  0
  140.0300   69.0050  226.8090 C   0  0  0  0  0  0  0  0  0  0  0  0
  140.5230   69.5180  227.9930 C   0  0  0  0  0  0  0  0  0  0  0  0
  140.5290   68.6990  229.0760 F   0  0  0  0  0  0  0  0  0  0  0  0
  140.9850   70.8180  228.0370 C   0  0  0  0  0  0  0  0  0  0  0  0
  140.9480   71.5930  226.8960 C   0  0  0  0  0  0  0  0  0  0  0  0
  140.4580   71.1080  225.6910 C   0  0  0  0  0  0  0  0  0  0  0  0
  140.4260   71.8750  224.5760 N   0  0  0  0  0  0  0  0  0  0  0  0
  139.5750   73.9860  223.3220 H   0  0  0  0  0  0  0  0  0  0  0  0
  140.0309   73.9732  220.3024 H   0  0  0  0  0  0  0  0  0  0  0  0
  138.6230   74.8100  220.9849 H   0  0  0  0  0  0  0  0  0  0  0  0
  141.0641   78.0799  221.3891 H   0  0  0  0  0  0  0  0  0  0  0  0
  142.8055   77.6410  221.2587 H   0  0  0  0  0  0  0  0  0  0  0  0
  140.9257   78.2737  218.9106 H   0  0  0  0  0  0  0  0  0  0  0  0
  142.1873   79.3512  219.5226 H   0  0  0  0  0  0  0  0  0  0  0  0
  143.1149   78.0466  217.6623 H   0  0  0  0  0  0  0  0  0  0  0  0
  143.8555   77.4467  219.1935 H   0  0  0  0  0  0  0  0  0  0  0  0
  141.5711   76.2196  217.6264 H   0  0  0  0  0  0  0  0  0  0  0  0
  143.2725   75.5816  217.8886 H   0  0  0  0  0  0  0  0  0  0  0  0
  141.1048   74.7666  219.2141 H   0  0  0  0  0  0  0  0  0  0  0  0
  141.6894   72.7091  220.0495 H   0  0  0  0  0  0  0  0  0  0  0  0
  145.7362   71.8665  221.1009 H   0  0  0  0  0  0  0  0  0  0  0  0
  144.5993   75.8255  219.9779 H   0  0  0  0  0  0  0  0  0  0  0  0
  139.0936   69.6738  222.4291 H   0  0  0  0  0  0  0  0  0  0  0  0
  139.1267   68.2145  224.4537 H   0  0  0  0  0  0  0  0  0  0  0  0
  139.6604   67.9699  226.7654 H   0  0  0  0  0  0  0  0  0  0  0  0
  141.3802   71.2335  228.9757 H   0  0  0  0  0  0  0  0  0  0  0  0
  141.3184   72.6277  226.9426 H   0  0  0  0  0  0  0  0  0  0  0  0
  1  2  2  0
  2  3  1  0
  3  4  1  0
  4  5  1  0
  5  6  2  0
  5  7  1  0
  7  8  1  0
  8  9  1  0
  9 10  1  0
 10 11  1  0
 11 12  1  0
 12 13  1  0
 13 14  2  0
 14 15  1  0
 15 16  1  0
 15 17  2  0
 17 18  1  0
 18 19  1  0
 18 20  2  0
  2 21  1  0
 21 22  2  0
 22 23  1  0
 23 24  2  0
 24 25  1  0
 25 26  2  0
 26 27  1  0
 26 28  1  0
 28 29  2  0
 29 30  1  0
 30 31  2  0
 12  7  1  0
 20 13  1  0
 31 21  1  0
 30 24  1  0
  3 32  1  0
  4 33  1  0
  4 34  1  0
  8 35  1  0
  8 36  1  0
  9 37  1  0
  9 38  1  0
 10 39  1  0
 10 40  1  0
 11 41  1  0
 11 42  1  0
 12 43  1  6
 14 44  1  0
 17 45  1  0
 20 46  1  0
 22 47  1  0
 23 48  1  0
 25 49  1  0
 28 50  1  0
 29 51  1  0
M  END
>  <smiles>  (73) 
O=C(NCC(=O)N1CCCCC1c1cc(F)cc(F)c1)c1ccc2cc(F)ccc2n1

>  <score_type>  (73) 
oracle

>  <origin>  (73) 
autodockgpu

>  <m_score__min__energy>  (73) 
-8.6600000000000001

>  <m_primary>  (73) 
energy

>  <rmsd>  (73) 
2.1915590932612425

>  <m_score__min__rmsd>  (73) 
2.1915590932612425

>  <meeko>  (73) 
{"free_energy": -8.51, "intermolecular_energy": -10.0, "internal_energy": -2.13, "cluster_size": 20, "cluster_id": 3, "rank_in_cluster": 7}

>  <energy>  (73) 
-8.1

>  <cluster_rmsd>  (73) 
0.69

>  <cluster>  (73) 
2

$$$$

     RDKit          3D

 51 54  0  0  0  0  0  0  0  0999 V2000
  138.7160   75.8470  220.3520 O   0  0  0  0  0  0  0  0  0  0  0  0
  139.1310   75.8470  221.5520 C   0  0  0  0  0  0  0  0  0  0  0  0
  139.1840   74.6640  222.3390 N   0  0  0  0  0  0  0  0  0  0  0  0
  138.7720   73.3830  221.8260 C   0  0  0  0  0  0  0  0  0  0  0  0
  139.6550   72.3610  222.4760 C   0  0  0  0  0  0  0  0  0  0  0  0
  140.7970   72.6470  222.9230 O   0  0  0  0  0  0  0  0  0  0  0  0
  139.2330   70.9990  222.6170 N   0  0  0  0  0  0  0  0  0  0  0  0
  139.5560   70.1240  221.4900 C   0  0  0  0  0  0  0  0  0  0  0  0
  138.3890   69.1800  221.2070 C   0  0  0  0  0  0  0  0  0  0  0  0
  138.1560   68.4230  222.4940 C   0  0  0  0  0  0  0  0  0  0  0  0
  137.6760   69.3530  223.5720 C   0  0  0  0  0  0  0  0  0  0  0  0
  138.5450   70.5580  223.7930 C   0  0  1  0  0  0  0  0  0  0  0  0
  139.4210   70.3800  224.9800 C   0  0  0  0  0  0  0  0  0  0  0  0
  140.1030   71.4420  225.5570 C   0  0  0  0  0  0  0  0  0  0  0  0
  140.9190   71.2920  226.6590 C   0  0  0  0  0  0  0  0  0  0  0  0
  141.5550   72.3840  227.1670 F   0  0  0  0  0  0  0  0  0  0  0  0
  141.0620   70.0410  227.2060 C   0  0  0  0  0  0  0  0  0  0  0  0
  140.4130   68.9580  226.6800 C   0  0  0  0  0  0  0  0  0  0  0  0
  140.5670   67.7330  227.2350 F   0  0  0  0  0  0  0  0  0  0  0  0
  139.5990   69.1480  225.5690 C   0  0  0  0  0  0  0  0  0  0  0  0
  139.5670   77.1110  222.1430 C   0  0  0  0  0  0  0  0  0  0  0  0
  138.6610   77.9610  222.7400 C   0  0  0  0  0  0  0  0  0  0  0  0
  139.0290   79.1710  223.3130 C   0  0  0  0  0  0  0  0  0  0  0  0
  140.3870   79.4910  223.2570 C   0  0  0  0  0  0  0  0  0  0  0  0
  140.7910   80.7020  223.8260 C   0  0  0  0  0  0  0  0  0  0  0  0
  142.1250   81.0600  223.7930 C   0  0  0  0  0  0  0  0  0  0  0  0
  142.4700   82.2450  224.3580 F   0  0  0  0  0  0  0  0  0  0  0  0
  143.0450   80.2190  223.2000 C   0  0  0  0  0  0  0  0  0  0  0  0
  142.6220   79.0280  222.6450 C   0  0  0  0  0  0  0  0  0  0  0  0
  141.2890   78.6400  222.6610 C   0  0  0  0  0  0  0  0  0  0  0  0
  140.8830   77.4710  222.1150 N   0  0  0  0  0  0  0  0  0  0  0  0
  139.5450   74.7590  223.3350 H   0  0  0  0  0  0  0  0  0  0  0  0
  137.7189   73.1925  222.0804 H   0  0  0  0  0  0  0  0  0  0  0  0
  138.8602   73.3460  220.7302 H   0  0  0  0  0  0  0  0  0  0  0  0
  139.7525   70.7371  220.5981 H   0  0  0  0  0  0  0  0  0  0  0  0
  140.4474   69.5297  221.7396 H   0  0  0  0  0  0  0  0  0  0  0  0
  137.4911   69.7520  220.9302 H   0  0  0  0  0  0  0  0  0  0  0  0
  138.6090   68.5010  220.3700 H   0  0  0  0  0  0  0  0  0  0  0  0
  137.3980   67.6443  222.3238 H   0  0  0  0  0  0  0  0  0  0  0  0
  139.1038   67.9660  222.8145 H   0  0  0  0  0  0  0  0  0  0  0  0
  136.6688   69.7019  223.3003 H   0  0  0  0  0  0  0  0  0  0  0  0
  137.6962   68.7787  224.5100 H   0  0  0  0  0  0  0  0  0  0  0  0
  137.8732   71.3976  224.0247 H   0  0  0  0  0  0  0  0  0  0  0  0
  139.9882   72.4440  225.1178 H   0  0  0  0  0  0  0  0  0  0  0  0
  141.7109   69.9070  228.0841 H   0  0  0  0  0  0  0  0  0  0  0  0
  139.0760   68.2790  225.1432 H   0  0  0  0  0  0  0  0  0  0  0  0
  137.6009   77.6682  222.7635 H   0  0  0  0  0  0  0  0  0  0  0  0
  138.2930   79.8392  223.7840 H   0  0  0  0  0  0  0  0  0  0  0  0
  140.0514   81.3660  224.2972 H   0  0  0  0  0  0  0  0  0  0  0  0
  144.1091   80.4963  223.1699 H   0  0  0  0  0  0  0  0  0  0  0  0
  143.3642   78.3657  222.1754 H   0  0  0  0  0  0  0  0  0  0  0  0
  1  2  2  0
  2  3  1  0
  3  4  1  0
  4  5  1  0
  5  6  2  0
  5  7  1  0
  7  8  1  0
  8  9  1  0
  9 10  1  0
 10 11  1  0
 11 12  1  0
 12 13  1  0
 13 14  2  0
 14 15  1  0
 15 16  1  0
 15 17  2  0
 17 18  1  0
 18 19  1  0
 18 20  2  0
  2 21  1  0
 21 22  2  0
 22 23  1  0
 23 24  2  0
 24 25  1  0
 25 26  2  0
 26 27  1  0
 26 28  1  0
 28 29  2  0
 29 30  1  0
 30 31  2  0
 12  7  1  0
 20 13  1  0
 31 21  1  0
 30 24  1  0
  3 32  1  0
  4 33  1  0
  4 34  1  0
  8 35  1  0
  8 36  1  0
  9 37  1  0
  9 38  1  0
 10 39  1  0
 10 40  1  0
 11 41  1  0
 11 42  1  0
 12 43  1  1
 14 44  1  0
 17 45  1  0
 20 46  1  0
 22 47  1  0
 23 48  1  0
 25 49  1  0
 28 50  1  0
 29 51  1  0
M  END
>  <smiles>  (74) 
O=C(NCC(=O)N1CCCCC1c1cc(F)cc(F)c1)c1ccc2cc(F)ccc2n1

>  <score_type>  (74) 
oracle

>  <origin>  (74) 
autodockgpu

>  <m_score__min__energy>  (74) 
-8.6600000000000001

>  <m_primary>  (74) 
energy

>  <rmsd>  (74) 
8.483122443437498

>  <m_score__min__rmsd>  (74) 
8.483122443437498

>  <meeko>  (74) 
{"free_energy": -8.61, "intermolecular_energy": -10.1, "internal_energy": -1.48, "cluster_size": 9, "cluster_id": 2, "rank_in_cluster": 1}

>  <energy>  (74) 
-8.02

>  <cluster_rmsd>  (74) 
0.66

>  <cluster>  (74) 
2

$$$$

     RDKit          3D

 51 54  0  0  0  0  0  0  0  0999 V2000
  140.1580   71.6530  221.0380 O   0  0  0  0  0  0  0  0  0  0  0  0
  139.9410   72.2100  222.1590 C   0  0  0  0  0  0  0  0  0  0  0  0
  139.6970   73.6060  222.2800 N   0  0  0  0  0  0  0  0  0  0  0  0
  139.6760   74.4820  221.1370 C   0  0  0  0  0  0  0  0  0  0  0  0
  140.6980   75.5460  221.4000 C   0  0  0  0  0  0  0  0  0  0  0  0
  140.8240   76.0950  222.5260 O   0  0  0  0  0  0  0  0  0  0  0  0
  141.5870   75.9910  220.3660 N   0  0  0  0  0  0  0  0  0  0  0  0
  141.9820   77.3970  220.4430 C   0  0  0  0  0  0  0  0  0  0  0  0
  142.0060   78.0120  219.0450 C   0  0  0  0  0  0  0  0  0  0  0  0
  142.9730   77.1700  218.2460 C   0  0  0  0  0  0  0  0  0  0  0  0
  142.4370   75.7780  218.0700 C   0  0  0  0  0  0  0  0  0  0  0  0
  142.0380   75.0940  219.3450 C   0  0  1  0  0  0  0  0  0  0  0  0
  143.0820   74.1370  219.7940 C   0  0  0  0  0  0  0  0  0  0  0  0
  144.3700   74.5460  220.1080 C   0  0  0  0  0  0  0  0  0  0  0  0
  145.3500   73.6690  220.5250 C   0  0  0  0  0  0  0  0  0  0  0  0
  146.5910   74.1500  220.8140 F   0  0  0  0  0  0  0  0  0  0  0  0
  145.0360   72.3370  220.6340 C   0  0  0  0  0  0  0  0  0  0  0  0
  143.7840   71.8770  220.3400 C   0  0  0  0  0  0  0  0  0  0  0  0
  143.4940   70.5590  220.4540 F   0  0  0  0  0  0  0  0  0  0  0  0
  142.8220   72.7900  219.9220 C   0  0  0  0  0  0  0  0  0  0  0  0
  139.9460   71.3850  223.3660 C   0  0  0  0  0  0  0  0  0  0  0  0
  139.4900   70.0840  223.3330 C   0  0  0  0  0  0  0  0  0  0  0  0
  139.4750   69.2650  224.4530 C   0  0  0  0  0  0  0  0  0  0  0  0
  139.9550   69.8300  225.6370 C   0  0  0  0  0  0  0  0  0  0  0  0
  139.9540   69.0310  226.7830 C   0  0  0  0  0  0  0  0  0  0  0  0
  140.4180   69.5490  227.9760 C   0  0  0  0  0  0  0  0  0  0  0  0
  140.3980   68.7350  229.0630 F   0  0  0  0  0  0  0  0  0  0  0  0
  140.8800   70.8490  228.0260 C   0  0  0  0  0  0  0  0  0  0  0  0
  140.8710   71.6180  226.8800 C   0  0  0  0  0  0  0  0  0  0  0  0
  140.4090   71.1280  225.6660 C   0  0  0  0  0  0  0  0  0  0  0  0
  140.4040   71.8900  224.5470 N   0  0  0  0  0  0  0  0  0  0  0  0
  139.5250   73.9860  223.2580 H   0  0  0  0  0  0  0  0  0  0  0  0
  139.9342   73.9237  220.2251 H   0  0  0  0  0  0  0  0  0  0  0  0
  138.6770   74.9173  220.9867 H   0  0  0  0  0  0  0  0  0  0  0  0
  141.2613   77.9438  221.0688 H   0  0  0  0  0  0  0  0  0  0  0  0
  142.9874   77.4652  220.8840 H   0  0  0  0  0  0  0  0  0  0  0  0
  141.0035   77.9778  218.5934 H   0  0  0  0  0  0  0  0  0  0  0  0
  142.3119   79.0683  219.0707 H   0  0  0  0  0  0  0  0  0  0  0  0
  143.1210   77.6287  217.2572 H   0  0  0  0  0  0  0  0  0  0  0  0
  143.9296   77.1173  218.7865 H   0  0  0  0  0  0  0  0  0  0  0  0
  141.5524   75.8313  217.4184 H   0  0  0  0  0  0  0  0  0  0  0  0
  143.2555   75.1818  217.6405 H   0  0  0  0  0  0  0  0  0  0  0  0
  141.1439   74.4948  219.1183 H   0  0  0  0  0  0  0  0  0  0  0  0
  144.6202   75.6136  220.0209 H   0  0  0  0  0  0  0  0  0  0  0  0
  145.8078   71.6263  220.9646 H   0  0  0  0  0  0  0  0  0  0  0  0
  141.8131   72.4221  219.6840 H   0  0  0  0  0  0  0  0  0  0  0  0
  139.1227   69.6784  222.3787 H   0  0  0  0  0  0  0  0  0  0  0  0
  139.1061   68.2296  224.4110 H   0  0  0  0  0  0  0  0  0  0  0  0
  139.5858   67.9955  226.7353 H   0  0  0  0  0  0  0  0  0  0  0  0
  141.2525   71.2687  228.9721 H   0  0  0  0  0  0  0  0  0  0  0  0
  141.2418   72.6524  226.9301 H   0  0  0  0  0  0  0  0  0  0  0  0
  1  2  2  0
  2  3  1  0
  3  4  1  0
  4  5  1  0
  5  6  2  0
  5  7  1  0
  7  8  1  0
  8  9  1  0
  9 10  1  0
 10 11  1  0
 11 12  1  0
 12 13  1  0
 13 14  2  0
 14 15  1  0
 15 16  1  0
 15 17  2  0
 17 18  1  0
 18 19  1  0
 18 20  2  0
  2 21  1  0
 21 22  2  0
 22 23  1  0
 23 24  2  0
 24 25  1  0
 25 26  2  0
 26 27  1  0
 26 28  1  0
 28 29  2  0
 29 30  1  0
 30 31  2  0
 12  7  1  0
 20 13  1  0
 31 21  1  0
 30 24  1  0
  3 32  1  0
  4 33  1  0
  4 34  1  0
  8 35  1  0
  8 36  1  0
  9 37  1  0
  9 38  1  0
 10 39  1  0
 10 40  1  0
 11 41  1  0
 11 42  1  0
 12 43  1  6
 14 44  1  0
 17 45  1  0
 20 46  1  0
 22 47  1  0
 23 48  1  0
 25 49  1  0
 28 50  1  0
 29 51  1  0
M  END
>  <smiles>  (75) 
O=C(NCC(=O)N1CCCCC1c1cc(F)cc(F)c1)c1ccc2cc(F)ccc2n1

>  <score_type>  (75) 
oracle

>  <origin>  (75) 
autodockgpu

>  <m_score__min__energy>  (75) 
-8.6600000000000001

>  <m_primary>  (75) 
energy

>  <rmsd>  (75) 
2.1715631992351847

>  <m_score__min__rmsd>  (75) 
2.1715631992351847

>  <meeko>  (75) 
{"free_energy": -8.42, "intermolecular_energy": -9.91, "internal_energy": -2.07, "cluster_size": 20, "cluster_id": 3, "rank_in_cluster": 20}

>  <energy>  (75) 
-7.98

>  <cluster_rmsd>  (75) 
0.59

>  <cluster>  (75) 
2

$$$$

     RDKit          3D

 51 54  0  0  0  0  0  0  0  0999 V2000
  138.7360   71.2800  221.2400 O   0  0  0  0  0  0  0  0  0  0  0  0
  139.1380   71.8380  222.3080 C   0  0  0  0  0  0  0  0  0  0  0  0
  139.3950   73.2340  222.3860 N   0  0  0  0  0  0  0  0  0  0  0  0
  139.2150   74.1120  221.2580 C   0  0  0  0  0  0  0  0  0  0  0  0
  140.2170   75.2160  221.4150 C   0  0  0  0  0  0  0  0  0  0  0  0
  141.0700   75.2230  222.3400 O   0  0  0  0  0  0  0  0  0  0  0  0
  140.2450   76.3240  220.5060 N   0  0  0  0  0  0  0  0  0  0  0  0
  139.1530   76.3640  219.5340 C   0  0  0  0  0  0  0  0  0  0  0  0
  139.6830   76.8010  218.1690 C   0  0  0  0  0  0  0  0  0  0  0  0
  140.3230   78.1520  218.3940 C   0  0  0  0  0  0  0  0  0  0  0  0
  141.5310   78.0210  219.2770 C   0  0  0  0  0  0  0  0  0  0  0  0
  141.2840   77.3070  220.5750 C   0  0  1  0  0  0  0  0  0  0  0  0
  141.1400   78.2680  221.6990 C   0  0  0  0  0  0  0  0  0  0  0  0
  142.2090   79.0210  222.1650 C   0  0  0  0  0  0  0  0  0  0  0  0
  142.0900   79.9160  223.2080 C   0  0  0  0  0  0  0  0  0  0  0  0
  143.1870   80.6190  223.6070 F   0  0  0  0  0  0  0  0  0  0  0  0
  140.8650   80.0680  223.8080 C   0  0  0  0  0  0  0  0  0  0  0  0
  139.7770   79.3530  223.3900 C   0  0  0  0  0  0  0  0  0  0  0  0
  138.5770   79.5180  223.9950 F   0  0  0  0  0  0  0  0  0  0  0  0
  139.9350   78.4600  222.3370 C   0  0  0  0  0  0  0  0  0  0  0  0
  139.3440   71.0120  223.4960 C   0  0  0  0  0  0  0  0  0  0  0  0
  138.9520   69.6910  223.5140 C   0  0  0  0  0  0  0  0  0  0  0  0
  139.1270   68.8700  224.6190 C   0  0  0  0  0  0  0  0  0  0  0  0
  139.7320   69.4560  225.7330 C   0  0  0  0  0  0  0  0  0  0  0  0
  139.9230   68.6560  226.8630 C   0  0  0  0  0  0  0  0  0  0  0  0
  140.5160   69.1940  227.9880 C   0  0  0  0  0  0  0  0  0  0  0  0
  140.6810   68.3780  229.0610 F   0  0  0  0  0  0  0  0  0  0  0  0
  140.9160   70.5150  227.9860 C   0  0  0  0  0  0  0  0  0  0  0  0
  140.7170   71.2860  226.8580 C   0  0  0  0  0  0  0  0  0  0  0  0
  140.1220   70.7750  225.7120 C   0  0  0  0  0  0  0  0  0  0  0  0
  139.9300   71.5370  224.6110 N   0  0  0  0  0  0  0  0  0  0  0  0
  139.7290   73.6150  223.3210 H   0  0  0  0  0  0  0  0  0  0  0  0
  139.3939   73.5668  220.3195 H   0  0  0  0  0  0  0  0  0  0  0  0
  138.1892   74.5075  221.2210 H   0  0  0  0  0  0  0  0  0  0  0  0
  138.7057   75.3628  219.4474 H   0  0  0  0  0  0  0  0  0  0  0  0
  138.3939   77.0840  219.8736 H   0  0  0  0  0  0  0  0  0  0  0  0
  140.4270   76.0809  217.7976 H   0  0  0  0  0  0  0  0  0  0  0  0
  138.8806   76.8511  217.4182 H   0  0  0  0  0  0  0  0  0  0  0  0
  140.6270   78.5745  217.4249 H   0  0  0  0  0  0  0  0  0  0  0  0
  139.5940   78.8140  218.8842 H   0  0  0  0  0  0  0  0  0  0  0  0
  142.3026   77.4669  218.7224 H   0  0  0  0  0  0  0  0  0  0  0  0
  141.8377   79.0445  219.5384 H   0  0  0  0  0  0  0  0  0  0  0  0
  142.1837   76.7112  220.7882 H   0  0  0  0  0  0  0  0  0  0  0  0
  143.1904   78.8992  221.6833 H   0  0  0  0  0  0  0  0  0  0  0  0
  140.7564   80.7784  224.6408 H   0  0  0  0  0  0  0  0  0  0  0  0
  139.0616   77.8828  221.9993 H   0  0  0  0  0  0  0  0  0  0  0  0
  138.4803   69.2694  222.6142 H   0  0  0  0  0  0  0  0  0  0  0  0
  138.8074   67.8175  224.6176 H   0  0  0  0  0  0  0  0  0  0  0  0
  139.6027   67.6037  226.8562 H   0  0  0  0  0  0  0  0  0  0  0  0
  141.3904   70.9509  228.8776 H   0  0  0  0  0  0  0  0  0  0  0  0
  141.0397   72.3375  226.8674 H   0  0  0  0  0  0  0  0  0  0  0  0
  1  2  2  0
  2  3  1  0
  3  4  1  0
  4  5  1  0
  5  6  2  0
  5  7  1  0
  7  8  1  0
  8  9  1  0
  9 10  1  0
 10 11  1  0
 11 12  1  0
 12 13  1  0
 13 14  2  0
 14 15  1  0
 15 16  1  0
 15 17  2  0
 17 18  1  0
 18 19  1  0
 18 20  2  0
  2 21  1  0
 21 22  2  0
 22 23  1  0
 23 24  2  0
 24 25  1  0
 25 26  2  0
 26 27  1  0
 26 28  1  0
 28 29  2  0
 29 30  1  0
 30 31  2  0
 12  7  1  0
 20 13  1  0
 31 21  1  0
 30 24  1  0
  3 32  1  0
  4 33  1  0
  4 34  1  0
  8 35  1  0
  8 36  1  0
  9 37  1  0
  9 38  1  0
 10 39  1  0
 10 40  1  0
 11 41  1  0
 11 42  1  0
 12 43  1  1
 14 44  1  0
 17 45  1  0
 20 46  1  0
 22 47  1  0
 23 48  1  0
 25 49  1  0
 28 50  1  0
 29 51  1  0
M  END
>  <smiles>  (76) 
O=C(NCC(=O)N1CCCCC1c1cc(F)cc(F)c1)c1ccc2cc(F)ccc2n1

>  <score_type>  (76) 
oracle

>  <origin>  (76) 
autodockgpu

>  <m_score__min__energy>  (76) 
-8.6600000000000001

>  <m_primary>  (76) 
energy

>  <rmsd>  (76) 
1.2236740515063242

>  <m_score__min__rmsd>  (76) 
1.2236740515063242

>  <meeko>  (76) 
{"free_energy": -8.13, "intermolecular_energy": -9.62, "internal_energy": -2.05, "cluster_size": 16, "cluster_id": 1, "rank_in_cluster": 15}

>  <energy>  (76) 
-8.58

>  <cluster_rmsd>  (76) 
0.0

>  <cluster>  (76) 
3

$$$$

     RDKit          3D

 51 54  0  0  0  0  0  0  0  0999 V2000
  140.0500   71.6100  221.0510 O   0  0  0  0  0  0  0  0  0  0  0  0
  139.8980   72.1750  222.1780 C   0  0  0  0  0  0  0  0  0  0  0  0
  139.6860   73.5750  222.3040 N   0  0  0  0  0  0  0  0  0  0  0  0
  139.6290   74.4480  221.1600 C   0  0  0  0  0  0  0  0  0  0  0  0
  140.4820   75.6350  221.4880 C   0  0  0  0  0  0  0  0  0  0  0  0
  140.4170   76.2240  222.5990 O   0  0  0  0  0  0  0  0  0  0  0  0
  141.4210   76.1580  220.5390 N   0  0  0  0  0  0  0  0  0  0  0  0
  141.8180   77.5490  220.7540 C   0  0  0  0  0  0  0  0  0  0  0  0
  141.9110   78.2800  219.4150 C   0  0  0  0  0  0  0  0  0  0  0  0
  142.9120   77.5000  218.5940 C   0  0  0  0  0  0  0  0  0  0  0  0
  142.3790   76.1320  218.2760 C   0  0  0  0  0  0  0  0  0  0  0  0
  141.9160   75.3470  219.4690 C   0  0  1  0  0  0  0  0  0  0  0  0
  142.9340   74.3460  219.8830 C   0  0  0  0  0  0  0  0  0  0  0  0
  144.2500   74.7000  220.1460 C   0  0  0  0  0  0  0  0  0  0  0  0
  145.2050   73.7830  220.5320 C   0  0  0  0  0  0  0  0  0  0  0  0
  146.4770   74.2100  220.7720 F   0  0  0  0  0  0  0  0  0  0  0  0
  144.8380   72.4660  220.6600 C   0  0  0  0  0  0  0  0  0  0  0  0
  143.5560   72.0600  220.4150 C   0  0  0  0  0  0  0  0  0  0  0  0
  143.2140   70.7570  220.5480 F   0  0  0  0  0  0  0  0  0  0  0  0
  142.6210   73.0130  220.0290 C   0  0  0  0  0  0  0  0  0  0  0  0
  139.9430   71.3540  223.3870 C   0  0  0  0  0  0  0  0  0  0  0  0
  139.5020   70.0480  223.3700 C   0  0  0  0  0  0  0  0  0  0  0  0
  139.5250   69.2320  224.4930 C   0  0  0  0  0  0  0  0  0  0  0  0
  140.0270   69.8070  225.6620 C   0  0  0  0  0  0  0  0  0  0  0  0
  140.0650   69.0120  226.8110 C   0  0  0  0  0  0  0  0  0  0  0  0
  140.5530   69.5390  227.9900 C   0  0  0  0  0  0  0  0  0  0  0  0
  140.5700   68.7290  229.0800 F   0  0  0  0  0  0  0  0  0  0  0  0
  140.9990   70.8450  228.0240 C   0  0  0  0  0  0  0  0  0  0  0  0
  140.9520   71.6110  226.8760 C   0  0  0  0  0  0  0  0  0  0  0  0
  140.4670   71.1110  225.6760 C   0  0  0  0  0  0  0  0  0  0  0  0
  140.4240   71.8680  224.5550 N   0  0  0  0  0  0  0  0  0  0  0  0
  139.5680   73.9620  223.2870 H   0  0  0  0  0  0  0  0  0  0  0  0
  140.0197   73.9337  220.2696 H   0  0  0  0  0  0  0  0  0  0  0  0
  138.5941   74.7500  220.9412 H   0  0  0  0  0  0  0  0  0  0  0  0
  141.0708   78.0468  221.3895 H   0  0  0  0  0  0  0  0  0  0  0  0
  142.8015   77.5714  221.2462 H   0  0  0  0  0  0  0  0  0  0  0  0
  140.9311   78.2921  218.9154 H   0  0  0  0  0  0  0  0  0  0  0  0
  142.2194   79.3279  219.5442 H   0  0  0  0  0  0  0  0  0  0  0  0
  143.1090   78.0390  217.6555 H   0  0  0  0  0  0  0  0  0  0  0  0
  143.8415   77.3942  219.1726 H   0  0  0  0  0  0  0  0  0  0  0  0
  141.5271   76.2471  217.5897 H   0  0  0  0  0  0  0  0  0  0  0  0
  143.2145   75.5670  217.8371 H   0  0  0  0  0  0  0  0  0  0  0  0
  141.0300   74.7773  219.1520 H   0  0  0  0  0  0  0  0  0  0  0  0
  144.5433   75.7551  220.0423 H   0  0  0  0  0  0  0  0  0  0  0  0
  145.5900   71.7236  220.9655 H   0  0  0  0  0  0  0  0  0  0  0  0
  141.5884   72.6891  219.8320 H   0  0  0  0  0  0  0  0  0  0  0  0
  139.1155   69.6349  222.4266 H   0  0  0  0  0  0  0  0  0  0  0  0
  139.1681   68.1919  224.4634 H   0  0  0  0  0  0  0  0  0  0  0  0
  139.7080   67.9721  226.7760 H   0  0  0  0  0  0  0  0  0  0  0  0
  141.3892   71.2726  228.9593 H   0  0  0  0  0  0  0  0  0  0  0  0
  141.3103   72.6503  226.9141 H   0  0  0  0  0  0  0  0  0  0  0  0
  1  2  2  0
  2  3  1  0
  3  4  1  0
  4  5  1  0
  5  6  2  0
  5  7  1  0
  7  8  1  0
  8  9  1  0
  9 10  1  0
 10 11  1  0
 11 12  1  0
 12 13  1  0
 13 14  2  0
 14 15  1  0
 15 16  1  0
 15 17  2  0
 17 18  1  0
 18 19  1  0
 18 20  2  0
  2 21  1  0
 21 22  2  0
 22 23  1  0
 23 24  2  0
 24 25  1  0
 25 26  2  0
 26 27  1  0
 26 28  1  0
 28 29  2  0
 29 30  1  0
 30 31  2  0
 12  7  1  0
 20 13  1  0
 31 21  1  0
 30 24  1  0
  3 32  1  0
  4 33  1  0
  4 34  1  0
  8 35  1  0
  8 36  1  0
  9 37  1  0
  9 38  1  0
 10 39  1  0
 10 40  1  0
 11 41  1  0
 11 42  1  0
 12 43  1  6
 14 44  1  0
 17 45  1  0
 20 46  1  0
 22 47  1  0
 23 48  1  0
 25 49  1  0
 28 50  1  0
 29 51  1  0
M  END
>  <smiles>  (77) 
O=C(NCC(=O)N1CCCCC1c1cc(F)cc(F)c1)c1ccc2cc(F)ccc2n1

>  <score_type>  (77) 
oracle

>  <origin>  (77) 
autodockgpu

>  <m_score__min__energy>  (77) 
-8.6600000000000001

>  <m_primary>  (77) 
energy

>  <rmsd>  (77) 
2.1760246660673443

>  <m_score__min__rmsd>  (77) 
2.1760246660673443

>  <meeko>  (77) 
{"free_energy": -8.5, "intermolecular_energy": -9.99, "internal_energy": -2.14, "cluster_size": 20, "cluster_id": 3, "rank_in_cluster": 11}

>  <energy>  (77) 
-8.52

>  <cluster_rmsd>  (77) 
0.59

>  <cluster>  (77) 
3

$$$$

     RDKit          3D

 51 54  0  0  0  0  0  0  0  0999 V2000
  139.1510   71.3940  221.1280 O   0  0  0  0  0  0  0  0  0  0  0  0
  139.3460   71.9800  222.2380 C   0  0  0  0  0  0  0  0  0  0  0  0
  139.4060   73.3960  222.3510 N   0  0  0  0  0  0  0  0  0  0  0  0
  139.2480   74.2630  221.2110 C   0  0  0  0  0  0  0  0  0  0  0  0
  140.3950   75.2260  221.2490 C   0  0  0  0  0  0  0  0  0  0  0  0
  141.3660   75.0860  222.0390 O   0  0  0  0  0  0  0  0  0  0  0  0
  140.4370   76.3630  220.3760 N   0  0  0  0  0  0  0  0  0  0  0  0
  139.4020   76.3970  219.3440 C   0  0  0  0  0  0  0  0  0  0  0  0
  139.9920   76.8930  218.0250 C   0  0  0  0  0  0  0  0  0  0  0  0
  140.5710   78.2570  218.3260 C   0  0  0  0  0  0  0  0  0  0  0  0
  141.7310   78.1380  219.2730 C   0  0  0  0  0  0  0  0  0  0  0  0
  141.4360   77.3770  220.5330 C   0  0  1  0  0  0  0  0  0  0  0  0
  141.1950   78.2970  221.6750 C   0  0  0  0  0  0  0  0  0  0  0  0
  142.2080   79.0700  222.2230 C   0  0  0  0  0  0  0  0  0  0  0  0
  142.0000   79.9280  223.2830 C   0  0  0  0  0  0  0  0  0  0  0  0
  143.0480   80.6540  223.7650 F   0  0  0  0  0  0  0  0  0  0  0  0
  140.7380   80.0210  223.8150 C   0  0  0  0  0  0  0  0  0  0  0  0
  139.7010   79.2850  223.3150 C   0  0  0  0  0  0  0  0  0  0  0  0
  138.4630   79.3910  223.8540 F   0  0  0  0  0  0  0  0  0  0  0  0
  139.9490   78.4300  222.2460 C   0  0  0  0  0  0  0  0  0  0  0  0
  139.5160   71.1660  223.4400 C   0  0  0  0  0  0  0  0  0  0  0  0
  139.1130   69.8470  223.4630 C   0  0  0  0  0  0  0  0  0  0  0  0
  139.2530   69.0380  224.5810 C   0  0  0  0  0  0  0  0  0  0  0  0
  139.8350   69.6320  225.7030 C   0  0  0  0  0  0  0  0  0  0  0  0
  139.9910   68.8430  226.8460 C   0  0  0  0  0  0  0  0  0  0  0  0
  140.5610   69.3890  227.9800 C   0  0  0  0  0  0  0  0  0  0  0  0
  140.6920   68.5840  229.0650 F   0  0  0  0  0  0  0  0  0  0  0  0
  140.9710   70.7070  227.9730 C   0  0  0  0  0  0  0  0  0  0  0  0
  140.8060   71.4660  226.8320 C   0  0  0  0  0  0  0  0  0  0  0  0
  140.2360   70.9470  225.6780 C   0  0  0  0  0  0  0  0  0  0  0  0
  140.0780   71.6990  224.5630 N   0  0  0  0  0  0  0  0  0  0  0  0
  139.5730   73.7990  223.3200 H   0  0  0  0  0  0  0  0  0  0  0  0
  139.2744   73.6766  220.2807 H   0  0  0  0  0  0  0  0  0  0  0  0
  138.2834   74.7907  221.2423 H   0  0  0  0  0  0  0  0  0  0  0  0
  138.9955   75.3847  219.2029 H   0  0  0  0  0  0  0  0  0  0  0  0
  138.6008   77.0813  219.6600 H   0  0  0  0  0  0  0  0  0  0  0  0
  140.7803   76.2098  217.6759 H   0  0  0  0  0  0  0  0  0  0  0  0
  139.2320   76.9396  217.2311 H   0  0  0  0  0  0  0  0  0  0  0  0
  140.9145   78.7194  217.3889 H   0  0  0  0  0  0  0  0  0  0  0  0
  139.7929   78.8791  218.7925 H   0  0  0  0  0  0  0  0  0  0  0  0
  142.5511   77.6266  218.7478 H   0  0  0  0  0  0  0  0  0  0  0  0
  141.9871   79.1624  219.5812 H   0  0  0  0  0  0  0  0  0  0  0  0
  142.3429   76.8056  220.7798 H   0  0  0  0  0  0  0  0  0  0  0  0
  143.2185   78.9958  221.7948 H   0  0  0  0  0  0  0  0  0  0  0  0
  140.5580   80.7014  224.6604 H   0  0  0  0  0  0  0  0  0  0  0  0
  139.1164   77.8364  221.8406 H   0  0  0  0  0  0  0  0  0  0  0  0
  138.6614   69.4185  222.5561 H   0  0  0  0  0  0  0  0  0  0  0  0
  138.9243   67.9883  224.5837 H   0  0  0  0  0  0  0  0  0  0  0  0
  139.6619   67.7934  226.8428 H   0  0  0  0  0  0  0  0  0  0  0  0
  141.4264   71.1497  228.8711 H   0  0  0  0  0  0  0  0  0  0  0  0
  141.1367   72.5151  226.8376 H   0  0  0  0  0  0  0  0  0  0  0  0
  1  2  2  0
  2  3  1  0
  3  4  1  0
  4  5  1  0
  5  6  2  0
  5  7  1  0
  7  8  1  0
  8  9  1  0
  9 10  1  0
 10 11  1  0
 11 12  1  0
 12 13  1  0
 13 14  2  0
 14 15  1  0
 15 16  1  0
 15 17  2  0
 17 18  1  0
 18 19  1  0
 18 20  2  0
  2 21  1  0
 21 22  2  0
 22 23  1  0
 23 24  2  0
 24 25  1  0
 25 26  2  0
 26 27  1  0
 26 28  1  0
 28 29  2  0
 29 30  1  0
 30 31  2  0
 12  7  1  0
 20 13  1  0
 31 21  1  0
 30 24  1  0
  3 32  1  0
  4 33  1  0
  4 34  1  0
  8 35  1  0
  8 36  1  0
  9 37  1  0
  9 38  1  0
 10 39  1  0
 10 40  1  0
 11 41  1  0
 11 42  1  0
 12 43  1  1
 14 44  1  0
 17 45  1  0
 20 46  1  0
 22 47  1  0
 23 48  1  0
 25 49  1  0
 28 50  1  0
 29 51  1  0
M  END
>  <smiles>  (78) 
O=C(NCC(=O)N1CCCCC1c1cc(F)cc(F)c1)c1ccc2cc(F)ccc2n1

>  <score_type>  (78) 
oracle

>  <origin>  (78) 
autodockgpu

>  <m_score__min__energy>  (78) 
-8.6600000000000001

>  <m_primary>  (78) 
energy

>  <rmsd>  (78) 
1.2702031280330508

>  <m_score__min__rmsd>  (78) 
1.2702031280330508

>  <meeko>  (78) 
{"free_energy": -8.25, "intermolecular_energy": -9.75, "internal_energy": -1.78, "cluster_size": 16, "cluster_id": 1, "rank_in_cluster": 13}

>  <energy>  (78) 
-8.52

>  <cluster_rmsd>  (78) 
0.59

>  <cluster>  (78) 
3

$$$$

     RDKit          3D

 51 54  0  0  0  0  0  0  0  0999 V2000
  139.4170   70.6380  221.4490 O   0  0  0  0  0  0  0  0  0  0  0  0
  139.6150   71.2340  222.5520 C   0  0  0  0  0  0  0  0  0  0  0  0
  139.7520   72.6470  222.6400 N   0  0  0  0  0  0  0  0  0  0  0  0
  139.6720   73.4980  221.4800 C   0  0  0  0  0  0  0  0  0  0  0  0
  140.9520   74.2760  221.4360 C   0  0  0  0  0  0  0  0  0  0  0  0
  141.0680   75.4120  221.9650 O   0  0  0  0  0  0  0  0  0  0  0  0
  142.1150   73.7520  220.7810 N   0  0  0  0  0  0  0  0  0  0  0  0
  142.0080   72.3630  220.3340 C   0  0  0  0  0  0  0  0  0  0  0  0
  143.3210   71.6260  220.5970 C   0  0  0  0  0  0  0  0  0  0  0  0
  144.3810   72.4050  219.8540 C   0  0  0  0  0  0  0  0  0  0  0  0
  144.5520   73.7690  220.4600 C   0  0  0  0  0  0  0  0  0  0  0  0
  143.2820   74.5590  220.5920 C   0  0  1  0  0  0  0  0  0  0  0  0
  143.1570   75.5650  219.5060 C   0  0  0  0  0  0  0  0  0  0  0  0
  142.6640   76.8420  219.7370 C   0  0  0  0  0  0  0  0  0  0  0  0
  142.5430   77.7860  218.7390 C   0  0  0  0  0  0  0  0  0  0  0  0
  142.0500   79.0180  219.0470 F   0  0  0  0  0  0  0  0  0  0  0  0
  142.9250   77.4480  217.4650 C   0  0  0  0  0  0  0  0  0  0  0  0
  143.4190   76.2060  217.1780 C   0  0  0  0  0  0  0  0  0  0  0  0
  143.7910   75.8920  215.9140 F   0  0  0  0  0  0  0  0  0  0  0  0
  143.5270   75.2800  218.2100 C   0  0  0  0  0  0  0  0  0  0  0  0
  139.7070   70.4370  223.7740 C   0  0  0  0  0  0  0  0  0  0  0  0
  139.2070   69.1530  223.8190 C   0  0  0  0  0  0  0  0  0  0  0  0
  139.2710   68.3600  224.9560 C   0  0  0  0  0  0  0  0  0  0  0  0
  139.8800   68.9350  226.0740 C   0  0  0  0  0  0  0  0  0  0  0  0
  139.9610   68.1620  227.2350 C   0  0  0  0  0  0  0  0  0  0  0  0
  140.5540   68.6900  228.3660 C   0  0  0  0  0  0  0  0  0  0  0  0
  140.6110   67.9010  229.4700 F   0  0  0  0  0  0  0  0  0  0  0  0
  141.0620   69.9730  228.3370 C   0  0  0  0  0  0  0  0  0  0  0  0
  140.9690   70.7160  227.1780 C   0  0  0  0  0  0  0  0  0  0  0  0
  140.3780   70.2160  226.0260 C   0  0  0  0  0  0  0  0  0  0  0  0
  140.2920   70.9520  224.8940 N   0  0  0  0  0  0  0  0  0  0  0  0
  139.9150   73.0600  223.6050 H   0  0  0  0  0  0  0  0  0  0  0  0
  139.5647   72.8905  220.5693 H   0  0  0  0  0  0  0  0  0  0  0  0
  138.8007   74.1671  221.5360 H   0  0  0  0  0  0  0  0  0  0  0  0
  141.1948   71.8654  220.8828 H   0  0  0  0  0  0  0  0  0  0  0  0
  141.7948   72.3466  219.2550 H   0  0  0  0  0  0  0  0  0  0  0  0
  143.5421   71.6083  221.6744 H   0  0  0  0  0  0  0  0  0  0  0  0
  143.2745   70.5797  220.2607 H   0  0  0  0  0  0  0  0  0  0  0  0
  145.3357   71.8616  219.9099 H   0  0  0  0  0  0  0  0  0  0  0  0
  144.0703   72.5178  218.8048 H   0  0  0  0  0  0  0  0  0  0  0  0
  144.9855   73.6465  221.4635 H   0  0  0  0  0  0  0  0  0  0  0  0
  145.2009   74.3348  219.7753 H   0  0  0  0  0  0  0  0  0  0  0  0
  143.3554   75.1243  221.5327 H   0  0  0  0  0  0  0  0  0  0  0  0
  142.3572   77.1120  220.7583 H   0  0  0  0  0  0  0  0  0  0  0  0
  142.8319   78.1908  216.6591 H   0  0  0  0  0  0  0  0  0  0  0  0
  143.9238   74.2797  217.9822 H   0  0  0  0  0  0  0  0  0  0  0  0
  138.7370   68.7393  222.9146 H   0  0  0  0  0  0  0  0  0  0  0  0
  138.8656   67.3376  224.9758 H   0  0  0  0  0  0  0  0  0  0  0  0
  139.5553   67.1396  227.2487 H   0  0  0  0  0  0  0  0  0  0  0  0
  141.5379   70.4004  229.2319 H   0  0  0  0  0  0  0  0  0  0  0  0
  141.3764   71.7377  227.1667 H   0  0  0  0  0  0  0  0  0  0  0  0
  1  2  2  0
  2  3  1  0
  3  4  1  0
  4  5  1  0
  5  6  2  0
  5  7  1  0
  7  8  1  0
  8  9  1  0
  9 10  1  0
 10 11  1  0
 11 12  1  0
 12 13  1  0
 13 14  2  0
 14 15  1  0
 15 16  1  0
 15 17  2  0
 17 18  1  0
 18 19  1  0
 18 20  2  0
  2 21  1  0
 21 22  2  0
 22 23  1  0
 23 24  2  0
 24 25  1  0
 25 26  2  0
 26 27  1  0
 26 28  1  0
 28 29  2  0
 29 30  1  0
 30 31  2  0
 12  7  1  0
 20 13  1  0
 31 21  1  0
 30 24  1  0
  3 32  1  0
  4 33  1  0
  4 34  1  0
  8 35  1  0
  8 36  1  0
  9 37  1  0
  9 38  1  0
 10 39  1  0
 10 40  1  0
 11 41  1  0
 11 42  1  0
 12 43  1  1
 14 44  1  0
 17 45  1  0
 20 46  1  0
 22 47  1  0
 23 48  1  0
 25 49  1  0
 28 50  1  0
 29 51  1  0
M  END
>  <smiles>  (79) 
O=C(NCC(=O)N1CCCCC1c1cc(F)cc(F)c1)c1ccc2cc(F)ccc2n1

>  <score_type>  (79) 
oracle

>  <origin>  (79) 
autodockgpu

>  <m_score__min__energy>  (79) 
-8.6600000000000001

>  <m_primary>  (79) 
energy

>  <rmsd>  (79) 
2.9672537214186074

>  <m_score__min__rmsd>  (79) 
2.9672537214186074

>  <meeko>  (79) 
{"free_energy": -8.14, "intermolecular_energy": -9.63, "internal_energy": -1.79, "cluster_size": 3, "cluster_id": 5, "rank_in_cluster": 2}

>  <energy>  (79) 
-8.52

>  <cluster_rmsd>  (79) 
0.58

>  <cluster>  (79) 
3

$$$$

     RDKit          3D

 51 54  0  0  0  0  0  0  0  0999 V2000
  140.3120   71.5710  221.0260 O   0  0  0  0  0  0  0  0  0  0  0  0
  140.0370   72.1660  222.1130 C   0  0  0  0  0  0  0  0  0  0  0  0
  139.7900   73.5650  222.1730 N   0  0  0  0  0  0  0  0  0  0  0  0
  139.8340   74.4020  221.0020 C   0  0  0  0  0  0  0  0  0  0  0  0
  140.1040   75.7950  221.4850 C   0  0  0  0  0  0  0  0  0  0  0  0
  140.0440   76.1070  222.7030 O   0  0  0  0  0  0  0  0  0  0  0  0
  140.4460   76.8440  220.5700 N   0  0  0  0  0  0  0  0  0  0  0  0
  139.5240   77.0190  219.4480 C   0  0  0  0  0  0  0  0  0  0  0  0
  140.3070   77.3040  218.1670 C   0  0  0  0  0  0  0  0  0  0  0  0
  141.1260   78.5410  218.4570 C   0  0  0  0  0  0  0  0  0  0  0  0
  142.1590   78.2520  219.5090 C   0  0  0  0  0  0  0  0  0  0  0  0
  141.6150   77.6450  220.7710 C   0  0  1  0  0  0  0  0  0  0  0  0
  141.4780   78.6640  221.8430 C   0  0  0  0  0  0  0  0  0  0  0  0
  142.5780   79.3120  222.3890 C   0  0  0  0  0  0  0  0  0  0  0  0
  142.4660   80.2600  223.3850 C   0  0  0  0  0  0  0  0  0  0  0  0
  143.5940   80.8510  223.8680 F   0  0  0  0  0  0  0  0  0  0  0  0
  141.2150   80.5740  223.8550 C   0  0  0  0  0  0  0  0  0  0  0  0
  140.0960   79.9690  223.3550 C   0  0  0  0  0  0  0  0  0  0  0  0
  138.8710   80.2940  223.8320 F   0  0  0  0  0  0  0  0  0  0  0  0
  140.2480   79.0190  222.3510 C   0  0  0  0  0  0  0  0  0  0  0  0
  139.9730   71.3830  223.3460 C   0  0  0  0  0  0  0  0  0  0  0  0
  139.3830   70.1360  223.3610 C   0  0  0  0  0  0  0  0  0  0  0  0
  139.2990   69.3580  224.5060 C   0  0  0  0  0  0  0  0  0  0  0  0
  139.8530   69.9060  225.6660 C   0  0  0  0  0  0  0  0  0  0  0  0
  139.7850   69.1470  226.8370 C   0  0  0  0  0  0  0  0  0  0  0  0
  140.3190   69.6490  228.0070 C   0  0  0  0  0  0  0  0  0  0  0  0
  140.2300   68.8760  229.1200 F   0  0  0  0  0  0  0  0  0  0  0  0
  140.9150   70.8950  228.0100 C   0  0  0  0  0  0  0  0  0  0  0  0
  140.9690   71.6250  226.8400 C   0  0  0  0  0  0  0  0  0  0  0  0
  140.4410   71.1490  225.6480 C   0  0  0  0  0  0  0  0  0  0  0  0
  140.4990   71.8720  224.5050 N   0  0  0  0  0  0  0  0  0  0  0  0
  139.5660   73.9790  223.1270 H   0  0  0  0  0  0  0  0  0  0  0  0
  140.6379   74.0709  220.3281 H   0  0  0  0  0  0  0  0  0  0  0  0
  138.8892   74.3514  220.4410 H   0  0  0  0  0  0  0  0  0  0  0  0
  138.9321   76.1012  219.3165 H   0  0  0  0  0  0  0  0  0  0  0  0
  138.8559   77.8671  219.6588 H   0  0  0  0  0  0  0  0  0  0  0  0
  140.9647   76.4568  217.9226 H   0  0  0  0  0  0  0  0  0  0  0  0
  139.6385   77.4515  217.3060 H   0  0  0  0  0  0  0  0  0  0  0  0
  141.6295   78.8665  217.5347 H   0  0  0  0  0  0  0  0  0  0  0  0
  140.4568   79.3336  218.8230 H   0  0  0  0  0  0  0  0  0  0  0  0
  142.8962   77.5553  219.0834 H   0  0  0  0  0  0  0  0  0  0  0  0
  142.5944   79.2216  219.7924 H   0  0  0  0  0  0  0  0  0  0  0  0
  142.3627   76.9198  221.1247 H   0  0  0  0  0  0  0  0  0  0  0  0
  143.5799   79.0591  222.0119 H   0  0  0  0  0  0  0  0  0  0  0  0
  141.1111   81.3274  224.6497 H   0  0  0  0  0  0  0  0  0  0  0  0
  139.3492   78.5311  221.9460 H   0  0  0  0  0  0  0  0  0  0  0  0
  138.9611   69.7419  222.4247 H   0  0  0  0  0  0  0  0  0  0  0  0
  138.8234   68.3661  224.5013 H   0  0  0  0  0  0  0  0  0  0  0  0
  139.3089   68.1554  226.8268 H   0  0  0  0  0  0  0  0  0  0  0  0
  141.3433   71.3023  228.9377 H   0  0  0  0  0  0  0  0  0  0  0  0
  141.4459   72.6161  226.8526 H   0  0  0  0  0  0  0  0  0  0  0  0
  1  2  2  0
  2  3  1  0
  3  4  1  0
  4  5  1  0
  5  6  2  0
  5  7  1  0
  7  8  1  0
  8  9  1  0
  9 10  1  0
 10 11  1  0
 11 12  1  0
 12 13  1  0
 13 14  2  0
 14 15  1  0
 15 16  1  0
 15 17  2  0
 17 18  1  0
 18 19  1  0
 18 20  2  0
  2 21  1  0
 21 22  2  0
 22 23  1  0
 23 24  2  0
 24 25  1  0
 25 26  2  0
 26 27  1  0
 26 28  1  0
 28 29  2  0
 29 30  1  0
 30 31  2  0
 12  7  1  0
 20 13  1  0
 31 21  1  0
 30 24  1  0
  3 32  1  0
  4 33  1  0
  4 34  1  0
  8 35  1  0
  8 36  1  0
  9 37  1  0
  9 38  1  0
 10 39  1  0
 10 40  1  0
 11 41  1  0
 11 42  1  0
 12 43  1  1
 14 44  1  0
 17 45  1  0
 20 46  1  0
 22 47  1  0
 23 48  1  0
 25 49  1  0
 28 50  1  0
 29 51  1  0
M  END
>  <smiles>  (80) 
O=C(NCC(=O)N1CCCCC1c1cc(F)cc(F)c1)c1ccc2cc(F)ccc2n1

>  <score_type>  (80) 
oracle

>  <origin>  (80) 
autodockgpu

>  <m_score__min__energy>  (80) 
-8.6600000000000001

>  <m_primary>  (80) 
energy

>  <rmsd>  (80) 
1.6565632000360349

>  <m_score__min__rmsd>  (80) 
1.6565632000360349

>  <meeko>  (80) 
{"free_energy": -8.66, "intermolecular_energy": -10.15, "internal_energy": -1.93, "cluster_size": 16, "cluster_id": 1, "rank_in_cluster": 1}

>  <energy>  (80) 
-8.52

>  <cluster_rmsd>  (80) 
0.58

>  <cluster>  (80) 
3

$$$$

     RDKit          3D

 51 54  0  0  0  0  0  0  0  0999 V2000
  139.8210   71.4190  221.0110 O   0  0  0  0  0  0  0  0  0  0  0  0
  139.7800   72.0290  222.1240 C   0  0  0  0  0  0  0  0  0  0  0  0
  139.6330   73.4410  222.2130 N   0  0  0  0  0  0  0  0  0  0  0  0
  139.5200   74.2750  221.0430 C   0  0  0  0  0  0  0  0  0  0  0  0
  139.7790   75.6790  221.4980 C   0  0  0  0  0  0  0  0  0  0  0  0
  139.5850   76.0490  222.6850 O   0  0  0  0  0  0  0  0  0  0  0  0
  140.2630   76.6750  220.5870 N   0  0  0  0  0  0  0  0  0  0  0  0
  139.4090   76.9310  219.4280 C   0  0  0  0  0  0  0  0  0  0  0  0
  140.2650   77.1160  218.1760 C   0  0  0  0  0  0  0  0  0  0  0  0
  141.1970   78.2650  218.4870 C   0  0  0  0  0  0  0  0  0  0  0  0
  142.1530   77.8840  219.5820 C   0  0  0  0  0  0  0  0  0  0  0  0
  141.5010   77.3540  220.8260 C   0  0  1  0  0  0  0  0  0  0  0  0
  141.4300   78.3950  221.8840 C   0  0  0  0  0  0  0  0  0  0  0  0
  142.5630   79.0390  222.3610 C   0  0  0  0  0  0  0  0  0  0  0  0
  142.5120   80.0080  223.3420 C   0  0  0  0  0  0  0  0  0  0  0  0
  143.6700   80.5930  223.7560 F   0  0  0  0  0  0  0  0  0  0  0  0
  141.2900   80.3480  223.8660 C   0  0  0  0  0  0  0  0  0  0  0  0
  140.1400   79.7490  223.4340 C   0  0  0  0  0  0  0  0  0  0  0  0
  138.9450   80.0990  223.9640 F   0  0  0  0  0  0  0  0  0  0  0  0
  140.2300   78.7770  222.4440 C   0  0  0  0  0  0  0  0  0  0  0  0
  139.8880   71.2500  223.3560 C   0  0  0  0  0  0  0  0  0  0  0  0
  139.5020   69.9270  223.3910 C   0  0  0  0  0  0  0  0  0  0  0  0
  139.5860   69.1490  224.5380 C   0  0  0  0  0  0  0  0  0  0  0  0
  140.0910   69.7820  225.6760 C   0  0  0  0  0  0  0  0  0  0  0  0
  140.1890   69.0260  226.8470 C   0  0  0  0  0  0  0  0  0  0  0  0
  140.6830   69.6110  227.9970 C   0  0  0  0  0  0  0  0  0  0  0  0
  140.7590   68.8370  229.1100 F   0  0  0  0  0  0  0  0  0  0  0  0
  141.0740   70.9340  227.9790 C   0  0  0  0  0  0  0  0  0  0  0  0
  140.9680   71.6600  226.8100 C   0  0  0  0  0  0  0  0  0  0  0  0
  140.4760   71.1020  225.6380 C   0  0  0  0  0  0  0  0  0  0  0  0
  140.3740   71.8210  224.4960 N   0  0  0  0  0  0  0  0  0  0  0  0
  139.6080   73.8670  223.1870 H   0  0  0  0  0  0  0  0  0  0  0  0
  140.2634   73.9760  220.2894 H   0  0  0  0  0  0  0  0  0  0  0  0
  138.5258   74.1822  220.5815 H   0  0  0  0  0  0  0  0  0  0  0  0
  138.7294   76.0786  219.2814 H   0  0  0  0  0  0  0  0  0  0  0  0
  138.8270   77.8475  219.6049 H   0  0  0  0  0  0  0  0  0  0  0  0
  140.8394   76.2019  217.9650 H   0  0  0  0  0  0  0  0  0  0  0  0
  139.6487   77.3206  217.2881 H   0  0  0  0  0  0  0  0  0  0  0  0
  141.7669   78.5241  217.5825 H   0  0  0  0  0  0  0  0  0  0  0  0
  140.6007   79.1277  218.8189 H   0  0  0  0  0  0  0  0  0  0  0  0
  142.8293   77.1088  219.1924 H   0  0  0  0  0  0  0  0  0  0  0  0
  142.6759   78.8068  219.8736 H   0  0  0  0  0  0  0  0  0  0  0  0
  142.1558   76.5601  221.2145 H   0  0  0  0  0  0  0  0  0  0  0  0
  143.5417   78.7658  221.9398 H   0  0  0  0  0  0  0  0  0  0  0  0
  141.2350   81.1181  224.6495 H   0  0  0  0  0  0  0  0  0  0  0  0
  139.3063   78.2934  222.0936 H   0  0  0  0  0  0  0  0  0  0  0  0
  139.1108   69.4681  222.4710 H   0  0  0  0  0  0  0  0  0  0  0  0
  139.2728   68.0946  224.5497 H   0  0  0  0  0  0  0  0  0  0  0  0
  139.8748   67.9718  226.8532 H   0  0  0  0  0  0  0  0  0  0  0  0
  141.4678   71.4072  228.8906 H   0  0  0  0  0  0  0  0  0  0  0  0
  141.2833   72.7139  226.8069 H   0  0  0  0  0  0  0  0  0  0  0  0
  1  2  2  0
  2  3  1  0
  3  4  1  0
  4  5  1  0
  5  6  2  0
  5  7  1  0
  7  8  1  0
  8  9  1  0
  9 10  1  0
 10 11  1  0
 11 12  1  0
 12 13  1  0
 13 14  2  0
 14 15  1  0
 15 16  1  0
 15 17  2  0
 17 18  1  0
 18 19  1  0
 18 20  2  0
  2 21  1  0
 21 22  2  0
 22 23  1  0
 23 24  2  0
 24 25  1  0
 25 26  2  0
 26 27  1  0
 26 28  1  0
 28 29  2  0
 29 30  1  0
 30 31  2  0
 12  7  1  0
 20 13  1  0
 31 21  1  0
 30 24  1  0
  3 32  1  0
  4 33  1  0
  4 34  1  0
  8 35  1  0
  8 36  1  0
  9 37  1  0
  9 38  1  0
 10 39  1  0
 10 40  1  0
 11 41  1  0
 11 42  1  0
 12 43  1  1
 14 44  1  0
 17 45  1  0
 20 46  1  0
 22 47  1  0
 23 48  1  0
 25 49  1  0
 28 50  1  0
 29 51  1  0
M  END
>  <smiles>  (81) 
O=C(NCC(=O)N1CCCCC1c1cc(F)cc(F)c1)c1ccc2cc(F)ccc2n1

>  <score_type>  (81) 
oracle

>  <origin>  (81) 
autodockgpu

>  <m_score__min__energy>  (81) 
-8.6600000000000001

>  <m_primary>  (81) 
energy

>  <rmsd>  (81) 
1.5287700472872532

>  <m_score__min__rmsd>  (81) 
1.5287700472872532

>  <meeko>  (81) 
{"free_energy": -8.54, "intermolecular_energy": -10.03, "internal_energy": -1.94, "cluster_size": 16, "cluster_id": 1, "rank_in_cluster": 9}

>  <energy>  (81) 
-8.51

>  <cluster_rmsd>  (81) 
0.57

>  <cluster>  (81) 
3

$$$$

     RDKit          3D

 51 54  0  0  0  0  0  0  0  0999 V2000
  140.0510   71.5680  221.0450 O   0  0  0  0  0  0  0  0  0  0  0  0
  139.9010   72.1400  222.1690 C   0  0  0  0  0  0  0  0  0  0  0  0
  139.6900   73.5410  222.2870 N   0  0  0  0  0  0  0  0  0  0  0  0
  139.6310   74.4070  221.1370 C   0  0  0  0  0  0  0  0  0  0  0  0
  140.4590   75.6110  221.4690 C   0  0  0  0  0  0  0  0  0  0  0  0
  140.3660   76.2080  222.5740 O   0  0  0  0  0  0  0  0  0  0  0  0
  141.4040   76.1420  220.5300 N   0  0  0  0  0  0  0  0  0  0  0  0
  141.7930   77.5340  220.7540 C   0  0  0  0  0  0  0  0  0  0  0  0
  141.8940   78.2700  219.4190 C   0  0  0  0  0  0  0  0  0  0  0  0
  142.9070   77.4980  218.6040 C   0  0  0  0  0  0  0  0  0  0  0  0
  142.3830   76.1290  218.2760 C   0  0  0  0  0  0  0  0  0  0  0  0
  141.9130   75.3370  219.4620 C   0  0  1  0  0  0  0  0  0  0  0  0
  142.9320   74.3400  219.8820 C   0  0  0  0  0  0  0  0  0  0  0  0
  144.2450   74.6980  220.1530 C   0  0  0  0  0  0  0  0  0  0  0  0
  145.2010   73.7840  220.5430 C   0  0  0  0  0  0  0  0  0  0  0  0
  146.4690   74.2150  220.7910 F   0  0  0  0  0  0  0  0  0  0  0  0
  144.8370   72.4660  220.6700 C   0  0  0  0  0  0  0  0  0  0  0  0
  143.5580   72.0550  220.4170 C   0  0  0  0  0  0  0  0  0  0  0  0
  143.2200   70.7510  220.5480 F   0  0  0  0  0  0  0  0  0  0  0  0
  142.6220   73.0050  220.0250 C   0  0  0  0  0  0  0  0  0  0  0  0
  139.9490   71.3270  223.3830 C   0  0  0  0  0  0  0  0  0  0  0  0
  139.5140   70.0180  223.3730 C   0  0  0  0  0  0  0  0  0  0  0  0
  139.5400   69.2090  224.5000 C   0  0  0  0  0  0  0  0  0  0  0  0
  140.0380   69.7940  225.6670 C   0  0  0  0  0  0  0  0  0  0  0  0
  140.0780   69.0050  226.8200 C   0  0  0  0  0  0  0  0  0  0  0  0
  140.5620   69.5430  227.9970 C   0  0  0  0  0  0  0  0  0  0  0  0
  140.5810   68.7390  229.0920 F   0  0  0  0  0  0  0  0  0  0  0  0
  141.0020   70.8500  228.0240 C   0  0  0  0  0  0  0  0  0  0  0  0
  140.9520   71.6090  226.8720 C   0  0  0  0  0  0  0  0  0  0  0  0
  140.4710   71.1000  225.6740 C   0  0  0  0  0  0  0  0  0  0  0  0
  140.4260   71.8500  224.5480 N   0  0  0  0  0  0  0  0  0  0  0  0
  139.5750   73.9350  223.2680 H   0  0  0  0  0  0  0  0  0  0  0  0
  140.0415   73.8950  220.2542 H   0  0  0  0  0  0  0  0  0  0  0  0
  138.5937   74.6892  220.9040 H   0  0  0  0  0  0  0  0  0  0  0  0
  141.0382   78.0261  221.3850 H   0  0  0  0  0  0  0  0  0  0  0  0
  142.7720   77.5590  221.2549 H   0  0  0  0  0  0  0  0  0  0  0  0
  140.9186   78.2786  218.9106 H   0  0  0  0  0  0  0  0  0  0  0  0
  142.1955   79.3191  219.5547 H   0  0  0  0  0  0  0  0  0  0  0  0
  143.1102   78.0416  217.6695 H   0  0  0  0  0  0  0  0  0  0  0  0
  143.8319   77.3945  219.1904 H   0  0  0  0  0  0  0  0  0  0  0  0
  141.5366   76.2430  217.5827 H   0  0  0  0  0  0  0  0  0  0  0  0
  143.2249   75.5695  217.8423 H   0  0  0  0  0  0  0  0  0  0  0  0
  141.0332   74.7635  219.1348 H   0  0  0  0  0  0  0  0  0  0  0  0
  144.5351   75.7543  220.0526 H   0  0  0  0  0  0  0  0  0  0  0  0
  145.5894   71.7264  220.9814 H   0  0  0  0  0  0  0  0  0  0  0  0
  141.5919   72.6777  219.8206 H   0  0  0  0  0  0  0  0  0  0  0  0
  139.1303   69.5977  222.4317 H   0  0  0  0  0  0  0  0  0  0  0  0
  139.1887   68.1669  224.4760 H   0  0  0  0  0  0  0  0  0  0  0  0
  139.7266   67.9630  226.7906 H   0  0  0  0  0  0  0  0  0  0  0  0
  141.3901   71.2845  228.9571 H   0  0  0  0  0  0  0  0  0  0  0  0
  141.3047   72.6504  226.9047 H   0  0  0  0  0  0  0  0  0  0  0  0
  1  2  2  0
  2  3  1  0
  3  4  1  0
  4  5  1  0
  5  6  2  0
  5  7  1  0
  7  8  1  0
  8  9  1  0
  9 10  1  0
 10 11  1  0
 11 12  1  0
 12 13  1  0
 13 14  2  0
 14 15  1  0
 15 16  1  0
 15 17  2  0
 17 18  1  0
 18 19  1  0
 18 20  2  0
  2 21  1  0
 21 22  2  0
 22 23  1  0
 23 24  2  0
 24 25  1  0
 25 26  2  0
 26 27  1  0
 26 28  1  0
 28 29  2  0
 29 30  1  0
 30 31  2  0
 12  7  1  0
 20 13  1  0
 31 21  1  0
 30 24  1  0
  3 32  1  0
  4 33  1  0
  4 34  1  0
  8 35  1  0
  8 36  1  0
  9 37  1  0
  9 38  1  0
 10 39  1  0
 10 40  1  0
 11 41  1  0
 11 42  1  0
 12 43  1  6
 14 44  1  0
 17 45  1  0
 20 46  1  0
 22 47  1  0
 23 48  1  0
 25 49  1  0
 28 50  1  0
 29 51  1  0
M  END
>  <smiles>  (82) 
O=C(NCC(=O)N1CCCCC1c1cc(F)cc(F)c1)c1ccc2cc(F)ccc2n1

>  <score_type>  (82) 
oracle

>  <origin>  (82) 
autodockgpu

>  <m_score__min__energy>  (82) 
-8.6600000000000001

>  <m_primary>  (82) 
energy

>  <rmsd>  (82) 
2.1668096224431883

>  <m_score__min__rmsd>  (82) 
2.1668096224431883

>  <meeko>  (82) 
{"free_energy": -8.5, "intermolecular_energy": -9.99, "internal_energy": -2.13, "cluster_size": 20, "cluster_id": 3, "rank_in_cluster": 12}

>  <energy>  (82) 
-8.51

>  <cluster_rmsd>  (82) 
0.62

>  <cluster>  (82) 
3

$$$$

     RDKit          3D

 51 54  0  0  0  0  0  0  0  0999 V2000
  139.2230   75.8730  220.2750 O   0  0  0  0  0  0  0  0  0  0  0  0
  139.3470   75.9400  221.5380 C   0  0  0  0  0  0  0  0  0  0  0  0
  139.0970   74.8280  222.3870 N   0  0  0  0  0  0  0  0  0  0  0  0
  138.6860   73.5470  221.8710 C   0  0  0  0  0  0  0  0  0  0  0  0
  139.7860   72.5840  222.2020 C   0  0  0  0  0  0  0  0  0  0  0  0
  140.9620   72.9630  222.4440 O   0  0  0  0  0  0  0  0  0  0  0  0
  139.5430   71.1720  222.2560 N   0  0  0  0  0  0  0  0  0  0  0  0
  140.0840   70.4010  221.1370 C   0  0  0  0  0  0  0  0  0  0  0  0
  139.0870   69.3250  220.7110 C   0  0  0  0  0  0  0  0  0  0  0  0
  138.8450   68.4850  221.9450 C   0  0  0  0  0  0  0  0  0  0  0  0
  138.1470   69.2920  223.0020 C   0  0  0  0  0  0  0  0  0  0  0  0
  138.8200   70.5900  223.3450 C   0  0  1  0  0  0  0  0  0  0  0  0
  139.6010   70.4760  224.6040 C   0  0  0  0  0  0  0  0  0  0  0  0
  139.7180   69.2760  225.2920 C   0  0  0  0  0  0  0  0  0  0  0  0
  140.4400   69.1550  226.4610 C   0  0  0  0  0  0  0  0  0  0  0  0
  140.5060   67.9420  227.0770 F   0  0  0  0  0  0  0  0  0  0  0  0
  141.0680   70.2670  226.9630 C   0  0  0  0  0  0  0  0  0  0  0  0
  140.9890   71.4750  226.3280 C   0  0  0  0  0  0  0  0  0  0  0  0
  141.6170   72.5600  226.8390 F   0  0  0  0  0  0  0  0  0  0  0  0
  140.2530   71.5590  225.1520 C   0  0  0  0  0  0  0  0  0  0  0  0
  139.7620   77.2080  222.1350 C   0  0  0  0  0  0  0  0  0  0  0  0
  138.8360   78.0560  222.7060 C   0  0  0  0  0  0  0  0  0  0  0  0
  139.1830   79.2690  223.2850 C   0  0  0  0  0  0  0  0  0  0  0  0
  140.5410   79.5960  223.2620 C   0  0  0  0  0  0  0  0  0  0  0  0
  140.9230   80.8110  223.8370 C   0  0  0  0  0  0  0  0  0  0  0  0
  142.2550   81.1760  223.8360 C   0  0  0  0  0  0  0  0  0  0  0  0
  142.5790   82.3660  224.4060 F   0  0  0  0  0  0  0  0  0  0  0  0
  143.1950   80.3390  223.2700 C   0  0  0  0  0  0  0  0  0  0  0  0
  142.7920   79.1440  222.7090 C   0  0  0  0  0  0  0  0  0  0  0  0
  141.4620   78.7490  222.6920 C   0  0  0  0  0  0  0  0  0  0  0  0
  141.0760   77.5750  222.1390 N   0  0  0  0  0  0  0  0  0  0  0  0
  139.2270   74.9750  223.4320 H   0  0  0  0  0  0  0  0  0  0  0  0
  137.7464   73.2291  222.3465 H   0  0  0  0  0  0  0  0  0  0  0  0
  138.5091   73.5924  220.7863 H   0  0  0  0  0  0  0  0  0  0  0  0
  140.2759   71.0754  220.2894 H   0  0  0  0  0  0  0  0  0  0  0  0
  141.0216   69.9192  221.4513 H   0  0  0  0  0  0  0  0  0  0  0  0
  138.1481   69.7849  220.3692 H   0  0  0  0  0  0  0  0  0  0  0  0
  139.4714   68.7210  219.8759 H   0  0  0  0  0  0  0  0  0  0  0  0
  138.2195   67.6206  221.6776 H   0  0  0  0  0  0  0  0  0  0  0  0
  139.8138   68.1445  222.3392 H   0  0  0  0  0  0  0  0  0  0  0  0
  137.1304   69.5162  222.6467 H   0  0  0  0  0  0  0  0  0  0  0  0
  138.1600   68.6830  223.9179 H   0  0  0  0  0  0  0  0  0  0  0  0
  138.0220   71.3216  223.5397 H   0  0  0  0  0  0  0  0  0  0  0  0
  139.2143   68.3852  224.8884 H   0  0  0  0  0  0  0  0  0  0  0  0
  141.6465   70.1847  227.8950 H   0  0  0  0  0  0  0  0  0  0  0  0
  140.1885   72.5294  224.6380 H   0  0  0  0  0  0  0  0  0  0  0  0
  137.7771   77.7583  222.7024 H   0  0  0  0  0  0  0  0  0  0  0  0
  138.4320   79.9343  223.7359 H   0  0  0  0  0  0  0  0  0  0  0  0
  140.1680   81.4722  224.2874 H   0  0  0  0  0  0  0  0  0  0  0  0
  144.2579   80.6222  223.2660 H   0  0  0  0  0  0  0  0  0  0  0  0
  143.5493   78.4838  222.2611 H   0  0  0  0  0  0  0  0  0  0  0  0
  1  2  2  0
  2  3  1  0
  3  4  1  0
  4  5  1  0
  5  6  2  0
  5  7  1  0
  7  8  1  0
  8  9  1  0
  9 10  1  0
 10 11  1  0
 11 12  1  0
 12 13  1  0
 13 14  2  0
 14 15  1  0
 15 16  1  0
 15 17  2  0
 17 18  1  0
 18 19  1  0
 18 20  2  0
  2 21  1  0
 21 22  2  0
 22 23  1  0
 23 24  2  0
 24 25  1  0
 25 26  2  0
 26 27  1  0
 26 28  1  0
 28 29  2  0
 29 30  1  0
 30 31  2  0
 12  7  1  0
 20 13  1  0
 31 21  1  0
 30 24  1  0
  3 32  1  0
  4 33  1  0
  4 34  1  0
  8 35  1  0
  8 36  1  0
  9 37  1  0
  9 38  1  0
 10 39  1  0
 10 40  1  0
 11 41  1  0
 11 42  1  0
 12 43  1  1
 14 44  1  0
 17 45  1  0
 20 46  1  0
 22 47  1  0
 23 48  1  0
 25 49  1  0
 28 50  1  0
 29 51  1  0
M  END
>  <smiles>  (83) 
O=C(NCC(=O)N1CCCCC1c1cc(F)cc(F)c1)c1ccc2cc(F)ccc2n1

>  <score_type>  (83) 
oracle

>  <origin>  (83) 
autodockgpu

>  <m_score__min__energy>  (83) 
-8.6600000000000001

>  <m_primary>  (83) 
energy

>  <rmsd>  (83) 
8.419158504360416

>  <m_score__min__rmsd>  (83) 
8.419158504360416

>  <meeko>  (83) 
{"free_energy": -8.57, "intermolecular_energy": -10.06, "internal_energy": -1.3, "cluster_size": 9, "cluster_id": 2, "rank_in_cluster": 2}

>  <energy>  (83) 
-8.51

>  <cluster_rmsd>  (83) 
0.58

>  <cluster>  (83) 
3

$$$$

     RDKit          3D

 51 54  0  0  0  0  0  0  0  0999 V2000
  137.0000   75.6890  222.0250 O   0  0  0  0  0  0  0  0  0  0  0  0
  138.2410   75.7800  222.2760 C   0  0  0  0  0  0  0  0  0  0  0  0
  139.1030   74.6490  222.2700 N   0  0  0  0  0  0  0  0  0  0  0  0
  138.6250   73.3220  221.9770 C   0  0  0  0  0  0  0  0  0  0  0  0
  139.6930   72.3750  222.4340 C   0  0  0  0  0  0  0  0  0  0  0  0
  140.8580   72.7610  222.7160 O   0  0  0  0  0  0  0  0  0  0  0  0
  139.4300   70.9720  222.5710 N   0  0  0  0  0  0  0  0  0  0  0  0
  139.9260   70.1340  221.4800 C   0  0  0  0  0  0  0  0  0  0  0  0
  138.9000   69.0530  221.1430 C   0  0  0  0  0  0  0  0  0  0  0  0
  138.6820   68.2840  222.4260 C   0  0  0  0  0  0  0  0  0  0  0  0
  138.0280   69.1580  223.4580 C   0  0  0  0  0  0  0  0  0  0  0  0
  138.7300   70.4610  223.7110 C   0  0  1  0  0  0  0  0  0  0  0  0
  139.5470   70.4010  224.9510 C   0  0  0  0  0  0  0  0  0  0  0  0
  140.2190   71.5110  225.4440 C   0  0  0  0  0  0  0  0  0  0  0  0
  140.9800   71.4700  226.5940 C   0  0  0  0  0  0  0  0  0  0  0  0
  141.6100   72.6030  227.0130 F   0  0  0  0  0  0  0  0  0  0  0  0
  141.0760   70.2830  227.2770 C   0  0  0  0  0  0  0  0  0  0  0  0
  140.4340   69.1580  226.8390 C   0  0  0  0  0  0  0  0  0  0  0  0
  140.5410   67.9980  227.5280 F   0  0  0  0  0  0  0  0  0  0  0  0
  139.6760   69.2370  225.6760 C   0  0  0  0  0  0  0  0  0  0  0  0
  138.8010   77.0950  222.5820 C   0  0  0  0  0  0  0  0  0  0  0  0
  137.9820   78.1920  222.7380 C   0  0  0  0  0  0  0  0  0  0  0  0
  138.4680   79.4590  223.0280 C   0  0  0  0  0  0  0  0  0  0  0  0
  139.8540   79.5720  223.1590 C   0  0  0  0  0  0  0  0  0  0  0  0
  140.3770   80.8340  223.4520 C   0  0  0  0  0  0  0  0  0  0  0  0
  141.7420   80.9930  223.5890 C   0  0  0  0  0  0  0  0  0  0  0  0
  142.2030   82.2380  223.8740 F   0  0  0  0  0  0  0  0  0  0  0  0
  142.5770   79.9040  223.4370 C   0  0  0  0  0  0  0  0  0  0  0  0
  142.0370   78.6670  223.1480 C   0  0  0  0  0  0  0  0  0  0  0  0
  140.6700   78.4750  223.0030 C   0  0  0  0  0  0  0  0  0  0  0  0
  140.1490   77.2580  222.7190 N   0  0  0  0  0  0  0  0  0  0  0  0
  140.1290   74.8180  222.4910 H   0  0  0  0  0  0  0  0  0  0  0  0
  137.6874   73.1275  222.5185 H   0  0  0  0  0  0  0  0  0  0  0  0
  138.4189   73.2013  220.9033 H   0  0  0  0  0  0  0  0  0  0  0  0
  140.1019   70.7588  220.5919 H   0  0  0  0  0  0  0  0  0  0  0  0
  140.8660   69.6550  221.7914 H   0  0  0  0  0  0  0  0  0  0  0  0
  137.9583   69.5098  220.8046 H   0  0  0  0  0  0  0  0  0  0  0  0
  139.2505   68.3986  220.3312 H   0  0  0  0  0  0  0  0  0  0  0  0
  138.0356   67.4173  222.2233 H   0  0  0  0  0  0  0  0  0  0  0  0
  139.6567   67.9483  222.8098 H   0  0  0  0  0  0  0  0  0  0  0  0
  137.0047   69.3797  223.1208 H   0  0  0  0  0  0  0  0  0  0  0  0
  138.0594   68.5986  224.4046 H   0  0  0  0  0  0  0  0  0  0  0  0
  137.9491   71.2150  223.8891 H   0  0  0  0  0  0  0  0  0  0  0  0
  140.1417   72.4615  224.8957 H   0  0  0  0  0  0  0  0  0  0  0  0
  141.6811   70.2360  228.1944 H   0  0  0  0  0  0  0  0  0  0  0  0
  139.1586   68.3336  225.3207 H   0  0  0  0  0  0  0  0  0  0  0  0
  136.8958   78.0576  222.6279 H   0  0  0  0  0  0  0  0  0  0  0  0
  137.8000   80.3247  223.1478 H   0  0  0  0  0  0  0  0  0  0  0  0
  139.7050   81.6965  223.5729 H   0  0  0  0  0  0  0  0  0  0  0  0
  143.6653   80.0214  223.5455 H   0  0  0  0  0  0  0  0  0  0  0  0
  142.7113   77.8062  223.0288 H   0  0  0  0  0  0  0  0  0  0  0  0
  1  2  2  0
  2  3  1  0
  3  4  1  0
  4  5  1  0
  5  6  2  0
  5  7  1  0
  7  8  1  0
  8  9  1  0
  9 10  1  0
 10 11  1  0
 11 12  1  0
 12 13  1  0
 13 14  2  0
 14 15  1  0
 15 16  1  0
 15 17  2  0
 17 18  1  0
 18 19  1  0
 18 20  2  0
  2 21  1  0
 21 22  2  0
 22 23  1  0
 23 24  2  0
 24 25  1  0
 25 26  2  0
 26 27  1  0
 26 28  1  0
 28 29  2  0
 29 30  1  0
 30 31  2  0
 12  7  1  0
 20 13  1  0
 31 21  1  0
 30 24  1  0
  3 32  1  0
  4 33  1  0
  4 34  1  0
  8 35  1  0
  8 36  1  0
  9 37  1  0
  9 38  1  0
 10 39  1  0
 10 40  1  0
 11 41  1  0
 11 42  1  0
 12 43  1  1
 14 44  1  0
 17 45  1  0
 20 46  1  0
 22 47  1  0
 23 48  1  0
 25 49  1  0
 28 50  1  0
 29 51  1  0
M  END
>  <smiles>  (84) 
O=C(NCC(=O)N1CCCCC1c1cc(F)cc(F)c1)c1ccc2cc(F)ccc2n1

>  <score_type>  (84) 
oracle

>  <origin>  (84) 
autodockgpu

>  <m_score__min__energy>  (84) 
-8.6600000000000001

>  <m_primary>  (84) 
energy

>  <rmsd>  (84) 
8.479396868292033

>  <m_score__min__rmsd>  (84) 
8.479396868292033

>  <meeko>  (84) 
{"free_energy": -8.1, "intermolecular_energy": -9.59, "internal_energy": -2.15, "cluster_size": 9, "cluster_id": 2, "rank_in_cluster": 7}

>  <energy>  (84) 
-8.51

>  <cluster_rmsd>  (84) 
0.62

>  <cluster>  (84) 
3

$$$$

     RDKit          3D

 51 54  0  0  0  0  0  0  0  0999 V2000
  140.0210   71.5010  221.0220 O   0  0  0  0  0  0  0  0  0  0  0  0
  139.8720   72.0720  222.1470 C   0  0  0  0  0  0  0  0  0  0  0  0
  139.6760   73.4750  222.2680 N   0  0  0  0  0  0  0  0  0  0  0  0
  139.6290   74.3450  221.1200 C   0  0  0  0  0  0  0  0  0  0  0  0
  140.4350   75.5580  221.4740 C   0  0  0  0  0  0  0  0  0  0  0  0
  140.3200   76.1410  222.5840 O   0  0  0  0  0  0  0  0  0  0  0  0
  141.3820   76.1140  220.5520 N   0  0  0  0  0  0  0  0  0  0  0  0
  141.7490   77.5080  220.7970 C   0  0  0  0  0  0  0  0  0  0  0  0
  141.8540   78.2630  219.4720 C   0  0  0  0  0  0  0  0  0  0  0  0
  142.8850   77.5150  218.6580 C   0  0  0  0  0  0  0  0  0  0  0  0
  142.3830   76.1430  218.3070 C   0  0  0  0  0  0  0  0  0  0  0  0
  141.9120   75.3290  219.4780 C   0  0  1  0  0  0  0  0  0  0  0  0
  142.9400   74.3410  219.8960 C   0  0  0  0  0  0  0  0  0  0  0  0
  142.6490   72.9920  220.0390 C   0  0  0  0  0  0  0  0  0  0  0  0
  143.5930   72.0630  220.4260 C   0  0  0  0  0  0  0  0  0  0  0  0
  143.2280   70.7560  220.5430 F   0  0  0  0  0  0  0  0  0  0  0  0
  144.8720   72.4920  220.6780 C   0  0  0  0  0  0  0  0  0  0  0  0
  145.2170   73.8090  220.5530 C   0  0  0  0  0  0  0  0  0  0  0  0
  146.4840   74.2120  220.8070 F   0  0  0  0  0  0  0  0  0  0  0  0
  144.2390   74.7160  220.1610 C   0  0  0  0  0  0  0  0  0  0  0  0
  139.9070   71.2560  223.3590 C   0  0  0  0  0  0  0  0  0  0  0  0
  139.5000   69.9380  223.3340 C   0  0  0  0  0  0  0  0  0  0  0  0
  139.5150   69.1260  224.4590 C   0  0  0  0  0  0  0  0  0  0  0  0
  139.9710   69.7160  225.6400 C   0  0  0  0  0  0  0  0  0  0  0  0
  139.9990   68.9240  226.7910 C   0  0  0  0  0  0  0  0  0  0  0  0
  140.4420   69.4670  227.9820 C   0  0  0  0  0  0  0  0  0  0  0  0
  140.4510   68.6590  229.0730 F   0  0  0  0  0  0  0  0  0  0  0  0
  140.8540   70.7840  228.0230 C   0  0  0  0  0  0  0  0  0  0  0  0
  140.8170   71.5450  226.8730 C   0  0  0  0  0  0  0  0  0  0  0  0
  140.3760   71.0310  225.6620 C   0  0  0  0  0  0  0  0  0  0  0  0
  140.3430   71.7850  224.5380 N   0  0  0  0  0  0  0  0  0  0  0  0
  139.5600   73.8670  223.2490 H   0  0  0  0  0  0  0  0  0  0  0  0
  140.0637   73.8420  220.2436 H   0  0  0  0  0  0  0  0  0  0  0  0
  138.5931   74.6149  220.8668 H   0  0  0  0  0  0  0  0  0  0  0  0
  140.9807   77.9816  221.4259 H   0  0  0  0  0  0  0  0  0  0  0  0
  142.7224   77.5400  221.3083 H   0  0  0  0  0  0  0  0  0  0  0  0
  140.8838   78.2656  218.9537 H   0  0  0  0  0  0  0  0  0  0  0  0
  142.1403   79.3141  219.6243 H   0  0  0  0  0  0  0  0  0  0  0  0
  143.0903   78.0732  217.7327 H   0  0  0  0  0  0  0  0  0  0  0  0
  143.8050   77.4161  219.2529 H   0  0  0  0  0  0  0  0  0  0  0  0
  141.5421   76.2545  217.6067 H   0  0  0  0  0  0  0  0  0  0  0  0
  143.2368   75.6007  217.8747 H   0  0  0  0  0  0  0  0  0  0  0  0
  141.0437   74.7479  219.1341 H   0  0  0  0  0  0  0  0  0  0  0  0
  141.6238   72.6490  219.8356 H   0  0  0  0  0  0  0  0  0  0  0  0
  145.6346   71.7618  220.9866 H   0  0  0  0  0  0  0  0  0  0  0  0
  144.5135   75.7762  220.0582 H   0  0  0  0  0  0  0  0  0  0  0  0
  139.1488   69.5130  222.3821 H   0  0  0  0  0  0  0  0  0  0  0  0
  139.1863   68.0769  224.4228 H   0  0  0  0  0  0  0  0  0  0  0  0
  139.6705   67.8750  226.7492 H   0  0  0  0  0  0  0  0  0  0  0  0
  141.2095   71.2237  228.9666 H   0  0  0  0  0  0  0  0  0  0  0  0
  141.1478   72.5931  226.9175 H   0  0  0  0  0  0  0  0  0  0  0  0
  1  2  2  0
  2  3  1  0
  3  4  1  0
  4  5  1  0
  5  6  2  0
  5  7  1  0
  7  8  1  0
  8  9  1  0
  9 10  1  0
 10 11  1  0
 11 12  1  0
 12 13  1  0
 13 14  2  0
 14 15  1  0
 15 16  1  0
 15 17  2  0
 17 18  1  0
 18 19  1  0
 18 20  2  0
  2 21  1  0
 21 22  2  0
 22 23  1  0
 23 24  2  0
 24 25  1  0
 25 26  2  0
 26 27  1  0
 26 28  1  0
 28 29  2  0
 29 30  1  0
 30 31  2  0
 12  7  1  0
 20 13  1  0
 31 21  1  0
 30 24  1  0
  3 32  1  0
  4 33  1  0
  4 34  1  0
  8 35  1  0
  8 36  1  0
  9 37  1  0
  9 38  1  0
 10 39  1  0
 10 40  1  0
 11 41  1  0
 11 42  1  0
 12 43  1  6
 14 44  1  0
 17 45  1  0
 20 46  1  0
 22 47  1  0
 23 48  1  0
 25 49  1  0
 28 50  1  0
 29 51  1  0
M  END
>  <smiles>  (85) 
O=C(NCC(=O)N1CCCCC1c1cc(F)cc(F)c1)c1ccc2cc(F)ccc2n1

>  <score_type>  (85) 
oracle

>  <origin>  (85) 
autodockgpu

>  <m_score__min__energy>  (85) 
-8.6600000000000001

>  <m_primary>  (85) 
energy

>  <rmsd>  (85) 
2.1465297893168382

>  <m_score__min__rmsd>  (85) 
2.1465297893168382

>  <meeko>  (85) 
{"free_energy": -8.49, "intermolecular_energy": -9.98, "internal_energy": -2.15, "cluster_size": 20, "cluster_id": 3, "rank_in_cluster": 15}

>  <energy>  (85) 
-8.5

>  <cluster_rmsd>  (85) 
0.63

>  <cluster>  (85) 
3

$$$$

     RDKit          3D

 51 54  0  0  0  0  0  0  0  0999 V2000
  140.0530   71.5900  221.0570 O   0  0  0  0  0  0  0  0  0  0  0  0
  139.8980   72.1580  222.1820 C   0  0  0  0  0  0  0  0  0  0  0  0
  139.6850   73.5580  222.3040 N   0  0  0  0  0  0  0  0  0  0  0  0
  139.6300   74.4290  221.1580 C   0  0  0  0  0  0  0  0  0  0  0  0
  140.4630   75.6280  221.4950 C   0  0  0  0  0  0  0  0  0  0  0  0
  140.3670   76.2250  222.5990 O   0  0  0  0  0  0  0  0  0  0  0  0
  141.4150   76.1550  220.5610 N   0  0  0  0  0  0  0  0  0  0  0  0
  141.8080   77.5450  220.7860 C   0  0  0  0  0  0  0  0  0  0  0  0
  141.9200   78.2810  219.4520 C   0  0  0  0  0  0  0  0  0  0  0  0
  142.9340   77.5040  218.6430 C   0  0  0  0  0  0  0  0  0  0  0  0
  142.4070   76.1370  218.3120 C   0  0  0  0  0  0  0  0  0  0  0  0
  141.9270   75.3470  219.4960 C   0  0  1  0  0  0  0  0  0  0  0  0
  142.9390   74.3460  219.9220 C   0  0  0  0  0  0  0  0  0  0  0  0
  142.6270   73.0030  220.0770 C   0  0  0  0  0  0  0  0  0  0  0  0
  143.5560   72.0630  220.4730 C   0  0  0  0  0  0  0  0  0  0  0  0
  143.1700   70.7630  220.6020 F   0  0  0  0  0  0  0  0  0  0  0  0
  144.8420   72.4740  220.7210 C   0  0  0  0  0  0  0  0  0  0  0  0
  145.2070   73.7840  220.5840 C   0  0  0  0  0  0  0  0  0  0  0  0
  146.4810   74.1690  220.8340 F   0  0  0  0  0  0  0  0  0  0  0  0
  144.2440   74.7030  220.1840 C   0  0  0  0  0  0  0  0  0  0  0  0
  139.9410   71.3400  223.3930 C   0  0  0  0  0  0  0  0  0  0  0  0
  139.5030   70.0320  223.3770 C   0  0  0  0  0  0  0  0  0  0  0  0
  139.5240   69.2190  224.5020 C   0  0  0  0  0  0  0  0  0  0  0  0
  140.0210   69.7980  225.6720 C   0  0  0  0  0  0  0  0  0  0  0  0
  140.0570   69.0050  226.8220 C   0  0  0  0  0  0  0  0  0  0  0  0
  140.5400   69.5370  228.0020 C   0  0  0  0  0  0  0  0  0  0  0  0
  140.5550   68.7280  229.0930 F   0  0  0  0  0  0  0  0  0  0  0  0
  140.9830   70.8430  228.0340 C   0  0  0  0  0  0  0  0  0  0  0  0
  140.9380   71.6060  226.8850 C   0  0  0  0  0  0  0  0  0  0  0  0
  140.4580   71.1030  225.6840 C   0  0  0  0  0  0  0  0  0  0  0  0
  140.4170   71.8580  224.5610 N   0  0  0  0  0  0  0  0  0  0  0  0
  139.5650   73.9480  223.2860 H   0  0  0  0  0  0  0  0  0  0  0  0
  140.0384   73.9190  220.2731 H   0  0  0  0  0  0  0  0  0  0  0  0
  138.5939   74.7167  220.9262 H   0  0  0  0  0  0  0  0  0  0  0  0
  141.0515   78.0402  221.4124 H   0  0  0  0  0  0  0  0  0  0  0  0
  142.7845   77.5658  221.2919 H   0  0  0  0  0  0  0  0  0  0  0  0
  140.9476   78.2944  218.9380 H   0  0  0  0  0  0  0  0  0  0  0  0
  142.2255   79.3287  219.5895 H   0  0  0  0  0  0  0  0  0  0  0  0
  143.1448   78.0465  217.7096 H   0  0  0  0  0  0  0  0  0  0  0  0
  143.8546   77.3965  219.2353 H   0  0  0  0  0  0  0  0  0  0  0  0
  141.5651   76.2539  217.6137 H   0  0  0  0  0  0  0  0  0  0  0  0
  143.2492   75.5742  217.8831 H   0  0  0  0  0  0  0  0  0  0  0  0
  141.0469   74.7767  219.1641 H   0  0  0  0  0  0  0  0  0  0  0  0
  141.5967   72.6742  219.8759 H   0  0  0  0  0  0  0  0  0  0  0  0
  145.5932   71.7348  221.0360 H   0  0  0  0  0  0  0  0  0  0  0  0
  144.5353   75.7578  220.0721 H   0  0  0  0  0  0  0  0  0  0  0  0
  139.1211   69.6157  222.4331 H   0  0  0  0  0  0  0  0  0  0  0  0
  139.1694   68.1781  224.4737 H   0  0  0  0  0  0  0  0  0  0  0  0
  139.7031   67.9640  226.7880 H   0  0  0  0  0  0  0  0  0  0  0  0
  141.3697   71.2735  228.9695 H   0  0  0  0  0  0  0  0  0  0  0  0
  141.2940   72.6461  226.9223 H   0  0  0  0  0  0  0  0  0  0  0  0
  1  2  2  0
  2  3  1  0
  3  4  1  0
  4  5  1  0
  5  6  2  0
  5  7  1  0
  7  8  1  0
  8  9  1  0
  9 10  1  0
 10 11  1  0
 11 12  1  0
 12 13  1  0
 13 14  2  0
 14 15  1  0
 15 16  1  0
 15 17  2  0
 17 18  1  0
 18 19  1  0
 18 20  2  0
  2 21  1  0
 21 22  2  0
 22 23  1  0
 23 24  2  0
 24 25  1  0
 25 26  2  0
 26 27  1  0
 26 28  1  0
 28 29  2  0
 29 30  1  0
 30 31  2  0
 12  7  1  0
 20 13  1  0
 31 21  1  0
 30 24  1  0
  3 32  1  0
  4 33  1  0
  4 34  1  0
  8 35  1  0
  8 36  1  0
  9 37  1  0
  9 38  1  0
 10 39  1  0
 10 40  1  0
 11 41  1  0
 11 42  1  0
 12 43  1  6
 14 44  1  0
 17 45  1  0
 20 46  1  0
 22 47  1  0
 23 48  1  0
 25 49  1  0
 28 50  1  0
 29 51  1  0
M  END
>  <smiles>  (86) 
O=C(NCC(=O)N1CCCCC1c1cc(F)cc(F)c1)c1ccc2cc(F)ccc2n1

>  <score_type>  (86) 
oracle

>  <origin>  (86) 
autodockgpu

>  <m_score__min__energy>  (86) 
-8.6600000000000001

>  <m_primary>  (86) 
energy

>  <rmsd>  (86) 
2.1791166492177023

>  <m_score__min__rmsd>  (86) 
2.1791166492177023

>  <meeko>  (86) 
{"free_energy": -8.52, "intermolecular_energy": -10.01, "internal_energy": -2.14, "cluster_size": 20, "cluster_id": 3, "rank_in_cluster": 3}

>  <energy>  (86) 
-8.5

>  <cluster_rmsd>  (86) 
0.58

>  <cluster>  (86) 
3

$$$$

     RDKit          3D

 51 54  0  0  0  0  0  0  0  0999 V2000
  140.0780   71.5430  221.0120 O   0  0  0  0  0  0  0  0  0  0  0  0
  139.9070   72.1350  222.1220 C   0  0  0  0  0  0  0  0  0  0  0  0
  139.7030   73.5390  222.2120 N   0  0  0  0  0  0  0  0  0  0  0  0
  139.6750   74.3860  221.0470 C   0  0  0  0  0  0  0  0  0  0  0  0
  139.9940   75.7710  221.5210 C   0  0  0  0  0  0  0  0  0  0  0  0
  139.9300   76.0980  222.7350 O   0  0  0  0  0  0  0  0  0  0  0  0
  140.3910   76.7960  220.6010 N   0  0  0  0  0  0  0  0  0  0  0  0
  139.5010   76.9870  219.4560 C   0  0  0  0  0  0  0  0  0  0  0  0
  140.3210   77.2300  218.1890 C   0  0  0  0  0  0  0  0  0  0  0  0
  141.1740   78.4420  218.4830 C   0  0  0  0  0  0  0  0  0  0  0  0
  142.1730   78.1340  219.5620 C   0  0  0  0  0  0  0  0  0  0  0  0
  141.5810   77.5620  220.8180 C   0  0  1  0  0  0  0  0  0  0  0  0
  141.4540   78.5990  221.8750 C   0  0  0  0  0  0  0  0  0  0  0  0
  140.2220   78.9800  222.3870 C   0  0  0  0  0  0  0  0  0  0  0  0
  140.0890   79.9410  223.3680 C   0  0  0  0  0  0  0  0  0  0  0  0
  138.8430   80.2600  223.8190 F   0  0  0  0  0  0  0  0  0  0  0  0
  141.2210   80.5430  223.8570 C   0  0  0  0  0  0  0  0  0  0  0  0
  142.4610   80.2070  223.3910 C   0  0  0  0  0  0  0  0  0  0  0  0
  143.5660   80.8120  223.8860 F   0  0  0  0  0  0  0  0  0  0  0  0
  142.5570   79.2340  222.4020 C   0  0  0  0  0  0  0  0  0  0  0  0
  139.9230   71.3420  223.3500 C   0  0  0  0  0  0  0  0  0  0  0  0
  139.4650   70.0410  223.3560 C   0  0  0  0  0  0  0  0  0  0  0  0
  139.4600   69.2520  224.4970 C   0  0  0  0  0  0  0  0  0  0  0  0
  139.9510   69.8470  225.6610 C   0  0  0  0  0  0  0  0  0  0  0  0
  139.9600   69.0780  226.8280 C   0  0  0  0  0  0  0  0  0  0  0  0
  140.4360   69.6270  228.0030 C   0  0  0  0  0  0  0  0  0  0  0  0
  140.4250   68.8420  229.1110 F   0  0  0  0  0  0  0  0  0  0  0  0
  140.8990   70.9270  228.0140 C   0  0  0  0  0  0  0  0  0  0  0  0
  140.8800   71.6660  226.8480 C   0  0  0  0  0  0  0  0  0  0  0  0
  140.4070   71.1450  225.6520 C   0  0  0  0  0  0  0  0  0  0  0  0
  140.3920   71.8770  224.5140 N   0  0  0  0  0  0  0  0  0  0  0  0
  139.5680   73.9500  223.1830 H   0  0  0  0  0  0  0  0  0  0  0  0
  140.4261   74.0520  220.3160 H   0  0  0  0  0  0  0  0  0  0  0  0
  138.6929   74.3508  220.5528 H   0  0  0  0  0  0  0  0  0  0  0  0
  138.8821   76.0875  219.3221 H   0  0  0  0  0  0  0  0  0  0  0  0
  138.8574   77.8595  219.6415 H   0  0  0  0  0  0  0  0  0  0  0  0
  140.9551   76.3585  217.9690 H   0  0  0  0  0  0  0  0  0  0  0  0
  139.6768   77.3889  217.3116 H   0  0  0  0  0  0  0  0  0  0  0  0
  141.7088   78.7385  217.5686 H   0  0  0  0  0  0  0  0  0  0  0  0
  140.5231   79.2604  218.8243 H   0  0  0  0  0  0  0  0  0  0  0  0
  142.8966   77.4082  219.1624 H   0  0  0  0  0  0  0  0  0  0  0  0
  142.6334   79.0926  219.8431 H   0  0  0  0  0  0  0  0  0  0  0  0
  142.2965   76.8174  221.1970 H   0  0  0  0  0  0  0  0  0  0  0  0
  139.3150   78.4965  221.9951 H   0  0  0  0  0  0  0  0  0  0  0  0
  141.1286   81.3109  224.6392 H   0  0  0  0  0  0  0  0  0  0  0  0
  143.5537   78.9605  222.0254 H   0  0  0  0  0  0  0  0  0  0  0  0
  139.0878   69.6109  222.4164 H   0  0  0  0  0  0  0  0  0  0  0  0
  139.0901   68.2161  224.4855 H   0  0  0  0  0  0  0  0  0  0  0  0
  139.5904   68.0421  226.8110 H   0  0  0  0  0  0  0  0  0  0  0  0
  141.2805   71.3713  228.9452 H   0  0  0  0  0  0  0  0  0  0  0  0
  141.2518   72.7011  226.8677 H   0  0  0  0  0  0  0  0  0  0  0  0
  1  2  2  0
  2  3  1  0
  3  4  1  0
  4  5  1  0
  5  6  2  0
  5  7  1  0
  7  8  1  0
  8  9  1  0
  9 10  1  0
 10 11  1  0
 11 12  1  0
 12 13  1  0
 13 14  2  0
 14 15  1  0
 15 16  1  0
 15 17  2  0
 17 18  1  0
 18 19  1  0
 18 20  2  0
  2 21  1  0
 21 22  2  0
 22 23  1  0
 23 24  2  0
 24 25  1  0
 25 26  2  0
 26 27  1  0
 26 28  1  0
 28 29  2  0
 29 30  1  0
 30 31  2  0
 12  7  1  0
 20 13  1  0
 31 21  1  0
 30 24  1  0
  3 32  1  0
  4 33  1  0
  4 34  1  0
  8 35  1  0
  8 36  1  0
  9 37  1  0
  9 38  1  0
 10 39  1  0
 10 40  1  0
 11 41  1  0
 11 42  1  0
 12 43  1  1
 14 44  1  0
 17 45  1  0
 20 46  1  0
 22 47  1  0
 23 48  1  0
 25 49  1  0
 28 50  1  0
 29 51  1  0
M  END
>  <smiles>  (87) 
O=C(NCC(=O)N1CCCCC1c1cc(F)cc(F)c1)c1ccc2cc(F)ccc2n1

>  <score_type>  (87) 
oracle

>  <origin>  (87) 
autodockgpu

>  <m_score__min__energy>  (87) 
-8.6600000000000001

>  <m_primary>  (87) 
energy

>  <rmsd>  (87) 
1.6051657076824029

>  <m_score__min__rmsd>  (87) 
1.6051657076824029

>  <meeko>  (87) 
{"free_energy": -8.61, "intermolecular_energy": -10.1, "internal_energy": -1.97, "cluster_size": 16, "cluster_id": 1, "rank_in_cluster": 3}

>  <energy>  (87) 
-8.5

>  <cluster_rmsd>  (87) 
0.58

>  <cluster>  (87) 
3

$$$$

     RDKit          3D

 51 54  0  0  0  0  0  0  0  0999 V2000
  140.0670   71.4760  221.0270 O   0  0  0  0  0  0  0  0  0  0  0  0
  139.8970   72.0550  222.1450 C   0  0  0  0  0  0  0  0  0  0  0  0
  139.6930   73.4580  222.2510 N   0  0  0  0  0  0  0  0  0  0  0  0
  139.6630   74.3190  221.0970 C   0  0  0  0  0  0  0  0  0  0  0  0
  140.4650   75.5340  221.4530 C   0  0  0  0  0  0  0  0  0  0  0  0
  140.3440   76.1190  222.5610 O   0  0  0  0  0  0  0  0  0  0  0  0
  141.4140   76.0910  220.5330 N   0  0  0  0  0  0  0  0  0  0  0  0
  141.7840   77.4830  220.7840 C   0  0  0  0  0  0  0  0  0  0  0  0
  141.8920   78.2430  219.4620 C   0  0  0  0  0  0  0  0  0  0  0  0
  142.9220   77.4950  218.6460 C   0  0  0  0  0  0  0  0  0  0  0  0
  142.4180   76.1260  218.2900 C   0  0  0  0  0  0  0  0  0  0  0  0
  141.9440   75.3090  219.4570 C   0  0  1  0  0  0  0  0  0  0  0  0
  142.9690   74.3170  219.8730 C   0  0  0  0  0  0  0  0  0  0  0  0
  142.6720   72.9700  220.0230 C   0  0  0  0  0  0  0  0  0  0  0  0
  143.6130   72.0380  220.4080 C   0  0  0  0  0  0  0  0  0  0  0  0
  143.2420   70.7330  220.5330 F   0  0  0  0  0  0  0  0  0  0  0  0
  144.8960   72.4610  220.6510 C   0  0  0  0  0  0  0  0  0  0  0  0
  145.2470   73.7750  220.5180 C   0  0  0  0  0  0  0  0  0  0  0  0
  146.5180   74.1720  220.7620 F   0  0  0  0  0  0  0  0  0  0  0  0
  144.2720   74.6860  220.1280 C   0  0  0  0  0  0  0  0  0  0  0  0
  139.9140   71.2470  223.3630 C   0  0  0  0  0  0  0  0  0  0  0  0
  139.4600   69.9450  223.3530 C   0  0  0  0  0  0  0  0  0  0  0  0
  139.4560   69.1420  224.4850 C   0  0  0  0  0  0  0  0  0  0  0  0
  139.9450   69.7250  225.6560 C   0  0  0  0  0  0  0  0  0  0  0  0
  139.9560   68.9420  226.8140 C   0  0  0  0  0  0  0  0  0  0  0  0
  140.4300   69.4780  227.9950 C   0  0  0  0  0  0  0  0  0  0  0  0
  140.4210   68.6800  229.0940 F   0  0  0  0  0  0  0  0  0  0  0  0
  140.8890   70.7790  228.0220 C   0  0  0  0  0  0  0  0  0  0  0  0
  140.8690   71.5330  226.8660 C   0  0  0  0  0  0  0  0  0  0  0  0
  140.3980   71.0240  225.6630 C   0  0  0  0  0  0  0  0  0  0  0  0
  140.3810   71.7700  224.5330 N   0  0  0  0  0  0  0  0  0  0  0  0
  139.5600   73.8570  223.2280 H   0  0  0  0  0  0  0  0  0  0  0  0
  140.1095   73.8092  220.2305 H   0  0  0  0  0  0  0  0  0  0  0  0
  138.6310   74.5879  220.8275 H   0  0  0  0  0  0  0  0  0  0  0  0
  141.0163   77.9558  221.4141 H   0  0  0  0  0  0  0  0  0  0  0  0
  142.7570   77.5107  221.2964 H   0  0  0  0  0  0  0  0  0  0  0  0
  140.9222   78.2502  218.9429 H   0  0  0  0  0  0  0  0  0  0  0  0
  142.1808   79.2928  219.6184 H   0  0  0  0  0  0  0  0  0  0  0  0
  143.1292   78.0559  217.7227 H   0  0  0  0  0  0  0  0  0  0  0  0
  143.8411   77.3919  219.2415 H   0  0  0  0  0  0  0  0  0  0  0  0
  141.5782   76.2416  217.5890 H   0  0  0  0  0  0  0  0  0  0  0  0
  143.2714   75.5835  217.8571 H   0  0  0  0  0  0  0  0  0  0  0  0
  141.0751   74.7310  219.1094 H   0  0  0  0  0  0  0  0  0  0  0  0
  141.6439   72.6315  219.8268 H   0  0  0  0  0  0  0  0  0  0  0  0
  145.6564   71.7281  220.9587 H   0  0  0  0  0  0  0  0  0  0  0  0
  144.5519   75.7441  220.0185 H   0  0  0  0  0  0  0  0  0  0  0  0
  139.0852   69.5251  222.4079 H   0  0  0  0  0  0  0  0  0  0  0  0
  139.0886   68.1054  224.4612 H   0  0  0  0  0  0  0  0  0  0  0  0
  139.5893   67.9053  226.7846 H   0  0  0  0  0  0  0  0  0  0  0  0
  141.2685   71.2126  228.9590 H   0  0  0  0  0  0  0  0  0  0  0  0
  141.2375   72.5689  226.8988 H   0  0  0  0  0  0  0  0  0  0  0  0
  1  2  2  0
  2  3  1  0
  3  4  1  0
  4  5  1  0
  5  6  2  0
  5  7  1  0
  7  8  1  0
  8  9  1  0
  9 10  1  0
 10 11  1  0
 11 12  1  0
 12 13  1  0
 13 14  2  0
 14 15  1  0
 15 16  1  0
 15 17  2  0
 17 18  1  0
 18 19  1  0
 18 20  2  0
  2 21  1  0
 21 22  2  0
 22 23  1  0
 23 24  2  0
 24 25  1  0
 25 26  2  0
 26 27  1  0
 26 28  1  0
 28 29  2  0
 29 30  1  0
 30 31  2  0
 12  7  1  0
 20 13  1  0
 31 21  1  0
 30 24  1  0
  3 32  1  0
  4 33  1  0
  4 34  1  0
  8 35  1  0
  8 36  1  0
  9 37  1  0
  9 38  1  0
 10 39  1  0
 10 40  1  0
 11 41  1  0
 11 42  1  0
 12 43  1  6
 14 44  1  0
 17 45  1  0
 20 46  1  0
 22 47  1  0
 23 48  1  0
 25 49  1  0
 28 50  1  0
 29 51  1  0
M  END
>  <smiles>  (88) 
O=C(NCC(=O)N1CCCCC1c1cc(F)cc(F)c1)c1ccc2cc(F)ccc2n1

>  <score_type>  (88) 
oracle

>  <origin>  (88) 
autodockgpu

>  <m_score__min__energy>  (88) 
-8.6600000000000001

>  <m_primary>  (88) 
energy

>  <rmsd>  (88) 
2.1537341972625947

>  <m_score__min__rmsd>  (88) 
2.1537341972625947

>  <meeko>  (88) 
{"free_energy": -8.51, "intermolecular_energy": -10.0, "internal_energy": -2.13, "cluster_size": 20, "cluster_id": 3, "rank_in_cluster": 6}

>  <energy>  (88) 
-8.5

>  <cluster_rmsd>  (88) 
0.57

>  <cluster>  (88) 
3

$$$$

     RDKit          3D

 51 54  0  0  0  0  0  0  0  0999 V2000
  140.0520   71.6400  221.0760 O   0  0  0  0  0  0  0  0  0  0  0  0
  139.9020   72.2000  222.2060 C   0  0  0  0  0  0  0  0  0  0  0  0
  139.6900   73.6000  222.3390 N   0  0  0  0  0  0  0  0  0  0  0  0
  139.6290   74.4780  221.1990 C   0  0  0  0  0  0  0  0  0  0  0  0
  140.4830   75.6640  221.5310 C   0  0  0  0  0  0  0  0  0  0  0  0
  140.4140   76.2540  222.6410 O   0  0  0  0  0  0  0  0  0  0  0  0
  141.4270   76.1840  220.5850 N   0  0  0  0  0  0  0  0  0  0  0  0
  141.7990   77.5850  220.7800 C   0  0  0  0  0  0  0  0  0  0  0  0
  141.8990   78.2930  219.4290 C   0  0  0  0  0  0  0  0  0  0  0  0
  142.9240   77.5150  218.6370 C   0  0  0  0  0  0  0  0  0  0  0  0
  142.4170   76.1330  218.3360 C   0  0  0  0  0  0  0  0  0  0  0  0
  141.9500   75.3620  219.5370 C   0  0  1  0  0  0  0  0  0  0  0  0
  142.9780   74.3860  219.9830 C   0  0  0  0  0  0  0  0  0  0  0  0
  142.6770   73.0490  220.2050 C   0  0  0  0  0  0  0  0  0  0  0  0
  143.6200   72.1320  220.6190 C   0  0  0  0  0  0  0  0  0  0  0  0
  143.2440   70.8370  220.8150 F   0  0  0  0  0  0  0  0  0  0  0  0
  144.9090   72.5600  220.8210 C   0  0  0  0  0  0  0  0  0  0  0  0
  145.2630   73.8640  220.6170 C   0  0  0  0  0  0  0  0  0  0  0  0
  146.5400   74.2660  220.8210 F   0  0  0  0  0  0  0  0  0  0  0  0
  144.2860   74.7600  220.1990 C   0  0  0  0  0  0  0  0  0  0  0  0
  139.9510   71.3740  223.4110 C   0  0  0  0  0  0  0  0  0  0  0  0
  139.5320   70.0600  223.3840 C   0  0  0  0  0  0  0  0  0  0  0  0
  139.5600   69.2390  224.5020 C   0  0  0  0  0  0  0  0  0  0  0  0
  140.0430   69.8170  225.6790 C   0  0  0  0  0  0  0  0  0  0  0  0
  140.0840   69.0160  226.8230 C   0  0  0  0  0  0  0  0  0  0  0  0
  140.5530   69.5450  228.0100 C   0  0  0  0  0  0  0  0  0  0  0  0
  140.5750   68.7290  229.0950 F   0  0  0  0  0  0  0  0  0  0  0  0
  140.9770   70.8580  228.0540 C   0  0  0  0  0  0  0  0  0  0  0  0
  140.9270   71.6290  226.9100 C   0  0  0  0  0  0  0  0  0  0  0  0
  140.4600   71.1270  225.7030 C   0  0  0  0  0  0  0  0  0  0  0  0
  140.4130   71.8900  224.5860 N   0  0  0  0  0  0  0  0  0  0  0  0
  139.5740   73.9820  223.3250 H   0  0  0  0  0  0  0  0  0  0  0  0
  140.0174   73.9681  220.3051 H   0  0  0  0  0  0  0  0  0  0  0  0
  138.5935   74.7804  220.9840 H   0  0  0  0  0  0  0  0  0  0  0  0
  141.0353   78.0822  221.3960 H   0  0  0  0  0  0  0  0  0  0  0  0
  142.7750   77.6322  221.2852 H   0  0  0  0  0  0  0  0  0  0  0  0
  140.9262   78.2796  218.9156 H   0  0  0  0  0  0  0  0  0  0  0  0
  142.1882   79.3482  219.5430 H   0  0  0  0  0  0  0  0  0  0  0  0
  143.1264   78.0403  217.6920 H   0  0  0  0  0  0  0  0  0  0  0  0
  143.8465   77.4344  219.2307 H   0  0  0  0  0  0  0  0  0  0  0  0
  141.5729   76.2222  217.6363 H   0  0  0  0  0  0  0  0  0  0  0  0
  143.2671   75.5737  217.9183 H   0  0  0  0  0  0  0  0  0  0  0  0
  141.0779   74.7721  219.2185 H   0  0  0  0  0  0  0  0  0  0  0  0
  141.6439   72.7072  220.0440 H   0  0  0  0  0  0  0  0  0  0  0  0
  145.6710   71.8396  221.1533 H   0  0  0  0  0  0  0  0  0  0  0  0
  144.5688   75.8102  220.0340 H   0  0  0  0  0  0  0  0  0  0  0  0
  139.1598   69.6454  222.4355 H   0  0  0  0  0  0  0  0  0  0  0  0
  139.2214   68.1931  224.4641 H   0  0  0  0  0  0  0  0  0  0  0  0
  139.7449   67.9705  226.7789 H   0  0  0  0  0  0  0  0  0  0  0  0
  141.3523   71.2872  228.9947 H   0  0  0  0  0  0  0  0  0  0  0  0
  141.2679   72.6738  226.9563 H   0  0  0  0  0  0  0  0  0  0  0  0
  1  2  2  0
  2  3  1  0
  3  4  1  0
  4  5  1  0
  5  6  2  0
  5  7  1  0
  7  8  1  0
  8  9  1  0
  9 10  1  0
 10 11  1  0
 11 12  1  0
 12 13  1  0
 13 14  2  0
 14 15  1  0
 15 16  1  0
 15 17  2  0
 17 18  1  0
 18 19  1  0
 18 20  2  0
  2 21  1  0
 21 22  2  0
 22 23  1  0
 23 24  2  0
 24 25  1  0
 25 26  2  0
 26 27  1  0
 26 28  1  0
 28 29  2  0
 29 30  1  0
 30 31  2  0
 12  7  1  0
 20 13  1  0
 31 21  1  0
 30 24  1  0
  3 32  1  0
  4 33  1  0
  4 34  1  0
  8 35  1  0
  8 36  1  0
  9 37  1  0
  9 38  1  0
 10 39  1  0
 10 40  1  0
 11 41  1  0
 11 42  1  0
 12 43  1  6
 14 44  1  0
 17 45  1  0
 20 46  1  0
 22 47  1  0
 23 48  1  0
 25 49  1  0
 28 50  1  0
 29 51  1  0
M  END
>  <smiles>  (89) 
O=C(NCC(=O)N1CCCCC1c1cc(F)cc(F)c1)c1ccc2cc(F)ccc2n1

>  <score_type>  (89) 
oracle

>  <origin>  (89) 
autodockgpu

>  <m_score__min__energy>  (89) 
-8.6600000000000001

>  <m_primary>  (89) 
energy

>  <rmsd>  (89) 
2.1889096960125176

>  <m_score__min__rmsd>  (89) 
2.1889096960125176

>  <meeko>  (89) 
{"free_energy": -8.5, "intermolecular_energy": -10.0, "internal_energy": -2.14, "cluster_size": 20, "cluster_id": 3, "rank_in_cluster": 10}

>  <energy>  (89) 
-8.49

>  <cluster_rmsd>  (89) 
0.36

>  <cluster>  (89) 
3

$$$$

     RDKit          3D

 51 54  0  0  0  0  0  0  0  0999 V2000
  141.0630   71.4650  221.3940 O   0  0  0  0  0  0  0  0  0  0  0  0
  140.4760   72.0470  222.3580 C   0  0  0  0  0  0  0  0  0  0  0  0
  140.0650   73.4060  222.2890 N   0  0  0  0  0  0  0  0  0  0  0  0
  140.2860   74.2160  221.1180 C   0  0  0  0  0  0  0  0  0  0  0  0
  140.0600   75.6370  221.5370 C   0  0  0  0  0  0  0  0  0  0  0  0
  139.6660   75.9440  222.6920 O   0  0  0  0  0  0  0  0  0  0  0  0
  140.2840   76.7220  220.6260 N   0  0  0  0  0  0  0  0  0  0  0  0
  139.2480   76.9100  219.6110 C   0  0  0  0  0  0  0  0  0  0  0  0
  139.8880   77.2530  218.2660 C   0  0  0  0  0  0  0  0  0  0  0  0
  140.7080   78.4990  218.5120 C   0  0  0  0  0  0  0  0  0  0  0  0
  141.8490   78.2030  219.4430 C   0  0  0  0  0  0  0  0  0  0  0  0
  141.4510   77.5450  220.7330 C   0  0  1  0  0  0  0  0  0  0  0  0
  141.4040   78.5260  221.8470 C   0  0  0  0  0  0  0  0  0  0  0  0
  142.5490   79.1370  222.3390 C   0  0  0  0  0  0  0  0  0  0  0  0
  142.5200   80.0500  223.3730 C   0  0  0  0  0  0  0  0  0  0  0  0
  143.6890   80.6060  223.7990 F   0  0  0  0  0  0  0  0  0  0  0  0
  141.3100   80.3670  223.9370 C   0  0  0  0  0  0  0  0  0  0  0  0
  140.1490   79.7970  223.4930 C   0  0  0  0  0  0  0  0  0  0  0  0
  138.9650   80.1230  224.0630 F   0  0  0  0  0  0  0  0  0  0  0  0
  140.2170   78.8810  222.4490 C   0  0  0  0  0  0  0  0  0  0  0  0
  140.2170   71.2900  223.5810 C   0  0  0  0  0  0  0  0  0  0  0  0
  139.5860   70.0650  223.5330 C   0  0  0  0  0  0  0  0  0  0  0  0
  139.3180   69.3110  224.6670 C   0  0  0  0  0  0  0  0  0  0  0  0
  139.7270   69.8630  225.8840 C   0  0  0  0  0  0  0  0  0  0  0  0
  139.4730   69.1290  227.0450 C   0  0  0  0  0  0  0  0  0  0  0  0
  139.8590   69.6360  228.2710 C   0  0  0  0  0  0  0  0  0  0  0  0
  139.5910   68.8870  229.3720 F   0  0  0  0  0  0  0  0  0  0  0  0
  140.4930   70.8600  228.3370 C   0  0  0  0  0  0  0  0  0  0  0  0
  140.7330   71.5660  227.1750 C   0  0  0  0  0  0  0  0  0  0  0  0
  140.3560   71.0850  225.9290 C   0  0  0  0  0  0  0  0  0  0  0  0
  140.5960   71.7840  224.7950 N   0  0  0  0  0  0  0  0  0  0  0  0
  139.5810   73.8110  223.1450 H   0  0  0  0  0  0  0  0  0  0  0  0
  141.3160   74.0859  220.7544 H   0  0  0  0  0  0  0  0  0  0  0  0
  139.6079   73.9288  220.3009 H   0  0  0  0  0  0  0  0  0  0  0  0
  138.6643   75.9831  219.5105 H   0  0  0  0  0  0  0  0  0  0  0  0
  138.5887   77.7355  219.9174 H   0  0  0  0  0  0  0  0  0  0  0  0
  140.5334   76.4294  217.9267 H   0  0  0  0  0  0  0  0  0  0  0  0
  139.1311   77.4117  217.4837 H   0  0  0  0  0  0  0  0  0  0  0  0
  141.1076   78.8642  217.5544 H   0  0  0  0  0  0  0  0  0  0  0  0
  140.0640   79.2637  218.9707 H   0  0  0  0  0  0  0  0  0  0  0  0
  142.5529   77.5376  218.9217 H   0  0  0  0  0  0  0  0  0  0  0  0
  142.2905   79.1739  219.7124 H   0  0  0  0  0  0  0  0  0  0  0  0
  142.2467   76.8281  220.9841 H   0  0  0  0  0  0  0  0  0  0  0  0
  143.5188   78.8831  221.8862 H   0  0  0  0  0  0  0  0  0  0  0  0
  141.2732   81.0935  224.7621 H   0  0  0  0  0  0  0  0  0  0  0  0
  139.2848   78.4211  222.0892 H   0  0  0  0  0  0  0  0  0  0  0  0
  139.2818   69.6680  222.5533 H   0  0  0  0  0  0  0  0  0  0  0  0
  138.8129   68.3354  224.6111 H   0  0  0  0  0  0  0  0  0  0  0  0
  138.9688   68.1533  226.9836 H   0  0  0  0  0  0  0  0  0  0  0  0
  140.8050   71.2703  229.3087 H   0  0  0  0  0  0  0  0  0  0  0  0
  141.2391   72.5406  227.2389 H   0  0  0  0  0  0  0  0  0  0  0  0
  1  2  2  0
  2  3  1  0
  3  4  1  0
  4  5  1  0
  5  6  2  0
  5  7  1  0
  7  8  1  0
  8  9  1  0
  9 10  1  0
 10 11  1  0
 11 12  1  0
 12 13  1  0
 13 14  2  0
 14 15  1  0
 15 16  1  0
 15 17  2  0
 17 18  1  0
 18 19  1  0
 18 20  2  0
  2 21  1  0
 21 22  2  0
 22 23  1  0
 23 24  2  0
 24 25  1  0
 25 26  2  0
 26 27  1  0
 26 28  1  0
 28 29  2  0
 29 30  1  0
 30 31  2  0
 12  7  1  0
 20 13  1  0
 31 21  1  0
 30 24  1  0
  3 32  1  0
  4 33  1  0
  4 34  1  0
  8 35  1  0
  8 36  1  0
  9 37  1  0
  9 38  1  0
 10 39  1  0
 10 40  1  0
 11 41  1  0
 11 42  1  0
 12 43  1  1
 14 44  1  0
 17 45  1  0
 20 46  1  0
 22 47  1  0
 23 48  1  0
 25 49  1  0
 28 50  1  0
 29 51  1  0
M  END
>  <smiles>  (90) 
O=C(NCC(=O)N1CCCCC1c1cc(F)cc(F)c1)c1ccc2cc(F)ccc2n1

>  <score_type>  (90) 
oracle

>  <origin>  (90) 
autodockgpu

>  <m_score__min__energy>  (90) 
-8.6600000000000001

>  <m_primary>  (90) 
energy

>  <rmsd>  (90) 
1.7384377160149982

>  <m_score__min__rmsd>  (90) 
1.7384377160149982

>  <meeko>  (90) 
{"free_energy": -8.58, "intermolecular_energy": -10.07, "internal_energy": -1.92, "cluster_size": 16, "cluster_id": 1, "rank_in_cluster": 6}

>  <energy>  (90) 
-8.49

>  <cluster_rmsd>  (90) 
0.59

>  <cluster>  (90) 
3

$$$$

     RDKit          3D

 51 54  0  0  0  0  0  0  0  0999 V2000
  137.0570   75.6810  221.9460 O   0  0  0  0  0  0  0  0  0  0  0  0
  138.2870   75.7590  222.2540 C   0  0  0  0  0  0  0  0  0  0  0  0
  139.1360   74.6190  222.2870 N   0  0  0  0  0  0  0  0  0  0  0  0
  138.6570   73.2970  221.9720 C   0  0  0  0  0  0  0  0  0  0  0  0
  139.7020   72.3400  222.4610 C   0  0  0  0  0  0  0  0  0  0  0  0
  140.8730   72.7080  222.7410 O   0  0  0  0  0  0  0  0  0  0  0  0
  139.4090   70.9470  222.6320 N   0  0  0  0  0  0  0  0  0  0  0  0
  139.8790   70.0720  221.5590 C   0  0  0  0  0  0  0  0  0  0  0  0
  138.8270   69.0070  221.2520 C   0  0  0  0  0  0  0  0  0  0  0  0
  138.5990   68.2740  222.5540 C   0  0  0  0  0  0  0  0  0  0  0  0
  137.9710   69.1860  223.5680 C   0  0  0  0  0  0  0  0  0  0  0  0
  138.7040   70.4780  223.7870 C   0  0  1  0  0  0  0  0  0  0  0  0
  139.5270   70.4290  225.0240 C   0  0  0  0  0  0  0  0  0  0  0  0
  139.5590   69.3090  225.8420 C   0  0  0  0  0  0  0  0  0  0  0  0
  140.3180   69.2490  226.9930 C   0  0  0  0  0  0  0  0  0  0  0  0
  140.2960   68.1110  227.7430 F   0  0  0  0  0  0  0  0  0  0  0  0
  141.0710   70.3420  227.3410 C   0  0  0  0  0  0  0  0  0  0  0  0
  141.0790   71.4720  226.5730 C   0  0  0  0  0  0  0  0  0  0  0  0
  141.8290   72.5400  226.9340 F   0  0  0  0  0  0  0  0  0  0  0  0
  140.3020   71.4960  225.4200 C   0  0  0  0  0  0  0  0  0  0  0  0
  138.8460   77.0680  222.5860 C   0  0  0  0  0  0  0  0  0  0  0  0
  138.0240   78.1580  222.7820 C   0  0  0  0  0  0  0  0  0  0  0  0
  138.5100   79.4190  223.0970 C   0  0  0  0  0  0  0  0  0  0  0  0
  139.8980   79.5340  223.2110 C   0  0  0  0  0  0  0  0  0  0  0  0
  140.4190   80.7910  223.5280 C   0  0  0  0  0  0  0  0  0  0  0  0
  141.7860   80.9510  223.6500 C   0  0  0  0  0  0  0  0  0  0  0  0
  142.2460   82.1910  223.9600 F   0  0  0  0  0  0  0  0  0  0  0  0
  142.6230   79.8700  223.4580 C   0  0  0  0  0  0  0  0  0  0  0  0
  142.0830   78.6390  223.1450 C   0  0  0  0  0  0  0  0  0  0  0  0
  140.7150   78.4450  223.0150 C   0  0  0  0  0  0  0  0  0  0  0  0
  140.1950   77.2340  222.7070 N   0  0  0  0  0  0  0  0  0  0  0  0
  140.1520   74.7770  222.5550 H   0  0  0  0  0  0  0  0  0  0  0  0
  137.7002   73.1079  222.4807 H   0  0  0  0  0  0  0  0  0  0  0  0
  138.4857   73.1821  220.8915 H   0  0  0  0  0  0  0  0  0  0  0  0
  140.0645   70.6714  220.6555 H   0  0  0  0  0  0  0  0  0  0  0  0
  140.8089   69.5785  221.8778 H   0  0  0  0  0  0  0  0  0  0  0  0
  137.8940   69.4769  220.9074 H   0  0  0  0  0  0  0  0  0  0  0  0
  139.1579   68.3261  220.4540 H   0  0  0  0  0  0  0  0  0  0  0  0
  137.9322   67.4176  222.3753 H   0  0  0  0  0  0  0  0  0  0  0  0
  139.5682   67.9258  222.9407 H   0  0  0  0  0  0  0  0  0  0  0  0
  136.9512   69.4232  223.2307 H   0  0  0  0  0  0  0  0  0  0  0  0
  137.9947   68.6482  224.5273 H   0  0  0  0  0  0  0  0  0  0  0  0
  137.9406   71.2527  223.9516 H   0  0  0  0  0  0  0  0  0  0  0  0
  138.9550   68.4334  225.5618 H   0  0  0  0  0  0  0  0  0  0  0  0
  141.6802   70.3078  228.2563 H   0  0  0  0  0  0  0  0  0  0  0  0
  140.3067   72.4041  224.7992 H   0  0  0  0  0  0  0  0  0  0  0  0
  136.9368   78.0219  222.6845 H   0  0  0  0  0  0  0  0  0  0  0  0
  137.8409   80.2789  223.2483 H   0  0  0  0  0  0  0  0  0  0  0  0
  139.7455   81.6474  223.6794 H   0  0  0  0  0  0  0  0  0  0  0  0
  143.7124   79.9889  223.5538 H   0  0  0  0  0  0  0  0  0  0  0  0
  142.7586   77.7842  222.9937 H   0  0  0  0  0  0  0  0  0  0  0  0
  1  2  2  0
  2  3  1  0
  3  4  1  0
  4  5  1  0
  5  6  2  0
  5  7  1  0
  7  8  1  0
  8  9  1  0
  9 10  1  0
 10 11  1  0
 11 12  1  0
 12 13  1  0
 13 14  2  0
 14 15  1  0
 15 16  1  0
 15 17  2  0
 17 18  1  0
 18 19  1  0
 18 20  2  0
  2 21  1  0
 21 22  2  0
 22 23  1  0
 23 24  2  0
 24 25  1  0
 25 26  2  0
 26 27  1  0
 26 28  1  0
 28 29  2  0
 29 30  1  0
 30 31  2  0
 12  7  1  0
 20 13  1  0
 31 21  1  0
 30 24  1  0
  3 32  1  0
  4 33  1  0
  4 34  1  0
  8 35  1  0
  8 36  1  0
  9 37  1  0
  9 38  1  0
 10 39  1  0
 10 40  1  0
 11 41  1  0
 11 42  1  0
 12 43  1  1
 14 44  1  0
 17 45  1  0
 20 46  1  0
 22 47  1  0
 23 48  1  0
 25 49  1  0
 28 50  1  0
 29 51  1  0
M  END
>  <smiles>  (91) 
O=C(NCC(=O)N1CCCCC1c1cc(F)cc(F)c1)c1ccc2cc(F)ccc2n1

>  <score_type>  (91) 
oracle

>  <origin>  (91) 
autodockgpu

>  <m_score__min__energy>  (91) 
-8.6600000000000001

>  <m_primary>  (91) 
energy

>  <rmsd>  (91) 
8.47557159951152

>  <m_score__min__rmsd>  (91) 
8.47557159951152

>  <meeko>  (91) 
{"free_energy": -8.13, "intermolecular_energy": -9.63, "internal_energy": -2.11, "cluster_size": 9, "cluster_id": 2, "rank_in_cluster": 4}

>  <energy>  (91) 
-8.49

>  <cluster_rmsd>  (91) 
0.6

>  <cluster>  (91) 
3

$$$$

     RDKit          3D

 51 54  0  0  0  0  0  0  0  0999 V2000
  141.2380   71.9780  221.3270 O   0  0  0  0  0  0  0  0  0  0  0  0
  140.3950   72.3370  222.2070 C   0  0  0  0  0  0  0  0  0  0  0  0
  139.6190   73.5220  222.0780 N   0  0  0  0  0  0  0  0  0  0  0  0
  139.7360   74.3950  220.9380 C   0  0  0  0  0  0  0  0  0  0  0  0
  140.9290   75.2670  221.1920 C   0  0  0  0  0  0  0  0  0  0  0  0
  141.2610   75.6320  222.3510 O   0  0  0  0  0  0  0  0  0  0  0  0
  141.7520   75.7290  220.1130 N   0  0  0  0  0  0  0  0  0  0  0  0
  142.0600   77.1580  220.1290 C   0  0  0  0  0  0  0  0  0  0  0  0
  141.9970   77.7240  218.7110 C   0  0  0  0  0  0  0  0  0  0  0  0
  142.9890   76.9160  217.9070 C   0  0  0  0  0  0  0  0  0  0  0  0
  142.5370   75.4870  217.7960 C   0  0  0  0  0  0  0  0  0  0  0  0
  142.2250   74.8260  219.1080 C   0  0  1  0  0  0  0  0  0  0  0  0
  143.3430   73.9520  219.5500 C   0  0  0  0  0  0  0  0  0  0  0  0
  143.4590   72.6350  219.1300 C   0  0  0  0  0  0  0  0  0  0  0  0
  144.4910   71.8130  219.5320 C   0  0  0  0  0  0  0  0  0  0  0  0
  144.5330   70.5300  219.0750 F   0  0  0  0  0  0  0  0  0  0  0  0
  145.4410   72.3200  220.3830 C   0  0  0  0  0  0  0  0  0  0  0  0
  145.3790   73.6100  220.8290 C   0  0  0  0  0  0  0  0  0  0  0  0
  146.3270   74.0910  221.6670 F   0  0  0  0  0  0  0  0  0  0  0  0
  144.3240   74.4090  220.4020 C   0  0  0  0  0  0  0  0  0  0  0  0
  140.2190   71.5020  223.3930 C   0  0  0  0  0  0  0  0  0  0  0  0
  139.5620   70.2920  223.3130 C   0  0  0  0  0  0  0  0  0  0  0  0
  139.3710   69.4660  224.4120 C   0  0  0  0  0  0  0  0  0  0  0  0
  139.8860   69.9270  225.6260 C   0  0  0  0  0  0  0  0  0  0  0  0
  139.7110   69.1180  226.7520 C   0  0  0  0  0  0  0  0  0  0  0  0
  140.2040   69.5340  227.9740 C   0  0  0  0  0  0  0  0  0  0  0  0
  140.0090   68.7150  229.0400 F   0  0  0  0  0  0  0  0  0  0  0  0
  140.8650   70.7420  228.0710 C   0  0  0  0  0  0  0  0  0  0  0  0
  141.0250   71.5230  226.9440 C   0  0  0  0  0  0  0  0  0  0  0  0
  140.5410   71.1340  225.7030 C   0  0  0  0  0  0  0  0  0  0  0  0
  140.7030   71.9060  224.6030 N   0  0  0  0  0  0  0  0  0  0  0  0
  138.9370   73.7440  222.8630 H   0  0  0  0  0  0  0  0  0  0  0  0
  139.8842   73.8055  220.0212 H   0  0  0  0  0  0  0  0  0  0  0  0
  138.8250   74.9962  220.8015 H   0  0  0  0  0  0  0  0  0  0  0  0
  141.3283   77.6809  220.7624 H   0  0  0  0  0  0  0  0  0  0  0  0
  143.0738   77.3036  220.5303 H   0  0  0  0  0  0  0  0  0  0  0  0
  140.9842   77.6108  218.2969 H   0  0  0  0  0  0  0  0  0  0  0  0
  142.2346   78.7978  218.6903 H   0  0  0  0  0  0  0  0  0  0  0  0
  143.0751   77.3478  216.8989 H   0  0  0  0  0  0  0  0  0  0  0  0
  143.9642   76.9422  218.4153 H   0  0  0  0  0  0  0  0  0  0  0  0
  141.6296   75.4615  217.1747 H   0  0  0  0  0  0  0  0  0  0  0  0
  143.3765   74.9278  217.3572 H   0  0  0  0  0  0  0  0  0  0  0  0
  141.3630   74.1647  218.9356 H   0  0  0  0  0  0  0  0  0  0  0  0
  142.6967   72.2296  218.4484 H   0  0  0  0  0  0  0  0  0  0  0  0
  146.2688   71.6749  220.7125 H   0  0  0  0  0  0  0  0  0  0  0  0
  144.2708   75.4481  220.7591 H   0  0  0  0  0  0  0  0  0  0  0  0
  139.1728   69.9677  222.3366 H   0  0  0  0  0  0  0  0  0  0  0  0
  138.8443   68.5036  224.3317 H   0  0  0  0  0  0  0  0  0  0  0  0
  139.1842   68.1562  226.6661 H   0  0  0  0  0  0  0  0  0  0  0  0
  141.2616   71.0800  229.0398 H   0  0  0  0  0  0  0  0  0  0  0  0
  141.5528   72.4840  227.0325 H   0  0  0  0  0  0  0  0  0  0  0  0
  1  2  2  0
  2  3  1  0
  3  4  1  0
  4  5  1  0
  5  6  2  0
  5  7  1  0
  7  8  1  0
  8  9  1  0
  9 10  1  0
 10 11  1  0
 11 12  1  0
 12 13  1  0
 13 14  2  0
 14 15  1  0
 15 16  1  0
 15 17  2  0
 17 18  1  0
 18 19  1  0
 18 20  2  0
  2 21  1  0
 21 22  2  0
 22 23  1  0
 23 24  2  0
 24 25  1  0
 25 26  2  0
 26 27  1  0
 26 28  1  0
 28 29  2  0
 29 30  1  0
 30 31  2  0
 12  7  1  0
 20 13  1  0
 31 21  1  0
 30 24  1  0
  3 32  1  0
  4 33  1  0
  4 34  1  0
  8 35  1  0
  8 36  1  0
  9 37  1  0
  9 38  1  0
 10 39  1  0
 10 40  1  0
 11 41  1  0
 11 42  1  0
 12 43  1  6
 14 44  1  0
 17 45  1  0
 20 46  1  0
 22 47  1  0
 23 48  1  0
 25 49  1  0
 28 50  1  0
 29 51  1  0
M  END
>  <smiles>  (92) 
O=C(NCC(=O)N1CCCCC1c1cc(F)cc(F)c1)c1ccc2cc(F)ccc2n1

>  <score_type>  (92) 
oracle

>  <origin>  (92) 
autodockgpu

>  <m_score__min__energy>  (92) 
-8.6600000000000001

>  <m_primary>  (92) 
energy

>  <rmsd>  (92) 
2.2224338249506297

>  <m_score__min__rmsd>  (92) 
2.2224338249506297

>  <meeko>  (92) 
{"free_energy": -8.49, "intermolecular_energy": -9.98, "internal_energy": -1.78, "cluster_size": 20, "cluster_id": 3, "rank_in_cluster": 14}

>  <energy>  (92) 
-8.48

>  <cluster_rmsd>  (92) 
0.62

>  <cluster>  (92) 
3

$$$$

     RDKit          3D

 51 54  0  0  0  0  0  0  0  0999 V2000
  136.9800   75.6780  222.1370 O   0  0  0  0  0  0  0  0  0  0  0  0
  138.2350   75.7760  222.3060 C   0  0  0  0  0  0  0  0  0  0  0  0
  139.1050   74.6550  222.2160 N   0  0  0  0  0  0  0  0  0  0  0  0
  138.6200   73.3300  221.9250 C   0  0  0  0  0  0  0  0  0  0  0  0
  139.6440   72.3770  222.4610 C   0  0  0  0  0  0  0  0  0  0  0  0
  140.8000   72.7480  222.7930 O   0  0  0  0  0  0  0  0  0  0  0  0
  139.3480   70.9830  222.6190 N   0  0  0  0  0  0  0  0  0  0  0  0
  139.7990   70.1200  221.5280 C   0  0  0  0  0  0  0  0  0  0  0  0
  138.7390   69.0620  221.2230 C   0  0  0  0  0  0  0  0  0  0  0  0
  138.5270   68.3140  222.5190 C   0  0  0  0  0  0  0  0  0  0  0  0
  137.9170   69.2160  223.5530 C   0  0  0  0  0  0  0  0  0  0  0  0
  138.6580   70.5030  223.7780 C   0  0  1  0  0  0  0  0  0  0  0  0
  139.4970   70.4350  225.0020 C   0  0  0  0  0  0  0  0  0  0  0  0
  140.2650   71.5090  225.4290 C   0  0  0  0  0  0  0  0  0  0  0  0
  141.0490   71.4600  226.5630 C   0  0  0  0  0  0  0  0  0  0  0  0
  141.7750   72.5580  226.9150 F   0  0  0  0  0  0  0  0  0  0  0  0
  141.0680   70.3020  227.2990 C   0  0  0  0  0  0  0  0  0  0  0  0
  140.3300   69.2130  226.9280 C   0  0  0  0  0  0  0  0  0  0  0  0
  140.3630   68.0800  227.6690 F   0  0  0  0  0  0  0  0  0  0  0  0
  139.5520   69.2990  225.7790 C   0  0  0  0  0  0  0  0  0  0  0  0
  138.8020   77.0900  222.6050 C   0  0  0  0  0  0  0  0  0  0  0  0
  137.9870   78.1900  222.7710 C   0  0  0  0  0  0  0  0  0  0  0  0
  138.4800   79.4550  223.0540 C   0  0  0  0  0  0  0  0  0  0  0  0
  139.8680   79.5650  223.1670 C   0  0  0  0  0  0  0  0  0  0  0  0
  140.3970   80.8260  223.4530 C   0  0  0  0  0  0  0  0  0  0  0  0
  141.7640   80.9810  223.5730 C   0  0  0  0  0  0  0  0  0  0  0  0
  142.2320   82.2260  223.8510 F   0  0  0  0  0  0  0  0  0  0  0  0
  142.5940   79.8900  223.4110 C   0  0  0  0  0  0  0  0  0  0  0  0
  142.0480   78.6550  223.1290 C   0  0  0  0  0  0  0  0  0  0  0  0
  140.6790   78.4660  223.0010 C   0  0  0  0  0  0  0  0  0  0  0  0
  140.1510   77.2510  222.7250 N   0  0  0  0  0  0  0  0  0  0  0  0
  140.1420   74.8310  222.3720 H   0  0  0  0  0  0  0  0  0  0  0  0
  137.6506   73.1632  222.4174 H   0  0  0  0  0  0  0  0  0  0  0  0
  138.4709   73.1886  220.8444 H   0  0  0  0  0  0  0  0  0  0  0  0
  139.9730   70.7303  220.6295 H   0  0  0  0  0  0  0  0  0  0  0  0
  140.7318   69.6195  221.8268 H   0  0  0  0  0  0  0  0  0  0  0  0
  137.8028   69.5390  220.8974 H   0  0  0  0  0  0  0  0  0  0  0  0
  139.0563   68.3898  220.4122 H   0  0  0  0  0  0  0  0  0  0  0  0
  137.8544   67.4623  222.3395 H   0  0  0  0  0  0  0  0  0  0  0  0
  139.5003   67.9576  222.8874 H   0  0  0  0  0  0  0  0  0  0  0  0
  136.8935   69.4612  223.2331 H   0  0  0  0  0  0  0  0  0  0  0  0
  137.9525   68.6662  224.5051 H   0  0  0  0  0  0  0  0  0  0  0  0
  137.9009   71.2792  223.9632 H   0  0  0  0  0  0  0  0  0  0  0  0
  140.2479   72.4373  224.8392 H   0  0  0  0  0  0  0  0  0  0  0  0
  141.6893   70.2491  228.2052 H   0  0  0  0  0  0  0  0  0  0  0  0
  138.9563   68.4245  225.4783 H   0  0  0  0  0  0  0  0  0  0  0  0
  136.8991   78.0584  222.6748 H   0  0  0  0  0  0  0  0  0  0  0  0
  137.8158   80.3224  223.1822 H   0  0  0  0  0  0  0  0  0  0  0  0
  139.7287   81.6902  223.5818 H   0  0  0  0  0  0  0  0  0  0  0  0
  143.6839   80.0047  223.5062 H   0  0  0  0  0  0  0  0  0  0  0  0
  142.7189   77.7926  223.0015 H   0  0  0  0  0  0  0  0  0  0  0  0
  1  2  2  0
  2  3  1  0
  3  4  1  0
  4  5  1  0
  5  6  2  0
  5  7  1  0
  7  8  1  0
  8  9  1  0
  9 10  1  0
 10 11  1  0
 11 12  1  0
 12 13  1  0
 13 14  2  0
 14 15  1  0
 15 16  1  0
 15 17  2  0
 17 18  1  0
 18 19  1  0
 18 20  2  0
  2 21  1  0
 21 22  2  0
 22 23  1  0
 23 24  2  0
 24 25  1  0
 25 26  2  0
 26 27  1  0
 26 28  1  0
 28 29  2  0
 29 30  1  0
 30 31  2  0
 12  7  1  0
 20 13  1  0
 31 21  1  0
 30 24  1  0
  3 32  1  0
  4 33  1  0
  4 34  1  0
  8 35  1  0
  8 36  1  0
  9 37  1  0
  9 38  1  0
 10 39  1  0
 10 40  1  0
 11 41  1  0
 11 42  1  0
 12 43  1  1
 14 44  1  0
 17 45  1  0
 20 46  1  0
 22 47  1  0
 23 48  1  0
 25 49  1  0
 28 50  1  0
 29 51  1  0
M  END
>  <smiles>  (93) 
O=C(NCC(=O)N1CCCCC1c1cc(F)cc(F)c1)c1ccc2cc(F)ccc2n1

>  <score_type>  (93) 
oracle

>  <origin>  (93) 
autodockgpu

>  <m_score__min__energy>  (93) 
-8.6600000000000001

>  <m_primary>  (93) 
energy

>  <rmsd>  (93) 
8.48842841148201

>  <m_score__min__rmsd>  (93) 
8.48842841148201

>  <meeko>  (93) 
{"free_energy": -8.11, "intermolecular_energy": -9.61, "internal_energy": -2.09, "cluster_size": 9, "cluster_id": 2, "rank_in_cluster": 5}

>  <energy>  (93) 
-8.47

>  <cluster_rmsd>  (93) 
0.73

>  <cluster>  (93) 
3

$$$$

     RDKit          3D

 51 54  0  0  0  0  0  0  0  0999 V2000
  138.0370   70.8770  221.8360 O   0  0  0  0  0  0  0  0  0  0  0  0
  138.7700   71.3730  222.7470 C   0  0  0  0  0  0  0  0  0  0  0  0
  139.2550   72.7080  222.6910 N   0  0  0  0  0  0  0  0  0  0  0  0
  138.9460   73.5910  221.5950 C   0  0  0  0  0  0  0  0  0  0  0  0
  140.0460   74.6080  221.5470 C   0  0  0  0  0  0  0  0  0  0  0  0
  141.0420   74.5590  222.3160 O   0  0  0  0  0  0  0  0  0  0  0  0
  140.0100   75.6940  220.6120 N   0  0  0  0  0  0  0  0  0  0  0  0
  138.9870   75.5900  219.5720 C   0  0  0  0  0  0  0  0  0  0  0  0
  139.5540   76.0560  218.2310 C   0  0  0  0  0  0  0  0  0  0  0  0
  140.0220   77.4750  218.4590 C   0  0  0  0  0  0  0  0  0  0  0  0
  141.1760   77.5000  219.4200 C   0  0  0  0  0  0  0  0  0  0  0  0
  140.9260   76.7890  220.7190 C   0  0  1  0  0  0  0  0  0  0  0  0
  140.6010   77.7500  221.8050 C   0  0  0  0  0  0  0  0  0  0  0  0
  139.2930   78.0380  222.1670 C   0  0  0  0  0  0  0  0  0  0  0  0
  138.9770   78.9270  223.1730 C   0  0  0  0  0  0  0  0  0  0  0  0
  137.6670   79.1560  223.4690 F   0  0  0  0  0  0  0  0  0  0  0  0
  139.9990   79.5520  223.8430 C   0  0  0  0  0  0  0  0  0  0  0  0
  141.3070   79.3070  223.5300 C   0  0  0  0  0  0  0  0  0  0  0  0
  142.3010   79.9340  224.2030 F   0  0  0  0  0  0  0  0  0  0  0  0
  141.5870   78.4050  222.5100 C   0  0  0  0  0  0  0  0  0  0  0  0
  139.1260   70.5370  223.8930 C   0  0  0  0  0  0  0  0  0  0  0  0
  138.8370   69.1890  223.9010 C   0  0  0  0  0  0  0  0  0  0  0  0
  139.1550   68.3580  224.9660 C   0  0  0  0  0  0  0  0  0  0  0  0
  139.7950   68.9640  226.0490 C   0  0  0  0  0  0  0  0  0  0  0  0
  140.1300   68.1540  227.1380 C   0  0  0  0  0  0  0  0  0  0  0  0
  140.7630   68.7100  228.2320 C   0  0  0  0  0  0  0  0  0  0  0  0
  141.0690   67.8840  229.2660 F   0  0  0  0  0  0  0  0  0  0  0  0
  141.0610   70.0570  228.2400 C   0  0  0  0  0  0  0  0  0  0  0  0
  140.7200   70.8360  227.1530 C   0  0  0  0  0  0  0  0  0  0  0  0
  140.0820   70.3090  226.0390 C   0  0  0  0  0  0  0  0  0  0  0  0
  139.7520   71.0800  224.9770 N   0  0  0  0  0  0  0  0  0  0  0  0
  139.8620   73.0390  223.4990 H   0  0  0  0  0  0  0  0  0  0  0  0
  138.9080   73.0271  220.6513 H   0  0  0  0  0  0  0  0  0  0  0  0
  137.9658   74.0705  221.7337 H   0  0  0  0  0  0  0  0  0  0  0  0
  138.6610   74.5430  219.4854 H   0  0  0  0  0  0  0  0  0  0  0  0
  138.1316   76.2264  219.8426 H   0  0  0  0  0  0  0  0  0  0  0  0
  140.3970   75.4176  217.9278 H   0  0  0  0  0  0  0  0  0  0  0  0
  138.8029   75.9988  217.4294 H   0  0  0  0  0  0  0  0  0  0  0  0
  140.3400   77.9098  217.5000 H   0  0  0  0  0  0  0  0  0  0  0  0
  139.1925   78.0594  218.8837 H   0  0  0  0  0  0  0  0  0  0  0  0
  142.0398   77.0262  218.9307 H   0  0  0  0  0  0  0  0  0  0  0  0
  141.3476   78.5569  219.6722 H   0  0  0  0  0  0  0  0  0  0  0  0
  141.8711   76.3039  221.0043 H   0  0  0  0  0  0  0  0  0  0  0  0
  138.4744   77.5368  221.6297 H   0  0  0  0  0  0  0  0  0  0  0  0
  139.7610   80.2637  224.6473 H   0  0  0  0  0  0  0  0  0  0  0  0
  142.6385   78.2061  222.2554 H   0  0  0  0  0  0  0  0  0  0  0  0
  138.3328   68.7535  223.0257 H   0  0  0  0  0  0  0  0  0  0  0  0
  138.9167   67.2842  224.9575 H   0  0  0  0  0  0  0  0  0  0  0  0
  139.8908   67.0804  227.1235 H   0  0  0  0  0  0  0  0  0  0  0  0
  141.5670   70.5071  229.1069 H   0  0  0  0  0  0  0  0  0  0  0  0
  140.9617   71.9090  227.1702 H   0  0  0  0  0  0  0  0  0  0  0  0
  1  2  2  0
  2  3  1  0
  3  4  1  0
  4  5  1  0
  5  6  2  0
  5  7  1  0
  7  8  1  0
  8  9  1  0
  9 10  1  0
 10 11  1  0
 11 12  1  0
 12 13  1  0
 13 14  2  0
 14 15  1  0
 15 16  1  0
 15 17  2  0
 17 18  1  0
 18 19  1  0
 18 20  2  0
  2 21  1  0
 21 22  2  0
 22 23  1  0
 23 24  2  0
 24 25  1  0
 25 26  2  0
 26 27  1  0
 26 28  1  0
 28 29  2  0
 29 30  1  0
 30 31  2  0
 12  7  1  0
 20 13  1  0
 31 21  1  0
 30 24  1  0
  3 32  1  0
  4 33  1  0
  4 34  1  0
  8 35  1  0
  8 36  1  0
  9 37  1  0
  9 38  1  0
 10 39  1  0
 10 40  1  0
 11 41  1  0
 11 42  1  0
 12 43  1  1
 14 44  1  0
 17 45  1  0
 20 46  1  0
 22 47  1  0
 23 48  1  0
 25 49  1  0
 28 50  1  0
 29 51  1  0
M  END
>  <smiles>  (94) 
O=C(NCC(=O)N1CCCCC1c1cc(F)cc(F)c1)c1ccc2cc(F)ccc2n1

>  <score_type>  (94) 
oracle

>  <origin>  (94) 
autodockgpu

>  <m_score__min__energy>  (94) 
-8.6600000000000001

>  <m_primary>  (94) 
energy

>  <rmsd>  (94) 
1.1459899583975748

>  <m_score__min__rmsd>  (94) 
1.1459899583975748

>  <meeko>  (94) 
{"free_energy": -7.74, "intermolecular_energy": -9.23, "internal_energy": -2.11, "cluster_size": 16, "cluster_id": 1, "rank_in_cluster": 16}

>  <energy>  (94) 
-8.44

>  <cluster_rmsd>  (94) 
0.51

>  <cluster>  (94) 
3

$$$$

     RDKit          3D

 51 54  0  0  0  0  0  0  0  0999 V2000
  140.0490   71.6020  221.0530 O   0  0  0  0  0  0  0  0  0  0  0  0
  139.9000   72.1710  222.1780 C   0  0  0  0  0  0  0  0  0  0  0  0
  139.6950   73.5730  222.2990 N   0  0  0  0  0  0  0  0  0  0  0  0
  139.6400   74.4420  221.1520 C   0  0  0  0  0  0  0  0  0  0  0  0
  140.4810   75.6370  221.4850 C   0  0  0  0  0  0  0  0  0  0  0  0
  140.3960   76.2330  222.5910 O   0  0  0  0  0  0  0  0  0  0  0  0
  141.4300   76.1610  220.5460 N   0  0  0  0  0  0  0  0  0  0  0  0
  141.8270   77.5510  220.7660 C   0  0  0  0  0  0  0  0  0  0  0  0
  141.9330   78.2840  219.4300 C   0  0  0  0  0  0  0  0  0  0  0  0
  142.9410   77.5040  218.6170 C   0  0  0  0  0  0  0  0  0  0  0  0
  142.4090   76.1380  218.2910 C   0  0  0  0  0  0  0  0  0  0  0  0
  141.9340   75.3500  219.4780 C   0  0  1  0  0  0  0  0  0  0  0  0
  142.9470   74.3480  219.9010 C   0  0  0  0  0  0  0  0  0  0  0  0
  142.6370   73.0030  220.0400 C   0  0  0  0  0  0  0  0  0  0  0  0
  143.5660   72.0610  220.4310 C   0  0  0  0  0  0  0  0  0  0  0  0
  143.1830   70.7590  220.5450 F   0  0  0  0  0  0  0  0  0  0  0  0
  144.8500   72.4730  220.6920 C   0  0  0  0  0  0  0  0  0  0  0  0
  145.2120   73.7850  220.5700 C   0  0  0  0  0  0  0  0  0  0  0  0
  146.4830   74.1710  220.8320 F   0  0  0  0  0  0  0  0  0  0  0  0
  144.2480   74.7060  220.1740 C   0  0  0  0  0  0  0  0  0  0  0  0
  139.9430   71.3540  223.3890 C   0  0  0  0  0  0  0  0  0  0  0  0
  139.5060   70.0470  223.3750 C   0  0  0  0  0  0  0  0  0  0  0  0
  139.5270   69.2340  224.5000 C   0  0  0  0  0  0  0  0  0  0  0  0
  140.0230   69.8150  225.6700 C   0  0  0  0  0  0  0  0  0  0  0  0
  140.0580   69.0230  226.8210 C   0  0  0  0  0  0  0  0  0  0  0  0
  140.5400   69.5560  228.0010 C   0  0  0  0  0  0  0  0  0  0  0  0
  140.5550   68.7480  229.0930 F   0  0  0  0  0  0  0  0  0  0  0  0
  140.9820   70.8630  228.0320 C   0  0  0  0  0  0  0  0  0  0  0  0
  140.9370   71.6240  226.8820 C   0  0  0  0  0  0  0  0  0  0  0  0
  140.4580   71.1190  225.6810 C   0  0  0  0  0  0  0  0  0  0  0  0
  140.4180   71.8740  224.5580 N   0  0  0  0  0  0  0  0  0  0  0  0
  139.5790   73.9640  223.2820 H   0  0  0  0  0  0  0  0  0  0  0  0
  140.0424   73.9286  220.2663 H   0  0  0  0  0  0  0  0  0  0  0  0
  138.6047   74.7346  220.9230 H   0  0  0  0  0  0  0  0  0  0  0  0
  141.0749   78.0490  221.3956 H   0  0  0  0  0  0  0  0  0  0  0  0
  142.8063   77.5710  221.2665 H   0  0  0  0  0  0  0  0  0  0  0  0
  140.9578   78.2980  218.9213 H   0  0  0  0  0  0  0  0  0  0  0  0
  142.2411   79.3314  219.5638 H   0  0  0  0  0  0  0  0  0  0  0  0
  143.1481   78.0447  217.6817 H   0  0  0  0  0  0  0  0  0  0  0  0
  143.8647   77.3955  219.2044 H   0  0  0  0  0  0  0  0  0  0  0  0
  141.5634   76.2561  217.5975 H   0  0  0  0  0  0  0  0  0  0  0  0
  143.2478   75.5730  217.8583 H   0  0  0  0  0  0  0  0  0  0  0  0
  141.0515   74.7808  219.1505 H   0  0  0  0  0  0  0  0  0  0  0  0
  141.6085   72.6742  219.8299 H   0  0  0  0  0  0  0  0  0  0  0  0
  145.6011   71.7329  221.0051 H   0  0  0  0  0  0  0  0  0  0  0  0
  144.5367   75.7628  220.0749 H   0  0  0  0  0  0  0  0  0  0  0  0
  139.1240   69.6300  222.4315 H   0  0  0  0  0  0  0  0  0  0  0  0
  139.1736   68.1927  224.4720 H   0  0  0  0  0  0  0  0  0  0  0  0
  139.7041   67.9820  226.7876 H   0  0  0  0  0  0  0  0  0  0  0  0
  141.3676   71.2951  228.9672 H   0  0  0  0  0  0  0  0  0  0  0  0
  141.2922   72.6645  226.9180 H   0  0  0  0  0  0  0  0  0  0  0  0
  1  2  2  0
  2  3  1  0
  3  4  1  0
  4  5  1  0
  5  6  2  0
  5  7  1  0
  7  8  1  0
  8  9  1  0
  9 10  1  0
 10 11  1  0
 11 12  1  0
 12 13  1  0
 13 14  2  0
 14 15  1  0
 15 16  1  0
 15 17  2  0
 17 18  1  0
 18 19  1  0
 18 20  2  0
  2 21  1  0
 21 22  2  0
 22 23  1  0
 23 24  2  0
 24 25  1  0
 25 26  2  0
 26 27  1  0
 26 28  1  0
 28 29  2  0
 29 30  1  0
 30 31  2  0
 12  7  1  0
 20 13  1  0
 31 21  1  0
 30 24  1  0
  3 32  1  0
  4 33  1  0
  4 34  1  0
  8 35  1  0
  8 36  1  0
  9 37  1  0
  9 38  1  0
 10 39  1  0
 10 40  1  0
 11 41  1  0
 11 42  1  0
 12 43  1  6
 14 44  1  0
 17 45  1  0
 20 46  1  0
 22 47  1  0
 23 48  1  0
 25 49  1  0
 28 50  1  0
 29 51  1  0
M  END
>  <smiles>  (95) 
O=C(NCC(=O)N1CCCCC1c1cc(F)cc(F)c1)c1ccc2cc(F)ccc2n1

>  <score_type>  (95) 
oracle

>  <origin>  (95) 
autodockgpu

>  <m_score__min__energy>  (95) 
-8.6600000000000001

>  <m_primary>  (95) 
energy

>  <rmsd>  (95) 
2.1838792254266735

>  <m_score__min__rmsd>  (95) 
2.1838792254266735

>  <meeko>  (95) 
{"free_energy": -8.52, "intermolecular_energy": -10.01, "internal_energy": -2.13, "cluster_size": 20, "cluster_id": 3, "rank_in_cluster": 5}

>  <energy>  (95) 
-8.42

>  <cluster_rmsd>  (95) 
0.51

>  <cluster>  (95) 
3

$$$$

     RDKit          3D

 51 54  0  0  0  0  0  0  0  0999 V2000
  139.8160   71.4420  221.0170 O   0  0  0  0  0  0  0  0  0  0  0  0
  139.7640   72.0400  222.1360 C   0  0  0  0  0  0  0  0  0  0  0  0
  139.6280   73.4520  222.2390 N   0  0  0  0  0  0  0  0  0  0  0  0
  139.5370   74.3000  221.0790 C   0  0  0  0  0  0  0  0  0  0  0  0
  139.8800   75.6850  221.5380 C   0  0  0  0  0  0  0  0  0  0  0  0
  139.7780   76.0390  222.7410 O   0  0  0  0  0  0  0  0  0  0  0  0
  140.3430   76.6780  220.6130 N   0  0  0  0  0  0  0  0  0  0  0  0
  139.4880   76.8920  219.4460 C   0  0  0  0  0  0  0  0  0  0  0  0
  140.3460   77.0810  218.1950 C   0  0  0  0  0  0  0  0  0  0  0  0
  141.2450   78.2580  218.4930 C   0  0  0  0  0  0  0  0  0  0  0  0
  142.2050   77.9210  219.5980 C   0  0  0  0  0  0  0  0  0  0  0  0
  141.5600   77.3940  220.8480 C   0  0  1  0  0  0  0  0  0  0  0  0
  141.4550   78.4500  221.8880 C   0  0  0  0  0  0  0  0  0  0  0  0
  142.5730   79.0940  222.3990 C   0  0  0  0  0  0  0  0  0  0  0  0
  142.4910   80.0760  223.3640 C   0  0  0  0  0  0  0  0  0  0  0  0
  143.6370   80.6610  223.8140 F   0  0  0  0  0  0  0  0  0  0  0  0
  141.2520   80.4300  223.8370 C   0  0  0  0  0  0  0  0  0  0  0  0
  140.1160   79.8310  223.3700 C   0  0  0  0  0  0  0  0  0  0  0  0
  138.9040   80.1950  223.8500 F   0  0  0  0  0  0  0  0  0  0  0  0
  140.2380   78.8450  222.3970 C   0  0  0  0  0  0  0  0  0  0  0  0
  139.8500   71.2460  223.3610 C   0  0  0  0  0  0  0  0  0  0  0  0
  139.4480   69.9270  223.3760 C   0  0  0  0  0  0  0  0  0  0  0  0
  139.5100   69.1350  224.5140 C   0  0  0  0  0  0  0  0  0  0  0  0
  140.0100   69.7490  225.6650 C   0  0  0  0  0  0  0  0  0  0  0  0
  140.0860   68.9790  226.8290 C   0  0  0  0  0  0  0  0  0  0  0  0
  140.5730   69.5450  227.9910 C   0  0  0  0  0  0  0  0  0  0  0  0
  140.6290   68.7570  229.0960 F   0  0  0  0  0  0  0  0  0  0  0  0
  140.9810   70.8630  227.9920 C   0  0  0  0  0  0  0  0  0  0  0  0
  140.8960   71.6030  226.8300 C   0  0  0  0  0  0  0  0  0  0  0  0
  140.4100   71.0650  225.6470 C   0  0  0  0  0  0  0  0  0  0  0  0
  140.3300   71.7980  224.5120 N   0  0  0  0  0  0  0  0  0  0  0  0
  139.5930   73.8660  223.2180 H   0  0  0  0  0  0  0  0  0  0  0  0
  140.2482   73.9678  220.3084 H   0  0  0  0  0  0  0  0  0  0  0  0
  138.5300   74.2646  220.6377 H   0  0  0  0  0  0  0  0  0  0  0  0
  138.8330   76.0189  219.3096 H   0  0  0  0  0  0  0  0  0  0  0  0
  138.8796   77.7944  219.6055 H   0  0  0  0  0  0  0  0  0  0  0  0
  140.9455   76.1794  218.0008 H   0  0  0  0  0  0  0  0  0  0  0  0
  139.7293   77.2559  217.3011 H   0  0  0  0  0  0  0  0  0  0  0  0
  141.8126   78.5183  217.5874 H   0  0  0  0  0  0  0  0  0  0  0  0
  140.6236   79.1089  218.8091 H   0  0  0  0  0  0  0  0  0  0  0  0
  142.9037   77.1579  219.2246 H   0  0  0  0  0  0  0  0  0  0  0  0
  142.7021   78.8619  219.8767 H   0  0  0  0  0  0  0  0  0  0  0  0
  142.2334   76.6248  221.2542 H   0  0  0  0  0  0  0  0  0  0  0  0
  143.5653   78.8096  222.0188 H   0  0  0  0  0  0  0  0  0  0  0  0
  141.1720   81.2113  224.6072 H   0  0  0  0  0  0  0  0  0  0  0  0
  139.3255   78.3611  222.0187 H   0  0  0  0  0  0  0  0  0  0  0  0
  139.0617   69.4837  222.4464 H   0  0  0  0  0  0  0  0  0  0  0  0
  139.1842   68.0844  224.5100 H   0  0  0  0  0  0  0  0  0  0  0  0
  139.7599   67.9285  226.8197 H   0  0  0  0  0  0  0  0  0  0  0  0
  141.3714   71.3210  228.9128 H   0  0  0  0  0  0  0  0  0  0  0  0
  141.2240   72.6529  226.8422 H   0  0  0  0  0  0  0  0  0  0  0  0
  1  2  2  0
  2  3  1  0
  3  4  1  0
  4  5  1  0
  5  6  2  0
  5  7  1  0
  7  8  1  0
  8  9  1  0
  9 10  1  0
 10 11  1  0
 11 12  1  0
 12 13  1  0
 13 14  2  0
 14 15  1  0
 15 16  1  0
 15 17  2  0
 17 18  1  0
 18 19  1  0
 18 20  2  0
  2 21  1  0
 21 22  2  0
 22 23  1  0
 23 24  2  0
 24 25  1  0
 25 26  2  0
 26 27  1  0
 26 28  1  0
 28 29  2  0
 29 30  1  0
 30 31  2  0
 12  7  1  0
 20 13  1  0
 31 21  1  0
 30 24  1  0
  3 32  1  0
  4 33  1  0
  4 34  1  0
  8 35  1  0
  8 36  1  0
  9 37  1  0
  9 38  1  0
 10 39  1  0
 10 40  1  0
 11 41  1  0
 11 42  1  0
 12 43  1  1
 14 44  1  0
 17 45  1  0
 20 46  1  0
 22 47  1  0
 23 48  1  0
 25 49  1  0
 28 50  1  0
 29 51  1  0
M  END
>  <smiles>  (96) 
O=C(NCC(=O)N1CCCCC1c1cc(F)cc(F)c1)c1ccc2cc(F)ccc2n1

>  <score_type>  (96) 
oracle

>  <origin>  (96) 
autodockgpu

>  <m_score__min__energy>  (96) 
-8.6600000000000001

>  <m_primary>  (96) 
energy

>  <rmsd>  (96) 
1.5269272348263394

>  <m_score__min__rmsd>  (96) 
1.5269272348263394

>  <meeko>  (96) 
{"free_energy": -8.58, "intermolecular_energy": -10.07, "internal_energy": -1.97, "cluster_size": 16, "cluster_id": 1, "rank_in_cluster": 7}

>  <energy>  (96) 
-8.57

>  <cluster_rmsd>  (96) 
0.0

>  <cluster>  (96) 
4

$$$$

     RDKit          3D

 51 54  0  0  0  0  0  0  0  0999 V2000
  140.1550   71.6330  221.0560 O   0  0  0  0  0  0  0  0  0  0  0  0
  139.9370   72.1960  222.1730 C   0  0  0  0  0  0  0  0  0  0  0  0
  139.6870   73.5910  222.2860 N   0  0  0  0  0  0  0  0  0  0  0  0
  139.6630   74.4610  221.1380 C   0  0  0  0  0  0  0  0  0  0  0  0
  140.6710   75.5390  221.4010 C   0  0  0  0  0  0  0  0  0  0  0  0
  140.7800   76.0970  222.5240 O   0  0  0  0  0  0  0  0  0  0  0  0
  141.5630   75.9860  220.3720 N   0  0  0  0  0  0  0  0  0  0  0  0
  141.9560   77.3920  220.4520 C   0  0  0  0  0  0  0  0  0  0  0  0
  141.9840   78.0090  219.0550 C   0  0  0  0  0  0  0  0  0  0  0  0
  142.9560   77.1690  218.2590 C   0  0  0  0  0  0  0  0  0  0  0  0
  142.4230   75.7770  218.0780 C   0  0  0  0  0  0  0  0  0  0  0  0
  142.0190   75.0910  219.3520 C   0  0  1  0  0  0  0  0  0  0  0  0
  143.0640   74.1350  219.8030 C   0  0  0  0  0  0  0  0  0  0  0  0
  144.3490   74.5460  220.1250 C   0  0  0  0  0  0  0  0  0  0  0  0
  145.3280   73.6700  220.5460 C   0  0  0  0  0  0  0  0  0  0  0  0
  146.5670   74.1530  220.8430 F   0  0  0  0  0  0  0  0  0  0  0  0
  145.0170   72.3370  220.6490 C   0  0  0  0  0  0  0  0  0  0  0  0
  143.7670   71.8750  220.3460 C   0  0  0  0  0  0  0  0  0  0  0  0
  143.4800   70.5560  220.4550 F   0  0  0  0  0  0  0  0  0  0  0  0
  142.8060   72.7870  219.9260 C   0  0  0  0  0  0  0  0  0  0  0  0
  139.9450   71.3780  223.3850 C   0  0  0  0  0  0  0  0  0  0  0  0
  139.4520   70.0900  223.3710 C   0  0  0  0  0  0  0  0  0  0  0  0
  139.4380   69.2780  224.4960 C   0  0  0  0  0  0  0  0  0  0  0  0
  139.9600   69.8360  225.6650 C   0  0  0  0  0  0  0  0  0  0  0  0
  139.9610   69.0430  226.8160 C   0  0  0  0  0  0  0  0  0  0  0  0
  140.4670   69.5550  227.9960 C   0  0  0  0  0  0  0  0  0  0  0  0
  140.4470   68.7480  229.0880 F   0  0  0  0  0  0  0  0  0  0  0  0
  140.9650   70.8410  228.0270 C   0  0  0  0  0  0  0  0  0  0  0  0
  140.9530   71.6040  226.8760 C   0  0  0  0  0  0  0  0  0  0  0  0
  140.4510   71.1210  225.6760 C   0  0  0  0  0  0  0  0  0  0  0  0
  140.4430   71.8760  224.5530 N   0  0  0  0  0  0  0  0  0  0  0  0
  139.5150   73.9760  223.2620 H   0  0  0  0  0  0  0  0  0  0  0  0
  139.9334   73.9008  220.2307 H   0  0  0  0  0  0  0  0  0  0  0  0
  138.6599   74.8838  220.9797 H   0  0  0  0  0  0  0  0  0  0  0  0
  141.2326   77.9371  221.0761 H   0  0  0  0  0  0  0  0  0  0  0  0
  142.9599   77.4607  220.8963 H   0  0  0  0  0  0  0  0  0  0  0  0
  140.9834   77.9736  218.5995 H   0  0  0  0  0  0  0  0  0  0  0  0
  142.2875   79.0659  219.0829 H   0  0  0  0  0  0  0  0  0  0  0  0
  143.1082   77.6295  217.2717 H   0  0  0  0  0  0  0  0  0  0  0  0
  143.9099   77.1164  218.8042 H   0  0  0  0  0  0  0  0  0  0  0  0
  141.5413   75.8298  217.4224 H   0  0  0  0  0  0  0  0  0  0  0  0
  143.2437   75.1822  217.6506 H   0  0  0  0  0  0  0  0  0  0  0  0
  141.1258   74.4914  219.1225 H   0  0  0  0  0  0  0  0  0  0  0  0
  144.5976   75.6142  220.0412 H   0  0  0  0  0  0  0  0  0  0  0  0
  145.7886   71.6271  220.9818 H   0  0  0  0  0  0  0  0  0  0  0  0
  141.7989   72.4179  219.6820 H   0  0  0  0  0  0  0  0  0  0  0  0
  139.0528   69.6893  222.4276 H   0  0  0  0  0  0  0  0  0  0  0  0
  139.0386   68.2534  224.4687 H   0  0  0  0  0  0  0  0  0  0  0  0
  139.5618   68.0185  226.7830 H   0  0  0  0  0  0  0  0  0  0  0  0
  141.3690   71.2560  228.9622 H   0  0  0  0  0  0  0  0  0  0  0  0
  141.3543   72.6276  226.9117 H   0  0  0  0  0  0  0  0  0  0  0  0
  1  2  2  0
  2  3  1  0
  3  4  1  0
  4  5  1  0
  5  6  2  0
  5  7  1  0
  7  8  1  0
  8  9  1  0
  9 10  1  0
 10 11  1  0
 11 12  1  0
 12 13  1  0
 13 14  2  0
 14 15  1  0
 15 16  1  0
 15 17  2  0
 17 18  1  0
 18 19  1  0
 18 20  2  0
  2 21  1  0
 21 22  2  0
 22 23  1  0
 23 24  2  0
 24 25  1  0
 25 26  2  0
 26 27  1  0
 26 28  1  0
 28 29  2  0
 29 30  1  0
 30 31  2  0
 12  7  1  0
 20 13  1  0
 31 21  1  0
 30 24  1  0
  3 32  1  0
  4 33  1  0
  4 34  1  0
  8 35  1  0
  8 36  1  0
  9 37  1  0
  9 38  1  0
 10 39  1  0
 10 40  1  0
 11 41  1  0
 11 42  1  0
 12 43  1  6
 14 44  1  0
 17 45  1  0
 20 46  1  0
 22 47  1  0
 23 48  1  0
 25 49  1  0
 28 50  1  0
 29 51  1  0
M  END
>  <smiles>  (97) 
O=C(NCC(=O)N1CCCCC1c1cc(F)cc(F)c1)c1ccc2cc(F)ccc2n1

>  <score_type>  (97) 
oracle

>  <origin>  (97) 
autodockgpu

>  <m_score__min__energy>  (97) 
-8.6600000000000001

>  <m_primary>  (97) 
energy

>  <rmsd>  (97) 
2.1641678053798517

>  <m_score__min__rmsd>  (97) 
2.1641678053798517

>  <meeko>  (97) 
{"free_energy": -8.44, "intermolecular_energy": -9.93, "internal_energy": -2.06, "cluster_size": 20, "cluster_id": 3, "rank_in_cluster": 19}

>  <energy>  (97) 
-8.21

>  <cluster_rmsd>  (97) 
0.0

>  <cluster>  (97) 
5

$$$$

     RDKit          3D

 51 54  0  0  0  0  0  0  0  0999 V2000
  139.7420   71.5310  221.0290 O   0  0  0  0  0  0  0  0  0  0  0  0
  139.7140   72.1190  222.1550 C   0  0  0  0  0  0  0  0  0  0  0  0
  139.5780   73.5290  222.2740 N   0  0  0  0  0  0  0  0  0  0  0  0
  139.4600   74.3880  221.1230 C   0  0  0  0  0  0  0  0  0  0  0  0
  139.9420   75.7400  221.5520 C   0  0  0  0  0  0  0  0  0  0  0  0
  140.0040   76.0790  222.7630 O   0  0  0  0  0  0  0  0  0  0  0  0
  140.3560   76.7190  220.5900 N   0  0  0  0  0  0  0  0  0  0  0  0
  139.4920   76.8470  219.4170 C   0  0  0  0  0  0  0  0  0  0  0  0
  140.3390   77.0280  218.1580 C   0  0  0  0  0  0  0  0  0  0  0  0
  141.1810   78.2580  218.4090 C   0  0  0  0  0  0  0  0  0  0  0  0
  142.1560   78.0100  219.5240 C   0  0  0  0  0  0  0  0  0  0  0  0
  141.5380   77.5000  220.7940 C   0  0  1  0  0  0  0  0  0  0  0  0
  141.3840   78.5890  221.7940 C   0  0  0  0  0  0  0  0  0  0  0  0
  142.4690   79.1230  222.4740 C   0  0  0  0  0  0  0  0  0  0  0  0
  142.3400   80.1330  223.4050 C   0  0  0  0  0  0  0  0  0  0  0  0
  143.4550   80.6040  224.0310 F   0  0  0  0  0  0  0  0  0  0  0  0
  141.0880   80.6310  223.6660 C   0  0  0  0  0  0  0  0  0  0  0  0
  139.9830   80.1440  223.0250 C   0  0  0  0  0  0  0  0  0  0  0  0
  138.7560   80.6490  223.2960 F   0  0  0  0  0  0  0  0  0  0  0  0
  140.1510   79.1260  222.0940 C   0  0  0  0  0  0  0  0  0  0  0  0
  139.8280   71.3140  223.3700 C   0  0  0  0  0  0  0  0  0  0  0  0
  139.4380   69.9910  223.3790 C   0  0  0  0  0  0  0  0  0  0  0  0
  139.5270   69.1890  224.5090 C   0  0  0  0  0  0  0  0  0  0  0  0
  140.0410   69.7960  225.6570 C   0  0  0  0  0  0  0  0  0  0  0  0
  140.1450   69.0150  226.8110 C   0  0  0  0  0  0  0  0  0  0  0  0
  140.6470   69.5750  227.9700 C   0  0  0  0  0  0  0  0  0  0  0  0
  140.7280   68.7770  229.0660 F   0  0  0  0  0  0  0  0  0  0  0  0
  141.0420   70.8970  227.9770 C   0  0  0  0  0  0  0  0  0  0  0  0
  140.9310   71.6470  226.8240 C   0  0  0  0  0  0  0  0  0  0  0  0
  140.4290   71.1160  225.6440 C   0  0  0  0  0  0  0  0  0  0  0  0
  140.3230   71.8590  224.5180 N   0  0  0  0  0  0  0  0  0  0  0  0
  139.5640   73.9350  223.2570 H   0  0  0  0  0  0  0  0  0  0  0  0
  140.0808   74.0068  220.2988 H   0  0  0  0  0  0  0  0  0  0  0  0
  138.4216   74.4310  220.7628 H   0  0  0  0  0  0  0  0  0  0  0  0
  138.8792   75.9392  219.3158 H   0  0  0  0  0  0  0  0  0  0  0  0
  138.8419   77.7254  219.5429 H   0  0  0  0  0  0  0  0  0  0  0  0
  140.9809   76.1493  217.9973 H   0  0  0  0  0  0  0  0  0  0  0  0
  139.7145   77.1383  217.2592 H   0  0  0  0  0  0  0  0  0  0  0  0
  141.7353   78.5102  217.4930 H   0  0  0  0  0  0  0  0  0  0  0  0
  140.5196   79.0897  218.6934 H   0  0  0  0  0  0  0  0  0  0  0  0
  142.8910   77.2682  219.1782 H   0  0  0  0  0  0  0  0  0  0  0  0
  142.6065   78.9839  219.7661 H   0  0  0  0  0  0  0  0  0  0  0  0
  142.2473   76.7788  221.2262 H   0  0  0  0  0  0  0  0  0  0  0  0
  143.4724   78.7251  222.2624 H   0  0  0  0  0  0  0  0  0  0  0  0
  140.9714   81.4374  224.4050 H   0  0  0  0  0  0  0  0  0  0  0  0
  139.2639   78.7331  221.5757 H   0  0  0  0  0  0  0  0  0  0  0  0
  139.0397   69.5528  222.4520 H   0  0  0  0  0  0  0  0  0  0  0  0
  139.2106   68.1355  224.5005 H   0  0  0  0  0  0  0  0  0  0  0  0
  139.8293   67.9614  226.7968 H   0  0  0  0  0  0  0  0  0  0  0  0
  141.4428   71.3501  228.8957 H   0  0  0  0  0  0  0  0  0  0  0  0
  141.2506   72.6994  226.8406 H   0  0  0  0  0  0  0  0  0  0  0  0
  1  2  2  0
  2  3  1  0
  3  4  1  0
  4  5  1  0
  5  6  2  0
  5  7  1  0
  7  8  1  0
  8  9  1  0
  9 10  1  0
 10 11  1  0
 11 12  1  0
 12 13  1  0
 13 14  2  0
 14 15  1  0
 15 16  1  0
 15 17  2  0
 17 18  1  0
 18 19  1  0
 18 20  2  0
  2 21  1  0
 21 22  2  0
 22 23  1  0
 23 24  2  0
 24 25  1  0
 25 26  2  0
 26 27  1  0
 26 28  1  0
 28 29  2  0
 29 30  1  0
 30 31  2  0
 12  7  1  0
 20 13  1  0
 31 21  1  0
 30 24  1  0
  3 32  1  0
  4 33  1  0
  4 34  1  0
  8 35  1  0
  8 36  1  0
  9 37  1  0
  9 38  1  0
 10 39  1  0
 10 40  1  0
 11 41  1  0
 11 42  1  0
 12 43  1  1
 14 44  1  0
 17 45  1  0
 20 46  1  0
 22 47  1  0
 23 48  1  0
 25 49  1  0
 28 50  1  0
 29 51  1  0
M  END
>  <smiles>  (98) 
O=C(NCC(=O)N1CCCCC1c1cc(F)cc(F)c1)c1ccc2cc(F)ccc2n1

>  <score_type>  (98) 
oracle

>  <origin>  (98) 
autodockgpu

>  <m_score__min__energy>  (98) 
-8.6600000000000001

>  <m_primary>  (98) 
energy

>  <rmsd>  (98) 
1.5131299557227895

>  <m_score__min__rmsd>  (98) 
1.5131299557227895

>  <meeko>  (98) 
{"free_energy": -8.42, "intermolecular_energy": -9.91, "internal_energy": -2.04, "cluster_size": 16, "cluster_id": 1, "rank_in_cluster": 10}

>  <energy>  (98) 
-8.14

>  <cluster_rmsd>  (98) 
0.3

>  <cluster>  (98) 
5

$$$$

     RDKit          3D

 51 54  0  0  0  0  0  0  0  0999 V2000
  139.9930   71.5480  220.9880 O   0  0  0  0  0  0  0  0  0  0  0  0
  139.8500   72.1350  222.1050 C   0  0  0  0  0  0  0  0  0  0  0  0
  139.6600   73.5400  222.2070 N   0  0  0  0  0  0  0  0  0  0  0  0
  139.6140   74.3940  221.0470 C   0  0  0  0  0  0  0  0  0  0  0  0
  139.9890   75.7670  221.5160 C   0  0  0  0  0  0  0  0  0  0  0  0
  139.9660   76.0920  222.7320 O   0  0  0  0  0  0  0  0  0  0  0  0
  140.3930   76.7820  220.5880 N   0  0  0  0  0  0  0  0  0  0  0  0
  139.5040   76.9710  219.4420 C   0  0  0  0  0  0  0  0  0  0  0  0
  140.3260   77.1980  218.1740 C   0  0  0  0  0  0  0  0  0  0  0  0
  141.1880   78.4060  218.4580 C   0  0  0  0  0  0  0  0  0  0  0  0
  142.1840   78.0990  219.5390 C   0  0  0  0  0  0  0  0  0  0  0  0
  141.5890   77.5400  220.7990 C   0  0  1  0  0  0  0  0  0  0  0  0
  141.4700   78.5860  221.8480 C   0  0  0  0  0  0  0  0  0  0  0  0
  140.2420   78.9710  222.3680 C   0  0  0  0  0  0  0  0  0  0  0  0
  140.1160   79.9400  223.3420 C   0  0  0  0  0  0  0  0  0  0  0  0
  138.8740   80.2620  223.8000 F   0  0  0  0  0  0  0  0  0  0  0  0
  141.2520   80.5470  223.8160 C   0  0  0  0  0  0  0  0  0  0  0  0
  142.4880   80.2080  223.3420 C   0  0  0  0  0  0  0  0  0  0  0  0
  143.5970   80.8180  223.8230 F   0  0  0  0  0  0  0  0  0  0  0  0
  142.5760   79.2270  222.3610 C   0  0  0  0  0  0  0  0  0  0  0  0
  139.8850   71.3350  223.3280 C   0  0  0  0  0  0  0  0  0  0  0  0
  139.4570   70.0240  223.3260 C   0  0  0  0  0  0  0  0  0  0  0  0
  139.4710   69.2270  224.4630 C   0  0  0  0  0  0  0  0  0  0  0  0
  139.9500   69.8270  225.6300 C   0  0  0  0  0  0  0  0  0  0  0  0
  139.9780   69.0510  226.7920 C   0  0  0  0  0  0  0  0  0  0  0  0
  140.4430   69.6030  227.9700 C   0  0  0  0  0  0  0  0  0  0  0  0
  140.4510   68.8110  229.0730 F   0  0  0  0  0  0  0  0  0  0  0  0
  140.8760   70.9130  227.9880 C   0  0  0  0  0  0  0  0  0  0  0  0
  140.8390   71.6590  226.8270 C   0  0  0  0  0  0  0  0  0  0  0  0
  140.3770   71.1350  225.6280 C   0  0  0  0  0  0  0  0  0  0  0  0
  140.3430   71.8730  224.4950 N   0  0  0  0  0  0  0  0  0  0  0  0
  139.5490   73.9460  223.1830 H   0  0  0  0  0  0  0  0  0  0  0  0
  140.3286   74.0431  220.2879 H   0  0  0  0  0  0  0  0  0  0  0  0
  138.6143   74.3890  220.5881 H   0  0  0  0  0  0  0  0  0  0  0  0
  138.8783   76.0753  219.3149 H   0  0  0  0  0  0  0  0  0  0  0  0
  138.8665   77.8494  219.6209 H   0  0  0  0  0  0  0  0  0  0  0  0
  140.9537   76.3201  217.9613 H   0  0  0  0  0  0  0  0  0  0  0  0
  139.6831   77.3548  217.2953 H   0  0  0  0  0  0  0  0  0  0  0  0
  141.7251   78.6910  217.5413 H   0  0  0  0  0  0  0  0  0  0  0  0
  140.5434   79.2323  218.7924 H   0  0  0  0  0  0  0  0  0  0  0  0
  142.9028   77.3656  219.1446 H   0  0  0  0  0  0  0  0  0  0  0  0
  142.6501   79.0568  219.8135 H   0  0  0  0  0  0  0  0  0  0  0  0
  142.2989   76.7925  221.1829 H   0  0  0  0  0  0  0  0  0  0  0  0
  139.3320   78.4836  221.9880 H   0  0  0  0  0  0  0  0  0  0  0  0
  141.1659   81.3214  224.5925 H   0  0  0  0  0  0  0  0  0  0  0  0
  143.5699   78.9513  221.9786 H   0  0  0  0  0  0  0  0  0  0  0  0
  139.0890   69.5914  222.3840 H   0  0  0  0  0  0  0  0  0  0  0  0
  139.1248   68.1831  224.4457 H   0  0  0  0  0  0  0  0  0  0  0  0
  139.6319   68.0071  226.7688 H   0  0  0  0  0  0  0  0  0  0  0  0
  141.2483   71.3601  228.9215 H   0  0  0  0  0  0  0  0  0  0  0  0
  141.1869   72.7022  226.8532 H   0  0  0  0  0  0  0  0  0  0  0  0
  1  2  2  0
  2  3  1  0
  3  4  1  0
  4  5  1  0
  5  6  2  0
  5  7  1  0
  7  8  1  0
  8  9  1  0
  9 10  1  0
 10 11  1  0
 11 12  1  0
 12 13  1  0
 13 14  2  0
 14 15  1  0
 15 16  1  0
 15 17  2  0
 17 18  1  0
 18 19  1  0
 18 20  2  0
  2 21  1  0
 21 22  2  0
 22 23  1  0
 23 24  2  0
 24 25  1  0
 25 26  2  0
 26 27  1  0
 26 28  1  0
 28 29  2  0
 29 30  1  0
 30 31  2  0
 12  7  1  0
 20 13  1  0
 31 21  1  0
 30 24  1  0
  3 32  1  0
  4 33  1  0
  4 34  1  0
  8 35  1  0
  8 36  1  0
  9 37  1  0
  9 38  1  0
 10 39  1  0
 10 40  1  0
 11 41  1  0
 11 42  1  0
 12 43  1  1
 14 44  1  0
 17 45  1  0
 20 46  1  0
 22 47  1  0
 23 48  1  0
 25 49  1  0
 28 50  1  0
 29 51  1  0
M  END
>  <smiles>  (99) 
O=C(NCC(=O)N1CCCCC1c1cc(F)cc(F)c1)c1ccc2cc(F)ccc2n1

>  <score_type>  (99) 
oracle

>  <origin>  (99) 
autodockgpu

>  <m_score__min__energy>  (99) 
-8.6600000000000001

>  <m_primary>  (99) 
energy

>  <rmsd>  (99) 
1.5794247060264492

>  <m_score__min__rmsd>  (99) 
1.5794247060264492

>  <meeko>  (99) 
{"free_energy": -8.62, "intermolecular_energy": -10.11, "internal_energy": -1.98, "cluster_size": 16, "cluster_id": 1, "rank_in_cluster": 2}

>  <energy>  (99) 
-8.02

>  <cluster_rmsd>  (99) 
0.66

>  <cluster>  (99) 
5

$$$$

     RDKit          3D

 51 54  0  0  0  0  0  0  0  0999 V2000
  138.9210   71.2630  221.1750 O   0  0  0  0  0  0  0  0  0  0  0  0
  139.2740   71.8500  222.2440 C   0  0  0  0  0  0  0  0  0  0  0  0
  139.4970   73.2530  222.3040 N   0  0  0  0  0  0  0  0  0  0  0  0
  139.3340   74.1050  221.1540 C   0  0  0  0  0  0  0  0  0  0  0  0
  140.2040   75.3030  221.3870 C   0  0  0  0  0  0  0  0  0  0  0  0
  141.0120   75.3700  222.3500 O   0  0  0  0  0  0  0  0  0  0  0  0
  140.1520   76.4380  220.5130 N   0  0  0  0  0  0  0  0  0  0  0  0
  138.9680   76.5150  219.6580 C   0  0  0  0  0  0  0  0  0  0  0  0
  139.3600   76.9880  218.2590 C   0  0  0  0  0  0  0  0  0  0  0  0
  140.0340   78.3260  218.4570 C   0  0  0  0  0  0  0  0  0  0  0  0
  141.3240   78.1600  219.2080 C   0  0  0  0  0  0  0  0  0  0  0  0
  141.2030   77.4100  220.5030 C   0  0  1  0  0  0  0  0  0  0  0  0
  141.1850   78.3380  221.6640 C   0  0  0  0  0  0  0  0  0  0  0  0
  142.3190   79.0230  222.0770 C   0  0  0  0  0  0  0  0  0  0  0  0
  142.3170   79.8870  223.1520 C   0  0  0  0  0  0  0  0  0  0  0  0
  143.4730   80.5220  223.4950 F   0  0  0  0  0  0  0  0  0  0  0  0
  141.1440   80.0770  223.8400 C   0  0  0  0  0  0  0  0  0  0  0  0
  139.9960   79.4310  223.4770 C   0  0  0  0  0  0  0  0  0  0  0  0
  138.8490   79.6320  224.1690 F   0  0  0  0  0  0  0  0  0  0  0  0
  140.0360   78.5670  222.3890 C   0  0  0  0  0  0  0  0  0  0  0  0
  139.4590   71.0510  223.4540 C   0  0  0  0  0  0  0  0  0  0  0  0
  139.0400   69.7390  223.5050 C   0  0  0  0  0  0  0  0  0  0  0  0
  139.1940   68.9430  224.6320 C   0  0  0  0  0  0  0  0  0  0  0  0
  139.8070   69.5460  225.7330 C   0  0  0  0  0  0  0  0  0  0  0  0
  139.9770   68.7720  226.8830 C   0  0  0  0  0  0  0  0  0  0  0  0
  140.5770   69.3270  227.9970 C   0  0  0  0  0  0  0  0  0  0  0  0
  140.7220   68.5360  229.0910 F   0  0  0  0  0  0  0  0  0  0  0  0
  141.0040   70.6390  227.9620 C   0  0  0  0  0  0  0  0  0  0  0  0
  140.8240   71.3840  226.8140 C   0  0  0  0  0  0  0  0  0  0  0  0
  140.2240   70.8560  225.6790 C   0  0  0  0  0  0  0  0  0  0  0  0
  140.0510   71.5930  224.5570 N   0  0  0  0  0  0  0  0  0  0  0  0
  139.7900   73.6590  223.2420 H   0  0  0  0  0  0  0  0  0  0  0  0
  139.6498   73.5773  220.2420 H   0  0  0  0  0  0  0  0  0  0  0  0
  138.2818   74.3967  221.0203 H   0  0  0  0  0  0  0  0  0  0  0  0
  138.5039   75.5201  219.5889 H   0  0  0  0  0  0  0  0  0  0  0  0
  138.2556   77.2311  220.0935 H   0  0  0  0  0  0  0  0  0  0  0  0
  140.0542   76.2735  217.7925 H   0  0  0  0  0  0  0  0  0  0  0  0
  138.4859   77.0665  217.5958 H   0  0  0  0  0  0  0  0  0  0  0  0
  140.2424   78.7751  217.4747 H   0  0  0  0  0  0  0  0  0  0  0  0
  139.3656   78.9781  219.0384 H   0  0  0  0  0  0  0  0  0  0  0  0
  142.0294   77.6168  218.5619 H   0  0  0  0  0  0  0  0  0  0  0  0
  141.6663   79.1730  219.4660 H   0  0  0  0  0  0  0  0  0  0  0  0
  142.1136   76.8014  220.6049 H   0  0  0  0  0  0  0  0  0  0  0  0
  143.2578   78.8707  221.5244 H   0  0  0  0  0  0  0  0  0  0  0  0
  141.1282   80.7626  224.7001 H   0  0  0  0  0  0  0  0  0  0  0  0
  139.1134   78.0452  222.0950 H   0  0  0  0  0  0  0  0  0  0  0  0
  138.5630   69.3038  222.6144 H   0  0  0  0  0  0  0  0  0  0  0  0
  138.8529   67.8975  224.6566 H   0  0  0  0  0  0  0  0  0  0  0  0
  139.6352   67.7266  226.9018 H   0  0  0  0  0  0  0  0  0  0  0  0
  141.4848   71.0882  228.8435 H   0  0  0  0  0  0  0  0  0  0  0  0
  141.1668   72.4291  226.7980 H   0  0  0  0  0  0  0  0  0  0  0  0
  1  2  2  0
  2  3  1  0
  3  4  1  0
  4  5  1  0
  5  6  2  0
  5  7  1  0
  7  8  1  0
  8  9  1  0
  9 10  1  0
 10 11  1  0
 11 12  1  0
 12 13  1  0
 13 14  2  0
 14 15  1  0
 15 16  1  0
 15 17  2  0
 17 18  1  0
 18 19  1  0
 18 20  2  0
  2 21  1  0
 21 22  2  0
 22 23  1  0
 23 24  2  0
 24 25  1  0
 25 26  2  0
 26 27  1  0
 26 28  1  0
 28 29  2  0
 29 30  1  0
 30 31  2  0
 12  7  1  0
 20 13  1  0
 31 21  1  0
 30 24  1  0
  3 32  1  0
  4 33  1  0
  4 34  1  0
  8 35  1  0
  8 36  1  0
  9 37  1  0
  9 38  1  0
 10 39  1  0
 10 40  1  0
 11 41  1  0
 11 42  1  0
 12 43  1  1
 14 44  1  0
 17 45  1  0
 20 46  1  0
 22 47  1  0
 23 48  1  0
 25 49  1  0
 28 50  1  0
 29 51  1  0
M  END
>  <smiles>  (100) 
O=C(NCC(=O)N1CCCCC1c1cc(F)cc(F)c1)c1ccc2cc(F)ccc2n1

>  <score_type>  (100) 
oracle

>  <origin>  (100) 
autodockgpu

>  <m_score__min__energy>  (100) 
-8.6600000000000001

>  <m_primary>  (100) 
energy

>  <rmsd>  (100) 
1.293152550504921

>  <m_score__min__rmsd>  (100) 
1.293152550504921

>  <meeko>  (100) 
{"free_energy": -8.14, "intermolecular_energy": -9.63, "internal_energy": -2.07, "cluster_size": 16, "cluster_id": 1, "rank_in_cluster": 14}

>  <energy>  (100) 
-7.51

>  <cluster_rmsd>  (100) 
0.0

>  <cluster>  (100) 
6

$$$$
