
     RDKit          3D

 52 55  0  0  0  0  0  0  0  0999 V2000
  141.3140   71.7470  221.2170 O   0  0  0  0  0  0  0  0  0  0  0  0
  140.5320   72.2110  222.1050 C   0  0  0  0  0  0  0  0  0  0  0  0
  139.8510   73.4560  221.9420 N   0  0  0  0  0  0  0  0  0  0  0  0
  140.0330   74.2280  220.7580 C   0  0  0  0  0  0  0  0  0  0  0  0
  140.9060   75.3870  221.0740 C   0  0  0  0  0  0  0  0  0  0  0  0
  141.2080   75.6060  222.2940 O   0  0  0  0  0  0  0  0  0  0  0  0
  141.4060   76.2540  220.0320 N   0  0  0  0  0  0  0  0  0  0  0  0
  140.5870   76.8730  219.0480 C   0  0  0  0  0  0  0  0  0  0  0  0
  141.5500   77.2610  217.9550 C   0  0  0  0  0  0  0  0  0  0  0  0
  142.8270   77.5260  218.7050 C   0  0  0  0  0  0  0  0  0  0  0  0
  142.7900   76.6030  219.8590 C   0  0  2  0  0  0  0  0  0  0  0  0
  143.5460   75.3220  219.6520 C   0  0  0  0  0  0  0  0  0  0  0  0
  143.2990   74.6110  218.4980 C   0  0  0  0  0  0  0  0  0  0  0  0
  143.9900   73.4300  218.2870 C   0  0  0  0  0  0  0  0  0  0  0  0
  144.9160   72.9320  219.1790 C   0  0  0  0  0  0  0  0  0  0  0  0
  145.6030   71.7260  218.9350 O   0  0  0  0  0  0  0  0  0  0  0  0
  144.9090   70.5030  219.1700 C   0  0  0  0  0  0  0  0  0  0  0  0
  144.0790   70.6670  220.2810 F   0  0  0  0  0  0  0  0  0  0  0  0
  145.7410   69.4600  219.4790 F   0  0  0  0  0  0  0  0  0  0  0  0
  144.1270   70.2040  218.0750 F   0  0  0  0  0  0  0  0  0  0  0  0
  145.1570   73.6630  220.3430 C   0  0  0  0  0  0  0  0  0  0  0  0
  144.4650   74.8470  220.5570 C   0  0  0  0  0  0  0  0  0  0  0  0
  140.3150   71.4480  223.3390 C   0  0  0  0  0  0  0  0  0  0  0  0
  139.6540   70.2320  223.2870 C   0  0  0  0  0  0  0  0  0  0  0  0
  139.4350   69.4890  224.4310 C   0  0  0  0  0  0  0  0  0  0  0  0
  139.8780   69.9510  225.6700 C   0  0  0  0  0  0  0  0  0  0  0  0
  139.6520   69.1950  226.8080 C   0  0  0  0  0  0  0  0  0  0  0  0
  140.1000   69.6710  228.0200 C   0  0  0  0  0  0  0  0  0  0  0  0
  139.8930   68.9520  229.1550 F   0  0  0  0  0  0  0  0  0  0  0  0
  140.7520   70.8860  228.0160 C   0  0  0  0  0  0  0  0  0  0  0  0
  140.9770   71.6340  226.8990 C   0  0  0  0  0  0  0  0  0  0  0  0
  140.5250   71.1540  225.6760 C   0  0  0  0  0  0  0  0  0  0  0  0
  140.7380   71.8820  224.5440 N   0  0  0  0  0  0  0  0  0  0  0  0
  139.2140   73.7750  222.7310 H   0  0  0  0  0  0  0  0  0  0  0  0
  140.5065   73.6089  219.9817 H   0  0  0  0  0  0  0  0  0  0  0  0
  139.0594   74.5823  220.3886 H   0  0  0  0  0  0  0  0  0  0  0  0
  139.8314   76.1685  218.6701 H   0  0  0  0  0  0  0  0  0  0  0  0
  140.0309   77.7352  219.4448 H   0  0  0  0  0  0  0  0  0  0  0  0
  141.6789   76.4414  217.2327 H   0  0  0  0  0  0  0  0  0  0  0  0
  141.2086   78.1233  217.3634 H   0  0  0  0  0  0  0  0  0  0  0  0
  143.6997   77.3157  218.0693 H   0  0  0  0  0  0  0  0  0  0  0  0
  142.9122   78.5770  219.0184 H   0  0  0  0  0  0  0  0  0  0  0  0
  143.2566   77.1095  220.7168 H   0  0  0  0  0  0  0  0  0  0  0  0
  142.5684   74.9739  217.7601 H   0  0  0  0  0  0  0  0  0  0  0  0
  143.7912   72.8630  217.3656 H   0  0  0  0  0  0  0  0  0  0  0  0
  145.8877   73.3047  221.0831 H   0  0  0  0  0  0  0  0  0  0  0  0
  144.6572   75.4207  221.4757 H   0  0  0  0  0  0  0  0  0  0  0  0
  139.2974   69.8514  222.3185 H   0  0  0  0  0  0  0  0  0  0  0  0
  138.9074   68.5261  224.3641 H   0  0  0  0  0  0  0  0  0  0  0  0
  139.1243   68.2319  226.7450 H   0  0  0  0  0  0  0  0  0  0  0  0
  141.1145   71.2775  228.9779 H   0  0  0  0  0  0  0  0  0  0  0  0
  141.5050   72.5968  226.9644 H   0  0  0  0  0  0  0  0  0  0  0  0
  1  2  2  0
  2  3  1  0
  3  4  1  0
  4  5  1  0
  5  6  2  0
  5  7  1  0
  7  8  1  0
  8  9  1  0
  9 10  1  0
 10 11  1  0
 11 12  1  0
 12 13  2  0
 13 14  1  0
 14 15  2  0
 15 16  1  0
 16 17  1  0
 17 18  1  0
 17 19  1  0
 17 20  1  0
 15 21  1  0
 21 22  2  0
  2 23  1  0
 23 24  2  0
 24 25  1  0
 25 26  2  0
 26 27  1  0
 27 28  2  0
 28 29  1  0
 28 30  1  0
 30 31  2  0
 31 32  1  0
 32 33  2  0
 11  7  1  0
 22 12  1  0
 33 23  1  0
 32 26  1  0
  3 34  1  0
  4 35  1  0
  4 36  1  0
  8 37  1  0
  8 38  1  0
  9 39  1  0
  9 40  1  0
 10 41  1  0
 10 42  1  0
 11 43  1  1
 13 44  1  0
 14 45  1  0
 21 46  1  0
 22 47  1  0
 24 48  1  0
 25 49  1  0
 27 50  1  0
 30 51  1  0
 31 52  1  0
M  END
>  <smiles>  (1) 
O=C(NCC(=O)N1CCCC1c1ccc(OC(F)(F)F)cc1)c1ccc2cc(F)ccc2n1

>  <score_type>  (1) 
oracle

>  <origin>  (1) 
autodockgpu

>  <m_score__min__energy>  (1) 
-7.9100000000000001

>  <m_primary>  (1) 
energy

>  <rmsd>  (1) 
1.7970643793848935

>  <m_score__min__rmsd>  (1) 
1.7970643793848935

>  <meeko>  (1) 
{"free_energy": -7.91, "intermolecular_energy": -10.0, "internal_energy": -1.87, "cluster_size": 22, "cluster_id": 1, "rank_in_cluster": 1}

>  <energy>  (1) 
-7.91

>  <cluster_rmsd>  (1) 
0.0

>  <cluster>  (1) 
1

$$$$

     RDKit          3D

 52 55  0  0  0  0  0  0  0  0999 V2000
  140.3000   70.9670  221.1070 O   0  0  0  0  0  0  0  0  0  0  0  0
  140.0190   71.5980  222.1730 C   0  0  0  0  0  0  0  0  0  0  0  0
  139.7900   73.0080  222.1820 N   0  0  0  0  0  0  0  0  0  0  0  0
  139.8740   73.7600  220.9750 C   0  0  0  0  0  0  0  0  0  0  0  0
  140.5600   75.0460  221.2600 C   0  0  0  0  0  0  0  0  0  0  0  0
  140.2880   75.6520  222.3490 O   0  0  0  0  0  0  0  0  0  0  0  0
  141.5150   75.6060  220.3330 N   0  0  0  0  0  0  0  0  0  0  0  0
  141.2020   76.6100  219.3740 C   0  0  0  0  0  0  0  0  0  0  0  0
  142.3260   76.5280  218.3720 C   0  0  0  0  0  0  0  0  0  0  0  0
  143.4920   76.0740  219.2050 C   0  0  0  0  0  0  0  0  0  0  0  0
  142.9000   75.2250  220.2610 C   0  0  2  0  0  0  0  0  0  0  0  0
  142.9390   73.7540  219.9680 C   0  0  0  0  0  0  0  0  0  0  0  0
  143.6090   72.9410  220.8550 C   0  0  0  0  0  0  0  0  0  0  0  0
  143.6520   71.5790  220.6040 C   0  0  0  0  0  0  0  0  0  0  0  0
  143.0510   70.9990  219.5060 C   0  0  0  0  0  0  0  0  0  0  0  0
  143.1120   69.6100  219.2790 O   0  0  0  0  0  0  0  0  0  0  0  0
  144.3800   69.0410  218.9600 C   0  0  0  0  0  0  0  0  0  0  0  0
  144.8490   68.3430  220.0760 F   0  0  0  0  0  0  0  0  0  0  0  0
  145.3380   69.9790  218.6800 F   0  0  0  0  0  0  0  0  0  0  0  0
  144.2340   68.1560  217.9150 F   0  0  0  0  0  0  0  0  0  0  0  0
  142.3750   71.8350  218.6180 C   0  0  0  0  0  0  0  0  0  0  0  0
  142.3310   73.1990  218.8670 C   0  0  0  0  0  0  0  0  0  0  0  0
  139.9220   70.8630  223.4390 C   0  0  0  0  0  0  0  0  0  0  0  0
  139.3350   69.6090  223.4600 C   0  0  0  0  0  0  0  0  0  0  0  0
  139.2290   68.8900  224.6360 C   0  0  0  0  0  0  0  0  0  0  0  0
  139.7170   69.4160  225.8320 C   0  0  0  0  0  0  0  0  0  0  0  0
  139.6040   68.6840  227.0030 C   0  0  0  0  0  0  0  0  0  0  0  0
  140.0930   69.2230  228.1710 C   0  0  0  0  0  0  0  0  0  0  0  0
  139.9980   68.5290  229.3360 F   0  0  0  0  0  0  0  0  0  0  0  0
  140.6690   70.4740  228.0940 C   0  0  0  0  0  0  0  0  0  0  0  0
  140.7820   71.1990  226.9460 C   0  0  0  0  0  0  0  0  0  0  0  0
  140.2890   70.6550  225.7660 C   0  0  0  0  0  0  0  0  0  0  0  0
  140.3890   71.3580  224.6030 N   0  0  0  0  0  0  0  0  0  0  0  0
  139.5600   73.4630  223.1160 H   0  0  0  0  0  0  0  0  0  0  0  0
  140.4463   73.1937  220.2255 H   0  0  0  0  0  0  0  0  0  0  0  0
  138.8643   73.9533  220.5837 H   0  0  0  0  0  0  0  0  0  0  0  0
  140.2348   76.4021  218.8931 H   0  0  0  0  0  0  0  0  0  0  0  0
  141.1114   77.6094  219.8246 H   0  0  0  0  0  0  0  0  0  0  0  0
  142.0977   75.7983  217.5811 H   0  0  0  0  0  0  0  0  0  0  0  0
  142.5110   77.4787  217.8506 H   0  0  0  0  0  0  0  0  0  0  0  0
  144.2007   75.4946  218.5950 H   0  0  0  0  0  0  0  0  0  0  0  0
  144.0558   76.9209  219.6232 H   0  0  0  0  0  0  0  0  0  0  0  0
  143.4770   75.3770  221.1851 H   0  0  0  0  0  0  0  0  0  0  0  0
  144.0997   73.3640  221.7440 H   0  0  0  0  0  0  0  0  0  0  0  0
  144.1895   70.9311  221.3120 H   0  0  0  0  0  0  0  0  0  0  0  0
  141.8813   71.4168  217.7284 H   0  0  0  0  0  0  0  0  0  0  0  0
  141.7951   73.8542  218.1645 H   0  0  0  0  0  0  0  0  0  0  0  0
  138.9466   69.1778  222.5255 H   0  0  0  0  0  0  0  0  0  0  0  0
  138.7567   67.8966  224.6284 H   0  0  0  0  0  0  0  0  0  0  0  0
  139.1321   67.6904  226.9991 H   0  0  0  0  0  0  0  0  0  0  0  0
  141.0633   70.9156  229.0211 H   0  0  0  0  0  0  0  0  0  0  0  0
  141.2531   72.1930  226.9530 H   0  0  0  0  0  0  0  0  0  0  0  0
  1  2  2  0
  2  3  1  0
  3  4  1  0
  4  5  1  0
  5  6  2  0
  5  7  1  0
  7  8  1  0
  8  9  1  0
  9 10  1  0
 10 11  1  0
 11 12  1  0
 12 13  2  0
 13 14  1  0
 14 15  2  0
 15 16  1  0
 16 17  1  0
 17 18  1  0
 17 19  1  0
 17 20  1  0
 15 21  1  0
 21 22  2  0
  2 23  1  0
 23 24  2  0
 24 25  1  0
 25 26  2  0
 26 27  1  0
 27 28  2  0
 28 29  1  0
 28 30  1  0
 30 31  2  0
 31 32  1  0
 32 33  2  0
 11  7  1  0
 22 12  1  0
 33 23  1  0
 32 26  1  0
  3 34  1  0
  4 35  1  0
  4 36  1  0
  8 37  1  0
  8 38  1  0
  9 39  1  0
  9 40  1  0
 10 41  1  0
 10 42  1  0
 11 43  1  1
 13 44  1  0
 14 45  1  0
 21 46  1  0
 22 47  1  0
 24 48  1  0
 25 49  1  0
 27 50  1  0
 30 51  1  0
 31 52  1  0
M  END
>  <smiles>  (2) 
O=C(NCC(=O)N1CCCC1c1ccc(OC(F)(F)F)cc1)c1ccc2cc(F)ccc2n1

>  <score_type>  (2) 
oracle

>  <origin>  (2) 
autodockgpu

>  <m_score__min__energy>  (2) 
-7.9100000000000001

>  <m_primary>  (2) 
energy

>  <rmsd>  (2) 
1.9268181431889475

>  <m_score__min__rmsd>  (2) 
1.9268181431889475

>  <meeko>  (2) 
{"free_energy": -6.88, "intermolecular_energy": -8.97, "internal_energy": -2.39, "cluster_size": 22, "cluster_id": 1, "rank_in_cluster": 22}

>  <energy>  (2) 
-7.82

>  <cluster_rmsd>  (2) 
0.42

>  <cluster>  (2) 
1

$$$$

     RDKit          3D

 52 55  0  0  0  0  0  0  0  0999 V2000
  140.1050   70.8120  221.2960 O   0  0  0  0  0  0  0  0  0  0  0  0
  139.9260   71.4230  222.3950 C   0  0  0  0  0  0  0  0  0  0  0  0
  139.7430   72.8380  222.4560 N   0  0  0  0  0  0  0  0  0  0  0  0
  139.7560   73.6190  221.2650 C   0  0  0  0  0  0  0  0  0  0  0  0
  139.9790   75.0420  221.6290 C   0  0  0  0  0  0  0  0  0  0  0  0
  139.4750   75.4760  222.7180 O   0  0  0  0  0  0  0  0  0  0  0  0
  140.7440   75.9220  220.7780 N   0  0  0  0  0  0  0  0  0  0  0  0
  142.0920   75.6820  220.3890 C   0  0  0  0  0  0  0  0  0  0  0  0
  142.5910   77.0310  219.9330 C   0  0  0  0  0  0  0  0  0  0  0  0
  141.3500   77.6890  219.3960 C   0  0  0  0  0  0  0  0  0  0  0  0
  140.2450   77.1470  220.2150 C   0  0  2  0  0  0  0  0  0  0  0  0
  139.8360   78.0250  221.3620 C   0  0  0  0  0  0  0  0  0  0  0  0
  140.8300   78.5300  222.1700 C   0  0  0  0  0  0  0  0  0  0  0  0
  140.4730   79.3460  223.2300 C   0  0  0  0  0  0  0  0  0  0  0  0
  139.1640   79.6780  223.5140 C   0  0  0  0  0  0  0  0  0  0  0  0
  138.8330   80.5120  224.6010 O   0  0  0  0  0  0  0  0  0  0  0  0
  137.5700   81.1750  224.5730 C   0  0  0  0  0  0  0  0  0  0  0  0
  137.4730   81.8980  223.3810 F   0  0  0  0  0  0  0  0  0  0  0  0
  137.4210   82.0940  225.5780 F   0  0  0  0  0  0  0  0  0  0  0  0
  136.5610   80.2380  224.6050 F   0  0  0  0  0  0  0  0  0  0  0  0
  138.1680   79.1610  222.6870 C   0  0  0  0  0  0  0  0  0  0  0  0
  138.5240   78.3420  221.6240 C   0  0  0  0  0  0  0  0  0  0  0  0
  139.9040   70.6570  223.6470 C   0  0  0  0  0  0  0  0  0  0  0  0
  139.3010   69.4110  223.6780 C   0  0  0  0  0  0  0  0  0  0  0  0
  139.2650   68.6640  224.8400 C   0  0  0  0  0  0  0  0  0  0  0  0
  139.8390   69.1540  226.0130 C   0  0  0  0  0  0  0  0  0  0  0  0
  139.7950   68.3940  227.1710 C   0  0  0  0  0  0  0  0  0  0  0  0
  140.3690   68.8980  228.3160 C   0  0  0  0  0  0  0  0  0  0  0  0
  140.3420   68.1760  229.4680 F   0  0  0  0  0  0  0  0  0  0  0  0
  140.9550   70.1420  228.2310 C   0  0  0  0  0  0  0  0  0  0  0  0
  141.0020   70.8950  227.0950 C   0  0  0  0  0  0  0  0  0  0  0  0
  140.4220   70.3860  225.9380 C   0  0  0  0  0  0  0  0  0  0  0  0
  140.4540   71.1170  224.7890 N   0  0  0  0  0  0  0  0  0  0  0  0
  139.5990   73.2740  223.4160 H   0  0  0  0  0  0  0  0  0  0  0  0
  140.5663   73.2745  220.6057 H   0  0  0  0  0  0  0  0  0  0  0  0
  138.7962   73.5137  220.7381 H   0  0  0  0  0  0  0  0  0  0  0  0
  142.6841   75.3142  221.2400 H   0  0  0  0  0  0  0  0  0  0  0  0
  142.1742   74.9150  219.6048 H   0  0  0  0  0  0  0  0  0  0  0  0
  143.0087   77.6029  220.7747 H   0  0  0  0  0  0  0  0  0  0  0  0
  143.4010   76.9648  219.1917 H   0  0  0  0  0  0  0  0  0  0  0  0
  141.4131   78.7816  219.5062 H   0  0  0  0  0  0  0  0  0  0  0  0
  141.2067   77.4885  218.3240 H   0  0  0  0  0  0  0  0  0  0  0  0
  139.3615   77.0403  219.5684 H   0  0  0  0  0  0  0  0  0  0  0  0
  141.8861   78.2900  221.9773 H   0  0  0  0  0  0  0  0  0  0  0  0
  141.2686   79.7477  223.8748 H   0  0  0  0  0  0  0  0  0  0  0  0
  137.1107   79.3995  222.8747 H   0  0  0  0  0  0  0  0  0  0  0  0
  137.7352   77.9358  220.9738 H   0  0  0  0  0  0  0  0  0  0  0  0
  138.8429   69.0090  222.7623 H   0  0  0  0  0  0  0  0  0  0  0  0
  138.7805   67.6765  224.8399 H   0  0  0  0  0  0  0  0  0  0  0  0
  139.3104   67.4065  227.1750 H   0  0  0  0  0  0  0  0  0  0  0  0
  141.4158   70.5555  229.1403 H   0  0  0  0  0  0  0  0  0  0  0  0
  141.4874   71.8821  227.0938 H   0  0  0  0  0  0  0  0  0  0  0  0
  1  2  2  0
  2  3  1  0
  3  4  1  0
  4  5  1  0
  5  6  2  0
  5  7  1  0
  7  8  1  0
  8  9  1  0
  9 10  1  0
 10 11  1  0
 11 12  1  0
 12 13  2  0
 13 14  1  0
 14 15  2  0
 15 16  1  0
 16 17  1  0
 17 18  1  0
 17 19  1  0
 17 20  1  0
 15 21  1  0
 21 22  2  0
  2 23  1  0
 23 24  2  0
 24 25  1  0
 25 26  2  0
 26 27  1  0
 27 28  2  0
 28 29  1  0
 28 30  1  0
 30 31  2  0
 31 32  1  0
 32 33  2  0
 11  7  1  0
 22 12  1  0
 33 23  1  0
 32 26  1  0
  3 34  1  0
  4 35  1  0
  4 36  1  0
  8 37  1  0
  8 38  1  0
  9 39  1  0
  9 40  1  0
 10 41  1  0
 10 42  1  0
 11 43  1  6
 13 44  1  0
 14 45  1  0
 21 46  1  0
 22 47  1  0
 24 48  1  0
 25 49  1  0
 27 50  1  0
 30 51  1  0
 31 52  1  0
M  END
>  <smiles>  (3) 
O=C(NCC(=O)N1CCCC1c1ccc(OC(F)(F)F)cc1)c1ccc2cc(F)ccc2n1

>  <score_type>  (3) 
oracle

>  <origin>  (3) 
autodockgpu

>  <m_score__min__energy>  (3) 
-7.9100000000000001

>  <m_primary>  (3) 
energy

>  <rmsd>  (3) 
1.8624930260175072

>  <m_score__min__rmsd>  (3) 
1.8624930260175072

>  <meeko>  (3) 
{"free_energy": -7.63, "intermolecular_energy": -9.72, "internal_energy": -1.89, "cluster_size": 4, "cluster_id": 3, "rank_in_cluster": 3}

>  <energy>  (3) 
-7.81

>  <cluster_rmsd>  (3) 
0.42

>  <cluster>  (3) 
1

$$$$

     RDKit          3D

 52 55  0  0  0  0  0  0  0  0999 V2000
  139.9560   71.1650  220.8110 O   0  0  0  0  0  0  0  0  0  0  0  0
  140.1260   71.8160  221.8880 C   0  0  0  0  0  0  0  0  0  0  0  0
  140.4410   73.2090  221.8920 N   0  0  0  0  0  0  0  0  0  0  0  0
  140.5760   73.9210  220.6660 C   0  0  0  0  0  0  0  0  0  0  0  0
  141.0410   75.3000  220.9640 C   0  0  0  0  0  0  0  0  0  0  0  0
  141.0570   75.6860  222.1800 O   0  0  0  0  0  0  0  0  0  0  0  0
  141.4650   76.1920  219.9100 N   0  0  0  0  0  0  0  0  0  0  0  0
  140.5890   76.7540  218.9390 C   0  0  0  0  0  0  0  0  0  0  0  0
  141.5050   77.1970  217.8270 C   0  0  0  0  0  0  0  0  0  0  0  0
  142.7760   77.5450  218.5510 C   0  0  0  0  0  0  0  0  0  0  0  0
  142.8210   76.6270  219.7090 C   0  0  2  0  0  0  0  0  0  0  0  0
  143.6520   75.3960  219.4920 C   0  0  0  0  0  0  0  0  0  0  0  0
  143.5860   74.7870  218.2580 C   0  0  0  0  0  0  0  0  0  0  0  0
  144.3490   73.6530  218.0370 C   0  0  0  0  0  0  0  0  0  0  0  0
  145.1750   73.1040  218.9960 C   0  0  0  0  0  0  0  0  0  0  0  0
  145.9390   71.9490  218.7400 O   0  0  0  0  0  0  0  0  0  0  0  0
  145.3140   70.6800  218.9230 C   0  0  0  0  0  0  0  0  0  0  0  0
  144.3890   70.7860  219.9640 F   0  0  0  0  0  0  0  0  0  0  0  0
  146.1890   69.6970  219.3020 F   0  0  0  0  0  0  0  0  0  0  0  0
  144.6450   70.3300  217.7710 F   0  0  0  0  0  0  0  0  0  0  0  0
  145.2320   73.7320  220.2400 C   0  0  0  0  0  0  0  0  0  0  0  0
  144.4680   74.8690  220.4640 C   0  0  0  0  0  0  0  0  0  0  0  0
  139.9950   71.1220  223.1740 C   0  0  0  0  0  0  0  0  0  0  0  0
  139.3930   69.8750  223.2220 C   0  0  0  0  0  0  0  0  0  0  0  0
  139.2550   69.1950  224.4180 C   0  0  0  0  0  0  0  0  0  0  0  0
  139.7230   69.7530  225.6070 C   0  0  0  0  0  0  0  0  0  0  0  0
  139.5780   69.0600  226.7970 C   0  0  0  0  0  0  0  0  0  0  0  0
  140.0480   69.6310  227.9580 C   0  0  0  0  0  0  0  0  0  0  0  0
  139.9210   68.9740  229.1420 F   0  0  0  0  0  0  0  0  0  0  0  0
  140.6390   70.8710  227.8540 C   0  0  0  0  0  0  0  0  0  0  0  0
  140.7850   71.5590  226.6860 C   0  0  0  0  0  0  0  0  0  0  0  0
  140.3100   70.9830  225.5130 C   0  0  0  0  0  0  0  0  0  0  0  0
  140.4420   71.6480  224.3320 N   0  0  0  0  0  0  0  0  0  0  0  0
  140.5670   73.6820  222.8370 H   0  0  0  0  0  0  0  0  0  0  0  0
  141.3101   73.4139  220.0225 H   0  0  0  0  0  0  0  0  0  0  0  0
  139.6078   73.9566  220.1451 H   0  0  0  0  0  0  0  0  0  0  0  0
  139.8726   76.0014  218.5779 H   0  0  0  0  0  0  0  0  0  0  0  0
  139.9867   77.5809  219.3433 H   0  0  0  0  0  0  0  0  0  0  0  0
  141.6716   76.3840  217.1050 H   0  0  0  0  0  0  0  0  0  0  0  0
  141.0989   78.0336  217.2395 H   0  0  0  0  0  0  0  0  0  0  0  0
  143.6478   77.3876  217.8989 H   0  0  0  0  0  0  0  0  0  0  0  0
  142.7997   78.6005  218.8596 H   0  0  0  0  0  0  0  0  0  0  0  0
  143.2718   77.1658  220.5555 H   0  0  0  0  0  0  0  0  0  0  0  0
  142.9408   75.1931  217.4651 H   0  0  0  0  0  0  0  0  0  0  0  0
  144.2941   73.1675  217.0515 H   0  0  0  0  0  0  0  0  0  0  0  0
  145.8762   73.3301  221.0359 H   0  0  0  0  0  0  0  0  0  0  0  0
  144.5171   75.3616  221.4463 H   0  0  0  0  0  0  0  0  0  0  0  0
  139.0188   69.4186  222.2937 H   0  0  0  0  0  0  0  0  0  0  0  0
  138.7725   68.2066  224.4315 H   0  0  0  0  0  0  0  0  0  0  0  0
  139.0961   68.0713  226.8143 H   0  0  0  0  0  0  0  0  0  0  0  0
  141.0186   71.3374  228.7751 H   0  0  0  0  0  0  0  0  0  0  0  0
  141.2676   72.5474  226.6720 H   0  0  0  0  0  0  0  0  0  0  0  0
  1  2  2  0
  2  3  1  0
  3  4  1  0
  4  5  1  0
  5  6  2  0
  5  7  1  0
  7  8  1  0
  8  9  1  0
  9 10  1  0
 10 11  1  0
 11 12  1  0
 12 13  2  0
 13 14  1  0
 14 15  2  0
 15 16  1  0
 16 17  1  0
 17 18  1  0
 17 19  1  0
 17 20  1  0
 15 21  1  0
 21 22  2  0
  2 23  1  0
 23 24  2  0
 24 25  1  0
 25 26  2  0
 26 27  1  0
 27 28  2  0
 28 29  1  0
 28 30  1  0
 30 31  2  0
 31 32  1  0
 32 33  2  0
 11  7  1  0
 22 12  1  0
 33 23  1  0
 32 26  1  0
  3 34  1  0
  4 35  1  0
  4 36  1  0
  8 37  1  0
  8 38  1  0
  9 39  1  0
  9 40  1  0
 10 41  1  0
 10 42  1  0
 11 43  1  1
 13 44  1  0
 14 45  1  0
 21 46  1  0
 22 47  1  0
 24 48  1  0
 25 49  1  0
 27 50  1  0
 30 51  1  0
 31 52  1  0
M  END
>  <smiles>  (4) 
O=C(NCC(=O)N1CCCC1c1ccc(OC(F)(F)F)cc1)c1ccc2cc(F)ccc2n1

>  <score_type>  (4) 
oracle

>  <origin>  (4) 
autodockgpu

>  <m_score__min__energy>  (4) 
-7.9100000000000001

>  <m_primary>  (4) 
energy

>  <rmsd>  (4) 
1.7721717911378922

>  <m_score__min__rmsd>  (4) 
1.7721717911378922

>  <meeko>  (4) 
{"free_energy": -7.57, "intermolecular_energy": -9.66, "internal_energy": -2.35, "cluster_size": 22, "cluster_id": 1, "rank_in_cluster": 15}

>  <energy>  (4) 
-7.8

>  <cluster_rmsd>  (4) 
0.45

>  <cluster>  (4) 
1

$$$$

     RDKit          3D

 52 55  0  0  0  0  0  0  0  0999 V2000
  140.9910   71.1430  221.0440 O   0  0  0  0  0  0  0  0  0  0  0  0
  140.6060   71.8540  222.0240 C   0  0  0  0  0  0  0  0  0  0  0  0
  140.4570   73.2710  221.9210 N   0  0  0  0  0  0  0  0  0  0  0  0
  140.7410   73.9400  220.6950 C   0  0  0  0  0  0  0  0  0  0  0  0
  141.1240   75.3430  220.9940 C   0  0  0  0  0  0  0  0  0  0  0  0
  141.0910   75.7360  222.2080 O   0  0  0  0  0  0  0  0  0  0  0  0
  141.5250   76.2500  219.9450 N   0  0  0  0  0  0  0  0  0  0  0  0
  140.6240   76.8500  219.0210 C   0  0  0  0  0  0  0  0  0  0  0  0
  141.5060   77.3010  217.8840 C   0  0  0  0  0  0  0  0  0  0  0  0
  142.8110   77.6080  218.5650 C   0  0  0  0  0  0  0  0  0  0  0  0
  142.8810   76.6630  219.7000 C   0  0  2  0  0  0  0  0  0  0  0  0
  143.6780   75.4220  219.4240 C   0  0  0  0  0  0  0  0  0  0  0  0
  144.4190   74.8920  220.4570 C   0  0  0  0  0  0  0  0  0  0  0  0
  145.1580   73.7440  220.2230 C   0  0  0  0  0  0  0  0  0  0  0  0
  145.1840   73.1050  219.0010 C   0  0  0  0  0  0  0  0  0  0  0  0
  145.9460   71.9380  218.7950 O   0  0  0  0  0  0  0  0  0  0  0  0
  145.2990   70.6790  218.9710 C   0  0  0  0  0  0  0  0  0  0  0  0
  144.3820   70.7910  220.0190 F   0  0  0  0  0  0  0  0  0  0  0  0
  146.1590   69.6760  219.3350 F   0  0  0  0  0  0  0  0  0  0  0  0
  144.6170   70.3510  217.8190 F   0  0  0  0  0  0  0  0  0  0  0  0
  144.4280   73.6520  217.9650 C   0  0  0  0  0  0  0  0  0  0  0  0
  143.6880   74.8030  218.1970 C   0  0  0  0  0  0  0  0  0  0  0  0
  140.3020   71.2070  223.3040 C   0  0  0  0  0  0  0  0  0  0  0  0
  139.5750   70.0280  223.3220 C   0  0  0  0  0  0  0  0  0  0  0  0
  139.2730   69.3940  224.5120 C   0  0  0  0  0  0  0  0  0  0  0  0
  139.6980   69.9300  225.7270 C   0  0  0  0  0  0  0  0  0  0  0  0
  139.3880   69.2820  226.9110 C   0  0  0  0  0  0  0  0  0  0  0  0
  139.8190   69.8300  228.0980 C   0  0  0  0  0  0  0  0  0  0  0  0
  139.5310   69.2170  229.2770 F   0  0  0  0  0  0  0  0  0  0  0  0
  140.5400   71.0020  228.0250 C   0  0  0  0  0  0  0  0  0  0  0  0
  140.8480   71.6450  226.8630 C   0  0  0  0  0  0  0  0  0  0  0  0
  140.4130   71.0920  225.6640 C   0  0  0  0  0  0  0  0  0  0  0  0
  140.7060   71.7130  224.4870 N   0  0  0  0  0  0  0  0  0  0  0  0
  140.1300   73.7950  222.7870 H   0  0  0  0  0  0  0  0  0  0  0  0
  141.5697   73.4322  220.1799 H   0  0  0  0  0  0  0  0  0  0  0  0
  139.8529   73.9248  220.0461 H   0  0  0  0  0  0  0  0  0  0  0  0
  139.8798   76.1193  218.6713 H   0  0  0  0  0  0  0  0  0  0  0  0
  140.0538   77.6786  219.4662 H   0  0  0  0  0  0  0  0  0  0  0  0
  141.6283   76.5017  217.1382 H   0  0  0  0  0  0  0  0  0  0  0  0
  141.0944   78.1587  217.3318 H   0  0  0  0  0  0  0  0  0  0  0  0
  143.6537   77.4483  217.8762 H   0  0  0  0  0  0  0  0  0  0  0  0
  142.8688   78.6557  218.8951 H   0  0  0  0  0  0  0  0  0  0  0  0
  143.3743   77.1738  220.5401 H   0  0  0  0  0  0  0  0  0  0  0  0
  144.4239   75.3705  221.4475 H   0  0  0  0  0  0  0  0  0  0  0  0
  145.7506   73.3232  221.0487 H   0  0  0  0  0  0  0  0  0  0  0  0
  144.4181   73.1759  216.9734 H   0  0  0  0  0  0  0  0  0  0  0  0
  143.0935   75.2314  217.3766 H   0  0  0  0  0  0  0  0  0  0  0  0
  139.2324   69.5892  222.3733 H   0  0  0  0  0  0  0  0  0  0  0  0
  138.6929   68.4594  224.5007 H   0  0  0  0  0  0  0  0  0  0  0  0
  138.8084   68.3471  226.9031 H   0  0  0  0  0  0  0  0  0  0  0  0
  140.8904   71.4486  228.9672 H   0  0  0  0  0  0  0  0  0  0  0  0
  141.4275   72.5799  226.8739 H   0  0  0  0  0  0  0  0  0  0  0  0
  1  2  2  0
  2  3  1  0
  3  4  1  0
  4  5  1  0
  5  6  2  0
  5  7  1  0
  7  8  1  0
  8  9  1  0
  9 10  1  0
 10 11  1  0
 11 12  1  0
 12 13  2  0
 13 14  1  0
 14 15  2  0
 15 16  1  0
 16 17  1  0
 17 18  1  0
 17 19  1  0
 17 20  1  0
 15 21  1  0
 21 22  2  0
  2 23  1  0
 23 24  2  0
 24 25  1  0
 25 26  2  0
 26 27  1  0
 27 28  2  0
 28 29  1  0
 28 30  1  0
 30 31  2  0
 31 32  1  0
 32 33  2  0
 11  7  1  0
 22 12  1  0
 33 23  1  0
 32 26  1  0
  3 34  1  0
  4 35  1  0
  4 36  1  0
  8 37  1  0
  8 38  1  0
  9 39  1  0
  9 40  1  0
 10 41  1  0
 10 42  1  0
 11 43  1  1
 13 44  1  0
 14 45  1  0
 21 46  1  0
 22 47  1  0
 24 48  1  0
 25 49  1  0
 27 50  1  0
 30 51  1  0
 31 52  1  0
M  END
>  <smiles>  (5) 
O=C(NCC(=O)N1CCCC1c1ccc(OC(F)(F)F)cc1)c1ccc2cc(F)ccc2n1

>  <score_type>  (5) 
oracle

>  <origin>  (5) 
autodockgpu

>  <m_score__min__energy>  (5) 
-7.9100000000000001

>  <m_primary>  (5) 
energy

>  <rmsd>  (5) 
1.9094220224715088

>  <m_score__min__rmsd>  (5) 
1.9094220224715088

>  <meeko>  (5) 
{"free_energy": -7.77, "intermolecular_energy": -9.86, "internal_energy": -2.24, "cluster_size": 22, "cluster_id": 1, "rank_in_cluster": 6}

>  <energy>  (5) 
-7.79

>  <cluster_rmsd>  (5) 
0.35

>  <cluster>  (5) 
1

$$$$

     RDKit          3D

 52 55  0  0  0  0  0  0  0  0999 V2000
  140.4840   77.0360  218.4370 O   0  0  0  0  0  0  0  0  0  0  0  0
  141.6990   77.0120  218.8060 C   0  0  0  0  0  0  0  0  0  0  0  0
  142.3980   78.1960  219.1950 N   0  0  0  0  0  0  0  0  0  0  0  0
  141.7400   79.4600  219.1810 C   0  0  0  0  0  0  0  0  0  0  0  0
  140.6510   79.4430  220.1910 C   0  0  0  0  0  0  0  0  0  0  0  0
  139.4430   79.4160  219.7820 O   0  0  0  0  0  0  0  0  0  0  0  0
  140.9420   79.4570  221.6050 N   0  0  0  0  0  0  0  0  0  0  0  0
  142.1140   80.0300  222.1740 C   0  0  0  0  0  0  0  0  0  0  0  0
  142.2020   79.4080  223.5450 C   0  0  0  0  0  0  0  0  0  0  0  0
  140.7610   79.1720  223.9040 C   0  0  0  0  0  0  0  0  0  0  0  0
  140.0860   78.8990  222.6170 C   0  0  2  0  0  0  0  0  0  0  0  0
  139.9210   77.4410  222.3010 C   0  0  0  0  0  0  0  0  0  0  0  0
  141.0570   76.7110  222.0300 C   0  0  0  0  0  0  0  0  0  0  0  0
  140.9250   75.3630  221.7410 C   0  0  0  0  0  0  0  0  0  0  0  0
  139.7070   74.7160  221.7130 C   0  0  0  0  0  0  0  0  0  0  0  0
  139.6060   73.3430  221.4150 O   0  0  0  0  0  0  0  0  0  0  0  0
  140.6050   72.4710  221.9400 C   0  0  0  0  0  0  0  0  0  0  0  0
  140.5940   72.5670  223.3340 F   0  0  0  0  0  0  0  0  0  0  0  0
  141.8750   72.8120  221.5550 F   0  0  0  0  0  0  0  0  0  0  0  0
  140.3120   71.1730  221.5840 F   0  0  0  0  0  0  0  0  0  0  0  0
  138.5650   75.4680  221.9910 C   0  0  0  0  0  0  0  0  0  0  0  0
  138.6950   76.8190  222.2800 C   0  0  0  0  0  0  0  0  0  0  0  0
  142.4150   75.7320  218.8360 C   0  0  0  0  0  0  0  0  0  0  0  0
  141.9980   74.6940  218.0200 C   0  0  0  0  0  0  0  0  0  0  0  0
  142.6520   73.4760  218.0250 C   0  0  0  0  0  0  0  0  0  0  0  0
  143.7510   73.2670  218.8570 C   0  0  0  0  0  0  0  0  0  0  0  0
  144.3970   72.0410  218.8500 C   0  0  0  0  0  0  0  0  0  0  0  0
  145.4800   71.8590  219.6790 C   0  0  0  0  0  0  0  0  0  0  0  0
  146.1340   70.6670  219.6950 F   0  0  0  0  0  0  0  0  0  0  0  0
  145.8540   72.9240  220.4700 C   0  0  0  0  0  0  0  0  0  0  0  0
  145.2230   74.1320  220.4810 C   0  0  0  0  0  0  0  0  0  0  0  0
  144.1280   74.3170  219.6440 C   0  0  0  0  0  0  0  0  0  0  0  0
  143.4800   75.5150  219.6350 N   0  0  0  0  0  0  0  0  0  0  0  0
  143.4140   78.0920  219.4910 H   0  0  0  0  0  0  0  0  0  0  0  0
  142.4600   80.2545  219.4267 H   0  0  0  0  0  0  0  0  0  0  0  0
  141.3210   79.6526  218.1823 H   0  0  0  0  0  0  0  0  0  0  0  0
  143.0014   79.7794  221.5743 H   0  0  0  0  0  0  0  0  0  0  0  0
  142.0701   81.1285  222.2118 H   0  0  0  0  0  0  0  0  0  0  0  0
  142.7617   78.4615  223.5143 H   0  0  0  0  0  0  0  0  0  0  0  0
  142.7319   80.0392  224.2736 H   0  0  0  0  0  0  0  0  0  0  0  0
  140.6673   78.3096  224.5804 H   0  0  0  0  0  0  0  0  0  0  0  0
  140.3194   80.0325  224.4280 H   0  0  0  0  0  0  0  0  0  0  0  0
  139.0740   79.3275  222.6641 H   0  0  0  0  0  0  0  0  0  0  0  0
  142.0479   77.1884  222.0428 H   0  0  0  0  0  0  0  0  0  0  0  0
  141.8331   74.7815  221.5238 H   0  0  0  0  0  0  0  0  0  0  0  0
  137.5720   74.9948  221.9812 H   0  0  0  0  0  0  0  0  0  0  0  0
  137.7923   77.4085  222.4983 H   0  0  0  0  0  0  0  0  0  0  0  0
  141.1325   74.8408  217.3572 H   0  0  0  0  0  0  0  0  0  0  0  0
  142.3027   72.6660  217.3678 H   0  0  0  0  0  0  0  0  0  0  0  0
  144.0505   71.2287  218.1941 H   0  0  0  0  0  0  0  0  0  0  0  0
  146.7189   72.7901  221.1364 H   0  0  0  0  0  0  0  0  0  0  0  0
  145.5722   74.9427  221.1374 H   0  0  0  0  0  0  0  0  0  0  0  0
  1  2  2  0
  2  3  1  0
  3  4  1  0
  4  5  1  0
  5  6  2  0
  5  7  1  0
  7  8  1  0
  8  9  1  0
  9 10  1  0
 10 11  1  0
 11 12  1  0
 12 13  2  0
 13 14  1  0
 14 15  2  0
 15 16  1  0
 16 17  1  0
 17 18  1  0
 17 19  1  0
 17 20  1  0
 15 21  1  0
 21 22  2  0
  2 23  1  0
 23 24  2  0
 24 25  1  0
 25 26  2  0
 26 27  1  0
 27 28  2  0
 28 29  1  0
 28 30  1  0
 30 31  2  0
 31 32  1  0
 32 33  2  0
 11  7  1  0
 22 12  1  0
 33 23  1  0
 32 26  1  0
  3 34  1  0
  4 35  1  0
  4 36  1  0
  8 37  1  0
  8 38  1  0
  9 39  1  0
  9 40  1  0
 10 41  1  0
 10 42  1  0
 11 43  1  1
 13 44  1  0
 14 45  1  0
 21 46  1  0
 22 47  1  0
 24 48  1  0
 25 49  1  0
 27 50  1  0
 30 51  1  0
 31 52  1  0
M  END
>  <smiles>  (6) 
O=C(NCC(=O)N1CCCC1c1ccc(OC(F)(F)F)cc1)c1ccc2cc(F)ccc2n1

>  <score_type>  (6) 
oracle

>  <origin>  (6) 
autodockgpu

>  <m_score__min__energy>  (6) 
-7.9100000000000001

>  <m_primary>  (6) 
energy

>  <rmsd>  (6) 
7.627879833125527

>  <m_score__min__rmsd>  (6) 
7.627879833125527

>  <meeko>  (6) 
{"free_energy": -6.07, "intermolecular_energy": -8.16, "internal_energy": -2.93, "cluster_size": 3, "cluster_id": 7, "rank_in_cluster": 2}

>  <energy>  (6) 
-7.77

>  <cluster_rmsd>  (6) 
0.4

>  <cluster>  (6) 
1

$$$$

     RDKit          3D

 52 55  0  0  0  0  0  0  0  0999 V2000
  133.5730   70.0450  226.7120 O   0  0  0  0  0  0  0  0  0  0  0  0
  133.8940   71.1420  226.1560 C   0  0  0  0  0  0  0  0  0  0  0  0
  134.8580   71.2060  225.1040 N   0  0  0  0  0  0  0  0  0  0  0  0
  135.5000   70.0210  224.6410 C   0  0  0  0  0  0  0  0  0  0  0  0
  136.2760   70.3470  223.4160 C   0  0  0  0  0  0  0  0  0  0  0  0
  136.1960   71.5290  222.9440 O   0  0  0  0  0  0  0  0  0  0  0  0
  137.1020   69.3560  222.7680 N   0  0  0  0  0  0  0  0  0  0  0  0
  136.6360   68.0770  222.3510 C   0  0  0  0  0  0  0  0  0  0  0  0
  137.8940   67.2620  222.1810 C   0  0  0  0  0  0  0  0  0  0  0  0
  138.9130   68.2910  221.7760 C   0  0  0  0  0  0  0  0  0  0  0  0
  138.4950   69.5340  222.4590 C   0  0  2  0  0  0  0  0  0  0  0  0
  139.2050   69.7980  223.7550 C   0  0  0  0  0  0  0  0  0  0  0  0
  138.9990   68.9130  224.7900 C   0  0  0  0  0  0  0  0  0  0  0  0
  139.6490   69.1370  225.9920 C   0  0  0  0  0  0  0  0  0  0  0  0
  140.4950   70.2070  226.2010 C   0  0  0  0  0  0  0  0  0  0  0  0
  141.1420   70.4070  227.4360 O   0  0  0  0  0  0  0  0  0  0  0  0
  140.9980   71.6780  228.0660 C   0  0  0  0  0  0  0  0  0  0  0  0
  141.9530   71.7840  229.0810 F   0  0  0  0  0  0  0  0  0  0  0  0
  139.7850   71.8420  228.6800 F   0  0  0  0  0  0  0  0  0  0  0  0
  141.2230   72.6750  227.1420 F   0  0  0  0  0  0  0  0  0  0  0  0
  140.6940   71.0940  225.1420 C   0  0  0  0  0  0  0  0  0  0  0  0
  140.0440   70.8720  223.9370 C   0  0  0  0  0  0  0  0  0  0  0  0
  133.2560   72.3850  226.6010 C   0  0  0  0  0  0  0  0  0  0  0  0
  132.0220   72.3380  227.2270 C   0  0  0  0  0  0  0  0  0  0  0  0
  131.3960   73.4920  227.6590 C   0  0  0  0  0  0  0  0  0  0  0  0
  131.9990   74.7350  227.4740 C   0  0  0  0  0  0  0  0  0  0  0  0
  131.3590   75.8830  227.9130 C   0  0  0  0  0  0  0  0  0  0  0  0
  131.9750   77.0990  227.7200 C   0  0  0  0  0  0  0  0  0  0  0  0
  131.3720   78.2430  228.1400 F   0  0  0  0  0  0  0  0  0  0  0  0
  133.2020   77.0910  227.0940 C   0  0  0  0  0  0  0  0  0  0  0  0
  133.8370   75.9650  226.6590 C   0  0  0  0  0  0  0  0  0  0  0  0
  133.2160   74.7360  226.8540 C   0  0  0  0  0  0  0  0  0  0  0  0
  133.8270   73.5950  226.4300 N   0  0  0  0  0  0  0  0  0  0  0  0
  135.0710   72.1620  224.6910 H   0  0  0  0  0  0  0  0  0  0  0  0
  136.1784   69.6397  225.4184 H   0  0  0  0  0  0  0  0  0  0  0  0
  134.7476   69.2513  224.4143 H   0  0  0  0  0  0  0  0  0  0  0  0
  135.9829   67.6314  223.1158 H   0  0  0  0  0  0  0  0  0  0  0  0
  136.0383   68.1265  221.4289 H   0  0  0  0  0  0  0  0  0  0  0  0
  138.1790   66.7737  223.1246 H   0  0  0  0  0  0  0  0  0  0  0  0
  137.7867   66.4475  221.4495 H   0  0  0  0  0  0  0  0  0  0  0  0
  139.9186   67.9891  222.1041 H   0  0  0  0  0  0  0  0  0  0  0  0
  138.9620   68.4162  220.6842 H   0  0  0  0  0  0  0  0  0  0  0  0
  138.7241   70.3817  221.7965 H   0  0  0  0  0  0  0  0  0  0  0  0
  138.3325   68.0469  224.6645 H   0  0  0  0  0  0  0  0  0  0  0  0
  139.4834   68.4297  226.8180 H   0  0  0  0  0  0  0  0  0  0  0  0
  141.3602   71.9611  225.2619 H   0  0  0  0  0  0  0  0  0  0  0  0
  140.2039   71.5736  223.1050 H   0  0  0  0  0  0  0  0  0  0  0  0
  131.5316   71.3658  227.3832 H   0  0  0  0  0  0  0  0  0  0  0  0
  130.4149   73.4291  228.1524 H   0  0  0  0  0  0  0  0  0  0  0  0
  130.3776   75.8239  228.4062 H   0  0  0  0  0  0  0  0  0  0  0  0
  133.7031   78.0571  226.9343 H   0  0  0  0  0  0  0  0  0  0  0  0
  134.8179   76.0275  226.1652 H   0  0  0  0  0  0  0  0  0  0  0  0
  1  2  2  0
  2  3  1  0
  3  4  1  0
  4  5  1  0
  5  6  2  0
  5  7  1  0
  7  8  1  0
  8  9  1  0
  9 10  1  0
 10 11  1  0
 11 12  1  0
 12 13  2  0
 13 14  1  0
 14 15  2  0
 15 16  1  0
 16 17  1  0
 17 18  1  0
 17 19  1  0
 17 20  1  0
 15 21  1  0
 21 22  2  0
  2 23  1  0
 23 24  2  0
 24 25  1  0
 25 26  2  0
 26 27  1  0
 27 28  2  0
 28 29  1  0
 28 30  1  0
 30 31  2  0
 31 32  1  0
 32 33  2  0
 11  7  1  0
 22 12  1  0
 33 23  1  0
 32 26  1  0
  3 34  1  0
  4 35  1  0
  4 36  1  0
  8 37  1  0
  8 38  1  0
  9 39  1  0
  9 40  1  0
 10 41  1  0
 10 42  1  0
 11 43  1  6
 13 44  1  0
 14 45  1  0
 21 46  1  0
 22 47  1  0
 24 48  1  0
 25 49  1  0
 27 50  1  0
 30 51  1  0
 31 52  1  0
M  END
>  <smiles>  (7) 
O=C(NCC(=O)N1CCCC1c1ccc(OC(F)(F)F)cc1)c1ccc2cc(F)ccc2n1

>  <score_type>  (7) 
oracle

>  <origin>  (7) 
autodockgpu

>  <m_score__min__energy>  (7) 
-7.9100000000000001

>  <m_primary>  (7) 
energy

>  <rmsd>  (7) 
8.818430533725644

>  <m_score__min__rmsd>  (7) 
8.818430533725644

>  <meeko>  (7) 
{"free_energy": -7.45, "intermolecular_energy": -9.53, "internal_energy": -2.1, "cluster_size": 1, "cluster_id": 5, "rank_in_cluster": 1}

>  <energy>  (7) 
-7.75

>  <cluster_rmsd>  (7) 
0.39

>  <cluster>  (7) 
1

$$$$

     RDKit          3D

 52 55  0  0  0  0  0  0  0  0999 V2000
  137.8780   70.5920  221.7500 O   0  0  0  0  0  0  0  0  0  0  0  0
  138.5180   71.2120  222.6560 C   0  0  0  0  0  0  0  0  0  0  0  0
  138.8070   72.6080  222.5610 N   0  0  0  0  0  0  0  0  0  0  0  0
  138.3800   73.3580  221.4270 C   0  0  0  0  0  0  0  0  0  0  0  0
  139.1160   74.6480  221.4030 C   0  0  0  0  0  0  0  0  0  0  0  0
  139.9680   74.8780  222.3240 O   0  0  0  0  0  0  0  0  0  0  0  0
  138.8800   75.6250  220.3670 N   0  0  0  0  0  0  0  0  0  0  0  0
  139.1630   75.4120  218.9890 C   0  0  0  0  0  0  0  0  0  0  0  0
  139.2050   76.8000  218.4010 C   0  0  0  0  0  0  0  0  0  0  0  0
  138.2350   77.5640  219.2590 C   0  0  0  0  0  0  0  0  0  0  0  0
  138.3280   76.9340  220.5940 C   0  0  2  0  0  0  0  0  0  0  0  0
  139.2450   77.6400  221.5500 C   0  0  0  0  0  0  0  0  0  0  0  0
  140.5990   77.5650  221.3130 C   0  0  0  0  0  0  0  0  0  0  0  0
  141.4620   78.2140  222.1810 C   0  0  0  0  0  0  0  0  0  0  0  0
  141.0250   78.9350  223.2730 C   0  0  0  0  0  0  0  0  0  0  0  0
  141.9280   79.5850  224.1380 O   0  0  0  0  0  0  0  0  0  0  0  0
  142.5630   80.7730  223.6700 C   0  0  0  0  0  0  0  0  0  0  0  0
  143.9140   80.4980  223.4450 F   0  0  0  0  0  0  0  0  0  0  0  0
  142.5390   81.7940  224.5830 F   0  0  0  0  0  0  0  0  0  0  0  0
  141.9870   81.1600  222.4800 F   0  0  0  0  0  0  0  0  0  0  0  0
  139.6500   79.0030  223.5000 C   0  0  0  0  0  0  0  0  0  0  0  0
  138.7850   78.3530  222.6320 C   0  0  0  0  0  0  0  0  0  0  0  0
  138.9760   70.4790  223.8410 C   0  0  0  0  0  0  0  0  0  0  0  0
  138.7830   69.1100  223.9180 C   0  0  0  0  0  0  0  0  0  0  0  0
  139.2040   68.3900  225.0200 C   0  0  0  0  0  0  0  0  0  0  0  0
  139.8360   69.0330  226.0840 C   0  0  0  0  0  0  0  0  0  0  0  0
  140.2530   68.2980  227.1820 C   0  0  0  0  0  0  0  0  0  0  0  0
  140.8760   68.9540  228.2200 C   0  0  0  0  0  0  0  0  0  0  0  0
  141.2960   68.2600  229.3110 F   0  0  0  0  0  0  0  0  0  0  0  0
  141.0440   70.3160  228.0930 C   0  0  0  0  0  0  0  0  0  0  0  0
  140.6360   71.0440  227.0160 C   0  0  0  0  0  0  0  0  0  0  0  0
  140.0070   70.3830  225.9670 C   0  0  0  0  0  0  0  0  0  0  0  0
  139.5890   71.0860  224.8780 N   0  0  0  0  0  0  0  0  0  0  0  0
  139.3470   73.0540  223.3610 H   0  0  0  0  0  0  0  0  0  0  0  0
  138.5939   72.7929  220.5078 H   0  0  0  0  0  0  0  0  0  0  0  0
  137.2979   73.5456  221.4883 H   0  0  0  0  0  0  0  0  0  0  0  0
  140.1314   74.9056  218.8634 H   0  0  0  0  0  0  0  0  0  0  0  0
  138.4159   74.7697  218.4999 H   0  0  0  0  0  0  0  0  0  0  0  0
  140.2159   77.2280  218.4710 H   0  0  0  0  0  0  0  0  0  0  0  0
  138.9481   76.8243  217.3317 H   0  0  0  0  0  0  0  0  0  0  0  0
  138.5182   78.6256  219.3117 H   0  0  0  0  0  0  0  0  0  0  0  0
  137.2118   77.5311  218.8565 H   0  0  0  0  0  0  0  0  0  0  0  0
  137.3267   76.9486  221.0491 H   0  0  0  0  0  0  0  0  0  0  0  0
  140.9877   77.0013  220.4521 H   0  0  0  0  0  0  0  0  0  0  0  0
  142.5437   78.1516  221.9911 H   0  0  0  0  0  0  0  0  0  0  0  0
  139.2559   79.5664  224.3586 H   0  0  0  0  0  0  0  0  0  0  0  0
  137.7017   78.4095  222.8142 H   0  0  0  0  0  0  0  0  0  0  0  0
  138.2861   68.5866  223.0879 H   0  0  0  0  0  0  0  0  0  0  0  0
  139.0396   67.3030  225.0581 H   0  0  0  0  0  0  0  0  0  0  0  0
  140.0895   67.2110  227.2237 H   0  0  0  0  0  0  0  0  0  0  0  0
  141.5406   70.8510  228.9160 H   0  0  0  0  0  0  0  0  0  0  0  0
  140.8006   72.1309  226.9773 H   0  0  0  0  0  0  0  0  0  0  0  0
  1  2  2  0
  2  3  1  0
  3  4  1  0
  4  5  1  0
  5  6  2  0
  5  7  1  0
  7  8  1  0
  8  9  1  0
  9 10  1  0
 10 11  1  0
 11 12  1  0
 12 13  2  0
 13 14  1  0
 14 15  2  0
 15 16  1  0
 16 17  1  0
 17 18  1  0
 17 19  1  0
 17 20  1  0
 15 21  1  0
 21 22  2  0
  2 23  1  0
 23 24  2  0
 24 25  1  0
 25 26  2  0
 26 27  1  0
 27 28  2  0
 28 29  1  0
 28 30  1  0
 30 31  2  0
 31 32  1  0
 32 33  2  0
 11  7  1  0
 22 12  1  0
 33 23  1  0
 32 26  1  0
  3 34  1  0
  4 35  1  0
  4 36  1  0
  8 37  1  0
  8 38  1  0
  9 39  1  0
  9 40  1  0
 10 41  1  0
 10 42  1  0
 11 43  1  1
 13 44  1  0
 14 45  1  0
 21 46  1  0
 22 47  1  0
 24 48  1  0
 25 49  1  0
 27 50  1  0
 30 51  1  0
 31 52  1  0
M  END
>  <smiles>  (8) 
O=C(NCC(=O)N1CCCC1c1ccc(OC(F)(F)F)cc1)c1ccc2cc(F)ccc2n1

>  <score_type>  (8) 
oracle

>  <origin>  (8) 
autodockgpu

>  <m_score__min__energy>  (8) 
-7.9100000000000001

>  <m_primary>  (8) 
energy

>  <rmsd>  (8) 
1.5210533183097361

>  <m_score__min__rmsd>  (8) 
1.5210533183097361

>  <meeko>  (8) 
{"free_energy": -7.63, "intermolecular_energy": -9.72, "internal_energy": -2.2, "cluster_size": 17, "cluster_id": 2, "rank_in_cluster": 8}

>  <energy>  (8) 
-7.75

>  <cluster_rmsd>  (8) 
0.41

>  <cluster>  (8) 
1

$$$$

     RDKit          3D

 52 55  0  0  0  0  0  0  0  0999 V2000
  138.4290   72.5820  222.3710 O   0  0  0  0  0  0  0  0  0  0  0  0
  139.6020   72.2170  222.6940 C   0  0  0  0  0  0  0  0  0  0  0  0
  140.7600   72.6800  221.9990 N   0  0  0  0  0  0  0  0  0  0  0  0
  140.6300   73.5810  220.9020 C   0  0  0  0  0  0  0  0  0  0  0  0
  141.9830   74.0480  220.5060 C   0  0  0  0  0  0  0  0  0  0  0  0
  142.9840   73.6740  221.2040 O   0  0  0  0  0  0  0  0  0  0  0  0
  142.1740   74.9070  219.3610 N   0  0  0  0  0  0  0  0  0  0  0  0
  143.2180   74.7460  218.4070 C   0  0  0  0  0  0  0  0  0  0  0  0
  143.2960   76.0830  217.7150 C   0  0  0  0  0  0  0  0  0  0  0  0
  141.8800   76.5830  217.7790 C   0  0  0  0  0  0  0  0  0  0  0  0
  141.3350   76.0290  219.0370 C   0  0  2  0  0  0  0  0  0  0  0  0
  141.3890   76.9720  220.2040 C   0  0  0  0  0  0  0  0  0  0  0  0
  140.6420   76.6570  221.3170 C   0  0  0  0  0  0  0  0  0  0  0  0
  140.6820   77.5130  222.4060 C   0  0  0  0  0  0  0  0  0  0  0  0
  141.4380   78.6660  222.4270 C   0  0  0  0  0  0  0  0  0  0  0  0
  141.4580   79.5160  223.5510 O   0  0  0  0  0  0  0  0  0  0  0  0
  142.2040   80.7280  223.4580 C   0  0  0  0  0  0  0  0  0  0  0  0
  141.8020   81.4120  222.3080 F   0  0  0  0  0  0  0  0  0  0  0  0
  143.5510   80.5230  223.3150 F   0  0  0  0  0  0  0  0  0  0  0  0
  141.9370   81.5140  224.5570 F   0  0  0  0  0  0  0  0  0  0  0  0
  142.1900   78.9710  221.2920 C   0  0  0  0  0  0  0  0  0  0  0  0
  142.1510   78.1160  220.2000 C   0  0  0  0  0  0  0  0  0  0  0  0
  139.7810   71.2910  223.8180 C   0  0  0  0  0  0  0  0  0  0  0  0
  139.4330   69.9590  223.6710 C   0  0  0  0  0  0  0  0  0  0  0  0
  139.5900   69.0610  224.7110 C   0  0  0  0  0  0  0  0  0  0  0  0
  140.1070   69.4820  225.9350 C   0  0  0  0  0  0  0  0  0  0  0  0
  140.2600   68.5710  226.9680 C   0  0  0  0  0  0  0  0  0  0  0  0
  140.7730   69.0090  228.1680 C   0  0  0  0  0  0  0  0  0  0  0  0
  140.9350   68.1380  229.1990 F   0  0  0  0  0  0  0  0  0  0  0  0
  141.1040   70.3440  228.2600 C   0  0  0  0  0  0  0  0  0  0  0  0
  140.9560   71.2450  227.2480 C   0  0  0  0  0  0  0  0  0  0  0  0
  140.4380   70.8030  226.0360 C   0  0  0  0  0  0  0  0  0  0  0  0
  140.2800   71.6830  225.0080 N   0  0  0  0  0  0  0  0  0  0  0  0
  141.7070   72.3280  222.3310 H   0  0  0  0  0  0  0  0  0  0  0  0
  140.1535   73.0662  220.0547 H   0  0  0  0  0  0  0  0  0  0  0  0
  140.0079   74.4398  221.1943 H   0  0  0  0  0  0  0  0  0  0  0  0
  144.1692   74.5089  218.9059 H   0  0  0  0  0  0  0  0  0  0  0  0
  143.0252   73.9198  217.7068 H   0  0  0  0  0  0  0  0  0  0  0  0
  143.9792   76.7628  218.2452 H   0  0  0  0  0  0  0  0  0  0  0  0
  143.6851   76.0164  216.6883 H   0  0  0  0  0  0  0  0  0  0  0  0
  141.8588   77.6826  217.7996 H   0  0  0  0  0  0  0  0  0  0  0  0
  141.2924   76.2731  216.9023 H   0  0  0  0  0  0  0  0  0  0  0  0
  140.2737   75.7900  218.8739 H   0  0  0  0  0  0  0  0  0  0  0  0
  140.0267   75.7455  221.3412 H   0  0  0  0  0  0  0  0  0  0  0  0
  140.0835   77.2613  223.2940 H   0  0  0  0  0  0  0  0  0  0  0  0
  142.8079   79.8806  221.2632 H   0  0  0  0  0  0  0  0  0  0  0  0
  142.7456   78.3601  219.3074 H   0  0  0  0  0  0  0  0  0  0  0  0
  139.0249   69.6092  222.7112 H   0  0  0  0  0  0  0  0  0  0  0  0
  139.3050   68.0078  224.5713 H   0  0  0  0  0  0  0  0  0  0  0  0
  139.9766   67.5169  226.8315 H   0  0  0  0  0  0  0  0  0  0  0  0
  141.5150   70.7064  229.2138 H   0  0  0  0  0  0  0  0  0  0  0  0
  141.2401   72.2985  227.3872 H   0  0  0  0  0  0  0  0  0  0  0  0
  1  2  2  0
  2  3  1  0
  3  4  1  0
  4  5  1  0
  5  6  2  0
  5  7  1  0
  7  8  1  0
  8  9  1  0
  9 10  1  0
 10 11  1  0
 11 12  1  0
 12 13  2  0
 13 14  1  0
 14 15  2  0
 15 16  1  0
 16 17  1  0
 17 18  1  0
 17 19  1  0
 17 20  1  0
 15 21  1  0
 21 22  2  0
  2 23  1  0
 23 24  2  0
 24 25  1  0
 25 26  2  0
 26 27  1  0
 27 28  2  0
 28 29  1  0
 28 30  1  0
 30 31  2  0
 31 32  1  0
 32 33  2  0
 11  7  1  0
 22 12  1  0
 33 23  1  0
 32 26  1  0
  3 34  1  0
  4 35  1  0
  4 36  1  0
  8 37  1  0
  8 38  1  0
  9 39  1  0
  9 40  1  0
 10 41  1  0
 10 42  1  0
 11 43  1  6
 13 44  1  0
 14 45  1  0
 21 46  1  0
 22 47  1  0
 24 48  1  0
 25 49  1  0
 27 50  1  0
 30 51  1  0
 31 52  1  0
M  END
>  <smiles>  (9) 
O=C(NCC(=O)N1CCCC1c1ccc(OC(F)(F)F)cc1)c1ccc2cc(F)ccc2n1

>  <score_type>  (9) 
oracle

>  <origin>  (9) 
autodockgpu

>  <m_score__min__energy>  (9) 
-7.9100000000000001

>  <m_primary>  (9) 
energy

>  <rmsd>  (9) 
2.1690844104739284

>  <m_score__min__rmsd>  (9) 
2.1690844104739284

>  <meeko>  (9) 
{"free_energy": -7.22, "intermolecular_energy": -9.31, "internal_energy": -1.79, "cluster_size": 17, "cluster_id": 2, "rank_in_cluster": 16}

>  <energy>  (9) 
-7.64

>  <cluster_rmsd>  (9) 
0.43

>  <cluster>  (9) 
1

$$$$

     RDKit          3D

 52 55  0  0  0  0  0  0  0  0999 V2000
  141.0660   71.1920  221.1140 O   0  0  0  0  0  0  0  0  0  0  0  0
  140.6070   71.8800  222.0790 C   0  0  0  0  0  0  0  0  0  0  0  0
  140.3680   73.2830  221.9640 N   0  0  0  0  0  0  0  0  0  0  0  0
  140.6420   73.9650  220.7430 C   0  0  0  0  0  0  0  0  0  0  0  0
  140.8900   75.3980  221.0420 C   0  0  0  0  0  0  0  0  0  0  0  0
  140.7320   75.8050  222.2400 O   0  0  0  0  0  0  0  0  0  0  0  0
  141.3000   76.3190  220.0070 N   0  0  0  0  0  0  0  0  0  0  0  0
  140.4080   76.9270  219.0800 C   0  0  0  0  0  0  0  0  0  0  0  0
  141.3010   77.3940  217.9580 C   0  0  0  0  0  0  0  0  0  0  0  0
  142.5960   77.6980  218.6590 C   0  0  0  0  0  0  0  0  0  0  0  0
  142.6570   76.7390  219.7830 C   0  0  2  0  0  0  0  0  0  0  0  0
  143.4620   75.5040  219.5020 C   0  0  0  0  0  0  0  0  0  0  0  0
  143.3900   74.9670  218.2360 C   0  0  0  0  0  0  0  0  0  0  0  0
  144.1300   73.8300  217.9550 C   0  0  0  0  0  0  0  0  0  0  0  0
  144.9360   73.2100  218.8870 C   0  0  0  0  0  0  0  0  0  0  0  0
  145.6770   72.0540  218.5710 O   0  0  0  0  0  0  0  0  0  0  0  0
  144.9700   70.8210  218.4510 C   0  0  0  0  0  0  0  0  0  0  0  0
  145.5040   70.1020  217.3790 F   0  0  0  0  0  0  0  0  0  0  0  0
  143.6410   70.9860  218.1630 F   0  0  0  0  0  0  0  0  0  0  0  0
  145.1380   70.0850  219.6040 F   0  0  0  0  0  0  0  0  0  0  0  0
  144.9990   73.7660  220.1650 C   0  0  0  0  0  0  0  0  0  0  0  0
  144.2590   74.9050  220.4480 C   0  0  0  0  0  0  0  0  0  0  0  0
  140.3110   71.2190  223.3540 C   0  0  0  0  0  0  0  0  0  0  0  0
  139.6040   70.0280  223.3610 C   0  0  0  0  0  0  0  0  0  0  0  0
  139.3090   69.3800  224.5460 C   0  0  0  0  0  0  0  0  0  0  0  0
  139.7210   69.9150  225.7660 C   0  0  0  0  0  0  0  0  0  0  0  0
  139.4190   69.2540  226.9450 C   0  0  0  0  0  0  0  0  0  0  0  0
  139.8370   69.8000  228.1370 C   0  0  0  0  0  0  0  0  0  0  0  0
  139.5550   69.1740  229.3110 F   0  0  0  0  0  0  0  0  0  0  0  0
  140.5370   70.9860  228.0740 C   0  0  0  0  0  0  0  0  0  0  0  0
  140.8370   71.6410  226.9170 C   0  0  0  0  0  0  0  0  0  0  0  0
  140.4160   71.0900  225.7130 C   0  0  0  0  0  0  0  0  0  0  0  0
  140.7020   71.7240  224.5420 N   0  0  0  0  0  0  0  0  0  0  0  0
  139.9830   73.7880  222.8180 H   0  0  0  0  0  0  0  0  0  0  0  0
  141.5315   73.5272  220.2663 H   0  0  0  0  0  0  0  0  0  0  0  0
  139.7854   73.8680  220.0598 H   0  0  0  0  0  0  0  0  0  0  0  0
  139.6700   76.1983  218.7135 H   0  0  0  0  0  0  0  0  0  0  0  0
  139.8306   77.7489  219.5284 H   0  0  0  0  0  0  0  0  0  0  0  0
  141.4354   76.6036  217.2049 H   0  0  0  0  0  0  0  0  0  0  0  0
  140.8927   78.2558  217.4097 H   0  0  0  0  0  0  0  0  0  0  0  0
  143.4477   77.5509  217.9786 H   0  0  0  0  0  0  0  0  0  0  0  0
  142.6444   78.7416  219.0032 H   0  0  0  0  0  0  0  0  0  0  0  0
  143.1395   77.2409  220.6346 H   0  0  0  0  0  0  0  0  0  0  0  0
  142.7583   75.4310  217.4642 H   0  0  0  0  0  0  0  0  0  0  0  0
  144.0722   73.4024  216.9432 H   0  0  0  0  0  0  0  0  0  0  0  0
  145.6290   73.3060  220.9405 H   0  0  0  0  0  0  0  0  0  0  0  0
  144.3116   75.3404  221.4568 H   0  0  0  0  0  0  0  0  0  0  0  0
  139.2718   69.5905  222.4080 H   0  0  0  0  0  0  0  0  0  0  0  0
  138.7453   68.4356  224.5263 H   0  0  0  0  0  0  0  0  0  0  0  0
  138.8552   68.3096  226.9289 H   0  0  0  0  0  0  0  0  0  0  0  0
  140.8758   71.4333  229.0201 H   0  0  0  0  0  0  0  0  0  0  0  0
  141.4004   72.5856  226.9360 H   0  0  0  0  0  0  0  0  0  0  0  0
  1  2  2  0
  2  3  1  0
  3  4  1  0
  4  5  1  0
  5  6  2  0
  5  7  1  0
  7  8  1  0
  8  9  1  0
  9 10  1  0
 10 11  1  0
 11 12  1  0
 12 13  2  0
 13 14  1  0
 14 15  2  0
 15 16  1  0
 16 17  1  0
 17 18  1  0
 17 19  1  0
 17 20  1  0
 15 21  1  0
 21 22  2  0
  2 23  1  0
 23 24  2  0
 24 25  1  0
 25 26  2  0
 26 27  1  0
 27 28  2  0
 28 29  1  0
 28 30  1  0
 30 31  2  0
 31 32  1  0
 32 33  2  0
 11  7  1  0
 22 12  1  0
 33 23  1  0
 32 26  1  0
  3 34  1  0
  4 35  1  0
  4 36  1  0
  8 37  1  0
  8 38  1  0
  9 39  1  0
  9 40  1  0
 10 41  1  0
 10 42  1  0
 11 43  1  1
 13 44  1  0
 14 45  1  0
 21 46  1  0
 22 47  1  0
 24 48  1  0
 25 49  1  0
 27 50  1  0
 30 51  1  0
 31 52  1  0
M  END
>  <smiles>  (10) 
O=C(NCC(=O)N1CCCC1c1ccc(OC(F)(F)F)cc1)c1ccc2cc(F)ccc2n1

>  <score_type>  (10) 
oracle

>  <origin>  (10) 
autodockgpu

>  <m_score__min__energy>  (10) 
-7.9100000000000001

>  <m_primary>  (10) 
energy

>  <rmsd>  (10) 
1.8432641685929414

>  <m_score__min__rmsd>  (10) 
1.8432641685929414

>  <meeko>  (10) 
{"free_energy": -7.64, "intermolecular_energy": -9.72, "internal_energy": -2.2, "cluster_size": 22, "cluster_id": 1, "rank_in_cluster": 10}

>  <energy>  (10) 
-7.64

>  <cluster_rmsd>  (10) 
0.51

>  <cluster>  (10) 
1

$$$$

     RDKit          3D

 52 55  0  0  0  0  0  0  0  0999 V2000
  139.6080   71.1270  220.9830 O   0  0  0  0  0  0  0  0  0  0  0  0
  139.7400   71.7410  222.0880 C   0  0  0  0  0  0  0  0  0  0  0  0
  139.8760   73.1610  222.1550 N   0  0  0  0  0  0  0  0  0  0  0  0
  139.8690   73.9440  220.9650 C   0  0  0  0  0  0  0  0  0  0  0  0
  140.6770   75.1690  221.1950 C   0  0  0  0  0  0  0  0  0  0  0  0
  140.6530   75.7040  222.3530 O   0  0  0  0  0  0  0  0  0  0  0  0
  141.4730   75.7500  220.1390 N   0  0  0  0  0  0  0  0  0  0  0  0
  140.9310   76.4160  219.0050 C   0  0  0  0  0  0  0  0  0  0  0  0
  142.0580   76.4180  218.0030 C   0  0  0  0  0  0  0  0  0  0  0  0
  143.2850   76.4630  218.8720 C   0  0  0  0  0  0  0  0  0  0  0  0
  142.9110   75.7310  220.1010 C   0  0  2  0  0  0  0  0  0  0  0  0
  143.3350   74.2910  220.1170 C   0  0  0  0  0  0  0  0  0  0  0  0
  142.6070   73.4000  219.3610 C   0  0  0  0  0  0  0  0  0  0  0  0
  142.9860   72.0670  219.3600 C   0  0  0  0  0  0  0  0  0  0  0  0
  144.0610   71.5920  220.0810 C   0  0  0  0  0  0  0  0  0  0  0  0
  144.4210   70.2300  220.0590 O   0  0  0  0  0  0  0  0  0  0  0  0
  145.2740   69.7820  219.0070 C   0  0  0  0  0  0  0  0  0  0  0  0
  146.3170   70.7000  218.8570 F   0  0  0  0  0  0  0  0  0  0  0  0
  144.6470   69.7300  217.7900 F   0  0  0  0  0  0  0  0  0  0  0  0
  145.8070   68.5570  219.3410 F   0  0  0  0  0  0  0  0  0  0  0  0
  144.7890   72.5070  220.8420 C   0  0  0  0  0  0  0  0  0  0  0  0
  144.4110   73.8420  220.8450 C   0  0  0  0  0  0  0  0  0  0  0  0
  139.7510   70.9740  223.3380 C   0  0  0  0  0  0  0  0  0  0  0  0
  139.2760   69.6730  223.3490 C   0  0  0  0  0  0  0  0  0  0  0  0
  139.2750   68.9230  224.5100 C   0  0  0  0  0  0  0  0  0  0  0  0
  139.7550   69.4650  225.7020 C   0  0  0  0  0  0  0  0  0  0  0  0
  139.7480   68.7020  226.8570 C   0  0  0  0  0  0  0  0  0  0  0  0
  140.2280   69.2570  228.0220 C   0  0  0  0  0  0  0  0  0  0  0  0
  140.2340   68.5330  229.1720 F   0  0  0  0  0  0  0  0  0  0  0  0
  140.6900   70.5540  227.9560 C   0  0  0  0  0  0  0  0  0  0  0  0
  140.7000   71.3100  226.8220 C   0  0  0  0  0  0  0  0  0  0  0  0
  140.2150   70.7500  225.6460 C   0  0  0  0  0  0  0  0  0  0  0  0
  140.2130   71.4830  224.4980 N   0  0  0  0  0  0  0  0  0  0  0  0
  139.9810   73.5990  223.1190 H   0  0  0  0  0  0  0  0  0  0  0  0
  140.3039   73.3638  220.1378 H   0  0  0  0  0  0  0  0  0  0  0  0
  138.8365   74.2200  220.7045 H   0  0  0  0  0  0  0  0  0  0  0  0
  140.0603   75.8708  218.6117 H   0  0  0  0  0  0  0  0  0  0  0  0
  140.5761   77.4299  219.2418 H   0  0  0  0  0  0  0  0  0  0  0  0
  142.0421   75.5057  217.3887 H   0  0  0  0  0  0  0  0  0  0  0  0
  142.0017   77.2535  217.2897 H   0  0  0  0  0  0  0  0  0  0  0  0
  144.1316   75.9705  218.3713 H   0  0  0  0  0  0  0  0  0  0  0  0
  143.6021   77.4944  219.0859 H   0  0  0  0  0  0  0  0  0  0  0  0
  143.4094   76.2152  220.9537 H   0  0  0  0  0  0  0  0  0  0  0  0
  141.7431   73.7389  218.7704 H   0  0  0  0  0  0  0  0  0  0  0  0
  142.4028   71.3557  218.7567 H   0  0  0  0  0  0  0  0  0  0  0  0
  145.6541   72.1734  221.4338 H   0  0  0  0  0  0  0  0  0  0  0  0
  144.9878   74.5603  221.4461 H   0  0  0  0  0  0  0  0  0  0  0  0
  138.8931   69.2292  222.4182 H   0  0  0  0  0  0  0  0  0  0  0  0
  138.8930   67.8916  224.4937 H   0  0  0  0  0  0  0  0  0  0  0  0
  139.3657   67.6706  226.8443 H   0  0  0  0  0  0  0  0  0  0  0  0
  141.0763   71.0091  228.8799 H   0  0  0  0  0  0  0  0  0  0  0  0
  141.0835   72.3409  226.8372 H   0  0  0  0  0  0  0  0  0  0  0  0
  1  2  2  0
  2  3  1  0
  3  4  1  0
  4  5  1  0
  5  6  2  0
  5  7  1  0
  7  8  1  0
  8  9  1  0
  9 10  1  0
 10 11  1  0
 11 12  1  0
 12 13  2  0
 13 14  1  0
 14 15  2  0
 15 16  1  0
 16 17  1  0
 17 18  1  0
 17 19  1  0
 17 20  1  0
 15 21  1  0
 21 22  2  0
  2 23  1  0
 23 24  2  0
 24 25  1  0
 25 26  2  0
 26 27  1  0
 27 28  2  0
 28 29  1  0
 28 30  1  0
 30 31  2  0
 31 32  1  0
 32 33  2  0
 11  7  1  0
 22 12  1  0
 33 23  1  0
 32 26  1  0
  3 34  1  0
  4 35  1  0
  4 36  1  0
  8 37  1  0
  8 38  1  0
  9 39  1  0
  9 40  1  0
 10 41  1  0
 10 42  1  0
 11 43  1  1
 13 44  1  0
 14 45  1  0
 21 46  1  0
 22 47  1  0
 24 48  1  0
 25 49  1  0
 27 50  1  0
 30 51  1  0
 31 52  1  0
M  END
>  <smiles>  (11) 
O=C(NCC(=O)N1CCCC1c1ccc(OC(F)(F)F)cc1)c1ccc2cc(F)ccc2n1

>  <score_type>  (11) 
oracle

>  <origin>  (11) 
autodockgpu

>  <m_score__min__energy>  (11) 
-7.9100000000000001

>  <m_primary>  (11) 
energy

>  <rmsd>  (11) 
1.731250021419456

>  <m_score__min__rmsd>  (11) 
1.731250021419456

>  <meeko>  (11) 
{"free_energy": -7.18, "intermolecular_energy": -9.27, "internal_energy": -2.33, "cluster_size": 22, "cluster_id": 1, "rank_in_cluster": 21}

>  <energy>  (11) 
-7.63

>  <cluster_rmsd>  (11) 
0.85

>  <cluster>  (11) 
1

$$$$

     RDKit          3D

 52 55  0  0  0  0  0  0  0  0999 V2000
  137.5380   70.3870  222.1750 O   0  0  0  0  0  0  0  0  0  0  0  0
  138.3690   70.9330  222.9660 C   0  0  0  0  0  0  0  0  0  0  0  0
  138.8120   72.2790  222.7920 N   0  0  0  0  0  0  0  0  0  0  0  0
  138.3270   73.0640  221.7050 C   0  0  0  0  0  0  0  0  0  0  0  0
  138.8200   74.4550  221.8630 C   0  0  0  0  0  0  0  0  0  0  0  0
  139.9980   74.6340  222.3200 O   0  0  0  0  0  0  0  0  0  0  0  0
  137.9950   75.5870  221.5120 N   0  0  0  0  0  0  0  0  0  0  0  0
  138.4930   76.9030  221.2980 C   0  0  0  0  0  0  0  0  0  0  0  0
  137.2780   77.7850  221.4290 C   0  0  0  0  0  0  0  0  0  0  0  0
  136.1610   76.8990  220.9510 C   0  0  0  0  0  0  0  0  0  0  0  0
  136.5690   75.5300  221.3330 C   0  0  2  0  0  0  0  0  0  0  0  0
  135.9800   75.0450  222.6250 C   0  0  0  0  0  0  0  0  0  0  0  0
  135.3610   73.8150  222.6260 C   0  0  0  0  0  0  0  0  0  0  0  0
  134.8150   73.3480  223.8110 C   0  0  0  0  0  0  0  0  0  0  0  0
  134.8660   74.0590  224.9920 C   0  0  0  0  0  0  0  0  0  0  0  0
  134.3010   73.5560  226.1810 O   0  0  0  0  0  0  0  0  0  0  0  0
  132.9810   73.9740  226.5220 C   0  0  0  0  0  0  0  0  0  0  0  0
  132.2660   74.1990  225.3430 F   0  0  0  0  0  0  0  0  0  0  0  0
  132.9500   75.1600  227.2070 F   0  0  0  0  0  0  0  0  0  0  0  0
  132.3550   72.9750  227.2350 F   0  0  0  0  0  0  0  0  0  0  0  0
  135.4970   75.3030  224.9760 C   0  0  0  0  0  0  0  0  0  0  0  0
  136.0440   75.7730  223.7900 C   0  0  0  0  0  0  0  0  0  0  0  0
  138.8940   70.1620  224.0990 C   0  0  0  0  0  0  0  0  0  0  0  0
  138.7670   68.7830  224.1080 C   0  0  0  0  0  0  0  0  0  0  0  0
  139.2520   68.0290  225.1600 C   0  0  0  0  0  0  0  0  0  0  0  0
  139.8840   68.6450  226.2390 C   0  0  0  0  0  0  0  0  0  0  0  0
  140.3650   67.8750  227.2860 C   0  0  0  0  0  0  0  0  0  0  0  0
  140.9870   68.5050  228.3400 C   0  0  0  0  0  0  0  0  0  0  0  0
  141.4700   67.7770  229.3820 F   0  0  0  0  0  0  0  0  0  0  0  0
  141.0880   69.8790  228.2810 C   0  0  0  0  0  0  0  0  0  0  0  0
  140.6160   70.6410  227.2540 C   0  0  0  0  0  0  0  0  0  0  0  0
  139.9890   70.0050  226.1890 C   0  0  0  0  0  0  0  0  0  0  0  0
  139.5080   70.7430  225.1500 N   0  0  0  0  0  0  0  0  0  0  0  0
  139.5100   72.6630  223.4970 H   0  0  0  0  0  0  0  0  0  0  0  0
  138.6937   72.6473  220.7553 H   0  0  0  0  0  0  0  0  0  0  0  0
  137.2270   73.0555  221.6990 H   0  0  0  0  0  0  0  0  0  0  0  0
  139.2469   77.1627  222.0558 H   0  0  0  0  0  0  0  0  0  0  0  0
  138.9890   77.0119  220.3222 H   0  0  0  0  0  0  0  0  0  0  0  0
  137.1213   78.0888  222.4745 H   0  0  0  0  0  0  0  0  0  0  0  0
  137.3605   78.7225  220.8595 H   0  0  0  0  0  0  0  0  0  0  0  0
  135.2146   77.1714  221.4411 H   0  0  0  0  0  0  0  0  0  0  0  0
  135.9931   76.9933  219.8680 H   0  0  0  0  0  0  0  0  0  0  0  0
  136.2216   74.8391  220.5507 H   0  0  0  0  0  0  0  0  0  0  0  0
  135.3011   73.2157  221.7055 H   0  0  0  0  0  0  0  0  0  0  0  0
  134.3187   72.3663  223.8098 H   0  0  0  0  0  0  0  0  0  0  0  0
  135.5604   75.9055  225.8941 H   0  0  0  0  0  0  0  0  0  0  0  0
  136.5419   76.7538  223.7817 H   0  0  0  0  0  0  0  0  0  0  0  0
  138.2722   68.2796  223.2643 H   0  0  0  0  0  0  0  0  0  0  0  0
  139.1384   66.9350  225.1457 H   0  0  0  0  0  0  0  0  0  0  0  0
  140.2519   66.7809  227.2750 H   0  0  0  0  0  0  0  0  0  0  0  0
  141.5821   70.3942  229.1180 H   0  0  0  0  0  0  0  0  0  0  0  0
  140.7288   71.7351  227.2678 H   0  0  0  0  0  0  0  0  0  0  0  0
  1  2  2  0
  2  3  1  0
  3  4  1  0
  4  5  1  0
  5  6  2  0
  5  7  1  0
  7  8  1  0
  8  9  1  0
  9 10  1  0
 10 11  1  0
 11 12  1  0
 12 13  2  0
 13 14  1  0
 14 15  2  0
 15 16  1  0
 16 17  1  0
 17 18  1  0
 17 19  1  0
 17 20  1  0
 15 21  1  0
 21 22  2  0
  2 23  1  0
 23 24  2  0
 24 25  1  0
 25 26  2  0
 26 27  1  0
 27 28  2  0
 28 29  1  0
 28 30  1  0
 30 31  2  0
 31 32  1  0
 32 33  2  0
 11  7  1  0
 22 12  1  0
 33 23  1  0
 32 26  1  0
  3 34  1  0
  4 35  1  0
  4 36  1  0
  8 37  1  0
  8 38  1  0
  9 39  1  0
  9 40  1  0
 10 41  1  0
 10 42  1  0
 11 43  1  6
 13 44  1  0
 14 45  1  0
 21 46  1  0
 22 47  1  0
 24 48  1  0
 25 49  1  0
 27 50  1  0
 30 51  1  0
 31 52  1  0
M  END
>  <smiles>  (12) 
O=C(NCC(=O)N1CCCC1c1ccc(OC(F)(F)F)cc1)c1ccc2cc(F)ccc2n1

>  <score_type>  (12) 
oracle

>  <origin>  (12) 
autodockgpu

>  <m_score__min__energy>  (12) 
-7.9100000000000001

>  <m_primary>  (12) 
energy

>  <rmsd>  (12) 
2.982907390011533

>  <m_score__min__rmsd>  (12) 
2.982907390011533

>  <meeko>  (12) 
{"free_energy": -7.22, "intermolecular_energy": -9.3, "internal_energy": -2.28, "cluster_size": 2, "cluster_id": 6, "rank_in_cluster": 1}

>  <energy>  (12) 
-7.6

>  <cluster_rmsd>  (12) 
0.51

>  <cluster>  (12) 
1

$$$$

     RDKit          3D

 52 55  0  0  0  0  0  0  0  0999 V2000
  141.2470   71.8130  221.2560 O   0  0  0  0  0  0  0  0  0  0  0  0
  140.4350   72.2440  222.1330 C   0  0  0  0  0  0  0  0  0  0  0  0
  139.7180   73.4680  221.9680 N   0  0  0  0  0  0  0  0  0  0  0  0
  139.8970   74.2560  220.7940 C   0  0  0  0  0  0  0  0  0  0  0  0
  140.9130   75.3030  221.0720 C   0  0  0  0  0  0  0  0  0  0  0  0
  141.1480   75.6140  222.2870 O   0  0  0  0  0  0  0  0  0  0  0  0
  141.6240   75.9610  220.0010 N   0  0  0  0  0  0  0  0  0  0  0  0
  140.9910   76.6110  218.9050 C   0  0  0  0  0  0  0  0  0  0  0  0
  142.0740   76.7140  217.8600 C   0  0  0  0  0  0  0  0  0  0  0  0
  143.3290   76.8270  218.6810 C   0  0  0  0  0  0  0  0  0  0  0  0
  143.0560   76.0450  219.9060 C   0  0  2  0  0  0  0  0  0  0  0  0
  143.5800   74.6380  219.8720 C   0  0  0  0  0  0  0  0  0  0  0  0
  143.2120   73.8430  218.8090 C   0  0  0  0  0  0  0  0  0  0  0  0
  143.6890   72.5430  218.7580 C   0  0  0  0  0  0  0  0  0  0  0  0
  144.5180   72.0090  219.7220 C   0  0  0  0  0  0  0  0  0  0  0  0
  144.9860   70.6830  219.6410 O   0  0  0  0  0  0  0  0  0  0  0  0
  144.0200   69.6360  219.5680 C   0  0  0  0  0  0  0  0  0  0  0  0
  144.4730   68.5570  220.3300 F   0  0  0  0  0  0  0  0  0  0  0  0
  143.8460   69.1490  218.3000 F   0  0  0  0  0  0  0  0  0  0  0  0
  142.8270   70.0790  220.0950 F   0  0  0  0  0  0  0  0  0  0  0  0
  144.8830   72.8270  220.7910 C   0  0  0  0  0  0  0  0  0  0  0  0
  144.4050   74.1290  220.8460 C   0  0  0  0  0  0  0  0  0  0  0  0
  140.2200   71.4640  223.3570 C   0  0  0  0  0  0  0  0  0  0  0  0
  139.5500   70.2530  223.2890 C   0  0  0  0  0  0  0  0  0  0  0  0
  139.3330   69.4940  224.4240 C   0  0  0  0  0  0  0  0  0  0  0  0
  139.7860   69.9340  225.6670 C   0  0  0  0  0  0  0  0  0  0  0  0
  139.5610   69.1620  226.7950 C   0  0  0  0  0  0  0  0  0  0  0  0
  140.0190   69.6160  228.0110 C   0  0  0  0  0  0  0  0  0  0  0  0
  139.8140   68.8810  229.1350 F   0  0  0  0  0  0  0  0  0  0  0  0
  140.6800   70.8260  228.0220 C   0  0  0  0  0  0  0  0  0  0  0  0
  140.9040   71.5900  226.9150 C   0  0  0  0  0  0  0  0  0  0  0  0
  140.4420   71.1320  225.6870 C   0  0  0  0  0  0  0  0  0  0  0  0
  140.6530   71.8760  224.5660 N   0  0  0  0  0  0  0  0  0  0  0  0
  139.0570   73.7600  222.7480 H   0  0  0  0  0  0  0  0  0  0  0  0
  140.2415   73.6163  219.9681 H   0  0  0  0  0  0  0  0  0  0  0  0
  138.9438   74.7256  220.5096 H   0  0  0  0  0  0  0  0  0  0  0  0
  140.1454   76.0140  218.5329 H   0  0  0  0  0  0  0  0  0  0  0  0
  140.5759   77.5920  219.1796 H   0  0  0  0  0  0  0  0  0  0  0  0
  142.0969   75.8161  217.2249 H   0  0  0  0  0  0  0  0  0  0  0  0
  141.9307   77.5586  217.1699 H   0  0  0  0  0  0  0  0  0  0  0  0
  144.1867   76.4056  218.1363 H   0  0  0  0  0  0  0  0  0  0  0  0
  143.5827   77.8733  218.9064 H   0  0  0  0  0  0  0  0  0  0  0  0
  143.5531   76.5463  220.7496 H   0  0  0  0  0  0  0  0  0  0  0  0
  142.5539   74.2316  218.0179 H   0  0  0  0  0  0  0  0  0  0  0  0
  143.3929   71.9081  217.9099 H   0  0  0  0  0  0  0  0  0  0  0  0
  145.5434   72.4440  221.5830 H   0  0  0  0  0  0  0  0  0  0  0  0
  144.6942   74.7703  221.6916 H   0  0  0  0  0  0  0  0  0  0  0  0
  139.1851   69.8899  222.3169 H   0  0  0  0  0  0  0  0  0  0  0  0
  138.7988   68.5356  224.3458 H   0  0  0  0  0  0  0  0  0  0  0  0
  139.0261   68.2037  226.7203 H   0  0  0  0  0  0  0  0  0  0  0  0
  141.0512   71.1997  228.9877 H   0  0  0  0  0  0  0  0  0  0  0  0
  141.4388   72.5481  226.9923 H   0  0  0  0  0  0  0  0  0  0  0  0
  1  2  2  0
  2  3  1  0
  3  4  1  0
  4  5  1  0
  5  6  2  0
  5  7  1  0
  7  8  1  0
  8  9  1  0
  9 10  1  0
 10 11  1  0
 11 12  1  0
 12 13  2  0
 13 14  1  0
 14 15  2  0
 15 16  1  0
 16 17  1  0
 17 18  1  0
 17 19  1  0
 17 20  1  0
 15 21  1  0
 21 22  2  0
  2 23  1  0
 23 24  2  0
 24 25  1  0
 25 26  2  0
 26 27  1  0
 27 28  2  0
 28 29  1  0
 28 30  1  0
 30 31  2  0
 31 32  1  0
 32 33  2  0
 11  7  1  0
 22 12  1  0
 33 23  1  0
 32 26  1  0
  3 34  1  0
  4 35  1  0
  4 36  1  0
  8 37  1  0
  8 38  1  0
  9 39  1  0
  9 40  1  0
 10 41  1  0
 10 42  1  0
 11 43  1  1
 13 44  1  0
 14 45  1  0
 21 46  1  0
 22 47  1  0
 24 48  1  0
 25 49  1  0
 27 50  1  0
 30 51  1  0
 31 52  1  0
M  END
>  <smiles>  (13) 
O=C(NCC(=O)N1CCCC1c1ccc(OC(F)(F)F)cc1)c1ccc2cc(F)ccc2n1

>  <score_type>  (13) 
oracle

>  <origin>  (13) 
autodockgpu

>  <m_score__min__energy>  (13) 
-7.9100000000000001

>  <m_primary>  (13) 
energy

>  <rmsd>  (13) 
1.889278130066319

>  <m_score__min__rmsd>  (13) 
1.889278130066319

>  <meeko>  (13) 
{"free_energy": -7.57, "intermolecular_energy": -9.66, "internal_energy": -2.04, "cluster_size": 22, "cluster_id": 1, "rank_in_cluster": 14}

>  <energy>  (13) 
-7.6

>  <cluster_rmsd>  (13) 
0.84

>  <cluster>  (13) 
1

$$$$

     RDKit          3D

 52 55  0  0  0  0  0  0  0  0999 V2000
  141.3960   72.2860  221.7550 O   0  0  0  0  0  0  0  0  0  0  0  0
  140.3480   72.3700  222.4690 C   0  0  0  0  0  0  0  0  0  0  0  0
  139.2950   73.2870  222.1650 N   0  0  0  0  0  0  0  0  0  0  0  0
  139.3920   74.1490  221.0350 C   0  0  0  0  0  0  0  0  0  0  0  0
  140.3640   75.2300  221.3400 C   0  0  0  0  0  0  0  0  0  0  0  0
  140.2210   75.8860  222.4240 O   0  0  0  0  0  0  0  0  0  0  0  0
  141.4480   75.5390  220.4370 N   0  0  0  0  0  0  0  0  0  0  0  0
  142.7170   74.8970  220.4640 C   0  0  0  0  0  0  0  0  0  0  0  0
  143.6230   75.8350  219.7060 C   0  0  0  0  0  0  0  0  0  0  0  0
  142.6930   76.4780  218.7140 C   0  0  0  0  0  0  0  0  0  0  0  0
  141.3830   76.5310  219.3980 C   0  0  2  0  0  0  0  0  0  0  0  0
  141.0810   77.8440  220.0580 C   0  0  0  0  0  0  0  0  0  0  0  0
  139.9390   78.5090  219.6720 C   0  0  0  0  0  0  0  0  0  0  0  0
  139.6410   79.7210  220.2740 C   0  0  0  0  0  0  0  0  0  0  0  0
  140.4370   80.2920  221.2450 C   0  0  0  0  0  0  0  0  0  0  0  0
  140.1060   81.5260  221.8390 O   0  0  0  0  0  0  0  0  0  0  0  0
  140.6550   82.7110  221.2650 C   0  0  0  0  0  0  0  0  0  0  0  0
  141.8180   83.0460  221.9630 F   0  0  0  0  0  0  0  0  0  0  0  0
  139.8290   83.7980  221.3780 F   0  0  0  0  0  0  0  0  0  0  0  0
  140.9820   82.4730  219.9490 F   0  0  0  0  0  0  0  0  0  0  0  0
  141.5900   79.6070  221.6270 C   0  0  0  0  0  0  0  0  0  0  0  0
  141.8910   78.3930  221.0250 C   0  0  0  0  0  0  0  0  0  0  0  0
  140.2060   71.5010  223.6420 C   0  0  0  0  0  0  0  0  0  0  0  0
  139.5550   70.2850  223.5200 C   0  0  0  0  0  0  0  0  0  0  0  0
  139.4060   69.4430  224.6060 C   0  0  0  0  0  0  0  0  0  0  0  0
  139.9120   69.8040  225.8540 C   0  0  0  0  0  0  0  0  0  0  0  0
  139.7560   68.9490  226.9330 C   0  0  0  0  0  0  0  0  0  0  0  0
  140.2640   69.3260  228.1560 C   0  0  0  0  0  0  0  0  0  0  0  0
  140.1260   68.5090  229.2340 F   0  0  0  0  0  0  0  0  0  0  0  0
  140.9030   70.5460  228.2230 C   0  0  0  0  0  0  0  0  0  0  0  0
  141.0600   71.3910  227.1640 C   0  0  0  0  0  0  0  0  0  0  0  0
  140.5470   71.0110  225.9300 C   0  0  0  0  0  0  0  0  0  0  0  0
  140.6900   71.8360  224.8550 N   0  0  0  0  0  0  0  0  0  0  0  0
  138.4510   73.2970  222.8120 H   0  0  0  0  0  0  0  0  0  0  0  0
  139.7378   73.5764  220.1617 H   0  0  0  0  0  0  0  0  0  0  0  0
  138.4069   74.5842  220.8111 H   0  0  0  0  0  0  0  0  0  0  0  0
  143.0669   74.7681  221.4989 H   0  0  0  0  0  0  0  0  0  0  0  0
  142.6890   73.8900  220.0223 H   0  0  0  0  0  0  0  0  0  0  0  0
  144.0651   76.5859  220.3773 H   0  0  0  0  0  0  0  0  0  0  0  0
  144.4755   75.3255  219.2330 H   0  0  0  0  0  0  0  0  0  0  0  0
  143.0383   77.4912  218.4605 H   0  0  0  0  0  0  0  0  0  0  0  0
  142.6439   75.9169  217.7691 H   0  0  0  0  0  0  0  0  0  0  0  0
  140.5976   76.3701  218.6448 H   0  0  0  0  0  0  0  0  0  0  0  0
  139.2768   78.0870  218.9017 H   0  0  0  0  0  0  0  0  0  0  0  0
  138.7288   80.2515  219.9636 H   0  0  0  0  0  0  0  0  0  0  0  0
  142.2544   80.0246  222.3978 H   0  0  0  0  0  0  0  0  0  0  0  0
  142.8014   77.8557  221.3292 H   0  0  0  0  0  0  0  0  0  0  0  0
  139.1497   69.9841  222.5427 H   0  0  0  0  0  0  0  0  0  0  0  0
  138.8849   68.4819  224.4848 H   0  0  0  0  0  0  0  0  0  0  0  0
  139.2360   67.9869  226.8148 H   0  0  0  0  0  0  0  0  0  0  0  0
  141.3132   70.8584  229.1947 H   0  0  0  0  0  0  0  0  0  0  0  0
  141.5813   72.3522  227.2842 H   0  0  0  0  0  0  0  0  0  0  0  0
  1  2  2  0
  2  3  1  0
  3  4  1  0
  4  5  1  0
  5  6  2  0
  5  7  1  0
  7  8  1  0
  8  9  1  0
  9 10  1  0
 10 11  1  0
 11 12  1  0
 12 13  2  0
 13 14  1  0
 14 15  2  0
 15 16  1  0
 16 17  1  0
 17 18  1  0
 17 19  1  0
 17 20  1  0
 15 21  1  0
 21 22  2  0
  2 23  1  0
 23 24  2  0
 24 25  1  0
 25 26  2  0
 26 27  1  0
 27 28  2  0
 28 29  1  0
 28 30  1  0
 30 31  2  0
 31 32  1  0
 32 33  2  0
 11  7  1  0
 22 12  1  0
 33 23  1  0
 32 26  1  0
  3 34  1  0
  4 35  1  0
  4 36  1  0
  8 37  1  0
  8 38  1  0
  9 39  1  0
  9 40  1  0
 10 41  1  0
 10 42  1  0
 11 43  1  6
 13 44  1  0
 14 45  1  0
 21 46  1  0
 22 47  1  0
 24 48  1  0
 25 49  1  0
 27 50  1  0
 30 51  1  0
 31 52  1  0
M  END
>  <smiles>  (14) 
O=C(NCC(=O)N1CCCC1c1ccc(OC(F)(F)F)cc1)c1ccc2cc(F)ccc2n1

>  <score_type>  (14) 
oracle

>  <origin>  (14) 
autodockgpu

>  <m_score__min__energy>  (14) 
-7.9100000000000001

>  <m_primary>  (14) 
energy

>  <rmsd>  (14) 
2.112787696182642

>  <m_score__min__rmsd>  (14) 
2.112787696182642

>  <meeko>  (14) 
{"free_energy": -7.56, "intermolecular_energy": -9.65, "internal_energy": -1.61, "cluster_size": 17, "cluster_id": 2, "rank_in_cluster": 11}

>  <energy>  (14) 
-7.57

>  <cluster_rmsd>  (14) 
0.72

>  <cluster>  (14) 
1

$$$$

     RDKit          3D

 52 55  0  0  0  0  0  0  0  0999 V2000
  140.0420   70.9070  221.1770 O   0  0  0  0  0  0  0  0  0  0  0  0
  139.8830   71.5060  222.2860 C   0  0  0  0  0  0  0  0  0  0  0  0
  139.7210   72.9230  222.3670 N   0  0  0  0  0  0  0  0  0  0  0  0
  139.7340   73.7200  221.1860 C   0  0  0  0  0  0  0  0  0  0  0  0
  140.1960   75.0870  221.5370 C   0  0  0  0  0  0  0  0  0  0  0  0
  139.8410   75.5780  222.6600 O   0  0  0  0  0  0  0  0  0  0  0  0
  141.0250   75.8520  220.6360 N   0  0  0  0  0  0  0  0  0  0  0  0
  142.3340   75.4640  220.2330 C   0  0  0  0  0  0  0  0  0  0  0  0
  142.9530   76.7370  219.7120 C   0  0  0  0  0  0  0  0  0  0  0  0
  141.7720   77.4940  219.1710 C   0  0  0  0  0  0  0  0  0  0  0  0
  140.6370   77.0980  220.0320 C   0  0  2  0  0  0  0  0  0  0  0  0
  140.3420   78.0570  221.1480 C   0  0  0  0  0  0  0  0  0  0  0  0
  139.1730   78.7820  221.0780 C   0  0  0  0  0  0  0  0  0  0  0  0
  138.8800   79.6690  222.1020 C   0  0  0  0  0  0  0  0  0  0  0  0
  139.7070   79.8590  223.1890 C   0  0  0  0  0  0  0  0  0  0  0  0
  139.3820   80.7690  224.2140 O   0  0  0  0  0  0  0  0  0  0  0  0
  138.0030   81.0660  224.4300 C   0  0  0  0  0  0  0  0  0  0  0  0
  137.6000   82.0160  223.4890 F   0  0  0  0  0  0  0  0  0  0  0  0
  137.7580   81.6280  225.6540 F   0  0  0  0  0  0  0  0  0  0  0  0
  137.2560   79.9230  224.2520 F   0  0  0  0  0  0  0  0  0  0  0  0
  140.8870   79.1170  223.2460 C   0  0  0  0  0  0  0  0  0  0  0  0
  141.1820   78.2280  222.2220 C   0  0  0  0  0  0  0  0  0  0  0  0
  139.8630   70.7250  223.5270 C   0  0  0  0  0  0  0  0  0  0  0  0
  139.2350   69.4900  223.5500 C   0  0  0  0  0  0  0  0  0  0  0  0
  139.1990   68.7300  224.7030 C   0  0  0  0  0  0  0  0  0  0  0  0
  139.7990   69.1920  225.8740 C   0  0  0  0  0  0  0  0  0  0  0  0
  139.7560   68.4180  227.0220 C   0  0  0  0  0  0  0  0  0  0  0  0
  140.3550   68.8940  228.1660 C   0  0  0  0  0  0  0  0  0  0  0  0
  140.3290   68.1570  229.3080 F   0  0  0  0  0  0  0  0  0  0  0  0
  140.9670   70.1270  228.0890 C   0  0  0  0  0  0  0  0  0  0  0  0
  141.0130   70.8940  226.9620 C   0  0  0  0  0  0  0  0  0  0  0  0
  140.4070   70.4130  225.8070 C   0  0  0  0  0  0  0  0  0  0  0  0
  140.4380   71.1580  224.6670 N   0  0  0  0  0  0  0  0  0  0  0  0
  139.5940   73.3490  223.3330 H   0  0  0  0  0  0  0  0  0  0  0  0
  140.4185   73.2764  220.4480 H   0  0  0  0  0  0  0  0  0  0  0  0
  138.7231   73.7661  220.7547 H   0  0  0  0  0  0  0  0  0  0  0  0
  142.9057   75.0735  221.0878 H   0  0  0  0  0  0  0  0  0  0  0  0
  142.3228   74.6620  219.4802 H   0  0  0  0  0  0  0  0  0  0  0  0
  143.4441   77.2973  220.5213 H   0  0  0  0  0  0  0  0  0  0  0  0
  143.7353   76.5607  218.9591 H   0  0  0  0  0  0  0  0  0  0  0  0
  141.9457   78.5783  219.2346 H   0  0  0  0  0  0  0  0  0  0  0  0
  141.5857   77.2667  218.1110 H   0  0  0  0  0  0  0  0  0  0  0  0
  139.7329   77.0546  219.4069 H   0  0  0  0  0  0  0  0  0  0  0  0
  138.4864   78.6597  220.2274 H   0  0  0  0  0  0  0  0  0  0  0  0
  137.9460   80.2472  222.0450 H   0  0  0  0  0  0  0  0  0  0  0  0
  141.5770   79.2354  224.0945 H   0  0  0  0  0  0  0  0  0  0  0  0
  142.1132   77.6446  222.2714 H   0  0  0  0  0  0  0  0  0  0  0  0
  138.7574   69.1086  222.6354 H   0  0  0  0  0  0  0  0  0  0  0  0
  138.6933   67.7532  224.6974 H   0  0  0  0  0  0  0  0  0  0  0  0
  139.2520   67.4402  227.0193 H   0  0  0  0  0  0  0  0  0  0  0  0
  141.4502   70.5181  228.9965 H   0  0  0  0  0  0  0  0  0  0  0  0
  141.5182   71.8711  226.9669 H   0  0  0  0  0  0  0  0  0  0  0  0
  1  2  2  0
  2  3  1  0
  3  4  1  0
  4  5  1  0
  5  6  2  0
  5  7  1  0
  7  8  1  0
  8  9  1  0
  9 10  1  0
 10 11  1  0
 11 12  1  0
 12 13  2  0
 13 14  1  0
 14 15  2  0
 15 16  1  0
 16 17  1  0
 17 18  1  0
 17 19  1  0
 17 20  1  0
 15 21  1  0
 21 22  2  0
  2 23  1  0
 23 24  2  0
 24 25  1  0
 25 26  2  0
 26 27  1  0
 27 28  2  0
 28 29  1  0
 28 30  1  0
 30 31  2  0
 31 32  1  0
 32 33  2  0
 11  7  1  0
 22 12  1  0
 33 23  1  0
 32 26  1  0
  3 34  1  0
  4 35  1  0
  4 36  1  0
  8 37  1  0
  8 38  1  0
  9 39  1  0
  9 40  1  0
 10 41  1  0
 10 42  1  0
 11 43  1  6
 13 44  1  0
 14 45  1  0
 21 46  1  0
 22 47  1  0
 24 48  1  0
 25 49  1  0
 27 50  1  0
 30 51  1  0
 31 52  1  0
M  END
>  <smiles>  (15) 
O=C(NCC(=O)N1CCCC1c1ccc(OC(F)(F)F)cc1)c1ccc2cc(F)ccc2n1

>  <score_type>  (15) 
oracle

>  <origin>  (15) 
autodockgpu

>  <m_score__min__energy>  (15) 
-7.9100000000000001

>  <m_primary>  (15) 
energy

>  <rmsd>  (15) 
1.839260001169009

>  <m_score__min__rmsd>  (15) 
1.839260001169009

>  <meeko>  (15) 
{"free_energy": -7.82, "intermolecular_energy": -9.9, "internal_energy": -1.87, "cluster_size": 4, "cluster_id": 3, "rank_in_cluster": 1}

>  <energy>  (15) 
-7.57

>  <cluster_rmsd>  (15) 
0.5

>  <cluster>  (15) 
1

$$$$

     RDKit          3D

 52 55  0  0  0  0  0  0  0  0999 V2000
  137.9730   70.7440  221.9120 O   0  0  0  0  0  0  0  0  0  0  0  0
  138.7040   71.2810  222.8020 C   0  0  0  0  0  0  0  0  0  0  0  0
  139.1530   72.6330  222.7020 N   0  0  0  0  0  0  0  0  0  0  0  0
  138.7880   73.4330  221.5800 C   0  0  0  0  0  0  0  0  0  0  0  0
  139.8090   74.4960  221.4000 C   0  0  0  0  0  0  0  0  0  0  0  0
  140.6730   74.6710  222.3220 O   0  0  0  0  0  0  0  0  0  0  0  0
  139.8310   75.3190  220.2140 N   0  0  0  0  0  0  0  0  0  0  0  0
  140.4350   74.9320  218.9850 C   0  0  0  0  0  0  0  0  0  0  0  0
  140.6230   76.2290  218.2400 C   0  0  0  0  0  0  0  0  0  0  0  0
  139.4790   77.0730  218.7310 C   0  0  0  0  0  0  0  0  0  0  0  0
  139.2470   76.6300  220.1220 C   0  0  2  0  0  0  0  0  0  0  0  0
  139.9120   77.4840  221.1630 C   0  0  0  0  0  0  0  0  0  0  0  0
  139.1420   77.9310  222.2130 C   0  0  0  0  0  0  0  0  0  0  0  0
  139.7380   78.7160  223.1860 C   0  0  0  0  0  0  0  0  0  0  0  0
  141.0710   79.0700  223.1520 C   0  0  0  0  0  0  0  0  0  0  0  0
  141.6490   79.8700  224.1570 O   0  0  0  0  0  0  0  0  0  0  0  0
  142.4600   80.9710  223.7510 C   0  0  0  0  0  0  0  0  0  0  0  0
  143.7540   80.5040  223.5060 F   0  0  0  0  0  0  0  0  0  0  0  0
  142.5890   81.9320  224.7190 F   0  0  0  0  0  0  0  0  0  0  0  0
  141.9540   81.5050  222.5870 F   0  0  0  0  0  0  0  0  0  0  0  0
  141.8390   78.6080  222.0830 C   0  0  0  0  0  0  0  0  0  0  0  0
  141.2430   77.8220  221.1070 C   0  0  0  0  0  0  0  0  0  0  0  0
  139.1030   70.4930  223.9740 C   0  0  0  0  0  0  0  0  0  0  0  0
  138.8540   69.1310  224.0020 C   0  0  0  0  0  0  0  0  0  0  0  0
  139.2180   68.3620  225.0910 C   0  0  0  0  0  0  0  0  0  0  0  0
  139.8480   68.9450  226.1900 C   0  0  0  0  0  0  0  0  0  0  0  0
  140.2080   68.1610  227.2740 C   0  0  0  0  0  0  0  0  0  0  0  0
  140.8290   68.7590  228.3470 C   0  0  0  0  0  0  0  0  0  0  0  0
  141.1950   68.0150  229.4250 F   0  0  0  0  0  0  0  0  0  0  0  0
  141.0540   70.1160  228.2670 C   0  0  0  0  0  0  0  0  0  0  0  0
  140.7020   70.8930  227.2040 C   0  0  0  0  0  0  0  0  0  0  0  0
  140.0750   70.2900  226.1200 C   0  0  0  0  0  0  0  0  0  0  0  0
  139.7130   71.0430  225.0440 N   0  0  0  0  0  0  0  0  0  0  0  0
  139.7610   73.0080  223.4890 H   0  0  0  0  0  0  0  0  0  0  0  0
  138.7435   72.8060  220.6773 H   0  0  0  0  0  0  0  0  0  0  0  0
  137.8005   73.8871  221.7492 H   0  0  0  0  0  0  0  0  0  0  0  0
  141.4030   74.4410  219.1637 H   0  0  0  0  0  0  0  0  0  0  0  0
  139.8237   74.2093  218.4246 H   0  0  0  0  0  0  0  0  0  0  0  0
  141.5898   76.6909  218.4889 H   0  0  0  0  0  0  0  0  0  0  0  0
  140.6297   76.1030  217.1473 H   0  0  0  0  0  0  0  0  0  0  0  0
  139.7461   78.1397  218.7043 H   0  0  0  0  0  0  0  0  0  0  0  0
  138.5817   76.9576  218.1052 H   0  0  0  0  0  0  0  0  0  0  0  0
  138.1659   76.6765  220.3196 H   0  0  0  0  0  0  0  0  0  0  0  0
  138.0754   77.6701  222.2779 H   0  0  0  0  0  0  0  0  0  0  0  0
  139.1208   79.0733  224.0235 H   0  0  0  0  0  0  0  0  0  0  0  0
  142.9065   78.8642  222.0144 H   0  0  0  0  0  0  0  0  0  0  0  0
  141.8522   77.4597  220.2658 H   0  0  0  0  0  0  0  0  0  0  0  0
  138.3586   68.6536  223.1437 H   0  0  0  0  0  0  0  0  0  0  0  0
  139.0092   67.2820  225.0909 H   0  0  0  0  0  0  0  0  0  0  0  0
  140.0014   67.0806  227.2771 H   0  0  0  0  0  0  0  0  0  0  0  0
  141.5509   70.6049  229.1179 H   0  0  0  0  0  0  0  0  0  0  0  0
  140.9095   71.9732  227.2040 H   0  0  0  0  0  0  0  0  0  0  0  0
  1  2  2  0
  2  3  1  0
  3  4  1  0
  4  5  1  0
  5  6  2  0
  5  7  1  0
  7  8  1  0
  8  9  1  0
  9 10  1  0
 10 11  1  0
 11 12  1  0
 12 13  2  0
 13 14  1  0
 14 15  2  0
 15 16  1  0
 16 17  1  0
 17 18  1  0
 17 19  1  0
 17 20  1  0
 15 21  1  0
 21 22  2  0
  2 23  1  0
 23 24  2  0
 24 25  1  0
 25 26  2  0
 26 27  1  0
 27 28  2  0
 28 29  1  0
 28 30  1  0
 30 31  2  0
 31 32  1  0
 32 33  2  0
 11  7  1  0
 22 12  1  0
 33 23  1  0
 32 26  1  0
  3 34  1  0
  4 35  1  0
  4 36  1  0
  8 37  1  0
  8 38  1  0
  9 39  1  0
  9 40  1  0
 10 41  1  0
 10 42  1  0
 11 43  1  1
 13 44  1  0
 14 45  1  0
 21 46  1  0
 22 47  1  0
 24 48  1  0
 25 49  1  0
 27 50  1  0
 30 51  1  0
 31 52  1  0
M  END
>  <smiles>  (16) 
O=C(NCC(=O)N1CCCC1c1ccc(OC(F)(F)F)cc1)c1ccc2cc(F)ccc2n1

>  <score_type>  (16) 
oracle

>  <origin>  (16) 
autodockgpu

>  <m_score__min__energy>  (16) 
-7.9100000000000001

>  <m_primary>  (16) 
energy

>  <rmsd>  (16) 
1.2914000835184898

>  <m_score__min__rmsd>  (16) 
1.2914000835184898

>  <meeko>  (16) 
{"free_energy": -7.68, "intermolecular_energy": -9.77, "internal_energy": -2.23, "cluster_size": 17, "cluster_id": 2, "rank_in_cluster": 7}

>  <energy>  (16) 
-7.52

>  <cluster_rmsd>  (16) 
0.73

>  <cluster>  (16) 
1

$$$$

     RDKit          3D

 52 55  0  0  0  0  0  0  0  0999 V2000
  140.9650   71.1320  221.0350 O   0  0  0  0  0  0  0  0  0  0  0  0
  140.5930   71.8400  222.0220 C   0  0  0  0  0  0  0  0  0  0  0  0
  140.4520   73.2580  221.9290 N   0  0  0  0  0  0  0  0  0  0  0  0
  140.7290   73.9320  220.7040 C   0  0  0  0  0  0  0  0  0  0  0  0
  141.0750   75.3450  221.0030 C   0  0  0  0  0  0  0  0  0  0  0  0
  141.0030   75.7440  222.2130 O   0  0  0  0  0  0  0  0  0  0  0  0
  141.4840   76.2530  219.9590 N   0  0  0  0  0  0  0  0  0  0  0  0
  140.5890   76.8620  219.0340 C   0  0  0  0  0  0  0  0  0  0  0  0
  141.4770   77.3120  217.9010 C   0  0  0  0  0  0  0  0  0  0  0  0
  142.7810   77.6110  218.5880 C   0  0  0  0  0  0  0  0  0  0  0  0
  142.8430   76.6610  219.7200 C   0  0  2  0  0  0  0  0  0  0  0  0
  143.6350   75.4170  219.4420 C   0  0  0  0  0  0  0  0  0  0  0  0
  144.4220   74.9180  220.4560 C   0  0  0  0  0  0  0  0  0  0  0  0
  145.1570   73.7680  220.2200 C   0  0  0  0  0  0  0  0  0  0  0  0
  145.1350   73.0970  219.0150 C   0  0  0  0  0  0  0  0  0  0  0  0
  145.8940   71.9280  218.8060 O   0  0  0  0  0  0  0  0  0  0  0  0
  145.2400   70.6710  218.9650 C   0  0  0  0  0  0  0  0  0  0  0  0
  144.6850   70.2990  217.7380 F   0  0  0  0  0  0  0  0  0  0  0  0
  144.1940   70.7140  219.8480 F   0  0  0  0  0  0  0  0  0  0  0  0
  146.1640   69.7200  219.3390 F   0  0  0  0  0  0  0  0  0  0  0  0
  144.3320   73.6130  217.9980 C   0  0  0  0  0  0  0  0  0  0  0  0
  143.5960   74.7660  218.2320 C   0  0  0  0  0  0  0  0  0  0  0  0
  140.2960   71.1880  223.3020 C   0  0  0  0  0  0  0  0  0  0  0  0
  139.5790   70.0030  223.3190 C   0  0  0  0  0  0  0  0  0  0  0  0
  139.2850   69.3640  224.5080 C   0  0  0  0  0  0  0  0  0  0  0  0
  139.7060   69.9020  225.7230 C   0  0  0  0  0  0  0  0  0  0  0  0
  139.4040   69.2490  226.9070 C   0  0  0  0  0  0  0  0  0  0  0  0
  139.8320   69.7980  228.0940 C   0  0  0  0  0  0  0  0  0  0  0  0
  139.5510   69.1810  229.2730 F   0  0  0  0  0  0  0  0  0  0  0  0
  140.5420   70.9770  228.0220 C   0  0  0  0  0  0  0  0  0  0  0  0
  140.8430   71.6240  226.8610 C   0  0  0  0  0  0  0  0  0  0  0  0
  140.4110   71.0700  225.6610 C   0  0  0  0  0  0  0  0  0  0  0  0
  140.6980   71.6960  224.4860 N   0  0  0  0  0  0  0  0  0  0  0  0
  140.1370   73.7800  222.8000 H   0  0  0  0  0  0  0  0  0  0  0  0
  141.5740   73.4439  220.1963 H   0  0  0  0  0  0  0  0  0  0  0  0
  139.8465   73.8939  220.0485 H   0  0  0  0  0  0  0  0  0  0  0  0
  139.8415   76.1370  218.6795 H   0  0  0  0  0  0  0  0  0  0  0  0
  140.0225   77.6925  219.4805 H   0  0  0  0  0  0  0  0  0  0  0  0
  141.5983   76.5142  217.1535 H   0  0  0  0  0  0  0  0  0  0  0  0
  141.0714   78.1730  217.3494 H   0  0  0  0  0  0  0  0  0  0  0  0
  143.6255   77.4504  217.9016 H   0  0  0  0  0  0  0  0  0  0  0  0
  142.8419   78.6572  218.9223 H   0  0  0  0  0  0  0  0  0  0  0  0
  143.3361   77.1665  220.5634 H   0  0  0  0  0  0  0  0  0  0  0  0
  144.4660   75.4221  221.4327 H   0  0  0  0  0  0  0  0  0  0  0  0
  145.7868   73.3718  221.0302 H   0  0  0  0  0  0  0  0  0  0  0  0
  144.2826   73.1111  217.0204 H   0  0  0  0  0  0  0  0  0  0  0  0
  142.9642   75.1700  217.4272 H   0  0  0  0  0  0  0  0  0  0  0  0
  139.2380   69.5635  222.3700 H   0  0  0  0  0  0  0  0  0  0  0  0
  138.7144   68.4236  224.4958 H   0  0  0  0  0  0  0  0  0  0  0  0
  138.8327   68.3091  226.8983 H   0  0  0  0  0  0  0  0  0  0  0  0
  140.8889   71.4257  228.9645 H   0  0  0  0  0  0  0  0  0  0  0  0
  141.4149   72.5635  226.8729 H   0  0  0  0  0  0  0  0  0  0  0  0
  1  2  2  0
  2  3  1  0
  3  4  1  0
  4  5  1  0
  5  6  2  0
  5  7  1  0
  7  8  1  0
  8  9  1  0
  9 10  1  0
 10 11  1  0
 11 12  1  0
 12 13  2  0
 13 14  1  0
 14 15  2  0
 15 16  1  0
 16 17  1  0
 17 18  1  0
 17 19  1  0
 17 20  1  0
 15 21  1  0
 21 22  2  0
  2 23  1  0
 23 24  2  0
 24 25  1  0
 25 26  2  0
 26 27  1  0
 27 28  2  0
 28 29  1  0
 28 30  1  0
 30 31  2  0
 31 32  1  0
 32 33  2  0
 11  7  1  0
 22 12  1  0
 33 23  1  0
 32 26  1  0
  3 34  1  0
  4 35  1  0
  4 36  1  0
  8 37  1  0
  8 38  1  0
  9 39  1  0
  9 40  1  0
 10 41  1  0
 10 42  1  0
 11 43  1  1
 13 44  1  0
 14 45  1  0
 21 46  1  0
 22 47  1  0
 24 48  1  0
 25 49  1  0
 27 50  1  0
 30 51  1  0
 31 52  1  0
M  END
>  <smiles>  (17) 
O=C(NCC(=O)N1CCCC1c1ccc(OC(F)(F)F)cc1)c1ccc2cc(F)ccc2n1

>  <score_type>  (17) 
oracle

>  <origin>  (17) 
autodockgpu

>  <m_score__min__energy>  (17) 
-7.9100000000000001

>  <m_primary>  (17) 
energy

>  <rmsd>  (17) 
1.8919660708199317

>  <m_score__min__rmsd>  (17) 
1.8919660708199317

>  <meeko>  (17) 
{"free_energy": -7.75, "intermolecular_energy": -9.84, "internal_energy": -2.26, "cluster_size": 22, "cluster_id": 1, "rank_in_cluster": 7}

>  <energy>  (17) 
-7.51

>  <cluster_rmsd>  (17) 
0.46

>  <cluster>  (17) 
1

$$$$

     RDKit          3D

 52 55  0  0  0  0  0  0  0  0999 V2000
  141.3200   72.0370  221.3760 O   0  0  0  0  0  0  0  0  0  0  0  0
  140.4210   72.3520  222.2170 C   0  0  0  0  0  0  0  0  0  0  0  0
  139.5750   73.4880  222.0330 N   0  0  0  0  0  0  0  0  0  0  0  0
  139.7170   74.3150  220.8810 C   0  0  0  0  0  0  0  0  0  0  0  0
  140.8090   75.2910  221.1260 C   0  0  0  0  0  0  0  0  0  0  0  0
  141.0720   75.6180  222.3310 O   0  0  0  0  0  0  0  0  0  0  0  0
  141.5600   75.8650  220.0340 N   0  0  0  0  0  0  0  0  0  0  0  0
  140.9700   76.5060  218.9090 C   0  0  0  0  0  0  0  0  0  0  0  0
  142.0610   76.5060  217.8690 C   0  0  0  0  0  0  0  0  0  0  0  0
  143.3170   76.5800  218.6920 C   0  0  0  0  0  0  0  0  0  0  0  0
  142.9950   75.8630  219.9450 C   0  0  2  0  0  0  0  0  0  0  0  0
  143.4380   74.4290  219.9690 C   0  0  0  0  0  0  0  0  0  0  0  0
  142.8300   73.5550  219.0950 C   0  0  0  0  0  0  0  0  0  0  0  0
  143.2280   72.2280  219.0990 C   0  0  0  0  0  0  0  0  0  0  0  0
  144.2080   71.7410  219.9390 C   0  0  0  0  0  0  0  0  0  0  0  0
  144.5910   70.3860  219.9190 O   0  0  0  0  0  0  0  0  0  0  0  0
  145.4420   69.9480  218.8610 C   0  0  0  0  0  0  0  0  0  0  0  0
  145.9640   71.0720  218.2150 F   0  0  0  0  0  0  0  0  0  0  0  0
  144.7800   69.2380  217.8940 F   0  0  0  0  0  0  0  0  0  0  0  0
  146.4830   69.2160  219.3860 F   0  0  0  0  0  0  0  0  0  0  0  0
  144.8150   72.6380  220.8180 C   0  0  0  0  0  0  0  0  0  0  0  0
  144.4170   73.9670  220.8160 C   0  0  0  0  0  0  0  0  0  0  0  0
  140.2400   71.5280  223.4170 C   0  0  0  0  0  0  0  0  0  0  0  0
  139.5680   70.3200  223.3240 C   0  0  0  0  0  0  0  0  0  0  0  0
  139.3820   69.5200  224.4360 C   0  0  0  0  0  0  0  0  0  0  0  0
  139.8690   69.9160  225.6810 C   0  0  0  0  0  0  0  0  0  0  0  0
  139.6750   69.1030  226.7860 C   0  0  0  0  0  0  0  0  0  0  0  0
  140.1660   69.5140  228.0050 C   0  0  0  0  0  0  0  0  0  0  0  0
  139.9920   68.7380  229.1070 F   0  0  0  0  0  0  0  0  0  0  0  0
  140.8270   70.7230  228.0420 C   0  0  0  0  0  0  0  0  0  0  0  0
  141.0210   71.5270  226.9580 C   0  0  0  0  0  0  0  0  0  0  0  0
  140.5250   71.1130  225.7270 C   0  0  0  0  0  0  0  0  0  0  0  0
  140.7050   71.8970  224.6270 N   0  0  0  0  0  0  0  0  0  0  0  0
  138.8460   73.6850  222.7820 H   0  0  0  0  0  0  0  0  0  0  0  0
  139.9651   73.6937  220.0078 H   0  0  0  0  0  0  0  0  0  0  0  0
  138.7752   74.8484  220.6847 H   0  0  0  0  0  0  0  0  0  0  0  0
  140.0935   75.9436  218.5549 H   0  0  0  0  0  0  0  0  0  0  0  0
  140.6102   77.5190  219.1421 H   0  0  0  0  0  0  0  0  0  0  0  0
  142.0353   75.5839  217.2698 H   0  0  0  0  0  0  0  0  0  0  0  0
  141.9689   77.3298  217.1459 H   0  0  0  0  0  0  0  0  0  0  0  0
  144.1515   76.0897  218.1692 H   0  0  0  0  0  0  0  0  0  0  0  0
  143.6291   77.6183  218.8780 H   0  0  0  0  0  0  0  0  0  0  0  0
  143.5166   76.3673  220.7718 H   0  0  0  0  0  0  0  0  0  0  0  0
  142.0447   73.9035  218.4081 H   0  0  0  0  0  0  0  0  0  0  0  0
  142.7407   71.5314  218.4010 H   0  0  0  0  0  0  0  0  0  0  0  0
  145.6016   72.2949  221.5061 H   0  0  0  0  0  0  0  0  0  0  0  0
  144.8982   74.6704  221.5114 H   0  0  0  0  0  0  0  0  0  0  0  0
  139.1762   69.9922  222.3498 H   0  0  0  0  0  0  0  0  0  0  0  0
  138.8461   68.5644  224.3379 H   0  0  0  0  0  0  0  0  0  0  0  0
  139.1388   68.1472  226.6912 H   0  0  0  0  0  0  0  0  0  0  0  0
  141.2243   71.0616  229.0102 H   0  0  0  0  0  0  0  0  0  0  0  0
  141.5581   72.4820  227.0553 H   0  0  0  0  0  0  0  0  0  0  0  0
  1  2  2  0
  2  3  1  0
  3  4  1  0
  4  5  1  0
  5  6  2  0
  5  7  1  0
  7  8  1  0
  8  9  1  0
  9 10  1  0
 10 11  1  0
 11 12  1  0
 12 13  2  0
 13 14  1  0
 14 15  2  0
 15 16  1  0
 16 17  1  0
 17 18  1  0
 17 19  1  0
 17 20  1  0
 15 21  1  0
 21 22  2  0
  2 23  1  0
 23 24  2  0
 24 25  1  0
 25 26  2  0
 26 27  1  0
 27 28  2  0
 28 29  1  0
 28 30  1  0
 30 31  2  0
 31 32  1  0
 32 33  2  0
 11  7  1  0
 22 12  1  0
 33 23  1  0
 32 26  1  0
  3 34  1  0
  4 35  1  0
  4 36  1  0
  8 37  1  0
  8 38  1  0
  9 39  1  0
  9 40  1  0
 10 41  1  0
 10 42  1  0
 11 43  1  1
 13 44  1  0
 14 45  1  0
 21 46  1  0
 22 47  1  0
 24 48  1  0
 25 49  1  0
 27 50  1  0
 30 51  1  0
 31 52  1  0
M  END
>  <smiles>  (18) 
O=C(NCC(=O)N1CCCC1c1ccc(OC(F)(F)F)cc1)c1ccc2cc(F)ccc2n1

>  <score_type>  (18) 
oracle

>  <origin>  (18) 
autodockgpu

>  <m_score__min__energy>  (18) 
-7.9100000000000001

>  <m_primary>  (18) 
energy

>  <rmsd>  (18) 
1.869468147982053

>  <m_score__min__rmsd>  (18) 
1.869468147982053

>  <meeko>  (18) 
{"free_energy": -7.63, "intermolecular_energy": -9.72, "internal_energy": -2.0, "cluster_size": 22, "cluster_id": 1, "rank_in_cluster": 11}

>  <energy>  (18) 
-7.49

>  <cluster_rmsd>  (18) 
0.89

>  <cluster>  (18) 
1

$$$$

     RDKit          3D

 52 55  0  0  0  0  0  0  0  0999 V2000
  139.1340   71.1540  220.9670 O   0  0  0  0  0  0  0  0  0  0  0  0
  139.0420   71.8000  222.0570 C   0  0  0  0  0  0  0  0  0  0  0  0
  138.6120   73.1620  222.0970 N   0  0  0  0  0  0  0  0  0  0  0  0
  138.2700   73.8470  220.8950 C   0  0  0  0  0  0  0  0  0  0  0  0
  139.1580   75.0280  220.7490 C   0  0  0  0  0  0  0  0  0  0  0  0
  138.6420   76.1910  220.8370 O   0  0  0  0  0  0  0  0  0  0  0  0
  140.5740   74.8750  220.5100 N   0  0  0  0  0  0  0  0  0  0  0  0
  141.3050   73.6830  220.7770 C   0  0  0  0  0  0  0  0  0  0  0  0
  142.7430   74.1340  220.8250 C   0  0  0  0  0  0  0  0  0  0  0  0
  142.7680   75.2950  219.8700 C   0  0  0  0  0  0  0  0  0  0  0  0
  141.4240   75.9020  219.9710 C   0  0  2  0  0  0  0  0  0  0  0  0
  141.3430   77.0760  220.9030 C   0  0  0  0  0  0  0  0  0  0  0  0
  141.0750   76.8240  222.2300 C   0  0  0  0  0  0  0  0  0  0  0  0
  141.0010   77.8940  223.1060 C   0  0  0  0  0  0  0  0  0  0  0  0
  141.1860   79.2030  222.7110 C   0  0  0  0  0  0  0  0  0  0  0  0
  141.1050   80.2700  223.6280 O   0  0  0  0  0  0  0  0  0  0  0  0
  142.0960   81.2920  223.5510 C   0  0  0  0  0  0  0  0  0  0  0  0
  143.3390   80.6930  223.3300 F   0  0  0  0  0  0  0  0  0  0  0  0
  142.2280   82.0040  224.7130 F   0  0  0  0  0  0  0  0  0  0  0  0
  141.8120   82.1250  222.4910 F   0  0  0  0  0  0  0  0  0  0  0  0
  141.4580   79.4420  221.3640 C   0  0  0  0  0  0  0  0  0  0  0  0
  141.5320   78.3720  220.4840 C   0  0  0  0  0  0  0  0  0  0  0  0
  139.3830   71.1340  223.3180 C   0  0  0  0  0  0  0  0  0  0  0  0
  139.1440   69.7780  223.4640 C   0  0  0  0  0  0  0  0  0  0  0  0
  139.4560   69.1210  224.6390 C   0  0  0  0  0  0  0  0  0  0  0  0
  140.0220   69.8140  225.7080 C   0  0  0  0  0  0  0  0  0  0  0  0
  140.3290   69.1420  226.8800 C   0  0  0  0  0  0  0  0  0  0  0  0
  140.8880   69.8480  227.9210 C   0  0  0  0  0  0  0  0  0  0  0  0
  141.2010   69.2150  229.0840 F   0  0  0  0  0  0  0  0  0  0  0  0
  141.1060   71.1940  227.7240 C   0  0  0  0  0  0  0  0  0  0  0  0
  140.8060   71.8610  226.5730 C   0  0  0  0  0  0  0  0  0  0  0  0
  140.2410   71.1490  225.5210 C   0  0  0  0  0  0  0  0  0  0  0  0
  139.9310   71.7910  224.3600 N   0  0  0  0  0  0  0  0  0  0  0  0
  138.5610   73.6340  223.0490 H   0  0  0  0  0  0  0  0  0  0  0  0
  138.4046   73.1745  220.0350 H   0  0  0  0  0  0  0  0  0  0  0  0
  137.2197   74.1714  220.9352 H   0  0  0  0  0  0  0  0  0  0  0  0
  141.0008   73.2461  221.7396 H   0  0  0  0  0  0  0  0  0  0  0  0
  141.1326   72.9044  220.0193 H   0  0  0  0  0  0  0  0  0  0  0  0
  143.0236   74.4515  221.8401 H   0  0  0  0  0  0  0  0  0  0  0  0
  143.4548   73.3390  220.5580 H   0  0  0  0  0  0  0  0  0  0  0  0
  143.5424   76.0195  220.1622 H   0  0  0  0  0  0  0  0  0  0  0  0
  143.0032   74.9801  218.8426 H   0  0  0  0  0  0  0  0  0  0  0  0
  141.1400   76.2704  218.9742 H   0  0  0  0  0  0  0  0  0  0  0  0
  140.9229   75.7946  222.5866 H   0  0  0  0  0  0  0  0  0  0  0  0
  140.7848   77.6910  224.1653 H   0  0  0  0  0  0  0  0  0  0  0  0
  141.6124   80.4695  221.0027 H   0  0  0  0  0  0  0  0  0  0  0  0
  141.7476   78.5655  219.4228 H   0  0  0  0  0  0  0  0  0  0  0  0
  138.6985   69.2145  222.6310 H   0  0  0  0  0  0  0  0  0  0  0  0
  139.2563   68.0433  224.7315 H   0  0  0  0  0  0  0  0  0  0  0  0
  140.1298   68.0645  226.9768 H   0  0  0  0  0  0  0  0  0  0  0  0
  141.5514   71.7685  228.5495 H   0  0  0  0  0  0  0  0  0  0  0  0
  141.0066   72.9385  226.4790 H   0  0  0  0  0  0  0  0  0  0  0  0
  1  2  2  0
  2  3  1  0
  3  4  1  0
  4  5  1  0
  5  6  2  0
  5  7  1  0
  7  8  1  0
  8  9  1  0
  9 10  1  0
 10 11  1  0
 11 12  1  0
 12 13  2  0
 13 14  1  0
 14 15  2  0
 15 16  1  0
 16 17  1  0
 17 18  1  0
 17 19  1  0
 17 20  1  0
 15 21  1  0
 21 22  2  0
  2 23  1  0
 23 24  2  0
 24 25  1  0
 25 26  2  0
 26 27  1  0
 27 28  2  0
 28 29  1  0
 28 30  1  0
 30 31  2  0
 31 32  1  0
 32 33  2  0
 11  7  1  0
 22 12  1  0
 33 23  1  0
 32 26  1  0
  3 34  1  0
  4 35  1  0
  4 36  1  0
  8 37  1  0
  8 38  1  0
  9 39  1  0
  9 40  1  0
 10 41  1  0
 10 42  1  0
 11 43  1  6
 13 44  1  0
 14 45  1  0
 21 46  1  0
 22 47  1  0
 24 48  1  0
 25 49  1  0
 27 50  1  0
 30 51  1  0
 31 52  1  0
M  END
>  <smiles>  (19) 
O=C(NCC(=O)N1CCCC1c1ccc(OC(F)(F)F)cc1)c1ccc2cc(F)ccc2n1

>  <score_type>  (19) 
oracle

>  <origin>  (19) 
autodockgpu

>  <m_score__min__energy>  (19) 
-7.9100000000000001

>  <m_primary>  (19) 
energy

>  <rmsd>  (19) 
2.044682626733778

>  <m_score__min__rmsd>  (19) 
2.044682626733778

>  <meeko>  (19) 
{"free_energy": -7.72, "intermolecular_energy": -9.81, "internal_energy": -1.59, "cluster_size": 17, "cluster_id": 2, "rank_in_cluster": 3}

>  <energy>  (19) 
-7.48

>  <cluster_rmsd>  (19) 
0.85

>  <cluster>  (19) 
1

$$$$

     RDKit          3D

 52 55  0  0  0  0  0  0  0  0999 V2000
  140.9120   71.0190  221.1760 O   0  0  0  0  0  0  0  0  0  0  0  0
  140.4960   71.7040  222.1620 C   0  0  0  0  0  0  0  0  0  0  0  0
  140.2770   73.1120  222.0700 N   0  0  0  0  0  0  0  0  0  0  0  0
  140.5250   73.8030  220.8480 C   0  0  0  0  0  0  0  0  0  0  0  0
  140.7670   75.2360  221.1500 C   0  0  0  0  0  0  0  0  0  0  0  0
  140.5360   75.6550  222.3330 O   0  0  0  0  0  0  0  0  0  0  0  0
  141.2510   76.1440  220.1370 N   0  0  0  0  0  0  0  0  0  0  0  0
  140.4250   76.7590  219.1550 C   0  0  0  0  0  0  0  0  0  0  0  0
  141.3900   77.2050  218.0860 C   0  0  0  0  0  0  0  0  0  0  0  0
  142.6460   77.4950  218.8600 C   0  0  0  0  0  0  0  0  0  0  0  0
  142.6250   76.5440  219.9920 C   0  0  2  0  0  0  0  0  0  0  0  0
  143.4270   75.2950  219.7660 C   0  0  0  0  0  0  0  0  0  0  0  0
  143.6930   74.9300  218.4650 C   0  0  0  0  0  0  0  0  0  0  0  0
  144.4350   73.7840  218.2360 C   0  0  0  0  0  0  0  0  0  0  0  0
  144.9230   72.9890  219.2530 C   0  0  0  0  0  0  0  0  0  0  0  0
  145.6760   71.8290  218.9870 O   0  0  0  0  0  0  0  0  0  0  0  0
  145.0010   70.5730  219.0240 C   0  0  0  0  0  0  0  0  0  0  0  0
  144.0560   70.6040  220.0520 F   0  0  0  0  0  0  0  0  0  0  0  0
  145.8310   69.5220  219.3140 F   0  0  0  0  0  0  0  0  0  0  0  0
  144.3470   70.3700  217.8280 F   0  0  0  0  0  0  0  0  0  0  0  0
  144.6470   73.3720  220.5650 C   0  0  0  0  0  0  0  0  0  0  0  0
  143.9020   74.5200  220.7970 C   0  0  0  0  0  0  0  0  0  0  0  0
  140.2270   71.0340  223.4390 C   0  0  0  0  0  0  0  0  0  0  0  0
  139.5430   69.8290  223.4500 C   0  0  0  0  0  0  0  0  0  0  0  0
  139.2750   69.1720  224.6370 C   0  0  0  0  0  0  0  0  0  0  0  0
  139.6910   69.7120  225.8530 C   0  0  0  0  0  0  0  0  0  0  0  0
  139.4150   69.0420  227.0340 C   0  0  0  0  0  0  0  0  0  0  0  0
  139.8370   69.5930  228.2230 C   0  0  0  0  0  0  0  0  0  0  0  0
  139.5810   68.9590  229.3980 F   0  0  0  0  0  0  0  0  0  0  0  0
  140.5130   70.7930  228.1550 C   0  0  0  0  0  0  0  0  0  0  0  0
  140.7870   71.4570  226.9960 C   0  0  0  0  0  0  0  0  0  0  0  0
  140.3620   70.9000  225.7960 C   0  0  0  0  0  0  0  0  0  0  0  0
  140.6220   71.5430  224.6230 N   0  0  0  0  0  0  0  0  0  0  0  0
  139.9280   73.6140  222.9400 H   0  0  0  0  0  0  0  0  0  0  0  0
  141.4096   73.3747  220.3539 H   0  0  0  0  0  0  0  0  0  0  0  0
  139.6574   73.7031  220.1792 H   0  0  0  0  0  0  0  0  0  0  0  0
  139.6991   76.0389  218.7494 H   0  0  0  0  0  0  0  0  0  0  0  0
  139.8344   77.5923  219.5634 H   0  0  0  0  0  0  0  0  0  0  0  0
  141.5568   76.4075  217.3470 H   0  0  0  0  0  0  0  0  0  0  0  0
  141.0279   78.0692  217.5098 H   0  0  0  0  0  0  0  0  0  0  0  0
  143.5340   77.3296  218.2323 H   0  0  0  0  0  0  0  0  0  0  0  0
  142.6908   78.5405  219.1990 H   0  0  0  0  0  0  0  0  0  0  0  0
  143.0622   77.0455  220.8680 H   0  0  0  0  0  0  0  0  0  0  0  0
  143.3234   75.5366  217.6251 H   0  0  0  0  0  0  0  0  0  0  0  0
  144.6452   73.4938  217.1960 H   0  0  0  0  0  0  0  0  0  0  0  0
  145.0162   72.7700  221.4084 H   0  0  0  0  0  0  0  0  0  0  0  0
  143.6859   74.8175  221.8337 H   0  0  0  0  0  0  0  0  0  0  0  0
  139.2079   69.3881  222.4996 H   0  0  0  0  0  0  0  0  0  0  0  0
  138.7298   68.2167  224.6215 H   0  0  0  0  0  0  0  0  0  0  0  0
  138.8687   68.0873  227.0218 H   0  0  0  0  0  0  0  0  0  0  0  0
  140.8538   71.2445  229.0984 H   0  0  0  0  0  0  0  0  0  0  0  0
  141.3323   72.4122  227.0106 H   0  0  0  0  0  0  0  0  0  0  0  0
  1  2  2  0
  2  3  1  0
  3  4  1  0
  4  5  1  0
  5  6  2  0
  5  7  1  0
  7  8  1  0
  8  9  1  0
  9 10  1  0
 10 11  1  0
 11 12  1  0
 12 13  2  0
 13 14  1  0
 14 15  2  0
 15 16  1  0
 16 17  1  0
 17 18  1  0
 17 19  1  0
 17 20  1  0
 15 21  1  0
 21 22  2  0
  2 23  1  0
 23 24  2  0
 24 25  1  0
 25 26  2  0
 26 27  1  0
 27 28  2  0
 28 29  1  0
 28 30  1  0
 30 31  2  0
 31 32  1  0
 32 33  2  0
 11  7  1  0
 22 12  1  0
 33 23  1  0
 32 26  1  0
  3 34  1  0
  4 35  1  0
  4 36  1  0
  8 37  1  0
  8 38  1  0
  9 39  1  0
  9 40  1  0
 10 41  1  0
 10 42  1  0
 11 43  1  1
 13 44  1  0
 14 45  1  0
 21 46  1  0
 22 47  1  0
 24 48  1  0
 25 49  1  0
 27 50  1  0
 30 51  1  0
 31 52  1  0
M  END
>  <smiles>  (20) 
O=C(NCC(=O)N1CCCC1c1ccc(OC(F)(F)F)cc1)c1ccc2cc(F)ccc2n1

>  <score_type>  (20) 
oracle

>  <origin>  (20) 
autodockgpu

>  <m_score__min__energy>  (20) 
-7.9100000000000001

>  <m_primary>  (20) 
energy

>  <rmsd>  (20) 
1.767191338286122

>  <m_score__min__rmsd>  (20) 
1.767191338286122

>  <meeko>  (20) 
{"free_energy": -7.64, "intermolecular_energy": -9.73, "internal_energy": -2.26, "cluster_size": 22, "cluster_id": 1, "rank_in_cluster": 9}

>  <energy>  (20) 
-7.32

>  <cluster_rmsd>  (20) 
0.82

>  <cluster>  (20) 
1

$$$$

     RDKit          3D

 52 55  0  0  0  0  0  0  0  0999 V2000
  140.5030   77.3350  217.9060 O   0  0  0  0  0  0  0  0  0  0  0  0
  141.5870   77.3190  218.5700 C   0  0  0  0  0  0  0  0  0  0  0  0
  142.0790   78.4760  219.2470 N   0  0  0  0  0  0  0  0  0  0  0  0
  141.3570   79.7040  219.1960 C   0  0  0  0  0  0  0  0  0  0  0  0
  140.4680   79.7840  220.3830 C   0  0  0  0  0  0  0  0  0  0  0  0
  139.2200   79.9690  220.1960 O   0  0  0  0  0  0  0  0  0  0  0  0
  140.9940   79.6590  221.7220 N   0  0  0  0  0  0  0  0  0  0  0  0
  142.2440   80.1930  222.1420 C   0  0  0  0  0  0  0  0  0  0  0  0
  142.5640   79.4360  223.4070 C   0  0  0  0  0  0  0  0  0  0  0  0
  141.2060   79.1350  223.9770 C   0  0  0  0  0  0  0  0  0  0  0  0
  140.3230   78.9830  222.8000 C   0  0  2  0  0  0  0  0  0  0  0  0
  140.1090   77.5630  222.3660 C   0  0  0  0  0  0  0  0  0  0  0  0
  141.2140   76.8350  221.9860 C   0  0  0  0  0  0  0  0  0  0  0  0
  141.0380   75.5200  221.5870 C   0  0  0  0  0  0  0  0  0  0  0  0
  139.8030   74.9050  221.5530 C   0  0  0  0  0  0  0  0  0  0  0  0
  139.6570   73.5660  221.1420 O   0  0  0  0  0  0  0  0  0  0  0  0
  140.6430   72.6260  221.5650 C   0  0  0  0  0  0  0  0  0  0  0  0
  140.7020   72.6400  222.9600 F   0  0  0  0  0  0  0  0  0  0  0  0
  141.9050   72.9390  221.1360 F   0  0  0  0  0  0  0  0  0  0  0  0
  140.2780   71.3640  221.1500 F   0  0  0  0  0  0  0  0  0  0  0  0
  138.6930   75.6550  221.9410 C   0  0  0  0  0  0  0  0  0  0  0  0
  138.8670   76.9720  222.3410 C   0  0  0  0  0  0  0  0  0  0  0  0
  142.3610   76.0760  218.6490 C   0  0  0  0  0  0  0  0  0  0  0  0
  142.0570   75.0230  217.8030 C   0  0  0  0  0  0  0  0  0  0  0  0
  142.7690   73.8390  217.8530 C   0  0  0  0  0  0  0  0  0  0  0  0
  143.8150   73.6810  218.7610 C   0  0  0  0  0  0  0  0  0  0  0  0
  144.5200   72.4890  218.7980 C   0  0  0  0  0  0  0  0  0  0  0  0
  145.5490   72.3560  219.7020 C   0  0  0  0  0  0  0  0  0  0  0  0
  146.2590   71.1980  219.7630 F   0  0  0  0  0  0  0  0  0  0  0  0
  145.8110   73.4340  220.5200 C   0  0  0  0  0  0  0  0  0  0  0  0
  145.1210   74.6090  220.4880 C   0  0  0  0  0  0  0  0  0  0  0  0
  144.0820   74.7440  219.5750 C   0  0  0  0  0  0  0  0  0  0  0  0
  143.3760   75.9080  219.5220 N   0  0  0  0  0  0  0  0  0  0  0  0
  142.9940   78.3810  219.7810 H   0  0  0  0  0  0  0  0  0  0  0  0
  142.0620   80.5484  219.2041 H   0  0  0  0  0  0  0  0  0  0  0  0
  140.7570   79.7478  218.2751 H   0  0  0  0  0  0  0  0  0  0  0  0
  143.0175   80.0219  221.3788 H   0  0  0  0  0  0  0  0  0  0  0  0
  142.2054   81.2808  222.3005 H   0  0  0  0  0  0  0  0  0  0  0  0
  143.1131   78.5092  223.1844 H   0  0  0  0  0  0  0  0  0  0  0  0
  143.2074   80.0007  224.0978 H   0  0  0  0  0  0  0  0  0  0  0  0
  141.2305   78.2055  224.5647 H   0  0  0  0  0  0  0  0  0  0  0  0
  140.8575   79.9273  224.6559 H   0  0  0  0  0  0  0  0  0  0  0  0
  139.3330   79.3850  223.0613 H   0  0  0  0  0  0  0  0  0  0  0  0
  142.2162   77.2882  221.9989 H   0  0  0  0  0  0  0  0  0  0  0  0
  141.9222   74.9401  221.2838 H   0  0  0  0  0  0  0  0  0  0  0  0
  137.6887   75.2064  221.9300 H   0  0  0  0  0  0  0  0  0  0  0  0
  137.9884   77.5593  222.6463 H   0  0  0  0  0  0  0  0  0  0  0  0
  141.2356   75.1302  217.0793 H   0  0  0  0  0  0  0  0  0  0  0  0
  142.5083   73.0158  217.1715 H   0  0  0  0  0  0  0  0  0  0  0  0
  144.2621   71.6642  218.1174 H   0  0  0  0  0  0  0  0  0  0  0  0
  146.6313   73.3398  221.2468 H   0  0  0  0  0  0  0  0  0  0  0  0
  145.3808   75.4322  221.1698 H   0  0  0  0  0  0  0  0  0  0  0  0
  1  2  2  0
  2  3  1  0
  3  4  1  0
  4  5  1  0
  5  6  2  0
  5  7  1  0
  7  8  1  0
  8  9  1  0
  9 10  1  0
 10 11  1  0
 11 12  1  0
 12 13  2  0
 13 14  1  0
 14 15  2  0
 15 16  1  0
 16 17  1  0
 17 18  1  0
 17 19  1  0
 17 20  1  0
 15 21  1  0
 21 22  2  0
  2 23  1  0
 23 24  2  0
 24 25  1  0
 25 26  2  0
 26 27  1  0
 27 28  2  0
 28 29  1  0
 28 30  1  0
 30 31  2  0
 31 32  1  0
 32 33  2  0
 11  7  1  0
 22 12  1  0
 33 23  1  0
 32 26  1  0
  3 34  1  0
  4 35  1  0
  4 36  1  0
  8 37  1  0
  8 38  1  0
  9 39  1  0
  9 40  1  0
 10 41  1  0
 10 42  1  0
 11 43  1  1
 13 44  1  0
 14 45  1  0
 21 46  1  0
 22 47  1  0
 24 48  1  0
 25 49  1  0
 27 50  1  0
 30 51  1  0
 31 52  1  0
M  END
>  <smiles>  (21) 
O=C(NCC(=O)N1CCCC1c1ccc(OC(F)(F)F)cc1)c1ccc2cc(F)ccc2n1

>  <score_type>  (21) 
oracle

>  <origin>  (21) 
autodockgpu

>  <m_score__min__energy>  (21) 
-7.9100000000000001

>  <m_primary>  (21) 
energy

>  <rmsd>  (21) 
7.794902343672173

>  <m_score__min__rmsd>  (21) 
7.794902343672173

>  <meeko>  (21) 
{"free_energy": -5.97, "intermolecular_energy": -8.06, "internal_energy": -3.08, "cluster_size": 3, "cluster_id": 7, "rank_in_cluster": 3}

>  <energy>  (21) 
-7.18

>  <cluster_rmsd>  (21) 
1.03

>  <cluster>  (21) 
1

$$$$

     RDKit          3D

 52 55  0  0  0  0  0  0  0  0999 V2000
  139.0420   70.6740  221.2220 O   0  0  0  0  0  0  0  0  0  0  0  0
  139.2890   71.2930  222.3040 C   0  0  0  0  0  0  0  0  0  0  0  0
  139.4010   72.7160  222.3560 N   0  0  0  0  0  0  0  0  0  0  0  0
  139.2360   73.4970  221.1760 C   0  0  0  0  0  0  0  0  0  0  0  0
  140.1800   74.6420  221.2250 C   0  0  0  0  0  0  0  0  0  0  0  0
  140.3310   75.2570  222.3320 O   0  0  0  0  0  0  0  0  0  0  0  0
  140.9140   75.0580  220.0530 N   0  0  0  0  0  0  0  0  0  0  0  0
  142.0120   74.3400  219.5020 C   0  0  0  0  0  0  0  0  0  0  0  0
  142.7170   75.3510  218.6330 C   0  0  0  0  0  0  0  0  0  0  0  0
  141.5990   76.2470  218.1780 C   0  0  0  0  0  0  0  0  0  0  0  0
  140.6290   76.2460  219.2940 C   0  0  2  0  0  0  0  0  0  0  0  0
  140.7610   77.4110  220.2310 C   0  0  0  0  0  0  0  0  0  0  0  0
  142.0300   77.8620  220.5180 C   0  0  0  0  0  0  0  0  0  0  0  0
  142.1730   78.9400  221.3770 C   0  0  0  0  0  0  0  0  0  0  0  0
  141.1000   79.5830  221.9580 C   0  0  0  0  0  0  0  0  0  0  0  0
  141.2780   80.6770  222.8280 O   0  0  0  0  0  0  0  0  0  0  0  0
  142.3510   80.6160  223.7660 C   0  0  0  0  0  0  0  0  0  0  0  0
  142.2050   79.4590  224.5350 F   0  0  0  0  0  0  0  0  0  0  0  0
  142.3470   81.6560  224.6580 F   0  0  0  0  0  0  0  0  0  0  0  0
  143.5480   80.5500  223.0880 F   0  0  0  0  0  0  0  0  0  0  0  0
  139.8210   79.1150  221.6580 C   0  0  0  0  0  0  0  0  0  0  0  0
  139.6760   78.0360  220.7980 C   0  0  0  0  0  0  0  0  0  0  0  0
  139.4660   70.5280  223.5440 C   0  0  0  0  0  0  0  0  0  0  0  0
  139.0590   69.2060  223.5980 C   0  0  0  0  0  0  0  0  0  0  0  0
  139.2130   68.4580  224.7500 C   0  0  0  0  0  0  0  0  0  0  0  0
  139.7850   69.0240  225.8890 C   0  0  0  0  0  0  0  0  0  0  0  0
  139.9330   68.2630  227.0360 C   0  0  0  0  0  0  0  0  0  0  0  0
  140.5010   68.8430  228.1480 C   0  0  0  0  0  0  0  0  0  0  0  0
  140.6600   68.1200  229.2890 F   0  0  0  0  0  0  0  0  0  0  0  0
  140.8890   70.1610  228.0410 C   0  0  0  0  0  0  0  0  0  0  0  0
  140.7460   70.9150  226.9140 C   0  0  0  0  0  0  0  0  0  0  0  0
  140.1720   70.3300  225.7910 C   0  0  0  0  0  0  0  0  0  0  0  0
  140.0170   71.0620  224.6530 N   0  0  0  0  0  0  0  0  0  0  0  0
  139.6100   73.1580  223.3010 H   0  0  0  0  0  0  0  0  0  0  0  0
  139.4492   72.8795  220.2910 H   0  0  0  0  0  0  0  0  0  0  0  0
  138.2020   73.8671  221.1139 H   0  0  0  0  0  0  0  0  0  0  0  0
  142.6792   73.9767  220.2976 H   0  0  0  0  0  0  0  0  0  0  0  0
  141.6935   73.4501  218.9392 H   0  0  0  0  0  0  0  0  0  0  0  0
  143.4650   75.9146  219.2100 H   0  0  0  0  0  0  0  0  0  0  0  0
  143.2714   74.8939  217.8001 H   0  0  0  0  0  0  0  0  0  0  0  0
  141.9714   77.2649  217.9904 H   0  0  0  0  0  0  0  0  0  0  0  0
  141.1471   75.8985  217.2376 H   0  0  0  0  0  0  0  0  0  0  0  0
  139.6166   76.2988  218.8671 H   0  0  0  0  0  0  0  0  0  0  0  0
  142.9119   77.3766  220.0746 H   0  0  0  0  0  0  0  0  0  0  0  0
  143.1874   79.2988  221.6056 H   0  0  0  0  0  0  0  0  0  0  0  0
  138.9358   79.5966  222.0989 H   0  0  0  0  0  0  0  0  0  0  0  0
  138.6652   77.6708  220.5635 H   0  0  0  0  0  0  0  0  0  0  0  0
  138.6054   68.7431  222.7092 H   0  0  0  0  0  0  0  0  0  0  0  0
  138.8821   67.4091  224.7686 H   0  0  0  0  0  0  0  0  0  0  0  0
  139.6028   67.2140  227.0585 H   0  0  0  0  0  0  0  0  0  0  0  0
  141.3440   70.6359  228.9227 H   0  0  0  0  0  0  0  0  0  0  0  0
  141.0777   71.9636  226.8938 H   0  0  0  0  0  0  0  0  0  0  0  0
  1  2  2  0
  2  3  1  0
  3  4  1  0
  4  5  1  0
  5  6  2  0
  5  7  1  0
  7  8  1  0
  8  9  1  0
  9 10  1  0
 10 11  1  0
 11 12  1  0
 12 13  2  0
 13 14  1  0
 14 15  2  0
 15 16  1  0
 16 17  1  0
 17 18  1  0
 17 19  1  0
 17 20  1  0
 15 21  1  0
 21 22  2  0
  2 23  1  0
 23 24  2  0
 24 25  1  0
 25 26  2  0
 26 27  1  0
 27 28  2  0
 28 29  1  0
 28 30  1  0
 30 31  2  0
 31 32  1  0
 32 33  2  0
 11  7  1  0
 22 12  1  0
 33 23  1  0
 32 26  1  0
  3 34  1  0
  4 35  1  0
  4 36  1  0
  8 37  1  0
  8 38  1  0
  9 39  1  0
  9 40  1  0
 10 41  1  0
 10 42  1  0
 11 43  1  6
 13 44  1  0
 14 45  1  0
 21 46  1  0
 22 47  1  0
 24 48  1  0
 25 49  1  0
 27 50  1  0
 30 51  1  0
 31 52  1  0
M  END
>  <smiles>  (22) 
O=C(NCC(=O)N1CCCC1c1ccc(OC(F)(F)F)cc1)c1ccc2cc(F)ccc2n1

>  <score_type>  (22) 
oracle

>  <origin>  (22) 
autodockgpu

>  <m_score__min__energy>  (22) 
-7.9100000000000001

>  <m_primary>  (22) 
energy

>  <rmsd>  (22) 
1.5523970931005775

>  <m_score__min__rmsd>  (22) 
1.5523970931005775

>  <meeko>  (22) 
{"free_energy": -7.35, "intermolecular_energy": -9.44, "internal_energy": -1.93, "cluster_size": 17, "cluster_id": 2, "rank_in_cluster": 15}

>  <energy>  (22) 
-6.88

>  <cluster_rmsd>  (22) 
1.35

>  <cluster>  (22) 
1

$$$$

     RDKit          3D

 52 55  0  0  0  0  0  0  0  0999 V2000
  140.4280   70.9200  221.6590 O   0  0  0  0  0  0  0  0  0  0  0  0
  140.0690   71.6120  222.6620 C   0  0  0  0  0  0  0  0  0  0  0  0
  139.4940   72.9120  222.5200 N   0  0  0  0  0  0  0  0  0  0  0  0
  139.3050   73.4810  221.2270 C   0  0  0  0  0  0  0  0  0  0  0  0
  140.2510   74.6130  221.0610 C   0  0  0  0  0  0  0  0  0  0  0  0
  141.1210   74.8170  221.9710 O   0  0  0  0  0  0  0  0  0  0  0  0
  140.1950   75.4720  219.9010 N   0  0  0  0  0  0  0  0  0  0  0  0
  140.8410   75.1870  218.6650 C   0  0  0  0  0  0  0  0  0  0  0  0
  140.8990   76.5190  217.9620 C   0  0  0  0  0  0  0  0  0  0  0  0
  139.6720   77.2260  218.4690 C   0  0  0  0  0  0  0  0  0  0  0  0
  139.4800   76.7180  219.8450 C   0  0  2  0  0  0  0  0  0  0  0  0
  140.0490   77.6020  220.9160 C   0  0  0  0  0  0  0  0  0  0  0  0
  139.2760   77.8370  222.0310 C   0  0  0  0  0  0  0  0  0  0  0  0
  139.7860   78.6460  223.0340 C   0  0  0  0  0  0  0  0  0  0  0  0
  141.0350   79.2270  222.9660 C   0  0  0  0  0  0  0  0  0  0  0  0
  141.5260   80.0460  224.0030 O   0  0  0  0  0  0  0  0  0  0  0  0
  142.4200   81.1010  223.6540 C   0  0  0  0  0  0  0  0  0  0  0  0
  143.6870   80.5570  223.4310 F   0  0  0  0  0  0  0  0  0  0  0  0
  142.5830   82.0230  224.6540 F   0  0  0  0  0  0  0  0  0  0  0  0
  141.9850   81.7020  222.4930 F   0  0  0  0  0  0  0  0  0  0  0  0
  141.8070   78.9800  221.8310 C   0  0  0  0  0  0  0  0  0  0  0  0
  141.2980   78.1700  220.8260 C   0  0  0  0  0  0  0  0  0  0  0  0
  140.2440   71.0650  224.0110 C   0  0  0  0  0  0  0  0  0  0  0  0
  140.7230   71.8790  225.0250 C   0  0  0  0  0  0  0  0  0  0  0  0
  140.8990   71.3930  226.3070 C   0  0  0  0  0  0  0  0  0  0  0  0
  140.5950   70.0660  226.6080 C   0  0  0  0  0  0  0  0  0  0  0  0
  140.7760   69.5940  227.8980 C   0  0  0  0  0  0  0  0  0  0  0  0
  140.4690   68.2810  228.1720 C   0  0  0  0  0  0  0  0  0  0  0  0
  140.6350   67.7890  229.4280 F   0  0  0  0  0  0  0  0  0  0  0  0
  139.9960   67.5150  227.1290 C   0  0  0  0  0  0  0  0  0  0  0  0
  139.8160   67.9730  225.8570 C   0  0  0  0  0  0  0  0  0  0  0  0
  140.1260   69.3000  225.5800 C   0  0  0  0  0  0  0  0  0  0  0  0
  139.9550   69.7840  224.3180 N   0  0  0  0  0  0  0  0  0  0  0  0
  139.2200   73.4280  223.4090 H   0  0  0  0  0  0  0  0  0  0  0  0
  139.4991   72.7206  220.4562 H   0  0  0  0  0  0  0  0  0  0  0  0
  138.2703   73.8396  221.1235 H   0  0  0  0  0  0  0  0  0  0  0  0
  141.8532   74.7917  218.8359 H   0  0  0  0  0  0  0  0  0  0  0  0
  140.3092   74.4237  218.0780 H   0  0  0  0  0  0  0  0  0  0  0  0
  141.8121   77.0692  218.2332 H   0  0  0  0  0  0  0  0  0  0  0  0
  140.9242   76.4287  216.8660 H   0  0  0  0  0  0  0  0  0  0  0  0
  139.8284   78.3148  218.4769 H   0  0  0  0  0  0  0  0  0  0  0  0
  138.7943   77.0391  217.8328 H   0  0  0  0  0  0  0  0  0  0  0  0
  138.3990   76.6474  220.0358 H   0  0  0  0  0  0  0  0  0  0  0  0
  138.2744   77.3918  222.1237 H   0  0  0  0  0  0  0  0  0  0  0  0
  139.1671   78.8331  223.9239 H   0  0  0  0  0  0  0  0  0  0  0  0
  142.8092   79.4229  221.7336 H   0  0  0  0  0  0  0  0  0  0  0  0
  141.9104   77.9769  219.9329 H   0  0  0  0  0  0  0  0  0  0  0  0
  140.9672   72.9290  224.8062 H   0  0  0  0  0  0  0  0  0  0  0  0
  141.2816   72.0579  227.0953 H   0  0  0  0  0  0  0  0  0  0  0  0
  141.1581   70.2567  228.6885 H   0  0  0  0  0  0  0  0  0  0  0  0
  139.7469   66.4638  227.3360 H   0  0  0  0  0  0  0  0  0  0  0  0
  139.4343   67.3080  225.0683 H   0  0  0  0  0  0  0  0  0  0  0  0
  1  2  2  0
  2  3  1  0
  3  4  1  0
  4  5  1  0
  5  6  2  0
  5  7  1  0
  7  8  1  0
  8  9  1  0
  9 10  1  0
 10 11  1  0
 11 12  1  0
 12 13  2  0
 13 14  1  0
 14 15  2  0
 15 16  1  0
 16 17  1  0
 17 18  1  0
 17 19  1  0
 17 20  1  0
 15 21  1  0
 21 22  2  0
  2 23  1  0
 23 24  2  0
 24 25  1  0
 25 26  2  0
 26 27  1  0
 27 28  2  0
 28 29  1  0
 28 30  1  0
 30 31  2  0
 31 32  1  0
 32 33  2  0
 11  7  1  0
 22 12  1  0
 33 23  1  0
 32 26  1  0
  3 34  1  0
  4 35  1  0
  4 36  1  0
  8 37  1  0
  8 38  1  0
  9 39  1  0
  9 40  1  0
 10 41  1  0
 10 42  1  0
 11 43  1  1
 13 44  1  0
 14 45  1  0
 21 46  1  0
 22 47  1  0
 24 48  1  0
 25 49  1  0
 27 50  1  0
 30 51  1  0
 31 52  1  0
M  END
>  <smiles>  (23) 
O=C(NCC(=O)N1CCCC1c1ccc(OC(F)(F)F)cc1)c1ccc2cc(F)ccc2n1

>  <score_type>  (23) 
oracle

>  <origin>  (23) 
autodockgpu

>  <m_score__min__energy>  (23) 
-7.9100000000000001

>  <m_primary>  (23) 
energy

>  <rmsd>  (23) 
2.594249541785833

>  <m_score__min__rmsd>  (23) 
2.594249541785833

>  <meeko>  (23) 
{"free_energy": -7.82, "intermolecular_energy": -9.91, "internal_energy": -1.52, "cluster_size": 17, "cluster_id": 2, "rank_in_cluster": 1}

>  <energy>  (23) 
-7.82

>  <cluster_rmsd>  (23) 
0.0

>  <cluster>  (23) 
2

$$$$

     RDKit          3D

 52 55  0  0  0  0  0  0  0  0999 V2000
  140.4950   71.2040  220.8840 O   0  0  0  0  0  0  0  0  0  0  0  0
  140.2690   71.8710  221.9420 C   0  0  0  0  0  0  0  0  0  0  0  0
  140.1580   73.2950  221.9320 N   0  0  0  0  0  0  0  0  0  0  0  0
  140.2980   74.0220  220.7150 C   0  0  0  0  0  0  0  0  0  0  0  0
  140.9010   75.3450  221.0160 C   0  0  0  0  0  0  0  0  0  0  0  0
  141.0760   75.6690  222.2370 O   0  0  0  0  0  0  0  0  0  0  0  0
  141.2830   76.2520  219.9590 N   0  0  0  0  0  0  0  0  0  0  0  0
  140.3720   76.8090  219.0170 C   0  0  0  0  0  0  0  0  0  0  0  0
  141.2510   77.2750  217.8840 C   0  0  0  0  0  0  0  0  0  0  0  0
  142.5360   77.6370  218.5770 C   0  0  0  0  0  0  0  0  0  0  0  0
  142.6260   76.7100  219.7250 C   0  0  2  0  0  0  0  0  0  0  0  0
  143.4690   75.4940  219.4740 C   0  0  0  0  0  0  0  0  0  0  0  0
  143.5190   75.0020  218.1890 C   0  0  0  0  0  0  0  0  0  0  0  0
  144.2970   73.8830  217.9370 C   0  0  0  0  0  0  0  0  0  0  0  0
  145.0250   73.2390  218.9150 C   0  0  0  0  0  0  0  0  0  0  0  0
  145.8060   72.1030  218.6270 O   0  0  0  0  0  0  0  0  0  0  0  0
  145.2340   70.8190  218.8720 C   0  0  0  0  0  0  0  0  0  0  0  0
  146.2560   69.9380  219.2350 F   0  0  0  0  0  0  0  0  0  0  0  0
  144.6460   70.2700  217.7640 F   0  0  0  0  0  0  0  0  0  0  0  0
  144.3380   70.9100  219.9140 F   0  0  0  0  0  0  0  0  0  0  0  0
  144.9650   73.7490  220.2120 C   0  0  0  0  0  0  0  0  0  0  0  0
  144.1860   74.8690  220.4670 C   0  0  0  0  0  0  0  0  0  0  0  0
  140.1170   71.1630  223.2170 C   0  0  0  0  0  0  0  0  0  0  0  0
  139.5100   69.9180  223.2430 C   0  0  0  0  0  0  0  0  0  0  0  0
  139.3520   69.2260  224.4280 C   0  0  0  0  0  0  0  0  0  0  0  0
  139.8040   69.7690  225.6300 C   0  0  0  0  0  0  0  0  0  0  0  0
  139.6390   69.0630  226.8100 C   0  0  0  0  0  0  0  0  0  0  0  0
  140.0930   69.6190  227.9850 C   0  0  0  0  0  0  0  0  0  0  0  0
  139.9460   68.9490  229.1590 F   0  0  0  0  0  0  0  0  0  0  0  0
  140.6900   70.8590  227.9040 C   0  0  0  0  0  0  0  0  0  0  0  0
  140.8550   71.5590  226.7460 C   0  0  0  0  0  0  0  0  0  0  0  0
  140.3960   70.9970  225.5600 C   0  0  0  0  0  0  0  0  0  0  0  0
  140.5480   71.6750  224.3880 N   0  0  0  0  0  0  0  0  0  0  0  0
  139.9680   73.7790  222.8600 H   0  0  0  0  0  0  0  0  0  0  0  0
  140.9503   73.4665  220.0252 H   0  0  0  0  0  0  0  0  0  0  0  0
  139.3129   74.1580  220.2448 H   0  0  0  0  0  0  0  0  0  0  0  0
  139.6571   76.0488  218.6690 H   0  0  0  0  0  0  0  0  0  0  0  0
  139.7687   77.6233  219.4448 H   0  0  0  0  0  0  0  0  0  0  0  0
  141.4105   76.4704  217.1511 H   0  0  0  0  0  0  0  0  0  0  0  0
  140.8165   78.1097  217.3144 H   0  0  0  0  0  0  0  0  0  0  0  0
  143.3923   77.4989  217.9005 H   0  0  0  0  0  0  0  0  0  0  0  0
  142.5518   78.6902  218.8942 H   0  0  0  0  0  0  0  0  0  0  0  0
  143.0910   77.2487  220.5638 H   0  0  0  0  0  0  0  0  0  0  0  0
  142.9535   75.4868  217.3796 H   0  0  0  0  0  0  0  0  0  0  0  0
  144.3354   73.4908  216.9100 H   0  0  0  0  0  0  0  0  0  0  0  0
  145.5295   73.2683  221.0246 H   0  0  0  0  0  0  0  0  0  0  0  0
  144.1410   75.2675  221.4913 H   0  0  0  0  0  0  0  0  0  0  0  0
  139.1478   69.4731  222.3044 H   0  0  0  0  0  0  0  0  0  0  0  0
  138.8660   68.2392  224.4233 H   0  0  0  0  0  0  0  0  0  0  0  0
  139.1539   68.0757  226.8085 H   0  0  0  0  0  0  0  0  0  0  0  0
  141.0576   71.3137  228.8357 H   0  0  0  0  0  0  0  0  0  0  0  0
  141.3403   72.5462  226.7498 H   0  0  0  0  0  0  0  0  0  0  0  0
  1  2  2  0
  2  3  1  0
  3  4  1  0
  4  5  1  0
  5  6  2  0
  5  7  1  0
  7  8  1  0
  8  9  1  0
  9 10  1  0
 10 11  1  0
 11 12  1  0
 12 13  2  0
 13 14  1  0
 14 15  2  0
 15 16  1  0
 16 17  1  0
 17 18  1  0
 17 19  1  0
 17 20  1  0
 15 21  1  0
 21 22  2  0
  2 23  1  0
 23 24  2  0
 24 25  1  0
 25 26  2  0
 26 27  1  0
 27 28  2  0
 28 29  1  0
 28 30  1  0
 30 31  2  0
 31 32  1  0
 32 33  2  0
 11  7  1  0
 22 12  1  0
 33 23  1  0
 32 26  1  0
  3 34  1  0
  4 35  1  0
  4 36  1  0
  8 37  1  0
  8 38  1  0
  9 39  1  0
  9 40  1  0
 10 41  1  0
 10 42  1  0
 11 43  1  1
 13 44  1  0
 14 45  1  0
 21 46  1  0
 22 47  1  0
 24 48  1  0
 25 49  1  0
 27 50  1  0
 30 51  1  0
 31 52  1  0
M  END
>  <smiles>  (24) 
O=C(NCC(=O)N1CCCC1c1ccc(OC(F)(F)F)cc1)c1ccc2cc(F)ccc2n1

>  <score_type>  (24) 
oracle

>  <origin>  (24) 
autodockgpu

>  <m_score__min__energy>  (24) 
-7.9100000000000001

>  <m_primary>  (24) 
energy

>  <rmsd>  (24) 
1.6757481071263984

>  <m_score__min__rmsd>  (24) 
1.6757481071263984

>  <meeko>  (24) 
{"free_energy": -7.82, "intermolecular_energy": -9.91, "internal_energy": -2.17, "cluster_size": 22, "cluster_id": 1, "rank_in_cluster": 2}

>  <energy>  (24) 
-7.75

>  <cluster_rmsd>  (24) 
0.78

>  <cluster>  (24) 
2

$$$$

     RDKit          3D

 52 55  0  0  0  0  0  0  0  0999 V2000
  138.8190   71.5560  221.2390 O   0  0  0  0  0  0  0  0  0  0  0  0
  139.6310   71.9370  222.1390 C   0  0  0  0  0  0  0  0  0  0  0  0
  140.4320   73.1090  221.9920 N   0  0  0  0  0  0  0  0  0  0  0  0
  140.3440   73.9010  220.8110 C   0  0  0  0  0  0  0  0  0  0  0  0
  141.0820   75.1710  221.0300 C   0  0  0  0  0  0  0  0  0  0  0  0
  141.3150   75.5390  222.2300 O   0  0  0  0  0  0  0  0  0  0  0  0
  141.5300   75.9780  219.9200 N   0  0  0  0  0  0  0  0  0  0  0  0
  140.6750   76.4630  218.8900 C   0  0  0  0  0  0  0  0  0  0  0  0
  141.6160   76.8190  217.7660 C   0  0  0  0  0  0  0  0  0  0  0  0
  142.8710   77.2240  218.4890 C   0  0  0  0  0  0  0  0  0  0  0  0
  142.8900   76.3970  219.7150 C   0  0  2  0  0  0  0  0  0  0  0  0
  143.7240   75.1540  219.6120 C   0  0  0  0  0  0  0  0  0  0  0  0
  143.4310   74.2680  218.5990 C   0  0  0  0  0  0  0  0  0  0  0  0
  144.1930   73.1170  218.4840 C   0  0  0  0  0  0  0  0  0  0  0  0
  145.2350   72.8170  219.3380 C   0  0  0  0  0  0  0  0  0  0  0  0
  145.9920   71.6380  219.1950 O   0  0  0  0  0  0  0  0  0  0  0  0
  145.2900   70.4200  218.9520 C   0  0  0  0  0  0  0  0  0  0  0  0
  146.1400   69.3500  219.2440 F   0  0  0  0  0  0  0  0  0  0  0  0
  144.9260   70.2580  217.6420 F   0  0  0  0  0  0  0  0  0  0  0  0
  144.1930   70.3520  219.7820 F   0  0  0  0  0  0  0  0  0  0  0  0
  145.5200   73.7250  220.3580 C   0  0  0  0  0  0  0  0  0  0  0  0
  144.7580   74.8780  220.4750 C   0  0  0  0  0  0  0  0  0  0  0  0
  139.7530   71.1520  223.3730 C   0  0  0  0  0  0  0  0  0  0  0  0
  139.2920   69.8460  223.4040 C   0  0  0  0  0  0  0  0  0  0  0  0
  139.3930   69.0810  224.5500 C   0  0  0  0  0  0  0  0  0  0  0  0
  139.9660   69.6110  225.7060 C   0  0  0  0  0  0  0  0  0  0  0  0
  140.0620   68.8310  226.8470 C   0  0  0  0  0  0  0  0  0  0  0  0
  140.6320   69.3750  227.9750 C   0  0  0  0  0  0  0  0  0  0  0  0
  140.7400   68.6350  229.1100 F   0  0  0  0  0  0  0  0  0  0  0  0
  141.0750   70.6780  227.8910 C   0  0  0  0  0  0  0  0  0  0  0  0
  140.9840   71.4500  226.7710 C   0  0  0  0  0  0  0  0  0  0  0  0
  140.4080   70.9010  225.6310 C   0  0  0  0  0  0  0  0  0  0  0  0
  140.3040   71.6500  224.4980 N   0  0  0  0  0  0  0  0  0  0  0  0
  141.0870   73.3610  222.7920 H   0  0  0  0  0  0  0  0  0  0  0  0
  140.7896   73.3555  219.9661 H   0  0  0  0  0  0  0  0  0  0  0  0
  139.2896   74.1161  220.5831 H   0  0  0  0  0  0  0  0  0  0  0  0
  139.9654   75.6846  218.5731 H   0  0  0  0  0  0  0  0  0  0  0  0
  140.0651   77.3184  219.2162 H   0  0  0  0  0  0  0  0  0  0  0  0
  141.7981   75.9522  217.1136 H   0  0  0  0  0  0  0  0  0  0  0  0
  141.2235   77.6064  217.1058 H   0  0  0  0  0  0  0  0  0  0  0  0
  143.7570   77.0187  217.8703 H   0  0  0  0  0  0  0  0  0  0  0  0
  142.8881   78.3002  218.7161 H   0  0  0  0  0  0  0  0  0  0  0  0
  143.3232   76.9998  220.5267 H   0  0  0  0  0  0  0  0  0  0  0  0
  142.6093   74.4702  217.8962 H   0  0  0  0  0  0  0  0  0  0  0  0
  143.9569   72.4098  217.6752 H   0  0  0  0  0  0  0  0  0  0  0  0
  146.3413   73.5284  221.0628 H   0  0  0  0  0  0  0  0  0  0  0  0
  144.9873   75.5912  221.2805 H   0  0  0  0  0  0  0  0  0  0  0  0
  138.8381   69.4109  222.5014 H   0  0  0  0  0  0  0  0  0  0  0  0
  139.0189   68.0466  224.5508 H   0  0  0  0  0  0  0  0  0  0  0  0
  139.6894   67.7960  226.8511 H   0  0  0  0  0  0  0  0  0  0  0  0
  141.5319   71.1240  228.7867 H   0  0  0  0  0  0  0  0  0  0  0  0
  141.3581   72.4844  226.7694 H   0  0  0  0  0  0  0  0  0  0  0  0
  1  2  2  0
  2  3  1  0
  3  4  1  0
  4  5  1  0
  5  6  2  0
  5  7  1  0
  7  8  1  0
  8  9  1  0
  9 10  1  0
 10 11  1  0
 11 12  1  0
 12 13  2  0
 13 14  1  0
 14 15  2  0
 15 16  1  0
 16 17  1  0
 17 18  1  0
 17 19  1  0
 17 20  1  0
 15 21  1  0
 21 22  2  0
  2 23  1  0
 23 24  2  0
 24 25  1  0
 25 26  2  0
 26 27  1  0
 27 28  2  0
 28 29  1  0
 28 30  1  0
 30 31  2  0
 31 32  1  0
 32 33  2  0
 11  7  1  0
 22 12  1  0
 33 23  1  0
 32 26  1  0
  3 34  1  0
  4 35  1  0
  4 36  1  0
  8 37  1  0
  8 38  1  0
  9 39  1  0
  9 40  1  0
 10 41  1  0
 10 42  1  0
 11 43  1  1
 13 44  1  0
 14 45  1  0
 21 46  1  0
 22 47  1  0
 24 48  1  0
 25 49  1  0
 27 50  1  0
 30 51  1  0
 31 52  1  0
M  END
>  <smiles>  (25) 
O=C(NCC(=O)N1CCCC1c1ccc(OC(F)(F)F)cc1)c1ccc2cc(F)ccc2n1

>  <score_type>  (25) 
oracle

>  <origin>  (25) 
autodockgpu

>  <m_score__min__energy>  (25) 
-7.9100000000000001

>  <m_primary>  (25) 
energy

>  <rmsd>  (25) 
1.700641884384794

>  <m_score__min__rmsd>  (25) 
1.700641884384794

>  <meeko>  (25) 
{"free_energy": -7.52, "intermolecular_energy": -9.61, "internal_energy": -2.21, "cluster_size": 22, "cluster_id": 1, "rank_in_cluster": 16}

>  <energy>  (25) 
-7.72

>  <cluster_rmsd>  (25) 
1.33

>  <cluster>  (25) 
2

$$$$

     RDKit          3D

 52 55  0  0  0  0  0  0  0  0999 V2000
  141.0440   71.0990  221.0660 O   0  0  0  0  0  0  0  0  0  0  0  0
  140.6510   71.8180  222.0370 C   0  0  0  0  0  0  0  0  0  0  0  0
  140.5120   73.2340  221.9250 N   0  0  0  0  0  0  0  0  0  0  0  0
  140.8160   73.8950  220.7000 C   0  0  0  0  0  0  0  0  0  0  0  0
  141.1040   75.3240  220.9860 C   0  0  0  0  0  0  0  0  0  0  0  0
  140.9650   75.7430  222.1820 O   0  0  0  0  0  0  0  0  0  0  0  0
  141.5300   76.2250  219.9420 N   0  0  0  0  0  0  0  0  0  0  0  0
  140.6490   76.8360  219.0050 C   0  0  0  0  0  0  0  0  0  0  0  0
  141.5520   77.2760  217.8800 C   0  0  0  0  0  0  0  0  0  0  0  0
  142.8500   77.5680  218.5800 C   0  0  0  0  0  0  0  0  0  0  0  0
  142.8940   76.6230  219.7160 C   0  0  2  0  0  0  0  0  0  0  0  0
  143.6800   75.3720  219.4510 C   0  0  0  0  0  0  0  0  0  0  0  0
  144.4650   74.8800  220.4710 C   0  0  0  0  0  0  0  0  0  0  0  0
  145.1940   73.7240  220.2470 C   0  0  0  0  0  0  0  0  0  0  0  0
  145.1700   73.0410  219.0490 C   0  0  0  0  0  0  0  0  0  0  0  0
  145.9230   71.8670  218.8530 O   0  0  0  0  0  0  0  0  0  0  0  0
  145.2560   70.6140  218.9910 C   0  0  0  0  0  0  0  0  0  0  0  0
  146.2010   69.6380  219.3180 F   0  0  0  0  0  0  0  0  0  0  0  0
  144.6660   70.1860  217.8310 F   0  0  0  0  0  0  0  0  0  0  0  0
  144.3350   70.6970  220.0120 F   0  0  0  0  0  0  0  0  0  0  0  0
  144.3690   73.5500  218.0260 C   0  0  0  0  0  0  0  0  0  0  0  0
  143.6380   74.7080  218.2480 C   0  0  0  0  0  0  0  0  0  0  0  0
  140.3270   71.1790  223.3170 C   0  0  0  0  0  0  0  0  0  0  0  0
  139.5880   70.0080  223.3320 C   0  0  0  0  0  0  0  0  0  0  0  0
  139.2670   69.3810  224.5210 C   0  0  0  0  0  0  0  0  0  0  0  0
  139.6840   69.9190  225.7380 C   0  0  0  0  0  0  0  0  0  0  0  0
  139.3550   69.2790  226.9220 C   0  0  0  0  0  0  0  0  0  0  0  0
  139.7780   69.8280  228.1120 C   0  0  0  0  0  0  0  0  0  0  0  0
  139.4710   69.2230  229.2900 F   0  0  0  0  0  0  0  0  0  0  0  0
  140.5110   70.9930  228.0410 C   0  0  0  0  0  0  0  0  0  0  0  0
  140.8380   71.6270  226.8790 C   0  0  0  0  0  0  0  0  0  0  0  0
  140.4100   71.0730  225.6780 C   0  0  0  0  0  0  0  0  0  0  0  0
  140.7230   71.6860  224.5020 N   0  0  0  0  0  0  0  0  0  0  0  0
  140.1780   73.7650  222.7840 H   0  0  0  0  0  0  0  0  0  0  0  0
  141.6960   73.4262  220.2354 H   0  0  0  0  0  0  0  0  0  0  0  0
  139.9622   73.8164  220.0109 H   0  0  0  0  0  0  0  0  0  0  0  0
  139.9008   76.1144  218.6451 H   0  0  0  0  0  0  0  0  0  0  0  0
  140.0830   77.6718  219.4422 H   0  0  0  0  0  0  0  0  0  0  0  0
  141.6757   76.4749  217.1364 H   0  0  0  0  0  0  0  0  0  0  0  0
  141.1584   78.1378  217.3211 H   0  0  0  0  0  0  0  0  0  0  0  0
  143.7006   77.3988  217.9034 H   0  0  0  0  0  0  0  0  0  0  0  0
  142.9140   78.6150  218.9112 H   0  0  0  0  0  0  0  0  0  0  0  0
  143.3818   77.1287  220.5623 H   0  0  0  0  0  0  0  0  0  0  0  0
  144.5116   75.3943  221.4422 H   0  0  0  0  0  0  0  0  0  0  0  0
  145.8208   73.3326  221.0618 H   0  0  0  0  0  0  0  0  0  0  0  0
  144.3177   73.0383  217.0536 H   0  0  0  0  0  0  0  0  0  0  0  0
  143.0075   75.1058  217.4392 H   0  0  0  0  0  0  0  0  0  0  0  0
  139.2507   69.5694  222.3813 H   0  0  0  0  0  0  0  0  0  0  0  0
  138.6788   68.4516  224.5073 H   0  0  0  0  0  0  0  0  0  0  0  0
  138.7668   68.3495  226.9116 H   0  0  0  0  0  0  0  0  0  0  0  0
  140.8552   71.4412  228.9847 H   0  0  0  0  0  0  0  0  0  0  0  0
  141.4271   72.5558  226.8916 H   0  0  0  0  0  0  0  0  0  0  0  0
  1  2  2  0
  2  3  1  0
  3  4  1  0
  4  5  1  0
  5  6  2  0
  5  7  1  0
  7  8  1  0
  8  9  1  0
  9 10  1  0
 10 11  1  0
 11 12  1  0
 12 13  2  0
 13 14  1  0
 14 15  2  0
 15 16  1  0
 16 17  1  0
 17 18  1  0
 17 19  1  0
 17 20  1  0
 15 21  1  0
 21 22  2  0
  2 23  1  0
 23 24  2  0
 24 25  1  0
 25 26  2  0
 26 27  1  0
 27 28  2  0
 28 29  1  0
 28 30  1  0
 30 31  2  0
 31 32  1  0
 32 33  2  0
 11  7  1  0
 22 12  1  0
 33 23  1  0
 32 26  1  0
  3 34  1  0
  4 35  1  0
  4 36  1  0
  8 37  1  0
  8 38  1  0
  9 39  1  0
  9 40  1  0
 10 41  1  0
 10 42  1  0
 11 43  1  1
 13 44  1  0
 14 45  1  0
 21 46  1  0
 22 47  1  0
 24 48  1  0
 25 49  1  0
 27 50  1  0
 30 51  1  0
 31 52  1  0
M  END
>  <smiles>  (26) 
O=C(NCC(=O)N1CCCC1c1ccc(OC(F)(F)F)cc1)c1ccc2cc(F)ccc2n1

>  <score_type>  (26) 
oracle

>  <origin>  (26) 
autodockgpu

>  <m_score__min__energy>  (26) 
-7.9100000000000001

>  <m_primary>  (26) 
energy

>  <rmsd>  (26) 
1.9331396210072567

>  <m_score__min__rmsd>  (26) 
1.9331396210072567

>  <meeko>  (26) 
{"free_energy": -7.75, "intermolecular_energy": -9.84, "internal_energy": -2.28, "cluster_size": 22, "cluster_id": 1, "rank_in_cluster": 8}

>  <energy>  (26) 
-7.71

>  <cluster_rmsd>  (26) 
0.82

>  <cluster>  (26) 
2

$$$$

     RDKit          3D

 52 55  0  0  0  0  0  0  0  0999 V2000
  140.8780   71.8210  221.1260 O   0  0  0  0  0  0  0  0  0  0  0  0
  140.2710   72.2870  222.1400 C   0  0  0  0  0  0  0  0  0  0  0  0
  139.6760   73.5860  222.1380 N   0  0  0  0  0  0  0  0  0  0  0  0
  139.7480   74.4100  220.9780 C   0  0  0  0  0  0  0  0  0  0  0  0
  140.8180   75.4210  221.1760 C   0  0  0  0  0  0  0  0  0  0  0  0
  141.0650   75.8190  222.3630 O   0  0  0  0  0  0  0  0  0  0  0  0
  141.5650   75.9500  220.0590 N   0  0  0  0  0  0  0  0  0  0  0  0
  140.9730   76.5760  218.9270 C   0  0  0  0  0  0  0  0  0  0  0  0
  142.0480   76.5250  217.8710 C   0  0  0  0  0  0  0  0  0  0  0  0
  143.3170   76.5910  218.6740 C   0  0  0  0  0  0  0  0  0  0  0  0
  142.9980   75.9130  219.9490 C   0  0  2  0  0  0  0  0  0  0  0  0
  143.4090   74.4710  220.0040 C   0  0  0  0  0  0  0  0  0  0  0  0
  142.7370   73.5820  219.1950 C   0  0  0  0  0  0  0  0  0  0  0  0
  143.1050   72.2460  219.2270 C   0  0  0  0  0  0  0  0  0  0  0  0
  144.1160   71.7660  220.0340 C   0  0  0  0  0  0  0  0  0  0  0  0
  144.4670   70.4020  220.0440 O   0  0  0  0  0  0  0  0  0  0  0  0
  145.2630   69.9090  218.9680 C   0  0  0  0  0  0  0  0  0  0  0  0
  144.4190   69.3290  218.0180 F   0  0  0  0  0  0  0  0  0  0  0  0
  146.1300   68.9190  219.3470 F   0  0  0  0  0  0  0  0  0  0  0  0
  145.9360   70.9570  218.3800 F   0  0  0  0  0  0  0  0  0  0  0  0
  144.7880   72.6780  220.8470 C   0  0  0  0  0  0  0  0  0  0  0  0
  144.4210   74.0160  220.8160 C   0  0  0  0  0  0  0  0  0  0  0  0
  140.1730   71.4720  223.3560 C   0  0  0  0  0  0  0  0  0  0  0  0
  139.5690   70.2270  223.2990 C   0  0  0  0  0  0  0  0  0  0  0  0
  139.4610   69.4340  224.4270 C   0  0  0  0  0  0  0  0  0  0  0  0
  139.9630   69.8750  225.6510 C   0  0  0  0  0  0  0  0  0  0  0  0
  139.8480   69.0690  226.7720 C   0  0  0  0  0  0  0  0  0  0  0  0
  140.3510   69.5240  227.9690 C   0  0  0  0  0  0  0  0  0  0  0  0
  140.2540   68.7560  229.0870 F   0  0  0  0  0  0  0  0  0  0  0  0
  140.9430   70.7690  227.9700 C   0  0  0  0  0  0  0  0  0  0  0  0
  141.0590   71.5670  226.8710 C   0  0  0  0  0  0  0  0  0  0  0  0
  140.5500   71.1070  225.6610 C   0  0  0  0  0  0  0  0  0  0  0  0
  140.6530   71.8840  224.5470 N   0  0  0  0  0  0  0  0  0  0  0  0
  139.1860   73.9040  223.0260 H   0  0  0  0  0  0  0  0  0  0  0  0
  139.9816   73.7915  220.0989 H   0  0  0  0  0  0  0  0  0  0  0  0
  138.7833   74.9130  220.8158 H   0  0  0  0  0  0  0  0  0  0  0  0
  140.0787   76.0253  218.6000 H   0  0  0  0  0  0  0  0  0  0  0  0
  140.6400   77.6026  219.1397 H   0  0  0  0  0  0  0  0  0  0  0  0
  141.9927   75.5889  217.2959 H   0  0  0  0  0  0  0  0  0  0  0  0
  141.9635   77.3319  217.1282 H   0  0  0  0  0  0  0  0  0  0  0  0
  144.1326   76.0692  218.1520 H   0  0  0  0  0  0  0  0  0  0  0  0
  143.6546   77.6263  218.8294 H   0  0  0  0  0  0  0  0  0  0  0  0
  143.5435   76.4260  220.7547 H   0  0  0  0  0  0  0  0  0  0  0  0
  141.9250   73.9250  218.5370 H   0  0  0  0  0  0  0  0  0  0  0  0
  142.5672   71.5370  218.5804 H   0  0  0  0  0  0  0  0  0  0  0  0
  145.6010   72.3402  221.5065 H   0  0  0  0  0  0  0  0  0  0  0  0
  144.9543   74.7321  221.4585 H   0  0  0  0  0  0  0  0  0  0  0  0
  139.1688   69.8630  222.3412 H   0  0  0  0  0  0  0  0  0  0  0  0
  138.9760   68.4491  224.3582 H   0  0  0  0  0  0  0  0  0  0  0  0
  139.3636   68.0836  226.7062 H   0  0  0  0  0  0  0  0  0  0  0  0
  141.3489   71.1435  228.9213 H   0  0  0  0  0  0  0  0  0  0  0  0
  141.5439   72.5520  226.9394 H   0  0  0  0  0  0  0  0  0  0  0  0
  1  2  2  0
  2  3  1  0
  3  4  1  0
  4  5  1  0
  5  6  2  0
  5  7  1  0
  7  8  1  0
  8  9  1  0
  9 10  1  0
 10 11  1  0
 11 12  1  0
 12 13  2  0
 13 14  1  0
 14 15  2  0
 15 16  1  0
 16 17  1  0
 17 18  1  0
 17 19  1  0
 17 20  1  0
 15 21  1  0
 21 22  2  0
  2 23  1  0
 23 24  2  0
 24 25  1  0
 25 26  2  0
 26 27  1  0
 27 28  2  0
 28 29  1  0
 28 30  1  0
 30 31  2  0
 31 32  1  0
 32 33  2  0
 11  7  1  0
 22 12  1  0
 33 23  1  0
 32 26  1  0
  3 34  1  0
  4 35  1  0
  4 36  1  0
  8 37  1  0
  8 38  1  0
  9 39  1  0
  9 40  1  0
 10 41  1  0
 10 42  1  0
 11 43  1  1
 13 44  1  0
 14 45  1  0
 21 46  1  0
 22 47  1  0
 24 48  1  0
 25 49  1  0
 27 50  1  0
 30 51  1  0
 31 52  1  0
M  END
>  <smiles>  (27) 
O=C(NCC(=O)N1CCCC1c1ccc(OC(F)(F)F)cc1)c1ccc2cc(F)ccc2n1

>  <score_type>  (27) 
oracle

>  <origin>  (27) 
autodockgpu

>  <m_score__min__energy>  (27) 
-7.9100000000000001

>  <m_primary>  (27) 
energy

>  <rmsd>  (27) 
1.8470327473664478

>  <m_score__min__rmsd>  (27) 
1.8470327473664478

>  <meeko>  (27) 
{"free_energy": -7.6, "intermolecular_energy": -9.69, "internal_energy": -2.07, "cluster_size": 22, "cluster_id": 1, "rank_in_cluster": 13}

>  <energy>  (27) 
-7.71

>  <cluster_rmsd>  (27) 
0.8

>  <cluster>  (27) 
2

$$$$

     RDKit          3D

 52 55  0  0  0  0  0  0  0  0999 V2000
  138.6340   71.1260  221.2560 O   0  0  0  0  0  0  0  0  0  0  0  0
  139.0550   71.7310  222.2900 C   0  0  0  0  0  0  0  0  0  0  0  0
  139.2420   73.1470  222.3180 N   0  0  0  0  0  0  0  0  0  0  0  0
  138.9580   73.9350  221.1660 C   0  0  0  0  0  0  0  0  0  0  0  0
  139.7650   73.4260  220.0280 C   0  0  0  0  0  0  0  0  0  0  0  0
  139.1540   72.9570  219.0110 O   0  0  0  0  0  0  0  0  0  0  0  0
  141.2080   73.4550  220.0620 N   0  0  0  0  0  0  0  0  0  0  0  0
  142.0160   72.4020  220.5750 C   0  0  0  0  0  0  0  0  0  0  0  0
  143.3520   73.0520  220.8320 C   0  0  0  0  0  0  0  0  0  0  0  0
  143.4150   74.1280  219.7830 C   0  0  0  0  0  0  0  0  0  0  0  0
  142.0120   74.5470  219.5800 C   0  0  2  0  0  0  0  0  0  0  0  0
  141.6110   75.7660  220.3590 C   0  0  0  0  0  0  0  0  0  0  0  0
  141.4400   75.6320  221.7180 C   0  0  0  0  0  0  0  0  0  0  0  0
  141.0750   76.7470  222.4550 C   0  0  0  0  0  0  0  0  0  0  0  0
  140.8760   77.9890  221.8870 C   0  0  0  0  0  0  0  0  0  0  0  0
  140.5060   79.1050  222.6640 O   0  0  0  0  0  0  0  0  0  0  0  0
  141.5030   79.7050  223.4880 C   0  0  0  0  0  0  0  0  0  0  0  0
  142.6850   79.8140  222.7500 F   0  0  0  0  0  0  0  0  0  0  0  0
  141.8200   78.9530  224.5870 F   0  0  0  0  0  0  0  0  0  0  0  0
  141.0930   80.9680  223.8540 F   0  0  0  0  0  0  0  0  0  0  0  0
  141.0550   78.1100  220.5090 C   0  0  0  0  0  0  0  0  0  0  0  0
  141.4190   76.9940  219.7700 C   0  0  0  0  0  0  0  0  0  0  0  0
  139.3600   70.9580  223.5000 C   0  0  0  0  0  0  0  0  0  0  0  0
  139.0530   69.6080  223.5460 C   0  0  0  0  0  0  0  0  0  0  0  0
  139.3280   68.8530  224.6700 C   0  0  0  0  0  0  0  0  0  0  0  0
  139.9240   69.4380  225.7870 C   0  0  0  0  0  0  0  0  0  0  0  0
  140.1950   68.6680  226.9060 C   0  0  0  0  0  0  0  0  0  0  0  0
  140.7840   69.2670  227.9960 C   0  0  0  0  0  0  0  0  0  0  0  0
  141.0620   68.5370  229.1090 F   0  0  0  0  0  0  0  0  0  0  0  0
  141.0690   70.6120  227.8970 C   0  0  0  0  0  0  0  0  0  0  0  0
  140.8060   71.3750  226.7990 C   0  0  0  0  0  0  0  0  0  0  0  0
  140.2100   70.7700  225.6980 C   0  0  0  0  0  0  0  0  0  0  0  0
  139.9360   71.5100  224.5870 N   0  0  0  0  0  0  0  0  0  0  0  0
  139.5980   73.5780  223.2230 H   0  0  0  0  0  0  0  0  0  0  0  0
  137.8878   73.8617  220.9225 H   0  0  0  0  0  0  0  0  0  0  0  0
  139.2096   74.9878  221.3617 H   0  0  0  0  0  0  0  0  0  0  0  0
  141.5906   72.0028  221.5076 H   0  0  0  0  0  0  0  0  0  0  0  0
  142.0882   71.5507  219.8822 H   0  0  0  0  0  0  0  0  0  0  0  0
  143.3934   73.4833  221.8431 H   0  0  0  0  0  0  0  0  0  0  0  0
  144.1939   72.3460  220.7785 H   0  0  0  0  0  0  0  0  0  0  0  0
  144.0244   74.9742  220.1332 H   0  0  0  0  0  0  0  0  0  0  0  0
  143.8783   73.7704  218.8516 H   0  0  0  0  0  0  0  0  0  0  0  0
  141.8796   74.7940  218.5163 H   0  0  0  0  0  0  0  0  0  0  0  0
  141.5901   74.6593  222.2092 H   0  0  0  0  0  0  0  0  0  0  0  0
  140.9377   76.6375  223.5409 H   0  0  0  0  0  0  0  0  0  0  0  0
  140.9089   79.0810  220.0131 H   0  0  0  0  0  0  0  0  0  0  0  0
  141.5579   77.0938  218.6834 H   0  0  0  0  0  0  0  0  0  0  0  0
  138.5829   69.1296  222.6741 H   0  0  0  0  0  0  0  0  0  0  0  0
  139.0750   67.7826  224.6840 H   0  0  0  0  0  0  0  0  0  0  0  0
  139.9440   67.5972  226.9231 H   0  0  0  0  0  0  0  0  0  0  0  0
  141.5401   71.1020  228.7619 H   0  0  0  0  0  0  0  0  0  0  0  0
  141.0595   72.4453  226.7840 H   0  0  0  0  0  0  0  0  0  0  0  0
  1  2  2  0
  2  3  1  0
  3  4  1  0
  4  5  1  0
  5  6  2  0
  5  7  1  0
  7  8  1  0
  8  9  1  0
  9 10  1  0
 10 11  1  0
 11 12  1  0
 12 13  2  0
 13 14  1  0
 14 15  2  0
 15 16  1  0
 16 17  1  0
 17 18  1  0
 17 19  1  0
 17 20  1  0
 15 21  1  0
 21 22  2  0
  2 23  1  0
 23 24  2  0
 24 25  1  0
 25 26  2  0
 26 27  1  0
 27 28  2  0
 28 29  1  0
 28 30  1  0
 30 31  2  0
 31 32  1  0
 32 33  2  0
 11  7  1  0
 22 12  1  0
 33 23  1  0
 32 26  1  0
  3 34  1  0
  4 35  1  0
  4 36  1  0
  8 37  1  0
  8 38  1  0
  9 39  1  0
  9 40  1  0
 10 41  1  0
 10 42  1  0
 11 43  1  6
 13 44  1  0
 14 45  1  0
 21 46  1  0
 22 47  1  0
 24 48  1  0
 25 49  1  0
 27 50  1  0
 30 51  1  0
 31 52  1  0
M  END
>  <smiles>  (28) 
O=C(NCC(=O)N1CCCC1c1ccc(OC(F)(F)F)cc1)c1ccc2cc(F)ccc2n1

>  <score_type>  (28) 
oracle

>  <origin>  (28) 
autodockgpu

>  <m_score__min__energy>  (28) 
-7.9100000000000001

>  <m_primary>  (28) 
energy

>  <rmsd>  (28) 
2.594839577475311

>  <m_score__min__rmsd>  (28) 
2.594839577475311

>  <meeko>  (28) 
{"free_energy": -7.14, "intermolecular_energy": -9.23, "internal_energy": -1.91, "cluster_size": 17, "cluster_id": 2, "rank_in_cluster": 17}

>  <energy>  (28) 
-7.7

>  <cluster_rmsd>  (28) 
0.94

>  <cluster>  (28) 
2

$$$$

     RDKit          3D

 52 55  0  0  0  0  0  0  0  0999 V2000
  137.8730   70.4850  221.9440 O   0  0  0  0  0  0  0  0  0  0  0  0
  138.5910   71.0510  222.8280 C   0  0  0  0  0  0  0  0  0  0  0  0
  138.9890   72.4180  222.7200 N   0  0  0  0  0  0  0  0  0  0  0  0
  138.5890   73.2010  221.5990 C   0  0  0  0  0  0  0  0  0  0  0  0
  139.6320   74.2240  221.3330 C   0  0  0  0  0  0  0  0  0  0  0  0
  140.5400   74.4070  222.2100 O   0  0  0  0  0  0  0  0  0  0  0  0
  139.6280   74.9990  220.1150 N   0  0  0  0  0  0  0  0  0  0  0  0
  140.1420   74.5350  218.8710 C   0  0  0  0  0  0  0  0  0  0  0  0
  140.3500   75.7920  218.0650 C   0  0  0  0  0  0  0  0  0  0  0  0
  139.2780   76.7100  218.5820 C   0  0  0  0  0  0  0  0  0  0  0  0
  139.1030   76.3330  220.0010 C   0  0  2  0  0  0  0  0  0  0  0  0
  139.8660   77.1910  220.9680 C   0  0  0  0  0  0  0  0  0  0  0  0
  141.1000   77.6590  220.5750 C   0  0  0  0  0  0  0  0  0  0  0  0
  141.8170   78.4570  221.4510 C   0  0  0  0  0  0  0  0  0  0  0  0
  141.3510   78.8050  222.7020 C   0  0  0  0  0  0  0  0  0  0  0  0
  142.1050   79.6180  223.5710 O   0  0  0  0  0  0  0  0  0  0  0  0
  141.8370   81.0190  223.5740 C   0  0  0  0  0  0  0  0  0  0  0  0
  142.1730   81.5400  222.3220 F   0  0  0  0  0  0  0  0  0  0  0  0
  142.5960   81.7120  224.4800 F   0  0  0  0  0  0  0  0  0  0  0  0
  140.4930   81.2270  223.7930 F   0  0  0  0  0  0  0  0  0  0  0  0
  140.0990   78.3240  223.0860 C   0  0  0  0  0  0  0  0  0  0  0  0
  139.3790   77.5250  222.2100 C   0  0  0  0  0  0  0  0  0  0  0  0
  139.0250   70.2820  223.9990 C   0  0  0  0  0  0  0  0  0  0  0  0
  138.7950   68.9180  224.0480 C   0  0  0  0  0  0  0  0  0  0  0  0
  139.1930   68.1660  225.1370 C   0  0  0  0  0  0  0  0  0  0  0  0
  139.8390   68.7700  226.2150 C   0  0  0  0  0  0  0  0  0  0  0  0
  140.2330   68.0030  227.3000 C   0  0  0  0  0  0  0  0  0  0  0  0
  140.8700   68.6210  228.3520 C   0  0  0  0  0  0  0  0  0  0  0  0
  141.2690   67.8940  229.4300 F   0  0  0  0  0  0  0  0  0  0  0  0
  141.0760   69.9800  228.2520 C   0  0  0  0  0  0  0  0  0  0  0  0
  140.6910   70.7400  227.1880 C   0  0  0  0  0  0  0  0  0  0  0  0
  140.0470   70.1160  226.1250 C   0  0  0  0  0  0  0  0  0  0  0  0
  139.6510   70.8520  225.0490 N   0  0  0  0  0  0  0  0  0  0  0  0
  139.5900   72.8180  223.5010 H   0  0  0  0  0  0  0  0  0  0  0  0
  138.4736   72.5529  220.7177 H   0  0  0  0  0  0  0  0  0  0  0  0
  137.6283   73.6931  221.8106 H   0  0  0  0  0  0  0  0  0  0  0  0
  141.0936   74.0027  219.0162 H   0  0  0  0  0  0  0  0  0  0  0  0
  139.4658   73.8233  218.3748 H   0  0  0  0  0  0  0  0  0  0  0  0
  141.3503   76.2138  218.2424 H   0  0  0  0  0  0  0  0  0  0  0  0
  140.2892   75.6245  216.9795 H   0  0  0  0  0  0  0  0  0  0  0  0
  139.5943   77.7601  218.4971 H   0  0  0  0  0  0  0  0  0  0  0  0
  138.3425   76.6157  218.0110 H   0  0  0  0  0  0  0  0  0  0  0  0
  138.0382   76.4415  220.2547 H   0  0  0  0  0  0  0  0  0  0  0  0
  141.5079   77.4043  219.5857 H   0  0  0  0  0  0  0  0  0  0  0  0
  142.8024   78.8301  221.1350 H   0  0  0  0  0  0  0  0  0  0  0  0
  139.6867   78.5760  224.0742 H   0  0  0  0  0  0  0  0  0  0  0  0
  138.3921   77.1485  222.5170 H   0  0  0  0  0  0  0  0  0  0  0  0
  138.2871   68.4245  223.2063 H   0  0  0  0  0  0  0  0  0  0  0  0
  138.9988   67.0834  225.1535 H   0  0  0  0  0  0  0  0  0  0  0  0
  140.0402   66.9202  227.3200 H   0  0  0  0  0  0  0  0  0  0  0  0
  141.5850   70.4849  229.0863 H   0  0  0  0  0  0  0  0  0  0  0  0
  140.8853   71.8226  227.1705 H   0  0  0  0  0  0  0  0  0  0  0  0
  1  2  2  0
  2  3  1  0
  3  4  1  0
  4  5  1  0
  5  6  2  0
  5  7  1  0
  7  8  1  0
  8  9  1  0
  9 10  1  0
 10 11  1  0
 11 12  1  0
 12 13  2  0
 13 14  1  0
 14 15  2  0
 15 16  1  0
 16 17  1  0
 17 18  1  0
 17 19  1  0
 17 20  1  0
 15 21  1  0
 21 22  2  0
  2 23  1  0
 23 24  2  0
 24 25  1  0
 25 26  2  0
 26 27  1  0
 27 28  2  0
 28 29  1  0
 28 30  1  0
 30 31  2  0
 31 32  1  0
 32 33  2  0
 11  7  1  0
 22 12  1  0
 33 23  1  0
 32 26  1  0
  3 34  1  0
  4 35  1  0
  4 36  1  0
  8 37  1  0
  8 38  1  0
  9 39  1  0
  9 40  1  0
 10 41  1  0
 10 42  1  0
 11 43  1  1
 13 44  1  0
 14 45  1  0
 21 46  1  0
 22 47  1  0
 24 48  1  0
 25 49  1  0
 27 50  1  0
 30 51  1  0
 31 52  1  0
M  END
>  <smiles>  (29) 
O=C(NCC(=O)N1CCCC1c1ccc(OC(F)(F)F)cc1)c1ccc2cc(F)ccc2n1

>  <score_type>  (29) 
oracle

>  <origin>  (29) 
autodockgpu

>  <m_score__min__energy>  (29) 
-7.9100000000000001

>  <m_primary>  (29) 
energy

>  <rmsd>  (29) 
1.3212000797490075

>  <m_score__min__rmsd>  (29) 
1.3212000797490075

>  <meeko>  (29) 
{"free_energy": -7.5, "intermolecular_energy": -9.58, "internal_energy": -2.2, "cluster_size": 17, "cluster_id": 2, "rank_in_cluster": 13}

>  <energy>  (29) 
-7.68

>  <cluster_rmsd>  (29) 
0.85

>  <cluster>  (29) 
2

$$$$

     RDKit          3D

 52 55  0  0  0  0  0  0  0  0999 V2000
  140.5360   71.4310  221.0020 O   0  0  0  0  0  0  0  0  0  0  0  0
  140.1870   72.0290  222.0670 C   0  0  0  0  0  0  0  0  0  0  0  0
  139.8880   73.4260  222.0900 N   0  0  0  0  0  0  0  0  0  0  0  0
  139.9750   74.2020  220.8980 C   0  0  0  0  0  0  0  0  0  0  0  0
  140.8590   75.3680  221.1520 C   0  0  0  0  0  0  0  0  0  0  0  0
  140.9590   75.8060  222.3460 O   0  0  0  0  0  0  0  0  0  0  0  0
  141.5910   76.0000  220.0800 N   0  0  0  0  0  0  0  0  0  0  0  0
  140.9810   76.6720  218.9840 C   0  0  0  0  0  0  0  0  0  0  0  0
  142.0650   76.7370  217.9380 C   0  0  0  0  0  0  0  0  0  0  0  0
  143.3240   76.8050  218.7570 C   0  0  0  0  0  0  0  0  0  0  0  0
  143.0260   76.0330  219.9830 C   0  0  2  0  0  0  0  0  0  0  0  0
  143.4980   74.6090  219.9480 C   0  0  0  0  0  0  0  0  0  0  0  0
  142.9830   73.7860  218.9710 C   0  0  0  0  0  0  0  0  0  0  0  0
  143.4110   72.4690  218.9200 C   0  0  0  0  0  0  0  0  0  0  0  0
  144.3320   71.9440  219.8030 C   0  0  0  0  0  0  0  0  0  0  0  0
  144.7480   70.6000  219.7240 O   0  0  0  0  0  0  0  0  0  0  0  0
  143.7650   69.6150  219.4090 C   0  0  0  0  0  0  0  0  0  0  0  0
  142.5740   69.9500  220.0590 F   0  0  0  0  0  0  0  0  0  0  0  0
  144.0930   68.3630  219.8580 F   0  0  0  0  0  0  0  0  0  0  0  0
  143.5420   69.6110  218.0500 F   0  0  0  0  0  0  0  0  0  0  0  0
  144.8460   72.7900  220.7860 C   0  0  0  0  0  0  0  0  0  0  0  0
  144.4180   74.1090  220.8390 C   0  0  0  0  0  0  0  0  0  0  0  0
  140.0830   71.2680  223.3170 C   0  0  0  0  0  0  0  0  0  0  0  0
  139.5390   69.9950  223.3020 C   0  0  0  0  0  0  0  0  0  0  0  0
  139.4280   69.2520  224.4620 C   0  0  0  0  0  0  0  0  0  0  0  0
  139.8670   69.7730  225.6790 C   0  0  0  0  0  0  0  0  0  0  0  0
  139.7500   69.0160  226.8340 C   0  0  0  0  0  0  0  0  0  0  0  0
  140.1900   69.5510  228.0240 C   0  0  0  0  0  0  0  0  0  0  0  0
  140.0890   68.8320  229.1740 F   0  0  0  0  0  0  0  0  0  0  0  0
  140.7240   70.8210  227.9830 C   0  0  0  0  0  0  0  0  0  0  0  0
  140.8420   71.5700  226.8510 C   0  0  0  0  0  0  0  0  0  0  0  0
  140.3970   71.0310  225.6490 C   0  0  0  0  0  0  0  0  0  0  0  0
  140.5030   71.7580  224.5020 N   0  0  0  0  0  0  0  0  0  0  0  0
  139.6030   73.8520  223.0220 H   0  0  0  0  0  0  0  0  0  0  0  0
  140.3950   73.5888  220.0871 H   0  0  0  0  0  0  0  0  0  0  0  0
  138.9736   74.5484  220.6025 H   0  0  0  0  0  0  0  0  0  0  0  0
  140.1145   76.1052  218.6127 H   0  0  0  0  0  0  0  0  0  0  0  0
  140.6018   77.6672  219.2591 H   0  0  0  0  0  0  0  0  0  0  0  0
  142.0551   75.8392  217.3025 H   0  0  0  0  0  0  0  0  0  0  0  0
  141.9508   77.5865  217.2485 H   0  0  0  0  0  0  0  0  0  0  0  0
  144.1653   76.3534  218.2108 H   0  0  0  0  0  0  0  0  0  0  0  0
  143.6146   77.8417  218.9823 H   0  0  0  0  0  0  0  0  0  0  0  0
  143.5428   76.5160  220.8254 H   0  0  0  0  0  0  0  0  0  0  0  0
  142.2476   74.1661  218.2466 H   0  0  0  0  0  0  0  0  0  0  0  0
  142.9977   71.8124  218.1402 H   0  0  0  0  0  0  0  0  0  0  0  0
  145.5830   72.4154  221.5116 H   0  0  0  0  0  0  0  0  0  0  0  0
  144.8261   74.7729  221.6154 H   0  0  0  0  0  0  0  0  0  0  0  0
  139.1892   69.5677  222.3507 H   0  0  0  0  0  0  0  0  0  0  0  0
  138.9906   68.2434  224.4252 H   0  0  0  0  0  0  0  0  0  0  0  0
  139.3138   68.0067  226.8007 H   0  0  0  0  0  0  0  0  0  0  0  0
  141.0787   71.2592  228.9275 H   0  0  0  0  0  0  0  0  0  0  0  0
  141.2795   72.5786  226.8872 H   0  0  0  0  0  0  0  0  0  0  0  0
  1  2  2  0
  2  3  1  0
  3  4  1  0
  4  5  1  0
  5  6  2  0
  5  7  1  0
  7  8  1  0
  8  9  1  0
  9 10  1  0
 10 11  1  0
 11 12  1  0
 12 13  2  0
 13 14  1  0
 14 15  2  0
 15 16  1  0
 16 17  1  0
 17 18  1  0
 17 19  1  0
 17 20  1  0
 15 21  1  0
 21 22  2  0
  2 23  1  0
 23 24  2  0
 24 25  1  0
 25 26  2  0
 26 27  1  0
 27 28  2  0
 28 29  1  0
 28 30  1  0
 30 31  2  0
 31 32  1  0
 32 33  2  0
 11  7  1  0
 22 12  1  0
 33 23  1  0
 32 26  1  0
  3 34  1  0
  4 35  1  0
  4 36  1  0
  8 37  1  0
  8 38  1  0
  9 39  1  0
  9 40  1  0
 10 41  1  0
 10 42  1  0
 11 43  1  1
 13 44  1  0
 14 45  1  0
 21 46  1  0
 22 47  1  0
 24 48  1  0
 25 49  1  0
 27 50  1  0
 30 51  1  0
 31 52  1  0
M  END
>  <smiles>  (30) 
O=C(NCC(=O)N1CCCC1c1ccc(OC(F)(F)F)cc1)c1ccc2cc(F)ccc2n1

>  <score_type>  (30) 
oracle

>  <origin>  (30) 
autodockgpu

>  <m_score__min__energy>  (30) 
-7.9100000000000001

>  <m_primary>  (30) 
energy

>  <rmsd>  (30) 
1.8378587776565296

>  <m_score__min__rmsd>  (30) 
1.8378587776565296

>  <meeko>  (30) 
{"free_energy": -7.32, "intermolecular_energy": -9.41, "internal_energy": -2.27, "cluster_size": 22, "cluster_id": 1, "rank_in_cluster": 20}

>  <energy>  (30) 
-7.63

>  <cluster_rmsd>  (30) 
1.1

>  <cluster>  (30) 
2

$$$$

     RDKit          3D

 52 55  0  0  0  0  0  0  0  0999 V2000
  140.6470   77.6620  217.7050 O   0  0  0  0  0  0  0  0  0  0  0  0
  141.7140   77.5930  218.3910 C   0  0  0  0  0  0  0  0  0  0  0  0
  142.2500   78.7260  219.0770 N   0  0  0  0  0  0  0  0  0  0  0  0
  141.5910   79.9880  219.0110 C   0  0  0  0  0  0  0  0  0  0  0  0
  140.5980   80.0660  220.1130 C   0  0  0  0  0  0  0  0  0  0  0  0
  139.3590   79.9930  219.8210 O   0  0  0  0  0  0  0  0  0  0  0  0
  141.0150   80.2230  221.4870 N   0  0  0  0  0  0  0  0  0  0  0  0
  142.1950   80.9090  221.8890 C   0  0  0  0  0  0  0  0  0  0  0  0
  142.4480   80.4190  223.2920 C   0  0  0  0  0  0  0  0  0  0  0  0
  141.0650   80.1340  223.8080 C   0  0  0  0  0  0  0  0  0  0  0  0
  140.2940   79.7100  222.6200 C   0  0  2  0  0  0  0  0  0  0  0  0
  140.1940   78.2230  222.4440 C   0  0  0  0  0  0  0  0  0  0  0  0
  138.9850   77.6240  222.7170 C   0  0  0  0  0  0  0  0  0  0  0  0
  138.8720   76.2530  222.5560 C   0  0  0  0  0  0  0  0  0  0  0  0
  139.9170   75.4580  222.1330 C   0  0  0  0  0  0  0  0  0  0  0  0
  139.7700   74.0660  221.9780 O   0  0  0  0  0  0  0  0  0  0  0  0
  140.4910   73.4320  220.9230 C   0  0  0  0  0  0  0  0  0  0  0  0
  140.3360   74.1890  219.7600 F   0  0  0  0  0  0  0  0  0  0  0  0
  140.0160   72.1830  220.6200 F   0  0  0  0  0  0  0  0  0  0  0  0
  141.8290   73.3860  221.2470 F   0  0  0  0  0  0  0  0  0  0  0  0
  141.1360   76.0790  221.8580 C   0  0  0  0  0  0  0  0  0  0  0  0
  141.2510   77.4520  222.0200 C   0  0  0  0  0  0  0  0  0  0  0  0
  142.4250   76.3140  218.4870 C   0  0  0  0  0  0  0  0  0  0  0  0
  142.1550   75.3090  217.5730 C   0  0  0  0  0  0  0  0  0  0  0  0
  142.8080   74.0920  217.6360 C   0  0  0  0  0  0  0  0  0  0  0  0
  143.7590   73.8510  218.6270 C   0  0  0  0  0  0  0  0  0  0  0  0
  144.4050   72.6270  218.6770 C   0  0  0  0  0  0  0  0  0  0  0  0
  145.3410   72.4120  219.6630 C   0  0  0  0  0  0  0  0  0  0  0  0
  145.9930   71.2210  219.7380 F   0  0  0  0  0  0  0  0  0  0  0  0
  145.5730   73.4440  220.5470 C   0  0  0  0  0  0  0  0  0  0  0  0
  144.9390   74.6510  220.5020 C   0  0  0  0  0  0  0  0  0  0  0  0
  143.9940   74.8690  219.5060 C   0  0  0  0  0  0  0  0  0  0  0  0
  143.3470   76.0650  219.4390 N   0  0  0  0  0  0  0  0  0  0  0  0
  143.1480   78.5870  219.6300 H   0  0  0  0  0  0  0  0  0  0  0  0
  142.3287   80.7967  219.1197 H   0  0  0  0  0  0  0  0  0  0  0  0
  141.0831   80.0949  218.0411 H   0  0  0  0  0  0  0  0  0  0  0  0
  143.0378   80.6551  221.2292 H   0  0  0  0  0  0  0  0  0  0  0  0
  142.0848   82.0023  221.8381 H   0  0  0  0  0  0  0  0  0  0  0  0
  143.0633   79.5072  223.2869 H   0  0  0  0  0  0  0  0  0  0  0  0
  142.9995   81.1428  223.9100 H   0  0  0  0  0  0  0  0  0  0  0  0
  141.0904   79.3310  224.5594 H   0  0  0  0  0  0  0  0  0  0  0  0
  140.6182   81.0108  224.2995 H   0  0  0  0  0  0  0  0  0  0  0  0
  139.2652   80.0835  222.7295 H   0  0  0  0  0  0  0  0  0  0  0  0
  138.1262   78.2220  223.0561 H   0  0  0  0  0  0  0  0  0  0  0  0
  137.9051   75.7765  222.7754 H   0  0  0  0  0  0  0  0  0  0  0  0
  141.9970   75.4859  221.5162 H   0  0  0  0  0  0  0  0  0  0  0  0
  142.2141   77.9373  221.8034 H   0  0  0  0  0  0  0  0  0  0  0  0
  141.4085   75.4820  216.7838 H   0  0  0  0  0  0  0  0  0  0  0  0
  142.5758   73.3086  216.8995 H   0  0  0  0  0  0  0  0  0  0  0  0
  144.1744   71.8413  217.9425 H   0  0  0  0  0  0  0  0  0  0  0  0
  146.3179   73.2838  221.3404 H   0  0  0  0  0  0  0  0  0  0  0  0
  145.1705   75.4350  221.2380 H   0  0  0  0  0  0  0  0  0  0  0  0
  1  2  2  0
  2  3  1  0
  3  4  1  0
  4  5  1  0
  5  6  2  0
  5  7  1  0
  7  8  1  0
  8  9  1  0
  9 10  1  0
 10 11  1  0
 11 12  1  0
 12 13  2  0
 13 14  1  0
 14 15  2  0
 15 16  1  0
 16 17  1  0
 17 18  1  0
 17 19  1  0
 17 20  1  0
 15 21  1  0
 21 22  2  0
  2 23  1  0
 23 24  2  0
 24 25  1  0
 25 26  2  0
 26 27  1  0
 27 28  2  0
 28 29  1  0
 28 30  1  0
 30 31  2  0
 31 32  1  0
 32 33  2  0
 11  7  1  0
 22 12  1  0
 33 23  1  0
 32 26  1  0
  3 34  1  0
  4 35  1  0
  4 36  1  0
  8 37  1  0
  8 38  1  0
  9 39  1  0
  9 40  1  0
 10 41  1  0
 10 42  1  0
 11 43  1  1
 13 44  1  0
 14 45  1  0
 21 46  1  0
 22 47  1  0
 24 48  1  0
 25 49  1  0
 27 50  1  0
 30 51  1  0
 31 52  1  0
M  END
>  <smiles>  (31) 
O=C(NCC(=O)N1CCCC1c1ccc(OC(F)(F)F)cc1)c1ccc2cc(F)ccc2n1

>  <score_type>  (31) 
oracle

>  <origin>  (31) 
autodockgpu

>  <m_score__min__energy>  (31) 
-7.9100000000000001

>  <m_primary>  (31) 
energy

>  <rmsd>  (31) 
8.011858230575232

>  <m_score__min__rmsd>  (31) 
8.011858230575232

>  <meeko>  (31) 
{"free_energy": -6.33, "intermolecular_energy": -8.42, "internal_energy": -3.02, "cluster_size": 3, "cluster_id": 7, "rank_in_cluster": 1}

>  <energy>  (31) 
-7.61

>  <cluster_rmsd>  (31) 
1.42

>  <cluster>  (31) 
2

$$$$

     RDKit          3D

 52 55  0  0  0  0  0  0  0  0999 V2000
  141.0380   71.1130  221.2330 O   0  0  0  0  0  0  0  0  0  0  0  0
  140.5340   71.7650  222.2000 C   0  0  0  0  0  0  0  0  0  0  0  0
  140.2180   73.1540  222.0960 N   0  0  0  0  0  0  0  0  0  0  0  0
  140.4630   73.8610  220.8830 C   0  0  0  0  0  0  0  0  0  0  0  0
  140.6700   75.2970  221.2010 C   0  0  0  0  0  0  0  0  0  0  0  0
  140.4050   75.7020  222.3810 O   0  0  0  0  0  0  0  0  0  0  0  0
  141.1580   76.2210  220.2050 N   0  0  0  0  0  0  0  0  0  0  0  0
  140.3350   76.8560  219.2330 C   0  0  0  0  0  0  0  0  0  0  0  0
  141.3020   77.3190  218.1740 C   0  0  0  0  0  0  0  0  0  0  0  0
  142.5590   77.5910  218.9540 C   0  0  0  0  0  0  0  0  0  0  0  0
  142.5340   76.6190  220.0680 C   0  0  2  0  0  0  0  0  0  0  0  0
  143.3320   75.3720  219.8200 C   0  0  0  0  0  0  0  0  0  0  0  0
  143.7070   75.0980  218.5240 C   0  0  0  0  0  0  0  0  0  0  0  0
  144.4490   73.9550  218.2760 C   0  0  0  0  0  0  0  0  0  0  0  0
  144.8290   73.0760  219.2690 C   0  0  0  0  0  0  0  0  0  0  0  0
  145.5840   71.9210  218.9840 O   0  0  0  0  0  0  0  0  0  0  0  0
  144.8880   70.6820  218.8650 C   0  0  0  0  0  0  0  0  0  0  0  0
  145.7750   69.7160  218.3840 F   0  0  0  0  0  0  0  0  0  0  0  0
  143.8600   70.7250  217.9610 F   0  0  0  0  0  0  0  0  0  0  0  0
  144.4380   70.2900  220.1070 F   0  0  0  0  0  0  0  0  0  0  0  0
  144.4420   73.3670  220.5770 C   0  0  0  0  0  0  0  0  0  0  0  0
  143.6990   74.5120  220.8280 C   0  0  0  0  0  0  0  0  0  0  0  0
  140.2650   71.0770  223.4670 C   0  0  0  0  0  0  0  0  0  0  0  0
  139.5830   69.8720  223.4610 C   0  0  0  0  0  0  0  0  0  0  0  0
  139.3140   69.1980  224.6380 C   0  0  0  0  0  0  0  0  0  0  0  0
  139.7280   69.7210  225.8620 C   0  0  0  0  0  0  0  0  0  0  0  0
  139.4520   69.0340  227.0330 C   0  0  0  0  0  0  0  0  0  0  0  0
  139.8710   69.5690  228.2300 C   0  0  0  0  0  0  0  0  0  0  0  0
  139.6160   68.9180  229.3960 F   0  0  0  0  0  0  0  0  0  0  0  0
  140.5470   70.7700  228.1800 C   0  0  0  0  0  0  0  0  0  0  0  0
  140.8210   71.4510  227.0310 C   0  0  0  0  0  0  0  0  0  0  0  0
  140.3980   70.9100  225.8220 C   0  0  0  0  0  0  0  0  0  0  0  0
  140.6590   71.5700  224.6590 N   0  0  0  0  0  0  0  0  0  0  0  0
  139.7990   73.6280  222.9500 H   0  0  0  0  0  0  0  0  0  0  0  0
  141.3619   73.4570  220.3944 H   0  0  0  0  0  0  0  0  0  0  0  0
  139.6050   73.7479  220.2040 H   0  0  0  0  0  0  0  0  0  0  0  0
  139.6080   76.1452  218.8133 H   0  0  0  0  0  0  0  0  0  0  0  0
  139.7460   77.6832  219.6558 H   0  0  0  0  0  0  0  0  0  0  0  0
  141.4670   76.5350  217.4202 H   0  0  0  0  0  0  0  0  0  0  0  0
  140.9428   78.1952  217.6143 H   0  0  0  0  0  0  0  0  0  0  0  0
  143.4469   77.4345  218.3238 H   0  0  0  0  0  0  0  0  0  0  0  0
  142.6071   78.6299  219.3122 H   0  0  0  0  0  0  0  0  0  0  0  0
  142.9724   77.1028  220.9533 H   0  0  0  0  0  0  0  0  0  0  0  0
  143.4233   75.7726  217.7027 H   0  0  0  0  0  0  0  0  0  0  0  0
  144.7489   73.7383  217.2401 H   0  0  0  0  0  0  0  0  0  0  0  0
  144.7230   72.6955  221.4017 H   0  0  0  0  0  0  0  0  0  0  0  0
  143.3956   74.7375  221.8610 H   0  0  0  0  0  0  0  0  0  0  0  0
  139.2497   69.4438  222.5041 H   0  0  0  0  0  0  0  0  0  0  0  0
  138.7696   68.2426  224.6082 H   0  0  0  0  0  0  0  0  0  0  0  0
  138.9079   68.0784  227.0066 H   0  0  0  0  0  0  0  0  0  0  0  0
  140.8877   71.2075  229.1300 H   0  0  0  0  0  0  0  0  0  0  0  0
  141.3645   72.4069  227.0599 H   0  0  0  0  0  0  0  0  0  0  0  0
  1  2  2  0
  2  3  1  0
  3  4  1  0
  4  5  1  0
  5  6  2  0
  5  7  1  0
  7  8  1  0
  8  9  1  0
  9 10  1  0
 10 11  1  0
 11 12  1  0
 12 13  2  0
 13 14  1  0
 14 15  2  0
 15 16  1  0
 16 17  1  0
 17 18  1  0
 17 19  1  0
 17 20  1  0
 15 21  1  0
 21 22  2  0
  2 23  1  0
 23 24  2  0
 24 25  1  0
 25 26  2  0
 26 27  1  0
 27 28  2  0
 28 29  1  0
 28 30  1  0
 30 31  2  0
 31 32  1  0
 32 33  2  0
 11  7  1  0
 22 12  1  0
 33 23  1  0
 32 26  1  0
  3 34  1  0
  4 35  1  0
  4 36  1  0
  8 37  1  0
  8 38  1  0
  9 39  1  0
  9 40  1  0
 10 41  1  0
 10 42  1  0
 11 43  1  1
 13 44  1  0
 14 45  1  0
 21 46  1  0
 22 47  1  0
 24 48  1  0
 25 49  1  0
 27 50  1  0
 30 51  1  0
 31 52  1  0
M  END
>  <smiles>  (32) 
O=C(NCC(=O)N1CCCC1c1ccc(OC(F)(F)F)cc1)c1ccc2cc(F)ccc2n1

>  <score_type>  (32) 
oracle

>  <origin>  (32) 
autodockgpu

>  <m_score__min__energy>  (32) 
-7.9100000000000001

>  <m_primary>  (32) 
energy

>  <rmsd>  (32) 
1.76067304344012

>  <m_score__min__rmsd>  (32) 
1.76067304344012

>  <meeko>  (32) 
{"free_energy": -7.6, "intermolecular_energy": -9.69, "internal_energy": -2.22, "cluster_size": 22, "cluster_id": 1, "rank_in_cluster": 12}

>  <energy>  (32) 
-7.59

>  <cluster_rmsd>  (32) 
0.87

>  <cluster>  (32) 
2

$$$$

     RDKit          3D

 52 55  0  0  0  0  0  0  0  0999 V2000
  141.1370   71.2080  221.2140 O   0  0  0  0  0  0  0  0  0  0  0  0
  140.6160   71.9010  222.1420 C   0  0  0  0  0  0  0  0  0  0  0  0
  140.3490   73.2950  221.9900 N   0  0  0  0  0  0  0  0  0  0  0  0
  140.6650   73.9620  220.7710 C   0  0  0  0  0  0  0  0  0  0  0  0
  140.8740   75.4040  221.0560 C   0  0  0  0  0  0  0  0  0  0  0  0
  140.6860   75.8220  222.2460 O   0  0  0  0  0  0  0  0  0  0  0  0
  141.2790   76.3220  220.0170 N   0  0  0  0  0  0  0  0  0  0  0  0
  140.3840   76.9180  219.0850 C   0  0  0  0  0  0  0  0  0  0  0  0
  141.2760   77.3850  217.9620 C   0  0  0  0  0  0  0  0  0  0  0  0
  142.5680   77.7020  218.6630 C   0  0  0  0  0  0  0  0  0  0  0  0
  142.6330   76.7510  219.7930 C   0  0  2  0  0  0  0  0  0  0  0  0
  143.4470   75.5200  219.5200 C   0  0  0  0  0  0  0  0  0  0  0  0
  143.4120   74.9960  218.2470 C   0  0  0  0  0  0  0  0  0  0  0  0
  144.1600   73.8630  217.9740 C   0  0  0  0  0  0  0  0  0  0  0  0
  144.9420   73.2340  218.9210 C   0  0  0  0  0  0  0  0  0  0  0  0
  145.6930   72.0830  218.6120 O   0  0  0  0  0  0  0  0  0  0  0  0
  145.1340   70.8130  218.9430 C   0  0  0  0  0  0  0  0  0  0  0  0
  146.1710   69.9490  219.3010 F   0  0  0  0  0  0  0  0  0  0  0  0
  144.4980   70.2130  217.8880 F   0  0  0  0  0  0  0  0  0  0  0  0
  144.2830   70.9540  220.0170 F   0  0  0  0  0  0  0  0  0  0  0  0
  144.9690   73.7770  220.2060 C   0  0  0  0  0  0  0  0  0  0  0  0
  144.2200   74.9110  220.4810 C   0  0  0  0  0  0  0  0  0  0  0  0
  140.2750   71.2550  223.4140 C   0  0  0  0  0  0  0  0  0  0  0  0
  139.5190   70.0940  223.4130 C   0  0  0  0  0  0  0  0  0  0  0  0
  139.1810   69.4610  224.5940 C   0  0  0  0  0  0  0  0  0  0  0  0
  139.5980   69.9810  225.8190 C   0  0  0  0  0  0  0  0  0  0  0  0
  139.2520   69.3350  226.9950 C   0  0  0  0  0  0  0  0  0  0  0  0
  139.6750   69.8660  228.1920 C   0  0  0  0  0  0  0  0  0  0  0  0
  139.3520   69.2550  229.3630 F   0  0  0  0  0  0  0  0  0  0  0  0
  140.4250   71.0220  228.1370 C   0  0  0  0  0  0  0  0  0  0  0  0
  140.7680   71.6620  226.9840 C   0  0  0  0  0  0  0  0  0  0  0  0
  140.3410   71.1260  225.7740 C   0  0  0  0  0  0  0  0  0  0  0  0
  140.6700   71.7450  224.6070 N   0  0  0  0  0  0  0  0  0  0  0  0
  139.9120   73.8050  222.8150 H   0  0  0  0  0  0  0  0  0  0  0  0
  141.5824   73.5330  220.3417 H   0  0  0  0  0  0  0  0  0  0  0  0
  139.8414   73.8382  220.0524 H   0  0  0  0  0  0  0  0  0  0  0  0
  139.6521   76.1817  218.7214 H   0  0  0  0  0  0  0  0  0  0  0  0
  139.7994   77.7380  219.5275 H   0  0  0  0  0  0  0  0  0  0  0  0
  141.4171   76.5914  217.2135 H   0  0  0  0  0  0  0  0  0  0  0  0
  140.8627   78.2411  217.4086 H   0  0  0  0  0  0  0  0  0  0  0  0
  143.4218   77.5559  217.9850 H   0  0  0  0  0  0  0  0  0  0  0  0
  142.6094   78.7482  219.0003 H   0  0  0  0  0  0  0  0  0  0  0  0
  143.1095   77.2619  220.6427 H   0  0  0  0  0  0  0  0  0  0  0  0
  142.8021   75.4680  217.4626 H   0  0  0  0  0  0  0  0  0  0  0  0
  144.1294   73.4458  216.9567 H   0  0  0  0  0  0  0  0  0  0  0  0
  145.5787   73.3099  220.9934 H   0  0  0  0  0  0  0  0  0  0  0  0
  144.2447   75.3353  221.4956 H   0  0  0  0  0  0  0  0  0  0  0  0
  139.1821   69.6689  222.4560 H   0  0  0  0  0  0  0  0  0  0  0  0
  138.5790   68.5407  224.5677 H   0  0  0  0  0  0  0  0  0  0  0  0
  138.6502   68.4145  226.9722 H   0  0  0  0  0  0  0  0  0  0  0  0
  140.7692   71.4563  229.0872 H   0  0  0  0  0  0  0  0  0  0  0  0
  141.3696   72.5826  227.0098 H   0  0  0  0  0  0  0  0  0  0  0  0
  1  2  2  0
  2  3  1  0
  3  4  1  0
  4  5  1  0
  5  6  2  0
  5  7  1  0
  7  8  1  0
  8  9  1  0
  9 10  1  0
 10 11  1  0
 11 12  1  0
 12 13  2  0
 13 14  1  0
 14 15  2  0
 15 16  1  0
 16 17  1  0
 17 18  1  0
 17 19  1  0
 17 20  1  0
 15 21  1  0
 21 22  2  0
  2 23  1  0
 23 24  2  0
 24 25  1  0
 25 26  2  0
 26 27  1  0
 27 28  2  0
 28 29  1  0
 28 30  1  0
 30 31  2  0
 31 32  1  0
 32 33  2  0
 11  7  1  0
 22 12  1  0
 33 23  1  0
 32 26  1  0
  3 34  1  0
  4 35  1  0
  4 36  1  0
  8 37  1  0
  8 38  1  0
  9 39  1  0
  9 40  1  0
 10 41  1  0
 10 42  1  0
 11 43  1  1
 13 44  1  0
 14 45  1  0
 21 46  1  0
 22 47  1  0
 24 48  1  0
 25 49  1  0
 27 50  1  0
 30 51  1  0
 31 52  1  0
M  END
>  <smiles>  (33) 
O=C(NCC(=O)N1CCCC1c1ccc(OC(F)(F)F)cc1)c1ccc2cc(F)ccc2n1

>  <score_type>  (33) 
oracle

>  <origin>  (33) 
autodockgpu

>  <m_score__min__energy>  (33) 
-7.9100000000000001

>  <m_primary>  (33) 
energy

>  <rmsd>  (33) 
1.8649196976843598

>  <m_score__min__rmsd>  (33) 
1.8649196976843598

>  <meeko>  (33) 
{"free_energy": -7.81, "intermolecular_energy": -9.9, "internal_energy": -2.2, "cluster_size": 22, "cluster_id": 1, "rank_in_cluster": 3}

>  <energy>  (33) 
-7.56

>  <cluster_rmsd>  (33) 
1.71

>  <cluster>  (33) 
2

$$$$

     RDKit          3D

 52 55  0  0  0  0  0  0  0  0999 V2000
  140.9310   71.3690  221.3620 O   0  0  0  0  0  0  0  0  0  0  0  0
  140.3710   71.9030  222.3700 C   0  0  0  0  0  0  0  0  0  0  0  0
  139.8880   73.2460  222.3470 N   0  0  0  0  0  0  0  0  0  0  0  0
  140.0230   74.0420  221.1730 C   0  0  0  0  0  0  0  0  0  0  0  0
  140.0680   75.4730  221.5680 C   0  0  0  0  0  0  0  0  0  0  0  0
  139.6080   75.8020  222.7120 O   0  0  0  0  0  0  0  0  0  0  0  0
  140.6160   76.4770  220.6860 N   0  0  0  0  0  0  0  0  0  0  0  0
  141.9210   76.4160  220.1210 C   0  0  0  0  0  0  0  0  0  0  0  0
  142.2050   77.8340  219.6930 C   0  0  0  0  0  0  0  0  0  0  0  0
  140.8410   78.3670  219.3540 C   0  0  0  0  0  0  0  0  0  0  0  0
  139.9160   77.6610  220.2660 C   0  0  2  0  0  0  0  0  0  0  0  0
  139.5630   78.4280  221.5070 C   0  0  0  0  0  0  0  0  0  0  0  0
  138.2290   78.6420  221.7710 C   0  0  0  0  0  0  0  0  0  0  0  0
  137.8830   79.3440  222.9140 C   0  0  0  0  0  0  0  0  0  0  0  0
  138.8150   79.8400  223.8010 C   0  0  0  0  0  0  0  0  0  0  0  0
  138.4310   80.5500  224.9560 O   0  0  0  0  0  0  0  0  0  0  0  0
  137.2330   81.3210  224.8970 C   0  0  0  0  0  0  0  0  0  0  0  0
  137.1500   82.1050  226.0500 F   0  0  0  0  0  0  0  0  0  0  0  0
  136.0980   80.5550  224.8870 F   0  0  0  0  0  0  0  0  0  0  0  0
  137.2780   82.1530  223.7990 F   0  0  0  0  0  0  0  0  0  0  0  0
  140.1630   79.6150  223.5210 C   0  0  0  0  0  0  0  0  0  0  0  0
  140.5120   78.9120  222.3770 C   0  0  0  0  0  0  0  0  0  0  0  0
  140.2100   71.1190  223.6000 C   0  0  0  0  0  0  0  0  0  0  0  0
  139.5490   69.9030  223.5570 C   0  0  0  0  0  0  0  0  0  0  0  0
  139.3810   69.1410  224.6980 C   0  0  0  0  0  0  0  0  0  0  0  0
  139.8790   69.5840  225.9230 C   0  0  0  0  0  0  0  0  0  0  0  0
  139.7050   68.8090  227.0580 C   0  0  0  0  0  0  0  0  0  0  0  0
  140.2060   69.2660  228.2560 C   0  0  0  0  0  0  0  0  0  0  0  0
  140.0500   68.5270  229.3870 F   0  0  0  0  0  0  0  0  0  0  0  0
  140.8560   70.4810  228.2430 C   0  0  0  0  0  0  0  0  0  0  0  0
  141.0310   71.2480  227.1300 C   0  0  0  0  0  0  0  0  0  0  0  0
  140.5250   70.7870  225.9200 C   0  0  0  0  0  0  0  0  0  0  0  0
  140.6860   71.5340  224.7920 N   0  0  0  0  0  0  0  0  0  0  0  0
  139.4310   73.6200  223.2320 H   0  0  0  0  0  0  0  0  0  0  0  0
  140.9522   73.7736  220.6491 H   0  0  0  0  0  0  0  0  0  0  0  0
  139.1695   73.8661  220.5018 H   0  0  0  0  0  0  0  0  0  0  0  0
  142.6545   76.0797  220.8686 H   0  0  0  0  0  0  0  0  0  0  0  0
  141.9860   75.7027  219.2862 H   0  0  0  0  0  0  0  0  0  0  0  0
  142.6618   78.4097  220.5115 H   0  0  0  0  0  0  0  0  0  0  0  0
  142.9152   77.8990  218.8555 H   0  0  0  0  0  0  0  0  0  0  0  0
  140.7972   79.4529  219.5237 H   0  0  0  0  0  0  0  0  0  0  0  0
  140.5844   78.2025  218.2971 H   0  0  0  0  0  0  0  0  0  0  0  0
  138.9738   77.4835  219.7268 H   0  0  0  0  0  0  0  0  0  0  0  0
  137.4539   78.2634  221.0885 H   0  0  0  0  0  0  0  0  0  0  0  0
  136.8165   79.5134  223.1235 H   0  0  0  0  0  0  0  0  0  0  0  0
  140.9417   79.9913  224.2007 H   0  0  0  0  0  0  0  0  0  0  0  0
  141.5761   78.7370  222.1599 H   0  0  0  0  0  0  0  0  0  0  0  0
  139.1510   69.5373  222.5990 H   0  0  0  0  0  0  0  0  0  0  0  0
  138.8510   68.1789  224.6394 H   0  0  0  0  0  0  0  0  0  0  0  0
  139.1762   67.8460  227.0030 H   0  0  0  0  0  0  0  0  0  0  0  0
  141.2606   70.8569  229.1943 H   0  0  0  0  0  0  0  0  0  0  0  0
  141.5608   72.2103  227.1879 H   0  0  0  0  0  0  0  0  0  0  0  0
  1  2  2  0
  2  3  1  0
  3  4  1  0
  4  5  1  0
  5  6  2  0
  5  7  1  0
  7  8  1  0
  8  9  1  0
  9 10  1  0
 10 11  1  0
 11 12  1  0
 12 13  2  0
 13 14  1  0
 14 15  2  0
 15 16  1  0
 16 17  1  0
 17 18  1  0
 17 19  1  0
 17 20  1  0
 15 21  1  0
 21 22  2  0
  2 23  1  0
 23 24  2  0
 24 25  1  0
 25 26  2  0
 26 27  1  0
 27 28  2  0
 28 29  1  0
 28 30  1  0
 30 31  2  0
 31 32  1  0
 32 33  2  0
 11  7  1  0
 22 12  1  0
 33 23  1  0
 32 26  1  0
  3 34  1  0
  4 35  1  0
  4 36  1  0
  8 37  1  0
  8 38  1  0
  9 39  1  0
  9 40  1  0
 10 41  1  0
 10 42  1  0
 11 43  1  6
 13 44  1  0
 14 45  1  0
 21 46  1  0
 22 47  1  0
 24 48  1  0
 25 49  1  0
 27 50  1  0
 30 51  1  0
 31 52  1  0
M  END
>  <smiles>  (34) 
O=C(NCC(=O)N1CCCC1c1ccc(OC(F)(F)F)cc1)c1ccc2cc(F)ccc2n1

>  <score_type>  (34) 
oracle

>  <origin>  (34) 
autodockgpu

>  <m_score__min__energy>  (34) 
-7.9100000000000001

>  <m_primary>  (34) 
energy

>  <rmsd>  (34) 
1.9961961105917494

>  <m_score__min__rmsd>  (34) 
1.9961961105917494

>  <meeko>  (34) 
{"free_energy": -7.67, "intermolecular_energy": -9.76, "internal_energy": -1.95, "cluster_size": 4, "cluster_id": 3, "rank_in_cluster": 2}

>  <energy>  (34) 
-7.52

>  <cluster_rmsd>  (34) 
1.39

>  <cluster>  (34) 
2

$$$$

     RDKit          3D

 52 55  0  0  0  0  0  0  0  0999 V2000
  141.1550   71.1180  221.2450 O   0  0  0  0  0  0  0  0  0  0  0  0
  140.6670   71.8300  222.1770 C   0  0  0  0  0  0  0  0  0  0  0  0
  140.4540   73.2350  222.0270 N   0  0  0  0  0  0  0  0  0  0  0  0
  140.7890   73.8890  220.8070 C   0  0  0  0  0  0  0  0  0  0  0  0
  141.0640   75.3200  221.0930 C   0  0  0  0  0  0  0  0  0  0  0  0
  140.9940   75.7230  222.3020 O   0  0  0  0  0  0  0  0  0  0  0  0
  141.4030   76.2440  220.0360 N   0  0  0  0  0  0  0  0  0  0  0  0
  140.4540   76.8200  219.1450 C   0  0  0  0  0  0  0  0  0  0  0  0
  141.2830   77.3030  217.9820 C   0  0  0  0  0  0  0  0  0  0  0  0
  142.6000   77.6470  218.6220 C   0  0  0  0  0  0  0  0  0  0  0  0
  142.7360   76.6990  219.7490 C   0  0  2  0  0  0  0  0  0  0  0  0
  143.5610   75.4840  219.4400 C   0  0  0  0  0  0  0  0  0  0  0  0
  144.2930   74.9280  220.4650 C   0  0  0  0  0  0  0  0  0  0  0  0
  145.0570   73.8030  220.2010 C   0  0  0  0  0  0  0  0  0  0  0  0
  145.1170   73.2120  218.9560 C   0  0  0  0  0  0  0  0  0  0  0  0
  145.9040   72.0680  218.7190 O   0  0  0  0  0  0  0  0  0  0  0  0
  145.3110   70.7910  218.9500 C   0  0  0  0  0  0  0  0  0  0  0  0
  144.4010   70.9060  220.0030 F   0  0  0  0  0  0  0  0  0  0  0  0
  146.2150   69.8400  219.3430 F   0  0  0  0  0  0  0  0  0  0  0  0
  144.6330   70.3910  217.8200 F   0  0  0  0  0  0  0  0  0  0  0  0
  144.3700   73.7860  217.9270 C   0  0  0  0  0  0  0  0  0  0  0  0
  143.6040   74.9130  218.1900 C   0  0  0  0  0  0  0  0  0  0  0  0
  140.3070   71.1970  223.4500 C   0  0  0  0  0  0  0  0  0  0  0  0
  139.5610   70.0300  223.4500 C   0  0  0  0  0  0  0  0  0  0  0  0
  139.2060   69.4090  224.6320 C   0  0  0  0  0  0  0  0  0  0  0  0
  139.5960   69.9470  225.8580 C   0  0  0  0  0  0  0  0  0  0  0  0
  139.2340   69.3130  227.0350 C   0  0  0  0  0  0  0  0  0  0  0  0
  139.6310   69.8620  228.2330 C   0  0  0  0  0  0  0  0  0  0  0  0
  139.2910   69.2620  229.4050 F   0  0  0  0  0  0  0  0  0  0  0  0
  140.3730   71.0230  228.1780 C   0  0  0  0  0  0  0  0  0  0  0  0
  140.7320   71.6520  227.0230 C   0  0  0  0  0  0  0  0  0  0  0  0
  140.3310   71.0970  225.8130 C   0  0  0  0  0  0  0  0  0  0  0  0
  140.6770   71.7050  224.6440 N   0  0  0  0  0  0  0  0  0  0  0  0
  140.0420   73.7600  222.8550 H   0  0  0  0  0  0  0  0  0  0  0  0
  141.6830   73.4207  220.3695 H   0  0  0  0  0  0  0  0  0  0  0  0
  139.9552   73.8030  220.0948 H   0  0  0  0  0  0  0  0  0  0  0  0
  139.7215   76.0682  218.8162 H   0  0  0  0  0  0  0  0  0  0  0  0
  139.8739   77.6289  219.6132 H   0  0  0  0  0  0  0  0  0  0  0  0
  141.4051   76.5113  217.2282 H   0  0  0  0  0  0  0  0  0  0  0  0
  140.8272   78.1499  217.4481 H   0  0  0  0  0  0  0  0  0  0  0  0
  143.4242   77.5165  217.9052 H   0  0  0  0  0  0  0  0  0  0  0  0
  142.6365   78.6945  218.9559 H   0  0  0  0  0  0  0  0  0  0  0  0
  143.2410   77.2208  220.5753 H   0  0  0  0  0  0  0  0  0  0  0  0
  144.2716   75.3681  221.4729 H   0  0  0  0  0  0  0  0  0  0  0  0
  145.6421   73.3611  221.0210 H   0  0  0  0  0  0  0  0  0  0  0  0
  144.3880   73.3497  216.9174 H   0  0  0  0  0  0  0  0  0  0  0  0
  143.0153   75.3616  217.3763 H   0  0  0  0  0  0  0  0  0  0  0  0
  139.2458   69.5900  222.4924 H   0  0  0  0  0  0  0  0  0  0  0  0
  138.6116   68.4838  224.6058 H   0  0  0  0  0  0  0  0  0  0  0  0
  138.6400   68.3875  227.0127 H   0  0  0  0  0  0  0  0  0  0  0  0
  140.6966   71.4713  229.1290 H   0  0  0  0  0  0  0  0  0  0  0  0
  141.3256   72.5778  227.0478 H   0  0  0  0  0  0  0  0  0  0  0  0
  1  2  2  0
  2  3  1  0
  3  4  1  0
  4  5  1  0
  5  6  2  0
  5  7  1  0
  7  8  1  0
  8  9  1  0
  9 10  1  0
 10 11  1  0
 11 12  1  0
 12 13  2  0
 13 14  1  0
 14 15  2  0
 15 16  1  0
 16 17  1  0
 17 18  1  0
 17 19  1  0
 17 20  1  0
 15 21  1  0
 21 22  2  0
  2 23  1  0
 23 24  2  0
 24 25  1  0
 25 26  2  0
 26 27  1  0
 27 28  2  0
 28 29  1  0
 28 30  1  0
 30 31  2  0
 31 32  1  0
 32 33  2  0
 11  7  1  0
 22 12  1  0
 33 23  1  0
 32 26  1  0
  3 34  1  0
  4 35  1  0
  4 36  1  0
  8 37  1  0
  8 38  1  0
  9 39  1  0
  9 40  1  0
 10 41  1  0
 10 42  1  0
 11 43  1  1
 13 44  1  0
 14 45  1  0
 21 46  1  0
 22 47  1  0
 24 48  1  0
 25 49  1  0
 27 50  1  0
 30 51  1  0
 31 52  1  0
M  END
>  <smiles>  (35) 
O=C(NCC(=O)N1CCCC1c1ccc(OC(F)(F)F)cc1)c1ccc2cc(F)ccc2n1

>  <score_type>  (35) 
oracle

>  <origin>  (35) 
autodockgpu

>  <m_score__min__energy>  (35) 
-7.9100000000000001

>  <m_primary>  (35) 
energy

>  <rmsd>  (35) 
1.8938282504914175

>  <m_score__min__rmsd>  (35) 
1.8938282504914175

>  <meeko>  (35) 
{"free_energy": -7.8, "intermolecular_energy": -9.89, "internal_energy": -2.19, "cluster_size": 22, "cluster_id": 1, "rank_in_cluster": 4}

>  <energy>  (35) 
-7.5

>  <cluster_rmsd>  (35) 
1.02

>  <cluster>  (35) 
2

$$$$

     RDKit          3D

 52 55  0  0  0  0  0  0  0  0999 V2000
  140.3050   71.4620  220.9750 O   0  0  0  0  0  0  0  0  0  0  0  0
  140.0450   72.0450  222.0740 C   0  0  0  0  0  0  0  0  0  0  0  0
  139.7880   73.4480  222.1470 N   0  0  0  0  0  0  0  0  0  0  0  0
  139.8160   74.2490  220.9690 C   0  0  0  0  0  0  0  0  0  0  0  0
  140.7320   75.3960  221.1930 C   0  0  0  0  0  0  0  0  0  0  0  0
  140.8050   75.8950  222.3650 O   0  0  0  0  0  0  0  0  0  0  0  0
  141.5260   75.9420  220.1170 N   0  0  0  0  0  0  0  0  0  0  0  0
  140.9820   76.6010  218.9790 C   0  0  0  0  0  0  0  0  0  0  0  0
  142.0940   76.5630  217.9620 C   0  0  0  0  0  0  0  0  0  0  0  0
  143.3340   76.5960  218.8120 C   0  0  0  0  0  0  0  0  0  0  0  0
  142.9620   75.8920  220.0580 C   0  0  2  0  0  0  0  0  0  0  0  0
  143.3550   74.4440  220.0940 C   0  0  0  0  0  0  0  0  0  0  0  0
  142.6080   73.5580  219.3500 C   0  0  0  0  0  0  0  0  0  0  0  0
  142.9590   72.2180  219.3660 C   0  0  0  0  0  0  0  0  0  0  0  0
  144.0250   71.7300  220.0920 C   0  0  0  0  0  0  0  0  0  0  0  0
  144.3570   70.3610  220.0870 O   0  0  0  0  0  0  0  0  0  0  0  0
  145.1850   69.8780  219.0310 C   0  0  0  0  0  0  0  0  0  0  0  0
  146.2890   70.7250  218.9080 F   0  0  0  0  0  0  0  0  0  0  0  0
  144.5660   69.8960  217.8090 F   0  0  0  0  0  0  0  0  0  0  0  0
  145.6300   68.6120  219.3410 F   0  0  0  0  0  0  0  0  0  0  0  0
  144.7740   72.6400  220.8390 C   0  0  0  0  0  0  0  0  0  0  0  0
  144.4240   73.9820  220.8250 C   0  0  0  0  0  0  0  0  0  0  0  0
  140.0050   71.2580  223.3110 C   0  0  0  0  0  0  0  0  0  0  0  0
  139.5060   69.9670  223.2870 C   0  0  0  0  0  0  0  0  0  0  0  0
  139.4560   69.2000  224.4360 C   0  0  0  0  0  0  0  0  0  0  0  0
  139.9100   69.7130  225.6500 C   0  0  0  0  0  0  0  0  0  0  0  0
  139.8540   68.9330  226.7920 C   0  0  0  0  0  0  0  0  0  0  0  0
  140.3100   69.4610  227.9790 C   0  0  0  0  0  0  0  0  0  0  0  0
  140.2680   68.7180  229.1180 F   0  0  0  0  0  0  0  0  0  0  0  0
  140.7970   70.7500  227.9480 C   0  0  0  0  0  0  0  0  0  0  0  0
  140.8550   71.5230  226.8270 C   0  0  0  0  0  0  0  0  0  0  0  0
  140.3950   70.9900  225.6280 C   0  0  0  0  0  0  0  0  0  0  0  0
  140.4410   71.7410  224.4930 N   0  0  0  0  0  0  0  0  0  0  0  0
  139.5780   73.8600  223.1050 H   0  0  0  0  0  0  0  0  0  0  0  0
  140.1766   73.6477  220.1214 H   0  0  0  0  0  0  0  0  0  0  0  0
  138.8043   74.6168  220.7425 H   0  0  0  0  0  0  0  0  0  0  0  0
  140.0947   76.0679  218.6068 H   0  0  0  0  0  0  0  0  0  0  0  0
  140.6519   77.6259  219.2038 H   0  0  0  0  0  0  0  0  0  0  0  0
  142.0501   75.6414  217.3630 H   0  0  0  0  0  0  0  0  0  0  0  0
  142.0449   77.3882  217.2363 H   0  0  0  0  0  0  0  0  0  0  0  0
  144.1626   76.0775  218.3075 H   0  0  0  0  0  0  0  0  0  0  0  0
  143.6763   77.6236  219.0042 H   0  0  0  0  0  0  0  0  0  0  0  0
  143.4838   76.3802  220.8943 H   0  0  0  0  0  0  0  0  0  0  0  0
  141.7507   73.9070  218.7556 H   0  0  0  0  0  0  0  0  0  0  0  0
  142.3603   71.5112  218.7727 H   0  0  0  0  0  0  0  0  0  0  0  0
  145.6336   72.2964  221.4332 H   0  0  0  0  0  0  0  0  0  0  0  0
  145.0177   74.6960  221.4146 H   0  0  0  0  0  0  0  0  0  0  0  0
  139.1434   69.5446  222.3383 H   0  0  0  0  0  0  0  0  0  0  0  0
  139.0548   68.1767  224.3919 H   0  0  0  0  0  0  0  0  0  0  0  0
  139.4524   67.9097  226.7520 H   0  0  0  0  0  0  0  0  0  0  0  0
  141.1631   71.1835  228.8903 H   0  0  0  0  0  0  0  0  0  0  0  0
  141.2569   72.5461  226.8699 H   0  0  0  0  0  0  0  0  0  0  0  0
  1  2  2  0
  2  3  1  0
  3  4  1  0
  4  5  1  0
  5  6  2  0
  5  7  1  0
  7  8  1  0
  8  9  1  0
  9 10  1  0
 10 11  1  0
 11 12  1  0
 12 13  2  0
 13 14  1  0
 14 15  2  0
 15 16  1  0
 16 17  1  0
 17 18  1  0
 17 19  1  0
 17 20  1  0
 15 21  1  0
 21 22  2  0
  2 23  1  0
 23 24  2  0
 24 25  1  0
 25 26  2  0
 26 27  1  0
 27 28  2  0
 28 29  1  0
 28 30  1  0
 30 31  2  0
 31 32  1  0
 32 33  2  0
 11  7  1  0
 22 12  1  0
 33 23  1  0
 32 26  1  0
  3 34  1  0
  4 35  1  0
  4 36  1  0
  8 37  1  0
  8 38  1  0
  9 39  1  0
  9 40  1  0
 10 41  1  0
 10 42  1  0
 11 43  1  1
 13 44  1  0
 14 45  1  0
 21 46  1  0
 22 47  1  0
 24 48  1  0
 25 49  1  0
 27 50  1  0
 30 51  1  0
 31 52  1  0
M  END
>  <smiles>  (36) 
O=C(NCC(=O)N1CCCC1c1ccc(OC(F)(F)F)cc1)c1ccc2cc(F)ccc2n1

>  <score_type>  (36) 
oracle

>  <origin>  (36) 
autodockgpu

>  <m_score__min__energy>  (36) 
-7.9100000000000001

>  <m_primary>  (36) 
energy

>  <rmsd>  (36) 
1.802281400868221

>  <m_score__min__rmsd>  (36) 
1.802281400868221

>  <meeko>  (36) 
{"free_energy": -7.49, "intermolecular_energy": -9.57, "internal_energy": -2.22, "cluster_size": 22, "cluster_id": 1, "rank_in_cluster": 18}

>  <energy>  (36) 
-7.5

>  <cluster_rmsd>  (36) 
1.05

>  <cluster>  (36) 
2

$$$$

     RDKit          3D

 52 55  0  0  0  0  0  0  0  0999 V2000
  138.3030   70.6200  221.6330 O   0  0  0  0  0  0  0  0  0  0  0  0
  138.8420   71.2280  222.6090 C   0  0  0  0  0  0  0  0  0  0  0  0
  139.0990   72.6320  222.5800 N   0  0  0  0  0  0  0  0  0  0  0  0
  138.7530   73.4060  221.4340 C   0  0  0  0  0  0  0  0  0  0  0  0
  139.4570   74.7120  221.5090 C   0  0  0  0  0  0  0  0  0  0  0  0
  139.7730   75.1660  222.6590 O   0  0  0  0  0  0  0  0  0  0  0  0
  139.7790   75.4580  220.3160 N   0  0  0  0  0  0  0  0  0  0  0  0
  140.5350   74.9380  219.2280 C   0  0  0  0  0  0  0  0  0  0  0  0
  140.9990   76.1620  218.4810 C   0  0  0  0  0  0  0  0  0  0  0  0
  139.8950   77.1520  218.7290 C   0  0  0  0  0  0  0  0  0  0  0  0
  139.3770   76.8180  220.0730 C   0  0  2  0  0  0  0  0  0  0  0  0
  139.9490   77.6520  221.1820 C   0  0  0  0  0  0  0  0  0  0  0  0
  141.3050   77.8890  221.1720 C   0  0  0  0  0  0  0  0  0  0  0  0
  141.8510   78.6610  222.1850 C   0  0  0  0  0  0  0  0  0  0  0  0
  141.0970   79.2050  223.2040 C   0  0  0  0  0  0  0  0  0  0  0  0
  141.6820   79.9860  224.2200 O   0  0  0  0  0  0  0  0  0  0  0  0
  142.5680   81.0340  223.8290 C   0  0  0  0  0  0  0  0  0  0  0  0
  142.1180   81.5700  222.6200 F   0  0  0  0  0  0  0  0  0  0  0  0
  143.8450   80.6000  223.5920 F   0  0  0  0  0  0  0  0  0  0  0  0
  142.5520   82.0250  224.7860 F   0  0  0  0  0  0  0  0  0  0  0  0
  139.7240   78.9570  223.2000 C   0  0  0  0  0  0  0  0  0  0  0  0
  139.1760   78.1830  222.1870 C   0  0  0  0  0  0  0  0  0  0  0  0
  139.2140   70.4710  223.8100 C   0  0  0  0  0  0  0  0  0  0  0  0
  138.9540   69.1120  223.8710 C   0  0  0  0  0  0  0  0  0  0  0  0
  139.2930   68.3710  224.9880 C   0  0  0  0  0  0  0  0  0  0  0  0
  139.9080   68.9790  226.0810 C   0  0  0  0  0  0  0  0  0  0  0  0
  140.2430   68.2230  227.1920 C   0  0  0  0  0  0  0  0  0  0  0  0
  140.8510   68.8460  228.2580 C   0  0  0  0  0  0  0  0  0  0  0  0
  141.1910   68.1300  229.3630 F   0  0  0  0  0  0  0  0  0  0  0  0
  141.0880   70.1990  228.1450 C   0  0  0  0  0  0  0  0  0  0  0  0
  140.7610   70.9480  227.0540 C   0  0  0  0  0  0  0  0  0  0  0  0
  140.1470   70.3200  225.9770 C   0  0  0  0  0  0  0  0  0  0  0  0
  139.8100   71.0450  224.8740 N   0  0  0  0  0  0  0  0  0  0  0  0
  139.5540   73.0670  223.4380 H   0  0  0  0  0  0  0  0  0  0  0  0
  139.0587   72.8729  220.5216 H   0  0  0  0  0  0  0  0  0  0  0  0
  137.6654   73.5683  221.4067 H   0  0  0  0  0  0  0  0  0  0  0  0
  141.3935   74.3550  219.5929 H   0  0  0  0  0  0  0  0  0  0  0  0
  139.9481   74.2559  218.5953 H   0  0  0  0  0  0  0  0  0  0  0  0
  141.9558   76.5293  218.8805 H   0  0  0  0  0  0  0  0  0  0  0  0
  141.1789   75.9738  217.4122 H   0  0  0  0  0  0  0  0  0  0  0  0
  140.2859   78.1800  218.7097 H   0  0  0  0  0  0  0  0  0  0  0  0
  139.1113   77.0988  217.9589 H   0  0  0  0  0  0  0  0  0  0  0  0
  138.2911   76.9938  220.0743 H   0  0  0  0  0  0  0  0  0  0  0  0
  141.9417   77.4743  220.3766 H   0  0  0  0  0  0  0  0  0  0  0  0
  142.9349   78.8485  222.1761 H   0  0  0  0  0  0  0  0  0  0  0  0
  139.0824   79.3709  223.9919 H   0  0  0  0  0  0  0  0  0  0  0  0
  138.0932   77.9890  222.1882 H   0  0  0  0  0  0  0  0  0  0  0  0
  138.4703   68.6144  223.0175 H   0  0  0  0  0  0  0  0  0  0  0  0
  139.0756   67.2930  225.0142 H   0  0  0  0  0  0  0  0  0  0  0  0
  140.0272   67.1448  227.2219 H   0  0  0  0  0  0  0  0  0  0  0  0
  141.5730   70.7080  228.9910 H   0  0  0  0  0  0  0  0  0  0  0  0
  140.9784   72.0260  227.0267 H   0  0  0  0  0  0  0  0  0  0  0  0
  1  2  2  0
  2  3  1  0
  3  4  1  0
  4  5  1  0
  5  6  2  0
  5  7  1  0
  7  8  1  0
  8  9  1  0
  9 10  1  0
 10 11  1  0
 11 12  1  0
 12 13  2  0
 13 14  1  0
 14 15  2  0
 15 16  1  0
 16 17  1  0
 17 18  1  0
 17 19  1  0
 17 20  1  0
 15 21  1  0
 21 22  2  0
  2 23  1  0
 23 24  2  0
 24 25  1  0
 25 26  2  0
 26 27  1  0
 27 28  2  0
 28 29  1  0
 28 30  1  0
 30 31  2  0
 31 32  1  0
 32 33  2  0
 11  7  1  0
 22 12  1  0
 33 23  1  0
 32 26  1  0
  3 34  1  0
  4 35  1  0
  4 36  1  0
  8 37  1  0
  8 38  1  0
  9 39  1  0
  9 40  1  0
 10 41  1  0
 10 42  1  0
 11 43  1  6
 13 44  1  0
 14 45  1  0
 21 46  1  0
 22 47  1  0
 24 48  1  0
 25 49  1  0
 27 50  1  0
 30 51  1  0
 31 52  1  0
M  END
>  <smiles>  (37) 
O=C(NCC(=O)N1CCCC1c1ccc(OC(F)(F)F)cc1)c1ccc2cc(F)ccc2n1

>  <score_type>  (37) 
oracle

>  <origin>  (37) 
autodockgpu

>  <m_score__min__energy>  (37) 
-7.9100000000000001

>  <m_primary>  (37) 
energy

>  <rmsd>  (37) 
1.2473243920455384

>  <m_score__min__rmsd>  (37) 
1.2473243920455384

>  <meeko>  (37) 
{"free_energy": -7.59, "intermolecular_energy": -9.67, "internal_energy": -2.16, "cluster_size": 17, "cluster_id": 2, "rank_in_cluster": 10}

>  <energy>  (37) 
-7.35

>  <cluster_rmsd>  (37) 
1.07

>  <cluster>  (37) 
2

$$$$

     RDKit          3D

 52 55  0  0  0  0  0  0  0  0999 V2000
  140.3680   71.0800  220.8260 O   0  0  0  0  0  0  0  0  0  0  0  0
  140.3140   71.7690  221.8920 C   0  0  0  0  0  0  0  0  0  0  0  0
  140.4230   73.1920  221.8820 N   0  0  0  0  0  0  0  0  0  0  0  0
  140.6000   73.8940  220.6550 C   0  0  0  0  0  0  0  0  0  0  0  0
  141.0910   75.2630  220.9540 C   0  0  0  0  0  0  0  0  0  0  0  0
  141.0900   75.6580  222.1670 O   0  0  0  0  0  0  0  0  0  0  0  0
  141.5590   76.1370  219.9040 N   0  0  0  0  0  0  0  0  0  0  0  0
  140.7160   76.7270  218.9210 C   0  0  0  0  0  0  0  0  0  0  0  0
  141.6610   77.1350  217.8190 C   0  0  0  0  0  0  0  0  0  0  0  0
  142.9340   77.4400  218.5580 C   0  0  0  0  0  0  0  0  0  0  0  0
  142.9320   76.5240  219.7180 C   0  0  2  0  0  0  0  0  0  0  0  0
  143.7210   75.2640  219.5140 C   0  0  0  0  0  0  0  0  0  0  0  0
  144.5840   74.8780  220.5150 C   0  0  0  0  0  0  0  0  0  0  0  0
  145.3180   73.7150  220.3470 C   0  0  0  0  0  0  0  0  0  0  0  0
  145.2230   72.9240  219.2220 C   0  0  0  0  0  0  0  0  0  0  0  0
  145.9840   71.7460  219.0810 O   0  0  0  0  0  0  0  0  0  0  0  0
  145.2830   70.5110  218.9460 C   0  0  0  0  0  0  0  0  0  0  0  0
  146.2090   69.4660  218.9910 F   0  0  0  0  0  0  0  0  0  0  0  0
  144.6380   70.3850  217.7450 F   0  0  0  0  0  0  0  0  0  0  0  0
  144.4040   70.3690  219.9970 F   0  0  0  0  0  0  0  0  0  0  0  0
  144.3440   73.3270  218.2160 C   0  0  0  0  0  0  0  0  0  0  0  0
  143.6090   74.4910  218.3820 C   0  0  0  0  0  0  0  0  0  0  0  0
  140.1330   71.0870  223.1790 C   0  0  0  0  0  0  0  0  0  0  0  0
  139.4990   69.8560  223.2190 C   0  0  0  0  0  0  0  0  0  0  0  0
  139.3140   69.1880  224.4150 C   0  0  0  0  0  0  0  0  0  0  0  0
  139.7640   69.7430  225.6120 C   0  0  0  0  0  0  0  0  0  0  0  0
  139.5720   69.0620  226.8030 C   0  0  0  0  0  0  0  0  0  0  0  0
  140.0260   69.6290  227.9720 C   0  0  0  0  0  0  0  0  0  0  0  0
  139.8520   68.9840  229.1560 F   0  0  0  0  0  0  0  0  0  0  0  0
  140.6500   70.8540  227.8760 C   0  0  0  0  0  0  0  0  0  0  0  0
  140.8420   71.5300  226.7070 C   0  0  0  0  0  0  0  0  0  0  0  0
  140.3840   70.9570  225.5260 C   0  0  0  0  0  0  0  0  0  0  0  0
  140.5630   71.6110  224.3440 N   0  0  0  0  0  0  0  0  0  0  0  0
  140.3680   73.6960  222.8170 H   0  0  0  0  0  0  0  0  0  0  0  0
  141.3349   73.3660  220.0296 H   0  0  0  0  0  0  0  0  0  0  0  0
  139.6435   73.9495  220.1146 H   0  0  0  0  0  0  0  0  0  0  0  0
  139.9781   75.9992  218.5524 H   0  0  0  0  0  0  0  0  0  0  0  0
  140.1385   77.5757  219.3161 H   0  0  0  0  0  0  0  0  0  0  0  0
  141.8080   76.3148  217.1009 H   0  0  0  0  0  0  0  0  0  0  0  0
  141.2918   77.9838  217.2246 H   0  0  0  0  0  0  0  0  0  0  0  0
  143.8078   77.2505  217.9173 H   0  0  0  0  0  0  0  0  0  0  0  0
  142.9911   78.4948  218.8647 H   0  0  0  0  0  0  0  0  0  0  0  0
  143.3911   77.0494  220.5684 H   0  0  0  0  0  0  0  0  0  0  0  0
  144.6886   75.4806  221.4293 H   0  0  0  0  0  0  0  0  0  0  0  0
  146.0077   73.4090  221.1474 H   0  0  0  0  0  0  0  0  0  0  0  0
  144.2352   72.7272  217.3003 H   0  0  0  0  0  0  0  0  0  0  0  0
  142.9173   74.8048  217.5864 H   0  0  0  0  0  0  0  0  0  0  0  0
  139.1370   69.4029  222.2843 H   0  0  0  0  0  0  0  0  0  0  0  0
  138.8080   68.2113  224.4222 H   0  0  0  0  0  0  0  0  0  0  0  0
  139.0657   68.0855  226.8142 H   0  0  0  0  0  0  0  0  0  0  0  0
  141.0175   71.3173  228.8035 H   0  0  0  0  0  0  0  0  0  0  0  0
  141.3479   72.5067  226.6988 H   0  0  0  0  0  0  0  0  0  0  0  0
  1  2  2  0
  2  3  1  0
  3  4  1  0
  4  5  1  0
  5  6  2  0
  5  7  1  0
  7  8  1  0
  8  9  1  0
  9 10  1  0
 10 11  1  0
 11 12  1  0
 12 13  2  0
 13 14  1  0
 14 15  2  0
 15 16  1  0
 16 17  1  0
 17 18  1  0
 17 19  1  0
 17 20  1  0
 15 21  1  0
 21 22  2  0
  2 23  1  0
 23 24  2  0
 24 25  1  0
 25 26  2  0
 26 27  1  0
 27 28  2  0
 28 29  1  0
 28 30  1  0
 30 31  2  0
 31 32  1  0
 32 33  2  0
 11  7  1  0
 22 12  1  0
 33 23  1  0
 32 26  1  0
  3 34  1  0
  4 35  1  0
  4 36  1  0
  8 37  1  0
  8 38  1  0
  9 39  1  0
  9 40  1  0
 10 41  1  0
 10 42  1  0
 11 43  1  1
 13 44  1  0
 14 45  1  0
 21 46  1  0
 22 47  1  0
 24 48  1  0
 25 49  1  0
 27 50  1  0
 30 51  1  0
 31 52  1  0
M  END
>  <smiles>  (38) 
O=C(NCC(=O)N1CCCC1c1ccc(OC(F)(F)F)cc1)c1ccc2cc(F)ccc2n1

>  <score_type>  (38) 
oracle

>  <origin>  (38) 
autodockgpu

>  <m_score__min__energy>  (38) 
-7.9100000000000001

>  <m_primary>  (38) 
energy

>  <rmsd>  (38) 
1.82646142296842

>  <m_score__min__rmsd>  (38) 
1.82646142296842

>  <meeko>  (38) 
{"free_energy": -7.51, "intermolecular_energy": -9.6, "internal_energy": -2.33, "cluster_size": 22, "cluster_id": 1, "rank_in_cluster": 17}

>  <energy>  (38) 
-7.22

>  <cluster_rmsd>  (38) 
1.42

>  <cluster>  (38) 
2

$$$$

     RDKit          3D

 52 55  0  0  0  0  0  0  0  0999 V2000
  140.4050   71.3890  220.9710 O   0  0  0  0  0  0  0  0  0  0  0  0
  140.1050   71.9930  222.0480 C   0  0  0  0  0  0  0  0  0  0  0  0
  139.8560   73.3980  222.0860 N   0  0  0  0  0  0  0  0  0  0  0  0
  139.9390   74.1780  220.8960 C   0  0  0  0  0  0  0  0  0  0  0  0
  140.8140   75.3500  221.1540 C   0  0  0  0  0  0  0  0  0  0  0  0
  140.8920   75.8010  222.3450 O   0  0  0  0  0  0  0  0  0  0  0  0
  141.5630   75.9740  220.0880 N   0  0  0  0  0  0  0  0  0  0  0  0
  140.9700   76.6600  218.9910 C   0  0  0  0  0  0  0  0  0  0  0  0
  142.0620   76.7110  217.9520 C   0  0  0  0  0  0  0  0  0  0  0  0
  143.3170   76.7560  218.7790 C   0  0  0  0  0  0  0  0  0  0  0  0
  142.9980   75.9840  220.0000 C   0  0  2  0  0  0  0  0  0  0  0  0
  143.4480   74.5530  219.9620 C   0  0  0  0  0  0  0  0  0  0  0  0
  142.6870   73.6600  219.2410 C   0  0  0  0  0  0  0  0  0  0  0  0
  143.0890   72.3350  219.1910 C   0  0  0  0  0  0  0  0  0  0  0  0
  144.2190   71.8690  219.8300 C   0  0  0  0  0  0  0  0  0  0  0  0
  144.6020   70.5140  219.7590 O   0  0  0  0  0  0  0  0  0  0  0  0
  145.7250   70.1800  218.9470 C   0  0  0  0  0  0  0  0  0  0  0  0
  145.4960   68.9330  218.3600 F   0  0  0  0  0  0  0  0  0  0  0  0
  146.8870   70.0460  219.6610 F   0  0  0  0  0  0  0  0  0  0  0  0
  145.8640   71.1190  217.9490 F   0  0  0  0  0  0  0  0  0  0  0  0
  144.9810   72.7850  220.5550 C   0  0  0  0  0  0  0  0  0  0  0  0
  144.5790   74.1120  220.6080 C   0  0  0  0  0  0  0  0  0  0  0  0
  140.0080   71.2280  223.2960 C   0  0  0  0  0  0  0  0  0  0  0  0
  139.4700   69.9520  223.2790 C   0  0  0  0  0  0  0  0  0  0  0  0
  139.3660   69.2060  224.4380 C   0  0  0  0  0  0  0  0  0  0  0  0
  139.8040   69.7260  225.6550 C   0  0  0  0  0  0  0  0  0  0  0  0
  139.6940   68.9660  226.8080 C   0  0  0  0  0  0  0  0  0  0  0  0
  140.1340   69.5000  227.9980 C   0  0  0  0  0  0  0  0  0  0  0  0
  140.0390   68.7780  229.1460 F   0  0  0  0  0  0  0  0  0  0  0  0
  140.6620   70.7720  227.9600 C   0  0  0  0  0  0  0  0  0  0  0  0
  140.7730   71.5250  226.8280 C   0  0  0  0  0  0  0  0  0  0  0  0
  140.3280   70.9860  225.6260 C   0  0  0  0  0  0  0  0  0  0  0  0
  140.4280   71.7170  224.4810 N   0  0  0  0  0  0  0  0  0  0  0  0
  139.6110   73.8290  223.0270 H   0  0  0  0  0  0  0  0  0  0  0  0
  140.3646   73.5701  220.0840 H   0  0  0  0  0  0  0  0  0  0  0  0
  138.9355   74.5178  220.6002 H   0  0  0  0  0  0  0  0  0  0  0  0
  140.0967   76.1087  218.6123 H   0  0  0  0  0  0  0  0  0  0  0  0
  140.6047   77.6601  219.2675 H   0  0  0  0  0  0  0  0  0  0  0  0
  142.0417   75.8156  217.3134 H   0  0  0  0  0  0  0  0  0  0  0  0
  141.9659   77.5646  217.2649 H   0  0  0  0  0  0  0  0  0  0  0  0
  144.1545   76.2930  218.2365 H   0  0  0  0  0  0  0  0  0  0  0  0
  143.6233   77.7870  219.0099 H   0  0  0  0  0  0  0  0  0  0  0  0
  143.5164   76.4553  220.8480 H   0  0  0  0  0  0  0  0  0  0  0  0
  141.7791   73.9916  218.7158 H   0  0  0  0  0  0  0  0  0  0  0  0
  142.4795   71.6226  218.6157 H   0  0  0  0  0  0  0  0  0  0  0  0
  145.8913   72.4588  221.0794 H   0  0  0  0  0  0  0  0  0  0  0  0
  145.1815   74.8309  221.1825 H   0  0  0  0  0  0  0  0  0  0  0  0
  139.1197   69.5252  222.3276 H   0  0  0  0  0  0  0  0  0  0  0  0
  138.9346   68.1949  224.3998 H   0  0  0  0  0  0  0  0  0  0  0  0
  139.2630   67.9545  226.7732 H   0  0  0  0  0  0  0  0  0  0  0  0
  141.0175   71.2092  228.9048 H   0  0  0  0  0  0  0  0  0  0  0  0
  141.2049   72.5360  226.8652 H   0  0  0  0  0  0  0  0  0  0  0  0
  1  2  2  0
  2  3  1  0
  3  4  1  0
  4  5  1  0
  5  6  2  0
  5  7  1  0
  7  8  1  0
  8  9  1  0
  9 10  1  0
 10 11  1  0
 11 12  1  0
 12 13  2  0
 13 14  1  0
 14 15  2  0
 15 16  1  0
 16 17  1  0
 17 18  1  0
 17 19  1  0
 17 20  1  0
 15 21  1  0
 21 22  2  0
  2 23  1  0
 23 24  2  0
 24 25  1  0
 25 26  2  0
 26 27  1  0
 27 28  2  0
 28 29  1  0
 28 30  1  0
 30 31  2  0
 31 32  1  0
 32 33  2  0
 11  7  1  0
 22 12  1  0
 33 23  1  0
 32 26  1  0
  3 34  1  0
  4 35  1  0
  4 36  1  0
  8 37  1  0
  8 38  1  0
  9 39  1  0
  9 40  1  0
 10 41  1  0
 10 42  1  0
 11 43  1  1
 13 44  1  0
 14 45  1  0
 21 46  1  0
 22 47  1  0
 24 48  1  0
 25 49  1  0
 27 50  1  0
 30 51  1  0
 31 52  1  0
M  END
>  <smiles>  (39) 
O=C(NCC(=O)N1CCCC1c1ccc(OC(F)(F)F)cc1)c1ccc2cc(F)ccc2n1

>  <score_type>  (39) 
oracle

>  <origin>  (39) 
autodockgpu

>  <m_score__min__energy>  (39) 
-7.9100000000000001

>  <m_primary>  (39) 
energy

>  <rmsd>  (39) 
1.81602625157588

>  <m_score__min__rmsd>  (39) 
1.81602625157588

>  <meeko>  (39) 
{"free_energy": -7.48, "intermolecular_energy": -9.57, "internal_energy": -2.15, "cluster_size": 22, "cluster_id": 1, "rank_in_cluster": 19}

>  <energy>  (39) 
-7.14

>  <cluster_rmsd>  (39) 
1.81

>  <cluster>  (39) 
2

$$$$

     RDKit          3D

 52 55  0  0  0  0  0  0  0  0999 V2000
  140.8240   71.3170  221.3290 O   0  0  0  0  0  0  0  0  0  0  0  0
  140.3440   71.8650  222.3700 C   0  0  0  0  0  0  0  0  0  0  0  0
  139.9220   73.2290  222.3830 N   0  0  0  0  0  0  0  0  0  0  0  0
  140.0290   74.0290  221.2090 C   0  0  0  0  0  0  0  0  0  0  0  0
  140.0270   75.4610  221.6050 C   0  0  0  0  0  0  0  0  0  0  0  0
  139.5090   75.7800  222.7260 O   0  0  0  0  0  0  0  0  0  0  0  0
  140.5960   76.4750  220.7490 N   0  0  0  0  0  0  0  0  0  0  0  0
  141.9260   76.4410  220.2450 C   0  0  0  0  0  0  0  0  0  0  0  0
  142.2010   77.8640  219.8300 C   0  0  0  0  0  0  0  0  0  0  0  0
  140.8430   78.3700  219.4260 C   0  0  0  0  0  0  0  0  0  0  0  0
  139.8920   77.6450  220.2960 C   0  0  2  0  0  0  0  0  0  0  0  0
  139.4660   78.4050  221.5170 C   0  0  0  0  0  0  0  0  0  0  0  0
  140.4520   78.8780  222.3550 C   0  0  0  0  0  0  0  0  0  0  0  0
  140.0790   79.5870  223.4850 C   0  0  0  0  0  0  0  0  0  0  0  0
  138.7630   79.8420  223.8100 C   0  0  0  0  0  0  0  0  0  0  0  0
  138.4150   80.5670  224.9670 O   0  0  0  0  0  0  0  0  0  0  0  0
  137.2550   81.3940  224.9140 C   0  0  0  0  0  0  0  0  0  0  0  0
  137.2940   82.1410  223.7340 F   0  0  0  0  0  0  0  0  0  0  0  0
  137.1970   82.3100  225.9310 F   0  0  0  0  0  0  0  0  0  0  0  0
  136.1290   80.6010  224.8980 F   0  0  0  0  0  0  0  0  0  0  0  0
  137.7750   79.3580  222.9520 C   0  0  0  0  0  0  0  0  0  0  0  0
  138.1470   78.6480  221.8200 C   0  0  0  0  0  0  0  0  0  0  0  0
  140.2150   71.0770  223.6000 C   0  0  0  0  0  0  0  0  0  0  0  0
  139.5830   69.8460  223.5640 C   0  0  0  0  0  0  0  0  0  0  0  0
  139.4470   69.0790  224.7060 C   0  0  0  0  0  0  0  0  0  0  0  0
  139.9460   69.5330  225.9260 C   0  0  0  0  0  0  0  0  0  0  0  0
  139.8020   68.7540  227.0620 C   0  0  0  0  0  0  0  0  0  0  0  0
  140.3040   69.2220  228.2550 C   0  0  0  0  0  0  0  0  0  0  0  0
  140.1780   68.4800  229.3870 F   0  0  0  0  0  0  0  0  0  0  0  0
  140.9240   70.4530  228.2360 C   0  0  0  0  0  0  0  0  0  0  0  0
  141.0690   71.2250  227.1220 C   0  0  0  0  0  0  0  0  0  0  0  0
  140.5620   70.7520  225.9170 C   0  0  0  0  0  0  0  0  0  0  0  0
  140.6930   71.5030  224.7880 N   0  0  0  0  0  0  0  0  0  0  0  0
  139.5300   73.6140  223.2940 H   0  0  0  0  0  0  0  0  0  0  0  0
  140.9660   73.7917  220.6838 H   0  0  0  0  0  0  0  0  0  0  0  0
  139.1812   73.8249  220.5385 H   0  0  0  0  0  0  0  0  0  0  0  0
  142.6309   76.1192  221.0257 H   0  0  0  0  0  0  0  0  0  0  0  0
  142.0436   75.7297  219.4142 H   0  0  0  0  0  0  0  0  0  0  0  0
  142.6068   78.4486  220.6688 H   0  0  0  0  0  0  0  0  0  0  0  0
  142.9486   77.9435  219.0270 H   0  0  0  0  0  0  0  0  0  0  0  0
  140.7693   79.4549  219.5918 H   0  0  0  0  0  0  0  0  0  0  0  0
  140.6390   78.2008  218.3584 H   0  0  0  0  0  0  0  0  0  0  0  0
  138.9794   77.4474  219.7145 H   0  0  0  0  0  0  0  0  0  0  0  0
  141.5136   78.6964  222.1313 H   0  0  0  0  0  0  0  0  0  0  0  0
  140.8676   79.9635  224.1531 H   0  0  0  0  0  0  0  0  0  0  0  0
  136.7121   79.5376  223.1710 H   0  0  0  0  0  0  0  0  0  0  0  0
  137.3649   78.2687  221.1458 H   0  0  0  0  0  0  0  0  0  0  0  0
  139.1822   69.4717  222.6104 H   0  0  0  0  0  0  0  0  0  0  0  0
  138.9415   68.1035  224.6517 H   0  0  0  0  0  0  0  0  0  0  0  0
  139.2956   67.7788  227.0117 H   0  0  0  0  0  0  0  0  0  0  0  0
  141.3289   70.8382  229.1834 H   0  0  0  0  0  0  0  0  0  0  0  0
  141.5756   72.2000  227.1752 H   0  0  0  0  0  0  0  0  0  0  0  0
  1  2  2  0
  2  3  1  0
  3  4  1  0
  4  5  1  0
  5  6  2  0
  5  7  1  0
  7  8  1  0
  8  9  1  0
  9 10  1  0
 10 11  1  0
 11 12  1  0
 12 13  2  0
 13 14  1  0
 14 15  2  0
 15 16  1  0
 16 17  1  0
 17 18  1  0
 17 19  1  0
 17 20  1  0
 15 21  1  0
 21 22  2  0
  2 23  1  0
 23 24  2  0
 24 25  1  0
 25 26  2  0
 26 27  1  0
 27 28  2  0
 28 29  1  0
 28 30  1  0
 30 31  2  0
 31 32  1  0
 32 33  2  0
 11  7  1  0
 22 12  1  0
 33 23  1  0
 32 26  1  0
  3 34  1  0
  4 35  1  0
  4 36  1  0
  8 37  1  0
  8 38  1  0
  9 39  1  0
  9 40  1  0
 10 41  1  0
 10 42  1  0
 11 43  1  6
 13 44  1  0
 14 45  1  0
 21 46  1  0
 22 47  1  0
 24 48  1  0
 25 49  1  0
 27 50  1  0
 30 51  1  0
 31 52  1  0
M  END
>  <smiles>  (40) 
O=C(NCC(=O)N1CCCC1c1ccc(OC(F)(F)F)cc1)c1ccc2cc(F)ccc2n1

>  <score_type>  (40) 
oracle

>  <origin>  (40) 
autodockgpu

>  <m_score__min__energy>  (40) 
-7.9100000000000001

>  <m_primary>  (40) 
energy

>  <rmsd>  (40) 
2.0186518795101063

>  <m_score__min__rmsd>  (40) 
2.0186518795101063

>  <meeko>  (40) 
{"free_energy": -7.57, "intermolecular_energy": -9.66, "internal_energy": -1.94, "cluster_size": 4, "cluster_id": 3, "rank_in_cluster": 4}

>  <energy>  (40) 
-7.82

>  <cluster_rmsd>  (40) 
0.0

>  <cluster>  (40) 
3

$$$$

     RDKit          3D

 52 55  0  0  0  0  0  0  0  0999 V2000
  139.3210   70.9290  221.1430 O   0  0  0  0  0  0  0  0  0  0  0  0
  139.4470   71.5400  222.2490 C   0  0  0  0  0  0  0  0  0  0  0  0
  139.4830   72.9660  222.3290 N   0  0  0  0  0  0  0  0  0  0  0  0
  139.3770   73.7580  221.1490 C   0  0  0  0  0  0  0  0  0  0  0  0
  140.3980   74.8350  221.2040 C   0  0  0  0  0  0  0  0  0  0  0  0
  140.7160   75.3130  222.3430 O   0  0  0  0  0  0  0  0  0  0  0  0
  141.0210   75.3380  220.0020 N   0  0  0  0  0  0  0  0  0  0  0  0
  142.1250   74.7150  219.3540 C   0  0  0  0  0  0  0  0  0  0  0  0
  142.7000   75.7990  218.4790 C   0  0  0  0  0  0  0  0  0  0  0  0
  141.4970   76.6300  218.1310 C   0  0  0  0  0  0  0  0  0  0  0  0
  140.6070   76.5270  219.3070 C   0  0  2  0  0  0  0  0  0  0  0  0
  140.7250   77.6680  220.2750 C   0  0  0  0  0  0  0  0  0  0  0  0
  141.7680   78.5500  220.1030 C   0  0  0  0  0  0  0  0  0  0  0  0
  141.8910   79.6120  220.9830 C   0  0  0  0  0  0  0  0  0  0  0  0
  141.0130   79.8280  222.0260 C   0  0  0  0  0  0  0  0  0  0  0  0
  141.1650   80.9190  222.9040 O   0  0  0  0  0  0  0  0  0  0  0  0
  142.2460   80.8820  223.8350 C   0  0  0  0  0  0  0  0  0  0  0  0
  143.4470   80.8900  223.1220 F   0  0  0  0  0  0  0  0  0  0  0  0
  142.2690   79.7390  224.5890 F   0  0  0  0  0  0  0  0  0  0  0  0
  142.1980   82.0020  224.6350 F   0  0  0  0  0  0  0  0  0  0  0  0
  139.9610   78.9270  222.1870 C   0  0  0  0  0  0  0  0  0  0  0  0
  139.8370   77.8620  221.3070 C   0  0  0  0  0  0  0  0  0  0  0  0
  139.5590   70.7640  223.4890 C   0  0  0  0  0  0  0  0  0  0  0  0
  139.1230   69.4500  223.5170 C   0  0  0  0  0  0  0  0  0  0  0  0
  139.2160   68.6920  224.6690 C   0  0  0  0  0  0  0  0  0  0  0  0
  139.7540   69.2380  225.8340 C   0  0  0  0  0  0  0  0  0  0  0  0
  139.8410   68.4660  226.9810 C   0  0  0  0  0  0  0  0  0  0  0  0
  140.3770   69.0270  228.1180 C   0  0  0  0  0  0  0  0  0  0  0  0
  140.4760   68.2940  229.2590 F   0  0  0  0  0  0  0  0  0  0  0  0
  140.7970   70.3370  228.0360 C   0  0  0  0  0  0  0  0  0  0  0  0
  140.7140   71.1020  226.9100 C   0  0  0  0  0  0  0  0  0  0  0  0
  140.1720   70.5370  225.7610 C   0  0  0  0  0  0  0  0  0  0  0  0
  140.0780   71.2790  224.6230 N   0  0  0  0  0  0  0  0  0  0  0  0
  139.5920   73.4020  223.2940 H   0  0  0  0  0  0  0  0  0  0  0  0
  139.5507   73.1283  220.2639 H   0  0  0  0  0  0  0  0  0  0  0  0
  138.3713   74.1986  221.0829 H   0  0  0  0  0  0  0  0  0  0  0  0
  142.8673   74.3732  220.0903 H   0  0  0  0  0  0  0  0  0  0  0  0
  141.8291   73.8238  218.7811 H   0  0  0  0  0  0  0  0  0  0  0  0
  143.4460   76.3940  219.0262 H   0  0  0  0  0  0  0  0  0  0  0  0
  143.2258   75.4081  217.5954 H   0  0  0  0  0  0  0  0  0  0  0  0
  141.7875   77.6765  217.9565 H   0  0  0  0  0  0  0  0  0  0  0  0
  141.0066   76.2813  217.2102 H   0  0  0  0  0  0  0  0  0  0  0  0
  139.5667   76.5237  218.9496 H   0  0  0  0  0  0  0  0  0  0  0  0
  142.4888   78.4139  219.2833 H   0  0  0  0  0  0  0  0  0  0  0  0
  142.7257   80.3149  220.8447 H   0  0  0  0  0  0  0  0  0  0  0  0
  139.2364   79.0595  223.0040 H   0  0  0  0  0  0  0  0  0  0  0  0
  139.0059   77.1534  221.4382 H   0  0  0  0  0  0  0  0  0  0  0  0
  138.6957   69.0022  222.6077 H   0  0  0  0  0  0  0  0  0  0  0  0
  138.8630   67.6502  224.6669 H   0  0  0  0  0  0  0  0  0  0  0  0
  139.4883   67.4241  226.9831 H   0  0  0  0  0  0  0  0  0  0  0  0
  141.2276   70.7959  228.9382 H   0  0  0  0  0  0  0  0  0  0  0  0
  141.0682   72.1434  226.9108 H   0  0  0  0  0  0  0  0  0  0  0  0
  1  2  2  0
  2  3  1  0
  3  4  1  0
  4  5  1  0
  5  6  2  0
  5  7  1  0
  7  8  1  0
  8  9  1  0
  9 10  1  0
 10 11  1  0
 11 12  1  0
 12 13  2  0
 13 14  1  0
 14 15  2  0
 15 16  1  0
 16 17  1  0
 17 18  1  0
 17 19  1  0
 17 20  1  0
 15 21  1  0
 21 22  2  0
  2 23  1  0
 23 24  2  0
 24 25  1  0
 25 26  2  0
 26 27  1  0
 27 28  2  0
 28 29  1  0
 28 30  1  0
 30 31  2  0
 31 32  1  0
 32 33  2  0
 11  7  1  0
 22 12  1  0
 33 23  1  0
 32 26  1  0
  3 34  1  0
  4 35  1  0
  4 36  1  0
  8 37  1  0
  8 38  1  0
  9 39  1  0
  9 40  1  0
 10 41  1  0
 10 42  1  0
 11 43  1  6
 13 44  1  0
 14 45  1  0
 21 46  1  0
 22 47  1  0
 24 48  1  0
 25 49  1  0
 27 50  1  0
 30 51  1  0
 31 52  1  0
M  END
>  <smiles>  (41) 
O=C(NCC(=O)N1CCCC1c1ccc(OC(F)(F)F)cc1)c1ccc2cc(F)ccc2n1

>  <score_type>  (41) 
oracle

>  <origin>  (41) 
autodockgpu

>  <m_score__min__energy>  (41) 
-7.9100000000000001

>  <m_primary>  (41) 
energy

>  <rmsd>  (41) 
1.528262618845801

>  <m_score__min__rmsd>  (41) 
1.528262618845801

>  <meeko>  (41) 
{"free_energy": -7.5, "intermolecular_energy": -9.58, "internal_energy": -1.87, "cluster_size": 17, "cluster_id": 2, "rank_in_cluster": 14}

>  <energy>  (41) 
-7.67

>  <cluster_rmsd>  (41) 
0.78

>  <cluster>  (41) 
3

$$$$

     RDKit          3D

 52 55  0  0  0  0  0  0  0  0999 V2000
  139.0320   70.7170  221.2070 O   0  0  0  0  0  0  0  0  0  0  0  0
  139.2890   71.3430  222.2820 C   0  0  0  0  0  0  0  0  0  0  0  0
  139.4170   72.7650  222.3200 N   0  0  0  0  0  0  0  0  0  0  0  0
  139.2580   73.5360  221.1320 C   0  0  0  0  0  0  0  0  0  0  0  0
  140.1580   74.7160  221.2050 C   0  0  0  0  0  0  0  0  0  0  0  0
  140.6460   75.0390  222.3390 O   0  0  0  0  0  0  0  0  0  0  0  0
  140.4790   75.4870  220.0270 N   0  0  0  0  0  0  0  0  0  0  0  0
  141.2960   75.0150  218.9620 C   0  0  0  0  0  0  0  0  0  0  0  0
  141.7180   76.2680  218.2370 C   0  0  0  0  0  0  0  0  0  0  0  0
  140.5550   77.1960  218.4540 C   0  0  0  0  0  0  0  0  0  0  0  0
  140.0130   76.8250  219.7780 C   0  0  2  0  0  0  0  0  0  0  0  0
  140.5030   77.6800  220.9100 C   0  0  0  0  0  0  0  0  0  0  0  0
  139.6310   77.9340  221.9460 C   0  0  0  0  0  0  0  0  0  0  0  0
  140.0670   78.7180  223.0020 C   0  0  0  0  0  0  0  0  0  0  0  0
  141.3350   79.2550  223.0650 C   0  0  0  0  0  0  0  0  0  0  0  0
  141.7480   80.0480  224.1530 O   0  0  0  0  0  0  0  0  0  0  0  0
  142.5830   81.1730  223.8820 C   0  0  0  0  0  0  0  0  0  0  0  0
  142.0830   81.8390  222.7600 F   0  0  0  0  0  0  0  0  0  0  0  0
  143.8690   80.8250  223.5640 F   0  0  0  0  0  0  0  0  0  0  0  0
  142.5550   82.0330  224.9570 F   0  0  0  0  0  0  0  0  0  0  0  0
  142.2070   78.9890  222.0090 C   0  0  0  0  0  0  0  0  0  0  0  0
  141.7730   78.2050  220.9500 C   0  0  0  0  0  0  0  0  0  0  0  0
  139.4590   70.5890  223.5290 C   0  0  0  0  0  0  0  0  0  0  0  0
  139.0350   69.2730  223.5970 C   0  0  0  0  0  0  0  0  0  0  0  0
  139.1820   68.5350  224.7570 C   0  0  0  0  0  0  0  0  0  0  0  0
  139.7650   69.1050  225.8880 C   0  0  0  0  0  0  0  0  0  0  0  0
  139.9060   68.3530  227.0430 C   0  0  0  0  0  0  0  0  0  0  0  0
  140.4860   68.9360  228.1470 C   0  0  0  0  0  0  0  0  0  0  0  0
  140.6380   68.2240  229.2940 F   0  0  0  0  0  0  0  0  0  0  0  0
  140.8910   70.2480  228.0250 C   0  0  0  0  0  0  0  0  0  0  0  0
  140.7550   70.9930  226.8910 C   0  0  0  0  0  0  0  0  0  0  0  0
  140.1700   70.4040  225.7760 C   0  0  0  0  0  0  0  0  0  0  0  0
  140.0210   71.1260  224.6310 N   0  0  0  0  0  0  0  0  0  0  0  0
  139.6330   73.2150  223.2600 H   0  0  0  0  0  0  0  0  0  0  0  0
  139.5201   72.9244  220.2561 H   0  0  0  0  0  0  0  0  0  0  0  0
  138.2133   73.8671  221.0375 H   0  0  0  0  0  0  0  0  0  0  0  0
  142.1720   74.4758  219.3517 H   0  0  0  0  0  0  0  0  0  0  0  0
  140.7673   74.3068  218.3071 H   0  0  0  0  0  0  0  0  0  0  0  0
  142.6403   76.6829  218.6697 H   0  0  0  0  0  0  0  0  0  0  0  0
  141.9424   76.0974  217.1737 H   0  0  0  0  0  0  0  0  0  0  0  0
  140.8906   78.2436  218.4531 H   0  0  0  0  0  0  0  0  0  0  0  0
  139.8006   77.1068  217.6584 H   0  0  0  0  0  0  0  0  0  0  0  0
  138.9198   76.9426  219.7441 H   0  0  0  0  0  0  0  0  0  0  0  0
  138.6106   77.5232  221.9350 H   0  0  0  0  0  0  0  0  0  0  0  0
  139.3694   78.9212  223.8278 H   0  0  0  0  0  0  0  0  0  0  0  0
  143.2286   79.3969  222.0160 H   0  0  0  0  0  0  0  0  0  0  0  0
  142.4639   77.9977  220.1195 H   0  0  0  0  0  0  0  0  0  0  0  0
  138.5737   68.8068  222.7139 H   0  0  0  0  0  0  0  0  0  0  0  0
  138.8366   67.4911  224.7877 H   0  0  0  0  0  0  0  0  0  0  0  0
  139.5608   67.3091  227.0773 H   0  0  0  0  0  0  0  0  0  0  0  0
  141.3547   70.7257  228.9006 H   0  0  0  0  0  0  0  0  0  0  0  0
  141.1005   72.0368  226.8593 H   0  0  0  0  0  0  0  0  0  0  0  0
  1  2  2  0
  2  3  1  0
  3  4  1  0
  4  5  1  0
  5  6  2  0
  5  7  1  0
  7  8  1  0
  8  9  1  0
  9 10  1  0
 10 11  1  0
 11 12  1  0
 12 13  2  0
 13 14  1  0
 14 15  2  0
 15 16  1  0
 16 17  1  0
 17 18  1  0
 17 19  1  0
 17 20  1  0
 15 21  1  0
 21 22  2  0
  2 23  1  0
 23 24  2  0
 24 25  1  0
 25 26  2  0
 26 27  1  0
 27 28  2  0
 28 29  1  0
 28 30  1  0
 30 31  2  0
 31 32  1  0
 32 33  2  0
 11  7  1  0
 22 12  1  0
 33 23  1  0
 32 26  1  0
  3 34  1  0
  4 35  1  0
  4 36  1  0
  8 37  1  0
  8 38  1  0
  9 39  1  0
  9 40  1  0
 10 41  1  0
 10 42  1  0
 11 43  1  6
 13 44  1  0
 14 45  1  0
 21 46  1  0
 22 47  1  0
 24 48  1  0
 25 49  1  0
 27 50  1  0
 30 51  1  0
 31 52  1  0
M  END
>  <smiles>  (42) 
O=C(NCC(=O)N1CCCC1c1ccc(OC(F)(F)F)cc1)c1ccc2cc(F)ccc2n1

>  <score_type>  (42) 
oracle

>  <origin>  (42) 
autodockgpu

>  <m_score__min__energy>  (42) 
-7.9100000000000001

>  <m_primary>  (42) 
energy

>  <rmsd>  (42) 
1.244904301387512

>  <m_score__min__rmsd>  (42) 
1.244904301387512

>  <meeko>  (42) 
{"free_energy": -7.75, "intermolecular_energy": -9.84, "internal_energy": -2.12, "cluster_size": 17, "cluster_id": 2, "rank_in_cluster": 2}

>  <energy>  (42) 
-7.63

>  <cluster_rmsd>  (42) 
0.44

>  <cluster>  (42) 
3

$$$$

     RDKit          3D

 52 55  0  0  0  0  0  0  0  0999 V2000
  137.4700   70.3950  222.2900 O   0  0  0  0  0  0  0  0  0  0  0  0
  138.3440   70.9220  223.0480 C   0  0  0  0  0  0  0  0  0  0  0  0
  138.8230   72.2510  222.8450 N   0  0  0  0  0  0  0  0  0  0  0  0
  138.3270   73.0410  221.7670 C   0  0  0  0  0  0  0  0  0  0  0  0
  138.8530   74.4230  221.9060 C   0  0  0  0  0  0  0  0  0  0  0  0
  140.0410   74.5790  222.3450 O   0  0  0  0  0  0  0  0  0  0  0  0
  138.0480   75.5690  221.5570 N   0  0  0  0  0  0  0  0  0  0  0  0
  138.5670   76.8800  221.3610 C   0  0  0  0  0  0  0  0  0  0  0  0
  137.3620   77.7780  221.4870 C   0  0  0  0  0  0  0  0  0  0  0  0
  136.2380   76.9120  220.9880 C   0  0  0  0  0  0  0  0  0  0  0  0
  136.6230   75.5340  221.3610 C   0  0  2  0  0  0  0  0  0  0  0  0
  136.0130   75.0450  222.6420 C   0  0  0  0  0  0  0  0  0  0  0  0
  135.3480   73.8400  222.6170 C   0  0  0  0  0  0  0  0  0  0  0  0
  134.7830   73.3690  223.7910 C   0  0  0  0  0  0  0  0  0  0  0  0
  134.8560   74.0540  224.9860 C   0  0  0  0  0  0  0  0  0  0  0  0
  134.2700   73.5480  226.1640 O   0  0  0  0  0  0  0  0  0  0  0  0
  132.9620   74.0020  226.5060 C   0  0  0  0  0  0  0  0  0  0  0  0
  132.4940   73.2420  227.5810 F   0  0  0  0  0  0  0  0  0  0  0  0
  132.0490   73.8240  225.5010 F   0  0  0  0  0  0  0  0  0  0  0  0
  133.0230   75.3230  226.8920 F   0  0  0  0  0  0  0  0  0  0  0  0
  135.5340   75.2730  224.9970 C   0  0  0  0  0  0  0  0  0  0  0  0
  136.1000   75.7460  223.8220 C   0  0  0  0  0  0  0  0  0  0  0  0
  138.8810   70.1450  224.1700 C   0  0  0  0  0  0  0  0  0  0  0  0
  138.7630   68.7650  224.1690 C   0  0  0  0  0  0  0  0  0  0  0  0
  139.2600   68.0050  225.2110 C   0  0  0  0  0  0  0  0  0  0  0  0
  139.8950   68.6160  226.2910 C   0  0  0  0  0  0  0  0  0  0  0  0
  140.3880   67.8410  227.3280 C   0  0  0  0  0  0  0  0  0  0  0  0
  141.0120   68.4660  228.3840 C   0  0  0  0  0  0  0  0  0  0  0  0
  141.5070   67.7320  229.4160 F   0  0  0  0  0  0  0  0  0  0  0  0
  141.1040   69.8410  228.3360 C   0  0  0  0  0  0  0  0  0  0  0  0
  140.6210   70.6090  227.3180 C   0  0  0  0  0  0  0  0  0  0  0  0
  139.9900   69.9780  226.2520 C   0  0  0  0  0  0  0  0  0  0  0  0
  139.4980   70.7210  225.2220 N   0  0  0  0  0  0  0  0  0  0  0  0
  139.5550   72.6190  223.5230 H   0  0  0  0  0  0  0  0  0  0  0  0
  138.6608   72.6127  220.8104 H   0  0  0  0  0  0  0  0  0  0  0  0
  137.2273   73.0553  221.7887 H   0  0  0  0  0  0  0  0  0  0  0  0
  139.3159   77.1220  222.1295 H   0  0  0  0  0  0  0  0  0  0  0  0
  139.0756   76.9911  220.3920 H   0  0  0  0  0  0  0  0  0  0  0  0
  137.1978   78.0740  222.5336 H   0  0  0  0  0  0  0  0  0  0  0  0
  137.4638   78.7195  220.9274 H   0  0  0  0  0  0  0  0  0  0  0  0
  135.2901   77.1927  221.4703 H   0  0  0  0  0  0  0  0  0  0  0  0
  136.0833   77.0191  219.9042 H   0  0  0  0  0  0  0  0  0  0  0  0
  136.2751   74.8560  220.5678 H   0  0  0  0  0  0  0  0  0  0  0  0
  135.2669   73.2629  221.6841 H   0  0  0  0  0  0  0  0  0  0  0  0
  134.2524   72.4057  223.7692 H   0  0  0  0  0  0  0  0  0  0  0  0
  135.6190   75.8532  225.9276 H   0  0  0  0  0  0  0  0  0  0  0  0
  136.6330   76.7082  223.8345 H   0  0  0  0  0  0  0  0  0  0  0  0
  138.2654   68.2654  223.3247 H   0  0  0  0  0  0  0  0  0  0  0  0
  139.1537   66.9104  225.1878 H   0  0  0  0  0  0  0  0  0  0  0  0
  140.2828   66.7462  227.3080 H   0  0  0  0  0  0  0  0  0  0  0  0
  141.5998   70.3522  229.1744 H   0  0  0  0  0  0  0  0  0  0  0  0
  140.7283   71.7035  227.3398 H   0  0  0  0  0  0  0  0  0  0  0  0
  1  2  2  0
  2  3  1  0
  3  4  1  0
  4  5  1  0
  5  6  2  0
  5  7  1  0
  7  8  1  0
  8  9  1  0
  9 10  1  0
 10 11  1  0
 11 12  1  0
 12 13  2  0
 13 14  1  0
 14 15  2  0
 15 16  1  0
 16 17  1  0
 17 18  1  0
 17 19  1  0
 17 20  1  0
 15 21  1  0
 21 22  2  0
  2 23  1  0
 23 24  2  0
 24 25  1  0
 25 26  2  0
 26 27  1  0
 27 28  2  0
 28 29  1  0
 28 30  1  0
 30 31  2  0
 31 32  1  0
 32 33  2  0
 11  7  1  0
 22 12  1  0
 33 23  1  0
 32 26  1  0
  3 34  1  0
  4 35  1  0
  4 36  1  0
  8 37  1  0
  8 38  1  0
  9 39  1  0
  9 40  1  0
 10 41  1  0
 10 42  1  0
 11 43  1  6
 13 44  1  0
 14 45  1  0
 21 46  1  0
 22 47  1  0
 24 48  1  0
 25 49  1  0
 27 50  1  0
 30 51  1  0
 31 52  1  0
M  END
>  <smiles>  (43) 
O=C(NCC(=O)N1CCCC1c1ccc(OC(F)(F)F)cc1)c1ccc2cc(F)ccc2n1

>  <score_type>  (43) 
oracle

>  <origin>  (43) 
autodockgpu

>  <m_score__min__energy>  (43) 
-7.9100000000000001

>  <m_primary>  (43) 
energy

>  <rmsd>  (43) 
2.9871411816816433

>  <m_score__min__rmsd>  (43) 
2.9871411816816433

>  <meeko>  (43) 
{"free_energy": -7.22, "intermolecular_energy": -9.3, "internal_energy": -2.26, "cluster_size": 2, "cluster_id": 6, "rank_in_cluster": 2}

>  <energy>  (43) 
-7.57

>  <cluster_rmsd>  (43) 
0.79

>  <cluster>  (43) 
3

$$$$

     RDKit          3D

 52 55  0  0  0  0  0  0  0  0999 V2000
  138.3510   70.7260  221.2230 O   0  0  0  0  0  0  0  0  0  0  0  0
  138.6970   71.4520  222.2060 C   0  0  0  0  0  0  0  0  0  0  0  0
  138.6460   72.8780  222.1510 N   0  0  0  0  0  0  0  0  0  0  0  0
  138.1990   73.5400  220.9710 C   0  0  0  0  0  0  0  0  0  0  0  0
  139.1330   74.6540  220.6650 C   0  0  0  0  0  0  0  0  0  0  0  0
  138.6650   75.8390  220.6070 O   0  0  0  0  0  0  0  0  0  0  0  0
  140.5380   74.4120  220.4360 N   0  0  0  0  0  0  0  0  0  0  0  0
  141.1830   73.1670  220.6750 C   0  0  0  0  0  0  0  0  0  0  0  0
  142.6480   73.5170  220.7500 C   0  0  0  0  0  0  0  0  0  0  0  0
  142.7630   74.7010  219.8300 C   0  0  0  0  0  0  0  0  0  0  0  0
  141.4610   75.3950  219.9360 C   0  0  2  0  0  0  0  0  0  0  0  0
  141.4490   76.5440  220.9010 C   0  0  0  0  0  0  0  0  0  0  0  0
  141.8040   77.7860  220.4240 C   0  0  0  0  0  0  0  0  0  0  0  0
  141.7940   78.8600  221.2990 C   0  0  0  0  0  0  0  0  0  0  0  0
  141.4430   78.7430  222.6280 C   0  0  0  0  0  0  0  0  0  0  0  0
  141.4420   79.8550  223.4920 O   0  0  0  0  0  0  0  0  0  0  0  0
  142.4880   80.8150  223.3460 C   0  0  0  0  0  0  0  0  0  0  0  0
  142.2060   81.6150  222.2360 F   0  0  0  0  0  0  0  0  0  0  0  0
  143.7090   80.2480  223.0950 F   0  0  0  0  0  0  0  0  0  0  0  0
  142.5340   81.6140  224.4670 F   0  0  0  0  0  0  0  0  0  0  0  0
  141.0840   77.4790  223.0960 C   0  0  0  0  0  0  0  0  0  0  0  0
  141.0940   76.4010  222.2220 C   0  0  0  0  0  0  0  0  0  0  0  0
  139.1620   70.8130  223.4420 C   0  0  0  0  0  0  0  0  0  0  0  0
  139.0360   69.4420  223.5950 C   0  0  0  0  0  0  0  0  0  0  0  0
  139.4650   68.8100  224.7470 C   0  0  0  0  0  0  0  0  0  0  0  0
  140.0400   69.5440  225.7840 C   0  0  0  0  0  0  0  0  0  0  0  0
  140.4660   68.8970  226.9320 C   0  0  0  0  0  0  0  0  0  0  0  0
  141.0310   69.6420  227.9420 C   0  0  0  0  0  0  0  0  0  0  0  0
  141.4600   69.0350  229.0800 F   0  0  0  0  0  0  0  0  0  0  0  0
  141.1350   71.0020  227.7380 C   0  0  0  0  0  0  0  0  0  0  0  0
  140.7170   71.6440  226.6110 C   0  0  0  0  0  0  0  0  0  0  0  0
  140.1460   70.8920  225.5910 C   0  0  0  0  0  0  0  0  0  0  0  0
  139.7200   71.5090  224.4530 N   0  0  0  0  0  0  0  0  0  0  0  0
  138.9530   73.4150  223.0170 H   0  0  0  0  0  0  0  0  0  0  0  0
  138.1834   72.8293  220.1316 H   0  0  0  0  0  0  0  0  0  0  0  0
  137.1839   73.9346  221.1252 H   0  0  0  0  0  0  0  0  0  0  0  0
  140.8387   72.7247  221.6215 H   0  0  0  0  0  0  0  0  0  0  0  0
  140.9671   72.4240  219.8932 H   0  0  0  0  0  0  0  0  0  0  0  0
  142.9380   73.7850  221.7767 H   0  0  0  0  0  0  0  0  0  0  0  0
  143.3070   72.6832  220.4663 H   0  0  0  0  0  0  0  0  0  0  0  0
  143.5811   75.3624  220.1513 H   0  0  0  0  0  0  0  0  0  0  0  0
  142.9887   74.4009  218.7961 H   0  0  0  0  0  0  0  0  0  0  0  0
  141.2134   75.8109  218.9482 H   0  0  0  0  0  0  0  0  0  0  0  0
  142.0895   77.9225  219.3705 H   0  0  0  0  0  0  0  0  0  0  0  0
  142.0789   79.8513  220.9166 H   0  0  0  0  0  0  0  0  0  0  0  0
  140.7956   77.3379  224.1481 H   0  0  0  0  0  0  0  0  0  0  0  0
  140.8105   75.4060  222.5957 H   0  0  0  0  0  0  0  0  0  0  0  0
  138.5871   68.8465  222.7864 H   0  0  0  0  0  0  0  0  0  0  0  0
  139.3521   67.7203  224.8465 H   0  0  0  0  0  0  0  0  0  0  0  0
  140.3548   67.8075  227.0348 H   0  0  0  0  0  0  0  0  0  0  0  0
  141.5850   71.6085  228.5378 H   0  0  0  0  0  0  0  0  0  0  0  0
  140.8290   72.7337  226.5107 H   0  0  0  0  0  0  0  0  0  0  0  0
  1  2  2  0
  2  3  1  0
  3  4  1  0
  4  5  1  0
  5  6  2  0
  5  7  1  0
  7  8  1  0
  8  9  1  0
  9 10  1  0
 10 11  1  0
 11 12  1  0
 12 13  2  0
 13 14  1  0
 14 15  2  0
 15 16  1  0
 16 17  1  0
 17 18  1  0
 17 19  1  0
 17 20  1  0
 15 21  1  0
 21 22  2  0
  2 23  1  0
 23 24  2  0
 24 25  1  0
 25 26  2  0
 26 27  1  0
 27 28  2  0
 28 29  1  0
 28 30  1  0
 30 31  2  0
 31 32  1  0
 32 33  2  0
 11  7  1  0
 22 12  1  0
 33 23  1  0
 32 26  1  0
  3 34  1  0
  4 35  1  0
  4 36  1  0
  8 37  1  0
  8 38  1  0
  9 39  1  0
  9 40  1  0
 10 41  1  0
 10 42  1  0
 11 43  1  6
 13 44  1  0
 14 45  1  0
 21 46  1  0
 22 47  1  0
 24 48  1  0
 25 49  1  0
 27 50  1  0
 30 51  1  0
 31 52  1  0
M  END
>  <smiles>  (44) 
O=C(NCC(=O)N1CCCC1c1ccc(OC(F)(F)F)cc1)c1ccc2cc(F)ccc2n1

>  <score_type>  (44) 
oracle

>  <origin>  (44) 
autodockgpu

>  <m_score__min__energy>  (44) 
-7.9100000000000001

>  <m_primary>  (44) 
energy

>  <rmsd>  (44) 
2.130148888781648

>  <m_score__min__rmsd>  (44) 
2.130148888781648

>  <meeko>  (44) 
{"free_energy": -7.61, "intermolecular_energy": -9.7, "internal_energy": -1.74, "cluster_size": 17, "cluster_id": 2, "rank_in_cluster": 9}

>  <energy>  (44) 
-7.64

>  <cluster_rmsd>  (44) 
0.0

>  <cluster>  (44) 
4

$$$$

     RDKit          3D

 52 55  0  0  0  0  0  0  0  0999 V2000
  138.3000   70.6220  221.6610 O   0  0  0  0  0  0  0  0  0  0  0  0
  138.8620   71.2130  222.6360 C   0  0  0  0  0  0  0  0  0  0  0  0
  139.1650   72.6080  222.6050 N   0  0  0  0  0  0  0  0  0  0  0  0
  138.8390   73.3930  221.4610 C   0  0  0  0  0  0  0  0  0  0  0  0
  139.7970   74.5240  221.3700 C   0  0  0  0  0  0  0  0  0  0  0  0
  140.6060   74.7140  222.3380 O   0  0  0  0  0  0  0  0  0  0  0  0
  139.8190   75.3960  220.2200 N   0  0  0  0  0  0  0  0  0  0  0  0
  140.4390   75.0690  218.9820 C   0  0  0  0  0  0  0  0  0  0  0  0
  140.6160   76.3980  218.2930 C   0  0  0  0  0  0  0  0  0  0  0  0
  139.4550   77.2050  218.8060 C   0  0  0  0  0  0  0  0  0  0  0  0
  139.2170   76.7020  220.1760 C   0  0  2  0  0  0  0  0  0  0  0  0
  139.8590   77.5210  221.2570 C   0  0  0  0  0  0  0  0  0  0  0  0
  141.1990   77.8100  221.1320 C   0  0  0  0  0  0  0  0  0  0  0  0
  141.8090   78.5690  222.1170 C   0  0  0  0  0  0  0  0  0  0  0  0
  141.1340   79.0500  223.2200 C   0  0  0  0  0  0  0  0  0  0  0  0
  141.7830   79.8200  224.2050 O   0  0  0  0  0  0  0  0  0  0  0  0
  142.5690   80.9300  223.7750 C   0  0  0  0  0  0  0  0  0  0  0  0
  142.5450   81.9060  224.7740 F   0  0  0  0  0  0  0  0  0  0  0  0
  142.0750   81.5370  222.6510 F   0  0  0  0  0  0  0  0  0  0  0  0
  143.8710   80.5220  223.5860 F   0  0  0  0  0  0  0  0  0  0  0  0
  139.7770   78.7500  223.3330 C   0  0  0  0  0  0  0  0  0  0  0  0
  139.1640   77.9890  222.3470 C   0  0  0  0  0  0  0  0  0  0  0  0
  139.2140   70.4440  223.8340 C   0  0  0  0  0  0  0  0  0  0  0  0
  138.9240   69.0900  223.8900 C   0  0  0  0  0  0  0  0  0  0  0  0
  139.2440   68.3380  225.0050 C   0  0  0  0  0  0  0  0  0  0  0  0
  139.8680   68.9290  226.1020 C   0  0  0  0  0  0  0  0  0  0  0  0
  140.1830   68.1620  227.2120 C   0  0  0  0  0  0  0  0  0  0  0  0
  140.8000   68.7680  228.2820 C   0  0  0  0  0  0  0  0  0  0  0  0
  141.1210   68.0410  229.3860 F   0  0  0  0  0  0  0  0  0  0  0  0
  141.0660   70.1160  228.1750 C   0  0  0  0  0  0  0  0  0  0  0  0
  140.7590   70.8760  227.0860 C   0  0  0  0  0  0  0  0  0  0  0  0
  140.1360   70.2650  226.0040 C   0  0  0  0  0  0  0  0  0  0  0  0
  139.8180   71.0010  224.9030 N   0  0  0  0  0  0  0  0  0  0  0  0
  139.6360   73.0280  223.4620 H   0  0  0  0  0  0  0  0  0  0  0  0
  138.9105   72.7737  220.5547 H   0  0  0  0  0  0  0  0  0  0  0  0
  137.8125   73.7780  221.5512 H   0  0  0  0  0  0  0  0  0  0  0  0
  141.4120   74.5840  219.1494 H   0  0  0  0  0  0  0  0  0  0  0  0
  139.8424   74.3624  218.3863 H   0  0  0  0  0  0  0  0  0  0  0  0
  141.5735   76.8626  218.5711 H   0  0  0  0  0  0  0  0  0  0  0  0
  140.6357   76.3174  217.1961 H   0  0  0  0  0  0  0  0  0  0  0  0
  139.7065   78.2757  218.8252 H   0  0  0  0  0  0  0  0  0  0  0  0
  138.5654   77.1026  218.1672 H   0  0  0  0  0  0  0  0  0  0  0  0
  138.1336   76.7254  220.3647 H   0  0  0  0  0  0  0  0  0  0  0  0
  141.7736   77.4457  220.2676 H   0  0  0  0  0  0  0  0  0  0  0  0
  142.8799   78.7987  222.0153 H   0  0  0  0  0  0  0  0  0  0  0  0
  139.1979   79.1128  224.1950 H   0  0  0  0  0  0  0  0  0  0  0  0
  138.0934   77.7541  222.4403 H   0  0  0  0  0  0  0  0  0  0  0  0
  138.4314   68.6060  223.0338 H   0  0  0  0  0  0  0  0  0  0  0  0
  139.0042   67.2647  225.0265 H   0  0  0  0  0  0  0  0  0  0  0  0
  139.9442   67.0885  227.2373 H   0  0  0  0  0  0  0  0  0  0  0  0
  141.5586   70.6113  229.0247 H   0  0  0  0  0  0  0  0  0  0  0  0
  140.9990   71.9493  227.0639 H   0  0  0  0  0  0  0  0  0  0  0  0
  1  2  2  0
  2  3  1  0
  3  4  1  0
  4  5  1  0
  5  6  2  0
  5  7  1  0
  7  8  1  0
  8  9  1  0
  9 10  1  0
 10 11  1  0
 11 12  1  0
 12 13  2  0
 13 14  1  0
 14 15  2  0
 15 16  1  0
 16 17  1  0
 17 18  1  0
 17 19  1  0
 17 20  1  0
 15 21  1  0
 21 22  2  0
  2 23  1  0
 23 24  2  0
 24 25  1  0
 25 26  2  0
 26 27  1  0
 27 28  2  0
 28 29  1  0
 28 30  1  0
 30 31  2  0
 31 32  1  0
 32 33  2  0
 11  7  1  0
 22 12  1  0
 33 23  1  0
 32 26  1  0
  3 34  1  0
  4 35  1  0
  4 36  1  0
  8 37  1  0
  8 38  1  0
  9 39  1  0
  9 40  1  0
 10 41  1  0
 10 42  1  0
 11 43  1  1
 13 44  1  0
 14 45  1  0
 21 46  1  0
 22 47  1  0
 24 48  1  0
 25 49  1  0
 27 50  1  0
 30 51  1  0
 31 52  1  0
M  END
>  <smiles>  (45) 
O=C(NCC(=O)N1CCCC1c1ccc(OC(F)(F)F)cc1)c1ccc2cc(F)ccc2n1

>  <score_type>  (45) 
oracle

>  <origin>  (45) 
autodockgpu

>  <m_score__min__energy>  (45) 
-7.9100000000000001

>  <m_primary>  (45) 
energy

>  <rmsd>  (45) 
1.2677580876885104

>  <m_score__min__rmsd>  (45) 
1.2677580876885104

>  <meeko>  (45) 
{"free_energy": -7.71, "intermolecular_energy": -9.8, "internal_energy": -2.22, "cluster_size": 17, "cluster_id": 2, "rank_in_cluster": 4}

>  <energy>  (45) 
-7.45

>  <cluster_rmsd>  (45) 
0.0

>  <cluster>  (45) 
5

$$$$

     RDKit          3D

 52 55  0  0  0  0  0  0  0  0999 V2000
  139.8820   73.6650  222.4700 O   0  0  0  0  0  0  0  0  0  0  0  0
  140.1640   72.4400  222.2890 C   0  0  0  0  0  0  0  0  0  0  0  0
  140.5140   71.9240  221.0040 N   0  0  0  0  0  0  0  0  0  0  0  0
  140.5570   72.7830  219.8690 C   0  0  0  0  0  0  0  0  0  0  0  0
  141.7910   72.4900  219.0950 C   0  0  0  0  0  0  0  0  0  0  0  0
  141.6710   71.9940  217.9260 O   0  0  0  0  0  0  0  0  0  0  0  0
  143.1000   72.7550  219.6440 N   0  0  0  0  0  0  0  0  0  0  0  0
  143.8240   71.8400  220.4590 C   0  0  0  0  0  0  0  0  0  0  0  0
  144.8550   72.6960  221.1510 C   0  0  0  0  0  0  0  0  0  0  0  0
  145.1210   73.7850  220.1480 C   0  0  0  0  0  0  0  0  0  0  0  0
  143.8380   73.9710  219.4360 C   0  0  2  0  0  0  0  0  0  0  0  0
  142.9950   75.0950  219.9640 C   0  0  0  0  0  0  0  0  0  0  0  0
  143.0400   76.2990  219.2960 C   0  0  0  0  0  0  0  0  0  0  0  0
  142.2650   77.3470  219.7650 C   0  0  0  0  0  0  0  0  0  0  0  0
  141.4480   77.2400  220.8720 C   0  0  0  0  0  0  0  0  0  0  0  0
  140.6710   78.3250  221.3230 O   0  0  0  0  0  0  0  0  0  0  0  0
  141.1660   79.0890  222.4220 C   0  0  0  0  0  0  0  0  0  0  0  0
  140.1930   80.0200  222.7910 F   0  0  0  0  0  0  0  0  0  0  0  0
  142.2820   79.8200  222.1110 F   0  0  0  0  0  0  0  0  0  0  0  0
  141.4050   78.2520  223.4890 F   0  0  0  0  0  0  0  0  0  0  0  0
  141.4120   76.0140  221.5370 C   0  0  0  0  0  0  0  0  0  0  0  0
  142.1880   74.9640  221.0690 C   0  0  0  0  0  0  0  0  0  0  0  0
  140.1330   71.5200  223.4310 C   0  0  0  0  0  0  0  0  0  0  0  0
  139.5970   70.2520  223.2770 C   0  0  0  0  0  0  0  0  0  0  0  0
  139.5540   69.3620  224.3330 C   0  0  0  0  0  0  0  0  0  0  0  0
  140.0540   69.7240  225.5840 C   0  0  0  0  0  0  0  0  0  0  0  0
  140.0040   68.8210  226.6330 C   0  0  0  0  0  0  0  0  0  0  0  0
  140.5040   69.2000  227.8580 C   0  0  0  0  0  0  0  0  0  0  0  0
  140.4700   68.3360  228.9070 F   0  0  0  0  0  0  0  0  0  0  0  0
  141.0270   70.4720  227.9580 C   0  0  0  0  0  0  0  0  0  0  0  0
  141.0780   71.3650  226.9290 C   0  0  0  0  0  0  0  0  0  0  0  0
  140.5730   70.9820  225.6920 C   0  0  0  0  0  0  0  0  0  0  0  0
  140.6120   71.8550  224.6470 N   0  0  0  0  0  0  0  0  0  0  0  0
  140.7370   70.8860  220.9360 H   0  0  0  0  0  0  0  0  0  0  0  0
  139.6737   72.6064  219.2377 H   0  0  0  0  0  0  0  0  0  0  0  0
  140.5600   73.8337  220.1946 H   0  0  0  0  0  0  0  0  0  0  0  0
  143.1591   71.3606  221.1925 H   0  0  0  0  0  0  0  0  0  0  0  0
  144.2765   71.0240  219.8764 H   0  0  0  0  0  0  0  0  0  0  0  0
  144.4585   73.1112  222.0893 H   0  0  0  0  0  0  0  0  0  0  0  0
  145.7599   72.1390  221.4355 H   0  0  0  0  0  0  0  0  0  0  0  0
  145.4196   74.7139  220.6559 H   0  0  0  0  0  0  0  0  0  0  0  0
  145.9403   73.5239  219.4620 H   0  0  0  0  0  0  0  0  0  0  0  0
  144.0609   74.2103  218.3857 H   0  0  0  0  0  0  0  0  0  0  0  0
  143.6779   76.4255  218.4089 H   0  0  0  0  0  0  0  0  0  0  0  0
  142.3025   78.3079  219.2309 H   0  0  0  0  0  0  0  0  0  0  0  0
  140.7745   75.8815  222.4236 H   0  0  0  0  0  0  0  0  0  0  0  0
  142.1568   73.9994  221.5969 H   0  0  0  0  0  0  0  0  0  0  0  0
  139.1989   69.9485  222.2975 H   0  0  0  0  0  0  0  0  0  0  0  0
  139.1224   68.3609  224.1862 H   0  0  0  0  0  0  0  0  0  0  0  0
  139.5726   67.8193  226.4897 H   0  0  0  0  0  0  0  0  0  0  0  0
  141.4295   70.7869  228.9320 H   0  0  0  0  0  0  0  0  0  0  0  0
  141.5093   72.3664  227.0746 H   0  0  0  0  0  0  0  0  0  0  0  0
  1  2  2  0
  2  3  1  0
  3  4  1  0
  4  5  1  0
  5  6  2  0
  5  7  1  0
  7  8  1  0
  8  9  1  0
  9 10  1  0
 10 11  1  0
 11 12  1  0
 12 13  2  0
 13 14  1  0
 14 15  2  0
 15 16  1  0
 16 17  1  0
 17 18  1  0
 17 19  1  0
 17 20  1  0
 15 21  1  0
 21 22  2  0
  2 23  1  0
 23 24  2  0
 24 25  1  0
 25 26  2  0
 26 27  1  0
 27 28  2  0
 28 29  1  0
 28 30  1  0
 30 31  2  0
 31 32  1  0
 32 33  2  0
 11  7  1  0
 22 12  1  0
 33 23  1  0
 32 26  1  0
  3 34  1  0
  4 35  1  0
  4 36  1  0
  8 37  1  0
  8 38  1  0
  9 39  1  0
  9 40  1  0
 10 41  1  0
 10 42  1  0
 11 43  1  6
 13 44  1  0
 14 45  1  0
 21 46  1  0
 22 47  1  0
 24 48  1  0
 25 49  1  0
 27 50  1  0
 30 51  1  0
 31 52  1  0
M  END
>  <smiles>  (46) 
O=C(NCC(=O)N1CCCC1c1ccc(OC(F)(F)F)cc1)c1ccc2cc(F)ccc2n1

>  <score_type>  (46) 
oracle

>  <origin>  (46) 
autodockgpu

>  <m_score__min__energy>  (46) 
-7.9100000000000001

>  <m_primary>  (46) 
energy

>  <rmsd>  (46) 
3.6481947250817957

>  <m_score__min__rmsd>  (46) 
3.6481947250817957

>  <meeko>  (46) 
{"free_energy": -7.64, "intermolecular_energy": -9.73, "internal_energy": -1.62, "cluster_size": 1, "cluster_id": 4, "rank_in_cluster": 1}

>  <energy>  (46) 
-7.22

>  <cluster_rmsd>  (46) 
0.0

>  <cluster>  (46) 
6

$$$$

     RDKit          3D

 52 55  0  0  0  0  0  0  0  0999 V2000
  140.6010   71.1760  220.9000 O   0  0  0  0  0  0  0  0  0  0  0  0
  140.3410   71.8410  221.9510 C   0  0  0  0  0  0  0  0  0  0  0  0
  140.1980   73.2620  221.9340 N   0  0  0  0  0  0  0  0  0  0  0  0
  140.3470   73.9870  220.7160 C   0  0  0  0  0  0  0  0  0  0  0  0
  140.9460   75.3120  221.0200 C   0  0  0  0  0  0  0  0  0  0  0  0
  141.0810   75.6520  222.2430 O   0  0  0  0  0  0  0  0  0  0  0  0
  141.3690   76.2020  219.9650 N   0  0  0  0  0  0  0  0  0  0  0  0
  140.4930   76.7640  218.9950 C   0  0  0  0  0  0  0  0  0  0  0  0
  141.4080   77.2060  217.8810 C   0  0  0  0  0  0  0  0  0  0  0  0
  142.6800   77.5530  218.6030 C   0  0  0  0  0  0  0  0  0  0  0  0
  142.7260   76.6350  219.7610 C   0  0  2  0  0  0  0  0  0  0  0  0
  143.5550   75.4030  219.5430 C   0  0  0  0  0  0  0  0  0  0  0  0
  143.3920   74.7230  218.3570 C   0  0  0  0  0  0  0  0  0  0  0  0
  144.1530   73.5860  218.1360 C   0  0  0  0  0  0  0  0  0  0  0  0
  145.0670   73.1040  219.0500 C   0  0  0  0  0  0  0  0  0  0  0  0
  145.8250   71.9450  218.7940 O   0  0  0  0  0  0  0  0  0  0  0  0
  145.1670   70.6830  218.8870 C   0  0  0  0  0  0  0  0  0  0  0  0
  146.1120   69.7110  219.2250 F   0  0  0  0  0  0  0  0  0  0  0  0
  144.6200   70.2720  217.7000 F   0  0  0  0  0  0  0  0  0  0  0  0
  144.2130   70.7370  219.8790 F   0  0  0  0  0  0  0  0  0  0  0  0
  145.2210   73.8050  220.2460 C   0  0  0  0  0  0  0  0  0  0  0  0
  144.4600   74.9440  220.4700 C   0  0  0  0  0  0  0  0  0  0  0  0
  140.1790   71.1340  223.2260 C   0  0  0  0  0  0  0  0  0  0  0  0
  139.5720   69.8900  223.2480 C   0  0  0  0  0  0  0  0  0  0  0  0
  139.4050   69.1980  224.4330 C   0  0  0  0  0  0  0  0  0  0  0  0
  139.8480   69.7420  225.6380 C   0  0  0  0  0  0  0  0  0  0  0  0
  139.6740   69.0370  226.8170 C   0  0  0  0  0  0  0  0  0  0  0  0
  140.1210   69.5940  227.9940 C   0  0  0  0  0  0  0  0  0  0  0  0
  139.9650   68.9250  229.1680 F   0  0  0  0  0  0  0  0  0  0  0  0
  140.7180   70.8330  227.9170 C   0  0  0  0  0  0  0  0  0  0  0  0
  140.8920   71.5320  226.7590 C   0  0  0  0  0  0  0  0  0  0  0  0
  140.4410   70.9700  225.5700 C   0  0  0  0  0  0  0  0  0  0  0  0
  140.6020   71.6470  224.3990 N   0  0  0  0  0  0  0  0  0  0  0  0
  139.9800   73.7450  222.8560 H   0  0  0  0  0  0  0  0  0  0  0  0
  141.0058   73.4311  220.0327 H   0  0  0  0  0  0  0  0  0  0  0  0
  139.3657   74.1205  220.2372 H   0  0  0  0  0  0  0  0  0  0  0  0
  139.7756   76.0118  218.6351 H   0  0  0  0  0  0  0  0  0  0  0  0
  139.8921   77.5917  219.3997 H   0  0  0  0  0  0  0  0  0  0  0  0
  141.5729   76.3926  217.1590 H   0  0  0  0  0  0  0  0  0  0  0  0
  141.0018   78.0427  217.2937 H   0  0  0  0  0  0  0  0  0  0  0  0
  143.5507   77.3950  217.9497 H   0  0  0  0  0  0  0  0  0  0  0  0
  142.7049   78.6085  218.9116 H   0  0  0  0  0  0  0  0  0  0  0  0
  143.1793   77.1732  220.6065 H   0  0  0  0  0  0  0  0  0  0  0  0
  142.6737   75.0744  217.6016 H   0  0  0  0  0  0  0  0  0  0  0  0
  144.0222   73.0430  217.1884 H   0  0  0  0  0  0  0  0  0  0  0  0
  145.9386   73.4585  221.0043 H   0  0  0  0  0  0  0  0  0  0  0  0
  144.5845   75.4939  221.4145 H   0  0  0  0  0  0  0  0  0  0  0  0
  139.2167   69.4448  222.3070 H   0  0  0  0  0  0  0  0  0  0  0  0
  138.9191   68.2111  224.4253 H   0  0  0  0  0  0  0  0  0  0  0  0
  139.1877   68.0503  226.8133 H   0  0  0  0  0  0  0  0  0  0  0  0
  141.0782   71.2887  228.8512 H   0  0  0  0  0  0  0  0  0  0  0  0
  141.3784   72.5186  226.7655 H   0  0  0  0  0  0  0  0  0  0  0  0
  1  2  2  0
  2  3  1  0
  3  4  1  0
  4  5  1  0
  5  6  2  0
  5  7  1  0
  7  8  1  0
  8  9  1  0
  9 10  1  0
 10 11  1  0
 11 12  1  0
 12 13  2  0
 13 14  1  0
 14 15  2  0
 15 16  1  0
 16 17  1  0
 17 18  1  0
 17 19  1  0
 17 20  1  0
 15 21  1  0
 21 22  2  0
  2 23  1  0
 23 24  2  0
 24 25  1  0
 25 26  2  0
 26 27  1  0
 27 28  2  0
 28 29  1  0
 28 30  1  0
 30 31  2  0
 31 32  1  0
 32 33  2  0
 11  7  1  0
 22 12  1  0
 33 23  1  0
 32 26  1  0
  3 34  1  0
  4 35  1  0
  4 36  1  0
  8 37  1  0
  8 38  1  0
  9 39  1  0
  9 40  1  0
 10 41  1  0
 10 42  1  0
 11 43  1  1
 13 44  1  0
 14 45  1  0
 21 46  1  0
 22 47  1  0
 24 48  1  0
 25 49  1  0
 27 50  1  0
 30 51  1  0
 31 52  1  0
M  END
>  <smiles>  (47) 
O=C(NCC(=O)N1CCCC1c1ccc(OC(F)(F)F)cc1)c1ccc2cc(F)ccc2n1

>  <score_type>  (47) 
oracle

>  <origin>  (47) 
autodockgpu

>  <m_score__min__energy>  (47) 
-7.9100000000000001

>  <m_primary>  (47) 
energy

>  <rmsd>  (47) 
1.715141485766845

>  <m_score__min__rmsd>  (47) 
1.715141485766845

>  <meeko>  (47) 
{"free_energy": -7.79, "intermolecular_energy": -9.87, "internal_energy": -2.18, "cluster_size": 22, "cluster_id": 1, "rank_in_cluster": 5}

>  <energy>  (47) 
-7.22

>  <cluster_rmsd>  (47) 
0.14

>  <cluster>  (47) 
6

$$$$

     RDKit          3D

 52 55  0  0  0  0  0  0  0  0999 V2000
  141.3490   72.5000  221.7960 O   0  0  0  0  0  0  0  0  0  0  0  0
  140.3260   72.5240  222.5490 C   0  0  0  0  0  0  0  0  0  0  0  0
  139.2530   73.4430  222.3420 N   0  0  0  0  0  0  0  0  0  0  0  0
  139.2990   74.3770  221.2670 C   0  0  0  0  0  0  0  0  0  0  0  0
  138.2760   75.4270  221.5030 C   0  0  0  0  0  0  0  0  0  0  0  0
  137.5690   75.3590  222.5620 O   0  0  0  0  0  0  0  0  0  0  0  0
  138.0770   76.5030  220.5610 N   0  0  0  0  0  0  0  0  0  0  0  0
  138.1000   76.3420  219.1470 C   0  0  0  0  0  0  0  0  0  0  0  0
  138.3180   77.7370  218.6180 C   0  0  0  0  0  0  0  0  0  0  0  0
  137.6560   78.6010  219.6550 C   0  0  0  0  0  0  0  0  0  0  0  0
  137.8290   77.8710  220.9290 C   0  0  2  0  0  0  0  0  0  0  0  0
  138.9990   78.3270  221.7510 C   0  0  0  0  0  0  0  0  0  0  0  0
  138.7510   79.1810  222.8020 C   0  0  0  0  0  0  0  0  0  0  0  0
  139.8180   79.6090  223.5750 C   0  0  0  0  0  0  0  0  0  0  0  0
  141.1200   79.2170  223.3400 C   0  0  0  0  0  0  0  0  0  0  0  0
  142.1840   79.6700  224.1450 O   0  0  0  0  0  0  0  0  0  0  0  0
  142.8300   80.8860  223.7750 C   0  0  0  0  0  0  0  0  0  0  0  0
  144.2120   80.6810  223.7950 F   0  0  0  0  0  0  0  0  0  0  0  0
  142.5940   81.9110  224.6520 F   0  0  0  0  0  0  0  0  0  0  0  0
  142.4530   81.2330  222.4960 F   0  0  0  0  0  0  0  0  0  0  0  0
  141.3560   78.3510  222.2730 C   0  0  0  0  0  0  0  0  0  0  0  0
  140.2880   77.9220  221.4970 C   0  0  0  0  0  0  0  0  0  0  0  0
  140.2360   71.5790  223.6670 C   0  0  0  0  0  0  0  0  0  0  0  0
  139.6740   70.3290  223.4660 C   0  0  0  0  0  0  0  0  0  0  0  0
  139.5750   69.4160  224.4990 C   0  0  0  0  0  0  0  0  0  0  0  0
  140.0440   69.7360  225.7730 C   0  0  0  0  0  0  0  0  0  0  0  0
  139.9390   68.8110  226.7980 C   0  0  0  0  0  0  0  0  0  0  0  0
  140.4100   69.1490  228.0470 C   0  0  0  0  0  0  0  0  0  0  0  0
  140.3210   68.2610  229.0730 F   0  0  0  0  0  0  0  0  0  0  0  0
  140.9610   70.4040  228.1930 C   0  0  0  0  0  0  0  0  0  0  0  0
  141.0670   71.3190  227.1880 C   0  0  0  0  0  0  0  0  0  0  0  0
  140.5920   70.9780  225.9270 C   0  0  0  0  0  0  0  0  0  0  0  0
  140.6850   71.8740  224.9040 N   0  0  0  0  0  0  0  0  0  0  0  0
  138.4310   73.3990  223.0160 H   0  0  0  0  0  0  0  0  0  0  0  0
  140.2970   74.8370  221.2191 H   0  0  0  0  0  0  0  0  0  0  0  0
  139.0955   73.8633  220.3159 H   0  0  0  0  0  0  0  0  0  0  0  0
  138.9221   75.6771  218.8436 H   0  0  0  0  0  0  0  0  0  0  0  0
  137.1772   75.8848  218.7605 H   0  0  0  0  0  0  0  0  0  0  0  0
  139.3909   77.9664  218.5390 H   0  0  0  0  0  0  0  0  0  0  0  0
  137.9106   77.8851  217.6070 H   0  0  0  0  0  0  0  0  0  0  0  0
  138.1424   79.5863  219.7050 H   0  0  0  0  0  0  0  0  0  0  0  0
  136.5961   78.7841  219.4246 H   0  0  0  0  0  0  0  0  0  0  0  0
  136.9307   78.0363  221.5420 H   0  0  0  0  0  0  0  0  0  0  0  0
  137.7271   79.5165  223.0233 H   0  0  0  0  0  0  0  0  0  0  0  0
  139.6183   80.2920  224.4138 H   0  0  0  0  0  0  0  0  0  0  0  0
  142.3779   78.0113  222.0485 H   0  0  0  0  0  0  0  0  0  0  0  0
  140.4782   77.2393  220.6558 H   0  0  0  0  0  0  0  0  0  0  0  0
  139.3002   70.0584  222.4675 H   0  0  0  0  0  0  0  0  0  0  0  0
  139.1232   68.4301  224.3151 H   0  0  0  0  0  0  0  0  0  0  0  0
  139.4876   67.8242  226.6178 H   0  0  0  0  0  0  0  0  0  0  0  0
  141.3403   70.6859  229.1863 H   0  0  0  0  0  0  0  0  0  0  0  0
  141.5184   72.3053  227.3710 H   0  0  0  0  0  0  0  0  0  0  0  0
  1  2  2  0
  2  3  1  0
  3  4  1  0
  4  5  1  0
  5  6  2  0
  5  7  1  0
  7  8  1  0
  8  9  1  0
  9 10  1  0
 10 11  1  0
 11 12  1  0
 12 13  2  0
 13 14  1  0
 14 15  2  0
 15 16  1  0
 16 17  1  0
 17 18  1  0
 17 19  1  0
 17 20  1  0
 15 21  1  0
 21 22  2  0
  2 23  1  0
 23 24  2  0
 24 25  1  0
 25 26  2  0
 26 27  1  0
 27 28  2  0
 28 29  1  0
 28 30  1  0
 30 31  2  0
 31 32  1  0
 32 33  2  0
 11  7  1  0
 22 12  1  0
 33 23  1  0
 32 26  1  0
  3 34  1  0
  4 35  1  0
  4 36  1  0
  8 37  1  0
  8 38  1  0
  9 39  1  0
  9 40  1  0
 10 41  1  0
 10 42  1  0
 11 43  1  1
 13 44  1  0
 14 45  1  0
 21 46  1  0
 22 47  1  0
 24 48  1  0
 25 49  1  0
 27 50  1  0
 30 51  1  0
 31 52  1  0
M  END
>  <smiles>  (48) 
O=C(NCC(=O)N1CCCC1c1ccc(OC(F)(F)F)cc1)c1ccc2cc(F)ccc2n1

>  <score_type>  (48) 
oracle

>  <origin>  (48) 
autodockgpu

>  <m_score__min__energy>  (48) 
-7.9100000000000001

>  <m_primary>  (48) 
energy

>  <rmsd>  (48) 
2.191839821238246

>  <m_score__min__rmsd>  (48) 
2.191839821238246

>  <meeko>  (48) 
{"free_energy": -7.52, "intermolecular_energy": -9.61, "internal_energy": -1.99, "cluster_size": 17, "cluster_id": 2, "rank_in_cluster": 12}

>  <energy>  (48) 
-6.33

>  <cluster_rmsd>  (48) 
0.0

>  <cluster>  (48) 
7

$$$$

     RDKit          3D

 52 55  0  0  0  0  0  0  0  0999 V2000
  138.3370   70.5770  221.6040 O   0  0  0  0  0  0  0  0  0  0  0  0
  138.8650   71.1810  222.5900 C   0  0  0  0  0  0  0  0  0  0  0  0
  139.1380   72.5830  222.5640 N   0  0  0  0  0  0  0  0  0  0  0  0
  138.8220   73.3580  221.4100 C   0  0  0  0  0  0  0  0  0  0  0  0
  139.7710   74.4980  221.3270 C   0  0  0  0  0  0  0  0  0  0  0  0
  140.4960   74.7600  222.3430 O   0  0  0  0  0  0  0  0  0  0  0  0
  139.8770   75.2980  220.1300 N   0  0  0  0  0  0  0  0  0  0  0  0
  140.5230   74.8680  218.9370 C   0  0  0  0  0  0  0  0  0  0  0  0
  140.7900   76.1450  218.1800 C   0  0  0  0  0  0  0  0  0  0  0  0
  139.6540   77.0350  218.6020 C   0  0  0  0  0  0  0  0  0  0  0  0
  139.3430   76.6260  219.9890 C   0  0  2  0  0  0  0  0  0  0  0  0
  139.9870   77.4760  221.0450 C   0  0  0  0  0  0  0  0  0  0  0  0
  139.2090   77.8740  222.1090 C   0  0  0  0  0  0  0  0  0  0  0  0
  139.7870   78.6550  223.0970 C   0  0  0  0  0  0  0  0  0  0  0  0
  141.1080   79.0510  223.0640 C   0  0  0  0  0  0  0  0  0  0  0  0
  141.6670   79.8460  224.0850 O   0  0  0  0  0  0  0  0  0  0  0  0
  142.5430   80.9040  223.7030 C   0  0  0  0  0  0  0  0  0  0  0  0
  142.0700   81.4670  222.5150 F   0  0  0  0  0  0  0  0  0  0  0  0
  143.8160   80.4800  223.4310 F   0  0  0  0  0  0  0  0  0  0  0  0
  142.5430   81.8730  224.6820 F   0  0  0  0  0  0  0  0  0  0  0  0
  141.8830   78.6390  221.9800 C   0  0  0  0  0  0  0  0  0  0  0  0
  141.3060   77.8570  220.9890 C   0  0  0  0  0  0  0  0  0  0  0  0
  139.2050   70.4220  223.7980 C   0  0  0  0  0  0  0  0  0  0  0  0
  138.8830   69.0770  223.8770 C   0  0  0  0  0  0  0  0  0  0  0  0
  139.1910   68.3340  225.0000 C   0  0  0  0  0  0  0  0  0  0  0  0
  139.8370   68.9270  226.0850 C   0  0  0  0  0  0  0  0  0  0  0  0
  140.1400   68.1690  227.2040 C   0  0  0  0  0  0  0  0  0  0  0  0
  140.7790   68.7750  228.2620 C   0  0  0  0  0  0  0  0  0  0  0  0
  141.0890   68.0580  229.3740 F   0  0  0  0  0  0  0  0  0  0  0  0
  141.0770   70.1150  228.1320 C   0  0  0  0  0  0  0  0  0  0  0  0
  140.7820   70.8660  227.0330 C   0  0  0  0  0  0  0  0  0  0  0  0
  140.1370   70.2540  225.9650 C   0  0  0  0  0  0  0  0  0  0  0  0
  139.8300   70.9810  224.8550 N   0  0  0  0  0  0  0  0  0  0  0  0
  139.5810   73.0140  223.4290 H   0  0  0  0  0  0  0  0  0  0  0  0
  138.9134   72.7340  220.5087 H   0  0  0  0  0  0  0  0  0  0  0  0
  137.7906   73.7336  221.4818 H   0  0  0  0  0  0  0  0  0  0  0  0
  141.4641   74.3478  219.1687 H   0  0  0  0  0  0  0  0  0  0  0  0
  139.9135   74.1562  218.3609 H   0  0  0  0  0  0  0  0  0  0  0  0
  141.7592   76.5789  218.4669 H   0  0  0  0  0  0  0  0  0  0  0  0
  140.8437   75.9991  217.0910 H   0  0  0  0  0  0  0  0  0  0  0  0
  139.9579   78.0917  218.5693 H   0  0  0  0  0  0  0  0  0  0  0  0
  138.7832   76.9373  217.9370 H   0  0  0  0  0  0  0  0  0  0  0  0
  138.2562   76.7125  220.1353 H   0  0  0  0  0  0  0  0  0  0  0  0
  138.1514   77.5784  222.1734 H   0  0  0  0  0  0  0  0  0  0  0  0
  139.1643   78.9736  223.9460 H   0  0  0  0  0  0  0  0  0  0  0  0
  142.9413   78.9310  221.9111 H   0  0  0  0  0  0  0  0  0  0  0  0
  141.9209   77.5337  220.1362 H   0  0  0  0  0  0  0  0  0  0  0  0
  138.3734   68.5925  223.0311 H   0  0  0  0  0  0  0  0  0  0  0  0
  138.9250   67.2673  225.0390 H   0  0  0  0  0  0  0  0  0  0  0  0
  139.8749   67.1023  227.2464 H   0  0  0  0  0  0  0  0  0  0  0  0
  141.5868   70.6112  228.9710 H   0  0  0  0  0  0  0  0  0  0  0  0
  141.0486   71.9324  226.9926 H   0  0  0  0  0  0  0  0  0  0  0  0
  1  2  2  0
  2  3  1  0
  3  4  1  0
  4  5  1  0
  5  6  2  0
  5  7  1  0
  7  8  1  0
  8  9  1  0
  9 10  1  0
 10 11  1  0
 11 12  1  0
 12 13  2  0
 13 14  1  0
 14 15  2  0
 15 16  1  0
 16 17  1  0
 17 18  1  0
 17 19  1  0
 17 20  1  0
 15 21  1  0
 21 22  2  0
  2 23  1  0
 23 24  2  0
 24 25  1  0
 25 26  2  0
 26 27  1  0
 27 28  2  0
 28 29  1  0
 28 30  1  0
 30 31  2  0
 31 32  1  0
 32 33  2  0
 11  7  1  0
 22 12  1  0
 33 23  1  0
 32 26  1  0
  3 34  1  0
  4 35  1  0
  4 36  1  0
  8 37  1  0
  8 38  1  0
  9 39  1  0
  9 40  1  0
 10 41  1  0
 10 42  1  0
 11 43  1  6
 13 44  1  0
 14 45  1  0
 21 46  1  0
 22 47  1  0
 24 48  1  0
 25 49  1  0
 27 50  1  0
 30 51  1  0
 31 52  1  0
M  END
>  <smiles>  (49) 
O=C(NCC(=O)N1CCCC1c1ccc(OC(F)(F)F)cc1)c1ccc2cc(F)ccc2n1

>  <score_type>  (49) 
oracle

>  <origin>  (49) 
autodockgpu

>  <m_score__min__energy>  (49) 
-7.9100000000000001

>  <m_primary>  (49) 
energy

>  <rmsd>  (49) 
1.2190591692288855

>  <m_score__min__rmsd>  (49) 
1.2190591692288855

>  <meeko>  (49) 
{"free_energy": -7.71, "intermolecular_energy": -9.8, "internal_energy": -2.21, "cluster_size": 17, "cluster_id": 2, "rank_in_cluster": 5}

>  <energy>  (49) 
-6.07

>  <cluster_rmsd>  (49) 
0.9

>  <cluster>  (49) 
7

$$$$

     RDKit          3D

 52 55  0  0  0  0  0  0  0  0999 V2000
  137.9180   70.6810  221.9210 O   0  0  0  0  0  0  0  0  0  0  0  0
  138.6330   71.2410  222.8090 C   0  0  0  0  0  0  0  0  0  0  0  0
  139.0340   72.6080  222.7110 N   0  0  0  0  0  0  0  0  0  0  0  0
  138.6360   73.3980  221.5940 C   0  0  0  0  0  0  0  0  0  0  0  0
  139.5990   74.5180  221.4350 C   0  0  0  0  0  0  0  0  0  0  0  0
  140.4950   74.6800  222.3280 O   0  0  0  0  0  0  0  0  0  0  0  0
  139.5300   75.4080  220.3000 N   0  0  0  0  0  0  0  0  0  0  0  0
  140.0360   75.0950  219.0070 C   0  0  0  0  0  0  0  0  0  0  0  0
  140.1680   76.4340  218.3270 C   0  0  0  0  0  0  0  0  0  0  0  0
  139.0660   77.2440  218.9530 C   0  0  0  0  0  0  0  0  0  0  0  0
  138.9430   76.7210  220.3310 C   0  0  2  0  0  0  0  0  0  0  0  0
  139.6880   77.5140  221.3640 C   0  0  0  0  0  0  0  0  0  0  0  0
  141.0460   77.6700  221.1960 C   0  0  0  0  0  0  0  0  0  0  0  0
  141.7510   78.4040  222.1370 C   0  0  0  0  0  0  0  0  0  0  0  0
  141.1530   78.9870  223.2350 C   0  0  0  0  0  0  0  0  0  0  0  0
  141.8980   79.7280  224.1740 O   0  0  0  0  0  0  0  0  0  0  0  0
  142.6210   80.8640  223.7060 C   0  0  0  0  0  0  0  0  0  0  0  0
  142.5600   81.8640  224.6800 F   0  0  0  0  0  0  0  0  0  0  0  0
  142.0840   81.4170  222.5730 F   0  0  0  0  0  0  0  0  0  0  0  0
  143.9400   80.5180  223.5100 F   0  0  0  0  0  0  0  0  0  0  0  0
  139.7770   78.8220  223.3910 C   0  0  0  0  0  0  0  0  0  0  0  0
  139.0700   78.0870  222.4500 C   0  0  0  0  0  0  0  0  0  0  0  0
  139.0640   70.4640  223.9770 C   0  0  0  0  0  0  0  0  0  0  0  0
  138.8470   69.0970  224.0100 C   0  0  0  0  0  0  0  0  0  0  0  0
  139.2430   68.3370  225.0950 C   0  0  0  0  0  0  0  0  0  0  0  0
  139.8720   68.9360  226.1850 C   0  0  0  0  0  0  0  0  0  0  0  0
  140.2620   68.1620  227.2650 C   0  0  0  0  0  0  0  0  0  0  0  0
  140.8830   68.7750  228.3300 C   0  0  0  0  0  0  0  0  0  0  0  0
  141.2780   68.0420  229.4050 F   0  0  0  0  0  0  0  0  0  0  0  0
  141.0750   70.1380  228.2470 C   0  0  0  0  0  0  0  0  0  0  0  0
  140.6920   70.9050  227.1870 C   0  0  0  0  0  0  0  0  0  0  0  0
  140.0660   70.2860  226.1110 C   0  0  0  0  0  0  0  0  0  0  0  0
  139.6740   71.0290  225.0390 N   0  0  0  0  0  0  0  0  0  0  0  0
  139.6320   73.0020  223.4970 H   0  0  0  0  0  0  0  0  0  0  0  0
  138.6347   72.7791  220.6846 H   0  0  0  0  0  0  0  0  0  0  0  0
  137.6233   73.7950  221.7577 H   0  0  0  0  0  0  0  0  0  0  0  0
  141.0140   74.5970  219.0809 H   0  0  0  0  0  0  0  0  0  0  0  0
  139.3817   74.4047  218.4544 H   0  0  0  0  0  0  0  0  0  0  0  0
  141.1516   76.8837  218.5277 H   0  0  0  0  0  0  0  0  0  0  0  0
  140.0908   76.3723  217.2314 H   0  0  0  0  0  0  0  0  0  0  0  0
  139.3306   78.3116  218.9667 H   0  0  0  0  0  0  0  0  0  0  0  0
  138.1226   77.1609  218.3934 H   0  0  0  0  0  0  0  0  0  0  0  0
  137.8810   76.7538  220.6156 H   0  0  0  0  0  0  0  0  0  0  0  0
  141.5603   77.2215  220.3332 H   0  0  0  0  0  0  0  0  0  0  0  0
  142.8358   78.5271  222.0022 H   0  0  0  0  0  0  0  0  0  0  0  0
  139.2575   79.2698  224.2510 H   0  0  0  0  0  0  0  0  0  0  0  0
  137.9848   77.9593  222.5766 H   0  0  0  0  0  0  0  0  0  0  0  0
  138.3513   68.6074  223.1588 H   0  0  0  0  0  0  0  0  0  0  0  0
  139.0604   67.2523  225.0980 H   0  0  0  0  0  0  0  0  0  0  0  0
  140.0790   67.0774  227.2719 H   0  0  0  0  0  0  0  0  0  0  0  0
  141.5698   70.6395  229.0918 H   0  0  0  0  0  0  0  0  0  0  0  0
  140.8743   71.9898  227.1832 H   0  0  0  0  0  0  0  0  0  0  0  0
  1  2  2  0
  2  3  1  0
  3  4  1  0
  4  5  1  0
  5  6  2  0
  5  7  1  0
  7  8  1  0
  8  9  1  0
  9 10  1  0
 10 11  1  0
 11 12  1  0
 12 13  2  0
 13 14  1  0
 14 15  2  0
 15 16  1  0
 16 17  1  0
 17 18  1  0
 17 19  1  0
 17 20  1  0
 15 21  1  0
 21 22  2  0
  2 23  1  0
 23 24  2  0
 24 25  1  0
 25 26  2  0
 26 27  1  0
 27 28  2  0
 28 29  1  0
 28 30  1  0
 30 31  2  0
 31 32  1  0
 32 33  2  0
 11  7  1  0
 22 12  1  0
 33 23  1  0
 32 26  1  0
  3 34  1  0
  4 35  1  0
  4 36  1  0
  8 37  1  0
  8 38  1  0
  9 39  1  0
  9 40  1  0
 10 41  1  0
 10 42  1  0
 11 43  1  1
 13 44  1  0
 14 45  1  0
 21 46  1  0
 22 47  1  0
 24 48  1  0
 25 49  1  0
 27 50  1  0
 30 51  1  0
 31 52  1  0
M  END
>  <smiles>  (50) 
O=C(NCC(=O)N1CCCC1c1ccc(OC(F)(F)F)cc1)c1ccc2cc(F)ccc2n1

>  <score_type>  (50) 
oracle

>  <origin>  (50) 
autodockgpu

>  <m_score__min__energy>  (50) 
-7.9100000000000001

>  <m_primary>  (50) 
energy

>  <rmsd>  (50) 
1.3454980423970762

>  <m_score__min__rmsd>  (50) 
1.3454980423970762

>  <meeko>  (50) 
{"free_energy": -7.7, "intermolecular_energy": -9.79, "internal_energy": -2.24, "cluster_size": 17, "cluster_id": 2, "rank_in_cluster": 6}

>  <energy>  (50) 
-5.97

>  <cluster_rmsd>  (50) 
0.7

>  <cluster>  (50) 
7

$$$$

     RDKit          3D

 52 55  0  0  0  0  0  0  0  0999 V2000
  137.7420   70.3240  222.0610 O   0  0  0  0  0  0  0  0  0  0  0  0
  138.4920   70.9120  222.9150 C   0  0  0  0  0  0  0  0  0  0  0  0
  138.8600   72.2770  222.7630 N   0  0  0  0  0  0  0  0  0  0  0  0
  138.3660   72.9860  221.6210 C   0  0  0  0  0  0  0  0  0  0  0  0
  138.5680   74.4520  221.7440 C   0  0  0  0  0  0  0  0  0  0  0  0
  139.6350   74.8140  222.3400 O   0  0  0  0  0  0  0  0  0  0  0  0
  137.6340   75.4070  221.2310 N   0  0  0  0  0  0  0  0  0  0  0  0
  136.2450   75.0590  220.9860 C   0  0  0  0  0  0  0  0  0  0  0  0
  135.6430   76.4060  220.6580 C   0  0  0  0  0  0  0  0  0  0  0  0
  136.6020   77.4400  221.2110 C   0  0  0  0  0  0  0  0  0  0  0  0
  137.9220   76.7650  220.9060 C   0  0  1  0  0  0  0  0  0  0  0  0
  139.0670   77.3830  221.5430 C   0  0  0  0  0  0  0  0  0  0  0  0
  140.3310   77.3210  220.9680 C   0  0  0  0  0  0  0  0  0  0  0  0
  141.4400   77.8990  221.5410 C   0  0  0  0  0  0  0  0  0  0  0  0
  141.3390   78.5780  222.7360 C   0  0  0  0  0  0  0  0  0  0  0  0
  142.4410   79.1750  223.3430 O   0  0  0  0  0  0  0  0  0  0  0  0
  142.5700   80.6060  223.3790 C   0  0  0  0  0  0  0  0  0  0  0  0
  141.5420   81.1730  224.0870 F   0  0  0  0  0  0  0  0  0  0  0  0
  143.8100   80.8920  223.9100 F   0  0  0  0  0  0  0  0  0  0  0  0
  142.5650   81.1120  222.0940 F   0  0  0  0  0  0  0  0  0  0  0  0
  140.0980   78.6590  223.3320 C   0  0  0  0  0  0  0  0  0  0  0  0
  138.9900   78.0770  222.7540 C   0  0  0  0  0  0  0  0  0  0  0  0
  138.9710   70.1440  224.0670 C   0  0  0  0  0  0  0  0  0  0  0  0
  138.8230   68.7730  224.1000 C   0  0  0  0  0  0  0  0  0  0  0  0
  139.2600   68.0110  225.1630 C   0  0  0  0  0  0  0  0  0  0  0  0
  139.8690   68.6370  226.2360 C   0  0  0  0  0  0  0  0  0  0  0  0
  140.3170   67.8980  227.3130 C   0  0  0  0  0  0  0  0  0  0  0  0
  140.9240   68.5470  228.3730 C   0  0  0  0  0  0  0  0  0  0  0  0
  141.3540   67.7960  229.4150 F   0  0  0  0  0  0  0  0  0  0  0  0
  141.0660   69.9240  228.3280 C   0  0  0  0  0  0  0  0  0  0  0  0
  140.6260   70.6860  227.2620 C   0  0  0  0  0  0  0  0  0  0  0  0
  140.0140   70.0270  226.1920 C   0  0  0  0  0  0  0  0  0  0  0  0
  139.5670   70.7150  225.1280 N   0  0  0  0  0  0  0  0  0  0  0  0
  139.4800   72.7510  223.4740 H   0  0  0  0  0  0  0  0  0  0  0  0
  138.8953   72.6288  220.7253 H   0  0  0  0  0  0  0  0  0  0  0  0
  137.2848   72.7978  221.5468 H   0  0  0  0  0  0  0  0  0  0  0  0
  136.1498   74.3611  220.1410 H   0  0  0  0  0  0  0  0  0  0  0  0
  135.7584   74.5465  221.8290 H   0  0  0  0  0  0  0  0  0  0  0  0
  135.5409   76.5237  219.5691 H   0  0  0  0  0  0  0  0  0  0  0  0
  134.6391   76.5147  221.0943 H   0  0  0  0  0  0  0  0  0  0  0  0
  136.5069   78.4044  220.6905 H   0  0  0  0  0  0  0  0  0  0  0  0
  136.4467   77.6963  222.2694 H   0  0  0  0  0  0  0  0  0  0  0  0
  138.2620   76.8608  219.8643 H   0  0  0  0  0  0  0  0  0  0  0  0
  140.4495   76.7868  220.0138 H   0  0  0  0  0  0  0  0  0  0  0  0
  142.4164   77.8185  221.0408 H   0  0  0  0  0  0  0  0  0  0  0  0
  139.9904   79.1974  224.2852 H   0  0  0  0  0  0  0  0  0  0  0  0
  138.0171   78.1612  223.2604 H   0  0  0  0  0  0  0  0  0  0  0  0
  138.3398   68.2703  223.2492 H   0  0  0  0  0  0  0  0  0  0  0  0
  139.1261   66.9192  225.1579 H   0  0  0  0  0  0  0  0  0  0  0  0
  140.1925   66.8052  227.3278 H   0  0  0  0  0  0  0  0  0  0  0  0
  141.5489   70.4322  229.1757 H   0  0  0  0  0  0  0  0  0  0  0  0
  140.7537   71.7785  227.2559 H   0  0  0  0  0  0  0  0  0  0  0  0
  1  2  2  0
  2  3  1  0
  3  4  1  0
  4  5  1  0
  5  6  2  0
  5  7  1  0
  7  8  1  0
  8  9  1  0
  9 10  1  0
 10 11  1  0
 11 12  1  0
 12 13  2  0
 13 14  1  0
 14 15  2  0
 15 16  1  0
 16 17  1  0
 17 18  1  0
 17 19  1  0
 17 20  1  0
 15 21  1  0
 21 22  2  0
  2 23  1  0
 23 24  2  0
 24 25  1  0
 25 26  2  0
 26 27  1  0
 27 28  2  0
 28 29  1  0
 28 30  1  0
 30 31  2  0
 31 32  1  0
 32 33  2  0
 11  7  1  0
 22 12  1  0
 33 23  1  0
 32 26  1  0
  3 34  1  0
  4 35  1  0
  4 36  1  0
  8 37  1  0
  8 38  1  0
  9 39  1  0
  9 40  1  0
 10 41  1  0
 10 42  1  0
 11 43  1  6
 13 44  1  0
 14 45  1  0
 21 46  1  0
 22 47  1  0
 24 48  1  0
 25 49  1  0
 27 50  1  0
 30 51  1  0
 31 52  1  0
M  END
>  <smiles>  (51) 
O=C(NCC(=O)N1CCCC1c1ccc(OC(F)(F)F)cc1)c1ccc2cc(F)ccc2n1

>  <score_type>  (51) 
oracle

>  <origin>  (51) 
autodockgpu

>  <m_score__min__energy>  (51) 
-8.4399999999999995

>  <m_primary>  (51) 
energy

>  <rmsd>  (51) 
2.6230924379605214

>  <m_score__min__rmsd>  (51) 
2.6230924379605214

>  <meeko>  (51) 
{"free_energy": -7.51, "intermolecular_energy": -9.59, "internal_energy": -1.83, "cluster_size": 8, "cluster_id": 3, "rank_in_cluster": 3}

>  <energy>  (51) 
-8.44

>  <cluster_rmsd>  (51) 
0.0

>  <cluster>  (51) 
1

$$$$

     RDKit          3D

 52 55  0  0  0  0  0  0  0  0999 V2000
  140.9570   77.6580  218.1300 O   0  0  0  0  0  0  0  0  0  0  0  0
  141.8860   77.4740  218.9900 C   0  0  0  0  0  0  0  0  0  0  0  0
  142.1900   78.4520  219.9750 N   0  0  0  0  0  0  0  0  0  0  0  0
  141.4220   79.6620  219.9840 C   0  0  0  0  0  0  0  0  0  0  0  0
  141.4840   80.3520  221.2970 C   0  0  0  0  0  0  0  0  0  0  0  0
  142.6550   80.6050  221.7330 O   0  0  0  0  0  0  0  0  0  0  0  0
  140.3130   80.7170  222.0350 N   0  0  0  0  0  0  0  0  0  0  0  0
  139.7520   82.0550  221.9620 C   0  0  0  0  0  0  0  0  0  0  0  0
  138.4580   81.8890  222.7240 C   0  0  0  0  0  0  0  0  0  0  0  0
  138.1680   80.4020  222.7410 C   0  0  0  0  0  0  0  0  0  0  0  0
  139.5730   79.8620  222.9030 C   0  0  1  0  0  0  0  0  0  0  0  0
  139.6870   78.4320  222.6990 C   0  0  0  0  0  0  0  0  0  0  0  0
  138.5630   77.6410  222.4940 C   0  0  0  0  0  0  0  0  0  0  0  0
  138.6320   76.2830  222.2930 C   0  0  0  0  0  0  0  0  0  0  0  0
  139.8490   75.6350  222.2870 C   0  0  0  0  0  0  0  0  0  0  0  0
  139.9550   74.2620  222.0860 O   0  0  0  0  0  0  0  0  0  0  0  0
  140.6660   73.7420  220.9510 C   0  0  0  0  0  0  0  0  0  0  0  0
  142.0140   73.6980  221.1950 F   0  0  0  0  0  0  0  0  0  0  0  0
  140.1310   72.5040  220.6650 F   0  0  0  0  0  0  0  0  0  0  0  0
  140.4340   74.5360  219.8450 F   0  0  0  0  0  0  0  0  0  0  0  0
  140.9850   76.3910  222.4860 C   0  0  0  0  0  0  0  0  0  0  0  0
  140.9090   77.7530  222.6870 C   0  0  0  0  0  0  0  0  0  0  0  0
  142.6420   76.2190  218.9400 C   0  0  0  0  0  0  0  0  0  0  0  0
  142.4450   75.3280  217.9070 C   0  0  0  0  0  0  0  0  0  0  0  0
  143.1350   74.1370  217.8190 C   0  0  0  0  0  0  0  0  0  0  0  0
  144.0590   73.8210  218.7990 C   0  0  0  0  0  0  0  0  0  0  0  0
  144.7660   72.6360  218.7360 C   0  0  0  0  0  0  0  0  0  0  0  0
  145.6850   72.3430  219.7270 C   0  0  0  0  0  0  0  0  0  0  0  0
  146.3630   71.1740  219.6380 F   0  0  0  0  0  0  0  0  0  0  0  0
  145.8740   73.2460  220.7590 C   0  0  0  0  0  0  0  0  0  0  0  0
  145.1800   74.4390  220.8450 C   0  0  0  0  0  0  0  0  0  0  0  0
  144.2520   74.7320  219.8420 C   0  0  0  0  0  0  0  0  0  0  0  0
  143.5480   75.8770  219.8720 N   0  0  0  0  0  0  0  0  0  0  0  0
  142.9590   78.2890  220.6790 H   0  0  0  0  0  0  0  0  0  0  0  0
  141.8145   80.3372  219.2094 H   0  0  0  0  0  0  0  0  0  0  0  0
  140.3720   79.3987  219.7885 H   0  0  0  0  0  0  0  0  0  0  0  0
  140.4099   82.7922  222.4455 H   0  0  0  0  0  0  0  0  0  0  0  0
  139.6201   82.4275  220.9355 H   0  0  0  0  0  0  0  0  0  0  0  0
  138.5682   82.2682  223.7507 H   0  0  0  0  0  0  0  0  0  0  0  0
  137.6392   82.4527  222.2530 H   0  0  0  0  0  0  0  0  0  0  0  0
  137.5228   80.1215  223.5866 H   0  0  0  0  0  0  0  0  0  0  0  0
  137.6256   80.0257  221.8611 H   0  0  0  0  0  0  0  0  0  0  0  0
  139.9685   79.8984  223.9288 H   0  0  0  0  0  0  0  0  0  0  0  0
  137.5742   78.1230  222.4925 H   0  0  0  0  0  0  0  0  0  0  0  0
  137.7077   75.7078  222.1355 H   0  0  0  0  0  0  0  0  0  0  0  0
  141.9688   75.8990  222.4843 H   0  0  0  0  0  0  0  0  0  0  0  0
  141.8374   78.3222  222.8425 H   0  0  0  0  0  0  0  0  0  0  0  0
  141.7117   75.5755  217.1253 H   0  0  0  0  0  0  0  0  0  0  0  0
  142.9531   73.4479  216.9811 H   0  0  0  0  0  0  0  0  0  0  0  0
  144.5998   71.9330  217.9065 H   0  0  0  0  0  0  0  0  0  0  0  0
  146.6066   73.0046  221.5432 H   0  0  0  0  0  0  0  0  0  0  0  0
  145.3532   75.1364  221.6779 H   0  0  0  0  0  0  0  0  0  0  0  0
  1  2  2  0
  2  3  1  0
  3  4  1  0
  4  5  1  0
  5  6  2  0
  5  7  1  0
  7  8  1  0
  8  9  1  0
  9 10  1  0
 10 11  1  0
 11 12  1  0
 12 13  2  0
 13 14  1  0
 14 15  2  0
 15 16  1  0
 16 17  1  0
 17 18  1  0
 17 19  1  0
 17 20  1  0
 15 21  1  0
 21 22  2  0
  2 23  1  0
 23 24  2  0
 24 25  1  0
 25 26  2  0
 26 27  1  0
 27 28  2  0
 28 29  1  0
 28 30  1  0
 30 31  2  0
 31 32  1  0
 32 33  2  0
 11  7  1  0
 22 12  1  0
 33 23  1  0
 32 26  1  0
  3 34  1  0
  4 35  1  0
  4 36  1  0
  8 37  1  0
  8 38  1  0
  9 39  1  0
  9 40  1  0
 10 41  1  0
 10 42  1  0
 11 43  1  1
 13 44  1  0
 14 45  1  0
 21 46  1  0
 22 47  1  0
 24 48  1  0
 25 49  1  0
 27 50  1  0
 30 51  1  0
 31 52  1  0
M  END
>  <smiles>  (52) 
O=C(NCC(=O)N1CCCC1c1ccc(OC(F)(F)F)cc1)c1ccc2cc(F)ccc2n1

>  <score_type>  (52) 
oracle

>  <origin>  (52) 
autodockgpu

>  <m_score__min__energy>  (52) 
-8.4399999999999995

>  <m_primary>  (52) 
energy

>  <rmsd>  (52) 
8.004100556556796

>  <m_score__min__rmsd>  (52) 
8.004100556556796

>  <meeko>  (52) 
{"free_energy": -6.45, "intermolecular_energy": -8.53, "internal_energy": -2.75, "cluster_size": 5, "cluster_id": 7, "rank_in_cluster": 2}

>  <energy>  (52) 
-8.32

>  <cluster_rmsd>  (52) 
0.35

>  <cluster>  (52) 
1

$$$$

     RDKit          3D

 52 55  0  0  0  0  0  0  0  0999 V2000
  140.7880   71.6560  221.1630 O   0  0  0  0  0  0  0  0  0  0  0  0
  140.3220   72.1940  222.2260 C   0  0  0  0  0  0  0  0  0  0  0  0
  139.9350   73.5610  222.2580 N   0  0  0  0  0  0  0  0  0  0  0  0
  140.0790   74.3310  221.0590 C   0  0  0  0  0  0  0  0  0  0  0  0
  140.6220   75.6870  221.3290 C   0  0  0  0  0  0  0  0  0  0  0  0
  140.5300   76.0880  222.5350 O   0  0  0  0  0  0  0  0  0  0  0  0
  141.2140   76.5000  220.3100 N   0  0  0  0  0  0  0  0  0  0  0  0
  141.0500   77.9430  220.2960 C   0  0  0  0  0  0  0  0  0  0  0  0
  141.9960   78.3500  219.1900 C   0  0  0  0  0  0  0  0  0  0  0  0
  142.9540   77.1900  219.0090 C   0  0  0  0  0  0  0  0  0  0  0  0
  142.0060   76.0300  219.2230 C   0  0  1  0  0  0  0  0  0  0  0  0
  142.6620   74.7470  219.3710 C   0  0  0  0  0  0  0  0  0  0  0  0
  143.5680   74.5150  220.3990 C   0  0  0  0  0  0  0  0  0  0  0  0
  144.2060   73.3090  220.5740 C   0  0  0  0  0  0  0  0  0  0  0  0
  143.9670   72.2570  219.7150 C   0  0  0  0  0  0  0  0  0  0  0  0
  144.5960   71.0240  219.8630 O   0  0  0  0  0  0  0  0  0  0  0  0
  143.8740   69.8030  219.6320 C   0  0  0  0  0  0  0  0  0  0  0  0
  144.4750   68.7510  220.2730 F   0  0  0  0  0  0  0  0  0  0  0  0
  142.5750   70.0110  220.0430 F   0  0  0  0  0  0  0  0  0  0  0  0
  143.8210   69.5360  218.2780 F   0  0  0  0  0  0  0  0  0  0  0  0
  143.0720   72.4540  218.6850 C   0  0  0  0  0  0  0  0  0  0  0  0
  142.4360   73.6650  218.5140 C   0  0  0  0  0  0  0  0  0  0  0  0
  140.1940   71.3640  223.4270 C   0  0  0  0  0  0  0  0  0  0  0  0
  139.5720   70.1350  223.3610 C   0  0  0  0  0  0  0  0  0  0  0  0
  139.4310   69.3210  224.4660 C   0  0  0  0  0  0  0  0  0  0  0  0
  139.9280   69.7470  225.6840 C   0  0  0  0  0  0  0  0  0  0  0  0
  139.8020   68.9510  226.8070 C   0  0  0  0  0  0  0  0  0  0  0  0
  140.3080   69.3980  228.0130 C   0  0  0  0  0  0  0  0  0  0  0  0
  140.1690   68.5970  229.0960 F   0  0  0  0  0  0  0  0  0  0  0  0
  140.9290   70.6350  228.0660 C   0  0  0  0  0  0  0  0  0  0  0  0
  141.0690   71.4490  226.9590 C   0  0  0  0  0  0  0  0  0  0  0  0
  140.5570   70.9940  225.7400 C   0  0  0  0  0  0  0  0  0  0  0  0
  140.6640   71.7420  224.6290 N   0  0  0  0  0  0  0  0  0  0  0  0
  139.5520   73.9930  223.1420 H   0  0  0  0  0  0  0  0  0  0  0  0
  140.7636   73.8035  220.3785 H   0  0  0  0  0  0  0  0  0  0  0  0
  139.0820   74.4482  220.6093 H   0  0  0  0  0  0  0  0  0  0  0  0
  140.0134   78.2262  220.0610 H   0  0  0  0  0  0  0  0  0  0  0  0
  141.2601   78.4250  221.2622 H   0  0  0  0  0  0  0  0  0  0  0  0
  141.4390   78.5339  218.2595 H   0  0  0  0  0  0  0  0  0  0  0  0
  142.5310   79.2781  219.4398 H   0  0  0  0  0  0  0  0  0  0  0  0
  143.3936   77.1772  218.0008 H   0  0  0  0  0  0  0  0  0  0  0  0
  143.8283   77.2029  219.6764 H   0  0  0  0  0  0  0  0  0  0  0  0
  141.3786   75.7774  218.3555 H   0  0  0  0  0  0  0  0  0  0  0  0
  143.7844   75.3316  221.1036 H   0  0  0  0  0  0  0  0  0  0  0  0
  144.9134   73.1825  221.4068 H   0  0  0  0  0  0  0  0  0  0  0  0
  142.8617   71.6301  217.9872 H   0  0  0  0  0  0  0  0  0  0  0  0
  141.7299   73.7839  217.6789 H   0  0  0  0  0  0  0  0  0  0  0  0
  139.1747   69.7919  222.3943 H   0  0  0  0  0  0  0  0  0  0  0  0
  138.9297   68.3457  224.3792 H   0  0  0  0  0  0  0  0  0  0  0  0
  139.3043   67.9722  226.7416 H   0  0  0  0  0  0  0  0  0  0  0  0
  141.3274   70.9837  229.0302 H   0  0  0  0  0  0  0  0  0  0  0  0
  141.5684   72.4262  227.0341 H   0  0  0  0  0  0  0  0  0  0  0  0
  1  2  2  0
  2  3  1  0
  3  4  1  0
  4  5  1  0
  5  6  2  0
  5  7  1  0
  7  8  1  0
  8  9  1  0
  9 10  1  0
 10 11  1  0
 11 12  1  0
 12 13  2  0
 13 14  1  0
 14 15  2  0
 15 16  1  0
 16 17  1  0
 17 18  1  0
 17 19  1  0
 17 20  1  0
 15 21  1  0
 21 22  2  0
  2 23  1  0
 23 24  2  0
 24 25  1  0
 25 26  2  0
 26 27  1  0
 27 28  2  0
 28 29  1  0
 28 30  1  0
 30 31  2  0
 31 32  1  0
 32 33  2  0
 11  7  1  0
 22 12  1  0
 33 23  1  0
 32 26  1  0
  3 34  1  0
  4 35  1  0
  4 36  1  0
  8 37  1  0
  8 38  1  0
  9 39  1  0
  9 40  1  0
 10 41  1  0
 10 42  1  0
 11 43  1  6
 13 44  1  0
 14 45  1  0
 21 46  1  0
 22 47  1  0
 24 48  1  0
 25 49  1  0
 27 50  1  0
 30 51  1  0
 31 52  1  0
M  END
>  <smiles>  (53) 
O=C(NCC(=O)N1CCCC1c1ccc(OC(F)(F)F)cc1)c1ccc2cc(F)ccc2n1

>  <score_type>  (53) 
oracle

>  <origin>  (53) 
autodockgpu

>  <m_score__min__energy>  (53) 
-8.4399999999999995

>  <m_primary>  (53) 
energy

>  <rmsd>  (53) 
2.1504426500105955

>  <m_score__min__rmsd>  (53) 
2.1504426500105955

>  <meeko>  (53) 
{"free_energy": -7.22, "intermolecular_energy": -9.31, "internal_energy": -2.24, "cluster_size": 13, "cluster_id": 2, "rank_in_cluster": 12}

>  <energy>  (53) 
-8.3

>  <cluster_rmsd>  (53) 
0.48

>  <cluster>  (53) 
1

$$$$

     RDKit          3D

 52 55  0  0  0  0  0  0  0  0999 V2000
  140.3560   77.2230  218.6370 O   0  0  0  0  0  0  0  0  0  0  0  0
  141.5830   77.2680  218.9940 C   0  0  0  0  0  0  0  0  0  0  0  0
  142.2000   78.4900  219.3770 N   0  0  0  0  0  0  0  0  0  0  0  0
  141.4060   79.6830  219.3560 C   0  0  0  0  0  0  0  0  0  0  0  0
  140.8360   79.9970  220.6910 C   0  0  0  0  0  0  0  0  0  0  0  0
  139.6320   80.4160  220.6920 O   0  0  0  0  0  0  0  0  0  0  0  0
  141.5790   79.8430  221.9050 N   0  0  0  0  0  0  0  0  0  0  0  0
  142.2640   80.9630  222.5260 C   0  0  0  0  0  0  0  0  0  0  0  0
  142.7110   80.3620  223.8380 C   0  0  0  0  0  0  0  0  0  0  0  0
  141.8430   79.1390  224.0570 C   0  0  0  0  0  0  0  0  0  0  0  0
  141.7420   78.6300  222.6350 C   0  0  1  0  0  0  0  0  0  0  0  0
  140.7520   77.5900  222.4450 C   0  0  0  0  0  0  0  0  0  0  0  0
  139.3960   77.8480  222.6060 C   0  0  0  0  0  0  0  0  0  0  0  0
  138.4270   76.8880  222.4300 C   0  0  0  0  0  0  0  0  0  0  0  0
  138.7710   75.6000  222.0790 C   0  0  0  0  0  0  0  0  0  0  0  0
  137.8170   74.6040  221.8930 O   0  0  0  0  0  0  0  0  0  0  0  0
  138.0660   73.5110  220.9940 C   0  0  0  0  0  0  0  0  0  0  0  0
  138.9540   72.6200  221.5400 F   0  0  0  0  0  0  0  0  0  0  0  0
  136.8480   72.9400  220.6940 F   0  0  0  0  0  0  0  0  0  0  0  0
  138.5820   73.9870  219.8040 F   0  0  0  0  0  0  0  0  0  0  0  0
  140.1090   75.3110  221.9100 C   0  0  0  0  0  0  0  0  0  0  0  0
  141.0760   76.2780  222.0880 C   0  0  0  0  0  0  0  0  0  0  0  0
  142.3530   76.0210  218.9990 C   0  0  0  0  0  0  0  0  0  0  0  0
  142.0100   74.9870  218.1540 C   0  0  0  0  0  0  0  0  0  0  0  0
  142.7070   73.7980  218.1250 C   0  0  0  0  0  0  0  0  0  0  0  0
  143.7880   73.6300  218.9710 C   0  0  0  0  0  0  0  0  0  0  0  0
  144.5050   72.4490  218.9630 C   0  0  0  0  0  0  0  0  0  0  0  0
  145.5830   72.3060  219.8160 C   0  0  0  0  0  0  0  0  0  0  0  0
  146.2670   71.1380  219.7850 F   0  0  0  0  0  0  0  0  0  0  0  0
  145.9170   73.3510  220.6610 C   0  0  0  0  0  0  0  0  0  0  0  0
  145.2170   74.5430  220.6890 C   0  0  0  0  0  0  0  0  0  0  0  0
  144.1280   74.6850  219.8240 C   0  0  0  0  0  0  0  0  0  0  0  0
  143.4100   75.8200  219.8060 N   0  0  0  0  0  0  0  0  0  0  0  0
  143.2140   78.5140  219.6690 H   0  0  0  0  0  0  0  0  0  0  0  0
  142.0374   80.5239  219.0330 H   0  0  0  0  0  0  0  0  0  0  0  0
  140.5699   79.5218  218.6596 H   0  0  0  0  0  0  0  0  0  0  0  0
  143.1230   81.2917  221.9226 H   0  0  0  0  0  0  0  0  0  0  0  0
  141.6392   81.8615  222.6372 H   0  0  0  0  0  0  0  0  0  0  0  0
  143.7711   80.0732  223.7842 H   0  0  0  0  0  0  0  0  0  0  0  0
  142.6093   81.0805  224.6647 H   0  0  0  0  0  0  0  0  0  0  0  0
  142.3287   78.4070  224.7190 H   0  0  0  0  0  0  0  0  0  0  0  0
  140.8786   79.3372  224.5476 H   0  0  0  0  0  0  0  0  0  0  0  0
  142.6182   78.0675  222.2803 H   0  0  0  0  0  0  0  0  0  0  0  0
  139.0839   78.8648  222.8866 H   0  0  0  0  0  0  0  0  0  0  0  0
  137.3680   77.1503  222.5705 H   0  0  0  0  0  0  0  0  0  0  0  0
  140.4101   74.2912  221.6283 H   0  0  0  0  0  0  0  0  0  0  0  0
  142.1330   76.0090  221.9449 H   0  0  0  0  0  0  0  0  0  0  0  0
  141.1504   75.1152  217.4797 H   0  0  0  0  0  0  0  0  0  0  0  0
  142.4072   72.9932  217.4377 H   0  0  0  0  0  0  0  0  0  0  0  0
  144.2208   71.6310  218.2847 H   0  0  0  0  0  0  0  0  0  0  0  0
  146.7750   73.2276  221.3382 H   0  0  0  0  0  0  0  0  0  0  0  0
  145.5082   75.3551  221.3714 H   0  0  0  0  0  0  0  0  0  0  0  0
  1  2  2  0
  2  3  1  0
  3  4  1  0
  4  5  1  0
  5  6  2  0
  5  7  1  0
  7  8  1  0
  8  9  1  0
  9 10  1  0
 10 11  1  0
 11 12  1  0
 12 13  2  0
 13 14  1  0
 14 15  2  0
 15 16  1  0
 16 17  1  0
 17 18  1  0
 17 19  1  0
 17 20  1  0
 15 21  1  0
 21 22  2  0
  2 23  1  0
 23 24  2  0
 24 25  1  0
 25 26  2  0
 26 27  1  0
 27 28  2  0
 28 29  1  0
 28 30  1  0
 30 31  2  0
 31 32  1  0
 32 33  2  0
 11  7  1  0
 22 12  1  0
 33 23  1  0
 32 26  1  0
  3 34  1  0
  4 35  1  0
  4 36  1  0
  8 37  1  0
  8 38  1  0
  9 39  1  0
  9 40  1  0
 10 41  1  0
 10 42  1  0
 11 43  1  6
 13 44  1  0
 14 45  1  0
 21 46  1  0
 22 47  1  0
 24 48  1  0
 25 49  1  0
 27 50  1  0
 30 51  1  0
 31 52  1  0
M  END
>  <smiles>  (54) 
O=C(NCC(=O)N1CCCC1c1ccc(OC(F)(F)F)cc1)c1ccc2cc(F)ccc2n1

>  <score_type>  (54) 
oracle

>  <origin>  (54) 
autodockgpu

>  <m_score__min__energy>  (54) 
-8.4399999999999995

>  <m_primary>  (54) 
energy

>  <rmsd>  (54) 
7.8183366195038415

>  <m_score__min__rmsd>  (54) 
7.8183366195038415

>  <meeko>  (54) 
{"free_energy": -6.23, "intermolecular_energy": -8.32, "internal_energy": -2.61, "cluster_size": 5, "cluster_id": 7, "rank_in_cluster": 4}

>  <energy>  (54) 
-8.29

>  <cluster_rmsd>  (54) 
0.34

>  <cluster>  (54) 
1

$$$$

     RDKit          3D

 52 55  0  0  0  0  0  0  0  0999 V2000
  141.3900   72.1150  221.4440 O   0  0  0  0  0  0  0  0  0  0  0  0
  140.4540   72.4190  222.2610 C   0  0  0  0  0  0  0  0  0  0  0  0
  139.6200   73.5510  222.0470 N   0  0  0  0  0  0  0  0  0  0  0  0
  139.8550   74.3500  220.8810 C   0  0  0  0  0  0  0  0  0  0  0  0
  140.8610   75.4150  221.1290 C   0  0  0  0  0  0  0  0  0  0  0  0
  141.4520   75.3640  222.2570 O   0  0  0  0  0  0  0  0  0  0  0  0
  141.1570   76.4360  220.1720 N   0  0  0  0  0  0  0  0  0  0  0  0
  140.5860   77.7680  220.2770 C   0  0  0  0  0  0  0  0  0  0  0  0
  141.3340   78.5110  219.1940 C   0  0  0  0  0  0  0  0  0  0  0  0
  142.5780   77.6930  218.9070 C   0  0  0  0  0  0  0  0  0  0  0  0
  142.0100   76.2960  219.0390 C   0  0  1  0  0  0  0  0  0  0  0  0
  143.0110   75.2500  219.0730 C   0  0  0  0  0  0  0  0  0  0  0  0
  143.1220   74.3240  218.0410 C   0  0  0  0  0  0  0  0  0  0  0  0
  144.0610   73.3200  218.0370 C   0  0  0  0  0  0  0  0  0  0  0  0
  144.9520   73.1880  219.0810 C   0  0  0  0  0  0  0  0  0  0  0  0
  145.9150   72.1830  219.1090 O   0  0  0  0  0  0  0  0  0  0  0  0
  145.5390   70.8050  218.9540 C   0  0  0  0  0  0  0  0  0  0  0  0
  145.1620   70.5430  217.6620 F   0  0  0  0  0  0  0  0  0  0  0  0
  146.6080   70.0400  219.3680 F   0  0  0  0  0  0  0  0  0  0  0  0
  144.4880   70.5050  219.7990 F   0  0  0  0  0  0  0  0  0  0  0  0
  144.8700   74.0900  220.1200 C   0  0  0  0  0  0  0  0  0  0  0  0
  143.9250   75.0950  220.1190 C   0  0  0  0  0  0  0  0  0  0  0  0
  140.2530   71.5700  223.4380 C   0  0  0  0  0  0  0  0  0  0  0  0
  139.5790   70.3720  223.3260 C   0  0  0  0  0  0  0  0  0  0  0  0
  139.3690   69.5410  224.4060 C   0  0  0  0  0  0  0  0  0  0  0  0
  139.8490   69.9170  225.6480 C   0  0  0  0  0  0  0  0  0  0  0  0
  139.6530   69.1040  226.7470 C   0  0  0  0  0  0  0  0  0  0  0  0
  140.1430   69.5000  227.9780 C   0  0  0  0  0  0  0  0  0  0  0  0
  139.9370   68.6820  229.0370 F   0  0  0  0  0  0  0  0  0  0  0  0
  140.8180   70.7060  228.0780 C   0  0  0  0  0  0  0  0  0  0  0  0
  141.0260   71.5370  226.9940 C   0  0  0  0  0  0  0  0  0  0  0  0
  140.5310   71.1330  225.7510 C   0  0  0  0  0  0  0  0  0  0  0  0
  140.7040   71.9000  224.6610 N   0  0  0  0  0  0  0  0  0  0  0  0
  138.8510   73.7920  222.7280 H   0  0  0  0  0  0  0  0  0  0  0  0
  140.2188   73.6993  220.0721 H   0  0  0  0  0  0  0  0  0  0  0  0
  138.9072   74.8356  220.6055 H   0  0  0  0  0  0  0  0  0  0  0  0
  139.5037   77.7565  220.0806 H   0  0  0  0  0  0  0  0  0  0  0  0
  140.6852   78.2178  221.2759 H   0  0  0  0  0  0  0  0  0  0  0  0
  140.7139   78.5935  218.2892 H   0  0  0  0  0  0  0  0  0  0  0  0
  141.5887   79.5334  219.5098 H   0  0  0  0  0  0  0  0  0  0  0  0
  142.9664   77.8819  217.8953 H   0  0  0  0  0  0  0  0  0  0  0  0
  143.4354   77.9084  219.5616 H   0  0  0  0  0  0  0  0  0  0  0  0
  141.4495   75.9380  218.1628 H   0  0  0  0  0  0  0  0  0  0  0  0
  142.4280   74.3983  217.1908 H   0  0  0  0  0  0  0  0  0  0  0  0
  144.1020   72.6155  217.1932 H   0  0  0  0  0  0  0  0  0  0  0  0
  145.5701   74.0070  220.9644 H   0  0  0  0  0  0  0  0  0  0  0  0
  143.8898   75.7952  220.9666 H   0  0  0  0  0  0  0  0  0  0  0  0
  139.1955   70.0689  222.3406 H   0  0  0  0  0  0  0  0  0  0  0  0
  138.8271   68.5918  224.2819 H   0  0  0  0  0  0  0  0  0  0  0  0
  139.1127   68.1513  226.6442 H   0  0  0  0  0  0  0  0  0  0  0  0
  141.2041   71.0144  229.0608 H   0  0  0  0  0  0  0  0  0  0  0  0
  141.5656   72.4890  227.1060 H   0  0  0  0  0  0  0  0  0  0  0  0
  1  2  2  0
  2  3  1  0
  3  4  1  0
  4  5  1  0
  5  6  2  0
  5  7  1  0
  7  8  1  0
  8  9  1  0
  9 10  1  0
 10 11  1  0
 11 12  1  0
 12 13  2  0
 13 14  1  0
 14 15  2  0
 15 16  1  0
 16 17  1  0
 17 18  1  0
 17 19  1  0
 17 20  1  0
 15 21  1  0
 21 22  2  0
  2 23  1  0
 23 24  2  0
 24 25  1  0
 25 26  2  0
 26 27  1  0
 27 28  2  0
 28 29  1  0
 28 30  1  0
 30 31  2  0
 31 32  1  0
 32 33  2  0
 11  7  1  0
 22 12  1  0
 33 23  1  0
 32 26  1  0
  3 34  1  0
  4 35  1  0
  4 36  1  0
  8 37  1  0
  8 38  1  0
  9 39  1  0
  9 40  1  0
 10 41  1  0
 10 42  1  0
 11 43  1  6
 13 44  1  0
 14 45  1  0
 21 46  1  0
 22 47  1  0
 24 48  1  0
 25 49  1  0
 27 50  1  0
 30 51  1  0
 31 52  1  0
M  END
>  <smiles>  (55) 
O=C(NCC(=O)N1CCCC1c1ccc(OC(F)(F)F)cc1)c1ccc2cc(F)ccc2n1

>  <score_type>  (55) 
oracle

>  <origin>  (55) 
autodockgpu

>  <m_score__min__energy>  (55) 
-8.4399999999999995

>  <m_primary>  (55) 
energy

>  <rmsd>  (55) 
2.0535472290412233

>  <m_score__min__rmsd>  (55) 
2.0535472290412233

>  <meeko>  (55) 
{"free_energy": -8.16, "intermolecular_energy": -10.25, "internal_energy": -1.65, "cluster_size": 13, "cluster_id": 2, "rank_in_cluster": 1}

>  <energy>  (55) 
-8.28

>  <cluster_rmsd>  (55) 
0.24

>  <cluster>  (55) 
1

$$$$

     RDKit          3D

 52 55  0  0  0  0  0  0  0  0999 V2000
  141.3780   72.2440  221.7500 O   0  0  0  0  0  0  0  0  0  0  0  0
  140.3980   72.4300  222.5510 C   0  0  0  0  0  0  0  0  0  0  0  0
  139.4580   73.4760  222.3440 N   0  0  0  0  0  0  0  0  0  0  0  0
  139.6340   74.3260  221.2050 C   0  0  0  0  0  0  0  0  0  0  0  0
  140.3420   75.5850  221.5540 C   0  0  0  0  0  0  0  0  0  0  0  0
  140.0880   76.0590  222.7090 O   0  0  0  0  0  0  0  0  0  0  0  0
  141.2530   76.2330  220.6600 N   0  0  0  0  0  0  0  0  0  0  0  0
  141.6950   75.5970  219.4300 C   0  0  0  0  0  0  0  0  0  0  0  0
  142.4540   76.7190  218.7600 C   0  0  0  0  0  0  0  0  0  0  0  0
  141.9750   78.0000  219.4130 C   0  0  0  0  0  0  0  0  0  0  0  0
  141.8240   77.5250  220.8430 C   0  0  1  0  0  0  0  0  0  0  0  0
  141.1270   78.4550  221.7070 C   0  0  0  0  0  0  0  0  0  0  0  0
  140.0250   79.1720  221.2540 C   0  0  0  0  0  0  0  0  0  0  0  0
  139.3360   80.0600  222.0460 C   0  0  0  0  0  0  0  0  0  0  0  0
  139.7180   80.2790  223.3520 C   0  0  0  0  0  0  0  0  0  0  0  0
  139.0430   81.1700  224.1820 O   0  0  0  0  0  0  0  0  0  0  0  0
  137.6340   81.0210  224.4220 C   0  0  0  0  0  0  0  0  0  0  0  0
  136.9300   82.0550  223.8610 F   0  0  0  0  0  0  0  0  0  0  0  0
  137.2630   79.7880  223.9300 F   0  0  0  0  0  0  0  0  0  0  0  0
  137.3880   80.9940  225.7810 F   0  0  0  0  0  0  0  0  0  0  0  0
  140.8070   79.5830  223.8330 C   0  0  0  0  0  0  0  0  0  0  0  0
  141.4950   78.6940  223.0340 C   0  0  0  0  0  0  0  0  0  0  0  0
  140.2600   71.5330  223.7020 C   0  0  0  0  0  0  0  0  0  0  0  0
  139.6620   70.2990  223.5550 C   0  0  0  0  0  0  0  0  0  0  0  0
  139.5130   69.4230  224.6100 C   0  0  0  0  0  0  0  0  0  0  0  0
  139.9770   69.7890  225.8610 C   0  0  0  0  0  0  0  0  0  0  0  0
  139.8420   68.9310  226.9340 C   0  0  0  0  0  0  0  0  0  0  0  0
  140.3150   69.3190  228.1740 C   0  0  0  0  0  0  0  0  0  0  0  0
  140.1690   68.4570  229.2080 F   0  0  0  0  0  0  0  0  0  0  0  0
  140.9130   70.5610  228.3080 C   0  0  0  0  0  0  0  0  0  0  0  0
  141.0610   71.4380  227.2500 C   0  0  0  0  0  0  0  0  0  0  0  0
  140.5820   71.0420  225.9980 C   0  0  0  0  0  0  0  0  0  0  0  0
  140.6980   71.8520  224.9320 N   0  0  0  0  0  0  0  0  0  0  0  0
  138.6530   73.6190  223.0130 H   0  0  0  0  0  0  0  0  0  0  0  0
  140.2210   73.7869  220.4469 H   0  0  0  0  0  0  0  0  0  0  0  0
  138.6376   74.5915  220.8220 H   0  0  0  0  0  0  0  0  0  0  0  0
  142.3495   74.7373  219.6360 H   0  0  0  0  0  0  0  0  0  0  0  0
  140.8764   75.1858  218.8210 H   0  0  0  0  0  0  0  0  0  0  0  0
  143.5358   76.5934  218.9143 H   0  0  0  0  0  0  0  0  0  0  0  0
  142.2772   76.7312  217.6744 H   0  0  0  0  0  0  0  0  0  0  0  0
  142.7193   78.8054  219.3267 H   0  0  0  0  0  0  0  0  0  0  0  0
  141.0664   78.4342  218.9704 H   0  0  0  0  0  0  0  0  0  0  0  0
  142.7624   77.4665  221.4140 H   0  0  0  0  0  0  0  0  0  0  0  0
  139.6899   79.0223  220.2170 H   0  0  0  0  0  0  0  0  0  0  0  0
  138.4716   80.6008  221.6333 H   0  0  0  0  0  0  0  0  0  0  0  0
  141.1326   79.7396  224.8720 H   0  0  0  0  0  0  0  0  0  0  0  0
  142.3587   78.1573  223.4534 H   0  0  0  0  0  0  0  0  0  0  0  0
  139.2912   70.0032  222.5625 H   0  0  0  0  0  0  0  0  0  0  0  0
  139.0313   68.4457  224.4586 H   0  0  0  0  0  0  0  0  0  0  0  0
  139.3633   67.9492  226.8039 H   0  0  0  0  0  0  0  0  0  0  0  0
  141.2858   70.8622  229.2981 H   0  0  0  0  0  0  0  0  0  0  0  0
  141.5412   72.4179  227.3891 H   0  0  0  0  0  0  0  0  0  0  0  0
  1  2  2  0
  2  3  1  0
  3  4  1  0
  4  5  1  0
  5  6  2  0
  5  7  1  0
  7  8  1  0
  8  9  1  0
  9 10  1  0
 10 11  1  0
 11 12  1  0
 12 13  2  0
 13 14  1  0
 14 15  2  0
 15 16  1  0
 16 17  1  0
 17 18  1  0
 17 19  1  0
 17 20  1  0
 15 21  1  0
 21 22  2  0
  2 23  1  0
 23 24  2  0
 24 25  1  0
 25 26  2  0
 26 27  1  0
 27 28  2  0
 28 29  1  0
 28 30  1  0
 30 31  2  0
 31 32  1  0
 32 33  2  0
 11  7  1  0
 22 12  1  0
 33 23  1  0
 32 26  1  0
  3 34  1  0
  4 35  1  0
  4 36  1  0
  8 37  1  0
  8 38  1  0
  9 39  1  0
  9 40  1  0
 10 41  1  0
 10 42  1  0
 11 43  1  1
 13 44  1  0
 14 45  1  0
 21 46  1  0
 22 47  1  0
 24 48  1  0
 25 49  1  0
 27 50  1  0
 30 51  1  0
 31 52  1  0
M  END
>  <smiles>  (56) 
O=C(NCC(=O)N1CCCC1c1ccc(OC(F)(F)F)cc1)c1ccc2cc(F)ccc2n1

>  <score_type>  (56) 
oracle

>  <origin>  (56) 
autodockgpu

>  <m_score__min__energy>  (56) 
-8.4399999999999995

>  <m_primary>  (56) 
energy

>  <rmsd>  (56) 
1.7697685951473223

>  <m_score__min__rmsd>  (56) 
1.7697685951473223

>  <meeko>  (56) 
{"free_energy": -8.44, "intermolecular_energy": -10.52, "internal_energy": -1.43, "cluster_size": 13, "cluster_id": 1, "rank_in_cluster": 1}

>  <energy>  (56) 
-8.26

>  <cluster_rmsd>  (56) 
0.38

>  <cluster>  (56) 
1

$$$$

     RDKit          3D

 52 55  0  0  0  0  0  0  0  0999 V2000
  141.0510   71.7130  221.2990 O   0  0  0  0  0  0  0  0  0  0  0  0
  140.4660   72.2300  222.3120 C   0  0  0  0  0  0  0  0  0  0  0  0
  140.0060   73.5760  222.2970 N   0  0  0  0  0  0  0  0  0  0  0  0
  140.2160   74.3470  221.1080 C   0  0  0  0  0  0  0  0  0  0  0  0
  140.6210   75.7420  221.4130 C   0  0  0  0  0  0  0  0  0  0  0  0
  140.1940   76.2130  222.5180 O   0  0  0  0  0  0  0  0  0  0  0  0
  141.4390   76.5200  220.5320 N   0  0  0  0  0  0  0  0  0  0  0  0
  141.9020   75.9940  219.2590 C   0  0  0  0  0  0  0  0  0  0  0  0
  142.5300   77.2160  218.6310 C   0  0  0  0  0  0  0  0  0  0  0  0
  141.9520   78.4100  219.3640 C   0  0  0  0  0  0  0  0  0  0  0  0
  141.8910   77.8500  220.7700 C   0  0  1  0  0  0  0  0  0  0  0  0
  141.1350   78.6630  221.7000 C   0  0  0  0  0  0  0  0  0  0  0  0
  139.8960   79.1900  221.3550 C   0  0  0  0  0  0  0  0  0  0  0  0
  139.1480   79.9610  222.2130 C   0  0  0  0  0  0  0  0  0  0  0  0
  139.6090   80.2510  223.4800 C   0  0  0  0  0  0  0  0  0  0  0  0
  138.8780   81.0290  224.3730 O   0  0  0  0  0  0  0  0  0  0  0  0
  137.4420   81.0440  224.3250 C   0  0  0  0  0  0  0  0  0  0  0  0
  136.9920   81.9580  223.4060 F   0  0  0  0  0  0  0  0  0  0  0  0
  137.0280   79.7590  224.0510 F   0  0  0  0  0  0  0  0  0  0  0  0
  136.9310   81.3660  225.5670 F   0  0  0  0  0  0  0  0  0  0  0  0
  140.8350   79.7440  223.8540 C   0  0  0  0  0  0  0  0  0  0  0  0
  141.5800   78.9700  222.9890 C   0  0  0  0  0  0  0  0  0  0  0  0
  140.2750   71.4010  223.5050 C   0  0  0  0  0  0  0  0  0  0  0  0
  139.6200   70.1900  223.4140 C   0  0  0  0  0  0  0  0  0  0  0  0
  139.4200   69.3780  224.5100 C   0  0  0  0  0  0  0  0  0  0  0  0
  139.8900   69.7850  225.7460 C   0  0  0  0  0  0  0  0  0  0  0  0
  139.7040   68.9900  226.8600 C   0  0  0  0  0  0  0  0  0  0  0  0
  140.1840   69.4180  228.0840 C   0  0  0  0  0  0  0  0  0  0  0  0
  139.9880   68.6170  229.1580 F   0  0  0  0  0  0  0  0  0  0  0  0
  140.8400   70.6350  228.1620 C   0  0  0  0  0  0  0  0  0  0  0  0
  141.0390   71.4490  227.0630 C   0  0  0  0  0  0  0  0  0  0  0  0
  140.5530   71.0130  225.8270 C   0  0  0  0  0  0  0  0  0  0  0  0
  140.7170   71.7620  224.7230 N   0  0  0  0  0  0  0  0  0  0  0  0
  139.5250   73.9910  223.1400 H   0  0  0  0  0  0  0  0  0  0  0  0
  141.0073   73.8702  220.5109 H   0  0  0  0  0  0  0  0  0  0  0  0
  139.2660   74.3828  220.5546 H   0  0  0  0  0  0  0  0  0  0  0  0
  142.6413   75.1921  219.4018 H   0  0  0  0  0  0  0  0  0  0  0  0
  141.1079   75.5378  218.6497 H   0  0  0  0  0  0  0  0  0  0  0  0
  143.6231   77.1874  218.7504 H   0  0  0  0  0  0  0  0  0  0  0  0
  142.3196   77.2664  217.5525 H   0  0  0  0  0  0  0  0  0  0  0  0
  142.6135   79.2867  219.3019 H   0  0  0  0  0  0  0  0  0  0  0  0
  140.9931   78.7768  218.9690 H   0  0  0  0  0  0  0  0  0  0  0  0
  142.8478   77.8529  221.3127 H   0  0  0  0  0  0  0  0  0  0  0  0
  139.4965   78.9811  220.3516 H   0  0  0  0  0  0  0  0  0  0  0  0
  138.1726   80.3503  221.8858 H   0  0  0  0  0  0  0  0  0  0  0  0
  141.2258   79.9603  224.8592 H   0  0  0  0  0  0  0  0  0  0  0  0
  142.5537   78.5826  223.3236 H   0  0  0  0  0  0  0  0  0  0  0  0
  139.2446   69.8613  222.4337 H   0  0  0  0  0  0  0  0  0  0  0  0
  138.8932   68.4183  224.4031 H   0  0  0  0  0  0  0  0  0  0  0  0
  139.1797   68.0268  226.7744 H   0  0  0  0  0  0  0  0  0  0  0  0
  141.2186   70.9678  229.1397 H   0  0  0  0  0  0  0  0  0  0  0  0
  141.5640   72.4109  227.1580 H   0  0  0  0  0  0  0  0  0  0  0  0
  1  2  2  0
  2  3  1  0
  3  4  1  0
  4  5  1  0
  5  6  2  0
  5  7  1  0
  7  8  1  0
  8  9  1  0
  9 10  1  0
 10 11  1  0
 11 12  1  0
 12 13  2  0
 13 14  1  0
 14 15  2  0
 15 16  1  0
 16 17  1  0
 17 18  1  0
 17 19  1  0
 17 20  1  0
 15 21  1  0
 21 22  2  0
  2 23  1  0
 23 24  2  0
 24 25  1  0
 25 26  2  0
 26 27  1  0
 27 28  2  0
 28 29  1  0
 28 30  1  0
 30 31  2  0
 31 32  1  0
 32 33  2  0
 11  7  1  0
 22 12  1  0
 33 23  1  0
 32 26  1  0
  3 34  1  0
  4 35  1  0
  4 36  1  0
  8 37  1  0
  8 38  1  0
  9 39  1  0
  9 40  1  0
 10 41  1  0
 10 42  1  0
 11 43  1  1
 13 44  1  0
 14 45  1  0
 21 46  1  0
 22 47  1  0
 24 48  1  0
 25 49  1  0
 27 50  1  0
 30 51  1  0
 31 52  1  0
M  END
>  <smiles>  (57) 
O=C(NCC(=O)N1CCCC1c1ccc(OC(F)(F)F)cc1)c1ccc2cc(F)ccc2n1

>  <score_type>  (57) 
oracle

>  <origin>  (57) 
autodockgpu

>  <m_score__min__energy>  (57) 
-8.4399999999999995

>  <m_primary>  (57) 
energy

>  <rmsd>  (57) 
1.8992154783263968

>  <m_score__min__rmsd>  (57) 
1.8992154783263968

>  <meeko>  (57) 
{"free_energy": -8.24, "intermolecular_energy": -10.33, "internal_energy": -1.65, "cluster_size": 13, "cluster_id": 1, "rank_in_cluster": 8}

>  <energy>  (57) 
-8.25

>  <cluster_rmsd>  (57) 
0.35

>  <cluster>  (57) 
1

$$$$

     RDKit          3D

 52 55  0  0  0  0  0  0  0  0999 V2000
  138.7020   70.9630  221.1280 O   0  0  0  0  0  0  0  0  0  0  0  0
  138.9010   71.6430  222.1930 C   0  0  0  0  0  0  0  0  0  0  0  0
  138.7950   73.0610  222.1990 N   0  0  0  0  0  0  0  0  0  0  0  0
  138.4540   73.7170  220.9720 C   0  0  0  0  0  0  0  0  0  0  0  0
  139.5550   73.6470  219.9780 C   0  0  0  0  0  0  0  0  0  0  0  0
  139.2440   73.9720  218.7850 O   0  0  0  0  0  0  0  0  0  0  0  0
  140.8840   73.2430  220.3240 N   0  0  0  0  0  0  0  0  0  0  0  0
  141.4340   71.9730  219.8810 C   0  0  0  0  0  0  0  0  0  0  0  0
  142.8780   72.0960  220.3110 C   0  0  0  0  0  0  0  0  0  0  0  0
  143.1320   73.5770  220.5100 C   0  0  0  0  0  0  0  0  0  0  0  0
  141.8060   73.9930  221.1110 C   0  0  1  0  0  0  0  0  0  0  0  0
  141.6140   75.4260  221.1920 C   0  0  0  0  0  0  0  0  0  0  0  0
  140.9130   76.0010  222.2460 C   0  0  0  0  0  0  0  0  0  0  0  0
  140.7140   77.3560  222.3590 C   0  0  0  0  0  0  0  0  0  0  0  0
  141.2150   78.2210  221.4090 C   0  0  0  0  0  0  0  0  0  0  0  0
  141.0320   79.5980  221.4920 O   0  0  0  0  0  0  0  0  0  0  0  0
  141.7590   80.3750  222.4580 C   0  0  0  0  0  0  0  0  0  0  0  0
  142.9790   79.8080  222.7240 F   0  0  0  0  0  0  0  0  0  0  0  0
  141.8590   81.6570  221.9610 F   0  0  0  0  0  0  0  0  0  0  0  0
  141.0380   80.4630  223.6330 F   0  0  0  0  0  0  0  0  0  0  0  0
  141.9170   77.6840  220.3510 C   0  0  0  0  0  0  0  0  0  0  0  0
  142.1130   76.3230  220.2420 C   0  0  0  0  0  0  0  0  0  0  0  0
  139.2470   70.9260  223.4230 C   0  0  0  0  0  0  0  0  0  0  0  0
  138.9790   69.5780  223.5420 C   0  0  0  0  0  0  0  0  0  0  0  0
  139.2880   68.8640  224.6800 C   0  0  0  0  0  0  0  0  0  0  0  0
  139.8890   69.5160  225.7430 C   0  0  0  0  0  0  0  0  0  0  0  0
  140.2110   68.8240  226.8940 C   0  0  0  0  0  0  0  0  0  0  0  0
  140.8110   69.4970  227.9420 C   0  0  0  0  0  0  0  0  0  0  0  0
  141.1160   68.7940  229.0580 F   0  0  0  0  0  0  0  0  0  0  0  0
  141.0740   70.8510  227.8100 C   0  0  0  0  0  0  0  0  0  0  0  0
  140.7630   71.5660  226.6690 C   0  0  0  0  0  0  0  0  0  0  0  0
  140.1560   70.8820  225.6120 C   0  0  0  0  0  0  0  0  0  0  0  0
  139.8310   71.5240  224.4770 N   0  0  0  0  0  0  0  0  0  0  0  0
  138.9620   73.6110  223.0840 H   0  0  0  0  0  0  0  0  0  0  0  0
  137.5614   73.2342  220.5476 H   0  0  0  0  0  0  0  0  0  0  0  0
  138.2653   74.7775  221.1952 H   0  0  0  0  0  0  0  0  0  0  0  0
  140.9385   71.1263  220.3785 H   0  0  0  0  0  0  0  0  0  0  0  0
  141.3037   71.7814  218.8057 H   0  0  0  0  0  0  0  0  0  0  0  0
  143.0442   71.5503  221.2515 H   0  0  0  0  0  0  0  0  0  0  0  0
  143.5589   71.6685  219.5603 H   0  0  0  0  0  0  0  0  0  0  0  0
  143.9683   73.7585  221.2011 H   0  0  0  0  0  0  0  0  0  0  0  0
  143.4201   74.1239  219.6001 H   0  0  0  0  0  0  0  0  0  0  0  0
  141.6905   73.7669  222.1813 H   0  0  0  0  0  0  0  0  0  0  0  0
  140.4994   75.3422  223.0238 H   0  0  0  0  0  0  0  0  0  0  0  0
  140.1499   77.7544  223.2152 H   0  0  0  0  0  0  0  0  0  0  0  0
  142.3280   78.3526  219.5802 H   0  0  0  0  0  0  0  0  0  0  0  0
  142.6781   75.9318  219.3831 H   0  0  0  0  0  0  0  0  0  0  0  0
  138.5024   69.0549  222.6999 H   0  0  0  0  0  0  0  0  0  0  0  0
  139.0599   67.7897  224.7426 H   0  0  0  0  0  0  0  0  0  0  0  0
  139.9924   67.7491  226.9760 H   0  0  0  0  0  0  0  0  0  0  0  0
  141.5506   71.3792  228.6490 H   0  0  0  0  0  0  0  0  0  0  0  0
  140.9863   72.6405  226.5950 H   0  0  0  0  0  0  0  0  0  0  0  0
  1  2  2  0
  2  3  1  0
  3  4  1  0
  4  5  1  0
  5  6  2  0
  5  7  1  0
  7  8  1  0
  8  9  1  0
  9 10  1  0
 10 11  1  0
 11 12  1  0
 12 13  2  0
 13 14  1  0
 14 15  2  0
 15 16  1  0
 16 17  1  0
 17 18  1  0
 17 19  1  0
 17 20  1  0
 15 21  1  0
 21 22  2  0
  2 23  1  0
 23 24  2  0
 24 25  1  0
 25 26  2  0
 26 27  1  0
 27 28  2  0
 28 29  1  0
 28 30  1  0
 30 31  2  0
 31 32  1  0
 32 33  2  0
 11  7  1  0
 22 12  1  0
 33 23  1  0
 32 26  1  0
  3 34  1  0
  4 35  1  0
  4 36  1  0
  8 37  1  0
  8 38  1  0
  9 39  1  0
  9 40  1  0
 10 41  1  0
 10 42  1  0
 11 43  1  1
 13 44  1  0
 14 45  1  0
 21 46  1  0
 22 47  1  0
 24 48  1  0
 25 49  1  0
 27 50  1  0
 30 51  1  0
 31 52  1  0
M  END
>  <smiles>  (58) 
O=C(NCC(=O)N1CCCC1c1ccc(OC(F)(F)F)cc1)c1ccc2cc(F)ccc2n1

>  <score_type>  (58) 
oracle

>  <origin>  (58) 
autodockgpu

>  <m_score__min__energy>  (58) 
-8.4399999999999995

>  <m_primary>  (58) 
energy

>  <rmsd>  (58) 
2.6484984763640704

>  <m_score__min__rmsd>  (58) 
2.6484984763640704

>  <meeko>  (58) 
{"free_energy": -7.08, "intermolecular_energy": -9.17, "internal_energy": -2.1, "cluster_size": 7, "cluster_id": 4, "rank_in_cluster": 7}

>  <energy>  (58) 
-8.24

>  <cluster_rmsd>  (58) 
0.38

>  <cluster>  (58) 
1

$$$$

     RDKit          3D

 52 55  0  0  0  0  0  0  0  0999 V2000
  139.0740   70.8400  221.4980 O   0  0  0  0  0  0  0  0  0  0  0  0
  139.2550   71.6660  222.4590 C   0  0  0  0  0  0  0  0  0  0  0  0
  139.0210   73.0580  222.2950 N   0  0  0  0  0  0  0  0  0  0  0  0
  138.5710   73.5210  221.0150 C   0  0  0  0  0  0  0  0  0  0  0  0
  139.6600   73.5130  220.0060 C   0  0  0  0  0  0  0  0  0  0  0  0
  139.3220   73.8580  218.8260 O   0  0  0  0  0  0  0  0  0  0  0  0
  141.0070   73.1460  220.3230 N   0  0  0  0  0  0  0  0  0  0  0  0
  141.5800   71.8890  219.8750 C   0  0  0  0  0  0  0  0  0  0  0  0
  143.0290   72.0510  220.2710 C   0  0  0  0  0  0  0  0  0  0  0  0
  143.2490   73.5390  220.4580 C   0  0  0  0  0  0  0  0  0  0  0  0
  141.9260   73.9240  221.0860 C   0  0  1  0  0  0  0  0  0  0  0  0
  141.6990   75.3520  221.1640 C   0  0  0  0  0  0  0  0  0  0  0  0
  142.2150   76.2170  220.2070 C   0  0  0  0  0  0  0  0  0  0  0  0
  142.0160   77.5780  220.2460 C   0  0  0  0  0  0  0  0  0  0  0  0
  141.2800   78.1510  221.2610 C   0  0  0  0  0  0  0  0  0  0  0  0
  141.0600   79.5240  221.3310 O   0  0  0  0  0  0  0  0  0  0  0  0
  141.6680   80.3100  222.3690 C   0  0  0  0  0  0  0  0  0  0  0  0
  141.8570   81.6040  221.9560 F   0  0  0  0  0  0  0  0  0  0  0  0
  140.8620   80.2130  223.4820 F   0  0  0  0  0  0  0  0  0  0  0  0
  142.8900   79.7660  222.7180 F   0  0  0  0  0  0  0  0  0  0  0  0
  140.7530   77.3200  222.2270 C   0  0  0  0  0  0  0  0  0  0  0  0
  140.9560   75.9570  222.1830 C   0  0  0  0  0  0  0  0  0  0  0  0
  139.7150   71.1430  223.7480 C   0  0  0  0  0  0  0  0  0  0  0  0
  140.5800   71.8810  224.5300 C   0  0  0  0  0  0  0  0  0  0  0  0
  141.0370   71.4290  225.7500 C   0  0  0  0  0  0  0  0  0  0  0  0
  140.6170   70.1940  226.2110 C   0  0  0  0  0  0  0  0  0  0  0  0
  141.0580   69.7170  227.4300 C   0  0  0  0  0  0  0  0  0  0  0  0
  140.6240   68.4800  227.8700 C   0  0  0  0  0  0  0  0  0  0  0  0
  141.0730   68.0390  229.0690 F   0  0  0  0  0  0  0  0  0  0  0  0
  139.7570   67.7490  227.0750 C   0  0  0  0  0  0  0  0  0  0  0  0
  139.3010   68.2030  225.8520 C   0  0  0  0  0  0  0  0  0  0  0  0
  139.7410   69.4540  225.4110 C   0  0  0  0  0  0  0  0  0  0  0  0
  139.3310   69.9490  224.2300 N   0  0  0  0  0  0  0  0  0  0  0  0
  139.1750   73.7300  223.0950 H   0  0  0  0  0  0  0  0  0  0  0  0
  137.7588   72.8664  220.6660 H   0  0  0  0  0  0  0  0  0  0  0  0
  138.2239   74.5582  221.1318 H   0  0  0  0  0  0  0  0  0  0  0  0
  141.1179   71.0328  220.3882 H   0  0  0  0  0  0  0  0  0  0  0  0
  141.4308   71.6882  218.8038 H   0  0  0  0  0  0  0  0  0  0  0  0
  143.2307   71.5142  221.2097 H   0  0  0  0  0  0  0  0  0  0  0  0
  143.7035   71.6377  219.5066 H   0  0  0  0  0  0  0  0  0  0  0  0
  144.0951   73.7452  221.1300 H   0  0  0  0  0  0  0  0  0  0  0  0
  143.5031   74.0886  219.5396 H   0  0  0  0  0  0  0  0  0  0  0  0
  141.8394   73.7010  222.1597 H   0  0  0  0  0  0  0  0  0  0  0  0
  142.8084   75.7955  219.3823 H   0  0  0  0  0  0  0  0  0  0  0  0
  142.4482   78.2146  219.4600 H   0  0  0  0  0  0  0  0  0  0  0  0
  140.1604   77.7520  223.0469 H   0  0  0  0  0  0  0  0  0  0  0  0
  140.5208   75.3268  222.9725 H   0  0  0  0  0  0  0  0  0  0  0  0
  140.9165   72.8636  224.1677 H   0  0  0  0  0  0  0  0  0  0  0  0
  141.7264   72.0423  226.3488 H   0  0  0  0  0  0  0  0  0  0  0  0
  141.7473   70.3149  228.0443 H   0  0  0  0  0  0  0  0  0  0  0  0
  139.4171   66.7657  227.4321 H   0  0  0  0  0  0  0  0  0  0  0  0
  138.6124   67.5979  225.2439 H   0  0  0  0  0  0  0  0  0  0  0  0
  1  2  2  0
  2  3  1  0
  3  4  1  0
  4  5  1  0
  5  6  2  0
  5  7  1  0
  7  8  1  0
  8  9  1  0
  9 10  1  0
 10 11  1  0
 11 12  1  0
 12 13  2  0
 13 14  1  0
 14 15  2  0
 15 16  1  0
 16 17  1  0
 17 18  1  0
 17 19  1  0
 17 20  1  0
 15 21  1  0
 21 22  2  0
  2 23  1  0
 23 24  2  0
 24 25  1  0
 25 26  2  0
 26 27  1  0
 27 28  2  0
 28 29  1  0
 28 30  1  0
 30 31  2  0
 31 32  1  0
 32 33  2  0
 11  7  1  0
 22 12  1  0
 33 23  1  0
 32 26  1  0
  3 34  1  0
  4 35  1  0
  4 36  1  0
  8 37  1  0
  8 38  1  0
  9 39  1  0
  9 40  1  0
 10 41  1  0
 10 42  1  0
 11 43  1  1
 13 44  1  0
 14 45  1  0
 21 46  1  0
 22 47  1  0
 24 48  1  0
 25 49  1  0
 27 50  1  0
 30 51  1  0
 31 52  1  0
M  END
>  <smiles>  (59) 
O=C(NCC(=O)N1CCCC1c1ccc(OC(F)(F)F)cc1)c1ccc2cc(F)ccc2n1

>  <score_type>  (59) 
oracle

>  <origin>  (59) 
autodockgpu

>  <m_score__min__energy>  (59) 
-8.4399999999999995

>  <m_primary>  (59) 
energy

>  <rmsd>  (59) 
3.471188069258226

>  <m_score__min__rmsd>  (59) 
3.471188069258226

>  <meeko>  (59) 
{"free_energy": -7.25, "intermolecular_energy": -9.33, "internal_energy": -1.98, "cluster_size": 7, "cluster_id": 4, "rank_in_cluster": 5}

>  <energy>  (59) 
-8.24

>  <cluster_rmsd>  (59) 
0.36

>  <cluster>  (59) 
1

$$$$

     RDKit          3D

 52 55  0  0  0  0  0  0  0  0999 V2000
  140.9320   71.7120  221.2070 O   0  0  0  0  0  0  0  0  0  0  0  0
  140.3900   72.2430  222.2370 C   0  0  0  0  0  0  0  0  0  0  0  0
  139.9680   73.6000  222.2370 N   0  0  0  0  0  0  0  0  0  0  0  0
  140.1650   74.3680  221.0440 C   0  0  0  0  0  0  0  0  0  0  0  0
  140.6950   75.7250  221.3360 C   0  0  0  0  0  0  0  0  0  0  0  0
  140.3260   76.2350  222.4440 O   0  0  0  0  0  0  0  0  0  0  0  0
  141.5650   76.4250  220.4400 N   0  0  0  0  0  0  0  0  0  0  0  0
  142.0490   75.8130  219.2140 C   0  0  0  0  0  0  0  0  0  0  0  0
  142.7360   76.9770  218.5390 C   0  0  0  0  0  0  0  0  0  0  0  0
  142.1750   78.2280  219.1850 C   0  0  0  0  0  0  0  0  0  0  0  0
  142.0530   77.7520  220.6170 C   0  0  1  0  0  0  0  0  0  0  0  0
  141.2960   78.6400  221.4750 C   0  0  0  0  0  0  0  0  0  0  0  0
  141.6450   78.8240  222.8080 C   0  0  0  0  0  0  0  0  0  0  0  0
  140.9540   79.6620  223.6520 C   0  0  0  0  0  0  0  0  0  0  0  0
  139.8610   80.3690  223.1990 C   0  0  0  0  0  0  0  0  0  0  0  0
  139.1390   81.2250  224.0250 O   0  0  0  0  0  0  0  0  0  0  0  0
  137.7670   80.9430  224.3500 C   0  0  0  0  0  0  0  0  0  0  0  0
  136.9380   81.9180  223.8590 F   0  0  0  0  0  0  0  0  0  0  0  0
  137.4780   79.6910  223.8540 F   0  0  0  0  0  0  0  0  0  0  0  0
  137.6130   80.8690  225.7210 F   0  0  0  0  0  0  0  0  0  0  0  0
  139.4880   80.2090  221.8800 C   0  0  0  0  0  0  0  0  0  0  0  0
  140.1850   79.3680  221.0390 C   0  0  0  0  0  0  0  0  0  0  0  0
  140.2090   71.4160  223.4330 C   0  0  0  0  0  0  0  0  0  0  0  0
  139.5670   70.1980  223.3470 C   0  0  0  0  0  0  0  0  0  0  0  0
  139.3760   69.3870  224.4460 C   0  0  0  0  0  0  0  0  0  0  0  0
  139.8430   69.8040  225.6800 C   0  0  0  0  0  0  0  0  0  0  0  0
  139.6670   69.0110  226.7970 C   0  0  0  0  0  0  0  0  0  0  0  0
  140.1440   69.4480  228.0190 C   0  0  0  0  0  0  0  0  0  0  0  0
  139.9570   68.6500  229.0960 F   0  0  0  0  0  0  0  0  0  0  0  0
  140.7860   70.6730  228.0920 C   0  0  0  0  0  0  0  0  0  0  0  0
  140.9750   71.4850  226.9890 C   0  0  0  0  0  0  0  0  0  0  0  0
  140.4930   71.0390  225.7560 C   0  0  0  0  0  0  0  0  0  0  0  0
  140.6480   71.7850  224.6490 N   0  0  0  0  0  0  0  0  0  0  0  0
  139.5210   74.0270  223.0930 H   0  0  0  0  0  0  0  0  0  0  0  0
  140.8795   73.8397  220.3957 H   0  0  0  0  0  0  0  0  0  0  0  0
  139.1891   74.4838  220.5498 H   0  0  0  0  0  0  0  0  0  0  0  0
  142.7567   74.9978  219.4254 H   0  0  0  0  0  0  0  0  0  0  0  0
  141.2591   75.3479  218.6059 H   0  0  0  0  0  0  0  0  0  0  0  0
  143.8234   76.9214  218.6953 H   0  0  0  0  0  0  0  0  0  0  0  0
  142.5609   76.9723  217.4530 H   0  0  0  0  0  0  0  0  0  0  0  0
  142.8662   79.0790  219.0951 H   0  0  0  0  0  0  0  0  0  0  0  0
  141.2409   78.6007  218.7394 H   0  0  0  0  0  0  0  0  0  0  0  0
  142.9925   77.7565  221.1891 H   0  0  0  0  0  0  0  0  0  0  0  0
  142.5117   78.2754  223.2052 H   0  0  0  0  0  0  0  0  0  0  0  0
  141.2767   79.7689  224.6981 H   0  0  0  0  0  0  0  0  0  0  0  0
  138.6195   80.7621  221.4930 H   0  0  0  0  0  0  0  0  0  0  0  0
  139.8573   79.2667  219.9939 H   0  0  0  0  0  0  0  0  0  0  0  0
  139.1945   69.8620  222.3680 H   0  0  0  0  0  0  0  0  0  0  0  0
  138.8593   68.4214  224.3430 H   0  0  0  0  0  0  0  0  0  0  0  0
  139.1528   68.0420  226.7153 H   0  0  0  0  0  0  0  0  0  0  0  0
  141.1612   71.0141  229.0682 H   0  0  0  0  0  0  0  0  0  0  0  0
  141.4894   72.4531  227.0796 H   0  0  0  0  0  0  0  0  0  0  0  0
  1  2  2  0
  2  3  1  0
  3  4  1  0
  4  5  1  0
  5  6  2  0
  5  7  1  0
  7  8  1  0
  8  9  1  0
  9 10  1  0
 10 11  1  0
 11 12  1  0
 12 13  2  0
 13 14  1  0
 14 15  2  0
 15 16  1  0
 16 17  1  0
 17 18  1  0
 17 19  1  0
 17 20  1  0
 15 21  1  0
 21 22  2  0
  2 23  1  0
 23 24  2  0
 24 25  1  0
 25 26  2  0
 26 27  1  0
 27 28  2  0
 28 29  1  0
 28 30  1  0
 30 31  2  0
 31 32  1  0
 32 33  2  0
 11  7  1  0
 22 12  1  0
 33 23  1  0
 32 26  1  0
  3 34  1  0
  4 35  1  0
  4 36  1  0
  8 37  1  0
  8 38  1  0
  9 39  1  0
  9 40  1  0
 10 41  1  0
 10 42  1  0
 11 43  1  1
 13 44  1  0
 14 45  1  0
 21 46  1  0
 22 47  1  0
 24 48  1  0
 25 49  1  0
 27 50  1  0
 30 51  1  0
 31 52  1  0
M  END
>  <smiles>  (60) 
O=C(NCC(=O)N1CCCC1c1ccc(OC(F)(F)F)cc1)c1ccc2cc(F)ccc2n1

>  <score_type>  (60) 
oracle

>  <origin>  (60) 
autodockgpu

>  <m_score__min__energy>  (60) 
-8.4399999999999995

>  <m_primary>  (60) 
energy

>  <rmsd>  (60) 
1.8882496033532419

>  <m_score__min__rmsd>  (60) 
1.8882496033532419

>  <meeko>  (60) 
{"free_energy": -8.19, "intermolecular_energy": -10.28, "internal_energy": -1.63, "cluster_size": 13, "cluster_id": 1, "rank_in_cluster": 11}

>  <energy>  (60) 
-8.2

>  <cluster_rmsd>  (60) 
0.54

>  <cluster>  (60) 
1

$$$$

     RDKit          3D

 52 55  0  0  0  0  0  0  0  0999 V2000
  141.1080   71.9530  221.3540 O   0  0  0  0  0  0  0  0  0  0  0  0
  140.4170   72.4030  222.3320 C   0  0  0  0  0  0  0  0  0  0  0  0
  139.8500   73.7060  222.3030 N   0  0  0  0  0  0  0  0  0  0  0  0
  140.0700   74.5120  221.1380 C   0  0  0  0  0  0  0  0  0  0  0  0
  140.6710   75.8270  221.4770 C   0  0  0  0  0  0  0  0  0  0  0  0
  140.4520   76.2460  222.6600 O   0  0  0  0  0  0  0  0  0  0  0  0
  141.4480   76.5850  220.5440 N   0  0  0  0  0  0  0  0  0  0  0  0
  141.9070   76.0110  219.2910 C   0  0  0  0  0  0  0  0  0  0  0  0
  142.4850   77.2200  218.5910 C   0  0  0  0  0  0  0  0  0  0  0  0
  141.8800   78.4290  219.2750 C   0  0  0  0  0  0  0  0  0  0  0  0
  141.8600   77.9400  220.7070 C   0  0  1  0  0  0  0  0  0  0  0  0
  141.0930   78.7740  221.6090 C   0  0  0  0  0  0  0  0  0  0  0  0
  141.4980   78.9750  222.9240 C   0  0  0  0  0  0  0  0  0  0  0  0
  140.7990   79.7620  223.8080 C   0  0  0  0  0  0  0  0  0  0  0  0
  139.6410   80.4000  223.4160 C   0  0  0  0  0  0  0  0  0  0  0  0
  138.9090   81.2040  224.2850 O   0  0  0  0  0  0  0  0  0  0  0  0
  137.4970   80.9990  224.4570 C   0  0  0  0  0  0  0  0  0  0  0  0
  136.7790   81.9950  223.8450 F   0  0  0  0  0  0  0  0  0  0  0  0
  137.2020   79.7450  223.9660 F   0  0  0  0  0  0  0  0  0  0  0  0
  137.1830   80.9790  225.8020 F   0  0  0  0  0  0  0  0  0  0  0  0
  139.2120   80.2220  222.1180 C   0  0  0  0  0  0  0  0  0  0  0  0
  139.9170   79.4310  221.2360 C   0  0  0  0  0  0  0  0  0  0  0  0
  140.2200   71.5410  223.5000 C   0  0  0  0  0  0  0  0  0  0  0  0
  139.5740   70.3290  223.3700 C   0  0  0  0  0  0  0  0  0  0  0  0
  139.3680   69.4860  224.4410 C   0  0  0  0  0  0  0  0  0  0  0  0
  139.8220   69.8630  225.6930 C   0  0  0  0  0  0  0  0  0  0  0  0
  139.6310   69.0370  226.7830 C   0  0  0  0  0  0  0  0  0  0  0  0
  140.0950   69.4350  228.0230 C   0  0  0  0  0  0  0  0  0  0  0  0
  139.8930   68.6040  229.0730 F   0  0  0  0  0  0  0  0  0  0  0  0
  140.7410   70.6540  228.1410 C   0  0  0  0  0  0  0  0  0  0  0  0
  140.9460   71.4980  227.0660 C   0  0  0  0  0  0  0  0  0  0  0  0
  140.4760   71.0930  225.8140 C   0  0  0  0  0  0  0  0  0  0  0  0
  140.6460   71.8710  224.7320 N   0  0  0  0  0  0  0  0  0  0  0  0
  139.2820   74.0670  223.1170 H   0  0  0  0  0  0  0  0  0  0  0  0
  140.7487   73.9760  220.4582 H   0  0  0  0  0  0  0  0  0  0  0  0
  139.0951   74.6962  220.6631 H   0  0  0  0  0  0  0  0  0  0  0  0
  142.6743   75.2412  219.4603 H   0  0  0  0  0  0  0  0  0  0  0  0
  141.1182   75.4999  218.7195 H   0  0  0  0  0  0  0  0  0  0  0  0
  143.5803   77.2324  218.6918 H   0  0  0  0  0  0  0  0  0  0  0  0
  142.2560   77.2098  217.5151 H   0  0  0  0  0  0  0  0  0  0  0  0
  142.5110   79.3224  219.1577 H   0  0  0  0  0  0  0  0  0  0  0  0
  140.9029   78.7436  218.8797 H   0  0  0  0  0  0  0  0  0  0  0  0
  142.8249   78.0017  221.2315 H   0  0  0  0  0  0  0  0  0  0  0  0
  142.4180   78.4826  223.2720 H   0  0  0  0  0  0  0  0  0  0  0  0
  141.1667   79.8840  224.8375 H   0  0  0  0  0  0  0  0  0  0  0  0
  138.2911   80.7198  221.7801 H   0  0  0  0  0  0  0  0  0  0  0  0
  139.5430   79.3134  220.2082 H   0  0  0  0  0  0  0  0  0  0  0  0
  139.2107   70.0248  222.3773 H   0  0  0  0  0  0  0  0  0  0  0  0
  138.8494   68.5259  224.3024 H   0  0  0  0  0  0  0  0  0  0  0  0
  139.1151   68.0726  226.6659 H   0  0  0  0  0  0  0  0  0  0  0  0
  141.1062   70.9635  229.1314 H   0  0  0  0  0  0  0  0  0  0  0  0
  141.4639   72.4602  227.1923 H   0  0  0  0  0  0  0  0  0  0  0  0
  1  2  2  0
  2  3  1  0
  3  4  1  0
  4  5  1  0
  5  6  2  0
  5  7  1  0
  7  8  1  0
  8  9  1  0
  9 10  1  0
 10 11  1  0
 11 12  1  0
 12 13  2  0
 13 14  1  0
 14 15  2  0
 15 16  1  0
 16 17  1  0
 17 18  1  0
 17 19  1  0
 17 20  1  0
 15 21  1  0
 21 22  2  0
  2 23  1  0
 23 24  2  0
 24 25  1  0
 25 26  2  0
 26 27  1  0
 27 28  2  0
 28 29  1  0
 28 30  1  0
 30 31  2  0
 31 32  1  0
 32 33  2  0
 11  7  1  0
 22 12  1  0
 33 23  1  0
 32 26  1  0
  3 34  1  0
  4 35  1  0
  4 36  1  0
  8 37  1  0
  8 38  1  0
  9 39  1  0
  9 40  1  0
 10 41  1  0
 10 42  1  0
 11 43  1  1
 13 44  1  0
 14 45  1  0
 21 46  1  0
 22 47  1  0
 24 48  1  0
 25 49  1  0
 27 50  1  0
 30 51  1  0
 31 52  1  0
M  END
>  <smiles>  (61) 
O=C(NCC(=O)N1CCCC1c1ccc(OC(F)(F)F)cc1)c1ccc2cc(F)ccc2n1

>  <score_type>  (61) 
oracle

>  <origin>  (61) 
autodockgpu

>  <m_score__min__energy>  (61) 
-8.4399999999999995

>  <m_primary>  (61) 
energy

>  <rmsd>  (61) 
1.8995188500108102

>  <m_score__min__rmsd>  (61) 
1.8995188500108102

>  <meeko>  (61) 
{"free_energy": -8.29, "intermolecular_energy": -10.38, "internal_energy": -1.54, "cluster_size": 13, "cluster_id": 1, "rank_in_cluster": 4}

>  <energy>  (61) 
-8.19

>  <cluster_rmsd>  (61) 
0.39

>  <cluster>  (61) 
1

$$$$

     RDKit          3D

 52 55  0  0  0  0  0  0  0  0999 V2000
  138.7040   71.0850  221.2320 O   0  0  0  0  0  0  0  0  0  0  0  0
  139.0360   71.7390  222.2800 C   0  0  0  0  0  0  0  0  0  0  0  0
  139.0790   73.1600  222.2860 N   0  0  0  0  0  0  0  0  0  0  0  0
  138.7360   73.8510  221.0780 C   0  0  0  0  0  0  0  0  0  0  0  0
  139.7140   73.5890  219.9910 C   0  0  0  0  0  0  0  0  0  0  0  0
  139.2600   73.6940  218.8040 O   0  0  0  0  0  0  0  0  0  0  0  0
  141.0790   73.2430  220.2450 N   0  0  0  0  0  0  0  0  0  0  0  0
  141.6570   72.0070  219.7450 C   0  0  0  0  0  0  0  0  0  0  0  0
  143.1180   72.1900  220.0850 C   0  0  0  0  0  0  0  0  0  0  0  0
  143.3160   73.6780  220.2970 C   0  0  0  0  0  0  0  0  0  0  0  0
  142.0140   74.0210  220.9870 C   0  0  1  0  0  0  0  0  0  0  0  0
  141.7620   75.4430  221.1070 C   0  0  0  0  0  0  0  0  0  0  0  0
  142.1970   76.3360  220.1350 C   0  0  0  0  0  0  0  0  0  0  0  0
  141.9730   77.6910  220.2130 C   0  0  0  0  0  0  0  0  0  0  0  0
  141.2930   78.2290  221.2840 C   0  0  0  0  0  0  0  0  0  0  0  0
  141.0490   79.5960  221.3950 O   0  0  0  0  0  0  0  0  0  0  0  0
  141.6530   80.3630  222.4490 C   0  0  0  0  0  0  0  0  0  0  0  0
  140.8590   80.3680  223.5670 F   0  0  0  0  0  0  0  0  0  0  0  0
  142.9030   79.8300  222.6790 F   0  0  0  0  0  0  0  0  0  0  0  0
  141.8500   81.6650  222.0310 F   0  0  0  0  0  0  0  0  0  0  0  0
  140.8470   77.3700  222.2660 C   0  0  0  0  0  0  0  0  0  0  0  0
  141.0750   76.0130  222.1830 C   0  0  0  0  0  0  0  0  0  0  0  0
  139.3770   70.9880  223.4910 C   0  0  0  0  0  0  0  0  0  0  0  0
  139.1550   69.6280  223.5520 C   0  0  0  0  0  0  0  0  0  0  0  0
  139.4630   68.8810  224.6700 C   0  0  0  0  0  0  0  0  0  0  0  0
  140.0130   69.5130  225.7710 C   0  0  0  0  0  0  0  0  0  0  0  0
  140.3310   68.7890  226.9040 C   0  0  0  0  0  0  0  0  0  0  0  0
  140.8810   69.4420  227.9920 C   0  0  0  0  0  0  0  0  0  0  0  0
  141.1830   68.7070  229.0880 F   0  0  0  0  0  0  0  0  0  0  0  0
  141.0980   70.8080  227.9180 C   0  0  0  0  0  0  0  0  0  0  0  0
  140.7890   71.5550  226.7970 C   0  0  0  0  0  0  0  0  0  0  0  0
  140.2340   70.8910  225.6990 C   0  0  0  0  0  0  0  0  0  0  0  0
  139.9130   71.5640  224.5810 N   0  0  0  0  0  0  0  0  0  0  0  0
  139.3550   73.6880  223.1570 H   0  0  0  0  0  0  0  0  0  0  0  0
  137.7408   73.5178  220.7484 H   0  0  0  0  0  0  0  0  0  0  0  0
  138.7439   74.9304  221.2897 H   0  0  0  0  0  0  0  0  0  0  0  0
  141.2332   71.1306  220.2572 H   0  0  0  0  0  0  0  0  0  0  0  0
  141.4672   71.8264  218.6766 H   0  0  0  0  0  0  0  0  0  0  0  0
  143.3689   71.6368  221.0021 H   0  0  0  0  0  0  0  0  0  0  0  0
  143.7683   71.8076  219.2845 H   0  0  0  0  0  0  0  0  0  0  0  0
  144.1851   73.8869  220.9381 H   0  0  0  0  0  0  0  0  0  0  0  0
  143.5207   74.2530  219.3819 H   0  0  0  0  0  0  0  0  0  0  0  0
  141.9776   73.7713  222.0577 H   0  0  0  0  0  0  0  0  0  0  0  0
  142.7441   75.9423  219.2657 H   0  0  0  0  0  0  0  0  0  0  0  0
  142.3400   78.3510  219.4132 H   0  0  0  0  0  0  0  0  0  0  0  0
  140.2999   77.7744  223.1304 H   0  0  0  0  0  0  0  0  0  0  0  0
  140.7056   75.3594  222.9870 H   0  0  0  0  0  0  0  0  0  0  0  0
  138.7173   69.1217  222.6791 H   0  0  0  0  0  0  0  0  0  0  0  0
  139.2739   67.7975  224.6859 H   0  0  0  0  0  0  0  0  0  0  0  0
  140.1487   67.7048  226.9403 H   0  0  0  0  0  0  0  0  0  0  0  0
  141.5347   71.3199  228.7882 H   0  0  0  0  0  0  0  0  0  0  0  0
  140.9741   72.6390  226.7695 H   0  0  0  0  0  0  0  0  0  0  0  0
  1  2  2  0
  2  3  1  0
  3  4  1  0
  4  5  1  0
  5  6  2  0
  5  7  1  0
  7  8  1  0
  8  9  1  0
  9 10  1  0
 10 11  1  0
 11 12  1  0
 12 13  2  0
 13 14  1  0
 14 15  2  0
 15 16  1  0
 16 17  1  0
 17 18  1  0
 17 19  1  0
 17 20  1  0
 15 21  1  0
 21 22  2  0
  2 23  1  0
 23 24  2  0
 24 25  1  0
 25 26  2  0
 26 27  1  0
 27 28  2  0
 28 29  1  0
 28 30  1  0
 30 31  2  0
 31 32  1  0
 32 33  2  0
 11  7  1  0
 22 12  1  0
 33 23  1  0
 32 26  1  0
  3 34  1  0
  4 35  1  0
  4 36  1  0
  8 37  1  0
  8 38  1  0
  9 39  1  0
  9 40  1  0
 10 41  1  0
 10 42  1  0
 11 43  1  1
 13 44  1  0
 14 45  1  0
 21 46  1  0
 22 47  1  0
 24 48  1  0
 25 49  1  0
 27 50  1  0
 30 51  1  0
 31 52  1  0
M  END
>  <smiles>  (62) 
O=C(NCC(=O)N1CCCC1c1ccc(OC(F)(F)F)cc1)c1ccc2cc(F)ccc2n1

>  <score_type>  (62) 
oracle

>  <origin>  (62) 
autodockgpu

>  <m_score__min__energy>  (62) 
-8.4399999999999995

>  <m_primary>  (62) 
energy

>  <rmsd>  (62) 
2.657434237128006

>  <m_score__min__rmsd>  (62) 
2.657434237128006

>  <meeko>  (62) 
{"free_energy": -7.08, "intermolecular_energy": -9.17, "internal_energy": -2.05, "cluster_size": 7, "cluster_id": 4, "rank_in_cluster": 6}

>  <energy>  (62) 
-8.17

>  <cluster_rmsd>  (62) 
0.36

>  <cluster>  (62) 
1

$$$$

     RDKit          3D

 52 55  0  0  0  0  0  0  0  0999 V2000
  141.0220   71.5650  221.1020 O   0  0  0  0  0  0  0  0  0  0  0  0
  140.5400   72.1690  222.1210 C   0  0  0  0  0  0  0  0  0  0  0  0
  140.2370   73.5580  222.0870 N   0  0  0  0  0  0  0  0  0  0  0  0
  140.4860   74.2720  220.8700 C   0  0  0  0  0  0  0  0  0  0  0  0
  140.9030   75.6750  221.1230 C   0  0  0  0  0  0  0  0  0  0  0  0
  140.9920   76.0120  222.3500 O   0  0  0  0  0  0  0  0  0  0  0  0
  141.1910   76.5990  220.0690 N   0  0  0  0  0  0  0  0  0  0  0  0
  140.6450   77.9450  220.0640 C   0  0  0  0  0  0  0  0  0  0  0  0
  141.3760   78.5710  218.8990 C   0  0  0  0  0  0  0  0  0  0  0  0
  142.5980   77.7070  218.6580 C   0  0  0  0  0  0  0  0  0  0  0  0
  142.0110   76.3390  218.9320 C   0  0  1  0  0  0  0  0  0  0  0  0
  142.9950   75.2820  219.0380 C   0  0  0  0  0  0  0  0  0  0  0  0
  143.9320   75.2690  220.0660 C   0  0  0  0  0  0  0  0  0  0  0  0
  144.8780   74.2800  220.2010 C   0  0  0  0  0  0  0  0  0  0  0  0
  144.9370   73.2370  219.3020 C   0  0  0  0  0  0  0  0  0  0  0  0
  145.8810   72.2200  219.4090 O   0  0  0  0  0  0  0  0  0  0  0  0
  145.5590   70.8780  219.0110 C   0  0  0  0  0  0  0  0  0  0  0  0
  144.4140   70.4450  219.6290 F   0  0  0  0  0  0  0  0  0  0  0  0
  145.4620   70.8710  217.6360 F   0  0  0  0  0  0  0  0  0  0  0  0
  146.5970   70.0270  219.3380 F   0  0  0  0  0  0  0  0  0  0  0  0
  144.0210   73.2190  218.2710 C   0  0  0  0  0  0  0  0  0  0  0  0
  143.0750   74.2130  218.1400 C   0  0  0  0  0  0  0  0  0  0  0  0
  140.3030   71.3940  223.3420 C   0  0  0  0  0  0  0  0  0  0  0  0
  139.6540   70.1790  223.2800 C   0  0  0  0  0  0  0  0  0  0  0  0
  139.4110   69.4160  224.4030 C   0  0  0  0  0  0  0  0  0  0  0  0
  139.8300   69.8810  225.6370 C   0  0  0  0  0  0  0  0  0  0  0  0
  139.6010   69.1370  226.7780 C   0  0  0  0  0  0  0  0  0  0  0  0
  140.0300   69.6220  228.0000 C   0  0  0  0  0  0  0  0  0  0  0  0
  139.7910   68.8710  229.1010 F   0  0  0  0  0  0  0  0  0  0  0  0
  140.6790   70.8450  228.0480 C   0  0  0  0  0  0  0  0  0  0  0  0
  140.9210   71.6080  226.9220 C   0  0  0  0  0  0  0  0  0  0  0  0
  140.4860   71.1140  225.6890 C   0  0  0  0  0  0  0  0  0  0  0  0
  140.6940   71.8120  224.5590 N   0  0  0  0  0  0  0  0  0  0  0  0
  139.8400   74.0450  222.9350 H   0  0  0  0  0  0  0  0  0  0  0  0
  141.2847   73.7589  220.3143 H   0  0  0  0  0  0  0  0  0  0  0  0
  139.5503   74.2948  220.2921 H   0  0  0  0  0  0  0  0  0  0  0  0
  139.5579   77.9356  219.8963 H   0  0  0  0  0  0  0  0  0  0  0  0
  140.7779   78.4831  221.0142 H   0  0  0  0  0  0  0  0  0  0  0  0
  140.7336   78.5817  218.0061 H   0  0  0  0  0  0  0  0  0  0  0  0
  141.6558   79.6132  219.1126 H   0  0  0  0  0  0  0  0  0  0  0  0
  142.9627   77.7951  217.6240 H   0  0  0  0  0  0  0  0  0  0  0  0
  143.4757   77.9653  219.2687 H   0  0  0  0  0  0  0  0  0  0  0  0
  141.4219   75.9127  218.1066 H   0  0  0  0  0  0  0  0  0  0  0  0
  143.9156   76.0854  220.8031 H   0  0  0  0  0  0  0  0  0  0  0  0
  145.5945   74.3218  221.0346 H   0  0  0  0  0  0  0  0  0  0  0  0
  144.0458   72.3970  217.5404 H   0  0  0  0  0  0  0  0  0  0  0  0
  142.3617   74.1639  217.3041 H   0  0  0  0  0  0  0  0  0  0  0  0
  139.3186   69.8054  222.3013 H   0  0  0  0  0  0  0  0  0  0  0  0
  138.8909   68.4504  224.3187 H   0  0  0  0  0  0  0  0  0  0  0  0
  139.0828   68.1688  226.7153 H   0  0  0  0  0  0  0  0  0  0  0  0
  141.0159   71.2246  229.0239 H   0  0  0  0  0  0  0  0  0  0  0  0
  141.4403   72.5750  226.9937 H   0  0  0  0  0  0  0  0  0  0  0  0
  1  2  2  0
  2  3  1  0
  3  4  1  0
  4  5  1  0
  5  6  2  0
  5  7  1  0
  7  8  1  0
  8  9  1  0
  9 10  1  0
 10 11  1  0
 11 12  1  0
 12 13  2  0
 13 14  1  0
 14 15  2  0
 15 16  1  0
 16 17  1  0
 17 18  1  0
 17 19  1  0
 17 20  1  0
 15 21  1  0
 21 22  2  0
  2 23  1  0
 23 24  2  0
 24 25  1  0
 25 26  2  0
 26 27  1  0
 27 28  2  0
 28 29  1  0
 28 30  1  0
 30 31  2  0
 31 32  1  0
 32 33  2  0
 11  7  1  0
 22 12  1  0
 33 23  1  0
 32 26  1  0
  3 34  1  0
  4 35  1  0
  4 36  1  0
  8 37  1  0
  8 38  1  0
  9 39  1  0
  9 40  1  0
 10 41  1  0
 10 42  1  0
 11 43  1  6
 13 44  1  0
 14 45  1  0
 21 46  1  0
 22 47  1  0
 24 48  1  0
 25 49  1  0
 27 50  1  0
 30 51  1  0
 31 52  1  0
M  END
>  <smiles>  (63) 
O=C(NCC(=O)N1CCCC1c1ccc(OC(F)(F)F)cc1)c1ccc2cc(F)ccc2n1

>  <score_type>  (63) 
oracle

>  <origin>  (63) 
autodockgpu

>  <m_score__min__energy>  (63) 
-8.4399999999999995

>  <m_primary>  (63) 
energy

>  <rmsd>  (63) 
2.1226331037791666

>  <m_score__min__rmsd>  (63) 
2.1226331037791666

>  <meeko>  (63) 
{"free_energy": -7.83, "intermolecular_energy": -9.92, "internal_energy": -1.98, "cluster_size": 13, "cluster_id": 2, "rank_in_cluster": 4}

>  <energy>  (63) 
-7.35

>  <cluster_rmsd>  (63) 
0.92

>  <cluster>  (63) 
1

$$$$

     RDKit          3D

 52 55  0  0  0  0  0  0  0  0999 V2000
  140.6800   77.0570  218.9740 O   0  0  0  0  0  0  0  0  0  0  0  0
  141.9520   77.1910  218.9640 C   0  0  0  0  0  0  0  0  0  0  0  0
  142.5640   78.4740  218.9930 N   0  0  0  0  0  0  0  0  0  0  0  0
  141.7140   79.6260  219.0360 C   0  0  0  0  0  0  0  0  0  0  0  0
  140.9760   79.7270  220.3210 C   0  0  0  0  0  0  0  0  0  0  0  0
  139.7110   79.8460  220.2230 O   0  0  0  0  0  0  0  0  0  0  0  0
  141.6310   79.6930  221.5930 N   0  0  0  0  0  0  0  0  0  0  0  0
  142.2920   80.8650  222.1410 C   0  0  0  0  0  0  0  0  0  0  0  0
  142.6360   80.3990  223.5380 C   0  0  0  0  0  0  0  0  0  0  0  0
  141.7330   79.2160  223.8200 C   0  0  0  0  0  0  0  0  0  0  0  0
  141.7210   78.5620  222.4550 C   0  0  1  0  0  0  0  0  0  0  0  0
  140.7280   77.5180  222.3050 C   0  0  0  0  0  0  0  0  0  0  0  0
  141.0880   76.2310  221.9210 C   0  0  0  0  0  0  0  0  0  0  0  0
  140.1740   75.2140  221.7720 C   0  0  0  0  0  0  0  0  0  0  0  0
  138.8330   75.4360  222.0040 C   0  0  0  0  0  0  0  0  0  0  0  0
  137.8820   74.4290  221.8630 O   0  0  0  0  0  0  0  0  0  0  0  0
  138.2840   73.0550  221.7410 C   0  0  0  0  0  0  0  0  0  0  0  0
  139.2310   72.7370  222.6810 F   0  0  0  0  0  0  0  0  0  0  0  0
  137.1460   72.2850  221.8430 F   0  0  0  0  0  0  0  0  0  0  0  0
  138.8040   72.8250  220.4820 F   0  0  0  0  0  0  0  0  0  0  0  0
  138.4430   76.7010  222.3880 C   0  0  0  0  0  0  0  0  0  0  0  0
  139.3640   77.7170  222.5350 C   0  0  0  0  0  0  0  0  0  0  0  0
  142.7790   75.9810  218.9210 C   0  0  0  0  0  0  0  0  0  0  0  0
  142.7520   75.1590  217.8140 C   0  0  0  0  0  0  0  0  0  0  0  0
  143.5140   74.0130  217.7300 C   0  0  0  0  0  0  0  0  0  0  0  0
  144.3360   73.6710  218.7900 C   0  0  0  0  0  0  0  0  0  0  0  0
  145.1110   72.5290  218.7320 C   0  0  0  0  0  0  0  0  0  0  0  0
  145.9250   72.2090  219.8030 C   0  0  0  0  0  0  0  0  0  0  0  0
  146.6740   71.0840  219.7170 F   0  0  0  0  0  0  0  0  0  0  0  0
  145.9420   73.0430  220.9080 C   0  0  0  0  0  0  0  0  0  0  0  0
  145.1770   74.1910  220.9910 C   0  0  0  0  0  0  0  0  0  0  0  0
  144.3560   74.5120  219.9070 C   0  0  0  0  0  0  0  0  0  0  0  0
  143.5900   75.6160  219.9290 N   0  0  0  0  0  0  0  0  0  0  0  0
  143.6160   78.5710  218.9840 H   0  0  0  0  0  0  0  0  0  0  0  0
  142.3315   80.5275  218.9096 H   0  0  0  0  0  0  0  0  0  0  0  0
  140.9748   79.5325  218.2268 H   0  0  0  0  0  0  0  0  0  0  0  0
  143.1966   81.1191  221.5691 H   0  0  0  0  0  0  0  0  0  0  0  0
  141.6780   81.7773  222.1135 H   0  0  0  0  0  0  0  0  0  0  0  0
  143.6917   80.0944  223.5898 H   0  0  0  0  0  0  0  0  0  0  0  0
  142.4904   81.2010  224.2766 H   0  0  0  0  0  0  0  0  0  0  0  0
  142.1581   78.5519  224.5870 H   0  0  0  0  0  0  0  0  0  0  0  0
  140.7408   79.4754  224.2178 H   0  0  0  0  0  0  0  0  0  0  0  0
  142.6094   77.9562  222.2232 H   0  0  0  0  0  0  0  0  0  0  0  0
  142.1496   76.0169  221.7281 H   0  0  0  0  0  0  0  0  0  0  0  0
  140.5159   74.2146  221.4650 H   0  0  0  0  0  0  0  0  0  0  0  0
  137.3791   76.9037  222.5805 H   0  0  0  0  0  0  0  0  0  0  0  0
  139.0145   78.7137  222.8425 H   0  0  0  0  0  0  0  0  0  0  0  0
  142.1003   75.4268  216.9692 H   0  0  0  0  0  0  0  0  0  0  0  0
  143.4693   73.3788  216.8324 H   0  0  0  0  0  0  0  0  0  0  0  0
  145.0809   71.8812  217.8435 H   0  0  0  0  0  0  0  0  0  0  0  0
  146.5919   72.7808  221.7558 H   0  0  0  0  0  0  0  0  0  0  0  0
  145.2134   74.8327  221.8837 H   0  0  0  0  0  0  0  0  0  0  0  0
  1  2  2  0
  2  3  1  0
  3  4  1  0
  4  5  1  0
  5  6  2  0
  5  7  1  0
  7  8  1  0
  8  9  1  0
  9 10  1  0
 10 11  1  0
 11 12  1  0
 12 13  2  0
 13 14  1  0
 14 15  2  0
 15 16  1  0
 16 17  1  0
 17 18  1  0
 17 19  1  0
 17 20  1  0
 15 21  1  0
 21 22  2  0
  2 23  1  0
 23 24  2  0
 24 25  1  0
 25 26  2  0
 26 27  1  0
 27 28  2  0
 28 29  1  0
 28 30  1  0
 30 31  2  0
 31 32  1  0
 32 33  2  0
 11  7  1  0
 22 12  1  0
 33 23  1  0
 32 26  1  0
  3 34  1  0
  4 35  1  0
  4 36  1  0
  8 37  1  0
  8 38  1  0
  9 39  1  0
  9 40  1  0
 10 41  1  0
 10 42  1  0
 11 43  1  6
 13 44  1  0
 14 45  1  0
 21 46  1  0
 22 47  1  0
 24 48  1  0
 25 49  1  0
 27 50  1  0
 30 51  1  0
 31 52  1  0
M  END
>  <smiles>  (64) 
O=C(NCC(=O)N1CCCC1c1ccc(OC(F)(F)F)cc1)c1ccc2cc(F)ccc2n1

>  <score_type>  (64) 
oracle

>  <origin>  (64) 
autodockgpu

>  <m_score__min__energy>  (64) 
-8.4399999999999995

>  <m_primary>  (64) 
energy

>  <rmsd>  (64) 
7.922193994348179

>  <m_score__min__rmsd>  (64) 
7.922193994348179

>  <meeko>  (64) 
{"free_energy": -6.54, "intermolecular_energy": -8.63, "internal_energy": -2.33, "cluster_size": 5, "cluster_id": 7, "rank_in_cluster": 1}

>  <energy>  (64) 
-8.16

>  <cluster_rmsd>  (64) 
0.0

>  <cluster>  (64) 
2

$$$$

     RDKit          3D

 52 55  0  0  0  0  0  0  0  0999 V2000
  141.2450   71.8990  221.3690 O   0  0  0  0  0  0  0  0  0  0  0  0
  140.5890   72.3830  222.3540 C   0  0  0  0  0  0  0  0  0  0  0  0
  140.0840   73.7120  222.3300 N   0  0  0  0  0  0  0  0  0  0  0  0
  140.3290   74.5040  221.1620 C   0  0  0  0  0  0  0  0  0  0  0  0
  140.8270   75.8610  221.5030 C   0  0  0  0  0  0  0  0  0  0  0  0
  140.6300   76.2350  222.7060 O   0  0  0  0  0  0  0  0  0  0  0  0
  141.4870   76.7040  220.5540 N   0  0  0  0  0  0  0  0  0  0  0  0
  141.8880   76.2120  219.2470 C   0  0  0  0  0  0  0  0  0  0  0  0
  142.3400   77.4830  218.5640 C   0  0  0  0  0  0  0  0  0  0  0  0
  141.7130   78.6220  219.3420 C   0  0  0  0  0  0  0  0  0  0  0  0
  141.8270   78.0750  220.7480 C   0  0  1  0  0  0  0  0  0  0  0  0
  141.0780   78.8210  221.7390 C   0  0  0  0  0  0  0  0  0  0  0  0
  139.7160   79.0530  221.5880 C   0  0  0  0  0  0  0  0  0  0  0  0
  138.9720   79.7530  222.5090 C   0  0  0  0  0  0  0  0  0  0  0  0
  139.5610   80.2650  223.6450 C   0  0  0  0  0  0  0  0  0  0  0  0
  138.8380   80.9780  224.5970 O   0  0  0  0  0  0  0  0  0  0  0  0
  137.4450   81.2650  224.3920 C   0  0  0  0  0  0  0  0  0  0  0  0
  136.7270   80.1090  224.2210 F   0  0  0  0  0  0  0  0  0  0  0  0
  137.0180   82.0080  225.4710 F   0  0  0  0  0  0  0  0  0  0  0  0
  137.2870   82.0630  223.2760 F   0  0  0  0  0  0  0  0  0  0  0  0
  140.9120   80.0510  223.8250 C   0  0  0  0  0  0  0  0  0  0  0  0
  141.6530   79.3490  222.8990 C   0  0  0  0  0  0  0  0  0  0  0  0
  140.3650   71.5320  223.5260 C   0  0  0  0  0  0  0  0  0  0  0  0
  139.7070   70.3270  223.3960 C   0  0  0  0  0  0  0  0  0  0  0  0
  139.4760   69.4950  224.4710 C   0  0  0  0  0  0  0  0  0  0  0  0
  139.9170   69.8770  225.7260 C   0  0  0  0  0  0  0  0  0  0  0  0
  139.7000   69.0620  226.8200 C   0  0  0  0  0  0  0  0  0  0  0  0
  140.1520   69.4640  228.0630 C   0  0  0  0  0  0  0  0  0  0  0  0
  139.9250   68.6450  229.1170 F   0  0  0  0  0  0  0  0  0  0  0  0
  140.8100   70.6770  228.1810 C   0  0  0  0  0  0  0  0  0  0  0  0
  141.0400   71.5100  227.1020 C   0  0  0  0  0  0  0  0  0  0  0  0
  140.5830   71.1000  225.8470 C   0  0  0  0  0  0  0  0  0  0  0  0
  140.7780   71.8680  224.7610 N   0  0  0  0  0  0  0  0  0  0  0  0
  139.5450   74.1000  223.1500 H   0  0  0  0  0  0  0  0  0  0  0  0
  141.0807   73.9960  220.5400 H   0  0  0  0  0  0  0  0  0  0  0  0
  139.3767   74.6175  220.6232 H   0  0  0  0  0  0  0  0  0  0  0  0
  142.7105   75.4860  219.3273 H   0  0  0  0  0  0  0  0  0  0  0  0
  141.0922   75.6758  218.7092 H   0  0  0  0  0  0  0  0  0  0  0  0
  143.4369   77.5611  218.5896 H   0  0  0  0  0  0  0  0  0  0  0  0
  142.0358   77.5021  217.5071 H   0  0  0  0  0  0  0  0  0  0  0  0
  142.2778   79.5582  219.2213 H   0  0  0  0  0  0  0  0  0  0  0  0
  140.6924   78.8889  219.0304 H   0  0  0  0  0  0  0  0  0  0  0  0
  142.8223   78.1771  221.2050 H   0  0  0  0  0  0  0  0  0  0  0  0
  139.2112   78.6598  220.6932 H   0  0  0  0  0  0  0  0  0  0  0  0
  137.8963   79.9057  222.3372 H   0  0  0  0  0  0  0  0  0  0  0  0
  141.4067   80.4478  224.7238 H   0  0  0  0  0  0  0  0  0  0  0  0
  142.7281   79.1997  223.0777 H   0  0  0  0  0  0  0  0  0  0  0  0
  139.3544   70.0191  222.4006 H   0  0  0  0  0  0  0  0  0  0  0  0
  138.9480   68.5399  224.3329 H   0  0  0  0  0  0  0  0  0  0  0  0
  139.1732   68.1034  226.7033 H   0  0  0  0  0  0  0  0  0  0  0  0
  141.1641   70.9904  229.1741 H   0  0  0  0  0  0  0  0  0  0  0  0
  141.5672   72.4672  227.2278 H   0  0  0  0  0  0  0  0  0  0  0  0
  1  2  2  0
  2  3  1  0
  3  4  1  0
  4  5  1  0
  5  6  2  0
  5  7  1  0
  7  8  1  0
  8  9  1  0
  9 10  1  0
 10 11  1  0
 11 12  1  0
 12 13  2  0
 13 14  1  0
 14 15  2  0
 15 16  1  0
 16 17  1  0
 17 18  1  0
 17 19  1  0
 17 20  1  0
 15 21  1  0
 21 22  2  0
  2 23  1  0
 23 24  2  0
 24 25  1  0
 25 26  2  0
 26 27  1  0
 27 28  2  0
 28 29  1  0
 28 30  1  0
 30 31  2  0
 31 32  1  0
 32 33  2  0
 11  7  1  0
 22 12  1  0
 33 23  1  0
 32 26  1  0
  3 34  1  0
  4 35  1  0
  4 36  1  0
  8 37  1  0
  8 38  1  0
  9 39  1  0
  9 40  1  0
 10 41  1  0
 10 42  1  0
 11 43  1  1
 13 44  1  0
 14 45  1  0
 21 46  1  0
 22 47  1  0
 24 48  1  0
 25 49  1  0
 27 50  1  0
 30 51  1  0
 31 52  1  0
M  END
>  <smiles>  (65) 
O=C(NCC(=O)N1CCCC1c1ccc(OC(F)(F)F)cc1)c1ccc2cc(F)ccc2n1

>  <score_type>  (65) 
oracle

>  <origin>  (65) 
autodockgpu

>  <m_score__min__energy>  (65) 
-8.4399999999999995

>  <m_primary>  (65) 
energy

>  <rmsd>  (65) 
1.9787116269867098

>  <m_score__min__rmsd>  (65) 
1.9787116269867098

>  <meeko>  (65) 
{"free_energy": -8.2, "intermolecular_energy": -10.29, "internal_energy": -1.62, "cluster_size": 13, "cluster_id": 1, "rank_in_cluster": 10}

>  <energy>  (65) 
-8.05

>  <cluster_rmsd>  (65) 
0.24

>  <cluster>  (65) 
2

$$$$

     RDKit          3D

 52 55  0  0  0  0  0  0  0  0999 V2000
  140.8590   71.4810  221.2550 O   0  0  0  0  0  0  0  0  0  0  0  0
  140.3660   72.0340  222.2980 C   0  0  0  0  0  0  0  0  0  0  0  0
  139.9790   73.4020  222.3000 N   0  0  0  0  0  0  0  0  0  0  0  0
  140.1550   74.1550  221.0940 C   0  0  0  0  0  0  0  0  0  0  0  0
  140.6300   75.5360  221.3630 C   0  0  0  0  0  0  0  0  0  0  0  0
  140.2620   76.0400  222.4750 O   0  0  0  0  0  0  0  0  0  0  0  0
  141.4480   76.2660  220.4430 N   0  0  0  0  0  0  0  0  0  0  0  0
  141.8590   75.6960  219.1710 C   0  0  0  0  0  0  0  0  0  0  0  0
  142.5100   76.8820  218.4970 C   0  0  0  0  0  0  0  0  0  0  0  0
  141.9910   78.1100  219.2180 C   0  0  0  0  0  0  0  0  0  0  0  0
  141.9500   77.5850  220.6370 C   0  0  1  0  0  0  0  0  0  0  0  0
  141.2470   78.4440  221.5670 C   0  0  0  0  0  0  0  0  0  0  0  0
  140.1010   79.1330  221.1870 C   0  0  0  0  0  0  0  0  0  0  0  0
  139.4040   79.9530  222.0440 C   0  0  0  0  0  0  0  0  0  0  0  0
  139.8250   80.1290  223.3440 C   0  0  0  0  0  0  0  0  0  0  0  0
  139.1440   80.9520  224.2380 O   0  0  0  0  0  0  0  0  0  0  0  0
  137.7130   80.8820  224.3510 C   0  0  0  0  0  0  0  0  0  0  0  0
  137.1190   81.9280  223.6930 F   0  0  0  0  0  0  0  0  0  0  0  0
  137.3240   79.6520  223.8680 F   0  0  0  0  0  0  0  0  0  0  0  0
  137.3440   80.9180  225.6820 F   0  0  0  0  0  0  0  0  0  0  0  0
  140.9580   79.4590  223.7540 C   0  0  0  0  0  0  0  0  0  0  0  0
  141.6530   78.6380  222.8910 C   0  0  0  0  0  0  0  0  0  0  0  0
  140.2060   71.2220  223.5070 C   0  0  0  0  0  0  0  0  0  0  0  0
  139.5690   70.0000  223.4460 C   0  0  0  0  0  0  0  0  0  0  0  0
  139.3980   69.2030  224.5580 C   0  0  0  0  0  0  0  0  0  0  0  0
  139.8790   69.6380  225.7800 C   0  0  0  0  0  0  0  0  0  0  0  0
  139.7220   68.8600  226.9100 C   0  0  0  0  0  0  0  0  0  0  0  0
  140.2110   69.3160  228.1190 C   0  0  0  0  0  0  0  0  0  0  0  0
  140.0430   68.5300  229.2100 F   0  0  0  0  0  0  0  0  0  0  0  0
  140.8480   70.5450  228.1680 C   0  0  0  0  0  0  0  0  0  0  0  0
  141.0180   71.3430  227.0520 C   0  0  0  0  0  0  0  0  0  0  0  0
  140.5220   70.8780  225.8310 C   0  0  0  0  0  0  0  0  0  0  0  0
  140.6580   71.6100  224.7120 N   0  0  0  0  0  0  0  0  0  0  0  0
  139.5740   73.8470  223.1670 H   0  0  0  0  0  0  0  0  0  0  0  0
  140.8940   73.6427  220.4604 H   0  0  0  0  0  0  0  0  0  0  0  0
  139.1788   74.2240  220.5918 H   0  0  0  0  0  0  0  0  0  0  0  0
  142.5752   74.8733  219.3134 H   0  0  0  0  0  0  0  0  0  0  0  0
  141.0340   75.2530  218.5939 H   0  0  0  0  0  0  0  0  0  0  0  0
  143.6045   76.8197  218.5877 H   0  0  0  0  0  0  0  0  0  0  0  0
  142.2728   76.9152  217.4234 H   0  0  0  0  0  0  0  0  0  0  0  0
  142.6785   78.9629  219.1181 H   0  0  0  0  0  0  0  0  0  0  0  0
  141.0338   78.4986  218.8403 H   0  0  0  0  0  0  0  0  0  0  0  0
  142.9209   77.5680  221.1537 H   0  0  0  0  0  0  0  0  0  0  0  0
  139.7355   79.0175  220.1560 H   0  0  0  0  0  0  0  0  0  0  0  0
  138.5023   80.4729  221.6881 H   0  0  0  0  0  0  0  0  0  0  0  0
  141.3139   79.5814  224.7876 H   0  0  0  0  0  0  0  0  0  0  0  0
  142.5530   78.1206  223.2548 H   0  0  0  0  0  0  0  0  0  0  0  0
  139.1843   69.6494  222.4770 H   0  0  0  0  0  0  0  0  0  0  0  0
  138.8855   68.2333  224.4746 H   0  0  0  0  0  0  0  0  0  0  0  0
  139.2127   67.8870  226.8482 H   0  0  0  0  0  0  0  0  0  0  0  0
  141.2345   70.9006  229.1345 H   0  0  0  0  0  0  0  0  0  0  0  0
  141.5284   72.3148  227.1229 H   0  0  0  0  0  0  0  0  0  0  0  0
  1  2  2  0
  2  3  1  0
  3  4  1  0
  4  5  1  0
  5  6  2  0
  5  7  1  0
  7  8  1  0
  8  9  1  0
  9 10  1  0
 10 11  1  0
 11 12  1  0
 12 13  2  0
 13 14  1  0
 14 15  2  0
 15 16  1  0
 16 17  1  0
 17 18  1  0
 17 19  1  0
 17 20  1  0
 15 21  1  0
 21 22  2  0
  2 23  1  0
 23 24  2  0
 24 25  1  0
 25 26  2  0
 26 27  1  0
 27 28  2  0
 28 29  1  0
 28 30  1  0
 30 31  2  0
 31 32  1  0
 32 33  2  0
 11  7  1  0
 22 12  1  0
 33 23  1  0
 32 26  1  0
  3 34  1  0
  4 35  1  0
  4 36  1  0
  8 37  1  0
  8 38  1  0
  9 39  1  0
  9 40  1  0
 10 41  1  0
 10 42  1  0
 11 43  1  1
 13 44  1  0
 14 45  1  0
 21 46  1  0
 22 47  1  0
 24 48  1  0
 25 49  1  0
 27 50  1  0
 30 51  1  0
 31 52  1  0
M  END
>  <smiles>  (66) 
O=C(NCC(=O)N1CCCC1c1ccc(OC(F)(F)F)cc1)c1ccc2cc(F)ccc2n1

>  <score_type>  (66) 
oracle

>  <origin>  (66) 
autodockgpu

>  <m_score__min__energy>  (66) 
-8.4399999999999995

>  <m_primary>  (66) 
energy

>  <rmsd>  (66) 
1.762578328968891

>  <m_score__min__rmsd>  (66) 
1.762578328968891

>  <meeko>  (66) 
{"free_energy": -8.24, "intermolecular_energy": -10.33, "internal_energy": -1.65, "cluster_size": 13, "cluster_id": 1, "rank_in_cluster": 9}

>  <energy>  (66) 
-7.89

>  <cluster_rmsd>  (66) 
0.34

>  <cluster>  (66) 
2

$$$$

     RDKit          3D

 52 55  0  0  0  0  0  0  0  0999 V2000
  139.0710   70.7350  221.4720 O   0  0  0  0  0  0  0  0  0  0  0  0
  139.1420   71.5660  222.4420 C   0  0  0  0  0  0  0  0  0  0  0  0
  138.7580   72.9250  222.2830 N   0  0  0  0  0  0  0  0  0  0  0  0
  138.2840   73.3470  220.9990 C   0  0  0  0  0  0  0  0  0  0  0  0
  139.3890   73.8130  220.1220 C   0  0  0  0  0  0  0  0  0  0  0  0
  139.0480   74.5850  219.1670 O   0  0  0  0  0  0  0  0  0  0  0  0
  140.7520   73.4290  220.3260 N   0  0  0  0  0  0  0  0  0  0  0  0
  141.2920   72.2060  219.7570 C   0  0  0  0  0  0  0  0  0  0  0  0
  142.7650   72.3450  220.0690 C   0  0  0  0  0  0  0  0  0  0  0  0
  142.9990   73.8170  220.3420 C   0  0  0  0  0  0  0  0  0  0  0  0
  141.7200   74.1550  221.0790 C   0  0  1  0  0  0  0  0  0  0  0  0
  141.5010   75.5730  221.2700 C   0  0  0  0  0  0  0  0  0  0  0  0
  142.0180   76.5080  220.3800 C   0  0  0  0  0  0  0  0  0  0  0  0
  141.8270   77.8620  220.5260 C   0  0  0  0  0  0  0  0  0  0  0  0
  141.0990   78.3590  221.5860 C   0  0  0  0  0  0  0  0  0  0  0  0
  140.8860   79.7230  221.7640 O   0  0  0  0  0  0  0  0  0  0  0  0
  141.7410   80.4890  222.6290 C   0  0  0  0  0  0  0  0  0  0  0  0
  141.1180   80.7550  223.8210 F   0  0  0  0  0  0  0  0  0  0  0  0
  142.9120   79.7800  222.7800 F   0  0  0  0  0  0  0  0  0  0  0  0
  142.0780   81.6830  222.0210 F   0  0  0  0  0  0  0  0  0  0  0  0
  140.5710   77.4580  222.4870 C   0  0  0  0  0  0  0  0  0  0  0  0
  140.7660   76.1010  222.3360 C   0  0  0  0  0  0  0  0  0  0  0  0
  139.6330   71.0860  223.7360 C   0  0  0  0  0  0  0  0  0  0  0  0
  140.4800   71.8670  224.4930 C   0  0  0  0  0  0  0  0  0  0  0  0
  140.9650   71.4560  225.7170 C   0  0  0  0  0  0  0  0  0  0  0  0
  140.5920   70.2170  226.2070 C   0  0  0  0  0  0  0  0  0  0  0  0
  141.0620   69.7800  227.4300 C   0  0  0  0  0  0  0  0  0  0  0  0
  140.6740   68.5390  227.9000 C   0  0  0  0  0  0  0  0  0  0  0  0
  141.1500   68.1370  229.1020 F   0  0  0  0  0  0  0  0  0  0  0  0
  139.8230   67.7630  227.1300 C   0  0  0  0  0  0  0  0  0  0  0  0
  139.3390   68.1770  225.9030 C   0  0  0  0  0  0  0  0  0  0  0  0
  139.7320   69.4330  225.4320 C   0  0  0  0  0  0  0  0  0  0  0  0
  139.2940   69.8890  224.2470 N   0  0  0  0  0  0  0  0  0  0  0  0
  138.8210   73.6020  223.0910 H   0  0  0  0  0  0  0  0  0  0  0  0
  137.7773   72.5008  220.5121 H   0  0  0  0  0  0  0  0  0  0  0  0
  137.5941   74.1900  221.1523 H   0  0  0  0  0  0  0  0  0  0  0  0
  140.8625   71.3158  220.2397 H   0  0  0  0  0  0  0  0  0  0  0  0
  141.0731   72.0776  218.6867 H   0  0  0  0  0  0  0  0  0  0  0  0
  143.0260   71.7463  220.9541 H   0  0  0  0  0  0  0  0  0  0  0  0
  143.3880   71.9865  219.2363 H   0  0  0  0  0  0  0  0  0  0  0  0
  143.8872   73.9794  220.9703 H   0  0  0  0  0  0  0  0  0  0  0  0
  143.1940   74.4284  219.4486 H   0  0  0  0  0  0  0  0  0  0  0  0
  141.7031   73.8587  222.1382 H   0  0  0  0  0  0  0  0  0  0  0  0
  142.6053   76.1490  219.5219 H   0  0  0  0  0  0  0  0  0  0  0  0
  142.2594   78.5554  219.7897 H   0  0  0  0  0  0  0  0  0  0  0  0
  139.9843   77.8281  223.3407 H   0  0  0  0  0  0  0  0  0  0  0  0
  140.3304   75.4136  223.0761 H   0  0  0  0  0  0  0  0  0  0  0  0
  140.7796   72.8526  224.1073 H   0  0  0  0  0  0  0  0  0  0  0  0
  141.6392   72.1045  226.2958 H   0  0  0  0  0  0  0  0  0  0  0  0
  141.7380   70.4127  228.0239 H   0  0  0  0  0  0  0  0  0  0  0  0
  139.5198   66.7765  227.5107 H   0  0  0  0  0  0  0  0  0  0  0  0
  138.6647   67.5371  225.3149 H   0  0  0  0  0  0  0  0  0  0  0  0
  1  2  2  0
  2  3  1  0
  3  4  1  0
  4  5  1  0
  5  6  2  0
  5  7  1  0
  7  8  1  0
  8  9  1  0
  9 10  1  0
 10 11  1  0
 11 12  1  0
 12 13  2  0
 13 14  1  0
 14 15  2  0
 15 16  1  0
 16 17  1  0
 17 18  1  0
 17 19  1  0
 17 20  1  0
 15 21  1  0
 21 22  2  0
  2 23  1  0
 23 24  2  0
 24 25  1  0
 25 26  2  0
 26 27  1  0
 27 28  2  0
 28 29  1  0
 28 30  1  0
 30 31  2  0
 31 32  1  0
 32 33  2  0
 11  7  1  0
 22 12  1  0
 33 23  1  0
 32 26  1  0
  3 34  1  0
  4 35  1  0
  4 36  1  0
  8 37  1  0
  8 38  1  0
  9 39  1  0
  9 40  1  0
 10 41  1  0
 10 42  1  0
 11 43  1  1
 13 44  1  0
 14 45  1  0
 21 46  1  0
 22 47  1  0
 24 48  1  0
 25 49  1  0
 27 50  1  0
 30 51  1  0
 31 52  1  0
M  END
>  <smiles>  (67) 
O=C(NCC(=O)N1CCCC1c1ccc(OC(F)(F)F)cc1)c1ccc2cc(F)ccc2n1

>  <score_type>  (67) 
oracle

>  <origin>  (67) 
autodockgpu

>  <m_score__min__energy>  (67) 
-8.4399999999999995

>  <m_primary>  (67) 
energy

>  <rmsd>  (67) 
3.2951219334137587

>  <m_score__min__rmsd>  (67) 
3.2951219334137587

>  <meeko>  (67) 
{"free_energy": -7.33, "intermolecular_energy": -9.42, "internal_energy": -1.94, "cluster_size": 2, "cluster_id": 5, "rank_in_cluster": 1}

>  <energy>  (67) 
-7.83

>  <cluster_rmsd>  (67) 
0.36

>  <cluster>  (67) 
2

$$$$

     RDKit          3D

 52 55  0  0  0  0  0  0  0  0999 V2000
  133.9480   69.8140  226.7550 O   0  0  0  0  0  0  0  0  0  0  0  0
  134.1200   70.8530  226.0300 C   0  0  0  0  0  0  0  0  0  0  0  0
  134.8760   70.8030  224.8270 N   0  0  0  0  0  0  0  0  0  0  0  0
  135.4480   69.5470  224.4420 C   0  0  0  0  0  0  0  0  0  0  0  0
  136.1820   69.6410  223.1540 C   0  0  0  0  0  0  0  0  0  0  0  0
  136.0210   70.7260  222.5040 O   0  0  0  0  0  0  0  0  0  0  0  0
  137.0190   68.5890  222.6620 N   0  0  0  0  0  0  0  0  0  0  0  0
  136.6940   67.8610  221.4480 C   0  0  0  0  0  0  0  0  0  0  0  0
  137.9380   67.0280  221.2450 C   0  0  0  0  0  0  0  0  0  0  0  0
  139.0280   67.6970  222.0580 C   0  0  0  0  0  0  0  0  0  0  0  0
  138.2260   68.1320  223.2660 C   0  0  1  0  0  0  0  0  0  0  0  0
  138.9260   69.0430  224.1480 C   0  0  0  0  0  0  0  0  0  0  0  0
  139.5920   70.1580  223.6510 C   0  0  0  0  0  0  0  0  0  0  0  0
  140.2640   71.0470  224.4570 C   0  0  0  0  0  0  0  0  0  0  0  0
  140.3050   70.8640  225.8220 C   0  0  0  0  0  0  0  0  0  0  0  0
  140.9750   71.7440  226.6670 O   0  0  0  0  0  0  0  0  0  0  0  0
  141.0630   71.4810  228.0770 C   0  0  0  0  0  0  0  0  0  0  0  0
  139.8740   71.7590  228.7020 F   0  0  0  0  0  0  0  0  0  0  0  0
  141.4520   70.1670  228.2250 F   0  0  0  0  0  0  0  0  0  0  0  0
  142.0600   72.2540  228.6400 F   0  0  0  0  0  0  0  0  0  0  0  0
  139.6530   69.7680  226.3480 C   0  0  0  0  0  0  0  0  0  0  0  0
  138.9820   68.8800  225.5350 C   0  0  0  0  0  0  0  0  0  0  0  0
  133.5140   72.1140  226.4670 C   0  0  0  0  0  0  0  0  0  0  0  0
  132.3530   72.1080  227.2110 C   0  0  0  0  0  0  0  0  0  0  0  0
  131.7510   73.2710  227.6440 C   0  0  0  0  0  0  0  0  0  0  0  0
  132.3260   74.4880  227.3240 C   0  0  0  0  0  0  0  0  0  0  0  0
  131.7450   75.6670  227.7460 C   0  0  0  0  0  0  0  0  0  0  0  0
  132.3390   76.8710  227.4150 C   0  0  0  0  0  0  0  0  0  0  0  0
  131.7460   78.0110  227.8430 F   0  0  0  0  0  0  0  0  0  0  0  0
  133.5040   76.8630  226.6670 C   0  0  0  0  0  0  0  0  0  0  0  0
  134.1060   75.6970  226.2330 C   0  0  0  0  0  0  0  0  0  0  0  0
  133.5030   74.4820  226.5700 C   0  0  0  0  0  0  0  0  0  0  0  0
  134.0430   73.3160  226.1760 N   0  0  0  0  0  0  0  0  0  0  0  0
  135.0110   71.6690  224.2380 H   0  0  0  0  0  0  0  0  0  0  0  0
  136.1469   69.2199  225.2259 H   0  0  0  0  0  0  0  0  0  0  0  0
  134.6278   68.8253  224.3136 H   0  0  0  0  0  0  0  0  0  0  0  0
  135.8057   67.2272  221.5867 H   0  0  0  0  0  0  0  0  0  0  0  0
  136.4465   68.5078  220.5934 H   0  0  0  0  0  0  0  0  0  0  0  0
  137.7720   66.0006  221.6011 H   0  0  0  0  0  0  0  0  0  0  0  0
  138.2108   66.9651  220.1812 H   0  0  0  0  0  0  0  0  0  0  0  0
  139.8258   66.9905  222.3306 H   0  0  0  0  0  0  0  0  0  0  0  0
  139.5611   68.5076  221.5396 H   0  0  0  0  0  0  0  0  0  0  0  0
  138.0269   67.3380  224.0008 H   0  0  0  0  0  0  0  0  0  0  0  0
  139.5809   70.3368  222.5657 H   0  0  0  0  0  0  0  0  0  0  0  0
  140.7735   71.9122  224.0077 H   0  0  0  0  0  0  0  0  0  0  0  0
  139.6689   69.5998  227.4350 H   0  0  0  0  0  0  0  0  0  0  0  0
  138.4753   68.0170  225.9915 H   0  0  0  0  0  0  0  0  0  0  0  0
  131.8914   71.1432  227.4678 H   0  0  0  0  0  0  0  0  0  0  0  0
  130.8251   73.2314  228.2365 H   0  0  0  0  0  0  0  0  0  0  0  0
  130.8190   75.6489  228.3395 H   0  0  0  0  0  0  0  0  0  0  0  0
  133.9700   77.8249  226.4072 H   0  0  0  0  0  0  0  0  0  0  0  0
  135.0321   75.7245  225.6400 H   0  0  0  0  0  0  0  0  0  0  0  0
  1  2  2  0
  2  3  1  0
  3  4  1  0
  4  5  1  0
  5  6  2  0
  5  7  1  0
  7  8  1  0
  8  9  1  0
  9 10  1  0
 10 11  1  0
 11 12  1  0
 12 13  2  0
 13 14  1  0
 14 15  2  0
 15 16  1  0
 16 17  1  0
 17 18  1  0
 17 19  1  0
 17 20  1  0
 15 21  1  0
 21 22  2  0
  2 23  1  0
 23 24  2  0
 24 25  1  0
 25 26  2  0
 26 27  1  0
 27 28  2  0
 28 29  1  0
 28 30  1  0
 30 31  2  0
 31 32  1  0
 32 33  2  0
 11  7  1  0
 22 12  1  0
 33 23  1  0
 32 26  1  0
  3 34  1  0
  4 35  1  0
  4 36  1  0
  8 37  1  0
  8 38  1  0
  9 39  1  0
  9 40  1  0
 10 41  1  0
 10 42  1  0
 11 43  1  1
 13 44  1  0
 14 45  1  0
 21 46  1  0
 22 47  1  0
 24 48  1  0
 25 49  1  0
 27 50  1  0
 30 51  1  0
 31 52  1  0
M  END
>  <smiles>  (68) 
O=C(NCC(=O)N1CCCC1c1ccc(OC(F)(F)F)cc1)c1ccc2cc(F)ccc2n1

>  <score_type>  (68) 
oracle

>  <origin>  (68) 
autodockgpu

>  <m_score__min__energy>  (68) 
-8.4399999999999995

>  <m_primary>  (68) 
energy

>  <rmsd>  (68) 
8.856591341924595

>  <m_score__min__rmsd>  (68) 
8.856591341924595

>  <meeko>  (68) 
{"free_energy": -7.08, "intermolecular_energy": -9.17, "internal_energy": -2.03, "cluster_size": 1, "cluster_id": 6, "rank_in_cluster": 1}

>  <energy>  (68) 
-7.79

>  <cluster_rmsd>  (68) 
0.69

>  <cluster>  (68) 
2

$$$$

     RDKit          3D

 52 55  0  0  0  0  0  0  0  0999 V2000
  140.8160   71.7310  221.1770 O   0  0  0  0  0  0  0  0  0  0  0  0
  140.3340   72.2910  222.2220 C   0  0  0  0  0  0  0  0  0  0  0  0
  139.9560   73.6610  222.2230 N   0  0  0  0  0  0  0  0  0  0  0  0
  140.1290   74.4090  221.0130 C   0  0  0  0  0  0  0  0  0  0  0  0
  140.6690   75.7680  221.2710 C   0  0  0  0  0  0  0  0  0  0  0  0
  140.6880   76.1330  222.4920 O   0  0  0  0  0  0  0  0  0  0  0  0
  141.1440   76.6230  220.2250 N   0  0  0  0  0  0  0  0  0  0  0  0
  140.7400   78.0160  220.1390 C   0  0  0  0  0  0  0  0  0  0  0  0
  141.6330   78.5270  219.0310 C   0  0  0  0  0  0  0  0  0  0  0  0
  142.7770   77.5380  218.9240 C   0  0  0  0  0  0  0  0  0  0  0  0
  142.0310   76.2450  219.1760 C   0  0  1  0  0  0  0  0  0  0  0  0
  142.8880   75.0990  219.3980 C   0  0  0  0  0  0  0  0  0  0  0  0
  144.0800   75.2160  220.1040 C   0  0  0  0  0  0  0  0  0  0  0  0
  144.9170   74.1500  220.3380 C   0  0  0  0  0  0  0  0  0  0  0  0
  144.6000   72.8930  219.8700 C   0  0  0  0  0  0  0  0  0  0  0  0
  145.4230   71.7920  220.0890 O   0  0  0  0  0  0  0  0  0  0  0  0
  145.5530   70.7660  219.0910 C   0  0  0  0  0  0  0  0  0  0  0  0
  146.6760   70.0110  219.3090 F   0  0  0  0  0  0  0  0  0  0  0  0
  144.3930   70.0230  219.1140 F   0  0  0  0  0  0  0  0  0  0  0  0
  145.6310   71.3370  217.8350 F   0  0  0  0  0  0  0  0  0  0  0  0
  143.4230   72.7420  219.1670 C   0  0  0  0  0  0  0  0  0  0  0  0
  142.5880   73.8140  218.9350 C   0  0  0  0  0  0  0  0  0  0  0  0
  140.1770   71.4820  223.4340 C   0  0  0  0  0  0  0  0  0  0  0  0
  139.5730   70.2440  223.3720 C   0  0  0  0  0  0  0  0  0  0  0  0
  139.4060   69.4500  224.4870 C   0  0  0  0  0  0  0  0  0  0  0  0
  139.8570   69.9060  225.7130 C   0  0  0  0  0  0  0  0  0  0  0  0
  139.7030   69.1310  226.8460 C   0  0  0  0  0  0  0  0  0  0  0  0
  140.1630   69.6080  228.0590 C   0  0  0  0  0  0  0  0  0  0  0  0
  139.9990   68.8260  229.1530 F   0  0  0  0  0  0  0  0  0  0  0  0
  140.7660   70.8540  228.1090 C   0  0  0  0  0  0  0  0  0  0  0  0
  140.9330   71.6490  226.9900 C   0  0  0  0  0  0  0  0  0  0  0  0
  140.4670   71.1630  225.7650 C   0  0  0  0  0  0  0  0  0  0  0  0
  140.6010   71.8910  224.6430 N   0  0  0  0  0  0  0  0  0  0  0  0
  139.5600   74.1110  223.0920 H   0  0  0  0  0  0  0  0  0  0  0  0
  140.8275   73.8678  220.3579 H   0  0  0  0  0  0  0  0  0  0  0  0
  139.1429   74.5199  220.5384 H   0  0  0  0  0  0  0  0  0  0  0  0
  139.6769   78.1093  219.8723 H   0  0  0  0  0  0  0  0  0  0  0  0
  140.8409   78.5691  221.0845 H   0  0  0  0  0  0  0  0  0  0  0  0
  141.0772   78.5721  218.0828 H   0  0  0  0  0  0  0  0  0  0  0  0
  141.9980   79.5424  219.2447 H   0  0  0  0  0  0  0  0  0  0  0  0
  143.2392   77.5548  217.9259 H   0  0  0  0  0  0  0  0  0  0  0  0
  143.6188   77.7277  219.6061 H   0  0  0  0  0  0  0  0  0  0  0  0
  141.4778   75.8522  218.3102 H   0  0  0  0  0  0  0  0  0  0  0  0
  144.3662   76.2045  220.4925 H   0  0  0  0  0  0  0  0  0  0  0  0
  145.8480   74.3021  220.9039 H   0  0  0  0  0  0  0  0  0  0  0  0
  143.1457   71.7485  218.7847 H   0  0  0  0  0  0  0  0  0  0  0  0
  141.6584   73.6540  218.3691 H   0  0  0  0  0  0  0  0  0  0  0  0
  139.2120   69.8772  222.3998 H   0  0  0  0  0  0  0  0  0  0  0  0
  138.9204   68.4666  224.4028 H   0  0  0  0  0  0  0  0  0  0  0  0
  139.2195   68.1449  226.7836 H   0  0  0  0  0  0  0  0  0  0  0  0
  141.1270   71.2265  229.0790 H   0  0  0  0  0  0  0  0  0  0  0  0
  141.4178   72.6338  227.0616 H   0  0  0  0  0  0  0  0  0  0  0  0
  1  2  2  0
  2  3  1  0
  3  4  1  0
  4  5  1  0
  5  6  2  0
  5  7  1  0
  7  8  1  0
  8  9  1  0
  9 10  1  0
 10 11  1  0
 11 12  1  0
 12 13  2  0
 13 14  1  0
 14 15  2  0
 15 16  1  0
 16 17  1  0
 17 18  1  0
 17 19  1  0
 17 20  1  0
 15 21  1  0
 21 22  2  0
  2 23  1  0
 23 24  2  0
 24 25  1  0
 25 26  2  0
 26 27  1  0
 27 28  2  0
 28 29  1  0
 28 30  1  0
 30 31  2  0
 31 32  1  0
 32 33  2  0
 11  7  1  0
 22 12  1  0
 33 23  1  0
 32 26  1  0
  3 34  1  0
  4 35  1  0
  4 36  1  0
  8 37  1  0
  8 38  1  0
  9 39  1  0
  9 40  1  0
 10 41  1  0
 10 42  1  0
 11 43  1  6
 13 44  1  0
 14 45  1  0
 21 46  1  0
 22 47  1  0
 24 48  1  0
 25 49  1  0
 27 50  1  0
 30 51  1  0
 31 52  1  0
M  END
>  <smiles>  (69) 
O=C(NCC(=O)N1CCCC1c1ccc(OC(F)(F)F)cc1)c1ccc2cc(F)ccc2n1

>  <score_type>  (69) 
oracle

>  <origin>  (69) 
autodockgpu

>  <m_score__min__energy>  (69) 
-8.4399999999999995

>  <m_primary>  (69) 
energy

>  <rmsd>  (69) 
2.1150184328673696

>  <m_score__min__rmsd>  (69) 
2.1150184328673696

>  <meeko>  (69) 
{"free_energy": -7.65, "intermolecular_energy": -9.73, "internal_energy": -2.05, "cluster_size": 13, "cluster_id": 2, "rank_in_cluster": 7}

>  <energy>  (69) 
-7.66

>  <cluster_rmsd>  (69) 
0.56

>  <cluster>  (69) 
2

$$$$

     RDKit          3D

 52 55  0  0  0  0  0  0  0  0999 V2000
  139.0810   70.8510  221.5310 O   0  0  0  0  0  0  0  0  0  0  0  0
  139.3150   71.6750  222.4810 C   0  0  0  0  0  0  0  0  0  0  0  0
  139.1540   73.0760  222.3040 N   0  0  0  0  0  0  0  0  0  0  0  0
  138.7180   73.5490  221.0240 C   0  0  0  0  0  0  0  0  0  0  0  0
  139.7250   73.2920  219.9620 C   0  0  0  0  0  0  0  0  0  0  0  0
  139.3110   73.4270  218.7640 O   0  0  0  0  0  0  0  0  0  0  0  0
  141.0760   72.9180  220.2520 N   0  0  0  0  0  0  0  0  0  0  0  0
  141.6170   71.6360  219.8350 C   0  0  0  0  0  0  0  0  0  0  0  0
  143.0810   71.7930  220.1790 C   0  0  0  0  0  0  0  0  0  0  0  0
  143.3260   73.2840  220.3010 C   0  0  0  0  0  0  0  0  0  0  0  0
  142.0290   73.7110  220.9550 C   0  0  1  0  0  0  0  0  0  0  0  0
  141.8230   75.1440  220.9850 C   0  0  0  0  0  0  0  0  0  0  0  0
  141.0420   75.7400  221.9690 C   0  0  0  0  0  0  0  0  0  0  0  0
  140.8280   77.0960  222.0320 C   0  0  0  0  0  0  0  0  0  0  0  0
  141.3920   77.9410  221.1000 C   0  0  0  0  0  0  0  0  0  0  0  0
  141.1950   79.3180  221.1340 O   0  0  0  0  0  0  0  0  0  0  0  0
  141.6800   80.0990  222.2390 C   0  0  0  0  0  0  0  0  0  0  0  0
  141.8410   81.4110  221.8780 F   0  0  0  0  0  0  0  0  0  0  0  0
  140.7900   79.9330  223.2790 F   0  0  0  0  0  0  0  0  0  0  0  0
  142.8920   79.5990  222.6740 F   0  0  0  0  0  0  0  0  0  0  0  0
  142.1730   77.3820  220.1100 C   0  0  0  0  0  0  0  0  0  0  0  0
  142.3840   76.0210  220.0510 C   0  0  0  0  0  0  0  0  0  0  0  0
  139.7590   71.1420  223.7720 C   0  0  0  0  0  0  0  0  0  0  0  0
  140.6120   71.8740  224.5710 C   0  0  0  0  0  0  0  0  0  0  0  0
  141.0530   71.4120  225.7930 C   0  0  0  0  0  0  0  0  0  0  0  0
  140.6290   70.1720  226.2380 C   0  0  0  0  0  0  0  0  0  0  0  0
  141.0540   69.6850  227.4590 C   0  0  0  0  0  0  0  0  0  0  0  0
  140.6150   68.4450  227.8830 C   0  0  0  0  0  0  0  0  0  0  0  0
  141.0480   67.9940  229.0840 F   0  0  0  0  0  0  0  0  0  0  0  0
  139.7590   67.7200  227.0700 C   0  0  0  0  0  0  0  0  0  0  0  0
  139.3180   68.1840  225.8450 C   0  0  0  0  0  0  0  0  0  0  0  0
  139.7640   69.4390  225.4200 C   0  0  0  0  0  0  0  0  0  0  0  0
  139.3690   69.9430  224.2390 N   0  0  0  0  0  0  0  0  0  0  0  0
  139.3510   73.7470  223.0950 H   0  0  0  0  0  0  0  0  0  0  0  0
  137.7817   73.0374  220.7566 H   0  0  0  0  0  0  0  0  0  0  0  0
  138.5710   74.6367  221.0962 H   0  0  0  0  0  0  0  0  0  0  0  0
  141.1603   70.8069  220.3954 H   0  0  0  0  0  0  0  0  0  0  0  0
  141.4305   71.3958  218.7779 H   0  0  0  0  0  0  0  0  0  0  0  0
  143.3056   71.2899  221.1311 H   0  0  0  0  0  0  0  0  0  0  0  0
  143.7253   71.3412  219.4104 H   0  0  0  0  0  0  0  0  0  0  0  0
  144.1958   73.5040  220.9374 H   0  0  0  0  0  0  0  0  0  0  0  0
  143.5576   73.7944  219.3545 H   0  0  0  0  0  0  0  0  0  0  0  0
  141.9742   73.5299  222.0386 H   0  0  0  0  0  0  0  0  0  0  0  0
  140.5750   75.0980  222.7304 H   0  0  0  0  0  0  0  0  0  0  0  0
  140.2003   77.5114  222.8342 H   0  0  0  0  0  0  0  0  0  0  0  0
  142.6356   78.0337  219.3542 H   0  0  0  0  0  0  0  0  0  0  0  0
  143.0121   75.6127  219.2456 H   0  0  0  0  0  0  0  0  0  0  0  0
  140.9521   72.8600  224.2215 H   0  0  0  0  0  0  0  0  0  0  0  0
  141.7331   72.0212  226.4064 H   0  0  0  0  0  0  0  0  0  0  0  0
  141.7348   70.2781  228.0873 H   0  0  0  0  0  0  0  0  0  0  0  0
  139.4157   66.7332  227.4140 H   0  0  0  0  0  0  0  0  0  0  0  0
  138.6369   67.5842  225.2235 H   0  0  0  0  0  0  0  0  0  0  0  0
  1  2  2  0
  2  3  1  0
  3  4  1  0
  4  5  1  0
  5  6  2  0
  5  7  1  0
  7  8  1  0
  8  9  1  0
  9 10  1  0
 10 11  1  0
 11 12  1  0
 12 13  2  0
 13 14  1  0
 14 15  2  0
 15 16  1  0
 16 17  1  0
 17 18  1  0
 17 19  1  0
 17 20  1  0
 15 21  1  0
 21 22  2  0
  2 23  1  0
 23 24  2  0
 24 25  1  0
 25 26  2  0
 26 27  1  0
 27 28  2  0
 28 29  1  0
 28 30  1  0
 30 31  2  0
 31 32  1  0
 32 33  2  0
 11  7  1  0
 22 12  1  0
 33 23  1  0
 32 26  1  0
  3 34  1  0
  4 35  1  0
  4 36  1  0
  8 37  1  0
  8 38  1  0
  9 39  1  0
  9 40  1  0
 10 41  1  0
 10 42  1  0
 11 43  1  1
 13 44  1  0
 14 45  1  0
 21 46  1  0
 22 47  1  0
 24 48  1  0
 25 49  1  0
 27 50  1  0
 30 51  1  0
 31 52  1  0
M  END
>  <smiles>  (70) 
O=C(NCC(=O)N1CCCC1c1ccc(OC(F)(F)F)cc1)c1ccc2cc(F)ccc2n1

>  <score_type>  (70) 
oracle

>  <origin>  (70) 
autodockgpu

>  <m_score__min__energy>  (70) 
-8.4399999999999995

>  <m_primary>  (70) 
energy

>  <rmsd>  (70) 
3.5590266573223057

>  <m_score__min__rmsd>  (70) 
3.5590266573223057

>  <meeko>  (70) 
{"free_energy": -7.32, "intermolecular_energy": -9.41, "internal_energy": -1.93, "cluster_size": 7, "cluster_id": 4, "rank_in_cluster": 3}

>  <energy>  (70) 
-7.65

>  <cluster_rmsd>  (70) 
0.57

>  <cluster>  (70) 
2

$$$$

     RDKit          3D

 52 55  0  0  0  0  0  0  0  0999 V2000
  141.0230   77.8810  218.0530 O   0  0  0  0  0  0  0  0  0  0  0  0
  141.9260   77.6570  218.9310 C   0  0  0  0  0  0  0  0  0  0  0  0
  142.2020   78.5890  219.9670 N   0  0  0  0  0  0  0  0  0  0  0  0
  141.4370   79.8000  220.0070 C   0  0  0  0  0  0  0  0  0  0  0  0
  141.4440   80.4190  221.3570 C   0  0  0  0  0  0  0  0  0  0  0  0
  142.5950   80.6490  221.8530 O   0  0  0  0  0  0  0  0  0  0  0  0
  140.2430   80.7430  222.0650 N   0  0  0  0  0  0  0  0  0  0  0  0
  139.6400   82.0620  221.9790 C   0  0  0  0  0  0  0  0  0  0  0  0
  138.3330   81.8520  222.7080 C   0  0  0  0  0  0  0  0  0  0  0  0
  138.0920   80.3560  222.7150 C   0  0  0  0  0  0  0  0  0  0  0  0
  139.5090   79.8620  222.9120 C   0  0  1  0  0  0  0  0  0  0  0  0
  139.6760   78.4380  222.7090 C   0  0  0  0  0  0  0  0  0  0  0  0
  138.5810   77.6070  222.4970 C   0  0  0  0  0  0  0  0  0  0  0  0
  138.7010   76.2520  222.2970 C   0  0  0  0  0  0  0  0  0  0  0  0
  139.9400   75.6480  222.2980 C   0  0  0  0  0  0  0  0  0  0  0  0
  140.0970   74.2800  222.0980 O   0  0  0  0  0  0  0  0  0  0  0  0
  140.6550   73.7790  220.8730 C   0  0  0  0  0  0  0  0  0  0  0  0
  139.9900   72.6550  220.4550 F   0  0  0  0  0  0  0  0  0  0  0  0
  140.6090   74.8040  219.9530 F   0  0  0  0  0  0  0  0  0  0  0  0
  141.9900   73.4710  221.0540 F   0  0  0  0  0  0  0  0  0  0  0  0
  141.0470   76.4440  222.5050 C   0  0  0  0  0  0  0  0  0  0  0  0
  140.9210   77.8020  222.7050 C   0  0  0  0  0  0  0  0  0  0  0  0
  142.6820   76.4040  218.8470 C   0  0  0  0  0  0  0  0  0  0  0  0
  142.5970   75.6130  217.7200 C   0  0  0  0  0  0  0  0  0  0  0  0
  143.2920   74.4280  217.5980 C   0  0  0  0  0  0  0  0  0  0  0  0
  144.1030   74.0130  218.6390 C   0  0  0  0  0  0  0  0  0  0  0  0
  144.8110   72.8310  218.5440 C   0  0  0  0  0  0  0  0  0  0  0  0
  145.6160   72.4370  219.5960 C   0  0  0  0  0  0  0  0  0  0  0  0
  146.2980   71.2740  219.4740 F   0  0  0  0  0  0  0  0  0  0  0  0
  145.6920   73.2390  220.7230 C   0  0  0  0  0  0  0  0  0  0  0  0
  144.9940   74.4260  220.8430 C   0  0  0  0  0  0  0  0  0  0  0  0
  144.1820   74.8220  219.7770 C   0  0  0  0  0  0  0  0  0  0  0  0
  143.4800   75.9660  219.8370 N   0  0  0  0  0  0  0  0  0  0  0  0
  142.9510   78.3930  220.6850 H   0  0  0  0  0  0  0  0  0  0  0  0
  141.8641   80.5136  219.2870 H   0  0  0  0  0  0  0  0  0  0  0  0
  140.3959   79.5524  219.7525 H   0  0  0  0  0  0  0  0  0  0  0  0
  140.2607   82.8197  222.4797 H   0  0  0  0  0  0  0  0  0  0  0  0
  139.5218   82.4317  220.9498 H   0  0  0  0  0  0  0  0  0  0  0  0
  138.4048   82.2320  223.7378 H   0  0  0  0  0  0  0  0  0  0  0  0
  137.5082   82.3898  222.2177 H   0  0  0  0  0  0  0  0  0  0  0  0
  137.4350   80.0523  223.5433 H   0  0  0  0  0  0  0  0  0  0  0  0
  137.5851   79.9644  221.8208 H   0  0  0  0  0  0  0  0  0  0  0  0
  139.8758   79.9087  223.9480 H   0  0  0  0  0  0  0  0  0  0  0  0
  137.5755   78.0531  222.4890 H   0  0  0  0  0  0  0  0  0  0  0  0
  137.7990   75.6437  222.1345 H   0  0  0  0  0  0  0  0  0  0  0  0
  142.0477   75.9873  222.5106 H   0  0  0  0  0  0  0  0  0  0  0  0
  141.8277   78.4036  222.8664 H   0  0  0  0  0  0  0  0  0  0  0  0
  141.9527   75.9386  216.8900 H   0  0  0  0  0  0  0  0  0  0  0  0
  143.2026   73.8209  216.6851 H   0  0  0  0  0  0  0  0  0  0  0  0
  144.7349   72.2092  217.6398 H   0  0  0  0  0  0  0  0  0  0  0  0
  146.3341   72.9181  221.5565 H   0  0  0  0  0  0  0  0  0  0  0  0
  145.0754   75.0411  221.7513 H   0  0  0  0  0  0  0  0  0  0  0  0
  1  2  2  0
  2  3  1  0
  3  4  1  0
  4  5  1  0
  5  6  2  0
  5  7  1  0
  7  8  1  0
  8  9  1  0
  9 10  1  0
 10 11  1  0
 11 12  1  0
 12 13  2  0
 13 14  1  0
 14 15  2  0
 15 16  1  0
 16 17  1  0
 17 18  1  0
 17 19  1  0
 17 20  1  0
 15 21  1  0
 21 22  2  0
  2 23  1  0
 23 24  2  0
 24 25  1  0
 25 26  2  0
 26 27  1  0
 27 28  2  0
 28 29  1  0
 28 30  1  0
 30 31  2  0
 31 32  1  0
 32 33  2  0
 11  7  1  0
 22 12  1  0
 33 23  1  0
 32 26  1  0
  3 34  1  0
  4 35  1  0
  4 36  1  0
  8 37  1  0
  8 38  1  0
  9 39  1  0
  9 40  1  0
 10 41  1  0
 10 42  1  0
 11 43  1  1
 13 44  1  0
 14 45  1  0
 21 46  1  0
 22 47  1  0
 24 48  1  0
 25 49  1  0
 27 50  1  0
 30 51  1  0
 31 52  1  0
M  END
>  <smiles>  (71) 
O=C(NCC(=O)N1CCCC1c1ccc(OC(F)(F)F)cc1)c1ccc2cc(F)ccc2n1

>  <score_type>  (71) 
oracle

>  <origin>  (71) 
autodockgpu

>  <m_score__min__energy>  (71) 
-8.4399999999999995

>  <m_primary>  (71) 
energy

>  <rmsd>  (71) 
8.120962751584582

>  <m_score__min__rmsd>  (71) 
8.120962751584582

>  <meeko>  (71) 
{"free_energy": -6.41, "intermolecular_energy": -8.5, "internal_energy": -2.75, "cluster_size": 5, "cluster_id": 7, "rank_in_cluster": 3}

>  <energy>  (71) 
-7.35

>  <cluster_rmsd>  (71) 
1.17

>  <cluster>  (71) 
2

$$$$

     RDKit          3D

 52 55  0  0  0  0  0  0  0  0999 V2000
  138.1570   70.5840  221.7700 O   0  0  0  0  0  0  0  0  0  0  0  0
  138.7520   71.1890  222.7270 C   0  0  0  0  0  0  0  0  0  0  0  0
  139.0270   72.5830  222.6670 N   0  0  0  0  0  0  0  0  0  0  0  0
  138.6160   73.3020  221.4970 C   0  0  0  0  0  0  0  0  0  0  0  0
  138.7610   74.7700  221.6660 C   0  0  0  0  0  0  0  0  0  0  0  0
  139.5680   75.1440  222.5800 O   0  0  0  0  0  0  0  0  0  0  0  0
  138.0480   75.7150  220.8620 N   0  0  0  0  0  0  0  0  0  0  0  0
  136.7450   75.4070  220.2990 C   0  0  0  0  0  0  0  0  0  0  0  0
  136.3310   76.7430  219.7270 C   0  0  0  0  0  0  0  0  0  0  0  0
  137.1880   77.7810  220.4240 C   0  0  0  0  0  0  0  0  0  0  0  0
  138.4960   77.0230  220.5170 C   0  0  1  0  0  0  0  0  0  0  0  0
  139.4830   77.6460  221.3740 C   0  0  0  0  0  0  0  0  0  0  0  0
  139.1260   78.2110  222.5930 C   0  0  0  0  0  0  0  0  0  0  0  0
  140.0360   78.8070  223.4340 C   0  0  0  0  0  0  0  0  0  0  0  0
  141.3710   78.8690  223.0950 C   0  0  0  0  0  0  0  0  0  0  0  0
  142.3180   79.4640  223.9230 O   0  0  0  0  0  0  0  0  0  0  0  0
  142.7950   80.7920  223.6520 C   0  0  0  0  0  0  0  0  0  0  0  0
  144.1510   80.8730  223.8360 F   0  0  0  0  0  0  0  0  0  0  0  0
  142.4060   81.1130  222.3700 F   0  0  0  0  0  0  0  0  0  0  0  0
  142.1730   81.6970  224.4910 F   0  0  0  0  0  0  0  0  0  0  0  0
  141.7590   78.3160  221.8920 C   0  0  0  0  0  0  0  0  0  0  0  0
  140.8420   77.7200  221.0530 C   0  0  0  0  0  0  0  0  0  0  0  0
  139.1520   70.4100  223.9020 C   0  0  0  0  0  0  0  0  0  0  0  0
  138.9510   69.0460  223.9340 C   0  0  0  0  0  0  0  0  0  0  0  0
  139.3130   68.2740  225.0180 C   0  0  0  0  0  0  0  0  0  0  0  0
  139.8980   68.8830  226.1140 C   0  0  0  0  0  0  0  0  0  0  0  0
  140.2710   68.1340  227.2120 C   0  0  0  0  0  0  0  0  0  0  0  0
  140.8550   68.7660  228.2950 C   0  0  0  0  0  0  0  0  0  0  0  0
  141.2110   68.0050  229.3580 F   0  0  0  0  0  0  0  0  0  0  0  0
  141.0500   70.1360  228.2510 C   0  0  0  0  0  0  0  0  0  0  0  0
  140.6860   70.9080  227.1640 C   0  0  0  0  0  0  0  0  0  0  0  0
  140.0970   70.2670  226.0710 C   0  0  0  0  0  0  0  0  0  0  0  0
  139.7220   70.9650  224.9850 N   0  0  0  0  0  0  0  0  0  0  0  0
  139.5190   73.0710  223.4630 H   0  0  0  0  0  0  0  0  0  0  0  0
  139.2348   72.9797  220.6466 H   0  0  0  0  0  0  0  0  0  0  0  0
  137.5523   73.0840  221.3207 H   0  0  0  0  0  0  0  0  0  0  0  0
  136.8193   74.6407  219.5133 H   0  0  0  0  0  0  0  0  0  0  0  0
  136.0316   74.9942  221.0274 H   0  0  0  0  0  0  0  0  0  0  0  0
  136.5100   76.7660  218.6419 H   0  0  0  0  0  0  0  0  0  0  0  0
  135.2593   76.9338  219.8854 H   0  0  0  0  0  0  0  0  0  0  0  0
  137.2889   78.6971  219.8234 H   0  0  0  0  0  0  0  0  0  0  0  0
  136.7911   78.1397  221.3852 H   0  0  0  0  0  0  0  0  0  0  0  0
  139.0905   77.0077  219.5916 H   0  0  0  0  0  0  0  0  0  0  0  0
  138.0696   78.1799  222.8980 H   0  0  0  0  0  0  0  0  0  0  0  0
  139.6955   79.2386  224.3868 H   0  0  0  0  0  0  0  0  0  0  0  0
  142.8182   78.3513  221.5974 H   0  0  0  0  0  0  0  0  0  0  0  0
  141.1897   77.2896  220.1023 H   0  0  0  0  0  0  0  0  0  0  0  0
  138.4861   68.5571  223.0652 H   0  0  0  0  0  0  0  0  0  0  0  0
  139.1389   67.1879  225.0113 H   0  0  0  0  0  0  0  0  0  0  0  0
  140.1056   67.0466  227.2255 H   0  0  0  0  0  0  0  0  0  0  0  0
  141.5139   70.6305  229.1172 H   0  0  0  0  0  0  0  0  0  0  0  0
  140.8550   71.9949  227.1594 H   0  0  0  0  0  0  0  0  0  0  0  0
  1  2  2  0
  2  3  1  0
  3  4  1  0
  4  5  1  0
  5  6  2  0
  5  7  1  0
  7  8  1  0
  8  9  1  0
  9 10  1  0
 10 11  1  0
 11 12  1  0
 12 13  2  0
 13 14  1  0
 14 15  2  0
 15 16  1  0
 16 17  1  0
 17 18  1  0
 17 19  1  0
 17 20  1  0
 15 21  1  0
 21 22  2  0
  2 23  1  0
 23 24  2  0
 24 25  1  0
 25 26  2  0
 26 27  1  0
 27 28  2  0
 28 29  1  0
 28 30  1  0
 30 31  2  0
 31 32  1  0
 32 33  2  0
 11  7  1  0
 22 12  1  0
 33 23  1  0
 32 26  1  0
  3 34  1  0
  4 35  1  0
  4 36  1  0
  8 37  1  0
  8 38  1  0
  9 39  1  0
  9 40  1  0
 10 41  1  0
 10 42  1  0
 11 43  1  6
 13 44  1  0
 14 45  1  0
 21 46  1  0
 22 47  1  0
 24 48  1  0
 25 49  1  0
 27 50  1  0
 30 51  1  0
 31 52  1  0
M  END
>  <smiles>  (72) 
O=C(NCC(=O)N1CCCC1c1ccc(OC(F)(F)F)cc1)c1ccc2cc(F)ccc2n1

>  <score_type>  (72) 
oracle

>  <origin>  (72) 
autodockgpu

>  <m_score__min__energy>  (72) 
-8.4399999999999995

>  <m_primary>  (72) 
energy

>  <rmsd>  (72) 
2.129975522969269

>  <m_score__min__rmsd>  (72) 
2.129975522969269

>  <meeko>  (72) 
{"free_energy": -7.42, "intermolecular_energy": -9.51, "internal_energy": -2.01, "cluster_size": 8, "cluster_id": 3, "rank_in_cluster": 5}

>  <energy>  (72) 
-7.34

>  <cluster_rmsd>  (72) 
1.02

>  <cluster>  (72) 
2

$$$$

     RDKit          3D

 52 55  0  0  0  0  0  0  0  0999 V2000
  141.1420   71.5930  221.1360 O   0  0  0  0  0  0  0  0  0  0  0  0
  140.5780   72.1880  222.1180 C   0  0  0  0  0  0  0  0  0  0  0  0
  140.2210   73.5630  222.0480 N   0  0  0  0  0  0  0  0  0  0  0  0
  140.5100   74.2730  220.8380 C   0  0  0  0  0  0  0  0  0  0  0  0
  140.9380   75.6710  221.1010 C   0  0  0  0  0  0  0  0  0  0  0  0
  141.0060   76.0060  222.3290 O   0  0  0  0  0  0  0  0  0  0  0  0
  141.2580   76.5920  220.0530 N   0  0  0  0  0  0  0  0  0  0  0  0
  140.7270   77.9440  220.0390 C   0  0  0  0  0  0  0  0  0  0  0  0
  141.4890   78.5630  218.8900 C   0  0  0  0  0  0  0  0  0  0  0  0
  142.7060   77.6860  218.6740 C   0  0  0  0  0  0  0  0  0  0  0  0
  142.0990   76.3240  218.9350 C   0  0  1  0  0  0  0  0  0  0  0  0
  143.0690   75.2560  219.0610 C   0  0  0  0  0  0  0  0  0  0  0  0
  143.1220   74.2180  218.1370 C   0  0  0  0  0  0  0  0  0  0  0  0
  144.0310   73.1900  218.2210 C   0  0  0  0  0  0  0  0  0  0  0  0
  144.9480   73.1460  219.2500 C   0  0  0  0  0  0  0  0  0  0  0  0
  145.8820   72.1200  219.3650 O   0  0  0  0  0  0  0  0  0  0  0  0
  145.5530   70.7820  218.9560 C   0  0  0  0  0  0  0  0  0  0  0  0
  145.3060   70.7290  217.6090 F   0  0  0  0  0  0  0  0  0  0  0  0
  146.5940   69.9670  219.3440 F   0  0  0  0  0  0  0  0  0  0  0  0
  144.4340   70.3430  219.6370 F   0  0  0  0  0  0  0  0  0  0  0  0
  144.9230   74.1610  220.1830 C   0  0  0  0  0  0  0  0  0  0  0  0
  144.0090   75.1890  220.0940 C   0  0  0  0  0  0  0  0  0  0  0  0
  140.3030   71.4180  223.3350 C   0  0  0  0  0  0  0  0  0  0  0  0
  139.6000   70.2330  223.2640 C   0  0  0  0  0  0  0  0  0  0  0  0
  139.3210   69.4760  224.3820 C   0  0  0  0  0  0  0  0  0  0  0  0
  139.7580   69.9140  225.6200 C   0  0  0  0  0  0  0  0  0  0  0  0
  139.4930   69.1750  226.7560 C   0  0  0  0  0  0  0  0  0  0  0  0
  139.9410   69.6330  227.9810 C   0  0  0  0  0  0  0  0  0  0  0  0
  139.6660   68.8870  229.0770 F   0  0  0  0  0  0  0  0  0  0  0  0
  140.6440   70.8240  228.0380 C   0  0  0  0  0  0  0  0  0  0  0  0
  140.9230   71.5830  226.9160 C   0  0  0  0  0  0  0  0  0  0  0  0
  140.4690   71.1160  225.6800 C   0  0  0  0  0  0  0  0  0  0  0  0
  140.7100   71.8100  224.5540 N   0  0  0  0  0  0  0  0  0  0  0  0
  139.7570   74.0420  222.8660 H   0  0  0  0  0  0  0  0  0  0  0  0
  141.3162   73.7496  220.3032 H   0  0  0  0  0  0  0  0  0  0  0  0
  139.5897   74.3072  220.2364 H   0  0  0  0  0  0  0  0  0  0  0  0
  139.6435   77.9469  219.8490 H   0  0  0  0  0  0  0  0  0  0  0  0
  140.8460   78.4794  220.9925 H   0  0  0  0  0  0  0  0  0  0  0  0
  140.8656   78.5813  217.9839 H   0  0  0  0  0  0  0  0  0  0  0  0
  141.7755   79.6020  219.1102 H   0  0  0  0  0  0  0  0  0  0  0  0
  143.0930   77.7705  217.6478 H   0  0  0  0  0  0  0  0  0  0  0  0
  143.5734   77.9346  219.3031 H   0  0  0  0  0  0  0  0  0  0  0  0
  141.5234   75.9041  218.0969 H   0  0  0  0  0  0  0  0  0  0  0  0
  142.4053   74.2196  217.3025 H   0  0  0  0  0  0  0  0  0  0  0  0
  144.0268   72.3953  217.4604 H   0  0  0  0  0  0  0  0  0  0  0  0
  145.6450   74.1502  221.0128 H   0  0  0  0  0  0  0  0  0  0  0  0
  144.0194   75.9801  220.8582 H   0  0  0  0  0  0  0  0  0  0  0  0
  139.2504   69.8803  222.2825 H   0  0  0  0  0  0  0  0  0  0  0  0
  138.7580   68.5354  224.2912 H   0  0  0  0  0  0  0  0  0  0  0  0
  138.9313   68.2318  226.6869 H   0  0  0  0  0  0  0  0  0  0  0  0
  140.9956   71.1819  229.0169 H   0  0  0  0  0  0  0  0  0  0  0  0
  141.4850   72.5253  226.9944 H   0  0  0  0  0  0  0  0  0  0  0  0
  1  2  2  0
  2  3  1  0
  3  4  1  0
  4  5  1  0
  5  6  2  0
  5  7  1  0
  7  8  1  0
  8  9  1  0
  9 10  1  0
 10 11  1  0
 11 12  1  0
 12 13  2  0
 13 14  1  0
 14 15  2  0
 15 16  1  0
 16 17  1  0
 17 18  1  0
 17 19  1  0
 17 20  1  0
 15 21  1  0
 21 22  2  0
  2 23  1  0
 23 24  2  0
 24 25  1  0
 25 26  2  0
 26 27  1  0
 27 28  2  0
 28 29  1  0
 28 30  1  0
 30 31  2  0
 31 32  1  0
 32 33  2  0
 11  7  1  0
 22 12  1  0
 33 23  1  0
 32 26  1  0
  3 34  1  0
  4 35  1  0
  4 36  1  0
  8 37  1  0
  8 38  1  0
  9 39  1  0
  9 40  1  0
 10 41  1  0
 10 42  1  0
 11 43  1  6
 13 44  1  0
 14 45  1  0
 21 46  1  0
 22 47  1  0
 24 48  1  0
 25 49  1  0
 27 50  1  0
 30 51  1  0
 31 52  1  0
M  END
>  <smiles>  (73) 
O=C(NCC(=O)N1CCCC1c1ccc(OC(F)(F)F)cc1)c1ccc2cc(F)ccc2n1

>  <score_type>  (73) 
oracle

>  <origin>  (73) 
autodockgpu

>  <m_score__min__energy>  (73) 
-8.4399999999999995

>  <m_primary>  (73) 
energy

>  <rmsd>  (73) 
2.1564406610625855

>  <m_score__min__rmsd>  (73) 
2.1564406610625855

>  <meeko>  (73) 
{"free_energy": -7.89, "intermolecular_energy": -9.98, "internal_energy": -1.94, "cluster_size": 13, "cluster_id": 2, "rank_in_cluster": 3}

>  <energy>  (73) 
-7.33

>  <cluster_rmsd>  (73) 
0.83

>  <cluster>  (73) 
2

$$$$

     RDKit          3D

 52 55  0  0  0  0  0  0  0  0999 V2000
  140.9080   71.6660  221.2090 O   0  0  0  0  0  0  0  0  0  0  0  0
  140.3690   72.1960  222.2410 C   0  0  0  0  0  0  0  0  0  0  0  0
  139.9400   73.5510  222.2420 N   0  0  0  0  0  0  0  0  0  0  0  0
  140.1260   74.3180  221.0460 C   0  0  0  0  0  0  0  0  0  0  0  0
  140.5990   75.6960  221.3360 C   0  0  0  0  0  0  0  0  0  0  0  0
  140.2000   76.1960  222.4380 O   0  0  0  0  0  0  0  0  0  0  0  0
  141.4480   76.4260  220.4450 N   0  0  0  0  0  0  0  0  0  0  0  0
  141.8900   75.8620  219.1800 C   0  0  0  0  0  0  0  0  0  0  0  0
  142.5690   77.0480  218.5340 C   0  0  0  0  0  0  0  0  0  0  0  0
  142.0400   78.2750  219.2500 C   0  0  0  0  0  0  0  0  0  0  0  0
  141.9550   77.7400  220.6630 C   0  0  1  0  0  0  0  0  0  0  0  0
  141.2330   78.5970  221.5800 C   0  0  0  0  0  0  0  0  0  0  0  0
  140.1440   79.3500  221.1580 C   0  0  0  0  0  0  0  0  0  0  0  0
  139.4320   80.1710  222.0000 C   0  0  0  0  0  0  0  0  0  0  0  0
  139.7790   80.2830  223.3300 C   0  0  0  0  0  0  0  0  0  0  0  0
  139.0810   81.1050  224.2100 O   0  0  0  0  0  0  0  0  0  0  0  0
  137.6610   80.9580  224.3770 C   0  0  0  0  0  0  0  0  0  0  0  0
  136.9900   82.0090  223.8060 F   0  0  0  0  0  0  0  0  0  0  0  0
  137.3090   79.7400  223.8380 F   0  0  0  0  0  0  0  0  0  0  0  0
  137.3470   80.9000  225.7210 F   0  0  0  0  0  0  0  0  0  0  0  0
  140.8550   79.5490  223.7820 C   0  0  0  0  0  0  0  0  0  0  0  0
  141.5650   78.7270  222.9330 C   0  0  0  0  0  0  0  0  0  0  0  0
  140.2000   71.3700  223.4400 C   0  0  0  0  0  0  0  0  0  0  0  0
  139.5710   70.1450  223.3590 C   0  0  0  0  0  0  0  0  0  0  0  0
  139.3920   69.3350  224.4600 C   0  0  0  0  0  0  0  0  0  0  0  0
  139.8570   69.7600  225.6920 C   0  0  0  0  0  0  0  0  0  0  0  0
  139.6920   68.9680  226.8110 C   0  0  0  0  0  0  0  0  0  0  0  0
  140.1670   69.4140  228.0310 C   0  0  0  0  0  0  0  0  0  0  0  0
  139.9910   68.6160  229.1110 F   0  0  0  0  0  0  0  0  0  0  0  0
  140.7970   70.6450  228.1000 C   0  0  0  0  0  0  0  0  0  0  0  0
  140.9750   71.4560  226.9950 C   0  0  0  0  0  0  0  0  0  0  0  0
  140.4940   71.0030  225.7630 C   0  0  0  0  0  0  0  0  0  0  0  0
  140.6380   71.7470  224.6540 N   0  0  0  0  0  0  0  0  0  0  0  0
  139.4970   73.9770  223.1000 H   0  0  0  0  0  0  0  0  0  0  0  0
  140.8702   73.8131  220.4126 H   0  0  0  0  0  0  0  0  0  0  0  0
  139.1542   74.3928  220.5360 H   0  0  0  0  0  0  0  0  0  0  0  0
  142.5953   75.0324  219.3358 H   0  0  0  0  0  0  0  0  0  0  0  0
  141.0780   75.4300  218.5766 H   0  0  0  0  0  0  0  0  0  0  0  0
  143.6600   76.9760  218.6547 H   0  0  0  0  0  0  0  0  0  0  0  0
  142.3619   77.0915  217.4545 H   0  0  0  0  0  0  0  0  0  0  0  0
  142.7369   79.1228  219.1759 H   0  0  0  0  0  0  0  0  0  0  0  0
  141.0968   78.6743  218.8488 H   0  0  0  0  0  0  0  0  0  0  0  0
  142.9112   77.7119  221.2061 H   0  0  0  0  0  0  0  0  0  0  0  0
  139.8380   79.2863  220.1033 H   0  0  0  0  0  0  0  0  0  0  0  0
  138.5779   80.7437  221.6094 H   0  0  0  0  0  0  0  0  0  0  0  0
  141.1522   79.6205  224.8387 H   0  0  0  0  0  0  0  0  0  0  0  0
  142.4173   78.1567  223.3309 H   0  0  0  0  0  0  0  0  0  0  0  0
  139.1994   69.8026  222.3819 H   0  0  0  0  0  0  0  0  0  0  0  0
  138.8860   68.3634  224.3605 H   0  0  0  0  0  0  0  0  0  0  0  0
  139.1884   67.9932  226.7330 H   0  0  0  0  0  0  0  0  0  0  0  0
  141.1713   70.9919  229.0745 H   0  0  0  0  0  0  0  0  0  0  0  0
  141.4803   72.4292  227.0824 H   0  0  0  0  0  0  0  0  0  0  0  0
  1  2  2  0
  2  3  1  0
  3  4  1  0
  4  5  1  0
  5  6  2  0
  5  7  1  0
  7  8  1  0
  8  9  1  0
  9 10  1  0
 10 11  1  0
 11 12  1  0
 12 13  2  0
 13 14  1  0
 14 15  2  0
 15 16  1  0
 16 17  1  0
 17 18  1  0
 17 19  1  0
 17 20  1  0
 15 21  1  0
 21 22  2  0
  2 23  1  0
 23 24  2  0
 24 25  1  0
 25 26  2  0
 26 27  1  0
 27 28  2  0
 28 29  1  0
 28 30  1  0
 30 31  2  0
 31 32  1  0
 32 33  2  0
 11  7  1  0
 22 12  1  0
 33 23  1  0
 32 26  1  0
  3 34  1  0
  4 35  1  0
  4 36  1  0
  8 37  1  0
  8 38  1  0
  9 39  1  0
  9 40  1  0
 10 41  1  0
 10 42  1  0
 11 43  1  1
 13 44  1  0
 14 45  1  0
 21 46  1  0
 22 47  1  0
 24 48  1  0
 25 49  1  0
 27 50  1  0
 30 51  1  0
 31 52  1  0
M  END
>  <smiles>  (74) 
O=C(NCC(=O)N1CCCC1c1ccc(OC(F)(F)F)cc1)c1ccc2cc(F)ccc2n1

>  <score_type>  (74) 
oracle

>  <origin>  (74) 
autodockgpu

>  <m_score__min__energy>  (74) 
-8.4399999999999995

>  <m_primary>  (74) 
energy

>  <rmsd>  (74) 
1.8290023738401258

>  <m_score__min__rmsd>  (74) 
1.8290023738401258

>  <meeko>  (74) 
{"free_energy": -8.25, "intermolecular_energy": -10.34, "internal_energy": -1.62, "cluster_size": 13, "cluster_id": 1, "rank_in_cluster": 7}

>  <energy>  (74) 
-7.31

>  <cluster_rmsd>  (74) 
1.04

>  <cluster>  (74) 
2

$$$$

     RDKit          3D

 52 55  0  0  0  0  0  0  0  0999 V2000
  138.0610   70.0520  221.8560 O   0  0  0  0  0  0  0  0  0  0  0  0
  138.6050   70.7190  222.8020 C   0  0  0  0  0  0  0  0  0  0  0  0
  138.7370   72.1330  222.7330 N   0  0  0  0  0  0  0  0  0  0  0  0
  138.2400   72.8000  221.5660 C   0  0  0  0  0  0  0  0  0  0  0  0
  136.7600   72.9260  221.5830 C   0  0  0  0  0  0  0  0  0  0  0  0
  136.1400   72.2640  220.6870 O   0  0  0  0  0  0  0  0  0  0  0  0
  136.0630   73.7320  222.5380 N   0  0  0  0  0  0  0  0  0  0  0  0
  135.8380   75.1500  222.3180 C   0  0  0  0  0  0  0  0  0  0  0  0
  134.9170   75.4980  223.4650 C   0  0  0  0  0  0  0  0  0  0  0  0
  134.3210   74.1870  223.9370 C   0  0  0  0  0  0  0  0  0  0  0  0
  135.5220   73.2790  223.7760 C   0  0  1  0  0  0  0  0  0  0  0  0
  135.2220   71.8680  223.9050 C   0  0  0  0  0  0  0  0  0  0  0  0
  134.0890   71.3160  223.3170 C   0  0  0  0  0  0  0  0  0  0  0  0
  133.7740   69.9810  223.4150 C   0  0  0  0  0  0  0  0  0  0  0  0
  134.5870   69.1170  224.1160 C   0  0  0  0  0  0  0  0  0  0  0  0
  134.2980   67.7600  224.2340 O   0  0  0  0  0  0  0  0  0  0  0  0
  133.4760   67.2790  225.3110 C   0  0  0  0  0  0  0  0  0  0  0  0
  132.4920   66.4470  224.8410 F   0  0  0  0  0  0  0  0  0  0  0  0
  134.3110   66.6650  226.2190 F   0  0  0  0  0  0  0  0  0  0  0  0
  132.8910   68.3430  225.9690 F   0  0  0  0  0  0  0  0  0  0  0  0
  135.7190   69.6320  224.7110 C   0  0  0  0  0  0  0  0  0  0  0  0
  136.0310   70.9720  224.6100 C   0  0  0  0  0  0  0  0  0  0  0  0
  139.0960   69.9900  223.9740 C   0  0  0  0  0  0  0  0  0  0  0  0
  139.0190   68.6140  224.0220 C   0  0  0  0  0  0  0  0  0  0  0  0
  139.4710   67.8890  225.1040 C   0  0  0  0  0  0  0  0  0  0  0  0
  140.0210   68.5590  226.1820 C   0  0  0  0  0  0  0  0  0  0  0  0
  140.4830   67.8570  227.2790 C   0  0  0  0  0  0  0  0  0  0  0  0
  141.0300   68.5480  228.3430 C   0  0  0  0  0  0  0  0  0  0  0  0
  141.4740   67.8340  229.4040 F   0  0  0  0  0  0  0  0  0  0  0  0
  141.1010   69.9300  228.2840 C   0  0  0  0  0  0  0  0  0  0  0  0
  140.6470   70.6560  227.1980 C   0  0  0  0  0  0  0  0  0  0  0  0
  140.0950   69.9540  226.1240 C   0  0  0  0  0  0  0  0  0  0  0  0
  139.6370   70.6050  225.0410 N   0  0  0  0  0  0  0  0  0  0  0  0
  139.1880   72.6720  223.5200 H   0  0  0  0  0  0  0  0  0  0  0  0
  138.6813   73.8065  221.5176 H   0  0  0  0  0  0  0  0  0  0  0  0
  138.5191   72.1996  220.6876 H   0  0  0  0  0  0  0  0  0  0  0  0
  136.7784   75.7181  222.3728 H   0  0  0  0  0  0  0  0  0  0  0  0
  135.4244   75.3871  221.3267 H   0  0  0  0  0  0  0  0  0  0  0  0
  135.4835   75.9748  224.2785 H   0  0  0  0  0  0  0  0  0  0  0  0
  134.1352   76.2059  223.1525 H   0  0  0  0  0  0  0  0  0  0  0  0
  133.9891   74.2430  224.9842 H   0  0  0  0  0  0  0  0  0  0  0  0
  133.4206   73.8650  223.3933 H   0  0  0  0  0  0  0  0  0  0  0  0
  136.2661   73.3470  224.5833 H   0  0  0  0  0  0  0  0  0  0  0  0
  133.4161   71.9755  222.7493 H   0  0  0  0  0  0  0  0  0  0  0  0
  132.8641   69.5991  222.9290 H   0  0  0  0  0  0  0  0  0  0  0  0
  136.3848   68.9630  225.2759 H   0  0  0  0  0  0  0  0  0  0  0  0
  136.9428   71.3463  225.0984 H   0  0  0  0  0  0  0  0  0  0  0  0
  138.5819   68.0764  223.1676 H   0  0  0  0  0  0  0  0  0  0  0  0
  139.3952   66.7916  225.1100 H   0  0  0  0  0  0  0  0  0  0  0  0
  140.4159   66.7594  227.3048 H   0  0  0  0  0  0  0  0  0  0  0  0
  141.5365   70.4725  229.1361 H   0  0  0  0  0  0  0  0  0  0  0  0
  140.7185   71.7535  227.1805 H   0  0  0  0  0  0  0  0  0  0  0  0
  1  2  2  0
  2  3  1  0
  3  4  1  0
  4  5  1  0
  5  6  2  0
  5  7  1  0
  7  8  1  0
  8  9  1  0
  9 10  1  0
 10 11  1  0
 11 12  1  0
 12 13  2  0
 13 14  1  0
 14 15  2  0
 15 16  1  0
 16 17  1  0
 17 18  1  0
 17 19  1  0
 17 20  1  0
 15 21  1  0
 21 22  2  0
  2 23  1  0
 23 24  2  0
 24 25  1  0
 25 26  2  0
 26 27  1  0
 27 28  2  0
 28 29  1  0
 28 30  1  0
 30 31  2  0
 31 32  1  0
 32 33  2  0
 11  7  1  0
 22 12  1  0
 33 23  1  0
 32 26  1  0
  3 34  1  0
  4 35  1  0
  4 36  1  0
  8 37  1  0
  8 38  1  0
  9 39  1  0
  9 40  1  0
 10 41  1  0
 10 42  1  0
 11 43  1  1
 13 44  1  0
 14 45  1  0
 21 46  1  0
 22 47  1  0
 24 48  1  0
 25 49  1  0
 27 50  1  0
 30 51  1  0
 31 52  1  0
M  END
>  <smiles>  (75) 
O=C(NCC(=O)N1CCCC1c1ccc(OC(F)(F)F)cc1)c1ccc2cc(F)ccc2n1

>  <score_type>  (75) 
oracle

>  <origin>  (75) 
autodockgpu

>  <m_score__min__energy>  (75) 
-8.4399999999999995

>  <m_primary>  (75) 
energy

>  <rmsd>  (75) 
4.549168453094204

>  <m_score__min__rmsd>  (75) 
4.549168453094204

>  <meeko>  (75) 
{"free_energy": -6.03, "intermolecular_energy": -8.11, "internal_energy": -2.49, "cluster_size": 1, "cluster_id": 8, "rank_in_cluster": 1}

>  <energy>  (75) 
-7.22

>  <cluster_rmsd>  (75) 
0.96

>  <cluster>  (75) 
2

$$$$

     RDKit          3D

 52 55  0  0  0  0  0  0  0  0999 V2000
  141.4400   72.5970  221.9420 O   0  0  0  0  0  0  0  0  0  0  0  0
  140.3230   72.5910  222.5650 C   0  0  0  0  0  0  0  0  0  0  0  0
  139.2630   73.4640  222.1980 N   0  0  0  0  0  0  0  0  0  0  0  0
  139.4760   74.3590  221.0990 C   0  0  0  0  0  0  0  0  0  0  0  0
  140.3220   75.5180  221.4810 C   0  0  0  0  0  0  0  0  0  0  0  0
  140.2150   75.9060  222.6900 O   0  0  0  0  0  0  0  0  0  0  0  0
  141.2070   76.1660  220.5610 N   0  0  0  0  0  0  0  0  0  0  0  0
  141.6170   75.5290  219.3210 C   0  0  0  0  0  0  0  0  0  0  0  0
  142.3550   76.6510  218.6270 C   0  0  0  0  0  0  0  0  0  0  0  0
  141.8890   77.9320  219.2900 C   0  0  0  0  0  0  0  0  0  0  0  0
  141.7790   77.4610  220.7250 C   0  0  1  0  0  0  0  0  0  0  0  0
  141.1030   78.3910  221.6050 C   0  0  0  0  0  0  0  0  0  0  0  0
  141.5870   78.6570  222.8810 C   0  0  0  0  0  0  0  0  0  0  0  0
  140.9750   79.5360  223.7430 C   0  0  0  0  0  0  0  0  0  0  0  0
  139.8290   80.2050  223.3670 C   0  0  0  0  0  0  0  0  0  0  0  0
  139.1840   81.1010  224.2140 O   0  0  0  0  0  0  0  0  0  0  0  0
  137.7510   81.1090  224.3170 C   0  0  0  0  0  0  0  0  0  0  0  0
  137.2000   81.9760  223.4090 F   0  0  0  0  0  0  0  0  0  0  0  0
  137.3220   79.8100  224.1490 F   0  0  0  0  0  0  0  0  0  0  0  0
  137.3710   81.4880  225.5900 F   0  0  0  0  0  0  0  0  0  0  0  0
  139.3230   79.9650  222.1070 C   0  0  0  0  0  0  0  0  0  0  0  0
  139.9410   79.0820  221.2470 C   0  0  0  0  0  0  0  0  0  0  0  0
  140.1540   71.6570  223.6820 C   0  0  0  0  0  0  0  0  0  0  0  0
  139.4600   70.4790  223.5050 C   0  0  0  0  0  0  0  0  0  0  0  0
  139.2780   69.5710  224.5270 C   0  0  0  0  0  0  0  0  0  0  0  0
  139.8070   69.8460  225.7750 C   0  0  0  0  0  0  0  0  0  0  0  0
  139.6410   68.9540  226.8160 C   0  0  0  0  0  0  0  0  0  0  0  0
  140.1810   69.2510  228.0540 C   0  0  0  0  0  0  0  0  0  0  0  0
  140.0020   68.3570  229.0560 F   0  0  0  0  0  0  0  0  0  0  0  0
  140.8750   70.4380  228.2190 C   0  0  0  0  0  0  0  0  0  0  0  0
  141.0550   71.3470  227.1940 C   0  0  0  0  0  0  0  0  0  0  0  0
  140.5090   71.0440  225.9440 C   0  0  0  0  0  0  0  0  0  0  0  0
  140.6530   71.8890  224.9090 N   0  0  0  0  0  0  0  0  0  0  0  0
  138.3460   73.4500  222.7210 H   0  0  0  0  0  0  0  0  0  0  0  0
  139.9722   73.8101  220.2851 H   0  0  0  0  0  0  0  0  0  0  0  0
  138.4963   74.7442  220.7799 H   0  0  0  0  0  0  0  0  0  0  0  0
  142.2790   74.6713  219.5110 H   0  0  0  0  0  0  0  0  0  0  0  0
  140.7828   75.1150  218.7355 H   0  0  0  0  0  0  0  0  0  0  0  0
  143.4410   76.5290  218.7525 H   0  0  0  0  0  0  0  0  0  0  0  0
  142.1501   76.6596  217.5463 H   0  0  0  0  0  0  0  0  0  0  0  0
  142.6275   78.7400  219.1811 H   0  0  0  0  0  0  0  0  0  0  0  0
  140.9667   78.3611  218.8714 H   0  0  0  0  0  0  0  0  0  0  0  0
  142.7328   77.4074  221.2703 H   0  0  0  0  0  0  0  0  0  0  0  0
  142.4995   78.1416  223.2154 H   0  0  0  0  0  0  0  0  0  0  0  0
  141.4033   79.7073  224.7416 H   0  0  0  0  0  0  0  0  0  0  0  0
  138.4107   80.4869  221.7823 H   0  0  0  0  0  0  0  0  0  0  0  0
  139.5072   78.9162  220.2498 H   0  0  0  0  0  0  0  0  0  0  0  0
  139.0369   70.2556  222.5145 H   0  0  0  0  0  0  0  0  0  0  0  0
  138.7192   68.6399  224.3518 H   0  0  0  0  0  0  0  0  0  0  0  0
  139.0852   68.0173  226.6622 H   0  0  0  0  0  0  0  0  0  0  0  0
  141.3007   70.6667  229.2072 H   0  0  0  0  0  0  0  0  0  0  0  0
  141.6117   72.2816  227.3573 H   0  0  0  0  0  0  0  0  0  0  0  0
  1  2  2  0
  2  3  1  0
  3  4  1  0
  4  5  1  0
  5  6  2  0
  5  7  1  0
  7  8  1  0
  8  9  1  0
  9 10  1  0
 10 11  1  0
 11 12  1  0
 12 13  2  0
 13 14  1  0
 14 15  2  0
 15 16  1  0
 16 17  1  0
 17 18  1  0
 17 19  1  0
 17 20  1  0
 15 21  1  0
 21 22  2  0
  2 23  1  0
 23 24  2  0
 24 25  1  0
 25 26  2  0
 26 27  1  0
 27 28  2  0
 28 29  1  0
 28 30  1  0
 30 31  2  0
 31 32  1  0
 32 33  2  0
 11  7  1  0
 22 12  1  0
 33 23  1  0
 32 26  1  0
  3 34  1  0
  4 35  1  0
  4 36  1  0
  8 37  1  0
  8 38  1  0
  9 39  1  0
  9 40  1  0
 10 41  1  0
 10 42  1  0
 11 43  1  1
 13 44  1  0
 14 45  1  0
 21 46  1  0
 22 47  1  0
 24 48  1  0
 25 49  1  0
 27 50  1  0
 30 51  1  0
 31 52  1  0
M  END
>  <smiles>  (76) 
O=C(NCC(=O)N1CCCC1c1ccc(OC(F)(F)F)cc1)c1ccc2cc(F)ccc2n1

>  <score_type>  (76) 
oracle

>  <origin>  (76) 
autodockgpu

>  <m_score__min__energy>  (76) 
-8.4399999999999995

>  <m_primary>  (76) 
energy

>  <rmsd>  (76) 
1.717721026119139

>  <m_score__min__rmsd>  (76) 
1.717721026119139

>  <meeko>  (76) 
{"free_energy": -8.28, "intermolecular_energy": -10.36, "internal_energy": -1.45, "cluster_size": 13, "cluster_id": 1, "rank_in_cluster": 5}

>  <energy>  (76) 
-7.21

>  <cluster_rmsd>  (76) 
1.23

>  <cluster>  (76) 
2

$$$$

     RDKit          3D

 52 55  0  0  0  0  0  0  0  0999 V2000
  140.8380   71.8390  221.1770 O   0  0  0  0  0  0  0  0  0  0  0  0
  140.2490   72.3270  222.2030 C   0  0  0  0  0  0  0  0  0  0  0  0
  139.7160   73.6440  222.1960 N   0  0  0  0  0  0  0  0  0  0  0  0
  139.8540   74.4210  221.0000 C   0  0  0  0  0  0  0  0  0  0  0  0
  140.8140   75.5410  221.1710 C   0  0  0  0  0  0  0  0  0  0  0  0
  140.9830   75.9470  222.3680 O   0  0  0  0  0  0  0  0  0  0  0  0
  141.5130   76.1360  220.0720 N   0  0  0  0  0  0  0  0  0  0  0  0
  141.5410   77.5750  219.8760 C   0  0  0  0  0  0  0  0  0  0  0  0
  142.5370   77.7130  218.7470 C   0  0  0  0  0  0  0  0  0  0  0  0
  143.3350   76.4250  218.7330 C   0  0  0  0  0  0  0  0  0  0  0  0
  142.2410   75.4340  219.0680 C   0  0  1  0  0  0  0  0  0  0  0  0
  142.7210   74.1050  219.3880 C   0  0  0  0  0  0  0  0  0  0  0  0
  142.3380   73.0000  218.6370 C   0  0  0  0  0  0  0  0  0  0  0  0
  142.7760   71.7250  218.9070 C   0  0  0  0  0  0  0  0  0  0  0  0
  143.6340   71.4860  219.9600 C   0  0  0  0  0  0  0  0  0  0  0  0
  144.0970   70.2090  220.2620 O   0  0  0  0  0  0  0  0  0  0  0  0
  144.7670   69.4190  219.2650 C   0  0  0  0  0  0  0  0  0  0  0  0
  143.9050   69.0660  218.2590 F   0  0  0  0  0  0  0  0  0  0  0  0
  145.8440   70.1530  218.8180 F   0  0  0  0  0  0  0  0  0  0  0  0
  145.2820   68.2730  219.8400 F   0  0  0  0  0  0  0  0  0  0  0  0
  144.0350   72.5610  220.7250 C   0  0  0  0  0  0  0  0  0  0  0  0
  143.5920   73.8370  220.4490 C   0  0  0  0  0  0  0  0  0  0  0  0
  140.1330   71.4920  223.4020 C   0  0  0  0  0  0  0  0  0  0  0  0
  139.5170   70.2600  223.3350 C   0  0  0  0  0  0  0  0  0  0  0  0
  139.3870   69.4410  224.4370 C   0  0  0  0  0  0  0  0  0  0  0  0
  139.8900   69.8660  225.6550 C   0  0  0  0  0  0  0  0  0  0  0  0
  139.7740   69.0660  226.7750 C   0  0  0  0  0  0  0  0  0  0  0  0
  140.2860   69.5110  227.9800 C   0  0  0  0  0  0  0  0  0  0  0  0
  140.1580   68.7050  229.0600 F   0  0  0  0  0  0  0  0  0  0  0  0
  140.9010   70.7500  228.0330 C   0  0  0  0  0  0  0  0  0  0  0  0
  141.0300   71.5700  226.9280 C   0  0  0  0  0  0  0  0  0  0  0  0
  140.5120   71.1160  225.7110 C   0  0  0  0  0  0  0  0  0  0  0  0
  140.6080   71.8690  224.6020 N   0  0  0  0  0  0  0  0  0  0  0  0
  139.2330   74.0360  223.0490 H   0  0  0  0  0  0  0  0  0  0  0  0
  140.2119   73.7670  220.1911 H   0  0  0  0  0  0  0  0  0  0  0  0
  138.8705   74.8507  220.7590 H   0  0  0  0  0  0  0  0  0  0  0  0
  140.5517   77.9593  219.5868 H   0  0  0  0  0  0  0  0  0  0  0  0
  141.8093   78.1428  220.7791 H   0  0  0  0  0  0  0  0  0  0  0  0
  142.0128   77.8480  217.7894 H   0  0  0  0  0  0  0  0  0  0  0  0
  143.1879   78.5883  218.8892 H   0  0  0  0  0  0  0  0  0  0  0  0
  143.7752   76.2283  217.7443 H   0  0  0  0  0  0  0  0  0  0  0  0
  144.1994   76.4082  219.4132 H   0  0  0  0  0  0  0  0  0  0  0  0
  141.5905   75.1586  218.2248 H   0  0  0  0  0  0  0  0  0  0  0  0
  141.6541   73.1523  217.7890 H   0  0  0  0  0  0  0  0  0  0  0  0
  142.4391   70.8881  218.2776 H   0  0  0  0  0  0  0  0  0  0  0  0
  144.7201   72.3976  221.5700 H   0  0  0  0  0  0  0  0  0  0  0  0
  143.9337   74.6691  221.0821 H   0  0  0  0  0  0  0  0  0  0  0  0
  139.1155   69.9188  222.3694 H   0  0  0  0  0  0  0  0  0  0  0  0
  138.8904   68.4634  224.3495 H   0  0  0  0  0  0  0  0  0  0  0  0
  139.2797   68.0855  226.7091 H   0  0  0  0  0  0  0  0  0  0  0  0
  141.3043   71.0968  228.9959 H   0  0  0  0  0  0  0  0  0  0  0  0
  141.5248   72.5495  227.0035 H   0  0  0  0  0  0  0  0  0  0  0  0
  1  2  2  0
  2  3  1  0
  3  4  1  0
  4  5  1  0
  5  6  2  0
  5  7  1  0
  7  8  1  0
  8  9  1  0
  9 10  1  0
 10 11  1  0
 11 12  1  0
 12 13  2  0
 13 14  1  0
 14 15  2  0
 15 16  1  0
 16 17  1  0
 17 18  1  0
 17 19  1  0
 17 20  1  0
 15 21  1  0
 21 22  2  0
  2 23  1  0
 23 24  2  0
 24 25  1  0
 25 26  2  0
 26 27  1  0
 27 28  2  0
 28 29  1  0
 28 30  1  0
 30 31  2  0
 31 32  1  0
 32 33  2  0
 11  7  1  0
 22 12  1  0
 33 23  1  0
 32 26  1  0
  3 34  1  0
  4 35  1  0
  4 36  1  0
  8 37  1  0
  8 38  1  0
  9 39  1  0
  9 40  1  0
 10 41  1  0
 10 42  1  0
 11 43  1  6
 13 44  1  0
 14 45  1  0
 21 46  1  0
 22 47  1  0
 24 48  1  0
 25 49  1  0
 27 50  1  0
 30 51  1  0
 31 52  1  0
M  END
>  <smiles>  (77) 
O=C(NCC(=O)N1CCCC1c1ccc(OC(F)(F)F)cc1)c1ccc2cc(F)ccc2n1

>  <score_type>  (77) 
oracle

>  <origin>  (77) 
autodockgpu

>  <m_score__min__energy>  (77) 
-8.4399999999999995

>  <m_primary>  (77) 
energy

>  <rmsd>  (77) 
2.183851909703391

>  <m_score__min__rmsd>  (77) 
2.183851909703391

>  <meeko>  (77) 
{"free_energy": -7.35, "intermolecular_energy": -9.44, "internal_energy": -2.08, "cluster_size": 13, "cluster_id": 2, "rank_in_cluster": 8}

>  <energy>  (77) 
-7.78

>  <cluster_rmsd>  (77) 
0.0

>  <cluster>  (77) 
3

$$$$

     RDKit          3D

 52 55  0  0  0  0  0  0  0  0999 V2000
  141.3240   72.5540  221.9330 O   0  0  0  0  0  0  0  0  0  0  0  0
  140.2560   72.5280  222.6360 C   0  0  0  0  0  0  0  0  0  0  0  0
  139.1610   73.3910  222.3560 N   0  0  0  0  0  0  0  0  0  0  0  0
  139.2840   74.3010  221.2550 C   0  0  0  0  0  0  0  0  0  0  0  0
  138.1190   75.2170  221.1580 C   0  0  0  0  0  0  0  0  0  0  0  0
  137.2970   75.1710  222.1300 O   0  0  0  0  0  0  0  0  0  0  0  0
  137.9210   76.1000  220.0490 N   0  0  0  0  0  0  0  0  0  0  0  0
  136.7830   75.9610  219.1570 C   0  0  0  0  0  0  0  0  0  0  0  0
  136.9030   77.2040  218.3060 C   0  0  0  0  0  0  0  0  0  0  0  0
  137.7820   78.1620  219.0850 C   0  0  0  0  0  0  0  0  0  0  0  0
  138.7710   77.1840  219.6830 C   0  0  1  0  0  0  0  0  0  0  0  0
  139.6200   77.7520  220.7100 C   0  0  0  0  0  0  0  0  0  0  0  0
  140.9950   77.8580  220.5320 C   0  0  0  0  0  0  0  0  0  0  0  0
  141.8310   78.3940  221.4820 C   0  0  0  0  0  0  0  0  0  0  0  0
  141.3290   78.8590  222.6780 C   0  0  0  0  0  0  0  0  0  0  0  0
  142.1470   79.4080  223.6620 O   0  0  0  0  0  0  0  0  0  0  0  0
  142.7800   80.6820  223.4590 C   0  0  0  0  0  0  0  0  0  0  0  0
  142.3790   81.2450  222.2750 F   0  0  0  0  0  0  0  0  0  0  0  0
  142.4830   81.4650  224.5540 F   0  0  0  0  0  0  0  0  0  0  0  0
  144.1530   80.5300  223.4440 F   0  0  0  0  0  0  0  0  0  0  0  0
  139.9690   78.7700  222.8870 C   0  0  0  0  0  0  0  0  0  0  0  0
  139.1340   78.2310  221.9310 C   0  0  0  0  0  0  0  0  0  0  0  0
  140.1790   71.5800  223.7500 C   0  0  0  0  0  0  0  0  0  0  0  0
  139.6130   70.3350  223.5680 C   0  0  0  0  0  0  0  0  0  0  0  0
  139.5220   69.4120  224.5880 C   0  0  0  0  0  0  0  0  0  0  0  0
  140.0120   69.7400  225.8400 C   0  0  0  0  0  0  0  0  0  0  0  0
  139.9350   68.8340  226.8790 C   0  0  0  0  0  0  0  0  0  0  0  0
  140.4330   69.1830  228.1210 C   0  0  0  0  0  0  0  0  0  0  0  0
  140.3430   68.2750  229.1200 F   0  0  0  0  0  0  0  0  0  0  0  0
  140.9970   70.4370  228.2910 C   0  0  0  0  0  0  0  0  0  0  0  0
  141.0880   71.3610  227.2670 C   0  0  0  0  0  0  0  0  0  0  0  0
  140.5840   71.0040  226.0140 C   0  0  0  0  0  0  0  0  0  0  0  0
  140.6440   71.8610  224.9800 N   0  0  0  0  0  0  0  0  0  0  0  0
  138.2850   73.3600  222.9440 H   0  0  0  0  0  0  0  0  0  0  0  0
  140.1967   74.9001  221.3896 H   0  0  0  0  0  0  0  0  0  0  0  0
  139.3295   73.7096  220.3286 H   0  0  0  0  0  0  0  0  0  0  0  0
  136.8614   75.0490  218.5470 H   0  0  0  0  0  0  0  0  0  0  0  0
  135.8182   75.8689  219.6772 H   0  0  0  0  0  0  0  0  0  0  0  0
  137.3665   76.9612  217.3384 H   0  0  0  0  0  0  0  0  0  0  0  0
  135.9171   77.6438  218.0948 H   0  0  0  0  0  0  0  0  0  0  0  0
  138.2763   78.8906  218.4256 H   0  0  0  0  0  0  0  0  0  0  0  0
  137.2501   78.7885  219.8162 H   0  0  0  0  0  0  0  0  0  0  0  0
  139.5658   76.8515  218.9991 H   0  0  0  0  0  0  0  0  0  0  0  0
  141.4327   77.4971  219.5896 H   0  0  0  0  0  0  0  0  0  0  0  0
  142.9117   78.4524  221.2856 H   0  0  0  0  0  0  0  0  0  0  0  0
  139.5426   79.1353  223.8329 H   0  0  0  0  0  0  0  0  0  0  0  0
  138.0544   78.1762  222.1346 H   0  0  0  0  0  0  0  0  0  0  0  0
  139.2209   70.0698  222.5751 H   0  0  0  0  0  0  0  0  0  0  0  0
  139.0657   68.4273  224.4090 H   0  0  0  0  0  0  0  0  0  0  0  0
  139.4820   67.8443  226.7204 H   0  0  0  0  0  0  0  0  0  0  0  0
  141.3887   70.7087  229.2823 H   0  0  0  0  0  0  0  0  0  0  0  0
  141.5438   72.3481  227.4338 H   0  0  0  0  0  0  0  0  0  0  0  0
  1  2  2  0
  2  3  1  0
  3  4  1  0
  4  5  1  0
  5  6  2  0
  5  7  1  0
  7  8  1  0
  8  9  1  0
  9 10  1  0
 10 11  1  0
 11 12  1  0
 12 13  2  0
 13 14  1  0
 14 15  2  0
 15 16  1  0
 16 17  1  0
 17 18  1  0
 17 19  1  0
 17 20  1  0
 15 21  1  0
 21 22  2  0
  2 23  1  0
 23 24  2  0
 24 25  1  0
 25 26  2  0
 26 27  1  0
 27 28  2  0
 28 29  1  0
 28 30  1  0
 30 31  2  0
 31 32  1  0
 32 33  2  0
 11  7  1  0
 22 12  1  0
 33 23  1  0
 32 26  1  0
  3 34  1  0
  4 35  1  0
  4 36  1  0
  8 37  1  0
  8 38  1  0
  9 39  1  0
  9 40  1  0
 10 41  1  0
 10 42  1  0
 11 43  1  6
 13 44  1  0
 14 45  1  0
 21 46  1  0
 22 47  1  0
 24 48  1  0
 25 49  1  0
 27 50  1  0
 30 51  1  0
 31 52  1  0
M  END
>  <smiles>  (78) 
O=C(NCC(=O)N1CCCC1c1ccc(OC(F)(F)F)cc1)c1ccc2cc(F)ccc2n1

>  <score_type>  (78) 
oracle

>  <origin>  (78) 
autodockgpu

>  <m_score__min__energy>  (78) 
-8.4399999999999995

>  <m_primary>  (78) 
energy

>  <rmsd>  (78) 
2.050636776071699

>  <m_score__min__rmsd>  (78) 
2.050636776071699

>  <meeko>  (78) 
{"free_energy": -7.14, "intermolecular_energy": -9.23, "internal_energy": -1.92, "cluster_size": 8, "cluster_id": 3, "rank_in_cluster": 7}

>  <energy>  (78) 
-7.54

>  <cluster_rmsd>  (78) 
1.68

>  <cluster>  (78) 
3

$$$$

     RDKit          3D

 52 55  0  0  0  0  0  0  0  0999 V2000
  141.2260   71.7930  221.4400 O   0  0  0  0  0  0  0  0  0  0  0  0
  140.4610   72.2530  222.3560 C   0  0  0  0  0  0  0  0  0  0  0  0
  139.8140   73.5110  222.2210 N   0  0  0  0  0  0  0  0  0  0  0  0
  140.0410   74.2610  221.0210 C   0  0  0  0  0  0  0  0  0  0  0  0
  140.3180   75.6920  221.3020 C   0  0  0  0  0  0  0  0  0  0  0  0
  139.6690   76.2000  222.2740 O   0  0  0  0  0  0  0  0  0  0  0  0
  141.2510   76.4640  220.5380 N   0  0  0  0  0  0  0  0  0  0  0  0
  141.7700   75.9900  219.2670 C   0  0  0  0  0  0  0  0  0  0  0  0
  142.5270   77.2020  218.7730 C   0  0  0  0  0  0  0  0  0  0  0  0
  141.9800   78.3840  219.5480 C   0  0  0  0  0  0  0  0  0  0  0  0
  141.7750   77.7380  220.9020 C   0  0  1  0  0  0  0  0  0  0  0  0
  141.0100   78.5410  221.8330 C   0  0  0  0  0  0  0  0  0  0  0  0
  141.4060   78.6800  223.1590 C   0  0  0  0  0  0  0  0  0  0  0  0
  140.7080   79.4370  224.0700 C   0  0  0  0  0  0  0  0  0  0  0  0
  139.5610   80.1040  223.6970 C   0  0  0  0  0  0  0  0  0  0  0  0
  138.8300   80.8790  224.5940 O   0  0  0  0  0  0  0  0  0  0  0  0
  137.4010   80.9810  224.4770 C   0  0  0  0  0  0  0  0  0  0  0  0
  136.8360   81.3300  225.6770 F   0  0  0  0  0  0  0  0  0  0  0  0
  137.1360   81.8870  223.4730 F   0  0  0  0  0  0  0  0  0  0  0  0
  136.8740   79.7720  224.0670 F   0  0  0  0  0  0  0  0  0  0  0  0
  139.1410   79.9880  222.3880 C   0  0  0  0  0  0  0  0  0  0  0  0
  139.8450   79.2280  221.4790 C   0  0  0  0  0  0  0  0  0  0  0  0
  140.2610   71.4480  223.5650 C   0  0  0  0  0  0  0  0  0  0  0  0
  139.5930   70.2440  223.4970 C   0  0  0  0  0  0  0  0  0  0  0  0
  139.3840   69.4540  224.6080 C   0  0  0  0  0  0  0  0  0  0  0  0
  139.8580   69.8800  225.8360 C   0  0  0  0  0  0  0  0  0  0  0  0
  139.6640   69.1090  226.9650 C   0  0  0  0  0  0  0  0  0  0  0  0
  140.1480   69.5550  228.1810 C   0  0  0  0  0  0  0  0  0  0  0  0
  139.9430   68.7780  229.2700 F   0  0  0  0  0  0  0  0  0  0  0  0
  140.8170   70.7670  228.2360 C   0  0  0  0  0  0  0  0  0  0  0  0
  141.0250   71.5570  227.1210 C   0  0  0  0  0  0  0  0  0  0  0  0
  140.5340   71.1030  225.8930 C   0  0  0  0  0  0  0  0  0  0  0  0
  140.7070   71.8280  224.7750 N   0  0  0  0  0  0  0  0  0  0  0  0
  139.1860   73.8800  222.9850 H   0  0  0  0  0  0  0  0  0  0  0  0
  140.9032   73.8301  220.4909 H   0  0  0  0  0  0  0  0  0  0  0  0
  139.1287   74.2060  220.4090 H   0  0  0  0  0  0  0  0  0  0  0  0
  142.4392   75.1277  219.4037 H   0  0  0  0  0  0  0  0  0  0  0  0
  140.9942   75.6349  218.5727 H   0  0  0  0  0  0  0  0  0  0  0  0
  143.6036   77.0844  218.9657 H   0  0  0  0  0  0  0  0  0  0  0  0
  142.4017   77.3396  217.6889 H   0  0  0  0  0  0  0  0  0  0  0  0
  142.7036   79.2111  219.5956 H   0  0  0  0  0  0  0  0  0  0  0  0
  141.0811   78.8466  219.1144 H   0  0  0  0  0  0  0  0  0  0  0  0
  142.6863   77.6337  221.5091 H   0  0  0  0  0  0  0  0  0  0  0  0
  142.3170   78.1619  223.4932 H   0  0  0  0  0  0  0  0  0  0  0  0
  141.0684   79.5110  225.1066 H   0  0  0  0  0  0  0  0  0  0  0  0
  138.2289   80.5109  222.0644 H   0  0  0  0  0  0  0  0  0  0  0  0
  139.4792   79.1599  220.4438 H   0  0  0  0  0  0  0  0  0  0  0  0
  139.2136   69.9016  222.5230 H   0  0  0  0  0  0  0  0  0  0  0  0
  138.8475   68.4978  224.5189 H   0  0  0  0  0  0  0  0  0  0  0  0
  139.1299   68.1498  226.8977 H   0  0  0  0  0  0  0  0  0  0  0  0
  141.1985   71.1150  229.2073 H   0  0  0  0  0  0  0  0  0  0  0  0
  141.5609   72.5146  227.1975 H   0  0  0  0  0  0  0  0  0  0  0  0
  1  2  2  0
  2  3  1  0
  3  4  1  0
  4  5  1  0
  5  6  2  0
  5  7  1  0
  7  8  1  0
  8  9  1  0
  9 10  1  0
 10 11  1  0
 11 12  1  0
 12 13  2  0
 13 14  1  0
 14 15  2  0
 15 16  1  0
 16 17  1  0
 17 18  1  0
 17 19  1  0
 17 20  1  0
 15 21  1  0
 21 22  2  0
  2 23  1  0
 23 24  2  0
 24 25  1  0
 25 26  2  0
 26 27  1  0
 27 28  2  0
 28 29  1  0
 28 30  1  0
 30 31  2  0
 31 32  1  0
 32 33  2  0
 11  7  1  0
 22 12  1  0
 33 23  1  0
 32 26  1  0
  3 34  1  0
  4 35  1  0
  4 36  1  0
  8 37  1  0
  8 38  1  0
  9 39  1  0
  9 40  1  0
 10 41  1  0
 10 42  1  0
 11 43  1  1
 13 44  1  0
 14 45  1  0
 21 46  1  0
 22 47  1  0
 24 48  1  0
 25 49  1  0
 27 50  1  0
 30 51  1  0
 31 52  1  0
M  END
>  <smiles>  (79) 
O=C(NCC(=O)N1CCCC1c1ccc(OC(F)(F)F)cc1)c1ccc2cc(F)ccc2n1

>  <score_type>  (79) 
oracle

>  <origin>  (79) 
autodockgpu

>  <m_score__min__energy>  (79) 
-8.4399999999999995

>  <m_primary>  (79) 
energy

>  <rmsd>  (79) 
1.8863326274155632

>  <m_score__min__rmsd>  (79) 
1.8863326274155632

>  <meeko>  (79) 
{"free_energy": -8.17, "intermolecular_energy": -10.26, "internal_energy": -1.55, "cluster_size": 13, "cluster_id": 1, "rank_in_cluster": 12}

>  <energy>  (79) 
-7.51

>  <cluster_rmsd>  (79) 
1.03

>  <cluster>  (79) 
3

$$$$

     RDKit          3D

 52 55  0  0  0  0  0  0  0  0999 V2000
  141.2180   71.9190  221.4150 O   0  0  0  0  0  0  0  0  0  0  0  0
  140.5220   72.3830  222.3830 C   0  0  0  0  0  0  0  0  0  0  0  0
  139.9730   73.6940  222.3430 N   0  0  0  0  0  0  0  0  0  0  0  0
  140.2200   74.4920  221.1790 C   0  0  0  0  0  0  0  0  0  0  0  0
  140.7280   75.8430  221.5270 C   0  0  0  0  0  0  0  0  0  0  0  0
  140.4860   76.2350  222.7160 O   0  0  0  0  0  0  0  0  0  0  0  0
  141.4450   76.6630  220.5980 N   0  0  0  0  0  0  0  0  0  0  0  0
  141.8700   76.1560  219.3050 C   0  0  0  0  0  0  0  0  0  0  0  0
  142.3850   77.4100  218.6360 C   0  0  0  0  0  0  0  0  0  0  0  0
  141.7730   78.5710  219.3940 C   0  0  0  0  0  0  0  0  0  0  0  0
  141.8250   78.0210  220.8040 C   0  0  1  0  0  0  0  0  0  0  0  0
  141.0710   78.7930  221.7700 C   0  0  0  0  0  0  0  0  0  0  0  0
  139.7160   79.0450  221.5930 C   0  0  0  0  0  0  0  0  0  0  0  0
  138.9670   79.7700  222.4900 C   0  0  0  0  0  0  0  0  0  0  0  0
  139.5450   80.2880  223.6300 C   0  0  0  0  0  0  0  0  0  0  0  0
  138.8170   81.0250  224.5590 O   0  0  0  0  0  0  0  0  0  0  0  0
  137.3940   81.1730  224.4230 C   0  0  0  0  0  0  0  0  0  0  0  0
  136.7950   79.9580  224.2090 F   0  0  0  0  0  0  0  0  0  0  0  0
  136.9380   81.8050  225.5590 F   0  0  0  0  0  0  0  0  0  0  0  0
  137.1060   82.0100  223.3620 F   0  0  0  0  0  0  0  0  0  0  0  0
  140.8890   80.0550  223.8370 C   0  0  0  0  0  0  0  0  0  0  0  0
  141.6340   79.3280  222.9330 C   0  0  0  0  0  0  0  0  0  0  0  0
  140.2980   71.5270  223.5520 C   0  0  0  0  0  0  0  0  0  0  0  0
  139.6260   70.3300  223.4200 C   0  0  0  0  0  0  0  0  0  0  0  0
  139.3950   69.4940  224.4910 C   0  0  0  0  0  0  0  0  0  0  0  0
  139.8490   69.8630  225.7450 C   0  0  0  0  0  0  0  0  0  0  0  0
  139.6320   69.0440  226.8360 C   0  0  0  0  0  0  0  0  0  0  0  0
  140.0970   69.4340  228.0780 C   0  0  0  0  0  0  0  0  0  0  0  0
  139.8700   68.6100  229.1280 F   0  0  0  0  0  0  0  0  0  0  0  0
  140.7690   70.6390  228.1970 C   0  0  0  0  0  0  0  0  0  0  0  0
  140.9990   71.4760  227.1220 C   0  0  0  0  0  0  0  0  0  0  0  0
  140.5290   71.0780  225.8680 C   0  0  0  0  0  0  0  0  0  0  0  0
  140.7240   71.8510  224.7860 N   0  0  0  0  0  0  0  0  0  0  0  0
  139.4010   74.0650  223.1480 H   0  0  0  0  0  0  0  0  0  0  0  0
  140.9664   73.9829  220.5515 H   0  0  0  0  0  0  0  0  0  0  0  0
  139.2669   74.6154  220.6438 H   0  0  0  0  0  0  0  0  0  0  0  0
  142.6650   75.4033  219.4114 H   0  0  0  0  0  0  0  0  0  0  0  0
  141.0741   75.6456  218.7428 H   0  0  0  0  0  0  0  0  0  0  0  0
  143.4826   77.4513  218.6952 H   0  0  0  0  0  0  0  0  0  0  0  0
  142.1140   77.4378  217.5703 H   0  0  0  0  0  0  0  0  0  0  0  0
  142.3727   79.4874  219.2909 H   0  0  0  0  0  0  0  0  0  0  0  0
  140.7723   78.8724  219.0508 H   0  0  0  0  0  0  0  0  0  0  0  0
  142.8080   78.0888  221.2930 H   0  0  0  0  0  0  0  0  0  0  0  0
  139.2203   78.6468  220.6953 H   0  0  0  0  0  0  0  0  0  0  0  0
  137.8973   79.9382  222.2965 H   0  0  0  0  0  0  0  0  0  0  0  0
  141.3745   80.4562  224.7388 H   0  0  0  0  0  0  0  0  0  0  0  0
  142.7032   79.1639  223.1325 H   0  0  0  0  0  0  0  0  0  0  0  0
  139.2618   70.0322  222.4257 H   0  0  0  0  0  0  0  0  0  0  0  0
  138.8564   68.5452  224.3507 H   0  0  0  0  0  0  0  0  0  0  0  0
  139.0948   68.0914  226.7177 H   0  0  0  0  0  0  0  0  0  0  0  0
  141.1350   70.9425  229.1889 H   0  0  0  0  0  0  0  0  0  0  0  0
  141.5362   72.4274  227.2497 H   0  0  0  0  0  0  0  0  0  0  0  0
  1  2  2  0
  2  3  1  0
  3  4  1  0
  4  5  1  0
  5  6  2  0
  5  7  1  0
  7  8  1  0
  8  9  1  0
  9 10  1  0
 10 11  1  0
 11 12  1  0
 12 13  2  0
 13 14  1  0
 14 15  2  0
 15 16  1  0
 16 17  1  0
 17 18  1  0
 17 19  1  0
 17 20  1  0
 15 21  1  0
 21 22  2  0
  2 23  1  0
 23 24  2  0
 24 25  1  0
 25 26  2  0
 26 27  1  0
 27 28  2  0
 28 29  1  0
 28 30  1  0
 30 31  2  0
 31 32  1  0
 32 33  2  0
 11  7  1  0
 22 12  1  0
 33 23  1  0
 32 26  1  0
  3 34  1  0
  4 35  1  0
  4 36  1  0
  8 37  1  0
  8 38  1  0
  9 39  1  0
  9 40  1  0
 10 41  1  0
 10 42  1  0
 11 43  1  1
 13 44  1  0
 14 45  1  0
 21 46  1  0
 22 47  1  0
 24 48  1  0
 25 49  1  0
 27 50  1  0
 30 51  1  0
 31 52  1  0
M  END
>  <smiles>  (80) 
O=C(NCC(=O)N1CCCC1c1ccc(OC(F)(F)F)cc1)c1ccc2cc(F)ccc2n1

>  <score_type>  (80) 
oracle

>  <origin>  (80) 
autodockgpu

>  <m_score__min__energy>  (80) 
-8.4399999999999995

>  <m_primary>  (80) 
energy

>  <rmsd>  (80) 
1.9555777536836656

>  <m_score__min__rmsd>  (80) 
1.9555777536836656

>  <meeko>  (80) 
{"free_energy": -8.3, "intermolecular_energy": -10.39, "internal_energy": -1.58, "cluster_size": 13, "cluster_id": 1, "rank_in_cluster": 3}

>  <energy>  (80) 
-7.44

>  <cluster_rmsd>  (80) 
1.05

>  <cluster>  (80) 
3

$$$$

     RDKit          3D

 52 55  0  0  0  0  0  0  0  0999 V2000
  139.4920   70.7240  221.4060 O   0  0  0  0  0  0  0  0  0  0  0  0
  139.3050   71.4980  222.4070 C   0  0  0  0  0  0  0  0  0  0  0  0
  138.6740   72.7630  222.2600 N   0  0  0  0  0  0  0  0  0  0  0  0
  138.2480   73.1560  220.9490 C   0  0  0  0  0  0  0  0  0  0  0  0
  139.2670   73.9840  220.2560 C   0  0  0  0  0  0  0  0  0  0  0  0
  138.8260   75.0240  219.6660 O   0  0  0  0  0  0  0  0  0  0  0  0
  140.6590   73.6480  220.2450 N   0  0  0  0  0  0  0  0  0  0  0  0
  141.1580   72.4930  219.5180 C   0  0  0  0  0  0  0  0  0  0  0  0
  142.6530   72.6770  219.6370 C   0  0  0  0  0  0  0  0  0  0  0  0
  142.8710   74.1350  219.9850 C   0  0  0  0  0  0  0  0  0  0  0  0
  141.6960   74.3630  220.9120 C   0  0  1  0  0  0  0  0  0  0  0  0
  141.4550   75.7540  221.2360 C   0  0  0  0  0  0  0  0  0  0  0  0
  141.9530   76.7770  220.4360 C   0  0  0  0  0  0  0  0  0  0  0  0
  141.7420   78.1080  220.7090 C   0  0  0  0  0  0  0  0  0  0  0  0
  141.0110   78.4900  221.8130 C   0  0  0  0  0  0  0  0  0  0  0  0
  140.7780   79.8280  222.1190 O   0  0  0  0  0  0  0  0  0  0  0  0
  141.6540   80.5380  223.0100 C   0  0  0  0  0  0  0  0  0  0  0  0
  142.5510   81.3020  222.3080 F   0  0  0  0  0  0  0  0  0  0  0  0
  140.8620   81.2820  223.8570 F   0  0  0  0  0  0  0  0  0  0  0  0
  142.3470   79.6430  223.8020 F   0  0  0  0  0  0  0  0  0  0  0  0
  140.5010   77.5010  222.6270 C   0  0  0  0  0  0  0  0  0  0  0  0
  140.7160   76.1680  222.3480 C   0  0  0  0  0  0  0  0  0  0  0  0
  139.7580   71.0510  223.7270 C   0  0  0  0  0  0  0  0  0  0  0  0
  140.5180   71.8840  224.5210 C   0  0  0  0  0  0  0  0  0  0  0  0
  140.9650   71.5040  225.7690 C   0  0  0  0  0  0  0  0  0  0  0  0
  140.6430   70.2460  226.2470 C   0  0  0  0  0  0  0  0  0  0  0  0
  141.0760   69.8410  227.4940 C   0  0  0  0  0  0  0  0  0  0  0  0
  140.7410   68.5790  227.9500 C   0  0  0  0  0  0  0  0  0  0  0  0
  141.1800   68.2100  229.1760 F   0  0  0  0  0  0  0  0  0  0  0  0
  139.9780   67.7520  227.1420 C   0  0  0  0  0  0  0  0  0  0  0  0
  139.5320   68.1340  225.8910 C   0  0  0  0  0  0  0  0  0  0  0  0
  139.8720   69.4100  225.4330 C   0  0  0  0  0  0  0  0  0  0  0  0
  139.4670   69.8360  224.2250 N   0  0  0  0  0  0  0  0  0  0  0  0
  138.5260   73.3930  223.0940 H   0  0  0  0  0  0  0  0  0  0  0  0
  138.0593   72.2520  220.3514 H   0  0  0  0  0  0  0  0  0  0  0  0
  137.3356   73.7609  221.0562 H   0  0  0  0  0  0  0  0  0  0  0  0
  140.8314   71.5528  219.9864 H   0  0  0  0  0  0  0  0  0  0  0  0
  140.7976   72.4291  218.4807 H   0  0  0  0  0  0  0  0  0  0  0  0
  143.0551   72.0308  220.4312 H   0  0  0  0  0  0  0  0  0  0  0  0
  143.1666   72.4059  218.7028 H   0  0  0  0  0  0  0  0  0  0  0  0
  143.8316   74.2932  220.4971 H   0  0  0  0  0  0  0  0  0  0  0  0
  142.9186   74.8151  219.1217 H   0  0  0  0  0  0  0  0  0  0  0  0
  141.8372   73.9938  221.9385 H   0  0  0  0  0  0  0  0  0  0  0  0
  142.5414   76.5095  219.5459 H   0  0  0  0  0  0  0  0  0  0  0  0
  142.1604   78.8747  220.0403 H   0  0  0  0  0  0  0  0  0  0  0  0
  139.9129   77.7800  223.5137 H   0  0  0  0  0  0  0  0  0  0  0  0
  140.2932   75.4073  223.0208 H   0  0  0  0  0  0  0  0  0  0  0  0
  140.7764   72.8854  224.1461 H   0  0  0  0  0  0  0  0  0  0  0  0
  141.5701   72.1925  226.3771 H   0  0  0  0  0  0  0  0  0  0  0  0
  141.6810   70.5150  228.1182 H   0  0  0  0  0  0  0  0  0  0  0  0
  139.7162   66.7495  227.5115 H   0  0  0  0  0  0  0  0  0  0  0  0
  138.9270   67.4536  225.2737 H   0  0  0  0  0  0  0  0  0  0  0  0
  1  2  2  0
  2  3  1  0
  3  4  1  0
  4  5  1  0
  5  6  2  0
  5  7  1  0
  7  8  1  0
  8  9  1  0
  9 10  1  0
 10 11  1  0
 11 12  1  0
 12 13  2  0
 13 14  1  0
 14 15  2  0
 15 16  1  0
 16 17  1  0
 17 18  1  0
 17 19  1  0
 17 20  1  0
 15 21  1  0
 21 22  2  0
  2 23  1  0
 23 24  2  0
 24 25  1  0
 25 26  2  0
 26 27  1  0
 27 28  2  0
 28 29  1  0
 28 30  1  0
 30 31  2  0
 31 32  1  0
 32 33  2  0
 11  7  1  0
 22 12  1  0
 33 23  1  0
 32 26  1  0
  3 34  1  0
  4 35  1  0
  4 36  1  0
  8 37  1  0
  8 38  1  0
  9 39  1  0
  9 40  1  0
 10 41  1  0
 10 42  1  0
 11 43  1  1
 13 44  1  0
 14 45  1  0
 21 46  1  0
 22 47  1  0
 24 48  1  0
 25 49  1  0
 27 50  1  0
 30 51  1  0
 31 52  1  0
M  END
>  <smiles>  (81) 
O=C(NCC(=O)N1CCCC1c1ccc(OC(F)(F)F)cc1)c1ccc2cc(F)ccc2n1

>  <score_type>  (81) 
oracle

>  <origin>  (81) 
autodockgpu

>  <m_score__min__energy>  (81) 
-8.4399999999999995

>  <m_primary>  (81) 
energy

>  <rmsd>  (81) 
3.141371760026604

>  <m_score__min__rmsd>  (81) 
3.141371760026604

>  <meeko>  (81) 
{"free_energy": -7.32, "intermolecular_energy": -9.41, "internal_energy": -1.85, "cluster_size": 2, "cluster_id": 5, "rank_in_cluster": 2}

>  <energy>  (81) 
-7.42

>  <cluster_rmsd>  (81) 
0.94

>  <cluster>  (81) 
3

$$$$

     RDKit          3D

 52 55  0  0  0  0  0  0  0  0999 V2000
  138.5230   70.8460  221.1710 O   0  0  0  0  0  0  0  0  0  0  0  0
  138.6810   71.5510  222.2260 C   0  0  0  0  0  0  0  0  0  0  0  0
  138.4720   72.9570  222.2180 N   0  0  0  0  0  0  0  0  0  0  0  0
  138.0740   73.5730  220.9860 C   0  0  0  0  0  0  0  0  0  0  0  0
  139.2380   74.0600  220.2050 C   0  0  0  0  0  0  0  0  0  0  0  0
  138.9750   74.9150  219.2970 O   0  0  0  0  0  0  0  0  0  0  0  0
  140.5750   73.6080  220.4450 N   0  0  0  0  0  0  0  0  0  0  0  0
  141.0480   72.3280  219.9450 C   0  0  0  0  0  0  0  0  0  0  0  0
  142.5230   72.3970  220.2680 C   0  0  0  0  0  0  0  0  0  0  0  0
  142.8400   73.8650  220.4700 C   0  0  0  0  0  0  0  0  0  0  0  0
  141.5770   74.3130  221.1730 C   0  0  1  0  0  0  0  0  0  0  0  0
  141.4390   75.7500  221.2890 C   0  0  0  0  0  0  0  0  0  0  0  0
  141.9710   76.6050  220.3300 C   0  0  0  0  0  0  0  0  0  0  0  0
  141.8560   77.9730  220.4050 C   0  0  0  0  0  0  0  0  0  0  0  0
  141.1950   78.5660  221.4590 C   0  0  0  0  0  0  0  0  0  0  0  0
  141.0610   79.9480  221.5660 O   0  0  0  0  0  0  0  0  0  0  0  0
  141.6610   80.6580  222.6610 C   0  0  0  0  0  0  0  0  0  0  0  0
  141.7720   81.9950  222.3750 F   0  0  0  0  0  0  0  0  0  0  0  0
  140.8960   80.4100  223.7790 F   0  0  0  0  0  0  0  0  0  0  0  0
  142.9180   80.1480  222.9220 F   0  0  0  0  0  0  0  0  0  0  0  0
  140.6550   77.7470  222.4270 C   0  0  0  0  0  0  0  0  0  0  0  0
  140.7720   76.3750  222.3470 C   0  0  0  0  0  0  0  0  0  0  0  0
  139.0890   70.8750  223.4610 C   0  0  0  0  0  0  0  0  0  0  0  0
  138.8630   69.5240  223.6220 C   0  0  0  0  0  0  0  0  0  0  0  0
  139.2310   68.8480  224.7660 C   0  0  0  0  0  0  0  0  0  0  0  0
  139.8490   69.5430  225.7910 C   0  0  0  0  0  0  0  0  0  0  0  0
  140.2300   68.8910  226.9470 C   0  0  0  0  0  0  0  0  0  0  0  0
  140.8470   69.6070  227.9560 C   0  0  0  0  0  0  0  0  0  0  0  0
  141.2090   68.9400  229.0780 F   0  0  0  0  0  0  0  0  0  0  0  0
  141.0670   70.9630  227.7820 C   0  0  0  0  0  0  0  0  0  0  0  0
  140.6970   71.6390  226.6350 C   0  0  0  0  0  0  0  0  0  0  0  0
  140.0740   70.9120  225.6160 C   0  0  0  0  0  0  0  0  0  0  0  0
  139.6920   71.5160  224.4780 N   0  0  0  0  0  0  0  0  0  0  0  0
  138.6070   73.5290  223.0950 H   0  0  0  0  0  0  0  0  0  0  0  0
  137.5247   72.8359  220.3819 H   0  0  0  0  0  0  0  0  0  0  0  0
  137.4419   74.4399  221.2289 H   0  0  0  0  0  0  0  0  0  0  0  0
  140.5624   71.4899  220.4664 H   0  0  0  0  0  0  0  0  0  0  0  0
  140.8323   72.1581  218.8798 H   0  0  0  0  0  0  0  0  0  0  0  0
  142.7400   71.8297  221.1851 H   0  0  0  0  0  0  0  0  0  0  0  0
  143.1320   71.9612  219.4622 H   0  0  0  0  0  0  0  0  0  0  0  0
  143.7303   74.0073  221.1002 H   0  0  0  0  0  0  0  0  0  0  0  0
  143.0787   74.4181  219.5496 H   0  0  0  0  0  0  0  0  0  0  0  0
  141.5336   74.0717  222.2453 H   0  0  0  0  0  0  0  0  0  0  0  0
  142.5069   76.1680  219.4745 H   0  0  0  0  0  0  0  0  0  0  0  0
  142.2960   78.6005  219.6159 H   0  0  0  0  0  0  0  0  0  0  0  0
  140.1215   78.1952  223.2781 H   0  0  0  0  0  0  0  0  0  0  0  0
  140.3275   75.7543  223.1389 H   0  0  0  0  0  0  0  0  0  0  0  0
  138.3725   68.9669  222.8102 H   0  0  0  0  0  0  0  0  0  0  0  0
  139.0358   67.7698  224.8628 H   0  0  0  0  0  0  0  0  0  0  0  0
  140.0445   67.8131  227.0639 H   0  0  0  0  0  0  0  0  0  0  0  0
  141.5567   71.5255  228.5905 H   0  0  0  0  0  0  0  0  0  0  0  0
  140.8870   72.7171  226.5268 H   0  0  0  0  0  0  0  0  0  0  0  0
  1  2  2  0
  2  3  1  0
  3  4  1  0
  4  5  1  0
  5  6  2  0
  5  7  1  0
  7  8  1  0
  8  9  1  0
  9 10  1  0
 10 11  1  0
 11 12  1  0
 12 13  2  0
 13 14  1  0
 14 15  2  0
 15 16  1  0
 16 17  1  0
 17 18  1  0
 17 19  1  0
 17 20  1  0
 15 21  1  0
 21 22  2  0
  2 23  1  0
 23 24  2  0
 24 25  1  0
 25 26  2  0
 26 27  1  0
 27 28  2  0
 28 29  1  0
 28 30  1  0
 30 31  2  0
 31 32  1  0
 32 33  2  0
 11  7  1  0
 22 12  1  0
 33 23  1  0
 32 26  1  0
  3 34  1  0
  4 35  1  0
  4 36  1  0
  8 37  1  0
  8 38  1  0
  9 39  1  0
  9 40  1  0
 10 41  1  0
 10 42  1  0
 11 43  1  1
 13 44  1  0
 14 45  1  0
 21 46  1  0
 22 47  1  0
 24 48  1  0
 25 49  1  0
 27 50  1  0
 30 51  1  0
 31 52  1  0
M  END
>  <smiles>  (82) 
O=C(NCC(=O)N1CCCC1c1ccc(OC(F)(F)F)cc1)c1ccc2cc(F)ccc2n1

>  <score_type>  (82) 
oracle

>  <origin>  (82) 
autodockgpu

>  <m_score__min__energy>  (82) 
-8.4399999999999995

>  <m_primary>  (82) 
energy

>  <rmsd>  (82) 
2.432093994165025

>  <m_score__min__rmsd>  (82) 
2.432093994165025

>  <meeko>  (82) 
{"free_energy": -7.17, "intermolecular_energy": -9.25, "internal_energy": -2.03, "cluster_size": 8, "cluster_id": 3, "rank_in_cluster": 6}

>  <energy>  (82) 
-7.17

>  <cluster_rmsd>  (82) 
1.97

>  <cluster>  (82) 
3

$$$$

     RDKit          3D

 52 55  0  0  0  0  0  0  0  0999 V2000
  141.3130   72.2050  221.2350 O   0  0  0  0  0  0  0  0  0  0  0  0
  140.4540   72.5390  222.1210 C   0  0  0  0  0  0  0  0  0  0  0  0
  139.6920   73.7340  222.0050 N   0  0  0  0  0  0  0  0  0  0  0  0
  139.9110   74.5640  220.8580 C   0  0  0  0  0  0  0  0  0  0  0  0
  140.6540   75.8030  221.2000 C   0  0  0  0  0  0  0  0  0  0  0  0
  141.0980   75.8690  222.3940 O   0  0  0  0  0  0  0  0  0  0  0  0
  140.8670   76.8620  220.2610 N   0  0  0  0  0  0  0  0  0  0  0  0
  140.2940   78.1820  220.4590 C   0  0  0  0  0  0  0  0  0  0  0  0
  140.9490   78.9730  219.3500 C   0  0  0  0  0  0  0  0  0  0  0  0
  142.1740   78.1800  218.9380 C   0  0  0  0  0  0  0  0  0  0  0  0
  141.6310   76.7730  219.0610 C   0  0  1  0  0  0  0  0  0  0  0  0
  142.6400   75.7370  218.9800 C   0  0  0  0  0  0  0  0  0  0  0  0
  142.7990   74.9750  217.8280 C   0  0  0  0  0  0  0  0  0  0  0  0
  143.7480   73.9870  217.7130 C   0  0  0  0  0  0  0  0  0  0  0  0
  144.6010   73.7060  218.7590 C   0  0  0  0  0  0  0  0  0  0  0  0
  145.5720   72.7130  218.6750 O   0  0  0  0  0  0  0  0  0  0  0  0
  145.7100   71.7350  219.7190 C   0  0  0  0  0  0  0  0  0  0  0  0
  144.4830   71.3430  220.1870 F   0  0  0  0  0  0  0  0  0  0  0  0
  146.4490   70.6910  219.2070 F   0  0  0  0  0  0  0  0  0  0  0  0
  146.4430   72.2620  220.7650 F   0  0  0  0  0  0  0  0  0  0  0  0
  144.4710   74.4450  219.9160 C   0  0  0  0  0  0  0  0  0  0  0  0
  143.5170   75.4350  220.0260 C   0  0  0  0  0  0  0  0  0  0  0  0
  140.2660   71.6560  223.2760 C   0  0  0  0  0  0  0  0  0  0  0  0
  139.6100   70.4510  223.1320 C   0  0  0  0  0  0  0  0  0  0  0  0
  139.4130   69.5900  224.1910 C   0  0  0  0  0  0  0  0  0  0  0  0
  139.8860   69.9410  225.4420 C   0  0  0  0  0  0  0  0  0  0  0  0
  139.7030   69.0960  226.5200 C   0  0  0  0  0  0  0  0  0  0  0  0
  140.1860   69.4680  227.7610 C   0  0  0  0  0  0  0  0  0  0  0  0
  139.9920   68.6200  228.7980 F   0  0  0  0  0  0  0  0  0  0  0  0
  140.8410   70.6810  227.8920 C   0  0  0  0  0  0  0  0  0  0  0  0
  141.0380   71.5440  226.8300 C   0  0  0  0  0  0  0  0  0  0  0  0
  140.5490   71.1640  225.5770 C   0  0  0  0  0  0  0  0  0  0  0  0
  140.7100   71.9620  224.5080 N   0  0  0  0  0  0  0  0  0  0  0  0
  138.9860   73.9980  222.7430 H   0  0  0  0  0  0  0  0  0  0  0  0
  140.4903   73.9966  220.1147 H   0  0  0  0  0  0  0  0  0  0  0  0
  138.9287   74.8569  220.4588 H   0  0  0  0  0  0  0  0  0  0  0  0
  139.1999   78.1647  220.3463 H   0  0  0  0  0  0  0  0  0  0  0  0
  140.4663   78.5963  221.4633 H   0  0  0  0  0  0  0  0  0  0  0  0
  140.2600   79.0813  218.4994 H   0  0  0  0  0  0  0  0  0  0  0  0
  141.2183   79.9863  219.6828 H   0  0  0  0  0  0  0  0  0  0  0  0
  142.4814   78.4101  217.9072 H   0  0  0  0  0  0  0  0  0  0  0  0
  143.0773   78.3812  219.5326 H   0  0  0  0  0  0  0  0  0  0  0  0
  141.0087   76.4411  218.2168 H   0  0  0  0  0  0  0  0  0  0  0  0
  142.1369   75.1711  216.9717 H   0  0  0  0  0  0  0  0  0  0  0  0
  143.8276   73.4149  216.7769 H   0  0  0  0  0  0  0  0  0  0  0  0
  145.1395   74.2415  220.7656 H   0  0  0  0  0  0  0  0  0  0  0  0
  143.4440   76.0038  220.9647 H   0  0  0  0  0  0  0  0  0  0  0  0
  139.2313   70.1674  222.1389 H   0  0  0  0  0  0  0  0  0  0  0  0
  138.8861   68.6359  224.0424 H   0  0  0  0  0  0  0  0  0  0  0  0
  139.1786   68.1375  226.3922 H   0  0  0  0  0  0  0  0  0  0  0  0
  141.2207   70.9702  228.8831 H   0  0  0  0  0  0  0  0  0  0  0  0
  141.5636   72.5006  226.9670 H   0  0  0  0  0  0  0  0  0  0  0  0
  1  2  2  0
  2  3  1  0
  3  4  1  0
  4  5  1  0
  5  6  2  0
  5  7  1  0
  7  8  1  0
  8  9  1  0
  9 10  1  0
 10 11  1  0
 11 12  1  0
 12 13  2  0
 13 14  1  0
 14 15  2  0
 15 16  1  0
 16 17  1  0
 17 18  1  0
 17 19  1  0
 17 20  1  0
 15 21  1  0
 21 22  2  0
  2 23  1  0
 23 24  2  0
 24 25  1  0
 25 26  2  0
 26 27  1  0
 27 28  2  0
 28 29  1  0
 28 30  1  0
 30 31  2  0
 31 32  1  0
 32 33  2  0
 11  7  1  0
 22 12  1  0
 33 23  1  0
 32 26  1  0
  3 34  1  0
  4 35  1  0
  4 36  1  0
  8 37  1  0
  8 38  1  0
  9 39  1  0
  9 40  1  0
 10 41  1  0
 10 42  1  0
 11 43  1  6
 13 44  1  0
 14 45  1  0
 21 46  1  0
 22 47  1  0
 24 48  1  0
 25 49  1  0
 27 50  1  0
 30 51  1  0
 31 52  1  0
M  END
>  <smiles>  (83) 
O=C(NCC(=O)N1CCCC1c1ccc(OC(F)(F)F)cc1)c1ccc2cc(F)ccc2n1

>  <score_type>  (83) 
oracle

>  <origin>  (83) 
autodockgpu

>  <m_score__min__energy>  (83) 
-8.4399999999999995

>  <m_primary>  (83) 
energy

>  <rmsd>  (83) 
2.1304168561112404

>  <m_score__min__rmsd>  (83) 
2.1304168561112404

>  <meeko>  (83) 
{"free_energy": -7.79, "intermolecular_energy": -9.88, "internal_energy": -1.67, "cluster_size": 13, "cluster_id": 2, "rank_in_cluster": 5}

>  <energy>  (83) 
-7.14

>  <cluster_rmsd>  (83) 
1.14

>  <cluster>  (83) 
3

$$$$

     RDKit          3D

 52 55  0  0  0  0  0  0  0  0999 V2000
  140.4430   71.6520  221.1280 O   0  0  0  0  0  0  0  0  0  0  0  0
  140.1300   72.1890  222.2460 C   0  0  0  0  0  0  0  0  0  0  0  0
  139.8210   73.5730  222.3440 N   0  0  0  0  0  0  0  0  0  0  0  0
  139.8690   74.3610  221.1480 C   0  0  0  0  0  0  0  0  0  0  0  0
  139.9460   75.8150  221.4420 C   0  0  0  0  0  0  0  0  0  0  0  0
  139.9670   76.1280  222.6780 O   0  0  0  0  0  0  0  0  0  0  0  0
  139.9950   76.8100  220.4150 N   0  0  0  0  0  0  0  0  0  0  0  0
  139.2100   78.0290  220.4970 C   0  0  0  0  0  0  0  0  0  0  0  0
  139.7430   78.8190  219.3230 C   0  0  0  0  0  0  0  0  0  0  0  0
  141.0870   78.2080  218.9820 C   0  0  0  0  0  0  0  0  0  0  0  0
  140.7810   76.7460  219.2270 C   0  0  1  0  0  0  0  0  0  0  0  0
  141.9480   75.8880  219.2370 C   0  0  0  0  0  0  0  0  0  0  0  0
  142.0540   74.8050  218.3710 C   0  0  0  0  0  0  0  0  0  0  0  0
  143.1470   73.9720  218.3480 C   0  0  0  0  0  0  0  0  0  0  0  0
  144.2080   74.1820  219.2030 C   0  0  0  0  0  0  0  0  0  0  0  0
  145.3300   73.3590  219.2060 O   0  0  0  0  0  0  0  0  0  0  0  0
  145.7020   72.6340  220.3900 C   0  0  0  0  0  0  0  0  0  0  0  0
  146.4010   71.4980  220.0700 F   0  0  0  0  0  0  0  0  0  0  0  0
  146.4180   73.4970  221.1910 F   0  0  0  0  0  0  0  0  0  0  0  0
  144.5720   72.2810  221.1020 F   0  0  0  0  0  0  0  0  0  0  0  0
  144.1360   75.2490  220.0740 C   0  0  0  0  0  0  0  0  0  0  0  0
  143.0370   76.0810  220.0930 C   0  0  0  0  0  0  0  0  0  0  0  0
  140.0940   71.3400  223.4400 C   0  0  0  0  0  0  0  0  0  0  0  0
  139.5730   70.0650  223.3730 C   0  0  0  0  0  0  0  0  0  0  0  0
  139.5210   69.2330  224.4710 C   0  0  0  0  0  0  0  0  0  0  0  0
  140.0080   69.6860  225.6840 C   0  0  0  0  0  0  0  0  0  0  0  0
  139.9700   68.8730  226.8000 C   0  0  0  0  0  0  0  0  0  0  0  0
  140.4640   69.3480  228.0010 C   0  0  0  0  0  0  0  0  0  0  0  0
  140.4140   68.5280  229.0770 F   0  0  0  0  0  0  0  0  0  0  0  0
  140.9840   70.6300  228.0550 C   0  0  0  0  0  0  0  0  0  0  0  0
  141.0340   71.4640  226.9530 C   0  0  0  0  0  0  0  0  0  0  0  0
  140.5350   70.9800  225.7410 C   0  0  0  0  0  0  0  0  0  0  0  0
  140.5570   71.7440  224.6360 N   0  0  0  0  0  0  0  0  0  0  0  0
  139.5650   74.0040  223.2730 H   0  0  0  0  0  0  0  0  0  0  0  0
  140.7554   74.0690  220.5657 H   0  0  0  0  0  0  0  0  0  0  0  0
  138.9433   74.1773  220.5828 H   0  0  0  0  0  0  0  0  0  0  0  0
  138.1355   77.8218  220.3857 H   0  0  0  0  0  0  0  0  0  0  0  0
  139.2966   78.5508  221.4615 H   0  0  0  0  0  0  0  0  0  0  0  0
  139.0583   78.7383  218.4659 H   0  0  0  0  0  0  0  0  0  0  0  0
  139.8371   79.8875  219.5667 H   0  0  0  0  0  0  0  0  0  0  0  0
  141.3673   78.3965  217.9351 H   0  0  0  0  0  0  0  0  0  0  0  0
  141.9361   78.6062  219.5568 H   0  0  0  0  0  0  0  0  0  0  0  0
  140.2341   76.2448  218.4147 H   0  0  0  0  0  0  0  0  0  0  0  0
  141.2267   74.6063  217.6738 H   0  0  0  0  0  0  0  0  0  0  0  0
  143.1755   73.1299  217.6408 H   0  0  0  0  0  0  0  0  0  0  0  0
  144.9700   75.4394  220.7655 H   0  0  0  0  0  0  0  0  0  0  0  0
  143.0160   76.9215  220.8023 H   0  0  0  0  0  0  0  0  0  0  0  0
  139.1857   69.6993  222.4106 H   0  0  0  0  0  0  0  0  0  0  0  0
  139.0975   68.2215  224.3837 H   0  0  0  0  0  0  0  0  0  0  0  0
  139.5510   67.8581  226.7340 H   0  0  0  0  0  0  0  0  0  0  0  0
  141.3737   71.0007  229.0146 H   0  0  0  0  0  0  0  0  0  0  0  0
  141.4540   72.4779  227.0284 H   0  0  0  0  0  0  0  0  0  0  0  0
  1  2  2  0
  2  3  1  0
  3  4  1  0
  4  5  1  0
  5  6  2  0
  5  7  1  0
  7  8  1  0
  8  9  1  0
  9 10  1  0
 10 11  1  0
 11 12  1  0
 12 13  2  0
 13 14  1  0
 14 15  2  0
 15 16  1  0
 16 17  1  0
 17 18  1  0
 17 19  1  0
 17 20  1  0
 15 21  1  0
 21 22  2  0
  2 23  1  0
 23 24  2  0
 24 25  1  0
 25 26  2  0
 26 27  1  0
 27 28  2  0
 28 29  1  0
 28 30  1  0
 30 31  2  0
 31 32  1  0
 32 33  2  0
 11  7  1  0
 22 12  1  0
 33 23  1  0
 32 26  1  0
  3 34  1  0
  4 35  1  0
  4 36  1  0
  8 37  1  0
  8 38  1  0
  9 39  1  0
  9 40  1  0
 10 41  1  0
 10 42  1  0
 11 43  1  6
 13 44  1  0
 14 45  1  0
 21 46  1  0
 22 47  1  0
 24 48  1  0
 25 49  1  0
 27 50  1  0
 30 51  1  0
 31 52  1  0
M  END
>  <smiles>  (84) 
O=C(NCC(=O)N1CCCC1c1ccc(OC(F)(F)F)cc1)c1ccc2cc(F)ccc2n1

>  <score_type>  (84) 
oracle

>  <origin>  (84) 
autodockgpu

>  <m_score__min__energy>  (84) 
-8.4399999999999995

>  <m_primary>  (84) 
energy

>  <rmsd>  (84) 
1.9093705387222337

>  <m_score__min__rmsd>  (84) 
1.9093705387222337

>  <meeko>  (84) 
{"free_energy": -7.21, "intermolecular_energy": -9.3, "internal_energy": -2.14, "cluster_size": 13, "cluster_id": 2, "rank_in_cluster": 13}

>  <energy>  (84) 
-7.14

>  <cluster_rmsd>  (84) 
1.99

>  <cluster>  (84) 
3

$$$$

     RDKit          3D

 52 55  0  0  0  0  0  0  0  0999 V2000
  139.7270   73.6110  222.5400 O   0  0  0  0  0  0  0  0  0  0  0  0
  139.8000   72.3490  222.3400 C   0  0  0  0  0  0  0  0  0  0  0  0
  139.7890   71.8050  221.0270 N   0  0  0  0  0  0  0  0  0  0  0  0
  139.6950   72.7110  219.9210 C   0  0  0  0  0  0  0  0  0  0  0  0
  140.9850   72.8450  219.1980 C   0  0  0  0  0  0  0  0  0  0  0  0
  140.8960   73.1140  217.9550 O   0  0  0  0  0  0  0  0  0  0  0  0
  142.2530   72.6860  219.8430 N   0  0  0  0  0  0  0  0  0  0  0  0
  143.0720   71.5050  219.6330 C   0  0  0  0  0  0  0  0  0  0  0  0
  144.3520   71.8880  220.3380 C   0  0  0  0  0  0  0  0  0  0  0  0
  144.3290   73.3980  220.4590 C   0  0  0  0  0  0  0  0  0  0  0  0
  142.8570   73.6180  220.7360 C   0  0  1  0  0  0  0  0  0  0  0  0
  142.4370   75.0010  220.6540 C   0  0  0  0  0  0  0  0  0  0  0  0
  141.4570   75.5080  221.5000 C   0  0  0  0  0  0  0  0  0  0  0  0
  141.0350   76.8160  221.4540 C   0  0  0  0  0  0  0  0  0  0  0  0
  141.5810   77.6980  220.5460 C   0  0  0  0  0  0  0  0  0  0  0  0
  141.1780   79.0290  220.4730 O   0  0  0  0  0  0  0  0  0  0  0  0
  141.4900   79.9470  221.5330 C   0  0  0  0  0  0  0  0  0  0  0  0
  140.3940   80.1670  222.3280 F   0  0  0  0  0  0  0  0  0  0  0  0
  142.5600   79.4240  222.2260 F   0  0  0  0  0  0  0  0  0  0  0  0
  141.9120   81.1510  221.0050 F   0  0  0  0  0  0  0  0  0  0  0  0
  142.5570   77.2280  219.6930 C   0  0  0  0  0  0  0  0  0  0  0  0
  142.9760   75.9150  219.7430 C   0  0  0  0  0  0  0  0  0  0  0  0
  139.8960   71.4640  223.5030 C   0  0  0  0  0  0  0  0  0  0  0  0
  139.4830   70.1510  223.4150 C   0  0  0  0  0  0  0  0  0  0  0  0
  139.5560   69.2820  224.4840 C   0  0  0  0  0  0  0  0  0  0  0  0
  140.0610   69.7380  225.6890 C   0  0  0  0  0  0  0  0  0  0  0  0
  140.1470   68.8900  226.7750 C   0  0  0  0  0  0  0  0  0  0  0  0
  140.6550   69.3680  227.9680 C   0  0  0  0  0  0  0  0  0  0  0  0
  140.7280   68.5130  229.0160 F   0  0  0  0  0  0  0  0  0  0  0  0
  141.0650   70.6890  228.0440 C   0  0  0  0  0  0  0  0  0  0  0  0
  140.9900   71.5580  226.9720 C   0  0  0  0  0  0  0  0  0  0  0  0
  140.4760   71.0710  225.7670 C   0  0  0  0  0  0  0  0  0  0  0  0
  140.3800   71.8690  224.6910 N   0  0  0  0  0  0  0  0  0  0  0  0
  139.8500   70.7620  220.8740 H   0  0  0  0  0  0  0  0  0  0  0  0
  138.9329   72.3382  219.2208 H   0  0  0  0  0  0  0  0  0  0  0  0
  139.4235   73.7011  220.3161 H   0  0  0  0  0  0  0  0  0  0  0  0
  142.6148   70.6142  220.0885 H   0  0  0  0  0  0  0  0  0  0  0  0
  143.2085   71.2398  218.5742 H   0  0  0  0  0  0  0  0  0  0  0  0
  144.3917   71.4256  221.3353 H   0  0  0  0  0  0  0  0  0  0  0  0
  145.2361   71.5427  219.7819 H   0  0  0  0  0  0  0  0  0  0  0  0
  144.9577   73.7504  221.2899 H   0  0  0  0  0  0  0  0  0  0  0  0
  144.7215   73.9385  219.5851 H   0  0  0  0  0  0  0  0  0  0  0  0
  142.5472   73.4309  221.7747 H   0  0  0  0  0  0  0  0  0  0  0  0
  140.9992   74.8333  222.2384 H   0  0  0  0  0  0  0  0  0  0  0  0
  140.2547   77.1617  222.1480 H   0  0  0  0  0  0  0  0  0  0  0  0
  143.0093   77.9121  218.9599 H   0  0  0  0  0  0  0  0  0  0  0  0
  143.7569   75.5768  219.0460 H   0  0  0  0  0  0  0  0  0  0  0  0
  139.0814   69.7839  222.4590 H   0  0  0  0  0  0  0  0  0  0  0  0
  139.2173   68.2406  224.3799 H   0  0  0  0  0  0  0  0  0  0  0  0
  139.8146   67.8447  226.6916 H   0  0  0  0  0  0  0  0  0  0  0  0
  141.4671   71.0619  228.9975 H   0  0  0  0  0  0  0  0  0  0  0  0
  141.3248   72.6017  227.0644 H   0  0  0  0  0  0  0  0  0  0  0  0
  1  2  2  0
  2  3  1  0
  3  4  1  0
  4  5  1  0
  5  6  2  0
  5  7  1  0
  7  8  1  0
  8  9  1  0
  9 10  1  0
 10 11  1  0
 11 12  1  0
 12 13  2  0
 13 14  1  0
 14 15  2  0
 15 16  1  0
 16 17  1  0
 17 18  1  0
 17 19  1  0
 17 20  1  0
 15 21  1  0
 21 22  2  0
  2 23  1  0
 23 24  2  0
 24 25  1  0
 25 26  2  0
 26 27  1  0
 27 28  2  0
 28 29  1  0
 28 30  1  0
 30 31  2  0
 31 32  1  0
 32 33  2  0
 11  7  1  0
 22 12  1  0
 33 23  1  0
 32 26  1  0
  3 34  1  0
  4 35  1  0
  4 36  1  0
  8 37  1  0
  8 38  1  0
  9 39  1  0
  9 40  1  0
 10 41  1  0
 10 42  1  0
 11 43  1  1
 13 44  1  0
 14 45  1  0
 21 46  1  0
 22 47  1  0
 24 48  1  0
 25 49  1  0
 27 50  1  0
 30 51  1  0
 31 52  1  0
M  END
>  <smiles>  (85) 
O=C(NCC(=O)N1CCCC1c1ccc(OC(F)(F)F)cc1)c1ccc2cc(F)ccc2n1

>  <score_type>  (85) 
oracle

>  <origin>  (85) 
autodockgpu

>  <m_score__min__energy>  (85) 
-8.4399999999999995

>  <m_primary>  (85) 
energy

>  <rmsd>  (85) 
3.371586336450021

>  <m_score__min__rmsd>  (85) 
3.371586336450021

>  <meeko>  (85) 
{"free_energy": -7.29, "intermolecular_energy": -9.37, "internal_energy": -1.84, "cluster_size": 7, "cluster_id": 4, "rank_in_cluster": 4}

>  <energy>  (85) 
-7.63

>  <cluster_rmsd>  (85) 
0.0

>  <cluster>  (85) 
4

$$$$

     RDKit          3D

 52 55  0  0  0  0  0  0  0  0999 V2000
  140.8150   71.7250  221.1710 O   0  0  0  0  0  0  0  0  0  0  0  0
  140.3320   72.2790  222.2180 C   0  0  0  0  0  0  0  0  0  0  0  0
  139.9520   73.6480  222.2250 N   0  0  0  0  0  0  0  0  0  0  0  0
  140.1240   74.4020  221.0190 C   0  0  0  0  0  0  0  0  0  0  0  0
  140.6470   75.7670  221.2840 C   0  0  0  0  0  0  0  0  0  0  0  0
  140.6580   76.1260  222.5070 O   0  0  0  0  0  0  0  0  0  0  0  0
  141.1130   76.6320  220.2440 N   0  0  0  0  0  0  0  0  0  0  0  0
  140.7000   78.0230  220.1680 C   0  0  0  0  0  0  0  0  0  0  0  0
  141.5860   78.5480  219.0620 C   0  0  0  0  0  0  0  0  0  0  0  0
  142.7360   77.5680  218.9450 C   0  0  0  0  0  0  0  0  0  0  0  0
  142.0000   76.2680  219.1900 C   0  0  1  0  0  0  0  0  0  0  0  0
  142.8650   75.1260  219.4010 C   0  0  0  0  0  0  0  0  0  0  0  0
  144.0630   75.2480  220.0960 C   0  0  0  0  0  0  0  0  0  0  0  0
  144.9080   74.1860  220.3190 C   0  0  0  0  0  0  0  0  0  0  0  0
  144.5930   72.9280  219.8520 C   0  0  0  0  0  0  0  0  0  0  0  0
  145.4250   71.8320  220.0610 O   0  0  0  0  0  0  0  0  0  0  0  0
  145.5250   70.7920  219.0740 C   0  0  0  0  0  0  0  0  0  0  0  0
  145.5530   71.3190  217.8080 F   0  0  0  0  0  0  0  0  0  0  0  0
  146.6470   70.0500  219.3730 F   0  0  0  0  0  0  0  0  0  0  0  0
  144.4460   69.9350  219.1810 F   0  0  0  0  0  0  0  0  0  0  0  0
  143.4110   72.7720  219.1590 C   0  0  0  0  0  0  0  0  0  0  0  0
  142.5680   73.8410  218.9380 C   0  0  0  0  0  0  0  0  0  0  0  0
  140.1750   71.4650  223.4270 C   0  0  0  0  0  0  0  0  0  0  0  0
  139.5480   70.2390  223.3640 C   0  0  0  0  0  0  0  0  0  0  0  0
  139.3800   69.4400  224.4750 C   0  0  0  0  0  0  0  0  0  0  0  0
  139.8560   69.8790  225.6980 C   0  0  0  0  0  0  0  0  0  0  0  0
  139.7030   69.0990  226.8280 C   0  0  0  0  0  0  0  0  0  0  0  0
  140.1880   69.5580  228.0380 C   0  0  0  0  0  0  0  0  0  0  0  0
  140.0240   68.7710  229.1280 F   0  0  0  0  0  0  0  0  0  0  0  0
  140.8150   70.7910  228.0880 C   0  0  0  0  0  0  0  0  0  0  0  0
  140.9820   71.5910  226.9730 C   0  0  0  0  0  0  0  0  0  0  0  0
  140.4910   71.1230  225.7510 C   0  0  0  0  0  0  0  0  0  0  0  0
  140.6240   71.8560  224.6320 N   0  0  0  0  0  0  0  0  0  0  0  0
  139.5550   74.0940  223.0950 H   0  0  0  0  0  0  0  0  0  0  0  0
  140.8327   73.8709  220.3665 H   0  0  0  0  0  0  0  0  0  0  0  0
  139.1394   74.5034  220.5392 H   0  0  0  0  0  0  0  0  0  0  0  0
  139.6356   78.1111  219.9046 H   0  0  0  0  0  0  0  0  0  0  0  0
  140.8002   78.5702  221.1170 H   0  0  0  0  0  0  0  0  0  0  0  0
  141.0275   78.5961  218.1156 H   0  0  0  0  0  0  0  0  0  0  0  0
  141.9445   79.5644  219.2820 H   0  0  0  0  0  0  0  0  0  0  0  0
  143.1952   77.5950  217.9458 H   0  0  0  0  0  0  0  0  0  0  0  0
  143.5783   77.7589  219.6263 H   0  0  0  0  0  0  0  0  0  0  0  0
  141.4474   75.8777  218.3226 H   0  0  0  0  0  0  0  0  0  0  0  0
  144.3474   76.2371  220.4844 H   0  0  0  0  0  0  0  0  0  0  0  0
  145.8441   74.3420  220.8753 H   0  0  0  0  0  0  0  0  0  0  0  0
  143.1359   71.7782  218.7760 H   0  0  0  0  0  0  0  0  0  0  0  0
  141.6339   73.6774  218.3806 H   0  0  0  0  0  0  0  0  0  0  0  0
  139.1686   69.8859  222.3938 H   0  0  0  0  0  0  0  0  0  0  0  0
  138.8744   68.4667  224.3904 H   0  0  0  0  0  0  0  0  0  0  0  0
  139.2003   68.1226  226.7653 H   0  0  0  0  0  0  0  0  0  0  0  0
  141.1964   71.1493  229.0555 H   0  0  0  0  0  0  0  0  0  0  0  0
  141.4859   72.5661  227.0454 H   0  0  0  0  0  0  0  0  0  0  0  0
  1  2  2  0
  2  3  1  0
  3  4  1  0
  4  5  1  0
  5  6  2  0
  5  7  1  0
  7  8  1  0
  8  9  1  0
  9 10  1  0
 10 11  1  0
 11 12  1  0
 12 13  2  0
 13 14  1  0
 14 15  2  0
 15 16  1  0
 16 17  1  0
 17 18  1  0
 17 19  1  0
 17 20  1  0
 15 21  1  0
 21 22  2  0
  2 23  1  0
 23 24  2  0
 24 25  1  0
 25 26  2  0
 26 27  1  0
 27 28  2  0
 28 29  1  0
 28 30  1  0
 30 31  2  0
 31 32  1  0
 32 33  2  0
 11  7  1  0
 22 12  1  0
 33 23  1  0
 32 26  1  0
  3 34  1  0
  4 35  1  0
  4 36  1  0
  8 37  1  0
  8 38  1  0
  9 39  1  0
  9 40  1  0
 10 41  1  0
 10 42  1  0
 11 43  1  6
 13 44  1  0
 14 45  1  0
 21 46  1  0
 22 47  1  0
 24 48  1  0
 25 49  1  0
 27 50  1  0
 30 51  1  0
 31 52  1  0
M  END
>  <smiles>  (86) 
O=C(NCC(=O)N1CCCC1c1ccc(OC(F)(F)F)cc1)c1ccc2cc(F)ccc2n1

>  <score_type>  (86) 
oracle

>  <origin>  (86) 
autodockgpu

>  <m_score__min__energy>  (86) 
-8.4399999999999995

>  <m_primary>  (86) 
energy

>  <rmsd>  (86) 
2.105275498738629

>  <m_score__min__rmsd>  (86) 
2.105275498738629

>  <meeko>  (86) 
{"free_energy": -7.66, "intermolecular_energy": -9.75, "internal_energy": -2.04, "cluster_size": 13, "cluster_id": 2, "rank_in_cluster": 6}

>  <energy>  (86) 
-7.62

>  <cluster_rmsd>  (86) 
1.06

>  <cluster>  (86) 
4

$$$$

     RDKit          3D

 52 55  0  0  0  0  0  0  0  0999 V2000
  140.6530   72.3230  222.0200 O   0  0  0  0  0  0  0  0  0  0  0  0
  139.6560   72.1120  222.7940 C   0  0  0  0  0  0  0  0  0  0  0  0
  138.4130   72.7740  222.5990 N   0  0  0  0  0  0  0  0  0  0  0  0
  138.3000   73.6900  221.5040 C   0  0  0  0  0  0  0  0  0  0  0  0
  138.4490   75.1020  221.9400 C   0  0  0  0  0  0  0  0  0  0  0  0
  139.4470   75.3440  222.6950 O   0  0  0  0  0  0  0  0  0  0  0  0
  137.5380   76.1330  221.5460 N   0  0  0  0  0  0  0  0  0  0  0  0
  136.1310   75.8590  221.3130 C   0  0  0  0  0  0  0  0  0  0  0  0
  135.5720   77.2510  221.1280 C   0  0  0  0  0  0  0  0  0  0  0  0
  136.5860   78.1950  221.7420 C   0  0  0  0  0  0  0  0  0  0  0  0
  137.8690   77.5030  221.3360 C   0  0  1  0  0  0  0  0  0  0  0  0
  139.0540   78.0190  221.9900 C   0  0  0  0  0  0  0  0  0  0  0  0
  140.3230   77.7840  221.4720 C   0  0  0  0  0  0  0  0  0  0  0  0
  141.4700   78.2600  222.0620 C   0  0  0  0  0  0  0  0  0  0  0  0
  141.4060   79.0070  223.2180 C   0  0  0  0  0  0  0  0  0  0  0  0
  142.5470   79.5050  223.8420 O   0  0  0  0  0  0  0  0  0  0  0  0
  142.9560   80.8680  223.6390 C   0  0  0  0  0  0  0  0  0  0  0  0
  142.3790   81.6950  224.5670 F   0  0  0  0  0  0  0  0  0  0  0  0
  144.3330   80.8920  223.6800 F   0  0  0  0  0  0  0  0  0  0  0  0
  142.5920   81.2860  222.3740 F   0  0  0  0  0  0  0  0  0  0  0  0
  140.1620   79.2600  223.7580 C   0  0  0  0  0  0  0  0  0  0  0  0
  139.0160   78.7790  223.1620 C   0  0  0  0  0  0  0  0  0  0  0  0
  139.8210   71.1660  223.9000 C   0  0  0  0  0  0  0  0  0  0  0  0
  139.4440   69.8480  223.7510 C   0  0  0  0  0  0  0  0  0  0  0  0
  139.5830   68.9230  224.7650 C   0  0  0  0  0  0  0  0  0  0  0  0
  140.1180   69.3250  225.9750 C   0  0  0  0  0  0  0  0  0  0  0  0
  140.2690   68.4200  227.0070 C   0  0  0  0  0  0  0  0  0  0  0  0
  140.8080   68.8460  228.2070 C   0  0  0  0  0  0  0  0  0  0  0  0
  140.9450   67.9360  229.2010 F   0  0  0  0  0  0  0  0  0  0  0  0
  141.1820   70.1720  228.3450 C   0  0  0  0  0  0  0  0  0  0  0  0
  141.0420   71.0980  227.3280 C   0  0  0  0  0  0  0  0  0  0  0  0
  140.4980   70.6640  226.1160 C   0  0  0  0  0  0  0  0  0  0  0  0
  140.3370   71.5180  225.0910 N   0  0  0  0  0  0  0  0  0  0  0  0
  137.5980   72.5920  223.2450 H   0  0  0  0  0  0  0  0  0  0  0  0
  139.0846   73.4613  220.7677 H   0  0  0  0  0  0  0  0  0  0  0  0
  137.2972   73.5741  221.0671 H   0  0  0  0  0  0  0  0  0  0  0  0
  135.9862   75.2460  220.4112 H   0  0  0  0  0  0  0  0  0  0  0  0
  135.6484   75.2886  222.1203 H   0  0  0  0  0  0  0  0  0  0  0  0
  135.4434   77.4719  220.0581 H   0  0  0  0  0  0  0  0  0  0  0  0
  134.5858   77.3550  221.6040 H   0  0  0  0  0  0  0  0  0  0  0  0
  136.5143   79.2057  221.3139 H   0  0  0  0  0  0  0  0  0  0  0  0
  136.4705   78.3593  222.8235 H   0  0  0  0  0  0  0  0  0  0  0  0
  138.1831   77.6802  220.2968 H   0  0  0  0  0  0  0  0  0  0  0  0
  140.4130   77.1913  220.5497 H   0  0  0  0  0  0  0  0  0  0  0  0
  142.4476   78.0425  221.6070 H   0  0  0  0  0  0  0  0  0  0  0  0
  140.0833   79.8555  224.6795 H   0  0  0  0  0  0  0  0  0  0  0  0
  138.0420   79.0001  223.6229 H   0  0  0  0  0  0  0  0  0  0  0  0
  139.0177   69.5230  222.7905 H   0  0  0  0  0  0  0  0  0  0  0  0
  139.2721   67.8789  224.6129 H   0  0  0  0  0  0  0  0  0  0  0  0
  139.9638   67.3714  226.8759 H   0  0  0  0  0  0  0  0  0  0  0  0
  141.6083   70.5024  229.3037 H   0  0  0  0  0  0  0  0  0  0  0  0
  141.3495   72.1448  227.4685 H   0  0  0  0  0  0  0  0  0  0  0  0
  1  2  2  0
  2  3  1  0
  3  4  1  0
  4  5  1  0
  5  6  2  0
  5  7  1  0
  7  8  1  0
  8  9  1  0
  9 10  1  0
 10 11  1  0
 11 12  1  0
 12 13  2  0
 13 14  1  0
 14 15  2  0
 15 16  1  0
 16 17  1  0
 17 18  1  0
 17 19  1  0
 17 20  1  0
 15 21  1  0
 21 22  2  0
  2 23  1  0
 23 24  2  0
 24 25  1  0
 25 26  2  0
 26 27  1  0
 27 28  2  0
 28 29  1  0
 28 30  1  0
 30 31  2  0
 31 32  1  0
 32 33  2  0
 11  7  1  0
 22 12  1  0
 33 23  1  0
 32 26  1  0
  3 34  1  0
  4 35  1  0
  4 36  1  0
  8 37  1  0
  8 38  1  0
  9 39  1  0
  9 40  1  0
 10 41  1  0
 10 42  1  0
 11 43  1  6
 13 44  1  0
 14 45  1  0
 21 46  1  0
 22 47  1  0
 24 48  1  0
 25 49  1  0
 27 50  1  0
 30 51  1  0
 31 52  1  0
M  END
>  <smiles>  (87) 
O=C(NCC(=O)N1CCCC1c1ccc(OC(F)(F)F)cc1)c1ccc2cc(F)ccc2n1

>  <score_type>  (87) 
oracle

>  <origin>  (87) 
autodockgpu

>  <m_score__min__energy>  (87) 
-8.4399999999999995

>  <m_primary>  (87) 
energy

>  <rmsd>  (87) 
2.8230647297278995

>  <m_score__min__rmsd>  (87) 
2.8230647297278995

>  <meeko>  (87) 
{"free_energy": -7.78, "intermolecular_energy": -9.87, "internal_energy": -1.27, "cluster_size": 8, "cluster_id": 3, "rank_in_cluster": 1}

>  <energy>  (87) 
-7.32

>  <cluster_rmsd>  (87) 
1.91

>  <cluster>  (87) 
4

$$$$

     RDKit          3D

 52 55  0  0  0  0  0  0  0  0999 V2000
  141.1960   71.9100  221.3610 O   0  0  0  0  0  0  0  0  0  0  0  0
  140.4950   72.3620  222.3310 C   0  0  0  0  0  0  0  0  0  0  0  0
  139.9110   73.6580  222.2850 N   0  0  0  0  0  0  0  0  0  0  0  0
  140.1290   74.4540  221.1140 C   0  0  0  0  0  0  0  0  0  0  0  0
  140.6350   75.8090  221.4470 C   0  0  0  0  0  0  0  0  0  0  0  0
  140.3070   76.2540  222.5960 O   0  0  0  0  0  0  0  0  0  0  0  0
  141.4420   76.5770  220.5480 N   0  0  0  0  0  0  0  0  0  0  0  0
  141.9130   76.0260  219.2890 C   0  0  0  0  0  0  0  0  0  0  0  0
  142.5230   77.2420  218.6300 C   0  0  0  0  0  0  0  0  0  0  0  0
  141.9270   78.4440  219.3330 C   0  0  0  0  0  0  0  0  0  0  0  0
  141.8730   77.9200  220.7520 C   0  0  1  0  0  0  0  0  0  0  0  0
  141.1050   78.7440  221.6620 C   0  0  0  0  0  0  0  0  0  0  0  0
  141.5670   79.0270  222.9420 C   0  0  0  0  0  0  0  0  0  0  0  0
  140.8680   79.8090  223.8320 C   0  0  0  0  0  0  0  0  0  0  0  0
  139.6520   80.3560  223.4810 C   0  0  0  0  0  0  0  0  0  0  0  0
  138.9180   81.1510  224.3570 O   0  0  0  0  0  0  0  0  0  0  0  0
  137.4860   81.0450  224.4150 C   0  0  0  0  0  0  0  0  0  0  0  0
  137.0760   79.7740  224.1040 F   0  0  0  0  0  0  0  0  0  0  0  0
  137.0980   81.4410  225.6770 F   0  0  0  0  0  0  0  0  0  0  0  0
  136.9110   81.9340  223.5280 F   0  0  0  0  0  0  0  0  0  0  0  0
  139.1650   80.0950  222.2170 C   0  0  0  0  0  0  0  0  0  0  0  0
  139.8700   79.3100  221.3300 C   0  0  0  0  0  0  0  0  0  0  0  0
  140.3010   71.5090  223.5070 C   0  0  0  0  0  0  0  0  0  0  0  0
  139.6650   70.2910  223.3870 C   0  0  0  0  0  0  0  0  0  0  0  0
  139.4630   69.4570  224.4660 C   0  0  0  0  0  0  0  0  0  0  0  0
  139.9120   69.8490  225.7150 C   0  0  0  0  0  0  0  0  0  0  0  0
  139.7240   69.0330  226.8120 C   0  0  0  0  0  0  0  0  0  0  0  0
  140.1810   69.4460  228.0500 C   0  0  0  0  0  0  0  0  0  0  0  0
  139.9830   68.6240  229.1070 F   0  0  0  0  0  0  0  0  0  0  0  0
  140.8170   70.6720  228.1570 C   0  0  0  0  0  0  0  0  0  0  0  0
  141.0180   71.5070  227.0750 C   0  0  0  0  0  0  0  0  0  0  0  0
  140.5550   71.0860  225.8250 C   0  0  0  0  0  0  0  0  0  0  0  0
  140.7220   71.8550  224.7360 N   0  0  0  0  0  0  0  0  0  0  0  0
  139.3350   74.0190  223.0920 H   0  0  0  0  0  0  0  0  0  0  0  0
  140.8657   73.9478  220.4730 H   0  0  0  0  0  0  0  0  0  0  0  0
  139.1643   74.5696  220.5982 H   0  0  0  0  0  0  0  0  0  0  0  0
  142.6643   75.2392  219.4519 H   0  0  0  0  0  0  0  0  0  0  0  0
  141.1261   75.5424  218.6915 H   0  0  0  0  0  0  0  0  0  0  0  0
  143.6164   77.2330  218.7498 H   0  0  0  0  0  0  0  0  0  0  0  0
  142.3122   77.2624  217.5506 H   0  0  0  0  0  0  0  0  0  0  0  0
  142.5753   79.3287  219.2491 H   0  0  0  0  0  0  0  0  0  0  0  0
  140.9627   78.7856  218.9287 H   0  0  0  0  0  0  0  0  0  0  0  0
  142.8293   77.9526  221.2945 H   0  0  0  0  0  0  0  0  0  0  0  0
  142.5338   78.6073  223.2570 H   0  0  0  0  0  0  0  0  0  0  0  0
  141.2829   79.9997  224.8328 H   0  0  0  0  0  0  0  0  0  0  0  0
  138.1977   80.5205  221.9117 H   0  0  0  0  0  0  0  0  0  0  0  0
  139.4486   79.1232  220.3312 H   0  0  0  0  0  0  0  0  0  0  0  0
  139.3067   69.9742  222.3964 H   0  0  0  0  0  0  0  0  0  0  0  0
  138.9513   68.4920  224.3358 H   0  0  0  0  0  0  0  0  0  0  0  0
  139.2156   68.0637  226.7026 H   0  0  0  0  0  0  0  0  0  0  0  0
  141.1771   70.9942  229.1452 H   0  0  0  0  0  0  0  0  0  0  0  0
  141.5274   72.4747  227.1936 H   0  0  0  0  0  0  0  0  0  0  0  0
  1  2  2  0
  2  3  1  0
  3  4  1  0
  4  5  1  0
  5  6  2  0
  5  7  1  0
  7  8  1  0
  8  9  1  0
  9 10  1  0
 10 11  1  0
 11 12  1  0
 12 13  2  0
 13 14  1  0
 14 15  2  0
 15 16  1  0
 16 17  1  0
 17 18  1  0
 17 19  1  0
 17 20  1  0
 15 21  1  0
 21 22  2  0
  2 23  1  0
 23 24  2  0
 24 25  1  0
 25 26  2  0
 26 27  1  0
 27 28  2  0
 28 29  1  0
 28 30  1  0
 30 31  2  0
 31 32  1  0
 32 33  2  0
 11  7  1  0
 22 12  1  0
 33 23  1  0
 32 26  1  0
  3 34  1  0
  4 35  1  0
  4 36  1  0
  8 37  1  0
  8 38  1  0
  9 39  1  0
  9 40  1  0
 10 41  1  0
 10 42  1  0
 11 43  1  1
 13 44  1  0
 14 45  1  0
 21 46  1  0
 22 47  1  0
 24 48  1  0
 25 49  1  0
 27 50  1  0
 30 51  1  0
 31 52  1  0
M  END
>  <smiles>  (88) 
O=C(NCC(=O)N1CCCC1c1ccc(OC(F)(F)F)cc1)c1ccc2cc(F)ccc2n1

>  <score_type>  (88) 
oracle

>  <origin>  (88) 
autodockgpu

>  <m_score__min__energy>  (88) 
-8.4399999999999995

>  <m_primary>  (88) 
energy

>  <rmsd>  (88) 
1.9200277541383317

>  <m_score__min__rmsd>  (88) 
1.9200277541383317

>  <meeko>  (88) 
{"free_energy": -8.32, "intermolecular_energy": -10.41, "internal_energy": -1.58, "cluster_size": 13, "cluster_id": 1, "rank_in_cluster": 2}

>  <energy>  (88) 
-7.29

>  <cluster_rmsd>  (88) 
1.1

>  <cluster>  (88) 
4

$$$$

     RDKit          3D

 52 55  0  0  0  0  0  0  0  0999 V2000
  141.5070   78.3140  218.3980 O   0  0  0  0  0  0  0  0  0  0  0  0
  142.1340   77.7780  219.3760 C   0  0  0  0  0  0  0  0  0  0  0  0
  142.1900   78.4000  220.6530 N   0  0  0  0  0  0  0  0  0  0  0  0
  141.5210   79.6550  220.8220 C   0  0  0  0  0  0  0  0  0  0  0  0
  141.3200   79.9910  222.2550 C   0  0  0  0  0  0  0  0  0  0  0  0
  142.3630   80.3630  222.8860 O   0  0  0  0  0  0  0  0  0  0  0  0
  140.0430   79.9080  222.8970 N   0  0  0  0  0  0  0  0  0  0  0  0
  139.3310   81.0970  223.3330 C   0  0  0  0  0  0  0  0  0  0  0  0
  137.9960   80.5220  223.7470 C   0  0  0  0  0  0  0  0  0  0  0  0
  137.8930   79.1700  223.0690 C   0  0  0  0  0  0  0  0  0  0  0  0
  139.3300   78.7080  223.1840 C   0  0  1  0  0  0  0  0  0  0  0  0
  139.6400   77.5340  222.3950 C   0  0  0  0  0  0  0  0  0  0  0  0
  140.7340   76.7300  222.6990 C   0  0  0  0  0  0  0  0  0  0  0  0
  141.0570   75.6060  221.9770 C   0  0  0  0  0  0  0  0  0  0  0  0
  140.2920   75.2210  220.8960 C   0  0  0  0  0  0  0  0  0  0  0  0
  140.5910   74.0890  220.1430 O   0  0  0  0  0  0  0  0  0  0  0  0
  141.0190   72.8760  220.7850 C   0  0  0  0  0  0  0  0  0  0  0  0
  140.9140   71.8080  219.9310 F   0  0  0  0  0  0  0  0  0  0  0  0
  142.3060   73.0820  221.2330 F   0  0  0  0  0  0  0  0  0  0  0  0
  140.2450   72.6360  221.9030 F   0  0  0  0  0  0  0  0  0  0  0  0
  139.2000   75.9960  220.5690 C   0  0  0  0  0  0  0  0  0  0  0  0
  138.8800   77.1220  221.2970 C   0  0  0  0  0  0  0  0  0  0  0  0
  142.8020   76.4930  219.1530 C   0  0  0  0  0  0  0  0  0  0  0  0
  142.5960   75.7950  217.9810 C   0  0  0  0  0  0  0  0  0  0  0  0
  143.2050   74.5840  217.7290 C   0  0  0  0  0  0  0  0  0  0  0  0
  144.0540   74.0450  218.6800 C   0  0  0  0  0  0  0  0  0  0  0  0
  144.6790   72.8350  218.4530 C   0  0  0  0  0  0  0  0  0  0  0  0
  145.5230   72.3180  219.4180 C   0  0  0  0  0  0  0  0  0  0  0  0
  146.1220   71.1290  219.1670 F   0  0  0  0  0  0  0  0  0  0  0  0
  145.7220   73.0280  220.5900 C   0  0  0  0  0  0  0  0  0  0  0  0
  145.1100   74.2420  220.8410 C   0  0  0  0  0  0  0  0  0  0  0  0
  144.2570   74.7620  219.8640 C   0  0  0  0  0  0  0  0  0  0  0  0
  143.6340   75.9370  220.0520 N   0  0  0  0  0  0  0  0  0  0  0  0
  142.7110   77.9470  221.4510 H   0  0  0  0  0  0  0  0  0  0  0  0
  142.1257   80.4455  220.3535 H   0  0  0  0  0  0  0  0  0  0  0  0
  140.5307   79.5780  220.3494 H   0  0  0  0  0  0  0  0  0  0  0  0
  139.8393   81.5803  224.1804 H   0  0  0  0  0  0  0  0  0  0  0  0
  139.2599   81.8810  222.5647 H   0  0  0  0  0  0  0  0  0  0  0  0
  137.9528   80.4054  224.8399 H   0  0  0  0  0  0  0  0  0  0  0  0
  137.1659   81.1823  223.4556 H   0  0  0  0  0  0  0  0  0  0  0  0
  137.2042   78.4977  223.6015 H   0  0  0  0  0  0  0  0  0  0  0  0
  137.4950   79.1950  222.0438 H   0  0  0  0  0  0  0  0  0  0  0  0
  139.6111   78.3052  224.1682 H   0  0  0  0  0  0  0  0  0  0  0  0
  141.3681   77.0059  223.5545 H   0  0  0  0  0  0  0  0  0  0  0  0
  141.9342   75.0077  222.2642 H   0  0  0  0  0  0  0  0  0  0  0  0
  138.5726   75.7108  219.7117 H   0  0  0  0  0  0  0  0  0  0  0  0
  138.0001   77.7140  221.0049 H   0  0  0  0  0  0  0  0  0  0  0  0
  141.9228   76.2192  217.2215 H   0  0  0  0  0  0  0  0  0  0  0  0
  143.0185   74.0528  216.7840 H   0  0  0  0  0  0  0  0  0  0  0  0
  144.5071   72.2882  217.5142 H   0  0  0  0  0  0  0  0  0  0  0  0
  146.3947   72.6089  221.3527 H   0  0  0  0  0  0  0  0  0  0  0  0
  145.2893   74.7826  221.7821 H   0  0  0  0  0  0  0  0  0  0  0  0
  1  2  2  0
  2  3  1  0
  3  4  1  0
  4  5  1  0
  5  6  2  0
  5  7  1  0
  7  8  1  0
  8  9  1  0
  9 10  1  0
 10 11  1  0
 11 12  1  0
 12 13  2  0
 13 14  1  0
 14 15  2  0
 15 16  1  0
 16 17  1  0
 17 18  1  0
 17 19  1  0
 17 20  1  0
 15 21  1  0
 21 22  2  0
  2 23  1  0
 23 24  2  0
 24 25  1  0
 25 26  2  0
 26 27  1  0
 27 28  2  0
 28 29  1  0
 28 30  1  0
 30 31  2  0
 31 32  1  0
 32 33  2  0
 11  7  1  0
 22 12  1  0
 33 23  1  0
 32 26  1  0
  3 34  1  0
  4 35  1  0
  4 36  1  0
  8 37  1  0
  8 38  1  0
  9 39  1  0
  9 40  1  0
 10 41  1  0
 10 42  1  0
 11 43  1  1
 13 44  1  0
 14 45  1  0
 21 46  1  0
 22 47  1  0
 24 48  1  0
 25 49  1  0
 27 50  1  0
 30 51  1  0
 31 52  1  0
M  END
>  <smiles>  (89) 
O=C(NCC(=O)N1CCCC1c1ccc(OC(F)(F)F)cc1)c1ccc2cc(F)ccc2n1

>  <score_type>  (89) 
oracle

>  <origin>  (89) 
autodockgpu

>  <m_score__min__energy>  (89) 
-8.4399999999999995

>  <m_primary>  (89) 
energy

>  <rmsd>  (89) 
8.053822417003357

>  <m_score__min__rmsd>  (89) 
8.053822417003357

>  <meeko>  (89) 
{"free_energy": -5.88, "intermolecular_energy": -7.97, "internal_energy": -3.12, "cluster_size": 5, "cluster_id": 7, "rank_in_cluster": 5}

>  <energy>  (89) 
-7.25

>  <cluster_rmsd>  (89) 
1.98

>  <cluster>  (89) 
4

$$$$

     RDKit          3D

 52 55  0  0  0  0  0  0  0  0999 V2000
  137.9690   70.7900  221.9410 O   0  0  0  0  0  0  0  0  0  0  0  0
  138.7150   71.3100  222.8410 C   0  0  0  0  0  0  0  0  0  0  0  0
  139.1830   72.6480  222.7360 N   0  0  0  0  0  0  0  0  0  0  0  0
  138.7950   73.4100  221.5870 C   0  0  0  0  0  0  0  0  0  0  0  0
  139.8430   74.3810  221.1820 C   0  0  0  0  0  0  0  0  0  0  0  0
  140.7370   74.6260  222.0570 O   0  0  0  0  0  0  0  0  0  0  0  0
  139.8600   75.0090  219.8960 N   0  0  0  0  0  0  0  0  0  0  0  0
  139.2330   74.3930  218.7390 C   0  0  0  0  0  0  0  0  0  0  0  0
  139.3380   75.4940  217.7090 C   0  0  0  0  0  0  0  0  0  0  0  0
  139.5620   76.7760  218.4860 C   0  0  0  0  0  0  0  0  0  0  0  0
  140.4660   76.2610  219.5860 C   0  0  1  0  0  0  0  0  0  0  0  0
  140.6720   77.1980  220.6720 C   0  0  0  0  0  0  0  0  0  0  0  0
  141.8480   77.9310  220.7780 C   0  0  0  0  0  0  0  0  0  0  0  0
  142.0770   78.8320  221.7910 C   0  0  0  0  0  0  0  0  0  0  0  0
  141.1270   79.0480  222.7670 C   0  0  0  0  0  0  0  0  0  0  0  0
  141.3270   79.9520  223.8060 O   0  0  0  0  0  0  0  0  0  0  0  0
  142.2740   81.0240  223.6720 C   0  0  0  0  0  0  0  0  0  0  0  0
  143.5540   80.5380  223.5900 F   0  0  0  0  0  0  0  0  0  0  0  0
  141.9070   81.7590  222.5660 F   0  0  0  0  0  0  0  0  0  0  0  0
  142.1830   81.8720  224.7580 F   0  0  0  0  0  0  0  0  0  0  0  0
  139.9480   78.3370  222.6910 C   0  0  0  0  0  0  0  0  0  0  0  0
  139.7240   77.4350  221.6720 C   0  0  0  0  0  0  0  0  0  0  0  0
  139.0840   70.4890  223.9980 C   0  0  0  0  0  0  0  0  0  0  0  0
  138.7830   69.1440  224.0220 C   0  0  0  0  0  0  0  0  0  0  0  0
  139.1130   68.3340  225.0880 C   0  0  0  0  0  0  0  0  0  0  0  0
  139.7690   68.8850  226.1740 C   0  0  0  0  0  0  0  0  0  0  0  0
  140.1120   68.0980  227.2560 C   0  0  0  0  0  0  0  0  0  0  0  0
  140.7690   68.6710  228.3290 C   0  0  0  0  0  0  0  0  0  0  0  0
  141.0930   67.8740  229.3750 F   0  0  0  0  0  0  0  0  0  0  0  0
  141.0650   70.0240  228.2930 C   0  0  0  0  0  0  0  0  0  0  0  0
  140.7330   70.8330  227.2230 C   0  0  0  0  0  0  0  0  0  0  0  0
  140.0700   70.2500  226.1400 C   0  0  0  0  0  0  0  0  0  0  0  0
  139.7220   70.9870  225.0710 N   0  0  0  0  0  0  0  0  0  0  0  0
  139.7980   73.0650  223.4850 H   0  0  0  0  0  0  0  0  0  0  0  0
  138.6077   72.7205  220.7506 H   0  0  0  0  0  0  0  0  0  0  0  0
  137.8890   73.9773  221.8464 H   0  0  0  0  0  0  0  0  0  0  0  0
  139.7781   73.4924  218.4199 H   0  0  0  0  0  0  0  0  0  0  0  0
  138.2042   74.0484  218.9200 H   0  0  0  0  0  0  0  0  0  0  0  0
  140.1845   75.3046  217.0326 H   0  0  0  0  0  0  0  0  0  0  0  0
  138.4310   75.5527  217.0894 H   0  0  0  0  0  0  0  0  0  0  0  0
  140.0595   77.5428  217.8740 H   0  0  0  0  0  0  0  0  0  0  0  0
  138.6448   77.2733  218.8344 H   0  0  0  0  0  0  0  0  0  0  0  0
  141.5197   76.1315  219.2981 H   0  0  0  0  0  0  0  0  0  0  0  0
  142.6298   77.7839  220.0183 H   0  0  0  0  0  0  0  0  0  0  0  0
  143.0269   79.3858  221.8232 H   0  0  0  0  0  0  0  0  0  0  0  0
  139.1730   78.4918  223.4561 H   0  0  0  0  0  0  0  0  0  0  0  0
  138.7713   76.8858  221.6452 H   0  0  0  0  0  0  0  0  0  0  0  0
  138.2613   68.7014  223.1606 H   0  0  0  0  0  0  0  0  0  0  0  0
  138.8580   67.2640  225.0749 H   0  0  0  0  0  0  0  0  0  0  0  0
  139.8649   67.0261  227.2639 H   0  0  0  0  0  0  0  0  0  0  0  0
  141.5858   70.4728  229.1517 H   0  0  0  0  0  0  0  0  0  0  0  0
  140.9832   71.9042  227.2238 H   0  0  0  0  0  0  0  0  0  0  0  0
  1  2  2  0
  2  3  1  0
  3  4  1  0
  4  5  1  0
  5  6  2  0
  5  7  1  0
  7  8  1  0
  8  9  1  0
  9 10  1  0
 10 11  1  0
 11 12  1  0
 12 13  2  0
 13 14  1  0
 14 15  2  0
 15 16  1  0
 16 17  1  0
 17 18  1  0
 17 19  1  0
 17 20  1  0
 15 21  1  0
 21 22  2  0
  2 23  1  0
 23 24  2  0
 24 25  1  0
 25 26  2  0
 26 27  1  0
 27 28  2  0
 28 29  1  0
 28 30  1  0
 30 31  2  0
 31 32  1  0
 32 33  2  0
 11  7  1  0
 22 12  1  0
 33 23  1  0
 32 26  1  0
  3 34  1  0
  4 35  1  0
  4 36  1  0
  8 37  1  0
  8 38  1  0
  9 39  1  0
  9 40  1  0
 10 41  1  0
 10 42  1  0
 11 43  1  6
 13 44  1  0
 14 45  1  0
 21 46  1  0
 22 47  1  0
 24 48  1  0
 25 49  1  0
 27 50  1  0
 30 51  1  0
 31 52  1  0
M  END
>  <smiles>  (90) 
O=C(NCC(=O)N1CCCC1c1ccc(OC(F)(F)F)cc1)c1ccc2cc(F)ccc2n1

>  <score_type>  (90) 
oracle

>  <origin>  (90) 
autodockgpu

>  <m_score__min__energy>  (90) 
-8.4399999999999995

>  <m_primary>  (90) 
energy

>  <rmsd>  (90) 
0.976260227654509

>  <m_score__min__rmsd>  (90) 
0.976260227654509

>  <meeko>  (90) 
{"free_energy": -7.54, "intermolecular_energy": -9.63, "internal_energy": -1.88, "cluster_size": 8, "cluster_id": 3, "rank_in_cluster": 2}

>  <energy>  (90) 
-7.08

>  <cluster_rmsd>  (90) 
1.91

>  <cluster>  (90) 
4

$$$$

     RDKit          3D

 52 55  0  0  0  0  0  0  0  0999 V2000
  140.9170   71.7440  221.2080 O   0  0  0  0  0  0  0  0  0  0  0  0
  140.3750   72.2660  222.2420 C   0  0  0  0  0  0  0  0  0  0  0  0
  139.9490   73.6220  222.2530 N   0  0  0  0  0  0  0  0  0  0  0  0
  140.1430   74.3990  221.0650 C   0  0  0  0  0  0  0  0  0  0  0  0
  140.5660   75.7900  221.3720 C   0  0  0  0  0  0  0  0  0  0  0  0
  140.1520   76.2610  222.4810 O   0  0  0  0  0  0  0  0  0  0  0  0
  141.3860   76.5620  220.4880 N   0  0  0  0  0  0  0  0  0  0  0  0
  141.8590   76.0240  219.2240 C   0  0  0  0  0  0  0  0  0  0  0  0
  142.4860   77.2430  218.5860 C   0  0  0  0  0  0  0  0  0  0  0  0
  141.8970   78.4410  219.3030 C   0  0  0  0  0  0  0  0  0  0  0  0
  141.8300   77.8970  220.7140 C   0  0  1  0  0  0  0  0  0  0  0  0
  141.0640   78.7160  221.6310 C   0  0  0  0  0  0  0  0  0  0  0  0
  141.4740   78.9020  222.9460 C   0  0  0  0  0  0  0  0  0  0  0  0
  140.7760   79.6750  223.8430 C   0  0  0  0  0  0  0  0  0  0  0  0
  139.6140   80.3130  223.4650 C   0  0  0  0  0  0  0  0  0  0  0  0
  138.8830   81.1030  224.3480 O   0  0  0  0  0  0  0  0  0  0  0  0
  137.4680   80.9060  224.5050 C   0  0  0  0  0  0  0  0  0  0  0  0
  137.1200   80.8940  225.8320 F   0  0  0  0  0  0  0  0  0  0  0  0
  136.8340   81.9010  223.7930 F   0  0  0  0  0  0  0  0  0  0  0  0
  137.0910   79.7080  223.9300 F   0  0  0  0  0  0  0  0  0  0  0  0
  139.1790   80.1500  222.1670 C   0  0  0  0  0  0  0  0  0  0  0  0
  139.8830   79.3730  221.2710 C   0  0  0  0  0  0  0  0  0  0  0  0
  140.1980   71.4290  223.4320 C   0  0  0  0  0  0  0  0  0  0  0  0
  139.5410   70.2200  223.3420 C   0  0  0  0  0  0  0  0  0  0  0  0
  139.3530   69.4010  224.4360 C   0  0  0  0  0  0  0  0  0  0  0  0
  139.8390   69.8010  225.6680 C   0  0  0  0  0  0  0  0  0  0  0  0
  139.6660   69.0000  226.7800 C   0  0  0  0  0  0  0  0  0  0  0  0
  140.1610   69.4200  228.0000 C   0  0  0  0  0  0  0  0  0  0  0  0
  139.9770   68.6130  229.0720 F   0  0  0  0  0  0  0  0  0  0  0  0
  140.8180   70.6370  228.0780 C   0  0  0  0  0  0  0  0  0  0  0  0
  141.0040   71.4570  226.9810 C   0  0  0  0  0  0  0  0  0  0  0  0
  140.5030   71.0280  225.7480 C   0  0  0  0  0  0  0  0  0  0  0  0
  140.6540   71.7830  224.6470 N   0  0  0  0  0  0  0  0  0  0  0  0
  139.5040   74.0410  223.1130 H   0  0  0  0  0  0  0  0  0  0  0  0
  140.9188   73.9196  220.4499 H   0  0  0  0  0  0  0  0  0  0  0  0
  139.1832   74.4463  220.5297 H   0  0  0  0  0  0  0  0  0  0  0  0
  142.6009   75.2270  219.3802 H   0  0  0  0  0  0  0  0  0  0  0  0
  141.0707   75.5574  218.6149 H   0  0  0  0  0  0  0  0  0  0  0  0
  143.5785   77.2211  218.7127 H   0  0  0  0  0  0  0  0  0  0  0  0
  142.2830   77.2809  217.5056 H   0  0  0  0  0  0  0  0  0  0  0  0
  142.5541   79.3206  219.2355 H   0  0  0  0  0  0  0  0  0  0  0  0
  140.9384   78.7976  218.8982 H   0  0  0  0  0  0  0  0  0  0  0  0
  142.7835   77.9115  221.2622 H   0  0  0  0  0  0  0  0  0  0  0  0
  142.3975   78.4090  223.2836 H   0  0  0  0  0  0  0  0  0  0  0  0
  141.1482   79.7855  224.8722 H   0  0  0  0  0  0  0  0  0  0  0  0
  138.2544   80.6483  221.8403 H   0  0  0  0  0  0  0  0  0  0  0  0
  139.5047   79.2670  220.2436 H   0  0  0  0  0  0  0  0  0  0  0  0
  139.1535   69.8976  222.3643 H   0  0  0  0  0  0  0  0  0  0  0  0
  138.8237   68.4426  224.3302 H   0  0  0  0  0  0  0  0  0  0  0  0
  139.1397   68.0378  226.6953 H   0  0  0  0  0  0  0  0  0  0  0  0
  141.2077   70.9643  229.0532 H   0  0  0  0  0  0  0  0  0  0  0  0
  141.5304   72.4183  227.0751 H   0  0  0  0  0  0  0  0  0  0  0  0
  1  2  2  0
  2  3  1  0
  3  4  1  0
  4  5  1  0
  5  6  2  0
  5  7  1  0
  7  8  1  0
  8  9  1  0
  9 10  1  0
 10 11  1  0
 11 12  1  0
 12 13  2  0
 13 14  1  0
 14 15  2  0
 15 16  1  0
 16 17  1  0
 17 18  1  0
 17 19  1  0
 17 20  1  0
 15 21  1  0
 21 22  2  0
  2 23  1  0
 23 24  2  0
 24 25  1  0
 25 26  2  0
 26 27  1  0
 27 28  2  0
 28 29  1  0
 28 30  1  0
 30 31  2  0
 31 32  1  0
 32 33  2  0
 11  7  1  0
 22 12  1  0
 33 23  1  0
 32 26  1  0
  3 34  1  0
  4 35  1  0
  4 36  1  0
  8 37  1  0
  8 38  1  0
  9 39  1  0
  9 40  1  0
 10 41  1  0
 10 42  1  0
 11 43  1  1
 13 44  1  0
 14 45  1  0
 21 46  1  0
 22 47  1  0
 24 48  1  0
 25 49  1  0
 27 50  1  0
 30 51  1  0
 31 52  1  0
M  END
>  <smiles>  (91) 
O=C(NCC(=O)N1CCCC1c1ccc(OC(F)(F)F)cc1)c1ccc2cc(F)ccc2n1

>  <score_type>  (91) 
oracle

>  <origin>  (91) 
autodockgpu

>  <m_score__min__energy>  (91) 
-8.4399999999999995

>  <m_primary>  (91) 
energy

>  <rmsd>  (91) 
1.8669715647184082

>  <m_score__min__rmsd>  (91) 
1.8669715647184082

>  <meeko>  (91) 
{"free_energy": -8.26, "intermolecular_energy": -10.35, "internal_energy": -1.64, "cluster_size": 13, "cluster_id": 1, "rank_in_cluster": 6}

>  <energy>  (91) 
-7.08

>  <cluster_rmsd>  (91) 
1.97

>  <cluster>  (91) 
4

$$$$

     RDKit          3D

 52 55  0  0  0  0  0  0  0  0999 V2000
  140.6500   71.5620  221.1020 O   0  0  0  0  0  0  0  0  0  0  0  0
  140.2390   72.1290  222.1730 C   0  0  0  0  0  0  0  0  0  0  0  0
  139.9130   73.5120  222.2030 N   0  0  0  0  0  0  0  0  0  0  0  0
  140.0560   74.2650  220.9920 C   0  0  0  0  0  0  0  0  0  0  0  0
  140.7880   75.5390  221.2100 C   0  0  0  0  0  0  0  0  0  0  0  0
  140.7530   75.9990  222.3980 O   0  0  0  0  0  0  0  0  0  0  0  0
  141.4920   76.2150  220.1640 N   0  0  0  0  0  0  0  0  0  0  0  0
  141.5010   77.6650  220.0650 C   0  0  0  0  0  0  0  0  0  0  0  0
  142.5090   77.8930  218.9620 C   0  0  0  0  0  0  0  0  0  0  0  0
  143.3260   76.6190  218.8710 C   0  0  0  0  0  0  0  0  0  0  0  0
  142.2430   75.5930  219.1250 C   0  0  1  0  0  0  0  0  0  0  0  0
  142.7380   74.2530  219.3610 C   0  0  0  0  0  0  0  0  0  0  0  0
  143.7360   74.0070  220.2970 C   0  0  0  0  0  0  0  0  0  0  0  0
  144.2280   72.7490  220.5510 C   0  0  0  0  0  0  0  0  0  0  0  0
  143.7400   71.6540  219.8710 C   0  0  0  0  0  0  0  0  0  0  0  0
  144.2150   70.3660  220.1030 O   0  0  0  0  0  0  0  0  0  0  0  0
  145.1760   69.7700  219.2160 C   0  0  0  0  0  0  0  0  0  0  0  0
  145.5220   68.5140  219.6430 F   0  0  0  0  0  0  0  0  0  0  0  0
  144.6260   69.7760  217.9530 F   0  0  0  0  0  0  0  0  0  0  0  0
  146.3120   70.5540  219.1560 F   0  0  0  0  0  0  0  0  0  0  0  0
  142.7480   71.8620  218.9350 C   0  0  0  0  0  0  0  0  0  0  0  0
  142.2590   73.1260  218.6850 C   0  0  0  0  0  0  0  0  0  0  0  0
  140.1090   71.3160  223.3850 C   0  0  0  0  0  0  0  0  0  0  0  0
  139.5360   70.0630  223.3260 C   0  0  0  0  0  0  0  0  0  0  0  0
  139.3960   69.2640  224.4410 C   0  0  0  0  0  0  0  0  0  0  0  0
  139.8430   69.7300  225.6640 C   0  0  0  0  0  0  0  0  0  0  0  0
  139.7160   68.9510  226.7970 C   0  0  0  0  0  0  0  0  0  0  0  0
  140.1710   69.4370  228.0080 C   0  0  0  0  0  0  0  0  0  0  0  0
  140.0330   68.6510  229.1020 F   0  0  0  0  0  0  0  0  0  0  0  0
  140.7440   70.6980  228.0550 C   0  0  0  0  0  0  0  0  0  0  0  0
  140.8830   71.4970  226.9370 C   0  0  0  0  0  0  0  0  0  0  0  0
  140.4220   71.0020  225.7140 C   0  0  0  0  0  0  0  0  0  0  0  0
  140.5310   71.7340  224.5920 N   0  0  0  0  0  0  0  0  0  0  0  0
  139.5760   73.9690  223.0930 H   0  0  0  0  0  0  0  0  0  0  0  0
  140.6097   73.6584  220.2603 H   0  0  0  0  0  0  0  0  0  0  0  0
  139.0487   74.5113  220.6250 H   0  0  0  0  0  0  0  0  0  0  0  0
  140.5098   78.0538  219.7885 H   0  0  0  0  0  0  0  0  0  0  0  0
  141.7492   78.1745  221.0078 H   0  0  0  0  0  0  0  0  0  0  0  0
  141.9951   78.0861  218.0088 H   0  0  0  0  0  0  0  0  0  0  0  0
  143.1455   78.7651  219.1725 H   0  0  0  0  0  0  0  0  0  0  0  0
  143.7801   76.4955  217.8768 H   0  0  0  0  0  0  0  0  0  0  0  0
  144.1827   76.5681  219.5591 H   0  0  0  0  0  0  0  0  0  0  0  0
  141.6070   75.3664  218.2566 H   0  0  0  0  0  0  0  0  0  0  0  0
  144.1503   74.8568  220.8593 H   0  0  0  0  0  0  0  0  0  0  0  0
  145.0186   72.6149  221.3040 H   0  0  0  0  0  0  0  0  0  0  0  0
  142.3406   71.0047  218.3790 H   0  0  0  0  0  0  0  0  0  0  0  0
  141.4681   73.2524  217.9310 H   0  0  0  0  0  0  0  0  0  0  0  0
  139.1782   69.6880  222.3558 H   0  0  0  0  0  0  0  0  0  0  0  0
  138.9347   68.2688  224.3588 H   0  0  0  0  0  0  0  0  0  0  0  0
  139.2571   67.9532  226.7362 H   0  0  0  0  0  0  0  0  0  0  0  0
  141.1030   71.0783  229.0227 H   0  0  0  0  0  0  0  0  0  0  0  0
  141.3430   72.4937  227.0071 H   0  0  0  0  0  0  0  0  0  0  0  0
  1  2  2  0
  2  3  1  0
  3  4  1  0
  4  5  1  0
  5  6  2  0
  5  7  1  0
  7  8  1  0
  8  9  1  0
  9 10  1  0
 10 11  1  0
 11 12  1  0
 12 13  2  0
 13 14  1  0
 14 15  2  0
 15 16  1  0
 16 17  1  0
 17 18  1  0
 17 19  1  0
 17 20  1  0
 15 21  1  0
 21 22  2  0
  2 23  1  0
 23 24  2  0
 24 25  1  0
 25 26  2  0
 26 27  1  0
 27 28  2  0
 28 29  1  0
 28 30  1  0
 30 31  2  0
 31 32  1  0
 32 33  2  0
 11  7  1  0
 22 12  1  0
 33 23  1  0
 32 26  1  0
  3 34  1  0
  4 35  1  0
  4 36  1  0
  8 37  1  0
  8 38  1  0
  9 39  1  0
  9 40  1  0
 10 41  1  0
 10 42  1  0
 11 43  1  6
 13 44  1  0
 14 45  1  0
 21 46  1  0
 22 47  1  0
 24 48  1  0
 25 49  1  0
 27 50  1  0
 30 51  1  0
 31 52  1  0
M  END
>  <smiles>  (92) 
O=C(NCC(=O)N1CCCC1c1ccc(OC(F)(F)F)cc1)c1ccc2cc(F)ccc2n1

>  <score_type>  (92) 
oracle

>  <origin>  (92) 
autodockgpu

>  <m_score__min__energy>  (92) 
-8.4399999999999995

>  <m_primary>  (92) 
energy

>  <rmsd>  (92) 
2.1919738433179194

>  <m_score__min__rmsd>  (92) 
2.1919738433179194

>  <meeko>  (92) 
{"free_energy": -7.31, "intermolecular_energy": -9.4, "internal_energy": -2.2, "cluster_size": 13, "cluster_id": 2, "rank_in_cluster": 11}

>  <energy>  (92) 
-7.33

>  <cluster_rmsd>  (92) 
0.0

>  <cluster>  (92) 
5

$$$$

     RDKit          3D

 52 55  0  0  0  0  0  0  0  0999 V2000
  140.9110   71.7510  221.1320 O   0  0  0  0  0  0  0  0  0  0  0  0
  140.3740   72.2840  222.1630 C   0  0  0  0  0  0  0  0  0  0  0  0
  139.9260   73.6330  222.1530 N   0  0  0  0  0  0  0  0  0  0  0  0
  140.0910   74.3890  220.9480 C   0  0  0  0  0  0  0  0  0  0  0  0
  140.9240   75.6000  221.1590 C   0  0  0  0  0  0  0  0  0  0  0  0
  141.3940   75.7490  222.3350 O   0  0  0  0  0  0  0  0  0  0  0  0
  141.1910   76.5470  220.1190 N   0  0  0  0  0  0  0  0  0  0  0  0
  140.6310   77.8870  220.1470 C   0  0  0  0  0  0  0  0  0  0  0  0
  141.3430   78.5430  218.9860 C   0  0  0  0  0  0  0  0  0  0  0  0
  142.5710   77.6960  218.7150 C   0  0  0  0  0  0  0  0  0  0  0  0
  142.0010   76.3170  218.9700 C   0  0  1  0  0  0  0  0  0  0  0  0
  142.9970   75.2680  219.0450 C   0  0  0  0  0  0  0  0  0  0  0  0
  143.9100   75.2140  220.0930 C   0  0  0  0  0  0  0  0  0  0  0  0
  144.8660   74.2320  220.2000 C   0  0  0  0  0  0  0  0  0  0  0  0
  144.9600   73.2370  219.2510 C   0  0  0  0  0  0  0  0  0  0  0  0
  145.9150   72.2280  219.3290 O   0  0  0  0  0  0  0  0  0  0  0  0
  145.5620   70.8630  219.0490 C   0  0  0  0  0  0  0  0  0  0  0  0
  146.5910   70.0160  219.3710 F   0  0  0  0  0  0  0  0  0  0  0  0
  144.4030   70.5900  219.7440 F   0  0  0  0  0  0  0  0  0  0  0  0
  145.2610   70.7190  217.7090 F   0  0  0  0  0  0  0  0  0  0  0  0
  144.0690   73.2600  218.1990 C   0  0  0  0  0  0  0  0  0  0  0  0
  143.1120   74.2480  218.0960 C   0  0  0  0  0  0  0  0  0  0  0  0
  140.2280   71.4680  223.3720 C   0  0  0  0  0  0  0  0  0  0  0  0
  139.6050   70.2390  223.3120 C   0  0  0  0  0  0  0  0  0  0  0  0
  139.4470   69.4390  224.4230 C   0  0  0  0  0  0  0  0  0  0  0  0
  139.9280   69.8780  225.6440 C   0  0  0  0  0  0  0  0  0  0  0  0
  139.7840   69.0960  226.7730 C   0  0  0  0  0  0  0  0  0  0  0  0
  140.2740   69.5560  227.9810 C   0  0  0  0  0  0  0  0  0  0  0  0
  140.1190   68.7670  229.0710 F   0  0  0  0  0  0  0  0  0  0  0  0
  140.8970   70.7920  228.0290 C   0  0  0  0  0  0  0  0  0  0  0  0
  141.0540   71.5930  226.9140 C   0  0  0  0  0  0  0  0  0  0  0  0
  140.5580   71.1250  225.6940 C   0  0  0  0  0  0  0  0  0  0  0  0
  140.6820   71.8600  224.5760 N   0  0  0  0  0  0  0  0  0  0  0  0
  139.4850   74.0610  223.0110 H   0  0  0  0  0  0  0  0  0  0  0  0
  140.5754   73.7522  220.1931 H   0  0  0  0  0  0  0  0  0  0  0  0
  139.0953   74.7163  220.6140 H   0  0  0  0  0  0  0  0  0  0  0  0
  139.5422   77.8696  219.9912 H   0  0  0  0  0  0  0  0  0  0  0  0
  140.7686   78.4077  221.1061 H   0  0  0  0  0  0  0  0  0  0  0  0
  140.6906   78.5643  218.1006 H   0  0  0  0  0  0  0  0  0  0  0  0
  141.6147   79.5837  219.2166 H   0  0  0  0  0  0  0  0  0  0  0  0
  142.9229   77.8070  217.6787 H   0  0  0  0  0  0  0  0  0  0  0  0
  143.4530   77.9519  219.3205 H   0  0  0  0  0  0  0  0  0  0  0  0
  141.4073   75.8998  218.1433 H   0  0  0  0  0  0  0  0  0  0  0  0
  143.8651   75.9911  220.8702 H   0  0  0  0  0  0  0  0  0  0  0  0
  145.5627   74.2404  221.0512 H   0  0  0  0  0  0  0  0  0  0  0  0
  144.1223   72.4768  217.4285 H   0  0  0  0  0  0  0  0  0  0  0  0
  142.4189   74.2329  217.2420 H   0  0  0  0  0  0  0  0  0  0  0  0
  139.2209   69.8851  222.3439 H   0  0  0  0  0  0  0  0  0  0  0  0
  138.9449   68.4638  224.3402 H   0  0  0  0  0  0  0  0  0  0  0  0
  139.2848   68.1177  226.7118 H   0  0  0  0  0  0  0  0  0  0  0  0
  141.2828   71.1509  228.9946 H   0  0  0  0  0  0  0  0  0  0  0  0
  141.5545   72.5700  226.9845 H   0  0  0  0  0  0  0  0  0  0  0  0
  1  2  2  0
  2  3  1  0
  3  4  1  0
  4  5  1  0
  5  6  2  0
  5  7  1  0
  7  8  1  0
  8  9  1  0
  9 10  1  0
 10 11  1  0
 11 12  1  0
 12 13  2  0
 13 14  1  0
 14 15  2  0
 15 16  1  0
 16 17  1  0
 17 18  1  0
 17 19  1  0
 17 20  1  0
 15 21  1  0
 21 22  2  0
  2 23  1  0
 23 24  2  0
 24 25  1  0
 25 26  2  0
 26 27  1  0
 27 28  2  0
 28 29  1  0
 28 30  1  0
 30 31  2  0
 31 32  1  0
 32 33  2  0
 11  7  1  0
 22 12  1  0
 33 23  1  0
 32 26  1  0
  3 34  1  0
  4 35  1  0
  4 36  1  0
  8 37  1  0
  8 38  1  0
  9 39  1  0
  9 40  1  0
 10 41  1  0
 10 42  1  0
 11 43  1  6
 13 44  1  0
 14 45  1  0
 21 46  1  0
 22 47  1  0
 24 48  1  0
 25 49  1  0
 27 50  1  0
 30 51  1  0
 31 52  1  0
M  END
>  <smiles>  (93) 
O=C(NCC(=O)N1CCCC1c1ccc(OC(F)(F)F)cc1)c1ccc2cc(F)ccc2n1

>  <score_type>  (93) 
oracle

>  <origin>  (93) 
autodockgpu

>  <m_score__min__energy>  (93) 
-8.4399999999999995

>  <m_primary>  (93) 
energy

>  <rmsd>  (93) 
2.0529600751364034

>  <m_score__min__rmsd>  (93) 
2.0529600751364034

>  <meeko>  (93) 
{"free_energy": -8.05, "intermolecular_energy": -10.14, "internal_energy": -1.73, "cluster_size": 13, "cluster_id": 2, "rank_in_cluster": 2}

>  <energy>  (93) 
-7.32

>  <cluster_rmsd>  (93) 
0.38

>  <cluster>  (93) 
5

$$$$

     RDKit          3D

 52 55  0  0  0  0  0  0  0  0999 V2000
  141.1930   71.9740  221.2470 O   0  0  0  0  0  0  0  0  0  0  0  0
  140.5440   72.4360  222.2480 C   0  0  0  0  0  0  0  0  0  0  0  0
  140.0520   73.7700  222.2620 N   0  0  0  0  0  0  0  0  0  0  0  0
  140.3020   74.5930  221.1160 C   0  0  0  0  0  0  0  0  0  0  0  0
  140.5710   76.0040  221.4920 C   0  0  0  0  0  0  0  0  0  0  0  0
  140.3870   76.2930  222.7200 O   0  0  0  0  0  0  0  0  0  0  0  0
  141.0090   76.9870  220.5480 N   0  0  0  0  0  0  0  0  0  0  0  0
  141.5290   76.6110  219.2440 C   0  0  0  0  0  0  0  0  0  0  0  0
  141.6560   77.9550  218.5640 C   0  0  0  0  0  0  0  0  0  0  0  0
  140.7610   78.9030  219.3370 C   0  0  0  0  0  0  0  0  0  0  0  0
  140.9970   78.3980  220.7450 C   0  0  1  0  0  0  0  0  0  0  0  0
  140.0790   78.9340  221.7290 C   0  0  0  0  0  0  0  0  0  0  0  0
  138.7030   78.7990  221.5800 C   0  0  0  0  0  0  0  0  0  0  0  0
  137.8030   79.2910  222.4950 C   0  0  0  0  0  0  0  0  0  0  0  0
  138.2380   79.9520  223.6240 C   0  0  0  0  0  0  0  0  0  0  0  0
  137.3530   80.4620  224.5700 O   0  0  0  0  0  0  0  0  0  0  0  0
  137.0890   81.8730  224.6380 C   0  0  0  0  0  0  0  0  0  0  0  0
  137.5790   82.4070  225.8020 F   0  0  0  0  0  0  0  0  0  0  0  0
  137.6360   82.4470  223.5110 F   0  0  0  0  0  0  0  0  0  0  0  0
  135.7280   82.1010  224.5760 F   0  0  0  0  0  0  0  0  0  0  0  0
  139.5970   80.1020  223.8020 C   0  0  0  0  0  0  0  0  0  0  0  0
  140.4960   79.6070  222.8810 C   0  0  0  0  0  0  0  0  0  0  0  0
  140.3140   71.5540  223.3960 C   0  0  0  0  0  0  0  0  0  0  0  0
  139.6850   70.3390  223.2250 C   0  0  0  0  0  0  0  0  0  0  0  0
  139.4500   69.4780  224.2760 C   0  0  0  0  0  0  0  0  0  0  0  0
  139.8570   69.8400  225.5480 C   0  0  0  0  0  0  0  0  0  0  0  0
  139.6350   68.9970  226.6190 C   0  0  0  0  0  0  0  0  0  0  0  0
  140.0510   69.3800  227.8800 C   0  0  0  0  0  0  0  0  0  0  0  0
  139.8200   68.5330  228.9100 F   0  0  0  0  0  0  0  0  0  0  0  0
  140.6800   70.6040  228.0380 C   0  0  0  0  0  0  0  0  0  0  0  0
  140.9140   71.4660  226.9840 C   0  0  0  0  0  0  0  0  0  0  0  0
  140.4930   71.0740  225.7100 C   0  0  0  0  0  0  0  0  0  0  0  0
  140.6940   71.8710  224.6460 N   0  0  0  0  0  0  0  0  0  0  0  0
  139.5190   74.1390  223.0940 H   0  0  0  0  0  0  0  0  0  0  0  0
  141.1754   74.1963  220.5777 H   0  0  0  0  0  0  0  0  0  0  0  0
  139.4026   74.5758  220.4829 H   0  0  0  0  0  0  0  0  0  0  0  0
  142.5054   76.1119  219.3307 H   0  0  0  0  0  0  0  0  0  0  0  0
  140.8953   75.8945  218.7008 H   0  0  0  0  0  0  0  0  0  0  0  0
  142.6991   78.3025  218.5969 H   0  0  0  0  0  0  0  0  0  0  0  0
  141.3631   77.8991  217.5052 H   0  0  0  0  0  0  0  0  0  0  0  0
  141.0778   79.9499  219.2203 H   0  0  0  0  0  0  0  0  0  0  0  0
  139.7084   78.9103  219.0177 H   0  0  0  0  0  0  0  0  0  0  0  0
  141.9325   78.7415  221.2106 H   0  0  0  0  0  0  0  0  0  0  0  0
  138.3184   78.2761  220.6919 H   0  0  0  0  0  0  0  0  0  0  0  0
  136.7247   79.1560  222.3247 H   0  0  0  0  0  0  0  0  0  0  0  0
  139.9706   80.6257  224.6943 H   0  0  0  0  0  0  0  0  0  0  0  0
  141.5728   79.7458  223.0580 H   0  0  0  0  0  0  0  0  0  0  0  0
  139.3596   70.0466  222.2157 H   0  0  0  0  0  0  0  0  0  0  0  0
  138.9454   68.5156  224.1054 H   0  0  0  0  0  0  0  0  0  0  0  0
  139.1320   68.0302  226.4699 H   0  0  0  0  0  0  0  0  0  0  0  0
  141.0069   70.9022  229.0451 H   0  0  0  0  0  0  0  0  0  0  0  0
  141.4164   72.4316  227.1425 H   0  0  0  0  0  0  0  0  0  0  0  0
  1  2  2  0
  2  3  1  0
  3  4  1  0
  4  5  1  0
  5  6  2  0
  5  7  1  0
  7  8  1  0
  8  9  1  0
  9 10  1  0
 10 11  1  0
 11 12  1  0
 12 13  2  0
 13 14  1  0
 14 15  2  0
 15 16  1  0
 16 17  1  0
 17 18  1  0
 17 19  1  0
 17 20  1  0
 15 21  1  0
 21 22  2  0
  2 23  1  0
 23 24  2  0
 24 25  1  0
 25 26  2  0
 26 27  1  0
 27 28  2  0
 28 29  1  0
 28 30  1  0
 30 31  2  0
 31 32  1  0
 32 33  2  0
 11  7  1  0
 22 12  1  0
 33 23  1  0
 32 26  1  0
  3 34  1  0
  4 35  1  0
  4 36  1  0
  8 37  1  0
  8 38  1  0
  9 39  1  0
  9 40  1  0
 10 41  1  0
 10 42  1  0
 11 43  1  1
 13 44  1  0
 14 45  1  0
 21 46  1  0
 22 47  1  0
 24 48  1  0
 25 49  1  0
 27 50  1  0
 30 51  1  0
 31 52  1  0
M  END
>  <smiles>  (94) 
O=C(NCC(=O)N1CCCC1c1ccc(OC(F)(F)F)cc1)c1ccc2cc(F)ccc2n1

>  <score_type>  (94) 
oracle

>  <origin>  (94) 
autodockgpu

>  <m_score__min__energy>  (94) 
-8.4399999999999995

>  <m_primary>  (94) 
energy

>  <rmsd>  (94) 
1.967753235935544

>  <m_score__min__rmsd>  (94) 
1.967753235935544

>  <meeko>  (94) 
{"free_energy": -7.35, "intermolecular_energy": -9.44, "internal_energy": -1.78, "cluster_size": 13, "cluster_id": 1, "rank_in_cluster": 13}

>  <energy>  (94) 
-7.08

>  <cluster_rmsd>  (94) 
0.0

>  <cluster>  (94) 
6

$$$$

     RDKit          3D

 52 55  0  0  0  0  0  0  0  0999 V2000
  137.9050   70.2900  221.9520 O   0  0  0  0  0  0  0  0  0  0  0  0
  138.5790   70.8980  222.8530 C   0  0  0  0  0  0  0  0  0  0  0  0
  138.8990   72.2780  222.7360 N   0  0  0  0  0  0  0  0  0  0  0  0
  138.4440   72.9800  221.5730 C   0  0  0  0  0  0  0  0  0  0  0  0
  138.6230   74.4490  221.7020 C   0  0  0  0  0  0  0  0  0  0  0  0
  139.6620   74.8240  222.3390 O   0  0  0  0  0  0  0  0  0  0  0  0
  137.6980   75.3920  221.1520 N   0  0  0  0  0  0  0  0  0  0  0  0
  136.2970   75.0620  220.9600 C   0  0  0  0  0  0  0  0  0  0  0  0
  135.7160   76.3990  220.5620 C   0  0  0  0  0  0  0  0  0  0  0  0
  136.7110   77.4430  221.0270 C   0  0  0  0  0  0  0  0  0  0  0  0
  138.0080   76.7190  220.7350 C   0  0  1  0  0  0  0  0  0  0  0  0
  139.1810   77.3490  221.3060 C   0  0  0  0  0  0  0  0  0  0  0  0
  139.1220   78.0070  222.5290 C   0  0  0  0  0  0  0  0  0  0  0  0
  140.2150   78.6120  223.1040 C   0  0  0  0  0  0  0  0  0  0  0  0
  141.4420   78.5900  222.4760 C   0  0  0  0  0  0  0  0  0  0  0  0
  142.5680   79.1920  223.0290 O   0  0  0  0  0  0  0  0  0  0  0  0
  142.5940   80.6080  223.2760 C   0  0  0  0  0  0  0  0  0  0  0  0
  141.5580   80.9810  224.0930 F   0  0  0  0  0  0  0  0  0  0  0  0
  143.8310   80.9090  223.8030 F   0  0  0  0  0  0  0  0  0  0  0  0
  142.4960   81.2960  222.0820 F   0  0  0  0  0  0  0  0  0  0  0  0
  141.5350   77.9440  221.2610 C   0  0  0  0  0  0  0  0  0  0  0  0
  140.4360   77.3390  220.6890 C   0  0  0  0  0  0  0  0  0  0  0  0
  139.0210   70.1370  224.0240 C   0  0  0  0  0  0  0  0  0  0  0  0
  138.8260   68.7730  224.0820 C   0  0  0  0  0  0  0  0  0  0  0  0
  139.2280   68.0170  225.1630 C   0  0  0  0  0  0  0  0  0  0  0  0
  139.8470   68.6430  226.2300 C   0  0  0  0  0  0  0  0  0  0  0  0
  140.2600   67.9110  227.3260 C   0  0  0  0  0  0  0  0  0  0  0  0
  140.8780   68.5580  228.3790 C   0  0  0  0  0  0  0  0  0  0  0  0
  141.2730   67.8140  229.4390 F   0  0  0  0  0  0  0  0  0  0  0  0
  141.0670   69.9290  228.3090 C   0  0  0  0  0  0  0  0  0  0  0  0
  140.6630   70.6850  227.2250 C   0  0  0  0  0  0  0  0  0  0  0  0
  140.0400   70.0260  226.1620 C   0  0  0  0  0  0  0  0  0  0  0  0
  139.6260   70.7090  225.0800 N   0  0  0  0  0  0  0  0  0  0  0  0
  139.4560   72.7690  223.4860 H   0  0  0  0  0  0  0  0  0  0  0  0
  139.0143   72.6284  220.7006 H   0  0  0  0  0  0  0  0  0  0  0  0
  137.3691   72.7786  221.4544 H   0  0  0  0  0  0  0  0  0  0  0  0
  136.1670   74.3155  220.1626 H   0  0  0  0  0  0  0  0  0  0  0  0
  135.8196   74.6144  221.8442 H   0  0  0  0  0  0  0  0  0  0  0  0
  135.5897   76.4510  219.4705 H   0  0  0  0  0  0  0  0  0  0  0  0
  134.7255   76.5578  221.0133 H   0  0  0  0  0  0  0  0  0  0  0  0
  136.6248   78.3750  220.4491 H   0  0  0  0  0  0  0  0  0  0  0  0
  136.5871   77.7687  222.0703 H   0  0  0  0  0  0  0  0  0  0  0  0
  138.3248   76.7406  219.6818 H   0  0  0  0  0  0  0  0  0  0  0  0
  138.1594   78.0455  223.0599 H   0  0  0  0  0  0  0  0  0  0  0  0
  140.1091   79.1185  224.0747 H   0  0  0  0  0  0  0  0  0  0  0  0
  142.5028   77.9109  220.7392 H   0  0  0  0  0  0  0  0  0  0  0  0
  140.5497   76.8335  219.7187 H   0  0  0  0  0  0  0  0  0  0  0  0
  138.3328   68.2707  223.2368 H   0  0  0  0  0  0  0  0  0  0  0  0
  139.0586   66.9302  225.1766 H   0  0  0  0  0  0  0  0  0  0  0  0
  140.0985   66.8235  227.3603 H   0  0  0  0  0  0  0  0  0  0  0  0
  141.5592   70.4368  229.1515 H   0  0  0  0  0  0  0  0  0  0  0  0
  140.8269   71.7724  227.1998 H   0  0  0  0  0  0  0  0  0  0  0  0
  1  2  2  0
  2  3  1  0
  3  4  1  0
  4  5  1  0
  5  6  2  0
  5  7  1  0
  7  8  1  0
  8  9  1  0
  9 10  1  0
 10 11  1  0
 11 12  1  0
 12 13  2  0
 13 14  1  0
 14 15  2  0
 15 16  1  0
 16 17  1  0
 17 18  1  0
 17 19  1  0
 17 20  1  0
 15 21  1  0
 21 22  2  0
  2 23  1  0
 23 24  2  0
 24 25  1  0
 25 26  2  0
 26 27  1  0
 27 28  2  0
 28 29  1  0
 28 30  1  0
 30 31  2  0
 31 32  1  0
 32 33  2  0
 11  7  1  0
 22 12  1  0
 33 23  1  0
 32 26  1  0
  3 34  1  0
  4 35  1  0
  4 36  1  0
  8 37  1  0
  8 38  1  0
  9 39  1  0
  9 40  1  0
 10 41  1  0
 10 42  1  0
 11 43  1  6
 13 44  1  0
 14 45  1  0
 21 46  1  0
 22 47  1  0
 24 48  1  0
 25 49  1  0
 27 50  1  0
 30 51  1  0
 31 52  1  0
M  END
>  <smiles>  (95) 
O=C(NCC(=O)N1CCCC1c1ccc(OC(F)(F)F)cc1)c1ccc2cc(F)ccc2n1

>  <score_type>  (95) 
oracle

>  <origin>  (95) 
autodockgpu

>  <m_score__min__energy>  (95) 
-8.4399999999999995

>  <m_primary>  (95) 
energy

>  <rmsd>  (95) 
2.5493801537679017

>  <m_score__min__rmsd>  (95) 
2.5493801537679017

>  <meeko>  (95) 
{"free_energy": -7.44, "intermolecular_energy": -9.53, "internal_energy": -1.87, "cluster_size": 8, "cluster_id": 3, "rank_in_cluster": 4}

>  <energy>  (95) 
-6.54

>  <cluster_rmsd>  (95) 
0.0

>  <cluster>  (95) 
7

$$$$

     RDKit          3D

 52 55  0  0  0  0  0  0  0  0999 V2000
  139.8810   73.3780  222.7210 O   0  0  0  0  0  0  0  0  0  0  0  0
  140.2500   72.1610  222.5830 C   0  0  0  0  0  0  0  0  0  0  0  0
  140.7550   71.6740  221.3470 N   0  0  0  0  0  0  0  0  0  0  0  0
  140.8430   72.5880  220.2470 C   0  0  0  0  0  0  0  0  0  0  0  0
  141.7680   73.7150  220.5310 C   0  0  0  0  0  0  0  0  0  0  0  0
  141.2130   74.8190  220.8440 O   0  0  0  0  0  0  0  0  0  0  0  0
  143.1910   73.5820  220.4630 N   0  0  0  0  0  0  0  0  0  0  0  0
  143.8610   72.3500  220.8420 C   0  0  0  0  0  0  0  0  0  0  0  0
  145.2840   72.6280  220.4160 C   0  0  0  0  0  0  0  0  0  0  0  0
  145.2070   73.7620  219.4140 C   0  0  0  0  0  0  0  0  0  0  0  0
  144.1040   74.5900  220.0370 C   0  0  1  0  0  0  0  0  0  0  0  0
  143.5950   75.6430  219.1820 C   0  0  0  0  0  0  0  0  0  0  0  0
  143.0170   76.7890  219.7160 C   0  0  0  0  0  0  0  0  0  0  0  0
  142.5270   77.8100  218.9360 C   0  0  0  0  0  0  0  0  0  0  0  0
  142.5920   77.7360  217.5610 C   0  0  0  0  0  0  0  0  0  0  0  0
  142.1060   78.7520  216.7420 O   0  0  0  0  0  0  0  0  0  0  0  0
  142.0120   80.1010  217.2270 C   0  0  0  0  0  0  0  0  0  0  0  0
  141.8520   80.9840  216.1900 F   0  0  0  0  0  0  0  0  0  0  0  0
  140.9730   80.1400  218.1320 F   0  0  0  0  0  0  0  0  0  0  0  0
  143.1570   80.4310  217.9270 F   0  0  0  0  0  0  0  0  0  0  0  0
  143.1610   76.6130  216.9990 C   0  0  0  0  0  0  0  0  0  0  0  0
  143.6500   75.5920  217.7860 C   0  0  0  0  0  0  0  0  0  0  0  0
  140.1400   71.2660  223.7380 C   0  0  0  0  0  0  0  0  0  0  0  0
  139.5180   70.0410  223.6130 C   0  0  0  0  0  0  0  0  0  0  0  0
  139.3950   69.1670  224.6730 C   0  0  0  0  0  0  0  0  0  0  0  0
  139.9100   69.5250  225.9060 C   0  0  0  0  0  0  0  0  0  0  0  0
  139.8010   68.6690  226.9830 C   0  0  0  0  0  0  0  0  0  0  0  0
  140.3260   69.0480  228.2050 C   0  0  0  0  0  0  0  0  0  0  0  0
  140.2040   68.1880  229.2430 F   0  0  0  0  0  0  0  0  0  0  0  0
  140.9470   70.2810  228.3180 C   0  0  0  0  0  0  0  0  0  0  0  0
  141.0690   71.1560  227.2550 C   0  0  0  0  0  0  0  0  0  0  0  0
  140.5390   70.7690  226.0210 C   0  0  0  0  0  0  0  0  0  0  0  0
  140.6280   71.5780  224.9520 N   0  0  0  0  0  0  0  0  0  0  0  0
  141.0550   70.6670  221.2460 H   0  0  0  0  0  0  0  0  0  0  0  0
  141.2066   72.0447  219.3624 H   0  0  0  0  0  0  0  0  0  0  0  0
  139.8409   73.0071  220.0732 H   0  0  0  0  0  0  0  0  0  0  0  0
  143.7944   72.1750  221.9259 H   0  0  0  0  0  0  0  0  0  0  0  0
  143.4273   71.4484  220.3848 H   0  0  0  0  0  0  0  0  0  0  0  0
  145.8913   72.9254  221.2836 H   0  0  0  0  0  0  0  0  0  0  0  0
  145.7548   71.7354  219.9783 H   0  0  0  0  0  0  0  0  0  0  0  0
  146.1531   74.3202  219.3559 H   0  0  0  0  0  0  0  0  0  0  0  0
  145.0217   73.4504  218.3755 H   0  0  0  0  0  0  0  0  0  0  0  0
  144.4195   75.2226  220.8798 H   0  0  0  0  0  0  0  0  0  0  0  0
  142.9487   76.8831  220.8098 H   0  0  0  0  0  0  0  0  0  0  0  0
  142.0790   78.6939  219.4136 H   0  0  0  0  0  0  0  0  0  0  0  0
  143.2260   76.5302  215.9040 H   0  0  0  0  0  0  0  0  0  0  0  0
  144.0966   74.7114  217.3012 H   0  0  0  0  0  0  0  0  0  0  0  0
  139.1062   69.7514  222.6350 H   0  0  0  0  0  0  0  0  0  0  0  0
  138.8935   68.1971  224.5395 H   0  0  0  0  0  0  0  0  0  0  0  0
  139.3017   67.6953  226.8706 H   0  0  0  0  0  0  0  0  0  0  0  0
  141.3601   70.5759  229.2939 H   0  0  0  0  0  0  0  0  0  0  0  0
  141.5686   72.1284  227.3767 H   0  0  0  0  0  0  0  0  0  0  0  0
  1  2  2  0
  2  3  1  0
  3  4  1  0
  4  5  1  0
  5  6  2  0
  5  7  1  0
  7  8  1  0
  8  9  1  0
  9 10  1  0
 10 11  1  0
 11 12  1  0
 12 13  2  0
 13 14  1  0
 14 15  2  0
 15 16  1  0
 16 17  1  0
 17 18  1  0
 17 19  1  0
 17 20  1  0
 15 21  1  0
 21 22  2  0
  2 23  1  0
 23 24  2  0
 24 25  1  0
 25 26  2  0
 26 27  1  0
 27 28  2  0
 28 29  1  0
 28 30  1  0
 30 31  2  0
 31 32  1  0
 32 33  2  0
 11  7  1  0
 22 12  1  0
 33 23  1  0
 32 26  1  0
  3 34  1  0
  4 35  1  0
  4 36  1  0
  8 37  1  0
  8 38  1  0
  9 39  1  0
  9 40  1  0
 10 41  1  0
 10 42  1  0
 11 43  1  1
 13 44  1  0
 14 45  1  0
 21 46  1  0
 22 47  1  0
 24 48  1  0
 25 49  1  0
 27 50  1  0
 30 51  1  0
 31 52  1  0
M  END
>  <smiles>  (96) 
O=C(NCC(=O)N1CCCC1c1ccc(OC(F)(F)F)cc1)c1ccc2cc(F)ccc2n1

>  <score_type>  (96) 
oracle

>  <origin>  (96) 
autodockgpu

>  <m_score__min__energy>  (96) 
-8.4399999999999995

>  <m_primary>  (96) 
energy

>  <rmsd>  (96) 
3.5390436005243466

>  <m_score__min__rmsd>  (96) 
3.5390436005243466

>  <meeko>  (96) 
{"free_energy": -7.62, "intermolecular_energy": -9.71, "internal_energy": -1.36, "cluster_size": 7, "cluster_id": 4, "rank_in_cluster": 2}

>  <energy>  (96) 
-6.45

>  <cluster_rmsd>  (96) 
1.71

>  <cluster>  (96) 
7

$$$$

     RDKit          3D

 52 55  0  0  0  0  0  0  0  0999 V2000
  140.3070   73.6670  222.3340 O   0  0  0  0  0  0  0  0  0  0  0  0
  140.4110   72.4020  222.1800 C   0  0  0  0  0  0  0  0  0  0  0  0
  140.6680   71.8280  220.9050 N   0  0  0  0  0  0  0  0  0  0  0  0
  140.8110   72.7090  219.7840 C   0  0  0  0  0  0  0  0  0  0  0  0
  142.1690   72.6370  219.1870 C   0  0  0  0  0  0  0  0  0  0  0  0
  142.2120   72.3360  217.9500 O   0  0  0  0  0  0  0  0  0  0  0  0
  143.3590   72.8890  219.9410 N   0  0  0  0  0  0  0  0  0  0  0  0
  144.3730   71.8650  220.1270 C   0  0  0  0  0  0  0  0  0  0  0  0
  145.4840   72.6480  220.7900 C   0  0  0  0  0  0  0  0  0  0  0  0
  145.2080   74.1070  220.4850 C   0  0  0  0  0  0  0  0  0  0  0  0
  143.6970   74.1150  220.5830 C   0  0  1  0  0  0  0  0  0  0  0  0
  143.0770   75.3280  220.0900 C   0  0  0  0  0  0  0  0  0  0  0  0
  141.9210   75.8350  220.6740 C   0  0  0  0  0  0  0  0  0  0  0  0
  141.3070   76.9840  220.2360 C   0  0  0  0  0  0  0  0  0  0  0  0
  141.8240   77.6970  219.1760 C   0  0  0  0  0  0  0  0  0  0  0  0
  141.2280   78.8640  218.7070 O   0  0  0  0  0  0  0  0  0  0  0  0
  141.8210   80.1460  218.9720 C   0  0  0  0  0  0  0  0  0  0  0  0
  142.0470   80.3130  220.3150 F   0  0  0  0  0  0  0  0  0  0  0  0
  142.9720   80.2280  218.2200 F   0  0  0  0  0  0  0  0  0  0  0  0
  140.9870   81.1530  218.5280 F   0  0  0  0  0  0  0  0  0  0  0  0
  142.9710   77.2220  218.5750 C   0  0  0  0  0  0  0  0  0  0  0  0
  143.5820   76.0690  219.0170 C   0  0  0  0  0  0  0  0  0  0  0  0
  140.2580   71.5420  223.3570 C   0  0  0  0  0  0  0  0  0  0  0  0
  139.6310   70.3180  223.2490 C   0  0  0  0  0  0  0  0  0  0  0  0
  139.4670   69.4780  224.3290 C   0  0  0  0  0  0  0  0  0  0  0  0
  139.9460   69.8690  225.5670 C   0  0  0  0  0  0  0  0  0  0  0  0
  139.7960   69.0460  226.6650 C   0  0  0  0  0  0  0  0  0  0  0  0
  140.2840   69.4590  227.8910 C   0  0  0  0  0  0  0  0  0  0  0  0
  140.1220   68.6310  228.9510 F   0  0  0  0  0  0  0  0  0  0  0  0
  140.9110   70.6900  227.9870 C   0  0  0  0  0  0  0  0  0  0  0  0
  141.0740   71.5320  226.9030 C   0  0  0  0  0  0  0  0  0  0  0  0
  140.5800   71.1110  225.6650 C   0  0  0  0  0  0  0  0  0  0  0  0
  140.7100   71.8870  224.5750 N   0  0  0  0  0  0  0  0  0  0  0  0
  140.7520   70.7820  220.7900 H   0  0  0  0  0  0  0  0  0  0  0  0
  140.0717   72.4316  219.0182 H   0  0  0  0  0  0  0  0  0  0  0  0
  140.6509   73.7378  220.1389 H   0  0  0  0  0  0  0  0  0  0  0  0
  144.0102   71.0553  220.7772 H   0  0  0  0  0  0  0  0  0  0  0  0
  144.6755   71.3628  219.1962 H   0  0  0  0  0  0  0  0  0  0  0  0
  145.4762   72.4768  221.8766 H   0  0  0  0  0  0  0  0  0  0  0  0
  146.4718   72.3389  220.4177 H   0  0  0  0  0  0  0  0  0  0  0  0
  145.6688   74.7738  221.2287 H   0  0  0  0  0  0  0  0  0  0  0  0
  145.6119   74.4643  219.5263 H   0  0  0  0  0  0  0  0  0  0  0  0
  143.2986   74.1492  221.6077 H   0  0  0  0  0  0  0  0  0  0  0  0
  141.4791   75.2930  221.5231 H   0  0  0  0  0  0  0  0  0  0  0  0
  140.3937   77.3381  220.7366 H   0  0  0  0  0  0  0  0  0  0  0  0
  143.4054   77.7733  217.7281 H   0  0  0  0  0  0  0  0  0  0  0  0
  144.4944   75.7209  218.5107 H   0  0  0  0  0  0  0  0  0  0  0  0
  139.2489   70.0017  222.2672 H   0  0  0  0  0  0  0  0  0  0  0  0
  138.9615   68.5085  224.2085 H   0  0  0  0  0  0  0  0  0  0  0  0
  139.2938   68.0724  226.5657 H   0  0  0  0  0  0  0  0  0  0  0  0
  141.2952   71.0110  228.9664 H   0  0  0  0  0  0  0  0  0  0  0  0
  141.5773   72.5041  227.0113 H   0  0  0  0  0  0  0  0  0  0  0  0
  1  2  2  0
  2  3  1  0
  3  4  1  0
  4  5  1  0
  5  6  2  0
  5  7  1  0
  7  8  1  0
  8  9  1  0
  9 10  1  0
 10 11  1  0
 11 12  1  0
 12 13  2  0
 13 14  1  0
 14 15  2  0
 15 16  1  0
 16 17  1  0
 17 18  1  0
 17 19  1  0
 17 20  1  0
 15 21  1  0
 21 22  2  0
  2 23  1  0
 23 24  2  0
 24 25  1  0
 25 26  2  0
 26 27  1  0
 27 28  2  0
 28 29  1  0
 28 30  1  0
 30 31  2  0
 31 32  1  0
 32 33  2  0
 11  7  1  0
 22 12  1  0
 33 23  1  0
 32 26  1  0
  3 34  1  0
  4 35  1  0
  4 36  1  0
  8 37  1  0
  8 38  1  0
  9 39  1  0
  9 40  1  0
 10 41  1  0
 10 42  1  0
 11 43  1  1
 13 44  1  0
 14 45  1  0
 21 46  1  0
 22 47  1  0
 24 48  1  0
 25 49  1  0
 27 50  1  0
 30 51  1  0
 31 52  1  0
M  END
>  <smiles>  (97) 
O=C(NCC(=O)N1CCCC1c1ccc(OC(F)(F)F)cc1)c1ccc2cc(F)ccc2n1

>  <score_type>  (97) 
oracle

>  <origin>  (97) 
autodockgpu

>  <m_score__min__energy>  (97) 
-8.4399999999999995

>  <m_primary>  (97) 
energy

>  <rmsd>  (97) 
3.7593167056277292

>  <m_score__min__rmsd>  (97) 
3.7593167056277292

>  <meeko>  (97) 
{"free_energy": -7.63, "intermolecular_energy": -9.72, "internal_energy": -1.75, "cluster_size": 7, "cluster_id": 4, "rank_in_cluster": 1}

>  <energy>  (97) 
-6.41

>  <cluster_rmsd>  (97) 
1.76

>  <cluster>  (97) 
7

$$$$

     RDKit          3D

 52 55  0  0  0  0  0  0  0  0999 V2000
  140.7340   71.6040  221.1750 O   0  0  0  0  0  0  0  0  0  0  0  0
  140.2900   72.1440  222.2460 C   0  0  0  0  0  0  0  0  0  0  0  0
  139.9120   73.5130  222.2870 N   0  0  0  0  0  0  0  0  0  0  0  0
  140.0420   74.2850  221.0860 C   0  0  0  0  0  0  0  0  0  0  0  0
  140.5560   75.6510  221.3540 C   0  0  0  0  0  0  0  0  0  0  0  0
  140.4130   76.0710  222.5500 O   0  0  0  0  0  0  0  0  0  0  0  0
  141.1760   76.4560  220.3460 N   0  0  0  0  0  0  0  0  0  0  0  0
  141.0200   77.9010  220.3210 C   0  0  0  0  0  0  0  0  0  0  0  0
  141.9930   78.2980  219.2350 C   0  0  0  0  0  0  0  0  0  0  0  0
  142.9490   77.1320  219.0820 C   0  0  0  0  0  0  0  0  0  0  0  0
  141.9900   75.9770  219.2790 C   0  0  1  0  0  0  0  0  0  0  0  0
  142.6360   74.6920  219.4480 C   0  0  0  0  0  0  0  0  0  0  0  0
  143.7420   74.5440  220.2770 C   0  0  0  0  0  0  0  0  0  0  0  0
  144.3770   73.3390  220.4660 C   0  0  0  0  0  0  0  0  0  0  0  0
  143.9330   72.2030  219.8240 C   0  0  0  0  0  0  0  0  0  0  0  0
  144.5530   70.9680  219.9920 O   0  0  0  0  0  0  0  0  0  0  0  0
  145.5110   70.4940  219.0320 C   0  0  0  0  0  0  0  0  0  0  0  0
  146.7550   70.3800  219.5980 F   0  0  0  0  0  0  0  0  0  0  0  0
  145.0360   69.3010  218.5330 F   0  0  0  0  0  0  0  0  0  0  0  0
  145.5810   71.3680  217.9650 F   0  0  0  0  0  0  0  0  0  0  0  0
  142.8370   72.3140  218.9950 C   0  0  0  0  0  0  0  0  0  0  0  0
  142.2030   73.5250  218.8100 C   0  0  0  0  0  0  0  0  0  0  0  0
  140.1750   71.3130  223.4480 C   0  0  0  0  0  0  0  0  0  0  0  0
  139.5600   70.0800  223.3860 C   0  0  0  0  0  0  0  0  0  0  0  0
  139.4320   69.2650  224.4920 C   0  0  0  0  0  0  0  0  0  0  0  0
  139.9360   69.6940  225.7070 C   0  0  0  0  0  0  0  0  0  0  0  0
  139.8220   68.8980  226.8290 C   0  0  0  0  0  0  0  0  0  0  0  0
  140.3350   69.3470  228.0320 C   0  0  0  0  0  0  0  0  0  0  0  0
  140.2100   68.5440  229.1160 F   0  0  0  0  0  0  0  0  0  0  0  0
  140.9500   70.5870  228.0810 C   0  0  0  0  0  0  0  0  0  0  0  0
  141.0770   71.4020  226.9720 C   0  0  0  0  0  0  0  0  0  0  0  0
  140.5580   70.9450  225.7580 C   0  0  0  0  0  0  0  0  0  0  0  0
  140.6520   71.6940  224.6460 N   0  0  0  0  0  0  0  0  0  0  0  0
  139.5470   73.9470  223.1770 H   0  0  0  0  0  0  0  0  0  0  0  0
  140.7383   73.7707  220.4073 H   0  0  0  0  0  0  0  0  0  0  0  0
  139.0433   74.3810  220.6350 H   0  0  0  0  0  0  0  0  0  0  0  0
  139.9905   78.1883  220.0610 H   0  0  0  0  0  0  0  0  0  0  0  0
  141.2108   78.3866  221.2894 H   0  0  0  0  0  0  0  0  0  0  0  0
  141.4584   78.4800  218.2910 H   0  0  0  0  0  0  0  0  0  0  0  0
  142.5267   79.2248  219.4922 H   0  0  0  0  0  0  0  0  0  0  0  0
  143.4122   77.1122  218.0845 H   0  0  0  0  0  0  0  0  0  0  0  0
  143.8073   77.1437  219.7699 H   0  0  0  0  0  0  0  0  0  0  0  0
  141.3814   75.7236  218.3984 H   0  0  0  0  0  0  0  0  0  0  0  0
  144.1260   75.4294  220.8048 H   0  0  0  0  0  0  0  0  0  0  0  0
  145.2476   73.2811  221.1359 H   0  0  0  0  0  0  0  0  0  0  0  0
  142.4618   71.4218  218.4723 H   0  0  0  0  0  0  0  0  0  0  0  0
  141.3312   73.5744  218.1410 H   0  0  0  0  0  0  0  0  0  0  0  0
  139.1579   69.7347  222.4221 H   0  0  0  0  0  0  0  0  0  0  0  0
  138.9357   68.2869  224.4088 H   0  0  0  0  0  0  0  0  0  0  0  0
  139.3283   67.9170  226.7667 H   0  0  0  0  0  0  0  0  0  0  0  0
  141.3540   70.9376  229.0421 H   0  0  0  0  0  0  0  0  0  0  0  0
  141.5721   72.3817  227.0431 H   0  0  0  0  0  0  0  0  0  0  0  0
  1  2  2  0
  2  3  1  0
  3  4  1  0
  4  5  1  0
  5  6  2  0
  5  7  1  0
  7  8  1  0
  8  9  1  0
  9 10  1  0
 10 11  1  0
 11 12  1  0
 12 13  2  0
 13 14  1  0
 14 15  2  0
 15 16  1  0
 16 17  1  0
 17 18  1  0
 17 19  1  0
 17 20  1  0
 15 21  1  0
 21 22  2  0
  2 23  1  0
 23 24  2  0
 24 25  1  0
 25 26  2  0
 26 27  1  0
 27 28  2  0
 28 29  1  0
 28 30  1  0
 30 31  2  0
 31 32  1  0
 32 33  2  0
 11  7  1  0
 22 12  1  0
 33 23  1  0
 32 26  1  0
  3 34  1  0
  4 35  1  0
  4 36  1  0
  8 37  1  0
  8 38  1  0
  9 39  1  0
  9 40  1  0
 10 41  1  0
 10 42  1  0
 11 43  1  6
 13 44  1  0
 14 45  1  0
 21 46  1  0
 22 47  1  0
 24 48  1  0
 25 49  1  0
 27 50  1  0
 30 51  1  0
 31 52  1  0
M  END
>  <smiles>  (98) 
O=C(NCC(=O)N1CCCC1c1ccc(OC(F)(F)F)cc1)c1ccc2cc(F)ccc2n1

>  <score_type>  (98) 
oracle

>  <origin>  (98) 
autodockgpu

>  <m_score__min__energy>  (98) 
-8.4399999999999995

>  <m_primary>  (98) 
energy

>  <rmsd>  (98) 
2.1296498363939995

>  <m_score__min__rmsd>  (98) 
2.1296498363939995

>  <meeko>  (98) 
{"free_energy": -7.33, "intermolecular_energy": -9.41, "internal_energy": -2.15, "cluster_size": 13, "cluster_id": 2, "rank_in_cluster": 10}

>  <energy>  (98) 
-6.23

>  <cluster_rmsd>  (98) 
0.6

>  <cluster>  (98) 
7

$$$$

     RDKit          3D

 52 55  0  0  0  0  0  0  0  0999 V2000
  140.6860   71.5790  221.1190 O   0  0  0  0  0  0  0  0  0  0  0  0
  140.2650   72.1390  222.1890 C   0  0  0  0  0  0  0  0  0  0  0  0
  139.9260   73.5190  222.2200 N   0  0  0  0  0  0  0  0  0  0  0  0
  140.0660   74.2760  221.0120 C   0  0  0  0  0  0  0  0  0  0  0  0
  140.8060   75.5440  221.2310 C   0  0  0  0  0  0  0  0  0  0  0  0
  140.7850   75.9970  222.4230 O   0  0  0  0  0  0  0  0  0  0  0  0
  141.5020   76.2250  220.1820 N   0  0  0  0  0  0  0  0  0  0  0  0
  141.4800   77.6730  220.0670 C   0  0  0  0  0  0  0  0  0  0  0  0
  142.4910   77.9110  218.9690 C   0  0  0  0  0  0  0  0  0  0  0  0
  143.3370   76.6550  218.8990 C   0  0  0  0  0  0  0  0  0  0  0  0
  142.2750   75.6080  219.1560 C   0  0  1  0  0  0  0  0  0  0  0  0
  142.7990   74.2810  219.4120 C   0  0  0  0  0  0  0  0  0  0  0  0
  142.3230   73.1740  218.7190 C   0  0  0  0  0  0  0  0  0  0  0  0
  142.7990   71.9010  218.9310 C   0  0  0  0  0  0  0  0  0  0  0  0
  143.7890   71.6670  219.8610 C   0  0  0  0  0  0  0  0  0  0  0  0
  144.2930   70.3920  220.1010 O   0  0  0  0  0  0  0  0  0  0  0  0
  145.1740   69.7640  219.1550 C   0  0  0  0  0  0  0  0  0  0  0  0
  145.5950   68.5420  219.6150 F   0  0  0  0  0  0  0  0  0  0  0  0
  144.4980   69.6830  217.9570 F   0  0  0  0  0  0  0  0  0  0  0  0
  146.2770   70.5660  218.9330 F   0  0  0  0  0  0  0  0  0  0  0  0
  144.2830   72.7450  220.5650 C   0  0  0  0  0  0  0  0  0  0  0  0
  143.8030   74.0190  220.3480 C   0  0  0  0  0  0  0  0  0  0  0  0
  140.1390   71.3220  223.3990 C   0  0  0  0  0  0  0  0  0  0  0  0
  139.5350   70.0840  223.3430 C   0  0  0  0  0  0  0  0  0  0  0  0
  139.3960   69.2820  224.4560 C   0  0  0  0  0  0  0  0  0  0  0  0
  139.8770   69.7290  225.6740 C   0  0  0  0  0  0  0  0  0  0  0  0
  139.7530   68.9460  226.8050 C   0  0  0  0  0  0  0  0  0  0  0  0
  140.2430   69.4140  228.0100 C   0  0  0  0  0  0  0  0  0  0  0  0
  140.1070   68.6240  229.1010 F   0  0  0  0  0  0  0  0  0  0  0  0
  140.8460   70.6600  228.0530 C   0  0  0  0  0  0  0  0  0  0  0  0
  140.9840   71.4630  226.9360 C   0  0  0  0  0  0  0  0  0  0  0  0
  140.4880   70.9860  225.7190 C   0  0  0  0  0  0  0  0  0  0  0  0
  140.5930   71.7220  224.6000 N   0  0  0  0  0  0  0  0  0  0  0  0
  139.5800   73.9700  223.1100 H   0  0  0  0  0  0  0  0  0  0  0  0
  140.6119   73.6694  220.2744 H   0  0  0  0  0  0  0  0  0  0  0  0
  139.0580   74.5296  220.6521 H   0  0  0  0  0  0  0  0  0  0  0  0
  140.4827   78.0368  219.7790 H   0  0  0  0  0  0  0  0  0  0  0  0
  141.7099   78.1981  221.0058 H   0  0  0  0  0  0  0  0  0  0  0  0
  141.9802   78.0815  218.0098 H   0  0  0  0  0  0  0  0  0  0  0  0
  143.1061   78.7996  219.1740 H   0  0  0  0  0  0  0  0  0  0  0  0
  143.8020   76.5306  217.9099 H   0  0  0  0  0  0  0  0  0  0  0  0
  144.1890   76.6310  219.5943 H   0  0  0  0  0  0  0  0  0  0  0  0
  141.6511   75.3573  218.2855 H   0  0  0  0  0  0  0  0  0  0  0  0
  141.5320   73.3223  217.9691 H   0  0  0  0  0  0  0  0  0  0  0  0
  142.3855   71.0616  218.3527 H   0  0  0  0  0  0  0  0  0  0  0  0
  145.0739   72.5856  221.3128 H   0  0  0  0  0  0  0  0  0  0  0  0
  144.2226   74.8537  220.9287 H   0  0  0  0  0  0  0  0  0  0  0  0
  139.1508   69.7237  222.3773 H   0  0  0  0  0  0  0  0  0  0  0  0
  138.9087   68.2990  224.3766 H   0  0  0  0  0  0  0  0  0  0  0  0
  139.2692   67.9598  226.7475 H   0  0  0  0  0  0  0  0  0  0  0  0
  141.2312   71.0261  229.0161 H   0  0  0  0  0  0  0  0  0  0  0  0
  141.4695   72.4478  227.0028 H   0  0  0  0  0  0  0  0  0  0  0  0
  1  2  2  0
  2  3  1  0
  3  4  1  0
  4  5  1  0
  5  6  2  0
  5  7  1  0
  7  8  1  0
  8  9  1  0
  9 10  1  0
 10 11  1  0
 11 12  1  0
 12 13  2  0
 13 14  1  0
 14 15  2  0
 15 16  1  0
 16 17  1  0
 17 18  1  0
 17 19  1  0
 17 20  1  0
 15 21  1  0
 21 22  2  0
  2 23  1  0
 23 24  2  0
 24 25  1  0
 25 26  2  0
 26 27  1  0
 27 28  2  0
 28 29  1  0
 28 30  1  0
 30 31  2  0
 31 32  1  0
 32 33  2  0
 11  7  1  0
 22 12  1  0
 33 23  1  0
 32 26  1  0
  3 34  1  0
  4 35  1  0
  4 36  1  0
  8 37  1  0
  8 38  1  0
  9 39  1  0
  9 40  1  0
 10 41  1  0
 10 42  1  0
 11 43  1  6
 13 44  1  0
 14 45  1  0
 21 46  1  0
 22 47  1  0
 24 48  1  0
 25 49  1  0
 27 50  1  0
 30 51  1  0
 31 52  1  0
M  END
>  <smiles>  (99) 
O=C(NCC(=O)N1CCCC1c1ccc(OC(F)(F)F)cc1)c1ccc2cc(F)ccc2n1

>  <score_type>  (99) 
oracle

>  <origin>  (99) 
autodockgpu

>  <m_score__min__energy>  (99) 
-8.4399999999999995

>  <m_primary>  (99) 
energy

>  <rmsd>  (99) 
2.193764502175716

>  <m_score__min__rmsd>  (99) 
2.193764502175716

>  <meeko>  (99) 
{"free_energy": -7.34, "intermolecular_energy": -9.43, "internal_energy": -2.19, "cluster_size": 13, "cluster_id": 2, "rank_in_cluster": 9}

>  <energy>  (99) 
-5.88

>  <cluster_rmsd>  (99) 
1.94

>  <cluster>  (99) 
7

$$$$

     RDKit          3D

 52 55  0  0  0  0  0  0  0  0999 V2000
  138.5100   70.8260  221.1920 O   0  0  0  0  0  0  0  0  0  0  0  0
  138.7050   71.5340  222.2390 C   0  0  0  0  0  0  0  0  0  0  0  0
  138.5330   72.9450  222.2240 N   0  0  0  0  0  0  0  0  0  0  0  0
  138.1290   73.5620  220.9960 C   0  0  0  0  0  0  0  0  0  0  0  0
  139.2920   73.9390  220.1530 C   0  0  0  0  0  0  0  0  0  0  0  0
  139.0320   74.6920  219.1580 O   0  0  0  0  0  0  0  0  0  0  0  0
  140.6240   73.4930  220.4290 N   0  0  0  0  0  0  0  0  0  0  0  0
  141.1160   72.2170  219.9400 C   0  0  0  0  0  0  0  0  0  0  0  0
  142.5820   72.2920  220.3030 C   0  0  0  0  0  0  0  0  0  0  0  0
  142.8860   73.7620  220.5140 C   0  0  0  0  0  0  0  0  0  0  0  0
  141.6020   74.2030  221.1830 C   0  0  1  0  0  0  0  0  0  0  0  0
  141.4550   75.6390  221.2970 C   0  0  0  0  0  0  0  0  0  0  0  0
  141.9870   76.4960  220.3410 C   0  0  0  0  0  0  0  0  0  0  0  0
  141.8640   77.8640  220.4130 C   0  0  0  0  0  0  0  0  0  0  0  0
  141.1910   78.4540  221.4620 C   0  0  0  0  0  0  0  0  0  0  0  0
  141.0470   79.8340  221.5660 O   0  0  0  0  0  0  0  0  0  0  0  0
  141.6910   80.5590  222.6280 C   0  0  0  0  0  0  0  0  0  0  0  0
  140.9960   80.4250  223.8020 F   0  0  0  0  0  0  0  0  0  0  0  0
  142.9860   80.0960  222.7130 F   0  0  0  0  0  0  0  0  0  0  0  0
  141.7720   81.8990  222.3030 F   0  0  0  0  0  0  0  0  0  0  0  0
  140.6490   77.6320  222.4270 C   0  0  0  0  0  0  0  0  0  0  0  0
  140.7760   76.2610  222.3500 C   0  0  0  0  0  0  0  0  0  0  0  0
  139.1170   70.8560  223.4720 C   0  0  0  0  0  0  0  0  0  0  0  0
  138.9100   69.5010  223.6230 C   0  0  0  0  0  0  0  0  0  0  0  0
  139.2820   68.8230  224.7650 C   0  0  0  0  0  0  0  0  0  0  0  0
  139.8860   69.5200  225.7960 C   0  0  0  0  0  0  0  0  0  0  0  0
  140.2710   68.8650  226.9500 C   0  0  0  0  0  0  0  0  0  0  0  0
  140.8730   69.5830  227.9660 C   0  0  0  0  0  0  0  0  0  0  0  0
  141.2400   68.9140  229.0850 F   0  0  0  0  0  0  0  0  0  0  0  0
  141.0750   70.9430  227.8020 C   0  0  0  0  0  0  0  0  0  0  0  0
  140.7000   71.6220  226.6580 C   0  0  0  0  0  0  0  0  0  0  0  0
  140.0920   70.8930  225.6320 C   0  0  0  0  0  0  0  0  0  0  0  0
  139.7060   71.4980  224.4960 N   0  0  0  0  0  0  0  0  0  0  0  0
  138.6980   73.5180  223.0950 H   0  0  0  0  0  0  0  0  0  0  0  0
  137.4978   72.8569  220.4353 H   0  0  0  0  0  0  0  0  0  0  0  0
  137.5770   74.4808  221.2433 H   0  0  0  0  0  0  0  0  0  0  0  0
  140.6203   71.3757  220.4466 H   0  0  0  0  0  0  0  0  0  0  0  0
  140.9300   72.0483  218.8690 H   0  0  0  0  0  0  0  0  0  0  0  0
  142.7767   71.7253  221.2254 H   0  0  0  0  0  0  0  0  0  0  0  0
  143.2148   71.8591  219.5143 H   0  0  0  0  0  0  0  0  0  0  0  0
  143.7582   73.9086  221.1680 H   0  0  0  0  0  0  0  0  0  0  0  0
  143.1466   74.3168  219.6006 H   0  0  0  0  0  0  0  0  0  0  0  0
  141.5297   73.9608  222.2536 H   0  0  0  0  0  0  0  0  0  0  0  0
  142.5304   76.0611  219.4892 H   0  0  0  0  0  0  0  0  0  0  0  0
  142.3065   78.4931  219.6266 H   0  0  0  0  0  0  0  0  0  0  0  0
  140.1057   78.0776  223.2733 H   0  0  0  0  0  0  0  0  0  0  0  0
  140.3303   75.6383  223.1397 H   0  0  0  0  0  0  0  0  0  0  0  0
  138.4321   68.9420  222.8050 H   0  0  0  0  0  0  0  0  0  0  0  0
  139.1007   67.7418  224.8548 H   0  0  0  0  0  0  0  0  0  0  0  0
  140.1002   67.7838  227.0589 H   0  0  0  0  0  0  0  0  0  0  0  0
  141.5539   71.5066  228.6162 H   0  0  0  0  0  0  0  0  0  0  0  0
  140.8747   72.7034  226.5580 H   0  0  0  0  0  0  0  0  0  0  0  0
  1  2  2  0
  2  3  1  0
  3  4  1  0
  4  5  1  0
  5  6  2  0
  5  7  1  0
  7  8  1  0
  8  9  1  0
  9 10  1  0
 10 11  1  0
 11 12  1  0
 12 13  2  0
 13 14  1  0
 14 15  2  0
 15 16  1  0
 16 17  1  0
 17 18  1  0
 17 19  1  0
 17 20  1  0
 15 21  1  0
 21 22  2  0
  2 23  1  0
 23 24  2  0
 24 25  1  0
 25 26  2  0
 26 27  1  0
 27 28  2  0
 28 29  1  0
 28 30  1  0
 30 31  2  0
 31 32  1  0
 32 33  2  0
 11  7  1  0
 22 12  1  0
 33 23  1  0
 32 26  1  0
  3 34  1  0
  4 35  1  0
  4 36  1  0
  8 37  1  0
  8 38  1  0
  9 39  1  0
  9 40  1  0
 10 41  1  0
 10 42  1  0
 11 43  1  1
 13 44  1  0
 14 45  1  0
 21 46  1  0
 22 47  1  0
 24 48  1  0
 25 49  1  0
 27 50  1  0
 30 51  1  0
 31 52  1  0
M  END
>  <smiles>  (100) 
O=C(NCC(=O)N1CCCC1c1ccc(OC(F)(F)F)cc1)c1ccc2cc(F)ccc2n1

>  <score_type>  (100) 
oracle

>  <origin>  (100) 
autodockgpu

>  <m_score__min__energy>  (100) 
-8.4399999999999995

>  <m_primary>  (100) 
energy

>  <rmsd>  (100) 
2.495113445836504

>  <m_score__min__rmsd>  (100) 
2.495113445836504

>  <meeko>  (100) 
{"free_energy": -7.14, "intermolecular_energy": -9.22, "internal_energy": -2.06, "cluster_size": 8, "cluster_id": 3, "rank_in_cluster": 8}

>  <energy>  (100) 
-6.03

>  <cluster_rmsd>  (100) 
0.0

>  <cluster>  (100) 
8

$$$$
