
     RDKit          3D

 54 57  0  0  0  0  0  0  0  0999 V2000
  141.3870   72.4220  221.8490 O   0  0  0  0  0  0  0  0  0  0  0  0
  140.3760   72.4010  222.6080 C   0  0  0  0  0  0  0  0  0  0  0  0
  139.2660   73.2830  222.3480 N   0  0  0  0  0  0  0  0  0  0  0  0
  139.3570   74.1710  221.2070 C   0  0  0  0  0  0  0  0  0  0  0  0
  139.8870   75.5080  221.6510 C   0  0  0  0  0  0  0  0  0  0  0  0
  139.2560   76.1570  222.5190 O   0  0  0  0  0  0  0  0  0  0  0  0
  141.0850   75.9370  221.0350 N   0  0  0  0  0  0  0  0  0  0  0  0
  142.1750   75.1360  220.4750 C   0  0  0  0  0  0  0  0  0  0  0  0
  142.7720   75.9370  219.3720 C   0  0  2  0  0  0  0  0  0  0  0  0
  144.0460   76.4250  219.7330 O   0  0  0  0  0  0  0  0  0  0  0  0
  141.8690   77.1840  219.3280 C   0  0  0  0  0  0  0  0  0  0  0  0
  141.5490   77.3270  220.7960 C   0  0  1  0  0  0  0  0  0  0  0  0
  140.5010   78.3050  221.1440 C   0  0  0  0  0  0  0  0  0  0  0  0
  140.8690   79.2920  222.1150 N   0  0  0  0  0  0  0  0  0  0  0  0
  141.3690   78.8610  223.3530 C   0  0  0  0  0  0  0  0  0  0  0  0
  142.3260   79.9260  223.8530 C   0  0  0  0  0  0  0  0  0  0  0  0
  142.8870   80.4900  222.5910 C   0  0  0  0  0  0  0  0  0  0  0  0
  141.8840   80.1610  221.5440 C   0  0  0  0  0  0  0  0  0  0  0  0
  140.2730   71.5100  223.7590 C   0  0  0  0  0  0  0  0  0  0  0  0
  139.6660   70.2790  223.5490 C   0  0  0  0  0  0  0  0  0  0  0  0
  139.5100   69.3450  224.5490 C   0  0  0  0  0  0  0  0  0  0  0  0
  139.9930   69.6820  225.8100 C   0  0  0  0  0  0  0  0  0  0  0  0
  139.8560   68.7750  226.8310 C   0  0  0  0  0  0  0  0  0  0  0  0
  140.3350   69.1140  228.0720 C   0  0  0  0  0  0  0  0  0  0  0  0
  140.2160   68.2500  229.0880 F   0  0  0  0  0  0  0  0  0  0  0  0
  140.9320   70.3450  228.2450 C   0  0  0  0  0  0  0  0  0  0  0  0
  141.0820   71.2640  227.2450 C   0  0  0  0  0  0  0  0  0  0  0  0
  140.6000   70.9260  225.9900 C   0  0  0  0  0  0  0  0  0  0  0  0
  140.7270   71.8050  224.9790 N   0  0  0  0  0  0  0  0  0  0  0  0
  138.4200   73.2910  222.9520 H   0  0  0  0  0  0  0  0  0  0  0  0
  140.0368   73.7375  220.4586 H   0  0  0  0  0  0  0  0  0  0  0  0
  138.3585   74.3017  220.7643 H   0  0  0  0  0  0  0  0  0  0  0  0
  142.9311   74.9321  221.2475 H   0  0  0  0  0  0  0  0  0  0  0  0
  141.8051   74.1682  220.1055 H   0  0  0  0  0  0  0  0  0  0  0  0
  142.8529   75.3474  218.4469 H   0  0  0  0  0  0  0  0  0  0  0  0
  144.0040   77.1910  220.3420 H   0  0  0  0  0  0  0  0  0  0  0  0
  142.4048   78.0626  218.9394 H   0  0  0  0  0  0  0  0  0  0  0  0
  140.9926   77.0987  218.6687 H   0  0  0  0  0  0  0  0  0  0  0  0
  142.3902   77.7087  221.3933 H   0  0  0  0  0  0  0  0  0  0  0  0
  140.2095   78.8300  220.2224 H   0  0  0  0  0  0  0  0  0  0  0  0
  139.6881   77.7226  221.6023 H   0  0  0  0  0  0  0  0  0  0  0  0
  140.5428   78.7328  224.0678 H   0  0  0  0  0  0  0  0  0  0  0  0
  141.8845   77.8950  223.2479 H   0  0  0  0  0  0  0  0  0  0  0  0
  141.7937   80.6974  224.4288 H   0  0  0  0  0  0  0  0  0  0  0  0
  143.0962   79.5329  224.5329 H   0  0  0  0  0  0  0  0  0  0  0  0
  143.0133   81.5793  222.6768 H   0  0  0  0  0  0  0  0  0  0  0  0
  143.8790   80.0756  222.3580 H   0  0  0  0  0  0  0  0  0  0  0  0
  141.4142   81.0866  221.1800 H   0  0  0  0  0  0  0  0  0  0  0  0
  142.3785   79.6515  220.7039 H   0  0  0  0  0  0  0  0  0  0  0  0
  139.2942   70.0398  222.5418 H   0  0  0  0  0  0  0  0  0  0  0  0
  139.0253   68.3759  224.3595 H   0  0  0  0  0  0  0  0  0  0  0  0
  139.3745   67.8010  226.6592 H   0  0  0  0  0  0  0  0  0  0  0  0
  141.3093   70.6019  229.2458 H   0  0  0  0  0  0  0  0  0  0  0  0
  141.5664   72.2344  227.4287 H   0  0  0  0  0  0  0  0  0  0  0  0
  1  2  2  0
  2  3  1  0
  3  4  1  0
  4  5  1  0
  5  6  2  0
  5  7  1  0
  7  8  1  0
  8  9  1  0
  9 10  1  0
  9 11  1  0
 11 12  1  0
 12 13  1  0
 13 14  1  0
 14 15  1  0
 15 16  1  0
 16 17  1  0
 17 18  1  0
  2 19  1  0
 19 20  2  0
 20 21  1  0
 21 22  2  0
 22 23  1  0
 23 24  2  0
 24 25  1  0
 24 26  1  0
 26 27  2  0
 27 28  1  0
 28 29  2  0
 12  7  1  0
 18 14  1  0
 29 19  1  0
 28 22  1  0
  3 30  1  0
  4 31  1  0
  4 32  1  0
  8 33  1  0
  8 34  1  0
  9 35  1  6
 10 36  1  0
 11 37  1  0
 11 38  1  0
 12 39  1  1
 13 40  1  0
 13 41  1  0
 15 42  1  0
 15 43  1  0
 16 44  1  0
 16 45  1  0
 17 46  1  0
 17 47  1  0
 18 48  1  0
 18 49  1  0
 20 50  1  0
 21 51  1  0
 23 52  1  0
 26 53  1  0
 27 54  1  0
M  END
>  <smiles>  (1) 
O=C(NCC(=O)N1C[C@H](O)C[C@H]1CN1CCCC1)c1ccc2cc(F)ccc2n1

>  <score_type>  (1) 
oracle

>  <origin>  (1) 
autodockgpu

>  <m_score__min__energy>  (1) 
-8.9700000000000006

>  <m_primary>  (1) 
energy

>  <rmsd>  (1) 
1.9682323319995518

>  <m_score__min__rmsd>  (1) 
1.9682323319995518

>  <meeko>  (1) 
{"free_energy": -8.85, "intermolecular_energy": -10.93, "internal_energy": -1.41, "cluster_size": 33, "cluster_id": 1, "rank_in_cluster": 4}

>  <energy>  (1) 
-8.97

>  <cluster_rmsd>  (1) 
0.0

>  <cluster>  (1) 
1

$$$$

     RDKit          3D

 54 57  0  0  0  0  0  0  0  0999 V2000
  140.1510   73.0170  222.7340 O   0  0  0  0  0  0  0  0  0  0  0  0
  140.0910   71.7650  222.8970 C   0  0  0  0  0  0  0  0  0  0  0  0
  139.8320   70.9060  221.7690 N   0  0  0  0  0  0  0  0  0  0  0  0
  139.6490   71.5250  220.4730 C   0  0  0  0  0  0  0  0  0  0  0  0
  138.1910   71.8360  220.2630 C   0  0  0  0  0  0  0  0  0  0  0  0
  137.7480   71.9190  219.0930 O   0  0  0  0  0  0  0  0  0  0  0  0
  137.4200   72.0150  221.4340 N   0  0  0  0  0  0  0  0  0  0  0  0
  137.1040   73.2500  222.1540 C   0  0  0  0  0  0  0  0  0  0  0  0
  135.7770   73.0440  222.7950 C   0  0  2  0  0  0  0  0  0  0  0  0
  135.9060   72.9050  224.1930 O   0  0  0  0  0  0  0  0  0  0  0  0
  135.3690   71.6460  222.2950 C   0  0  0  0  0  0  0  0  0  0  0  0
  136.7240   70.9810  222.2420 C   0  0  1  0  0  0  0  0  0  0  0  0
  136.7800   69.6630  221.5820 C   0  0  0  0  0  0  0  0  0  0  0  0
  137.9420   68.8760  221.8660 N   0  0  0  0  0  0  0  0  0  0  0  0
  137.9490   68.0830  223.0240 C   0  0  0  0  0  0  0  0  0  0  0  0
  138.8240   66.8770  222.7440 C   0  0  0  0  0  0  0  0  0  0  0  0
  138.6380   66.6600  221.2800 C   0  0  0  0  0  0  0  0  0  0  0  0
  138.1860   67.9750  220.7520 C   0  0  0  0  0  0  0  0  0  0  0  0
  140.2740   71.1310  224.1990 C   0  0  0  0  0  0  0  0  0  0  0  0
  140.7290   71.9380  225.2330 C   0  0  0  0  0  0  0  0  0  0  0  0
  140.9390   71.4650  226.5090 C   0  0  0  0  0  0  0  0  0  0  0  0
  140.6730   70.1170  226.7370 C   0  0  0  0  0  0  0  0  0  0  0  0
  140.8690   69.6120  227.9970 C   0  0  0  0  0  0  0  0  0  0  0  0
  140.6050   68.2820  228.2150 C   0  0  0  0  0  0  0  0  0  0  0  0
  140.7860   67.7600  229.4340 F   0  0  0  0  0  0  0  0  0  0  0  0
  140.1530   67.5100  227.1650 C   0  0  0  0  0  0  0  0  0  0  0  0
  139.9480   67.9900  225.9020 C   0  0  0  0  0  0  0  0  0  0  0  0
  140.2140   69.3320  225.6780 C   0  0  0  0  0  0  0  0  0  0  0  0
  140.0260   69.8430  224.4480 N   0  0  0  0  0  0  0  0  0  0  0  0
  139.7750   69.8730  221.8700 H   0  0  0  0  0  0  0  0  0  0  0  0
  140.2323   72.4564  220.4266 H   0  0  0  0  0  0  0  0  0  0  0  0
  139.9923   70.8359  219.6874 H   0  0  0  0  0  0  0  0  0  0  0  0
  137.8682   73.4484  222.9199 H   0  0  0  0  0  0  0  0  0  0  0  0
  137.0838   74.1120  221.4709 H   0  0  0  0  0  0  0  0  0  0  0  0
  135.0906   73.8736  222.5700 H   0  0  0  0  0  0  0  0  0  0  0  0
  136.8250   73.0290  224.5070 H   0  0  0  0  0  0  0  0  0  0  0  0
  134.6936   71.1409  223.0012 H   0  0  0  0  0  0  0  0  0  0  0  0
  134.8112   71.6375  221.3470 H   0  0  0  0  0  0  0  0  0  0  0  0
  137.1289   70.7292  223.2333 H   0  0  0  0  0  0  0  0  0  0  0  0
  135.8969   69.0886  221.8986 H   0  0  0  0  0  0  0  0  0  0  0  0
  136.8138   69.8693  220.5020 H   0  0  0  0  0  0  0  0  0  0  0  0
  138.3581   68.6559  223.8692 H   0  0  0  0  0  0  0  0  0  0  0  0
  136.9277   67.7689  223.2851 H   0  0  0  0  0  0  0  0  0  0  0  0
  139.8769   67.0888  222.9816 H   0  0  0  0  0  0  0  0  0  0  0  0
  138.5577   65.9983  223.3497 H   0  0  0  0  0  0  0  0  0  0  0  0
  139.5860   66.3595  220.8099 H   0  0  0  0  0  0  0  0  0  0  0  0
  137.9147   65.8586  221.0690 H   0  0  0  0  0  0  0  0  0  0  0  0
  138.9647   68.3976  220.1001 H   0  0  0  0  0  0  0  0  0  0  0  0
  137.2606   67.8434  220.1721 H   0  0  0  0  0  0  0  0  0  0  0  0
  140.9301   72.9991  225.0243 H   0  0  0  0  0  0  0  0  0  0  0  0
  141.3009   72.1228  227.3129 H   0  0  0  0  0  0  0  0  0  0  0  0
  141.2288   70.2563  228.8128 H   0  0  0  0  0  0  0  0  0  0  0  0
  139.9456   66.4466  227.3553 H   0  0  0  0  0  0  0  0  0  0  0  0
  139.5859   67.3368  225.0944 H   0  0  0  0  0  0  0  0  0  0  0  0
  1  2  2  0
  2  3  1  0
  3  4  1  0
  4  5  1  0
  5  6  2  0
  5  7  1  0
  7  8  1  0
  8  9  1  0
  9 10  1  0
  9 11  1  0
 11 12  1  0
 12 13  1  0
 13 14  1  0
 14 15  1  0
 15 16  1  0
 16 17  1  0
 17 18  1  0
  2 19  1  0
 19 20  2  0
 20 21  1  0
 21 22  2  0
 22 23  1  0
 23 24  2  0
 24 25  1  0
 24 26  1  0
 26 27  2  0
 27 28  1  0
 28 29  2  0
 12  7  1  0
 18 14  1  0
 29 19  1  0
 28 22  1  0
  3 30  1  0
  4 31  1  0
  4 32  1  0
  8 33  1  0
  8 34  1  0
  9 35  1  1
 10 36  1  0
 11 37  1  0
 11 38  1  0
 12 39  1  1
 13 40  1  0
 13 41  1  0
 15 42  1  0
 15 43  1  0
 16 44  1  0
 16 45  1  0
 17 46  1  0
 17 47  1  0
 18 48  1  0
 18 49  1  0
 20 50  1  0
 21 51  1  0
 23 52  1  0
 26 53  1  0
 27 54  1  0
M  END
>  <smiles>  (2) 
O=C(NCC(=O)N1C[C@H](O)C[C@H]1CN1CCCC1)c1ccc2cc(F)ccc2n1

>  <score_type>  (2) 
oracle

>  <origin>  (2) 
autodockgpu

>  <m_score__min__energy>  (2) 
-8.9700000000000006

>  <m_primary>  (2) 
energy

>  <rmsd>  (2) 
7.207660697227927

>  <m_score__min__rmsd>  (2) 
7.207660697227927

>  <meeko>  (2) 
{"free_energy": -5.63, "intermolecular_energy": -7.72, "internal_energy": -3.29, "cluster_size": 1, "cluster_id": 7, "rank_in_cluster": 1}

>  <energy>  (2) 
-8.86

>  <cluster_rmsd>  (2) 
0.7

>  <cluster>  (2) 
1

$$$$

     RDKit          3D

 54 57  0  0  0  0  0  0  0  0999 V2000
  139.9800   73.5130  222.3920 O   0  0  0  0  0  0  0  0  0  0  0  0
  140.3840   72.3180  222.4790 C   0  0  0  0  0  0  0  0  0  0  0  0
  141.0310   71.6960  221.3510 N   0  0  0  0  0  0  0  0  0  0  0  0
  141.1940   72.4810  220.1440 C   0  0  0  0  0  0  0  0  0  0  0  0
  141.9880   71.6960  219.1350 C   0  0  0  0  0  0  0  0  0  0  0  0
  141.4230   70.7770  218.4950 O   0  0  0  0  0  0  0  0  0  0  0  0
  143.3440   72.0670  218.9870 N   0  0  0  0  0  0  0  0  0  0  0  0
  143.9210   73.3930  218.7580 C   0  0  0  0  0  0  0  0  0  0  0  0
  145.2720   73.3850  219.3810 C   0  0  2  0  0  0  0  0  0  0  0  0
  146.2830   73.3760  218.3960 O   0  0  0  0  0  0  0  0  0  0  0  0
  145.3410   71.9910  220.0310 C   0  0  0  0  0  0  0  0  0  0  0  0
  144.5450   71.1940  219.0260 C   0  0  1  0  0  0  0  0  0  0  0  0
  144.1900   69.8170  219.4170 C   0  0  0  0  0  0  0  0  0  0  0  0
  145.2700   68.8770  219.4310 N   0  0  0  0  0  0  0  0  0  0  0  0
  144.9850   67.5320  219.7140 C   0  0  0  0  0  0  0  0  0  0  0  0
  146.0060   66.6860  218.9780 C   0  0  0  0  0  0  0  0  0  0  0  0
  146.3060   67.5030  217.7660 C   0  0  0  0  0  0  0  0  0  0  0  0
  145.9270   68.8920  218.1360 C   0  0  0  0  0  0  0  0  0  0  0  0
  140.2260   71.5180  223.6890 C   0  0  0  0  0  0  0  0  0  0  0  0
  139.5440   70.3150  223.5630 C   0  0  0  0  0  0  0  0  0  0  0  0
  139.3310   69.4660  224.6260 C   0  0  0  0  0  0  0  0  0  0  0  0
  139.8330   69.8600  225.8630 C   0  0  0  0  0  0  0  0  0  0  0  0
  139.6400   69.0380  226.9440 C   0  0  0  0  0  0  0  0  0  0  0  0
  140.1390   69.4330  228.1610 C   0  0  0  0  0  0  0  0  0  0  0  0
  139.9670   68.6520  229.2340 F   0  0  0  0  0  0  0  0  0  0  0  0
  140.8110   70.6340  228.2490 C   0  0  0  0  0  0  0  0  0  0  0  0
  141.0180   71.4700  227.1880 C   0  0  0  0  0  0  0  0  0  0  0  0
  140.5160   71.0740  225.9570 C   0  0  0  0  0  0  0  0  0  0  0  0
  140.6970   71.8700  224.8880 N   0  0  0  0  0  0  0  0  0  0  0  0
  141.3740   70.7160  221.3880 H   0  0  0  0  0  0  0  0  0  0  0  0
  140.2049   72.7196  219.7261 H   0  0  0  0  0  0  0  0  0  0  0  0
  141.7270   73.4130  220.3834 H   0  0  0  0  0  0  0  0  0  0  0  0
  144.0024   73.5897  217.6788 H   0  0  0  0  0  0  0  0  0  0  0  0
  143.2888   74.1803  219.1945 H   0  0  0  0  0  0  0  0  0  0  0  0
  145.4125   74.2511  220.0445 H   0  0  0  0  0  0  0  0  0  0  0  0
  146.3950   74.2430  217.9550 H   0  0  0  0  0  0  0  0  0  0  0  0
  146.3765   71.6288  220.1114 H   0  0  0  0  0  0  0  0  0  0  0  0
  144.9652   71.9420  221.0637 H   0  0  0  0  0  0  0  0  0  0  0  0
  145.0866   71.0051  218.0874 H   0  0  0  0  0  0  0  0  0  0  0  0
  143.7605   69.8532  220.4290 H   0  0  0  0  0  0  0  0  0  0  0  0
  143.4904   69.4581  218.6478 H   0  0  0  0  0  0  0  0  0  0  0  0
  145.0584   67.3521  220.7967 H   0  0  0  0  0  0  0  0  0  0  0  0
  143.9648   67.2758  219.3923 H   0  0  0  0  0  0  0  0  0  0  0  0
  146.9092   66.5365  219.5878 H   0  0  0  0  0  0  0  0  0  0  0  0
  145.6422   65.6753  218.7409 H   0  0  0  0  0  0  0  0  0  0  0  0
  147.3760   67.4473  217.5171 H   0  0  0  0  0  0  0  0  0  0  0  0
  145.7583   67.1467  216.8811 H   0  0  0  0  0  0  0  0  0  0  0  0
  146.8297   69.5185  218.1883 H   0  0  0  0  0  0  0  0  0  0  0  0
  145.2435   69.3035  217.3787 H   0  0  0  0  0  0  0  0  0  0  0  0
  139.1581   70.0285  222.5735 H   0  0  0  0  0  0  0  0  0  0  0  0
  138.7876   68.5175  224.5029 H   0  0  0  0  0  0  0  0  0  0  0  0
  139.0990   68.0861  226.8387 H   0  0  0  0  0  0  0  0  0  0  0  0
  141.2035   70.9369  229.2310 H   0  0  0  0  0  0  0  0  0  0  0  0
  141.5612   72.4193  227.3055 H   0  0  0  0  0  0  0  0  0  0  0  0
  1  2  2  0
  2  3  1  0
  3  4  1  0
  4  5  1  0
  5  6  2  0
  5  7  1  0
  7  8  1  0
  8  9  1  0
  9 10  1  0
  9 11  1  0
 11 12  1  0
 12 13  1  0
 13 14  1  0
 14 15  1  0
 15 16  1  0
 16 17  1  0
 17 18  1  0
  2 19  1  0
 19 20  2  0
 20 21  1  0
 21 22  2  0
 22 23  1  0
 23 24  2  0
 24 25  1  0
 24 26  1  0
 26 27  2  0
 27 28  1  0
 28 29  2  0
 12  7  1  0
 18 14  1  0
 29 19  1  0
 28 22  1  0
  3 30  1  0
  4 31  1  0
  4 32  1  0
  8 33  1  0
  8 34  1  0
  9 35  1  1
 10 36  1  0
 11 37  1  0
 11 38  1  0
 12 39  1  6
 13 40  1  0
 13 41  1  0
 15 42  1  0
 15 43  1  0
 16 44  1  0
 16 45  1  0
 17 46  1  0
 17 47  1  0
 18 48  1  0
 18 49  1  0
 20 50  1  0
 21 51  1  0
 23 52  1  0
 26 53  1  0
 27 54  1  0
M  END
>  <smiles>  (3) 
O=C(NCC(=O)N1C[C@H](O)C[C@H]1CN1CCCC1)c1ccc2cc(F)ccc2n1

>  <score_type>  (3) 
oracle

>  <origin>  (3) 
autodockgpu

>  <m_score__min__energy>  (3) 
-8.9700000000000006

>  <m_primary>  (3) 
energy

>  <rmsd>  (3) 
6.982061814502803

>  <m_score__min__rmsd>  (3) 
6.982061814502803

>  <meeko>  (3) 
{"free_energy": -8.52, "intermolecular_energy": -10.61, "internal_energy": -1.26, "cluster_size": 5, "cluster_id": 2, "rank_in_cluster": 2}

>  <energy>  (3) 
-8.85

>  <cluster_rmsd>  (3) 
0.68

>  <cluster>  (3) 
1

$$$$

     RDKit          3D

 54 57  0  0  0  0  0  0  0  0999 V2000
  141.3430   72.3070  221.6430 O   0  0  0  0  0  0  0  0  0  0  0  0
  140.4330   72.4800  222.5030 C   0  0  0  0  0  0  0  0  0  0  0  0
  139.5000   73.5690  222.3510 N   0  0  0  0  0  0  0  0  0  0  0  0
  139.6480   74.4340  221.1980 C   0  0  0  0  0  0  0  0  0  0  0  0
  140.4980   75.6210  221.5630 C   0  0  0  0  0  0  0  0  0  0  0  0
  140.3090   76.1910  222.6640 O   0  0  0  0  0  0  0  0  0  0  0  0
  141.4660   76.0090  220.6090 N   0  0  0  0  0  0  0  0  0  0  0  0
  142.2760   75.1730  219.7210 C   0  0  0  0  0  0  0  0  0  0  0  0
  142.5440   75.9810  218.5000 C   0  0  2  0  0  0  0  0  0  0  0  0
  143.8930   76.3910  218.4500 O   0  0  0  0  0  0  0  0  0  0  0  0
  141.7480   77.2730  218.7640 C   0  0  0  0  0  0  0  0  0  0  0  0
  141.9130   77.3810  220.2600 C   0  0  1  0  0  0  0  0  0  0  0  0
  141.0880   78.3990  220.9370 C   0  0  0  0  0  0  0  0  0  0  0  0
  141.5300   78.7910  222.2420 N   0  0  0  0  0  0  0  0  0  0  0  0
  142.5610   79.7380  222.3440 C   0  0  0  0  0  0  0  0  0  0  0  0
  142.3460   80.5070  223.6330 C   0  0  0  0  0  0  0  0  0  0  0  0
  140.8610   80.4940  223.7870 C   0  0  0  0  0  0  0  0  0  0  0  0
  140.4030   79.3320  222.9800 C   0  0  0  0  0  0  0  0  0  0  0  0
  140.2740   71.6160  223.6680 C   0  0  0  0  0  0  0  0  0  0  0  0
  139.6250   70.4040  223.4690 C   0  0  0  0  0  0  0  0  0  0  0  0
  139.4150   69.4970  224.4820 C   0  0  0  0  0  0  0  0  0  0  0  0
  139.8860   69.8390  225.7470 C   0  0  0  0  0  0  0  0  0  0  0  0
  139.6960   68.9580  226.7810 C   0  0  0  0  0  0  0  0  0  0  0  0
  140.1630   69.3010  228.0250 C   0  0  0  0  0  0  0  0  0  0  0  0
  139.9930   68.4620  229.0540 F   0  0  0  0  0  0  0  0  0  0  0  0
  140.8040   70.5120  228.1870 C   0  0  0  0  0  0  0  0  0  0  0  0
  141.0070   71.4070  227.1740 C   0  0  0  0  0  0  0  0  0  0  0  0
  140.5360   71.0630  225.9160 C   0  0  0  0  0  0  0  0  0  0  0  0
  140.7160   71.9160  224.8920 N   0  0  0  0  0  0  0  0  0  0  0  0
  138.7410   73.7400  223.0410 H   0  0  0  0  0  0  0  0  0  0  0  0
  140.1295   73.8762  220.3813 H   0  0  0  0  0  0  0  0  0  0  0  0
  138.6564   74.7812  220.8722 H   0  0  0  0  0  0  0  0  0  0  0  0
  143.2224   74.9037  220.2127 H   0  0  0  0  0  0  0  0  0  0  0  0
  141.7523   74.2387  219.4703 H   0  0  0  0  0  0  0  0  0  0  0  0
  142.2962   75.4206  217.5864 H   0  0  0  0  0  0  0  0  0  0  0  0
  144.4490   75.8080  217.8920 H   0  0  0  0  0  0  0  0  0  0  0  0
  142.1859   78.1363  218.2416 H   0  0  0  0  0  0  0  0  0  0  0  0
  140.7057   77.2551  218.4128 H   0  0  0  0  0  0  0  0  0  0  0  0
  142.9200   77.6982  220.5687 H   0  0  0  0  0  0  0  0  0  0  0  0
  141.0715   79.2971  220.3021 H   0  0  0  0  0  0  0  0  0  0  0  0
  140.1007   77.9361  221.0819 H   0  0  0  0  0  0  0  0  0  0  0  0
  143.5366   79.2303  222.3675 H   0  0  0  0  0  0  0  0  0  0  0  0
  142.5496   80.4185  221.4798 H   0  0  0  0  0  0  0  0  0  0  0  0
  142.8359   80.0042  224.4799 H   0  0  0  0  0  0  0  0  0  0  0  0
  142.7708   81.5214  223.6091 H   0  0  0  0  0  0  0  0  0  0  0  0
  140.5825   80.3654  224.8434 H   0  0  0  0  0  0  0  0  0  0  0  0
  140.4018   81.4364  223.4538 H   0  0  0  0  0  0  0  0  0  0  0  0
  139.9944   78.5587  223.6471 H   0  0  0  0  0  0  0  0  0  0  0  0
  139.6209   79.6548  222.2770 H   0  0  0  0  0  0  0  0  0  0  0  0
  139.2639   70.1592  222.4592 H   0  0  0  0  0  0  0  0  0  0  0  0
  138.8976   68.5434  224.3005 H   0  0  0  0  0  0  0  0  0  0  0  0
  139.1817   67.9996  226.6170 H   0  0  0  0  0  0  0  0  0  0  0  0
  141.1732   70.7724  229.1899 H   0  0  0  0  0  0  0  0  0  0  0  0
  141.5235   72.3622  227.3498 H   0  0  0  0  0  0  0  0  0  0  0  0
  1  2  2  0
  2  3  1  0
  3  4  1  0
  4  5  1  0
  5  6  2  0
  5  7  1  0
  7  8  1  0
  8  9  1  0
  9 10  1  0
  9 11  1  0
 11 12  1  0
 12 13  1  0
 13 14  1  0
 14 15  1  0
 15 16  1  0
 16 17  1  0
 17 18  1  0
  2 19  1  0
 19 20  2  0
 20 21  1  0
 21 22  2  0
 22 23  1  0
 23 24  2  0
 24 25  1  0
 24 26  1  0
 26 27  2  0
 27 28  1  0
 28 29  2  0
 12  7  1  0
 18 14  1  0
 29 19  1  0
 28 22  1  0
  3 30  1  0
  4 31  1  0
  4 32  1  0
  8 33  1  0
  8 34  1  0
  9 35  1  6
 10 36  1  0
 11 37  1  0
 11 38  1  0
 12 39  1  6
 13 40  1  0
 13 41  1  0
 15 42  1  0
 15 43  1  0
 16 44  1  0
 16 45  1  0
 17 46  1  0
 17 47  1  0
 18 48  1  0
 18 49  1  0
 20 50  1  0
 21 51  1  0
 23 52  1  0
 26 53  1  0
 27 54  1  0
M  END
>  <smiles>  (4) 
O=C(NCC(=O)N1C[C@H](O)C[C@H]1CN1CCCC1)c1ccc2cc(F)ccc2n1

>  <score_type>  (4) 
oracle

>  <origin>  (4) 
autodockgpu

>  <m_score__min__energy>  (4) 
-8.9700000000000006

>  <m_primary>  (4) 
energy

>  <rmsd>  (4) 
2.2365072314695893

>  <m_score__min__rmsd>  (4) 
2.2365072314695893

>  <meeko>  (4) 
{"free_energy": -8.43, "intermolecular_energy": -10.51, "internal_energy": -1.34, "cluster_size": 33, "cluster_id": 1, "rank_in_cluster": 17}

>  <energy>  (4) 
-8.85

>  <cluster_rmsd>  (4) 
0.66

>  <cluster>  (4) 
1

$$$$

     RDKit          3D

 54 57  0  0  0  0  0  0  0  0999 V2000
  139.9470   70.9730  221.4480 O   0  0  0  0  0  0  0  0  0  0  0  0
  139.8750   71.4940  222.5970 C   0  0  0  0  0  0  0  0  0  0  0  0
  139.7460   72.9230  222.7310 N   0  0  0  0  0  0  0  0  0  0  0  0
  139.7020   73.7170  221.5210 C   0  0  0  0  0  0  0  0  0  0  0  0
  139.9900   75.1570  221.8520 C   0  0  0  0  0  0  0  0  0  0  0  0
  139.2530   75.7530  222.6740 O   0  0  0  0  0  0  0  0  0  0  0  0
  141.0960   75.7380  221.1910 N   0  0  0  0  0  0  0  0  0  0  0  0
  142.1970   75.0840  220.4800 C   0  0  0  0  0  0  0  0  0  0  0  0
  142.6370   76.0250  219.4150 C   0  0  2  0  0  0  0  0  0  0  0  0
  143.8940   76.5880  219.7230 O   0  0  0  0  0  0  0  0  0  0  0  0
  141.6380   77.1890  219.5520 C   0  0  0  0  0  0  0  0  0  0  0  0
  141.4280   77.1780  221.0470 C   0  0  1  0  0  0  0  0  0  0  0  0
  140.3380   78.0290  221.5600 C   0  0  0  0  0  0  0  0  0  0  0  0
  140.7420   79.1210  222.3940 N   0  0  0  0  0  0  0  0  0  0  0  0
  141.4560   78.8390  223.5700 C   0  0  0  0  0  0  0  0  0  0  0  0
  142.3640   80.0220  223.8450 C   0  0  0  0  0  0  0  0  0  0  0  0
  142.6780   80.5280  222.4770 C   0  0  0  0  0  0  0  0  0  0  0  0
  141.5720   80.0270  221.6190 C   0  0  0  0  0  0  0  0  0  0  0  0
  139.9170   70.7040  223.8240 C   0  0  0  0  0  0  0  0  0  0  0  0
  139.3660   69.4300  223.7700 C   0  0  0  0  0  0  0  0  0  0  0  0
  139.3460   68.5820  224.8540 C   0  0  0  0  0  0  0  0  0  0  0  0
  139.9100   69.0520  226.0370 C   0  0  0  0  0  0  0  0  0  0  0  0
  139.9080   68.2330  227.1380 C   0  0  0  0  0  0  0  0  0  0  0  0
  140.4650   68.7030  228.3010 C   0  0  0  0  0  0  0  0  0  0  0  0
  140.4800   67.9270  229.3920 F   0  0  0  0  0  0  0  0  0  0  0  0
  141.0040   69.9730  228.3190 C   0  0  0  0  0  0  0  0  0  0  0  0
  141.0190   70.8070  227.2360 C   0  0  0  0  0  0  0  0  0  0  0  0
  140.4570   70.3360  226.0600 C   0  0  0  0  0  0  0  0  0  0  0  0
  140.4510   71.1270  224.9710 N   0  0  0  0  0  0  0  0  0  0  0  0
  139.6850   73.3830  223.6620 H   0  0  0  0  0  0  0  0  0  0  0  0
  140.4568   73.3462  220.8120 H   0  0  0  0  0  0  0  0  0  0  0  0
  138.7024   73.6387  221.0685 H   0  0  0  0  0  0  0  0  0  0  0  0
  143.0272   74.8800  221.1722 H   0  0  0  0  0  0  0  0  0  0  0  0
  141.8758   74.1233  220.0512 H   0  0  0  0  0  0  0  0  0  0  0  0
  142.6885   75.5254  218.4363 H   0  0  0  0  0  0  0  0  0  0  0  0
  143.8270   77.3840  220.2900 H   0  0  0  0  0  0  0  0  0  0  0  0
  142.0695   78.1403  219.2072 H   0  0  0  0  0  0  0  0  0  0  0  0
  140.7205   77.0856  218.9540 H   0  0  0  0  0  0  0  0  0  0  0  0
  142.2823   77.5780  221.6128 H   0  0  0  0  0  0  0  0  0  0  0  0
  139.7991   78.4451  220.6960 H   0  0  0  0  0  0  0  0  0  0  0  0
  139.7233   77.3766  222.1976 H   0  0  0  0  0  0  0  0  0  0  0  0
  140.7582   78.6979  224.4086 H   0  0  0  0  0  0  0  0  0  0  0  0
  142.0444   77.9167  223.4550 H   0  0  0  0  0  0  0  0  0  0  0  0
  141.8461   80.7880  224.4408 H   0  0  0  0  0  0  0  0  0  0  0  0
  143.2597   79.7557  224.4253 H   0  0  0  0  0  0  0  0  0  0  0  0
  142.7064   81.6276  222.4684 H   0  0  0  0  0  0  0  0  0  0  0  0
  143.6622   80.1851  222.1251 H   0  0  0  0  0  0  0  0  0  0  0  0
  140.9645   80.8746  221.2689 H   0  0  0  0  0  0  0  0  0  0  0  0
  141.9884   79.4964  220.7501 H   0  0  0  0  0  0  0  0  0  0  0  0
  138.9277   69.0847  222.8221 H   0  0  0  0  0  0  0  0  0  0  0  0
  138.9038   67.5769  224.7885 H   0  0  0  0  0  0  0  0  0  0  0  0
  139.4708   67.2248  227.0897 H   0  0  0  0  0  0  0  0  0  0  0  0
  141.4470   70.3351  229.2585 H   0  0  0  0  0  0  0  0  0  0  0  0
  141.4600   71.8129  227.2956 H   0  0  0  0  0  0  0  0  0  0  0  0
  1  2  2  0
  2  3  1  0
  3  4  1  0
  4  5  1  0
  5  6  2  0
  5  7  1  0
  7  8  1  0
  8  9  1  0
  9 10  1  0
  9 11  1  0
 11 12  1  0
 12 13  1  0
 13 14  1  0
 14 15  1  0
 15 16  1  0
 16 17  1  0
 17 18  1  0
  2 19  1  0
 19 20  2  0
 20 21  1  0
 21 22  2  0
 22 23  1  0
 23 24  2  0
 24 25  1  0
 24 26  1  0
 26 27  2  0
 27 28  1  0
 28 29  2  0
 12  7  1  0
 18 14  1  0
 29 19  1  0
 28 22  1  0
  3 30  1  0
  4 31  1  0
  4 32  1  0
  8 33  1  0
  8 34  1  0
  9 35  1  6
 10 36  1  0
 11 37  1  0
 11 38  1  0
 12 39  1  1
 13 40  1  0
 13 41  1  0
 15 42  1  0
 15 43  1  0
 16 44  1  0
 16 45  1  0
 17 46  1  0
 17 47  1  0
 18 48  1  0
 18 49  1  0
 20 50  1  0
 21 51  1  0
 23 52  1  0
 26 53  1  0
 27 54  1  0
M  END
>  <smiles>  (5) 
O=C(NCC(=O)N1C[C@H](O)C[C@H]1CN1CCCC1)c1ccc2cc(F)ccc2n1

>  <score_type>  (5) 
oracle

>  <origin>  (5) 
autodockgpu

>  <m_score__min__energy>  (5) 
-8.9700000000000006

>  <m_primary>  (5) 
energy

>  <rmsd>  (5) 
1.9018430815803955

>  <m_score__min__rmsd>  (5) 
1.9018430815803955

>  <meeko>  (5) 
{"free_energy": -8.61, "intermolecular_energy": -10.7, "internal_energy": -1.5, "cluster_size": 33, "cluster_id": 1, "rank_in_cluster": 12}

>  <energy>  (5) 
-8.82

>  <cluster_rmsd>  (5) 
0.46

>  <cluster>  (5) 
1

$$$$

     RDKit          3D

 54 57  0  0  0  0  0  0  0  0999 V2000
  140.7380   71.1860  221.4480 O   0  0  0  0  0  0  0  0  0  0  0  0
  140.3180   71.6910  222.5290 C   0  0  0  0  0  0  0  0  0  0  0  0
  139.9210   73.0760  222.5670 N   0  0  0  0  0  0  0  0  0  0  0  0
  140.0220   73.8450  221.3440 C   0  0  0  0  0  0  0  0  0  0  0  0
  140.1970   75.3030  221.6780 C   0  0  0  0  0  0  0  0  0  0  0  0
  139.5650   75.7860  222.6470 O   0  0  0  0  0  0  0  0  0  0  0  0
  141.0830   76.0280  220.8480 N   0  0  0  0  0  0  0  0  0  0  0  0
  141.7880   75.5910  219.6430 C   0  0  0  0  0  0  0  0  0  0  0  0
  141.9630   76.7970  218.7890 C   0  0  2  0  0  0  0  0  0  0  0  0
  143.3110   77.2110  218.7670 O   0  0  0  0  0  0  0  0  0  0  0  0
  141.2250   77.8890  219.5850 C   0  0  0  0  0  0  0  0  0  0  0  0
  141.5290   77.4370  220.9920 C   0  0  1  0  0  0  0  0  0  0  0  0
  140.7930   78.1210  222.0720 C   0  0  0  0  0  0  0  0  0  0  0  0
  141.1500   79.4900  222.2970 N   0  0  0  0  0  0  0  0  0  0  0  0
  140.6090   80.1500  223.4110 C   0  0  0  0  0  0  0  0  0  0  0  0
  141.6160   81.1940  223.8530 C   0  0  0  0  0  0  0  0  0  0  0  0
  142.9230   80.5770  223.4830 C   0  0  0  0  0  0  0  0  0  0  0  0
  142.5930   79.5870  222.4230 C   0  0  0  0  0  0  0  0  0  0  0  0
  140.2110   70.9250  223.7670 C   0  0  0  0  0  0  0  0  0  0  0  0
  139.5610   69.7000  223.6950 C   0  0  0  0  0  0  0  0  0  0  0  0
  139.3970   68.8790  224.7880 C   0  0  0  0  0  0  0  0  0  0  0  0
  139.9180   69.3260  225.9990 C   0  0  0  0  0  0  0  0  0  0  0  0
  139.7740   68.5330  227.1090 C   0  0  0  0  0  0  0  0  0  0  0  0
  140.2900   68.9790  228.3010 C   0  0  0  0  0  0  0  0  0  0  0  0
  140.1660   68.2280  229.4020 F   0  0  0  0  0  0  0  0  0  0  0  0
  140.9300   70.2010  228.3360 C   0  0  0  0  0  0  0  0  0  0  0  0
  141.0870   71.0080  227.2440 C   0  0  0  0  0  0  0  0  0  0  0  0
  140.5680   70.5600  226.0390 C   0  0  0  0  0  0  0  0  0  0  0  0
  140.7010   71.3270  224.9420 N   0  0  0  0  0  0  0  0  0  0  0  0
  139.5720   73.5210  223.4390 H   0  0  0  0  0  0  0  0  0  0  0  0
  140.8880   73.4960  220.7624 H   0  0  0  0  0  0  0  0  0  0  0  0
  139.1042   73.7130  220.7522 H   0  0  0  0  0  0  0  0  0  0  0  0
  142.7685   75.1695  219.9093 H   0  0  0  0  0  0  0  0  0  0  0  0
  141.2213   74.8105  219.1142 H   0  0  0  0  0  0  0  0  0  0  0  0
  141.6196   76.6130  217.7603 H   0  0  0  0  0  0  0  0  0  0  0  0
  143.6310   77.5190  219.6400 H   0  0  0  0  0  0  0  0  0  0  0  0
  141.6332   78.8898  219.3804 H   0  0  0  0  0  0  0  0  0  0  0  0
  140.1548   77.9897  219.3514 H   0  0  0  0  0  0  0  0  0  0  0  0
  142.5672   77.6295  221.3005 H   0  0  0  0  0  0  0  0  0  0  0  0
  139.7217   78.0874  221.8247 H   0  0  0  0  0  0  0  0  0  0  0  0
  141.0543   77.5871  222.9976 H   0  0  0  0  0  0  0  0  0  0  0  0
  139.6605   80.6350  223.1367 H   0  0  0  0  0  0  0  0  0  0  0  0
  140.4063   79.4373  224.2240 H   0  0  0  0  0  0  0  0  0  0  0  0
  141.4616   82.1433  223.3191 H   0  0  0  0  0  0  0  0  0  0  0  0
  141.5413   81.4433  224.9218 H   0  0  0  0  0  0  0  0  0  0  0  0
  143.6157   81.3398  223.0979 H   0  0  0  0  0  0  0  0  0  0  0  0
  143.4190   80.1093  224.3462 H   0  0  0  0  0  0  0  0  0  0  0  0
  143.0253   79.9141  221.4659 H   0  0  0  0  0  0  0  0  0  0  0  0
  143.0087   78.6044  222.6909 H   0  0  0  0  0  0  0  0  0  0  0  0
  139.1605   69.3719  222.7244 H   0  0  0  0  0  0  0  0  0  0  0  0
  138.8774   67.9128  224.7079 H   0  0  0  0  0  0  0  0  0  0  0  0
  139.2579   67.5636  227.0459 H   0  0  0  0  0  0  0  0  0  0  0  0
  141.3372   70.5455  229.2980 H   0  0  0  0  0  0  0  0  0  0  0  0
  141.6051   71.9755  227.3184 H   0  0  0  0  0  0  0  0  0  0  0  0
  1  2  2  0
  2  3  1  0
  3  4  1  0
  4  5  1  0
  5  6  2  0
  5  7  1  0
  7  8  1  0
  8  9  1  0
  9 10  1  0
  9 11  1  0
 11 12  1  0
 12 13  1  0
 13 14  1  0
 14 15  1  0
 15 16  1  0
 16 17  1  0
 17 18  1  0
  2 19  1  0
 19 20  2  0
 20 21  1  0
 21 22  2  0
 22 23  1  0
 23 24  2  0
 24 25  1  0
 24 26  1  0
 26 27  2  0
 27 28  1  0
 28 29  2  0
 12  7  1  0
 18 14  1  0
 29 19  1  0
 28 22  1  0
  3 30  1  0
  4 31  1  0
  4 32  1  0
  8 33  1  0
  8 34  1  0
  9 35  1  6
 10 36  1  0
 11 37  1  0
 11 38  1  0
 12 39  1  1
 13 40  1  0
 13 41  1  0
 15 42  1  0
 15 43  1  0
 16 44  1  0
 16 45  1  0
 17 46  1  0
 17 47  1  0
 18 48  1  0
 18 49  1  0
 20 50  1  0
 21 51  1  0
 23 52  1  0
 26 53  1  0
 27 54  1  0
M  END
>  <smiles>  (6) 
O=C(NCC(=O)N1C[C@H](O)C[C@H]1CN1CCCC1)c1ccc2cc(F)ccc2n1

>  <score_type>  (6) 
oracle

>  <origin>  (6) 
autodockgpu

>  <m_score__min__energy>  (6) 
-8.9700000000000006

>  <m_primary>  (6) 
energy

>  <rmsd>  (6) 
1.981764393258677

>  <m_score__min__rmsd>  (6) 
1.981764393258677

>  <meeko>  (6) 
{"free_energy": -8.56, "intermolecular_energy": -10.65, "internal_energy": -1.45, "cluster_size": 33, "cluster_id": 1, "rank_in_cluster": 13}

>  <energy>  (6) 
-8.77

>  <cluster_rmsd>  (6) 
0.63

>  <cluster>  (6) 
1

$$$$

     RDKit          3D

 54 57  0  0  0  0  0  0  0  0999 V2000
  140.8920   71.8630  221.2410 O   0  0  0  0  0  0  0  0  0  0  0  0
  140.3900   72.3190  222.3090 C   0  0  0  0  0  0  0  0  0  0  0  0
  139.9440   73.6880  222.3640 N   0  0  0  0  0  0  0  0  0  0  0  0
  140.0900   74.4990  221.1730 C   0  0  0  0  0  0  0  0  0  0  0  0
  140.6350   75.8510  221.5470 C   0  0  0  0  0  0  0  0  0  0  0  0
  140.4460   76.2850  222.7080 O   0  0  0  0  0  0  0  0  0  0  0  0
  141.3350   76.5420  220.5300 N   0  0  0  0  0  0  0  0  0  0  0  0
  142.2510   76.0160  219.5170 C   0  0  0  0  0  0  0  0  0  0  0  0
  142.1330   76.9070  218.3310 C   0  0  2  0  0  0  0  0  0  0  0  0
  143.2880   77.7020  218.1770 O   0  0  0  0  0  0  0  0  0  0  0  0
  141.0270   77.8920  218.7510 C   0  0  0  0  0  0  0  0  0  0  0  0
  141.3180   77.9960  220.2290 C   0  0  1  0  0  0  0  0  0  0  0  0
  140.3090   78.6970  221.0450 C   0  0  0  0  0  0  0  0  0  0  0  0
  140.8250   79.6140  222.0170 N   0  0  0  0  0  0  0  0  0  0  0  0
  141.0180   79.1610  223.3320 C   0  0  0  0  0  0  0  0  0  0  0  0
  142.1740   79.9470  223.9190 C   0  0  0  0  0  0  0  0  0  0  0  0
  143.0290   80.2260  222.7270 C   0  0  0  0  0  0  0  0  0  0  0  0
  142.1120   80.1110  221.5620 C   0  0  0  0  0  0  0  0  0  0  0  0
  140.2370   71.5110  223.5150 C   0  0  0  0  0  0  0  0  0  0  0  0
  139.6000   70.2850  223.3740 C   0  0  0  0  0  0  0  0  0  0  0  0
  139.3960   69.4270  224.4310 C   0  0  0  0  0  0  0  0  0  0  0  0
  139.8620   69.8360  225.6780 C   0  0  0  0  0  0  0  0  0  0  0  0
  139.6770   69.0050  226.7530 C   0  0  0  0  0  0  0  0  0  0  0  0
  140.1390   69.4140  227.9800 C   0  0  0  0  0  0  0  0  0  0  0  0
  139.9740   68.6250  229.0490 F   0  0  0  0  0  0  0  0  0  0  0  0
  140.7670   70.6370  228.0830 C   0  0  0  0  0  0  0  0  0  0  0  0
  140.9650   71.4820  227.0270 C   0  0  0  0  0  0  0  0  0  0  0  0
  140.5000   71.0720  225.7870 C   0  0  0  0  0  0  0  0  0  0  0  0
  140.6730   71.8760  224.7220 N   0  0  0  0  0  0  0  0  0  0  0  0
  139.5280   74.0940  223.2260 H   0  0  0  0  0  0  0  0  0  0  0  0
  140.7830   74.0048  220.4762 H   0  0  0  0  0  0  0  0  0  0  0  0
  139.1086   74.6210  220.6914 H   0  0  0  0  0  0  0  0  0  0  0  0
  143.2831   76.0256  219.8974 H   0  0  0  0  0  0  0  0  0  0  0  0
  142.0005   74.9767  219.2580 H   0  0  0  0  0  0  0  0  0  0  0  0
  141.9610   76.3282  217.4115 H   0  0  0  0  0  0  0  0  0  0  0  0
  143.7470   77.8780  219.0240 H   0  0  0  0  0  0  0  0  0  0  0  0
  141.1311   78.8631  218.2449 H   0  0  0  0  0  0  0  0  0  0  0  0
  140.0039   77.5748  218.5009 H   0  0  0  0  0  0  0  0  0  0  0  0
  142.2148   78.5896  220.4600 H   0  0  0  0  0  0  0  0  0  0  0  0
  139.6545   79.2598  220.3632 H   0  0  0  0  0  0  0  0  0  0  0  0
  139.7892   77.9143  221.6171 H   0  0  0  0  0  0  0  0  0  0  0  0
  140.1078   79.3317  223.9256 H   0  0  0  0  0  0  0  0  0  0  0  0
  141.2371   78.0831  223.3425 H   0  0  0  0  0  0  0  0  0  0  0  0
  141.8227   80.8813  224.3812 H   0  0  0  0  0  0  0  0  0  0  0  0
  142.7049   79.4071  224.7169 H   0  0  0  0  0  0  0  0  0  0  0  0
  143.4555   81.2383  222.7852 H   0  0  0  0  0  0  0  0  0  0  0  0
  143.8784   79.5307  222.6552 H   0  0  0  0  0  0  0  0  0  0  0  0
  141.9817   81.0993  221.0969 H   0  0  0  0  0  0  0  0  0  0  0  0
  142.5373   79.4160  220.8230 H   0  0  0  0  0  0  0  0  0  0  0  0
  139.2439   69.9873  222.3767 H   0  0  0  0  0  0  0  0  0  0  0  0
  138.8873   68.4610  224.2966 H   0  0  0  0  0  0  0  0  0  0  0  0
  139.1713   68.0352  226.6356 H   0  0  0  0  0  0  0  0  0  0  0  0
  141.1299   70.9511  229.0728 H   0  0  0  0  0  0  0  0  0  0  0  0
  141.4732   72.4490  227.1560 H   0  0  0  0  0  0  0  0  0  0  0  0
  1  2  2  0
  2  3  1  0
  3  4  1  0
  4  5  1  0
  5  6  2  0
  5  7  1  0
  7  8  1  0
  8  9  1  0
  9 10  1  0
  9 11  1  0
 11 12  1  0
 12 13  1  0
 13 14  1  0
 14 15  1  0
 15 16  1  0
 16 17  1  0
 17 18  1  0
  2 19  1  0
 19 20  2  0
 20 21  1  0
 21 22  2  0
 22 23  1  0
 23 24  2  0
 24 25  1  0
 24 26  1  0
 26 27  2  0
 27 28  1  0
 28 29  2  0
 12  7  1  0
 18 14  1  0
 29 19  1  0
 28 22  1  0
  3 30  1  0
  4 31  1  0
  4 32  1  0
  8 33  1  0
  8 34  1  0
  9 35  1  6
 10 36  1  0
 11 37  1  0
 11 38  1  0
 12 39  1  6
 13 40  1  0
 13 41  1  0
 15 42  1  0
 15 43  1  0
 16 44  1  0
 16 45  1  0
 17 46  1  0
 17 47  1  0
 18 48  1  0
 18 49  1  0
 20 50  1  0
 21 51  1  0
 23 52  1  0
 26 53  1  0
 27 54  1  0
M  END
>  <smiles>  (7) 
O=C(NCC(=O)N1C[C@H](O)C[C@H]1CN1CCCC1)c1ccc2cc(F)ccc2n1

>  <score_type>  (7) 
oracle

>  <origin>  (7) 
autodockgpu

>  <m_score__min__energy>  (7) 
-8.9700000000000006

>  <m_primary>  (7) 
energy

>  <rmsd>  (7) 
1.958493918901964

>  <m_score__min__rmsd>  (7) 
1.958493918901964

>  <meeko>  (7) 
{"free_energy": -8.2, "intermolecular_energy": -10.29, "internal_energy": -1.73, "cluster_size": 33, "cluster_id": 1, "rank_in_cluster": 21}

>  <energy>  (7) 
-8.75

>  <cluster_rmsd>  (7) 
0.65

>  <cluster>  (7) 
1

$$$$

     RDKit          3D

 54 57  0  0  0  0  0  0  0  0999 V2000
  141.1760   71.7280  221.3450 O   0  0  0  0  0  0  0  0  0  0  0  0
  140.6020   72.2500  222.3430 C   0  0  0  0  0  0  0  0  0  0  0  0
  140.1970   73.6320  222.2970 N   0  0  0  0  0  0  0  0  0  0  0  0
  140.4690   74.3800  221.0870 C   0  0  0  0  0  0  0  0  0  0  0  0
  140.5660   75.8470  221.4100 C   0  0  0  0  0  0  0  0  0  0  0  0
  140.0460   76.2730  222.4690 O   0  0  0  0  0  0  0  0  0  0  0  0
  141.2520   76.6460  220.4680 N   0  0  0  0  0  0  0  0  0  0  0  0
  142.1520   76.2380  219.3880 C   0  0  0  0  0  0  0  0  0  0  0  0
  142.0190   77.2570  218.3120 C   0  0  2  0  0  0  0  0  0  0  0  0
  143.1740   78.0630  218.2320 O   0  0  0  0  0  0  0  0  0  0  0  0
  140.9220   78.1900  218.8590 C   0  0  0  0  0  0  0  0  0  0  0  0
  141.2360   78.1260  220.3340 C   0  0  1  0  0  0  0  0  0  0  0  0
  140.2420   78.7310  221.2400 C   0  0  0  0  0  0  0  0  0  0  0  0
  140.7550   79.6880  222.1740 N   0  0  0  0  0  0  0  0  0  0  0  0
  141.0670   79.2570  223.4730 C   0  0  0  0  0  0  0  0  0  0  0  0
  142.2000   80.1270  223.9810 C   0  0  0  0  0  0  0  0  0  0  0  0
  142.9520   80.4580  222.7350 C   0  0  0  0  0  0  0  0  0  0  0  0
  141.9710   80.2720  221.6340 C   0  0  0  0  0  0  0  0  0  0  0  0
  140.3220   71.5070  223.5680 C   0  0  0  0  0  0  0  0  0  0  0  0
  139.5680   70.3480  223.4420 C   0  0  0  0  0  0  0  0  0  0  0  0
  139.2380   69.5540  224.5170 C   0  0  0  0  0  0  0  0  0  0  0  0
  139.6970   69.9580  225.7680 C   0  0  0  0  0  0  0  0  0  0  0  0
  139.3880   69.1910  226.8620 C   0  0  0  0  0  0  0  0  0  0  0  0
  139.8440   69.5950  228.0920 C   0  0  0  0  0  0  0  0  0  0  0  0
  139.5600   68.8670  229.1790 F   0  0  0  0  0  0  0  0  0  0  0  0
  140.5910   70.7510  228.1810 C   0  0  0  0  0  0  0  0  0  0  0  0
  140.9130   71.5320  227.1060 C   0  0  0  0  0  0  0  0  0  0  0  0
  140.4550   71.1270  225.8620 C   0  0  0  0  0  0  0  0  0  0  0  0
  140.7490   71.8690  224.7800 N   0  0  0  0  0  0  0  0  0  0  0  0
  139.7250   74.0920  223.1020 H   0  0  0  0  0  0  0  0  0  0  0  0
  141.4192   74.0377  220.6511 H   0  0  0  0  0  0  0  0  0  0  0  0
  139.6534   74.2181  220.3669 H   0  0  0  0  0  0  0  0  0  0  0  0
  143.1896   76.2041  219.7517 H   0  0  0  0  0  0  0  0  0  0  0  0
  141.8949   75.2350  219.0167 H   0  0  0  0  0  0  0  0  0  0  0  0
  141.8316   76.7866  217.3355 H   0  0  0  0  0  0  0  0  0  0  0  0
  143.2830   78.4890  217.3570 H   0  0  0  0  0  0  0  0  0  0  0  0
  141.0210   79.2120  218.4644 H   0  0  0  0  0  0  0  0  0  0  0  0
  139.8942   77.9041  218.5910 H   0  0  0  0  0  0  0  0  0  0  0  0
  142.1381   78.6885  220.6164 H   0  0  0  0  0  0  0  0  0  0  0  0
  139.4838   79.2344  220.6222 H   0  0  0  0  0  0  0  0  0  0  0  0
  139.8453   77.9031  221.8460 H   0  0  0  0  0  0  0  0  0  0  0  0
  140.1884   79.3652  224.1260 H   0  0  0  0  0  0  0  0  0  0  0  0
  141.3631   78.1976  223.4695 H   0  0  0  0  0  0  0  0  0  0  0  0
  141.8141   81.0370  224.4637 H   0  0  0  0  0  0  0  0  0  0  0  0
  142.8195   79.6316  224.7431 H   0  0  0  0  0  0  0  0  0  0  0  0
  143.3090   81.4981  222.7634 H   0  0  0  0  0  0  0  0  0  0  0  0
  143.8416   79.8236  222.6079 H   0  0  0  0  0  0  0  0  0  0  0  0
  141.7406   81.2459  221.1775 H   0  0  0  0  0  0  0  0  0  0  0  0
  142.3946   79.6045  220.8691 H   0  0  0  0  0  0  0  0  0  0  0  0
  139.2198   70.0519  222.4415 H   0  0  0  0  0  0  0  0  0  0  0  0
  138.6380   68.6404  224.3932 H   0  0  0  0  0  0  0  0  0  0  0  0
  138.7893   68.2743  226.7564 H   0  0  0  0  0  0  0  0  0  0  0  0
  140.9482   71.0624  229.1737 H   0  0  0  0  0  0  0  0  0  0  0  0
  141.5125   72.4467  227.2238 H   0  0  0  0  0  0  0  0  0  0  0  0
  1  2  2  0
  2  3  1  0
  3  4  1  0
  4  5  1  0
  5  6  2  0
  5  7  1  0
  7  8  1  0
  8  9  1  0
  9 10  1  0
  9 11  1  0
 11 12  1  0
 12 13  1  0
 13 14  1  0
 14 15  1  0
 15 16  1  0
 16 17  1  0
 17 18  1  0
  2 19  1  0
 19 20  2  0
 20 21  1  0
 21 22  2  0
 22 23  1  0
 23 24  2  0
 24 25  1  0
 24 26  1  0
 26 27  2  0
 27 28  1  0
 28 29  2  0
 12  7  1  0
 18 14  1  0
 29 19  1  0
 28 22  1  0
  3 30  1  0
  4 31  1  0
  4 32  1  0
  8 33  1  0
  8 34  1  0
  9 35  1  6
 10 36  1  0
 11 37  1  0
 11 38  1  0
 12 39  1  6
 13 40  1  0
 13 41  1  0
 15 42  1  0
 15 43  1  0
 16 44  1  0
 16 45  1  0
 17 46  1  0
 17 47  1  0
 18 48  1  0
 18 49  1  0
 20 50  1  0
 21 51  1  0
 23 52  1  0
 26 53  1  0
 27 54  1  0
M  END
>  <smiles>  (8) 
O=C(NCC(=O)N1C[C@H](O)C[C@H]1CN1CCCC1)c1ccc2cc(F)ccc2n1

>  <score_type>  (8) 
oracle

>  <origin>  (8) 
autodockgpu

>  <m_score__min__energy>  (8) 
-8.9700000000000006

>  <m_primary>  (8) 
energy

>  <rmsd>  (8) 
2.0388354794218655

>  <m_score__min__rmsd>  (8) 
2.0388354794218655

>  <meeko>  (8) 
{"free_energy": -7.79, "intermolecular_energy": -9.88, "internal_energy": -1.76, "cluster_size": 33, "cluster_id": 1, "rank_in_cluster": 29}

>  <energy>  (8) 
-8.74

>  <cluster_rmsd>  (8) 
0.56

>  <cluster>  (8) 
1

$$$$

     RDKit          3D

 54 57  0  0  0  0  0  0  0  0999 V2000
  139.8760   73.4890  222.5230 O   0  0  0  0  0  0  0  0  0  0  0  0
  140.3570   72.3240  222.6140 C   0  0  0  0  0  0  0  0  0  0  0  0
  141.0870   71.7600  221.5060 N   0  0  0  0  0  0  0  0  0  0  0  0
  141.2410   72.5670  220.3140 C   0  0  0  0  0  0  0  0  0  0  0  0
  141.9850   71.7830  219.2660 C   0  0  0  0  0  0  0  0  0  0  0  0
  141.3770   70.8980  218.6210 O   0  0  0  0  0  0  0  0  0  0  0  0
  143.3480   72.1180  219.0910 N   0  0  0  0  0  0  0  0  0  0  0  0
  143.9550   73.4270  218.8460 C   0  0  0  0  0  0  0  0  0  0  0  0
  145.3170   73.3860  219.4430 C   0  0  2  0  0  0  0  0  0  0  0  0
  146.3090   73.3460  218.4410 O   0  0  0  0  0  0  0  0  0  0  0  0
  145.3610   71.9930  220.0990 C   0  0  0  0  0  0  0  0  0  0  0  0
  144.5250   71.2140  219.1130 C   0  0  1  0  0  0  0  0  0  0  0  0
  144.1410   69.8480  219.5170 C   0  0  0  0  0  0  0  0  0  0  0  0
  145.2050   68.8900  219.5590 N   0  0  0  0  0  0  0  0  0  0  0  0
  144.8840   67.5410  219.7790 C   0  0  0  0  0  0  0  0  0  0  0  0
  145.9330   66.7040  219.0730 C   0  0  0  0  0  0  0  0  0  0  0  0
  146.3130   67.5560  217.9080 C   0  0  0  0  0  0  0  0  0  0  0  0
  145.9340   68.9380  218.3040 C   0  0  0  0  0  0  0  0  0  0  0  0
  140.2080   71.5010  223.8110 C   0  0  0  0  0  0  0  0  0  0  0  0
  139.5080   70.3100  223.6720 C   0  0  0  0  0  0  0  0  0  0  0  0
  139.3010   69.4420  224.7200 C   0  0  0  0  0  0  0  0  0  0  0  0
  139.8300   69.8040  225.9560 C   0  0  0  0  0  0  0  0  0  0  0  0
  139.6440   68.9620  227.0240 C   0  0  0  0  0  0  0  0  0  0  0  0
  140.1670   69.3250  228.2400 C   0  0  0  0  0  0  0  0  0  0  0  0
  140.0030   68.5250  229.3000 F   0  0  0  0  0  0  0  0  0  0  0  0
  140.8580   70.5150  228.3410 C   0  0  0  0  0  0  0  0  0  0  0  0
  141.0580   71.3700  227.2930 C   0  0  0  0  0  0  0  0  0  0  0  0
  140.5300   71.0070  226.0640 C   0  0  0  0  0  0  0  0  0  0  0  0
  140.7040   71.8220  225.0080 N   0  0  0  0  0  0  0  0  0  0  0  0
  141.4940   70.8050  221.5480 H   0  0  0  0  0  0  0  0  0  0  0  0
  140.2486   72.8436  219.9284 H   0  0  0  0  0  0  0  0  0  0  0  0
  141.8074   73.4774  220.5598 H   0  0  0  0  0  0  0  0  0  0  0  0
  144.0208   73.6178  217.7647 H   0  0  0  0  0  0  0  0  0  0  0  0
  143.3521   74.2320  219.2916 H   0  0  0  0  0  0  0  0  0  0  0  0
  145.4927   74.2515  220.0988 H   0  0  0  0  0  0  0  0  0  0  0  0
  146.3700   74.1790  217.9300 H   0  0  0  0  0  0  0  0  0  0  0  0
  146.3877   71.6032  220.1616 H   0  0  0  0  0  0  0  0  0  0  0  0
  145.0040   71.9585  221.1389 H   0  0  0  0  0  0  0  0  0  0  0  0
  145.0437   71.0070  218.1653 H   0  0  0  0  0  0  0  0  0  0  0  0
  143.6978   69.9050  220.5221 H   0  0  0  0  0  0  0  0  0  0  0  0
  143.4465   69.4906  218.7425 H   0  0  0  0  0  0  0  0  0  0  0  0
  144.8927   67.3235  220.8573 H   0  0  0  0  0  0  0  0  0  0  0  0
  143.8800   67.3127  219.3919 H   0  0  0  0  0  0  0  0  0  0  0  0
  146.7980   66.5199  219.7271 H   0  0  0  0  0  0  0  0  0  0  0  0
  145.5689   65.7078  218.7814 H   0  0  0  0  0  0  0  0  0  0  0  0
  147.3944   67.4909  217.7176 H   0  0  0  0  0  0  0  0  0  0  0  0
  145.8111   67.2386  216.9821 H   0  0  0  0  0  0  0  0  0  0  0  0
  146.8413   69.5474  218.4282 H   0  0  0  0  0  0  0  0  0  0  0  0
  145.3004   69.3861  217.5244 H   0  0  0  0  0  0  0  0  0  0  0  0
  139.1021   70.0493  222.6834 H   0  0  0  0  0  0  0  0  0  0  0  0
  138.7423   68.5038  224.5869 H   0  0  0  0  0  0  0  0  0  0  0  0
  139.0893   68.0192  226.9082 H   0  0  0  0  0  0  0  0  0  0  0  0
  141.2721   70.7919  229.3217 H   0  0  0  0  0  0  0  0  0  0  0  0
  141.6162   72.3093  227.4203 H   0  0  0  0  0  0  0  0  0  0  0  0
  1  2  2  0
  2  3  1  0
  3  4  1  0
  4  5  1  0
  5  6  2  0
  5  7  1  0
  7  8  1  0
  8  9  1  0
  9 10  1  0
  9 11  1  0
 11 12  1  0
 12 13  1  0
 13 14  1  0
 14 15  1  0
 15 16  1  0
 16 17  1  0
 17 18  1  0
  2 19  1  0
 19 20  2  0
 20 21  1  0
 21 22  2  0
 22 23  1  0
 23 24  2  0
 24 25  1  0
 24 26  1  0
 26 27  2  0
 27 28  1  0
 28 29  2  0
 12  7  1  0
 18 14  1  0
 29 19  1  0
 28 22  1  0
  3 30  1  0
  4 31  1  0
  4 32  1  0
  8 33  1  0
  8 34  1  0
  9 35  1  1
 10 36  1  0
 11 37  1  0
 11 38  1  0
 12 39  1  6
 13 40  1  0
 13 41  1  0
 15 42  1  0
 15 43  1  0
 16 44  1  0
 16 45  1  0
 17 46  1  0
 17 47  1  0
 18 48  1  0
 18 49  1  0
 20 50  1  0
 21 51  1  0
 23 52  1  0
 26 53  1  0
 27 54  1  0
M  END
>  <smiles>  (9) 
O=C(NCC(=O)N1C[C@H](O)C[C@H]1CN1CCCC1)c1ccc2cc(F)ccc2n1

>  <score_type>  (9) 
oracle

>  <origin>  (9) 
autodockgpu

>  <m_score__min__energy>  (9) 
-8.9700000000000006

>  <m_primary>  (9) 
energy

>  <rmsd>  (9) 
6.961832424736034

>  <m_score__min__rmsd>  (9) 
6.961832424736034

>  <meeko>  (9) 
{"free_energy": -8.52, "intermolecular_energy": -10.61, "internal_energy": -1.25, "cluster_size": 5, "cluster_id": 2, "rank_in_cluster": 1}

>  <energy>  (9) 
-8.72

>  <cluster_rmsd>  (9) 
0.62

>  <cluster>  (9) 
1

$$$$

     RDKit          3D

 54 57  0  0  0  0  0  0  0  0999 V2000
  140.7880   71.8270  221.1880 O   0  0  0  0  0  0  0  0  0  0  0  0
  140.2940   72.3180  222.2440 C   0  0  0  0  0  0  0  0  0  0  0  0
  139.8560   73.6910  222.2590 N   0  0  0  0  0  0  0  0  0  0  0  0
  140.0010   74.4640  221.0430 C   0  0  0  0  0  0  0  0  0  0  0  0
  141.4410   74.8670  220.8690 C   0  0  0  0  0  0  0  0  0  0  0  0
  142.3430   74.0620  221.2040 O   0  0  0  0  0  0  0  0  0  0  0  0
  141.6660   76.1540  220.3300 N   0  0  0  0  0  0  0  0  0  0  0  0
  142.1130   76.5300  218.9870 C   0  0  0  0  0  0  0  0  0  0  0  0
  141.5160   77.8610  218.6950 C   0  0  2  0  0  0  0  0  0  0  0  0
  142.5000   78.8720  218.7120 O   0  0  0  0  0  0  0  0  0  0  0  0
  140.6510   78.1290  219.9410 C   0  0  0  0  0  0  0  0  0  0  0  0
  141.5040   77.4700  220.9980 C   0  0  1  0  0  0  0  0  0  0  0  0
  140.8910   77.3190  222.3310 C   0  0  0  0  0  0  0  0  0  0  0  0
  141.2150   78.3400  223.2830 N   0  0  0  0  0  0  0  0  0  0  0  0
  142.3740   79.1040  223.0790 C   0  0  0  0  0  0  0  0  0  0  0  0
  142.1250   80.4750  223.6770 C   0  0  0  0  0  0  0  0  0  0  0  0
  140.6560   80.6590  223.4950 C   0  0  0  0  0  0  0  0  0  0  0  0
  140.1120   79.2820  223.3590 C   0  0  0  0  0  0  0  0  0  0  0  0
  140.1430   71.5490  223.4750 C   0  0  0  0  0  0  0  0  0  0  0  0
  139.3870   70.3860  223.4010 C   0  0  0  0  0  0  0  0  0  0  0  0
  139.1700   69.5690  224.4870 C   0  0  0  0  0  0  0  0  0  0  0  0
  139.7490   69.9530  225.6940 C   0  0  0  0  0  0  0  0  0  0  0  0
  139.5550   69.1610  226.7970 C   0  0  0  0  0  0  0  0  0  0  0  0
  140.1280   69.5450  227.9840 C   0  0  0  0  0  0  0  0  0  0  0  0
  139.9580   68.7930  229.0780 F   0  0  0  0  0  0  0  0  0  0  0  0
  140.8730   70.7060  228.0210 C   0  0  0  0  0  0  0  0  0  0  0  0
  141.0820   71.5100  226.9360 C   0  0  0  0  0  0  0  0  0  0  0  0
  140.5050   71.1250  225.7360 C   0  0  0  0  0  0  0  0  0  0  0  0
  140.6850   71.8910  224.6450 N   0  0  0  0  0  0  0  0  0  0  0  0
  139.4470   74.1260  223.1100 H   0  0  0  0  0  0  0  0  0  0  0  0
  139.6846   73.8558  220.1828 H   0  0  0  0  0  0  0  0  0  0  0  0
  139.3746   75.3659  221.1068 H   0  0  0  0  0  0  0  0  0  0  0  0
  143.2108   76.5919  218.9563 H   0  0  0  0  0  0  0  0  0  0  0  0
  141.7996   75.7837  218.2422 H   0  0  0  0  0  0  0  0  0  0  0  0
  141.0024   77.8649  217.7223 H   0  0  0  0  0  0  0  0  0  0  0  0
  143.3670   78.5560  219.0390 H   0  0  0  0  0  0  0  0  0  0  0  0
  140.5277   79.2058  220.1286 H   0  0  0  0  0  0  0  0  0  0  0  0
  139.6188   77.7541  219.8781 H   0  0  0  0  0  0  0  0  0  0  0  0
  142.4078   78.0427  221.2534 H   0  0  0  0  0  0  0  0  0  0  0  0
  139.7986   77.3116  222.2018 H   0  0  0  0  0  0  0  0  0  0  0  0
  141.2975   76.3840  222.7439 H   0  0  0  0  0  0  0  0  0  0  0  0
  143.2312   78.6269  223.5766 H   0  0  0  0  0  0  0  0  0  0  0  0
  142.6022   79.1842  222.0059 H   0  0  0  0  0  0  0  0  0  0  0  0
  142.3971   80.4968  224.7426 H   0  0  0  0  0  0  0  0  0  0  0  0
  142.7229   81.2687  223.2052 H   0  0  0  0  0  0  0  0  0  0  0  0
  140.2180   81.1636  224.3688 H   0  0  0  0  0  0  0  0  0  0  0  0
  140.4222   81.2848  222.6211 H   0  0  0  0  0  0  0  0  0  0  0  0
  139.4854   79.0457  224.2317 H   0  0  0  0  0  0  0  0  0  0  0  0
  139.5025   79.2131  222.4459 H   0  0  0  0  0  0  0  0  0  0  0  0
  138.9433   70.1064  222.4341 H   0  0  0  0  0  0  0  0  0  0  0  0
  138.5660   68.6533  224.4053 H   0  0  0  0  0  0  0  0  0  0  0  0
  138.9553   68.2412  226.7321 H   0  0  0  0  0  0  0  0  0  0  0  0
  141.3248   71.0014  228.9794 H   0  0  0  0  0  0  0  0  0  0  0  0
  141.6847   72.4271  227.0120 H   0  0  0  0  0  0  0  0  0  0  0  0
  1  2  2  0
  2  3  1  0
  3  4  1  0
  4  5  1  0
  5  6  2  0
  5  7  1  0
  7  8  1  0
  8  9  1  0
  9 10  1  0
  9 11  1  0
 11 12  1  0
 12 13  1  0
 13 14  1  0
 14 15  1  0
 15 16  1  0
 16 17  1  0
 17 18  1  0
  2 19  1  0
 19 20  2  0
 20 21  1  0
 21 22  2  0
 22 23  1  0
 23 24  2  0
 24 25  1  0
 24 26  1  0
 26 27  2  0
 27 28  1  0
 28 29  2  0
 12  7  1  0
 18 14  1  0
 29 19  1  0
 28 22  1  0
  3 30  1  0
  4 31  1  0
  4 32  1  0
  8 33  1  0
  8 34  1  0
  9 35  1  6
 10 36  1  0
 11 37  1  0
 11 38  1  0
 12 39  1  1
 13 40  1  0
 13 41  1  0
 15 42  1  0
 15 43  1  0
 16 44  1  0
 16 45  1  0
 17 46  1  0
 17 47  1  0
 18 48  1  0
 18 49  1  0
 20 50  1  0
 21 51  1  0
 23 52  1  0
 26 53  1  0
 27 54  1  0
M  END
>  <smiles>  (10) 
O=C(NCC(=O)N1C[C@H](O)C[C@H]1CN1CCCC1)c1ccc2cc(F)ccc2n1

>  <score_type>  (10) 
oracle

>  <origin>  (10) 
autodockgpu

>  <m_score__min__energy>  (10) 
-8.9700000000000006

>  <m_primary>  (10) 
energy

>  <rmsd>  (10) 
2.331326513330422

>  <m_score__min__rmsd>  (10) 
2.331326513330422

>  <meeko>  (10) 
{"free_energy": -8.19, "intermolecular_energy": -10.28, "internal_energy": -1.28, "cluster_size": 33, "cluster_id": 1, "rank_in_cluster": 24}

>  <energy>  (10) 
-8.64

>  <cluster_rmsd>  (10) 
0.85

>  <cluster>  (10) 
1

$$$$

     RDKit          3D

 54 57  0  0  0  0  0  0  0  0999 V2000
  138.0870   70.9260  221.8640 O   0  0  0  0  0  0  0  0  0  0  0  0
  138.8190   71.3760  222.7920 C   0  0  0  0  0  0  0  0  0  0  0  0
  139.3200   72.7250  222.7200 N   0  0  0  0  0  0  0  0  0  0  0  0
  138.9560   73.5240  221.5680 C   0  0  0  0  0  0  0  0  0  0  0  0
  139.8790   74.7090  221.4640 C   0  0  0  0  0  0  0  0  0  0  0  0
  140.8910   74.7600  222.2010 O   0  0  0  0  0  0  0  0  0  0  0  0
  139.5180   75.6960  220.5180 N   0  0  0  0  0  0  0  0  0  0  0  0
  138.3960   75.7110  219.5780 C   0  0  0  0  0  0  0  0  0  0  0  0
  138.0320   77.1390  219.3700 C   0  0  2  0  0  0  0  0  0  0  0  0
  138.4070   77.5740  218.0810 O   0  0  0  0  0  0  0  0  0  0  0  0
  138.9820   77.8780  220.3300 C   0  0  0  0  0  0  0  0  0  0  0  0
  140.1960   76.9860  220.2330 C   0  0  1  0  0  0  0  0  0  0  0  0
  141.2760   77.2460  221.2040 C   0  0  0  0  0  0  0  0  0  0  0  0
  141.0860   78.3810  222.0570 N   0  0  0  0  0  0  0  0  0  0  0  0
  141.4760   78.2830  223.4010 C   0  0  0  0  0  0  0  0  0  0  0  0
  141.8820   79.6710  223.8590 C   0  0  0  0  0  0  0  0  0  0  0  0
  142.4200   80.2910  222.6120 C   0  0  0  0  0  0  0  0  0  0  0  0
  141.8060   79.5140  221.5030 C   0  0  0  0  0  0  0  0  0  0  0  0
  139.1910   70.5810  223.9580 C   0  0  0  0  0  0  0  0  0  0  0  0
  138.8710   69.2300  223.9260 C   0  0  0  0  0  0  0  0  0  0  0  0
  139.1700   68.3690  224.9580 C   0  0  0  0  0  0  0  0  0  0  0  0
  139.8220   68.9090  226.0640 C   0  0  0  0  0  0  0  0  0  0  0  0
  140.1370   68.0800  227.1110 C   0  0  0  0  0  0  0  0  0  0  0  0
  140.7790   68.6190  228.1980 C   0  0  0  0  0  0  0  0  0  0  0  0
  141.1010   67.8360  229.2350 F   0  0  0  0  0  0  0  0  0  0  0  0
  141.0830   69.9640  228.1960 C   0  0  0  0  0  0  0  0  0  0  0  0
  140.7810   70.8100  227.1650 C   0  0  0  0  0  0  0  0  0  0  0  0
  140.1320   70.2700  226.0660 C   0  0  0  0  0  0  0  0  0  0  0  0
  139.8160   71.0690  225.0310 N   0  0  0  0  0  0  0  0  0  0  0  0
  139.9250   73.1260  223.4650 H   0  0  0  0  0  0  0  0  0  0  0  0
  139.0404   72.9131  220.6572 H   0  0  0  0  0  0  0  0  0  0  0  0
  137.9200   73.8763  221.6800 H   0  0  0  0  0  0  0  0  0  0  0  0
  138.6948   75.2529  218.6236 H   0  0  0  0  0  0  0  0  0  0  0  0
  137.5429   75.1382  219.9707 H   0  0  0  0  0  0  0  0  0  0  0  0
  136.9538   77.3028  219.5136 H   0  0  0  0  0  0  0  0  0  0  0  0
  137.6560   77.9320  217.5650 H   0  0  0  0  0  0  0  0  0  0  0  0
  139.1975   78.9001  219.9851 H   0  0  0  0  0  0  0  0  0  0  0  0
  138.5924   78.0222  221.3486 H   0  0  0  0  0  0  0  0  0  0  0  0
  140.7442   77.0913  219.2852 H   0  0  0  0  0  0  0  0  0  0  0  0
  141.3770   76.3564  221.8430 H   0  0  0  0  0  0  0  0  0  0  0  0
  142.1706   77.4690  220.6040 H   0  0  0  0  0  0  0  0  0  0  0  0
  140.6364   77.9169  224.0102 H   0  0  0  0  0  0  0  0  0  0  0  0
  142.3128   77.5777  223.5117 H   0  0  0  0  0  0  0  0  0  0  0  0
  141.0148   80.2321  224.2374 H   0  0  0  0  0  0  0  0  0  0  0  0
  142.6073   79.6602  224.6860 H   0  0  0  0  0  0  0  0  0  0  0  0
  142.1293   81.3501  222.5498 H   0  0  0  0  0  0  0  0  0  0  0  0
  143.5191   80.2646  222.5772 H   0  0  0  0  0  0  0  0  0  0  0  0
  141.1086   80.1564  220.9454 H   0  0  0  0  0  0  0  0  0  0  0  0
  142.5924   79.1559  220.8223 H   0  0  0  0  0  0  0  0  0  0  0  0
  138.3571   68.8311  223.0390 H   0  0  0  0  0  0  0  0  0  0  0  0
  138.9057   67.3023  224.9111 H   0  0  0  0  0  0  0  0  0  0  0  0
  139.8815   67.0105  227.0801 H   0  0  0  0  0  0  0  0  0  0  0  0
  141.5980   70.3803  229.0743 H   0  0  0  0  0  0  0  0  0  0  0  0
  141.0430   71.8775  227.2063 H   0  0  0  0  0  0  0  0  0  0  0  0
  1  2  2  0
  2  3  1  0
  3  4  1  0
  4  5  1  0
  5  6  2  0
  5  7  1  0
  7  8  1  0
  8  9  1  0
  9 10  1  0
  9 11  1  0
 11 12  1  0
 12 13  1  0
 13 14  1  0
 14 15  1  0
 15 16  1  0
 16 17  1  0
 17 18  1  0
  2 19  1  0
 19 20  2  0
 20 21  1  0
 21 22  2  0
 22 23  1  0
 23 24  2  0
 24 25  1  0
 24 26  1  0
 26 27  2  0
 27 28  1  0
 28 29  2  0
 12  7  1  0
 18 14  1  0
 29 19  1  0
 28 22  1  0
  3 30  1  0
  4 31  1  0
  4 32  1  0
  8 33  1  0
  8 34  1  0
  9 35  1  1
 10 36  1  0
 11 37  1  0
 11 38  1  0
 12 39  1  6
 13 40  1  0
 13 41  1  0
 15 42  1  0
 15 43  1  0
 16 44  1  0
 16 45  1  0
 17 46  1  0
 17 47  1  0
 18 48  1  0
 18 49  1  0
 20 50  1  0
 21 51  1  0
 23 52  1  0
 26 53  1  0
 27 54  1  0
M  END
>  <smiles>  (11) 
O=C(NCC(=O)N1C[C@H](O)C[C@H]1CN1CCCC1)c1ccc2cc(F)ccc2n1

>  <score_type>  (11) 
oracle

>  <origin>  (11) 
autodockgpu

>  <m_score__min__energy>  (11) 
-8.9700000000000006

>  <m_primary>  (11) 
energy

>  <rmsd>  (11) 
1.7597633472730694

>  <m_score__min__rmsd>  (11) 
1.7597633472730694

>  <meeko>  (11) 
{"free_energy": -7.01, "intermolecular_energy": -9.1, "internal_energy": -1.77, "cluster_size": 1, "cluster_id": 6, "rank_in_cluster": 1}

>  <energy>  (11) 
-8.62

>  <cluster_rmsd>  (11) 
0.76

>  <cluster>  (11) 
1

$$$$

     RDKit          3D

 54 57  0  0  0  0  0  0  0  0999 V2000
  142.0470   79.9110  218.7640 O   0  0  0  0  0  0  0  0  0  0  0  0
  141.5720   78.7650  219.0060 C   0  0  0  0  0  0  0  0  0  0  0  0
  140.2410   78.6380  219.5430 N   0  0  0  0  0  0  0  0  0  0  0  0
  139.4880   79.8510  219.7860 C   0  0  0  0  0  0  0  0  0  0  0  0
  139.5910   80.2260  221.2400 C   0  0  0  0  0  0  0  0  0  0  0  0
  138.5740   80.6600  221.8320 O   0  0  0  0  0  0  0  0  0  0  0  0
  140.8610   80.0550  221.8370 N   0  0  0  0  0  0  0  0  0  0  0  0
  141.9760   80.9990  221.9270 C   0  0  0  0  0  0  0  0  0  0  0  0
  142.7120   80.6740  223.1790 C   0  0  2  0  0  0  0  0  0  0  0  0
  143.9570   80.0740  222.8940 O   0  0  0  0  0  0  0  0  0  0  0  0
  141.8610   79.5460  223.7930 C   0  0  0  0  0  0  0  0  0  0  0  0
  141.3940   78.8560  222.5340 C   0  0  1  0  0  0  0  0  0  0  0  0
  140.3500   77.8290  222.7010 C   0  0  0  0  0  0  0  0  0  0  0  0
  140.3050   76.8170  221.6880 N   0  0  0  0  0  0  0  0  0  0  0  0
  141.0860   75.6630  221.8570 C   0  0  0  0  0  0  0  0  0  0  0  0
  140.3670   74.5220  221.1650 C   0  0  0  0  0  0  0  0  0  0  0  0
  138.9290   74.8940  221.3120 C   0  0  0  0  0  0  0  0  0  0  0  0
  138.9340   76.3640  221.5320 C   0  0  0  0  0  0  0  0  0  0  0  0
  142.3210   77.5350  218.7640 C   0  0  0  0  0  0  0  0  0  0  0  0
  142.4890   77.1510  217.4400 C   0  0  0  0  0  0  0  0  0  0  0  0
  143.1770   76.0160  217.0760 C   0  0  0  0  0  0  0  0  0  0  0  0
  143.7160   75.2460  218.1030 C   0  0  0  0  0  0  0  0  0  0  0  0
  144.4100   74.1080  217.7760 C   0  0  0  0  0  0  0  0  0  0  0  0
  144.9390   73.3520  218.7940 C   0  0  0  0  0  0  0  0  0  0  0  0
  145.6220   72.2370  218.5070 F   0  0  0  0  0  0  0  0  0  0  0  0
  144.7530   73.7640  220.0970 C   0  0  0  0  0  0  0  0  0  0  0  0
  144.0670   74.8930  220.4480 C   0  0  0  0  0  0  0  0  0  0  0  0
  143.5320   75.6580  219.4230 C   0  0  0  0  0  0  0  0  0  0  0  0
  142.8490   76.7770  219.7270 N   0  0  0  0  0  0  0  0  0  0  0  0
  139.8210   77.7100  219.7540 H   0  0  0  0  0  0  0  0  0  0  0  0
  139.8954   80.6648  219.1682 H   0  0  0  0  0  0  0  0  0  0  0  0
  138.4324   79.6843  219.5255 H   0  0  0  0  0  0  0  0  0  0  0  0
  142.6396   80.8859  221.0570 H   0  0  0  0  0  0  0  0  0  0  0  0
  141.6147   82.0379  221.9390 H   0  0  0  0  0  0  0  0  0  0  0  0
  142.8694   81.5715  223.7952 H   0  0  0  0  0  0  0  0  0  0  0  0
  143.9050   79.4050  222.1810 H   0  0  0  0  0  0  0  0  0  0  0  0
  142.4639   78.8776  224.4253 H   0  0  0  0  0  0  0  0  0  0  0  0
  141.0561   79.8843  224.4621 H   0  0  0  0  0  0  0  0  0  0  0  0
  142.1800   78.2676  222.0380 H   0  0  0  0  0  0  0  0  0  0  0  0
  140.5169   77.3318  223.6679 H   0  0  0  0  0  0  0  0  0  0  0  0
  139.3909   78.3633  222.6332 H   0  0  0  0  0  0  0  0  0  0  0  0
  142.0779   75.8111  221.4052 H   0  0  0  0  0  0  0  0  0  0  0  0
  141.2256   75.4422  222.9255 H   0  0  0  0  0  0  0  0  0  0  0  0
  140.6529   74.4595  220.1046 H   0  0  0  0  0  0  0  0  0  0  0  0
  140.6059   73.5366  221.5914 H   0  0  0  0  0  0  0  0  0  0  0  0
  138.3688   74.6412  220.3997 H   0  0  0  0  0  0  0  0  0  0  0  0
  138.4442   74.3536  222.1384 H   0  0  0  0  0  0  0  0  0  0  0  0
  138.4760   76.8673  220.6677 H   0  0  0  0  0  0  0  0  0  0  0  0
  138.3590   76.6048  222.4383 H   0  0  0  0  0  0  0  0  0  0  0  0
  142.0541   77.7801  216.6494 H   0  0  0  0  0  0  0  0  0  0  0  0
  143.2957   75.7299  216.0205 H   0  0  0  0  0  0  0  0  0  0  0  0
  144.5394   73.8087  216.7254 H   0  0  0  0  0  0  0  0  0  0  0  0
  145.1819   73.1479  220.9010 H   0  0  0  0  0  0  0  0  0  0  0  0
  143.9443   75.1831  221.5019 H   0  0  0  0  0  0  0  0  0  0  0  0
  1  2  2  0
  2  3  1  0
  3  4  1  0
  4  5  1  0
  5  6  2  0
  5  7  1  0
  7  8  1  0
  8  9  1  0
  9 10  1  0
  9 11  1  0
 11 12  1  0
 12 13  1  0
 13 14  1  0
 14 15  1  0
 15 16  1  0
 16 17  1  0
 17 18  1  0
  2 19  1  0
 19 20  2  0
 20 21  1  0
 21 22  2  0
 22 23  1  0
 23 24  2  0
 24 25  1  0
 24 26  1  0
 26 27  2  0
 27 28  1  0
 28 29  2  0
 12  7  1  0
 18 14  1  0
 29 19  1  0
 28 22  1  0
  3 30  1  0
  4 31  1  0
  4 32  1  0
  8 33  1  0
  8 34  1  0
  9 35  1  1
 10 36  1  0
 11 37  1  0
 11 38  1  0
 12 39  1  6
 13 40  1  0
 13 41  1  0
 15 42  1  0
 15 43  1  0
 16 44  1  0
 16 45  1  0
 17 46  1  0
 17 47  1  0
 18 48  1  0
 18 49  1  0
 20 50  1  0
 21 51  1  0
 23 52  1  0
 26 53  1  0
 27 54  1  0
M  END
>  <smiles>  (12) 
O=C(NCC(=O)N1C[C@H](O)C[C@H]1CN1CCCC1)c1ccc2cc(F)ccc2n1

>  <score_type>  (12) 
oracle

>  <origin>  (12) 
autodockgpu

>  <m_score__min__energy>  (12) 
-8.9700000000000006

>  <m_primary>  (12) 
energy

>  <rmsd>  (12) 
7.992053518397699

>  <m_score__min__rmsd>  (12) 
7.992053518397699

>  <meeko>  (12) 
{"free_energy": -5.55, "intermolecular_energy": -7.64, "internal_energy": -3.19, "cluster_size": 1, "cluster_id": 8, "rank_in_cluster": 1}

>  <energy>  (12) 
-8.61

>  <cluster_rmsd>  (12) 
0.91

>  <cluster>  (12) 
1

$$$$

     RDKit          3D

 54 57  0  0  0  0  0  0  0  0999 V2000
  141.3520   72.1540  221.6090 O   0  0  0  0  0  0  0  0  0  0  0  0
  140.4610   72.3660  222.4810 C   0  0  0  0  0  0  0  0  0  0  0  0
  139.5510   73.4720  222.3220 N   0  0  0  0  0  0  0  0  0  0  0  0
  139.6970   74.3100  221.1500 C   0  0  0  0  0  0  0  0  0  0  0  0
  140.1350   75.6880  221.5650 C   0  0  0  0  0  0  0  0  0  0  0  0
  139.6560   76.1910  222.6090 O   0  0  0  0  0  0  0  0  0  0  0  0
  141.0760   76.3220  220.7220 N   0  0  0  0  0  0  0  0  0  0  0  0
  141.6140   75.8760  219.4360 C   0  0  0  0  0  0  0  0  0  0  0  0
  141.9370   77.1030  218.6590 C   0  0  2  0  0  0  0  0  0  0  0  0
  143.3330   77.2870  218.5590 O   0  0  0  0  0  0  0  0  0  0  0  0
  141.4540   78.2330  219.5870 C   0  0  0  0  0  0  0  0  0  0  0  0
  141.7680   77.6200  220.9300 C   0  0  1  0  0  0  0  0  0  0  0  0
  141.2340   78.3250  222.1100 C   0  0  0  0  0  0  0  0  0  0  0  0
  141.6490   79.6880  222.2610 N   0  0  0  0  0  0  0  0  0  0  0  0
  140.8410   80.5560  223.0110 C   0  0  0  0  0  0  0  0  0  0  0  0
  141.7500   81.5960  223.6370 C   0  0  0  0  0  0  0  0  0  0  0  0
  143.0250   80.8470  223.8410 C   0  0  0  0  0  0  0  0  0  0  0  0
  142.9640   79.7170  222.8770 C   0  0  0  0  0  0  0  0  0  0  0  0
  140.3040   71.5290  223.6660 C   0  0  0  0  0  0  0  0  0  0  0  0
  139.6710   70.3050  223.4920 C   0  0  0  0  0  0  0  0  0  0  0  0
  139.4640   69.4200  224.5260 C   0  0  0  0  0  0  0  0  0  0  0  0
  139.9210   69.8000  225.7850 C   0  0  0  0  0  0  0  0  0  0  0  0
  139.7330   68.9420  226.8390 C   0  0  0  0  0  0  0  0  0  0  0  0
  140.1860   69.3230  228.0780 C   0  0  0  0  0  0  0  0  0  0  0  0
  140.0180   68.5070  229.1260 F   0  0  0  0  0  0  0  0  0  0  0  0
  140.8110   70.5450  228.2150 C   0  0  0  0  0  0  0  0  0  0  0  0
  141.0110   71.4160  227.1810 C   0  0  0  0  0  0  0  0  0  0  0  0
  140.5550   71.0350  225.9280 C   0  0  0  0  0  0  0  0  0  0  0  0
  140.7320   71.8650  224.8840 N   0  0  0  0  0  0  0  0  0  0  0  0
  138.8080   73.6740  223.0210 H   0  0  0  0  0  0  0  0  0  0  0  0
  140.4513   73.8728  220.4793 H   0  0  0  0  0  0  0  0  0  0  0  0
  138.7320   74.3762  220.6263 H   0  0  0  0  0  0  0  0  0  0  0  0
  142.5228   75.2763  219.5927 H   0  0  0  0  0  0  0  0  0  0  0  0
  140.8876   75.2478  218.8997 H   0  0  0  0  0  0  0  0  0  0  0  0
  141.4987   77.0653  217.6508 H   0  0  0  0  0  0  0  0  0  0  0  0
  143.7420   77.5710  219.4020 H   0  0  0  0  0  0  0  0  0  0  0  0
  142.0150   79.1647  219.4221 H   0  0  0  0  0  0  0  0  0  0  0  0
  140.4044   78.5310  219.4473 H   0  0  0  0  0  0  0  0  0  0  0  0
  142.8419   77.6091  221.1680 H   0  0  0  0  0  0  0  0  0  0  0  0
  140.1361   78.3116  222.0433 H   0  0  0  0  0  0  0  0  0  0  0  0
  141.6348   77.7913  222.9844 H   0  0  0  0  0  0  0  0  0  0  0  0
  140.1056   81.0454  222.3555 H   0  0  0  0  0  0  0  0  0  0  0  0
  140.2929   80.0021  223.7873 H   0  0  0  0  0  0  0  0  0  0  0  0
  141.8974   82.4510  222.9607 H   0  0  0  0  0  0  0  0  0  0  0  0
  141.3447   82.0238  224.5658 H   0  0  0  0  0  0  0  0  0  0  0  0
  143.8906   81.4913  223.6276 H   0  0  0  0  0  0  0  0  0  0  0  0
  143.1397   80.5001  224.8785 H   0  0  0  0  0  0  0  0  0  0  0  0
  143.7314   79.8533  222.1008 H   0  0  0  0  0  0  0  0  0  0  0  0
  143.1468   78.7694  223.4049 H   0  0  0  0  0  0  0  0  0  0  0  0
  139.3204   70.0313  222.4859 H   0  0  0  0  0  0  0  0  0  0  0  0
  138.9600   68.4556  224.3647 H   0  0  0  0  0  0  0  0  0  0  0  0
  139.2320   67.9733  226.6951 H   0  0  0  0  0  0  0  0  0  0  0  0
  141.1690   70.8351  229.2138 H   0  0  0  0  0  0  0  0  0  0  0  0
  141.5141   72.3817  227.3366 H   0  0  0  0  0  0  0  0  0  0  0  0
  1  2  2  0
  2  3  1  0
  3  4  1  0
  4  5  1  0
  5  6  2  0
  5  7  1  0
  7  8  1  0
  8  9  1  0
  9 10  1  0
  9 11  1  0
 11 12  1  0
 12 13  1  0
 13 14  1  0
 14 15  1  0
 15 16  1  0
 16 17  1  0
 17 18  1  0
  2 19  1  0
 19 20  2  0
 20 21  1  0
 21 22  2  0
 22 23  1  0
 23 24  2  0
 24 25  1  0
 24 26  1  0
 26 27  2  0
 27 28  1  0
 28 29  2  0
 12  7  1  0
 18 14  1  0
 29 19  1  0
 28 22  1  0
  3 30  1  0
  4 31  1  0
  4 32  1  0
  8 33  1  0
  8 34  1  0
  9 35  1  6
 10 36  1  0
 11 37  1  0
 11 38  1  0
 12 39  1  1
 13 40  1  0
 13 41  1  0
 15 42  1  0
 15 43  1  0
 16 44  1  0
 16 45  1  0
 17 46  1  0
 17 47  1  0
 18 48  1  0
 18 49  1  0
 20 50  1  0
 21 51  1  0
 23 52  1  0
 26 53  1  0
 27 54  1  0
M  END
>  <smiles>  (13) 
O=C(NCC(=O)N1C[C@H](O)C[C@H]1CN1CCCC1)c1ccc2cc(F)ccc2n1

>  <score_type>  (13) 
oracle

>  <origin>  (13) 
autodockgpu

>  <m_score__min__energy>  (13) 
-8.9700000000000006

>  <m_primary>  (13) 
energy

>  <rmsd>  (13) 
2.126950868038612

>  <m_score__min__rmsd>  (13) 
2.126950868038612

>  <meeko>  (13) 
{"free_energy": -8.72, "intermolecular_energy": -10.81, "internal_energy": -1.19, "cluster_size": 33, "cluster_id": 1, "rank_in_cluster": 9}

>  <energy>  (13) 
-8.56

>  <cluster_rmsd>  (13) 
0.7

>  <cluster>  (13) 
1

$$$$

     RDKit          3D

 54 57  0  0  0  0  0  0  0  0999 V2000
  140.8100   71.3390  221.2370 O   0  0  0  0  0  0  0  0  0  0  0  0
  140.3460   71.8590  222.2920 C   0  0  0  0  0  0  0  0  0  0  0  0
  139.9320   73.2390  222.2890 N   0  0  0  0  0  0  0  0  0  0  0  0
  140.0670   73.9870  221.0560 C   0  0  0  0  0  0  0  0  0  0  0  0
  140.5380   75.3840  221.3610 C   0  0  0  0  0  0  0  0  0  0  0  0
  140.1020   75.9640  222.3840 O   0  0  0  0  0  0  0  0  0  0  0  0
  141.4570   75.9430  220.4450 N   0  0  0  0  0  0  0  0  0  0  0  0
  142.0550   75.3440  219.2510 C   0  0  0  0  0  0  0  0  0  0  0  0
  142.3180   76.4570  218.2990 C   0  0  2  0  0  0  0  0  0  0  0  0
  143.7010   76.7170  218.1940 O   0  0  0  0  0  0  0  0  0  0  0  0
  141.7400   77.6800  219.0350 C   0  0  0  0  0  0  0  0  0  0  0  0
  142.0580   77.3010  220.4610 C   0  0  1  0  0  0  0  0  0  0  0  0
  141.4510   78.1400  221.5110 C   0  0  0  0  0  0  0  0  0  0  0  0
  142.0280   79.4400  221.6800 N   0  0  0  0  0  0  0  0  0  0  0  0
  141.2100   80.5660  221.5000 C   0  0  0  0  0  0  0  0  0  0  0  0
  141.7440   81.6650  222.3990 C   0  0  0  0  0  0  0  0  0  0  0  0
  142.3150   80.9070  223.5510 C   0  0  0  0  0  0  0  0  0  0  0  0
  142.5780   79.5430  223.0200 C   0  0  0  0  0  0  0  0  0  0  0  0
  140.2050   71.1160  223.5400 C   0  0  0  0  0  0  0  0  0  0  0  0
  139.5360   69.9000  223.4760 C   0  0  0  0  0  0  0  0  0  0  0  0
  139.3390   69.1000  224.5790 C   0  0  0  0  0  0  0  0  0  0  0  0
  139.8450   69.5580  225.7920 C   0  0  0  0  0  0  0  0  0  0  0  0
  139.6680   68.7860  226.9120 C   0  0  0  0  0  0  0  0  0  0  0  0
  140.1700   69.2440  228.1060 C   0  0  0  0  0  0  0  0  0  0  0  0
  140.0140   68.5120  229.2160 F   0  0  0  0  0  0  0  0  0  0  0  0
  140.8300   70.4550  228.1320 C   0  0  0  0  0  0  0  0  0  0  0  0
  141.0200   71.2420  227.0310 C   0  0  0  0  0  0  0  0  0  0  0  0
  140.5140   70.7830  225.8240 C   0  0  0  0  0  0  0  0  0  0  0  0
  140.6800   71.5290  224.7170 N   0  0  0  0  0  0  0  0  0  0  0  0
  139.5470   73.6970  223.1400 H   0  0  0  0  0  0  0  0  0  0  0  0
  140.7989   73.4883  220.4037 H   0  0  0  0  0  0  0  0  0  0  0  0
  139.0922   74.0331  220.5484 H   0  0  0  0  0  0  0  0  0  0  0  0
  142.9963   74.8380  219.5118 H   0  0  0  0  0  0  0  0  0  0  0  0
  141.3840   74.5941  218.8067 H   0  0  0  0  0  0  0  0  0  0  0  0
  141.9090   76.2368  217.3019 H   0  0  0  0  0  0  0  0  0  0  0  0
  144.2460   75.9040  218.2200 H   0  0  0  0  0  0  0  0  0  0  0  0
  142.2443   78.6114  218.7378 H   0  0  0  0  0  0  0  0  0  0  0  0
  140.6774   77.8820  218.8349 H   0  0  0  0  0  0  0  0  0  0  0  0
  143.1241   77.3990  220.7138 H   0  0  0  0  0  0  0  0  0  0  0  0
  140.3871   78.2722  221.2647 H   0  0  0  0  0  0  0  0  0  0  0  0
  141.6278   77.6088  222.4579 H   0  0  0  0  0  0  0  0  0  0  0  0
  141.2434   80.8905  220.4495 H   0  0  0  0  0  0  0  0  0  0  0  0
  140.1657   80.3311  221.7533 H   0  0  0  0  0  0  0  0  0  0  0  0
  142.5211   82.2518  221.8875 H   0  0  0  0  0  0  0  0  0  0  0  0
  140.9756   82.3936  222.6970 H   0  0  0  0  0  0  0  0  0  0  0  0
  143.2489   81.3742  223.8968 H   0  0  0  0  0  0  0  0  0  0  0  0
  141.6333   80.8906  224.4142 H   0  0  0  0  0  0  0  0  0  0  0  0
  143.6627   79.3632  222.9877 H   0  0  0  0  0  0  0  0  0  0  0  0
  142.1058   78.7940  223.6727 H   0  0  0  0  0  0  0  0  0  0  0  0
  139.1476   69.5625  222.5038 H   0  0  0  0  0  0  0  0  0  0  0  0
  138.8052   68.1411  224.5049 H   0  0  0  0  0  0  0  0  0  0  0  0
  139.1373   67.8241  226.8555 H   0  0  0  0  0  0  0  0  0  0  0  0
  141.2266   70.8079  229.0954 H   0  0  0  0  0  0  0  0  0  0  0  0
  141.5532   72.2017  227.0994 H   0  0  0  0  0  0  0  0  0  0  0  0
  1  2  2  0
  2  3  1  0
  3  4  1  0
  4  5  1  0
  5  6  2  0
  5  7  1  0
  7  8  1  0
  8  9  1  0
  9 10  1  0
  9 11  1  0
 11 12  1  0
 12 13  1  0
 13 14  1  0
 14 15  1  0
 15 16  1  0
 16 17  1  0
 17 18  1  0
  2 19  1  0
 19 20  2  0
 20 21  1  0
 21 22  2  0
 22 23  1  0
 23 24  2  0
 24 25  1  0
 24 26  1  0
 26 27  2  0
 27 28  1  0
 28 29  2  0
 12  7  1  0
 18 14  1  0
 29 19  1  0
 28 22  1  0
  3 30  1  0
  4 31  1  0
  4 32  1  0
  8 33  1  0
  8 34  1  0
  9 35  1  6
 10 36  1  0
 11 37  1  0
 11 38  1  0
 12 39  1  6
 13 40  1  0
 13 41  1  0
 15 42  1  0
 15 43  1  0
 16 44  1  0
 16 45  1  0
 17 46  1  0
 17 47  1  0
 18 48  1  0
 18 49  1  0
 20 50  1  0
 21 51  1  0
 23 52  1  0
 26 53  1  0
 27 54  1  0
M  END
>  <smiles>  (14) 
O=C(NCC(=O)N1C[C@H](O)C[C@H]1CN1CCCC1)c1ccc2cc(F)ccc2n1

>  <score_type>  (14) 
oracle

>  <origin>  (14) 
autodockgpu

>  <m_score__min__energy>  (14) 
-8.9700000000000006

>  <m_primary>  (14) 
energy

>  <rmsd>  (14) 
2.106264685072887

>  <m_score__min__rmsd>  (14) 
2.106264685072887

>  <meeko>  (14) 
{"free_energy": -8.19, "intermolecular_energy": -10.27, "internal_energy": -1.36, "cluster_size": 33, "cluster_id": 1, "rank_in_cluster": 25}

>  <energy>  (14) 
-8.55

>  <cluster_rmsd>  (14) 
0.94

>  <cluster>  (14) 
1

$$$$

     RDKit          3D

 54 57  0  0  0  0  0  0  0  0999 V2000
  140.9220   71.8370  221.2200 O   0  0  0  0  0  0  0  0  0  0  0  0
  140.4120   72.2830  222.2870 C   0  0  0  0  0  0  0  0  0  0  0  0
  139.9510   73.6470  222.3470 N   0  0  0  0  0  0  0  0  0  0  0  0
  140.0940   74.4650  221.1600 C   0  0  0  0  0  0  0  0  0  0  0  0
  140.4830   75.8640  221.5550 C   0  0  0  0  0  0  0  0  0  0  0  0
  140.1060   76.3120  222.6640 O   0  0  0  0  0  0  0  0  0  0  0  0
  141.2620   76.5800  220.6170 N   0  0  0  0  0  0  0  0  0  0  0  0
  142.0420   76.0770  219.4850 C   0  0  0  0  0  0  0  0  0  0  0  0
  142.0460   77.1530  218.4570 C   0  0  2  0  0  0  0  0  0  0  0  0
  143.3180   77.7570  218.3610 O   0  0  0  0  0  0  0  0  0  0  0  0
  141.1430   78.2300  219.0850 C   0  0  0  0  0  0  0  0  0  0  0  0
  141.4910   78.0460  220.5420 C   0  0  1  0  0  0  0  0  0  0  0  0
  140.6460   78.7670  221.5120 C   0  0  0  0  0  0  0  0  0  0  0  0
  141.2940   79.1640  222.7270 N   0  0  0  0  0  0  0  0  0  0  0  0
  142.6690   79.4440  222.6930 C   0  0  0  0  0  0  0  0  0  0  0  0
  142.9470   80.4860  223.7590 C   0  0  0  0  0  0  0  0  0  0  0  0
  141.6770   81.2700  223.8000 C   0  0  0  0  0  0  0  0  0  0  0  0
  140.6450   80.3580  223.2400 C   0  0  0  0  0  0  0  0  0  0  0  0
  140.2620   71.4680  223.4890 C   0  0  0  0  0  0  0  0  0  0  0  0
  139.6430   70.2340  223.3400 C   0  0  0  0  0  0  0  0  0  0  0  0
  139.4440   69.3690  224.3920 C   0  0  0  0  0  0  0  0  0  0  0  0
  139.8960   69.7790  225.6430 C   0  0  0  0  0  0  0  0  0  0  0  0
  139.7160   68.9410  226.7150 C   0  0  0  0  0  0  0  0  0  0  0  0
  140.1650   69.3510  227.9460 C   0  0  0  0  0  0  0  0  0  0  0  0
  140.0040   68.5560  229.0100 F   0  0  0  0  0  0  0  0  0  0  0  0
  140.7760   70.5830  228.0580 C   0  0  0  0  0  0  0  0  0  0  0  0
  140.9680   71.4350  227.0060 C   0  0  0  0  0  0  0  0  0  0  0  0
  140.5170   71.0230  225.7610 C   0  0  0  0  0  0  0  0  0  0  0  0
  140.6860   71.8340  224.7010 N   0  0  0  0  0  0  0  0  0  0  0  0
  139.5280   74.0450  223.2090 H   0  0  0  0  0  0  0  0  0  0  0  0
  140.8735   74.0373  220.5124 H   0  0  0  0  0  0  0  0  0  0  0  0
  139.1377   74.4912  220.6170 H   0  0  0  0  0  0  0  0  0  0  0  0
  143.0708   75.8528  219.8032 H   0  0  0  0  0  0  0  0  0  0  0  0
  141.6065   75.1494  219.0853 H   0  0  0  0  0  0  0  0  0  0  0  0
  141.7477   76.7662  217.4714 H   0  0  0  0  0  0  0  0  0  0  0  0
  143.7470   77.8840  219.2310 H   0  0  0  0  0  0  0  0  0  0  0  0
  141.4007   79.2380  218.7278 H   0  0  0  0  0  0  0  0  0  0  0  0
  140.0731   78.1336  218.8482 H   0  0  0  0  0  0  0  0  0  0  0  0
  142.4844   78.4359  220.8087 H   0  0  0  0  0  0  0  0  0  0  0  0
  140.2656   79.6743  221.0199 H   0  0  0  0  0  0  0  0  0  0  0  0
  139.8597   78.0577  221.8098 H   0  0  0  0  0  0  0  0  0  0  0  0
  143.2440   78.5298  222.9020 H   0  0  0  0  0  0  0  0  0  0  0  0
  142.9649   79.8154  221.7008 H   0  0  0  0  0  0  0  0  0  0  0  0
  143.1513   80.0129  224.7308 H   0  0  0  0  0  0  0  0  0  0  0  0
  143.8313   81.1033  223.5422 H   0  0  0  0  0  0  0  0  0  0  0  0
  141.4272   81.5480  224.8346 H   0  0  0  0  0  0  0  0  0  0  0  0
  141.7518   82.2088  223.2315 H   0  0  0  0  0  0  0  0  0  0  0  0
  139.9320   80.0792  224.0299 H   0  0  0  0  0  0  0  0  0  0  0  0
  140.1046   80.8646  222.4268 H   0  0  0  0  0  0  0  0  0  0  0  0
  139.2972   69.9352  222.3394 H   0  0  0  0  0  0  0  0  0  0  0  0
  138.9496   68.3966  224.2503 H   0  0  0  0  0  0  0  0  0  0  0  0
  139.2241   67.9649  226.5909 H   0  0  0  0  0  0  0  0  0  0  0  0
  141.1291   70.8980  229.0510 H   0  0  0  0  0  0  0  0  0  0  0  0
  141.4609   72.4090  227.1418 H   0  0  0  0  0  0  0  0  0  0  0  0
  1  2  2  0
  2  3  1  0
  3  4  1  0
  4  5  1  0
  5  6  2  0
  5  7  1  0
  7  8  1  0
  8  9  1  0
  9 10  1  0
  9 11  1  0
 11 12  1  0
 12 13  1  0
 13 14  1  0
 14 15  1  0
 15 16  1  0
 16 17  1  0
 17 18  1  0
  2 19  1  0
 19 20  2  0
 20 21  1  0
 21 22  2  0
 22 23  1  0
 23 24  2  0
 24 25  1  0
 24 26  1  0
 26 27  2  0
 27 28  1  0
 28 29  2  0
 12  7  1  0
 18 14  1  0
 29 19  1  0
 28 22  1  0
  3 30  1  0
  4 31  1  0
  4 32  1  0
  8 33  1  0
  8 34  1  0
  9 35  1  6
 10 36  1  0
 11 37  1  0
 11 38  1  0
 12 39  1  6
 13 40  1  0
 13 41  1  0
 15 42  1  0
 15 43  1  0
 16 44  1  0
 16 45  1  0
 17 46  1  0
 17 47  1  0
 18 48  1  0
 18 49  1  0
 20 50  1  0
 21 51  1  0
 23 52  1  0
 26 53  1  0
 27 54  1  0
M  END
>  <smiles>  (15) 
O=C(NCC(=O)N1C[C@H](O)C[C@H]1CN1CCCC1)c1ccc2cc(F)ccc2n1

>  <score_type>  (15) 
oracle

>  <origin>  (15) 
autodockgpu

>  <m_score__min__energy>  (15) 
-8.9700000000000006

>  <m_primary>  (15) 
energy

>  <rmsd>  (15) 
2.2164477990944476

>  <m_score__min__rmsd>  (15) 
2.2164477990944476

>  <meeko>  (15) 
{"free_energy": -8.53, "intermolecular_energy": -10.62, "internal_energy": -1.56, "cluster_size": 33, "cluster_id": 1, "rank_in_cluster": 15}

>  <energy>  (15) 
-8.53

>  <cluster_rmsd>  (15) 
0.8

>  <cluster>  (15) 
1

$$$$

     RDKit          3D

 54 57  0  0  0  0  0  0  0  0999 V2000
  139.5060   72.0760  220.9130 O   0  0  0  0  0  0  0  0  0  0  0  0
  140.1140   72.3600  221.9840 C   0  0  0  0  0  0  0  0  0  0  0  0
  140.9280   73.5470  222.0540 N   0  0  0  0  0  0  0  0  0  0  0  0
  141.0170   74.3800  220.8720 C   0  0  0  0  0  0  0  0  0  0  0  0
  140.9520   75.8300  221.2710 C   0  0  0  0  0  0  0  0  0  0  0  0
  140.3690   76.1450  222.3350 O   0  0  0  0  0  0  0  0  0  0  0  0
  141.5710   76.7450  220.3880 N   0  0  0  0  0  0  0  0  0  0  0  0
  142.3580   76.4800  219.1830 C   0  0  0  0  0  0  0  0  0  0  0  0
  142.1540   77.6420  218.2750 C   0  0  2  0  0  0  0  0  0  0  0  0
  143.3180   78.4360  218.2000 O   0  0  0  0  0  0  0  0  0  0  0  0
  141.1360   78.5030  219.0450 C   0  0  0  0  0  0  0  0  0  0  0  0
  141.5800   78.2290  220.4620 C   0  0  1  0  0  0  0  0  0  0  0  0
  140.6880   78.7140  221.5320 C   0  0  0  0  0  0  0  0  0  0  0  0
  141.3370   79.1390  222.7360 N   0  0  0  0  0  0  0  0  0  0  0  0
  142.7030   79.4600  222.6850 C   0  0  0  0  0  0  0  0  0  0  0  0
  142.9610   80.5180  223.7410 C   0  0  0  0  0  0  0  0  0  0  0  0
  141.6690   81.2640  223.7900 C   0  0  0  0  0  0  0  0  0  0  0  0
  140.6590   80.3180  223.2480 C   0  0  0  0  0  0  0  0  0  0  0  0
  140.0320   71.5290  223.1810 C   0  0  0  0  0  0  0  0  0  0  0  0
  139.3780   70.3100  223.0570 C   0  0  0  0  0  0  0  0  0  0  0  0
  139.2350   69.4320  224.1070 C   0  0  0  0  0  0  0  0  0  0  0  0
  139.7810   69.8120  225.3300 C   0  0  0  0  0  0  0  0  0  0  0  0
  139.6590   68.9600  226.3980 C   0  0  0  0  0  0  0  0  0  0  0  0
  140.2000   69.3410  227.6010 C   0  0  0  0  0  0  0  0  0  0  0  0
  140.0980   68.5310  228.6620 F   0  0  0  0  0  0  0  0  0  0  0  0
  140.8440   70.5580  227.6890 C   0  0  0  0  0  0  0  0  0  0  0  0
  140.9800   71.4230  226.6390 C   0  0  0  0  0  0  0  0  0  0  0  0
  140.4340   71.0420  225.4230 C   0  0  0  0  0  0  0  0  0  0  0  0
  140.5460   71.8660  224.3660 N   0  0  0  0  0  0  0  0  0  0  0  0
  141.4420   73.8090  222.9190 H   0  0  0  0  0  0  0  0  0  0  0  0
  141.9690   74.1842  220.3568 H   0  0  0  0  0  0  0  0  0  0  0  0
  140.1794   74.1484  220.1976 H   0  0  0  0  0  0  0  0  0  0  0  0
  143.4231   76.3819  219.4398 H   0  0  0  0  0  0  0  0  0  0  0  0
  142.0425   75.5421  218.7025 H   0  0  0  0  0  0  0  0  0  0  0  0
  141.8665   77.3156  217.2646 H   0  0  0  0  0  0  0  0  0  0  0  0
  143.4480   78.8410  217.3180 H   0  0  0  0  0  0  0  0  0  0  0  0
  141.2255   79.5688  218.7880 H   0  0  0  0  0  0  0  0  0  0  0  0
  140.0812   78.2707  218.8368 H   0  0  0  0  0  0  0  0  0  0  0  0
  142.5178   78.7353  220.7344 H   0  0  0  0  0  0  0  0  0  0  0  0
  140.1179   79.5673  221.1360 H   0  0  0  0  0  0  0  0  0  0  0  0
  140.0638   77.8537  221.8152 H   0  0  0  0  0  0  0  0  0  0  0  0
  143.3074   78.5650  222.8941 H   0  0  0  0  0  0  0  0  0  0  0  0
  142.9770   79.8329  221.6871 H   0  0  0  0  0  0  0  0  0  0  0  0
  143.1895   80.0583  224.7139 H   0  0  0  0  0  0  0  0  0  0  0  0
  143.8241   81.1598  223.5105 H   0  0  0  0  0  0  0  0  0  0  0  0
  141.4220   81.5423  224.8252 H   0  0  0  0  0  0  0  0  0  0  0  0
  141.7099   82.2002  223.2139 H   0  0  0  0  0  0  0  0  0  0  0  0
  139.9631   80.0244  224.0477 H   0  0  0  0  0  0  0  0  0  0  0  0
  140.0957   80.8026  222.4369 H   0  0  0  0  0  0  0  0  0  0  0  0
  138.9568   70.0349  222.0788 H   0  0  0  0  0  0  0  0  0  0  0  0
  138.7121   68.4719  223.9853 H   0  0  0  0  0  0  0  0  0  0  0  0
  139.1406   67.9955  226.2933 H   0  0  0  0  0  0  0  0  0  0  0  0
  141.2725   70.8490  228.6594 H   0  0  0  0  0  0  0  0  0  0  0  0
  141.5024   72.3841  226.7546 H   0  0  0  0  0  0  0  0  0  0  0  0
  1  2  2  0
  2  3  1  0
  3  4  1  0
  4  5  1  0
  5  6  2  0
  5  7  1  0
  7  8  1  0
  8  9  1  0
  9 10  1  0
  9 11  1  0
 11 12  1  0
 12 13  1  0
 13 14  1  0
 14 15  1  0
 15 16  1  0
 16 17  1  0
 17 18  1  0
  2 19  1  0
 19 20  2  0
 20 21  1  0
 21 22  2  0
 22 23  1  0
 23 24  2  0
 24 25  1  0
 24 26  1  0
 26 27  2  0
 27 28  1  0
 28 29  2  0
 12  7  1  0
 18 14  1  0
 29 19  1  0
 28 22  1  0
  3 30  1  0
  4 31  1  0
  4 32  1  0
  8 33  1  0
  8 34  1  0
  9 35  1  6
 10 36  1  0
 11 37  1  0
 11 38  1  0
 12 39  1  1
 13 40  1  0
 13 41  1  0
 15 42  1  0
 15 43  1  0
 16 44  1  0
 16 45  1  0
 17 46  1  0
 17 47  1  0
 18 48  1  0
 18 49  1  0
 20 50  1  0
 21 51  1  0
 23 52  1  0
 26 53  1  0
 27 54  1  0
M  END
>  <smiles>  (16) 
O=C(NCC(=O)N1C[C@H](O)C[C@H]1CN1CCCC1)c1ccc2cc(F)ccc2n1

>  <score_type>  (16) 
oracle

>  <origin>  (16) 
autodockgpu

>  <m_score__min__energy>  (16) 
-8.9700000000000006

>  <m_primary>  (16) 
energy

>  <rmsd>  (16) 
2.4026188429689936

>  <m_score__min__rmsd>  (16) 
2.4026188429689936

>  <meeko>  (16) 
{"free_energy": -7.54, "intermolecular_energy": -9.63, "internal_energy": -1.46, "cluster_size": 33, "cluster_id": 1, "rank_in_cluster": 33}

>  <energy>  (16) 
-8.44

>  <cluster_rmsd>  (16) 
0.67

>  <cluster>  (16) 
1

$$$$

     RDKit          3D

 54 57  0  0  0  0  0  0  0  0999 V2000
  140.4770   71.1420  221.4330 O   0  0  0  0  0  0  0  0  0  0  0  0
  140.0590   71.6240  222.5240 C   0  0  0  0  0  0  0  0  0  0  0  0
  139.5830   72.9830  222.5730 N   0  0  0  0  0  0  0  0  0  0  0  0
  139.6020   73.7540  221.3460 C   0  0  0  0  0  0  0  0  0  0  0  0
  139.8090   75.2100  221.6680 C   0  0  0  0  0  0  0  0  0  0  0  0
  139.0270   75.7740  222.4700 O   0  0  0  0  0  0  0  0  0  0  0  0
  140.8970   75.8400  221.0220 N   0  0  0  0  0  0  0  0  0  0  0  0
  141.7730   75.3240  219.9690 C   0  0  0  0  0  0  0  0  0  0  0  0
  142.2130   76.4970  219.1660 C   0  0  2  0  0  0  0  0  0  0  0  0
  143.5740   76.7890  219.3990 O   0  0  0  0  0  0  0  0  0  0  0  0
  141.4420   77.6630  219.8120 C   0  0  0  0  0  0  0  0  0  0  0  0
  141.4340   77.2060  221.2500 C   0  0  1  0  0  0  0  0  0  0  0  0
  140.5730   77.9690  222.1730 C   0  0  0  0  0  0  0  0  0  0  0  0
  141.2580   78.8020  223.1170 N   0  0  0  0  0  0  0  0  0  0  0  0
  142.5010   79.3450  222.7540 C   0  0  0  0  0  0  0  0  0  0  0  0
  142.6480   80.6670  223.4820 C   0  0  0  0  0  0  0  0  0  0  0  0
  141.2400   81.1490  223.5900 C   0  0  0  0  0  0  0  0  0  0  0  0
  140.4050   79.9250  223.4620 C   0  0  0  0  0  0  0  0  0  0  0  0
  140.0340   70.8570  223.7660 C   0  0  0  0  0  0  0  0  0  0  0  0
  139.4490   69.5990  223.7160 C   0  0  0  0  0  0  0  0  0  0  0  0
  139.3650   68.7730  224.8150 C   0  0  0  0  0  0  0  0  0  0  0  0
  139.9000   69.2510  226.0080 C   0  0  0  0  0  0  0  0  0  0  0  0
  139.8350   68.4540  227.1230 C   0  0  0  0  0  0  0  0  0  0  0  0
  140.3640   68.9310  228.2970 C   0  0  0  0  0  0  0  0  0  0  0  0
  140.3160   68.1770  229.4020 F   0  0  0  0  0  0  0  0  0  0  0  0
  140.9380   70.1850  228.3100 C   0  0  0  0  0  0  0  0  0  0  0  0
  141.0160   70.9970  227.2130 C   0  0  0  0  0  0  0  0  0  0  0  0
  140.4830   70.5180  226.0260 C   0  0  0  0  0  0  0  0  0  0  0  0
  140.5390   71.2880  224.9240 N   0  0  0  0  0  0  0  0  0  0  0  0
  139.2330   73.4100  223.4540 H   0  0  0  0  0  0  0  0  0  0  0  0
  140.4226   73.4007  220.7042 H   0  0  0  0  0  0  0  0  0  0  0  0
  138.6437   73.6285  220.8207 H   0  0  0  0  0  0  0  0  0  0  0  0
  142.6442   74.8205  220.4135 H   0  0  0  0  0  0  0  0  0  0  0  0
  141.2470   74.5896  219.3413 H   0  0  0  0  0  0  0  0  0  0  0  0
  142.0524   76.3289  218.0909 H   0  0  0  0  0  0  0  0  0  0  0  0
  143.7040   77.4940  220.0660 H   0  0  0  0  0  0  0  0  0  0  0  0
  141.9713   78.6196  219.6905 H   0  0  0  0  0  0  0  0  0  0  0  0
  140.4484   77.8567  219.3816 H   0  0  0  0  0  0  0  0  0  0  0  0
  142.4090   77.3092  221.7486 H   0  0  0  0  0  0  0  0  0  0  0  0
  139.9164   78.6123  221.5687 H   0  0  0  0  0  0  0  0  0  0  0  0
  140.0351   77.2184  222.7707 H   0  0  0  0  0  0  0  0  0  0  0  0
  143.3106   78.6612  223.0490 H   0  0  0  0  0  0  0  0  0  0  0  0
  142.5575   79.4926  221.6654 H   0  0  0  0  0  0  0  0  0  0  0  0
  143.0940   80.5229  224.4771 H   0  0  0  0  0  0  0  0  0  0  0  0
  143.3104   81.3760  222.9637 H   0  0  0  0  0  0  0  0  0  0  0  0
  141.0703   81.6331  224.5631 H   0  0  0  0  0  0  0  0  0  0  0  0
  140.9985   81.8971  222.8205 H   0  0  0  0  0  0  0  0  0  0  0  0
  139.8986   79.7230  224.4174 H   0  0  0  0  0  0  0  0  0  0  0  0
  139.6499   80.0721  222.6758 H   0  0  0  0  0  0  0  0  0  0  0  0
  139.0355   69.2474  222.7592 H   0  0  0  0  0  0  0  0  0  0  0  0
  138.8961   67.7799  224.7528 H   0  0  0  0  0  0  0  0  0  0  0  0
  139.3707   67.4578  227.0776 H   0  0  0  0  0  0  0  0  0  0  0  0
  141.3573   70.5531  229.2580 H   0  0  0  0  0  0  0  0  0  0  0  0
  141.4832   71.9912  227.2698 H   0  0  0  0  0  0  0  0  0  0  0  0
  1  2  2  0
  2  3  1  0
  3  4  1  0
  4  5  1  0
  5  6  2  0
  5  7  1  0
  7  8  1  0
  8  9  1  0
  9 10  1  0
  9 11  1  0
 11 12  1  0
 12 13  1  0
 13 14  1  0
 14 15  1  0
 15 16  1  0
 16 17  1  0
 17 18  1  0
  2 19  1  0
 19 20  2  0
 20 21  1  0
 21 22  2  0
 22 23  1  0
 23 24  2  0
 24 25  1  0
 24 26  1  0
 26 27  2  0
 27 28  1  0
 28 29  2  0
 12  7  1  0
 18 14  1  0
 29 19  1  0
 28 22  1  0
  3 30  1  0
  4 31  1  0
  4 32  1  0
  8 33  1  0
  8 34  1  0
  9 35  1  6
 10 36  1  0
 11 37  1  0
 11 38  1  0
 12 39  1  1
 13 40  1  0
 13 41  1  0
 15 42  1  0
 15 43  1  0
 16 44  1  0
 16 45  1  0
 17 46  1  0
 17 47  1  0
 18 48  1  0
 18 49  1  0
 20 50  1  0
 21 51  1  0
 23 52  1  0
 26 53  1  0
 27 54  1  0
M  END
>  <smiles>  (17) 
O=C(NCC(=O)N1C[C@H](O)C[C@H]1CN1CCCC1)c1ccc2cc(F)ccc2n1

>  <score_type>  (17) 
oracle

>  <origin>  (17) 
autodockgpu

>  <m_score__min__energy>  (17) 
-8.9700000000000006

>  <m_primary>  (17) 
energy

>  <rmsd>  (17) 
2.1241197084628114

>  <m_score__min__rmsd>  (17) 
2.1241197084628114

>  <meeko>  (17) 
{"free_energy": -8.74, "intermolecular_energy": -10.83, "internal_energy": -1.32, "cluster_size": 33, "cluster_id": 1, "rank_in_cluster": 8}

>  <energy>  (17) 
-8.43

>  <cluster_rmsd>  (17) 
0.91

>  <cluster>  (17) 
1

$$$$

     RDKit          3D

 54 57  0  0  0  0  0  0  0  0999 V2000
  136.1300   77.3070  222.8490 O   0  0  0  0  0  0  0  0  0  0  0  0
  136.2290   76.1070  223.2340 C   0  0  0  0  0  0  0  0  0  0  0  0
  137.2780   75.2690  222.7100 N   0  0  0  0  0  0  0  0  0  0  0  0
  138.1940   75.8490  221.7490 C   0  0  0  0  0  0  0  0  0  0  0  0
  139.5230   75.1470  221.8310 C   0  0  0  0  0  0  0  0  0  0  0  0
  139.5890   74.0310  222.3990 O   0  0  0  0  0  0  0  0  0  0  0  0
  140.6190   75.8220  221.2460 N   0  0  0  0  0  0  0  0  0  0  0  0
  141.4950   75.3930  220.1550 C   0  0  0  0  0  0  0  0  0  0  0  0
  141.9480   76.6280  219.4600 C   0  0  2  0  0  0  0  0  0  0  0  0
  143.3110   76.8860  219.7220 O   0  0  0  0  0  0  0  0  0  0  0  0
  141.1850   77.7400  220.2040 C   0  0  0  0  0  0  0  0  0  0  0  0
  141.1670   77.1570  221.5970 C   0  0  1  0  0  0  0  0  0  0  0  0
  140.3100   77.8440  222.5810 C   0  0  0  0  0  0  0  0  0  0  0  0
  140.9500   78.8620  223.3600 N   0  0  0  0  0  0  0  0  0  0  0  0
  142.3300   79.0620  223.1980 C   0  0  0  0  0  0  0  0  0  0  0  0
  142.6130   80.5250  223.4780 C   0  0  0  0  0  0  0  0  0  0  0  0
  141.3570   81.2000  223.0360 C   0  0  0  0  0  0  0  0  0  0  0  0
  140.3160   80.1390  223.0820 C   0  0  0  0  0  0  0  0  0  0  0  0
  135.3130   75.5130  224.2030 C   0  0  0  0  0  0  0  0  0  0  0  0
  134.5040   76.3840  224.9200 C   0  0  0  0  0  0  0  0  0  0  0  0
  133.5950   75.9530  225.8600 C   0  0  0  0  0  0  0  0  0  0  0  0
  133.5080   74.5800  226.0730 C   0  0  0  0  0  0  0  0  0  0  0  0
  132.6120   74.1140  227.0020 C   0  0  0  0  0  0  0  0  0  0  0  0
  132.5310   72.7580  227.2070 C   0  0  0  0  0  0  0  0  0  0  0  0
  131.6650   72.2730  228.1060 F   0  0  0  0  0  0  0  0  0  0  0  0
  133.3490   71.9220  226.4760 C   0  0  0  0  0  0  0  0  0  0  0  0
  134.2480   72.3610  225.5450 C   0  0  0  0  0  0  0  0  0  0  0  0
  134.3320   73.7290  225.3350 C   0  0  0  0  0  0  0  0  0  0  0  0
  135.2060   74.2010  224.4280 N   0  0  0  0  0  0  0  0  0  0  0  0
  137.3860   74.2780  223.0050 H   0  0  0  0  0  0  0  0  0  0  0  0
  137.7818   75.7352  220.7355 H   0  0  0  0  0  0  0  0  0  0  0  0
  138.3306   76.9172  221.9731 H   0  0  0  0  0  0  0  0  0  0  0  0
  142.3601   74.8449  220.5565 H   0  0  0  0  0  0  0  0  0  0  0  0
  140.9657   74.7211  219.4633 H   0  0  0  0  0  0  0  0  0  0  0  0
  141.7896   76.5566  218.3738 H   0  0  0  0  0  0  0  0  0  0  0  0
  143.5630   77.8170  219.5550 H   0  0  0  0  0  0  0  0  0  0  0  0
  141.7236   78.6985  220.1693 H   0  0  0  0  0  0  0  0  0  0  0  0
  140.1951   77.9807  219.7891 H   0  0  0  0  0  0  0  0  0  0  0  0
  142.1405   77.2057  222.1069 H   0  0  0  0  0  0  0  0  0  0  0  0
  139.4762   78.3102  222.0356 H   0  0  0  0  0  0  0  0  0  0  0  0
  139.9977   77.0703  223.2979 H   0  0  0  0  0  0  0  0  0  0  0  0
  142.8870   78.4295  223.9049 H   0  0  0  0  0  0  0  0  0  0  0  0
  142.6438   78.7943  222.1782 H   0  0  0  0  0  0  0  0  0  0  0  0
  142.7970   80.6942  224.5492 H   0  0  0  0  0  0  0  0  0  0  0  0
  143.5105   80.8993  222.9638 H   0  0  0  0  0  0  0  0  0  0  0  0
  141.1000   82.0242  223.7177 H   0  0  0  0  0  0  0  0  0  0  0  0
  141.4547   81.6411  222.0331 H   0  0  0  0  0  0  0  0  0  0  0  0
  139.5896   80.3699  223.8752 H   0  0  0  0  0  0  0  0  0  0  0  0
  139.7937   80.0905  222.1151 H   0  0  0  0  0  0  0  0  0  0  0  0
  134.5929   77.4637  224.7291 H   0  0  0  0  0  0  0  0  0  0  0  0
  132.9656   76.6619  226.4179 H   0  0  0  0  0  0  0  0  0  0  0  0
  131.9745   74.8088  227.5684 H   0  0  0  0  0  0  0  0  0  0  0  0
  133.2734   70.8389  226.6526 H   0  0  0  0  0  0  0  0  0  0  0  0
  134.8801   71.6567  224.9843 H   0  0  0  0  0  0  0  0  0  0  0  0
  1  2  2  0
  2  3  1  0
  3  4  1  0
  4  5  1  0
  5  6  2  0
  5  7  1  0
  7  8  1  0
  8  9  1  0
  9 10  1  0
  9 11  1  0
 11 12  1  0
 12 13  1  0
 13 14  1  0
 14 15  1  0
 15 16  1  0
 16 17  1  0
 17 18  1  0
  2 19  1  0
 19 20  2  0
 20 21  1  0
 21 22  2  0
 22 23  1  0
 23 24  2  0
 24 25  1  0
 24 26  1  0
 26 27  2  0
 27 28  1  0
 28 29  2  0
 12  7  1  0
 18 14  1  0
 29 19  1  0
 28 22  1  0
  3 30  1  0
  4 31  1  0
  4 32  1  0
  8 33  1  0
  8 34  1  0
  9 35  1  6
 10 36  1  0
 11 37  1  0
 11 38  1  0
 12 39  1  1
 13 40  1  0
 13 41  1  0
 15 42  1  0
 15 43  1  0
 16 44  1  0
 16 45  1  0
 17 46  1  0
 17 47  1  0
 18 48  1  0
 18 49  1  0
 20 50  1  0
 21 51  1  0
 23 52  1  0
 26 53  1  0
 27 54  1  0
M  END
>  <smiles>  (18) 
O=C(NCC(=O)N1C[C@H](O)C[C@H]1CN1CCCC1)c1ccc2cc(F)ccc2n1

>  <score_type>  (18) 
oracle

>  <origin>  (18) 
autodockgpu

>  <m_score__min__energy>  (18) 
-8.9700000000000006

>  <m_primary>  (18) 
energy

>  <rmsd>  (18) 
5.637641777013863

>  <m_score__min__rmsd>  (18) 
5.637641777013863

>  <meeko>  (18) 
{"free_energy": -7.36, "intermolecular_energy": -9.44, "internal_energy": -1.86, "cluster_size": 3, "cluster_id": 5, "rank_in_cluster": 2}

>  <energy>  (18) 
-8.39

>  <cluster_rmsd>  (18) 
0.68

>  <cluster>  (18) 
1

$$$$

     RDKit          3D

 54 57  0  0  0  0  0  0  0  0999 V2000
  139.6370   74.1220  222.3530 O   0  0  0  0  0  0  0  0  0  0  0  0
  140.3170   73.0590  222.2680 C   0  0  0  0  0  0  0  0  0  0  0  0
  141.2020   72.8620  221.1470 N   0  0  0  0  0  0  0  0  0  0  0  0
  141.2770   73.9090  220.1490 C   0  0  0  0  0  0  0  0  0  0  0  0
  142.5770   74.6540  220.2960 C   0  0  0  0  0  0  0  0  0  0  0  0
  143.5070   74.1330  220.9550 O   0  0  0  0  0  0  0  0  0  0  0  0
  142.6440   75.9160  219.6630 N   0  0  0  0  0  0  0  0  0  0  0  0
  143.2990   76.2890  218.4080 C   0  0  0  0  0  0  0  0  0  0  0  0
  142.5190   77.4210  217.8380 C   0  0  2  0  0  0  0  0  0  0  0  0
  143.2370   78.6320  217.9380 O   0  0  0  0  0  0  0  0  0  0  0  0
  141.3530   77.5690  218.8340 C   0  0  0  0  0  0  0  0  0  0  0  0
  142.0580   77.2040  220.1170 C   0  0  1  0  0  0  0  0  0  0  0  0
  141.2000   77.0100  221.3010 C   0  0  0  0  0  0  0  0  0  0  0  0
  141.0060   78.1670  222.1240 N   0  0  0  0  0  0  0  0  0  0  0  0
  141.4480   78.1250  223.4550 C   0  0  0  0  0  0  0  0  0  0  0  0
  141.8260   79.5390  223.8520 C   0  0  0  0  0  0  0  0  0  0  0  0
  142.2980   80.1340  222.5670 C   0  0  0  0  0  0  0  0  0  0  0  0
  141.6690   79.3020  221.5070 C   0  0  0  0  0  0  0  0  0  0  0  0
  140.2500   71.9990  223.2680 C   0  0  0  0  0  0  0  0  0  0  0  0
  139.6840   70.7940  222.8700 C   0  0  0  0  0  0  0  0  0  0  0  0
  139.5640   69.7130  223.7140 C   0  0  0  0  0  0  0  0  0  0  0  0
  140.0420   69.8680  225.0120 C   0  0  0  0  0  0  0  0  0  0  0  0
  139.9400   68.8110  225.8810 C   0  0  0  0  0  0  0  0  0  0  0  0
  140.4120   68.9700  227.1600 C   0  0  0  0  0  0  0  0  0  0  0  0
  140.3280   67.9560  228.0300 F   0  0  0  0  0  0  0  0  0  0  0  0
  140.9690   70.1800  227.5210 C   0  0  0  0  0  0  0  0  0  0  0  0
  141.0820   71.2470  226.6750 C   0  0  0  0  0  0  0  0  0  0  0  0
  140.6060   71.0890  225.3820 C   0  0  0  0  0  0  0  0  0  0  0  0
  140.6990   72.1170  224.5190 N   0  0  0  0  0  0  0  0  0  0  0  0
  141.7740   72.0000  221.0460 H   0  0  0  0  0  0  0  0  0  0  0  0
  141.2223   73.4626  219.1451 H   0  0  0  0  0  0  0  0  0  0  0  0
  140.4381   74.6069  220.2876 H   0  0  0  0  0  0  0  0  0  0  0  0
  144.3359   76.6019  218.6001 H   0  0  0  0  0  0  0  0  0  0  0  0
  143.3301   75.4392  217.7103 H   0  0  0  0  0  0  0  0  0  0  0  0
  142.2552   77.2361  216.7862 H   0  0  0  0  0  0  0  0  0  0  0  0
  143.6480   78.9030  217.0910 H   0  0  0  0  0  0  0  0  0  0  0  0
  140.9657   78.5982  218.8594 H   0  0  0  0  0  0  0  0  0  0  0  0
  140.4659   76.9610  218.6031 H   0  0  0  0  0  0  0  0  0  0  0  0
  142.7368   77.9883  220.4832 H   0  0  0  0  0  0  0  0  0  0  0  0
  140.2125   76.6744  220.9514 H   0  0  0  0  0  0  0  0  0  0  0  0
  141.7223   76.2766  221.9329 H   0  0  0  0  0  0  0  0  0  0  0  0
  140.6434   77.7538  224.1068 H   0  0  0  0  0  0  0  0  0  0  0  0
  142.3100   77.4493  223.5569 H   0  0  0  0  0  0  0  0  0  0  0  0
  140.9557   80.0854  224.2445 H   0  0  0  0  0  0  0  0  0  0  0  0
  142.5813   79.5776  224.6507 H   0  0  0  0  0  0  0  0  0  0  0  0
  141.9714   81.1810  222.4821 H   0  0  0  0  0  0  0  0  0  0  0  0
  143.3954   80.1407  222.4919 H   0  0  0  0  0  0  0  0  0  0  0  0
  140.9318   79.9039  220.9554 H   0  0  0  0  0  0  0  0  0  0  0  0
  142.4410   78.9455  220.8092 H   0  0  0  0  0  0  0  0  0  0  0  0
  139.3165   70.6999  221.8375 H   0  0  0  0  0  0  0  0  0  0  0  0
  139.1106   68.7689  223.3776 H   0  0  0  0  0  0  0  0  0  0  0  0
  139.4909   67.8594  225.5604 H   0  0  0  0  0  0  0  0  0  0  0  0
  141.3436   70.2919  228.5492 H   0  0  0  0  0  0  0  0  0  0  0  0
  141.5328   72.1941  227.0064 H   0  0  0  0  0  0  0  0  0  0  0  0
  1  2  2  0
  2  3  1  0
  3  4  1  0
  4  5  1  0
  5  6  2  0
  5  7  1  0
  7  8  1  0
  8  9  1  0
  9 10  1  0
  9 11  1  0
 11 12  1  0
 12 13  1  0
 13 14  1  0
 14 15  1  0
 15 16  1  0
 16 17  1  0
 17 18  1  0
  2 19  1  0
 19 20  2  0
 20 21  1  0
 21 22  2  0
 22 23  1  0
 23 24  2  0
 24 25  1  0
 24 26  1  0
 26 27  2  0
 27 28  1  0
 28 29  2  0
 12  7  1  0
 18 14  1  0
 29 19  1  0
 28 22  1  0
  3 30  1  0
  4 31  1  0
  4 32  1  0
  8 33  1  0
  8 34  1  0
  9 35  1  6
 10 36  1  0
 11 37  1  0
 11 38  1  0
 12 39  1  1
 13 40  1  0
 13 41  1  0
 15 42  1  0
 15 43  1  0
 16 44  1  0
 16 45  1  0
 17 46  1  0
 17 47  1  0
 18 48  1  0
 18 49  1  0
 20 50  1  0
 21 51  1  0
 23 52  1  0
 26 53  1  0
 27 54  1  0
M  END
>  <smiles>  (19) 
O=C(NCC(=O)N1C[C@H](O)C[C@H]1CN1CCCC1)c1ccc2cc(F)ccc2n1

>  <score_type>  (19) 
oracle

>  <origin>  (19) 
autodockgpu

>  <m_score__min__energy>  (19) 
-8.9700000000000006

>  <m_primary>  (19) 
energy

>  <rmsd>  (19) 
2.4720606582164804

>  <m_score__min__rmsd>  (19) 
2.4720606582164804

>  <meeko>  (19) 
{"free_energy": -7.88, "intermolecular_energy": -9.97, "internal_energy": -1.45, "cluster_size": 33, "cluster_id": 1, "rank_in_cluster": 28}

>  <energy>  (19) 
-8.37

>  <cluster_rmsd>  (19) 
0.82

>  <cluster>  (19) 
1

$$$$

     RDKit          3D

 54 57  0  0  0  0  0  0  0  0999 V2000
  135.9130   77.3120  222.8010 O   0  0  0  0  0  0  0  0  0  0  0  0
  136.1380   76.1350  223.2040 C   0  0  0  0  0  0  0  0  0  0  0  0
  137.2800   75.4120  222.7040 N   0  0  0  0  0  0  0  0  0  0  0  0
  138.1390   76.0760  221.7460 C   0  0  0  0  0  0  0  0  0  0  0  0
  139.5070   75.4490  221.7740 C   0  0  0  0  0  0  0  0  0  0  0  0
  139.6580   74.3420  222.3420 O   0  0  0  0  0  0  0  0  0  0  0  0
  140.5380   76.1810  221.1420 N   0  0  0  0  0  0  0  0  0  0  0  0
  141.0800   76.0360  219.7900 C   0  0  0  0  0  0  0  0  0  0  0  0
  141.5540   77.3840  219.3730 C   0  0  2  0  0  0  0  0  0  0  0  0
  142.9630   77.4390  219.3430 O   0  0  0  0  0  0  0  0  0  0  0  0
  141.1480   78.2730  220.5630 C   0  0  0  0  0  0  0  0  0  0  0  0
  141.3460   77.2970  221.6970 C   0  0  1  0  0  0  0  0  0  0  0  0
  140.8380   77.7160  223.0170 C   0  0  0  0  0  0  0  0  0  0  0  0
  141.3740   78.9420  223.5280 N   0  0  0  0  0  0  0  0  0  0  0  0
  142.6330   79.3650  223.0740 C   0  0  0  0  0  0  0  0  0  0  0  0
  142.6470   80.8810  223.1180 C   0  0  0  0  0  0  0  0  0  0  0  0
  141.2210   81.2360  222.8590 C   0  0  0  0  0  0  0  0  0  0  0  0
  140.4490   80.0220  223.2340 C   0  0  0  0  0  0  0  0  0  0  0  0
  135.2800   75.4560  224.1700 C   0  0  0  0  0  0  0  0  0  0  0  0
  134.4880   76.2580  224.9810 C   0  0  0  0  0  0  0  0  0  0  0  0
  133.6330   75.7440  225.9290 C   0  0  0  0  0  0  0  0  0  0  0  0
  133.5830   74.3580  226.0520 C   0  0  0  0  0  0  0  0  0  0  0  0
  132.7400   73.8100  226.9850 C   0  0  0  0  0  0  0  0  0  0  0  0
  132.6970   72.4420  227.1010 C   0  0  0  0  0  0  0  0  0  0  0  0
  131.8840   71.8780  228.0030 F   0  0  0  0  0  0  0  0  0  0  0  0
  133.4960   71.6760  226.2790 C   0  0  0  0  0  0  0  0  0  0  0  0
  134.3430   72.1980  225.3410 C   0  0  0  0  0  0  0  0  0  0  0  0
  134.3890   73.5780  225.2210 C   0  0  0  0  0  0  0  0  0  0  0  0
  135.2110   74.1310  224.3100 N   0  0  0  0  0  0  0  0  0  0  0  0
  137.4920   74.4420  223.0140 H   0  0  0  0  0  0  0  0  0  0  0  0
  137.7104   75.9743  220.7381 H   0  0  0  0  0  0  0  0  0  0  0  0
  138.2205   77.1417  222.0060 H   0  0  0  0  0  0  0  0  0  0  0  0
  141.9178   75.3232  219.7917 H   0  0  0  0  0  0  0  0  0  0  0  0
  140.3170   75.6526  219.0966 H   0  0  0  0  0  0  0  0  0  0  0  0
  141.1551   77.6608  218.3859 H   0  0  0  0  0  0  0  0  0  0  0  0
  143.3570   77.6350  220.2180 H   0  0  0  0  0  0  0  0  0  0  0  0
  141.8043   79.1504  220.6600 H   0  0  0  0  0  0  0  0  0  0  0  0
  140.1394   78.7067  220.4951 H   0  0  0  0  0  0  0  0  0  0  0  0
  142.4035   77.1109  221.9358 H   0  0  0  0  0  0  0  0  0  0  0  0
  139.7469   77.8310  222.9383 H   0  0  0  0  0  0  0  0  0  0  0  0
  141.1543   76.9334  223.7223 H   0  0  0  0  0  0  0  0  0  0  0  0
  143.4222   78.9629  223.7263 H   0  0  0  0  0  0  0  0  0  0  0  0
  142.8173   79.0051  222.0510 H   0  0  0  0  0  0  0  0  0  0  0  0
  142.9726   81.2452  224.1036 H   0  0  0  0  0  0  0  0  0  0  0  0
  143.3442   81.3298  222.3952 H   0  0  0  0  0  0  0  0  0  0  0  0
  140.9175   82.0937  223.4773 H   0  0  0  0  0  0  0  0  0  0  0  0
  141.0509   81.5272  221.8120 H   0  0  0  0  0  0  0  0  0  0  0  0
  139.8369   80.2348  224.1228 H   0  0  0  0  0  0  0  0  0  0  0  0
  139.7911   79.7300  222.4022 H   0  0  0  0  0  0  0  0  0  0  0  0
  134.5465   77.3498  224.8607 H   0  0  0  0  0  0  0  0  0  0  0  0
  133.0163   76.3993  226.5617 H   0  0  0  0  0  0  0  0  0  0  0  0
  132.1141   74.4500  227.6243 H   0  0  0  0  0  0  0  0  0  0  0  0
  133.4494   70.5820  226.3838 H   0  0  0  0  0  0  0  0  0  0  0  0
  134.9636   71.5481  224.7065 H   0  0  0  0  0  0  0  0  0  0  0  0
  1  2  2  0
  2  3  1  0
  3  4  1  0
  4  5  1  0
  5  6  2  0
  5  7  1  0
  7  8  1  0
  8  9  1  0
  9 10  1  0
  9 11  1  0
 11 12  1  0
 12 13  1  0
 13 14  1  0
 14 15  1  0
 15 16  1  0
 16 17  1  0
 17 18  1  0
  2 19  1  0
 19 20  2  0
 20 21  1  0
 21 22  2  0
 22 23  1  0
 23 24  2  0
 24 25  1  0
 24 26  1  0
 26 27  2  0
 27 28  1  0
 28 29  2  0
 12  7  1  0
 18 14  1  0
 29 19  1  0
 28 22  1  0
  3 30  1  0
  4 31  1  0
  4 32  1  0
  8 33  1  0
  8 34  1  0
  9 35  1  6
 10 36  1  0
 11 37  1  0
 11 38  1  0
 12 39  1  1
 13 40  1  0
 13 41  1  0
 15 42  1  0
 15 43  1  0
 16 44  1  0
 16 45  1  0
 17 46  1  0
 17 47  1  0
 18 48  1  0
 18 49  1  0
 20 50  1  0
 21 51  1  0
 23 52  1  0
 26 53  1  0
 27 54  1  0
M  END
>  <smiles>  (20) 
O=C(NCC(=O)N1C[C@H](O)C[C@H]1CN1CCCC1)c1ccc2cc(F)ccc2n1

>  <score_type>  (20) 
oracle

>  <origin>  (20) 
autodockgpu

>  <m_score__min__energy>  (20) 
-8.9700000000000006

>  <m_primary>  (20) 
energy

>  <rmsd>  (20) 
5.5763385451509535

>  <m_score__min__rmsd>  (20) 
5.5763385451509535

>  <meeko>  (20) 
{"free_energy": -6.98, "intermolecular_energy": -9.07, "internal_energy": -1.88, "cluster_size": 3, "cluster_id": 5, "rank_in_cluster": 3}

>  <energy>  (20) 
-8.27

>  <cluster_rmsd>  (20) 
0.84

>  <cluster>  (20) 
1

$$$$

     RDKit          3D

 54 57  0  0  0  0  0  0  0  0999 V2000
  141.3420   72.4880  221.8000 O   0  0  0  0  0  0  0  0  0  0  0  0
  140.3460   72.4770  222.5790 C   0  0  0  0  0  0  0  0  0  0  0  0
  139.2440   73.3770  222.3480 N   0  0  0  0  0  0  0  0  0  0  0  0
  139.3250   74.2720  221.2120 C   0  0  0  0  0  0  0  0  0  0  0  0
  139.8980   75.5930  221.6500 C   0  0  0  0  0  0  0  0  0  0  0  0
  139.2990   76.2550  222.5310 O   0  0  0  0  0  0  0  0  0  0  0  0
  141.0970   75.9910  221.0160 N   0  0  0  0  0  0  0  0  0  0  0  0
  142.1820   75.1640  220.4860 C   0  0  0  0  0  0  0  0  0  0  0  0
  142.7810   75.9190  219.3520 C   0  0  2  0  0  0  0  0  0  0  0  0
  144.0580   76.4150  219.6910 O   0  0  0  0  0  0  0  0  0  0  0  0
  141.8830   77.1670  219.2600 C   0  0  0  0  0  0  0  0  0  0  0  0
  141.5660   77.3690  220.7220 C   0  0  1  0  0  0  0  0  0  0  0  0
  140.5240   78.3650  221.0330 C   0  0  0  0  0  0  0  0  0  0  0  0
  140.8810   79.3560  222.0030 N   0  0  0  0  0  0  0  0  0  0  0  0
  141.1760   78.9400  223.3100 C   0  0  0  0  0  0  0  0  0  0  0  0
  142.1790   79.9220  223.8840 C   0  0  0  0  0  0  0  0  0  0  0  0
  142.9480   80.3560  222.6810 C   0  0  0  0  0  0  0  0  0  0  0  0
  142.0480   80.0810  221.5310 C   0  0  0  0  0  0  0  0  0  0  0  0
  140.2530   71.5790  223.7260 C   0  0  0  0  0  0  0  0  0  0  0  0
  139.6640   70.3400  223.5090 C   0  0  0  0  0  0  0  0  0  0  0  0
  139.5190   69.4000  224.5040 C   0  0  0  0  0  0  0  0  0  0  0  0
  139.9950   69.7380  225.7680 C   0  0  0  0  0  0  0  0  0  0  0  0
  139.8690   68.8250  226.7840 C   0  0  0  0  0  0  0  0  0  0  0  0
  140.3410   69.1650  228.0280 C   0  0  0  0  0  0  0  0  0  0  0  0
  140.2320   68.2950  229.0400 F   0  0  0  0  0  0  0  0  0  0  0  0
  140.9210   70.4030  228.2080 C   0  0  0  0  0  0  0  0  0  0  0  0
  141.0590   71.3290  227.2120 C   0  0  0  0  0  0  0  0  0  0  0  0
  140.5840   70.9900  225.9550 C   0  0  0  0  0  0  0  0  0  0  0  0
  140.7010   71.8750  224.9480 N   0  0  0  0  0  0  0  0  0  0  0  0
  138.4110   73.3940  222.9700 H   0  0  0  0  0  0  0  0  0  0  0  0
  139.9738   73.8287  220.4422 H   0  0  0  0  0  0  0  0  0  0  0  0
  138.3179   74.4297  220.7986 H   0  0  0  0  0  0  0  0  0  0  0  0
  142.9384   74.9865  221.2647 H   0  0  0  0  0  0  0  0  0  0  0  0
  141.8070   74.1844  220.1547 H   0  0  0  0  0  0  0  0  0  0  0  0
  142.8581   75.2932  218.4507 H   0  0  0  0  0  0  0  0  0  0  0  0
  144.0240   77.2880  220.1310 H   0  0  0  0  0  0  0  0  0  0  0  0
  142.4217   78.0274  218.8362 H   0  0  0  0  0  0  0  0  0  0  0  0
  141.0052   77.0594  218.6058 H   0  0  0  0  0  0  0  0  0  0  0  0
  142.4095   77.7701  221.3030 H   0  0  0  0  0  0  0  0  0  0  0  0
  140.2640   78.8847  220.0991 H   0  0  0  0  0  0  0  0  0  0  0  0
  139.6912   77.7989  221.4758 H   0  0  0  0  0  0  0  0  0  0  0  0
  140.2604   78.9385  223.9196 H   0  0  0  0  0  0  0  0  0  0  0  0
  141.5884   77.9202  223.3088 H   0  0  0  0  0  0  0  0  0  0  0  0
  141.6710   80.7749  224.3577 H   0  0  0  0  0  0  0  0  0  0  0  0
  142.8127   79.4855  224.6700 H   0  0  0  0  0  0  0  0  0  0  0  0
  143.1845   81.4287  222.7393 H   0  0  0  0  0  0  0  0  0  0  0  0
  143.9081   79.8269  222.5907 H   0  0  0  0  0  0  0  0  0  0  0  0
  141.7320   81.0310  221.0753 H   0  0  0  0  0  0  0  0  0  0  0  0
  142.5799   79.4782  220.7802 H   0  0  0  0  0  0  0  0  0  0  0  0
  139.2981   70.0999  222.4998 H   0  0  0  0  0  0  0  0  0  0  0  0
  139.0480   68.4252  224.3092 H   0  0  0  0  0  0  0  0  0  0  0  0
  139.4016   67.8451  226.6067 H   0  0  0  0  0  0  0  0  0  0  0  0
  141.2940   70.6601  229.2104 H   0  0  0  0  0  0  0  0  0  0  0  0
  141.5289   72.3055  227.4009 H   0  0  0  0  0  0  0  0  0  0  0  0
  1  2  2  0
  2  3  1  0
  3  4  1  0
  4  5  1  0
  5  6  2  0
  5  7  1  0
  7  8  1  0
  8  9  1  0
  9 10  1  0
  9 11  1  0
 11 12  1  0
 12 13  1  0
 13 14  1  0
 14 15  1  0
 15 16  1  0
 16 17  1  0
 17 18  1  0
  2 19  1  0
 19 20  2  0
 20 21  1  0
 21 22  2  0
 22 23  1  0
 23 24  2  0
 24 25  1  0
 24 26  1  0
 26 27  2  0
 27 28  1  0
 28 29  2  0
 12  7  1  0
 18 14  1  0
 29 19  1  0
 28 22  1  0
  3 30  1  0
  4 31  1  0
  4 32  1  0
  8 33  1  0
  8 34  1  0
  9 35  1  6
 10 36  1  0
 11 37  1  0
 11 38  1  0
 12 39  1  1
 13 40  1  0
 13 41  1  0
 15 42  1  0
 15 43  1  0
 16 44  1  0
 16 45  1  0
 17 46  1  0
 17 47  1  0
 18 48  1  0
 18 49  1  0
 20 50  1  0
 21 51  1  0
 23 52  1  0
 26 53  1  0
 27 54  1  0
M  END
>  <smiles>  (21) 
O=C(NCC(=O)N1C[C@H](O)C[C@H]1CN1CCCC1)c1ccc2cc(F)ccc2n1

>  <score_type>  (21) 
oracle

>  <origin>  (21) 
autodockgpu

>  <m_score__min__energy>  (21) 
-8.9700000000000006

>  <m_primary>  (21) 
energy

>  <rmsd>  (21) 
1.9836604840068752

>  <m_score__min__rmsd>  (21) 
1.9836604840068752

>  <meeko>  (21) 
{"free_energy": -8.85, "intermolecular_energy": -10.94, "internal_energy": -1.43, "cluster_size": 33, "cluster_id": 1, "rank_in_cluster": 3}

>  <energy>  (21) 
-8.2

>  <cluster_rmsd>  (21) 
1.01

>  <cluster>  (21) 
1

$$$$

     RDKit          3D

 54 57  0  0  0  0  0  0  0  0999 V2000
  141.0800   71.4610  221.5640 O   0  0  0  0  0  0  0  0  0  0  0  0
  140.4550   71.8730  222.5840 C   0  0  0  0  0  0  0  0  0  0  0  0
  139.8710   73.1900  222.5830 N   0  0  0  0  0  0  0  0  0  0  0  0
  140.0250   74.0020  221.3940 C   0  0  0  0  0  0  0  0  0  0  0  0
  139.9540   75.4590  221.7640 C   0  0  0  0  0  0  0  0  0  0  0  0
  139.2050   75.8130  222.7050 O   0  0  0  0  0  0  0  0  0  0  0  0
  140.7580   76.3340  220.9990 N   0  0  0  0  0  0  0  0  0  0  0  0
  141.5460   76.0550  219.7970 C   0  0  0  0  0  0  0  0  0  0  0  0
  141.5820   77.3150  219.0070 C   0  0  2  0  0  0  0  0  0  0  0  0
  142.8650   77.9020  219.0480 O   0  0  0  0  0  0  0  0  0  0  0  0
  140.6880   78.2610  219.8300 C   0  0  0  0  0  0  0  0  0  0  0  0
  141.0120   77.7800  221.2240 C   0  0  1  0  0  0  0  0  0  0  0  0
  140.1650   78.3070  222.3100 C   0  0  0  0  0  0  0  0  0  0  0  0
  140.8160   79.1840  223.2370 N   0  0  0  0  0  0  0  0  0  0  0  0
  142.2020   79.0550  223.4220 C   0  0  0  0  0  0  0  0  0  0  0  0
  142.7420   80.4250  223.7840 C   0  0  0  0  0  0  0  0  0  0  0  0
  141.8230   81.3490  223.0560 C   0  0  0  0  0  0  0  0  0  0  0  0
  140.5850   80.5590  222.8290 C   0  0  0  0  0  0  0  0  0  0  0  0
  140.2930   71.0640  223.7880 C   0  0  0  0  0  0  0  0  0  0  0  0
  139.6090   69.8630  223.6510 C   0  0  0  0  0  0  0  0  0  0  0  0
  139.3910   69.0060  224.7060 C   0  0  0  0  0  0  0  0  0  0  0  0
  139.8920   69.3900  225.9480 C   0  0  0  0  0  0  0  0  0  0  0  0
  139.6940   68.5600  227.0220 C   0  0  0  0  0  0  0  0  0  0  0  0
  140.1900   68.9440  228.2430 C   0  0  0  0  0  0  0  0  0  0  0  0
  140.0150   68.1550  229.3100 F   0  0  0  0  0  0  0  0  0  0  0  0
  140.8650   70.1430  228.3420 C   0  0  0  0  0  0  0  0  0  0  0  0
  141.0760   70.9870  227.2870 C   0  0  0  0  0  0  0  0  0  0  0  0
  140.5760   70.6020  226.0530 C   0  0  0  0  0  0  0  0  0  0  0  0
  140.7620   71.4050  224.9900 N   0  0  0  0  0  0  0  0  0  0  0  0
  139.3520   73.5590  223.4050 H   0  0  0  0  0  0  0  0  0  0  0  0
  140.9991   73.7895  220.9294 H   0  0  0  0  0  0  0  0  0  0  0  0
  139.2186   73.7661  220.6840 H   0  0  0  0  0  0  0  0  0  0  0  0
  142.5665   75.7524  220.0746 H   0  0  0  0  0  0  0  0  0  0  0  0
  141.1012   75.2352  219.2139 H   0  0  0  0  0  0  0  0  0  0  0  0
  141.2912   77.1399  217.9607 H   0  0  0  0  0  0  0  0  0  0  0  0
  143.4380   77.5190  219.7440 H   0  0  0  0  0  0  0  0  0  0  0  0
  140.9678   79.3151  219.6864 H   0  0  0  0  0  0  0  0  0  0  0  0
  139.6202   78.2352  219.5672 H   0  0  0  0  0  0  0  0  0  0  0  0
  142.0078   78.0887  221.5749 H   0  0  0  0  0  0  0  0  0  0  0  0
  139.3318   78.8592  221.8508 H   0  0  0  0  0  0  0  0  0  0  0  0
  139.8509   77.4311  222.8966 H   0  0  0  0  0  0  0  0  0  0  0  0
  142.4079   78.3431  224.2349 H   0  0  0  0  0  0  0  0  0  0  0  0
  142.6820   78.6783  222.5067 H   0  0  0  0  0  0  0  0  0  0  0  0
  142.6951   80.5946  224.8698 H   0  0  0  0  0  0  0  0  0  0  0  0
  143.7992   80.5608  223.5123 H   0  0  0  0  0  0  0  0  0  0  0  0
  141.6074   82.2393  223.6651 H   0  0  0  0  0  0  0  0  0  0  0  0
  142.2612   81.7107  222.1141 H   0  0  0  0  0  0  0  0  0  0  0  0
  139.7622   80.9856  223.4215 H   0  0  0  0  0  0  0  0  0  0  0  0
  140.3172   80.5887  221.7625 H   0  0  0  0  0  0  0  0  0  0  0  0
  139.2255   69.5851  222.6582 H   0  0  0  0  0  0  0  0  0  0  0  0
  138.8455   68.0599  224.5742 H   0  0  0  0  0  0  0  0  0  0  0  0
  139.1512   67.6101  226.9077 H   0  0  0  0  0  0  0  0  0  0  0  0
  141.2563   70.4373  229.3270 H   0  0  0  0  0  0  0  0  0  0  0  0
  141.6211   71.9341  227.4127 H   0  0  0  0  0  0  0  0  0  0  0  0
  1  2  2  0
  2  3  1  0
  3  4  1  0
  4  5  1  0
  5  6  2  0
  5  7  1  0
  7  8  1  0
  8  9  1  0
  9 10  1  0
  9 11  1  0
 11 12  1  0
 12 13  1  0
 13 14  1  0
 14 15  1  0
 15 16  1  0
 16 17  1  0
 17 18  1  0
  2 19  1  0
 19 20  2  0
 20 21  1  0
 21 22  2  0
 22 23  1  0
 23 24  2  0
 24 25  1  0
 24 26  1  0
 26 27  2  0
 27 28  1  0
 28 29  2  0
 12  7  1  0
 18 14  1  0
 29 19  1  0
 28 22  1  0
  3 30  1  0
  4 31  1  0
  4 32  1  0
  8 33  1  0
  8 34  1  0
  9 35  1  6
 10 36  1  0
 11 37  1  0
 11 38  1  0
 12 39  1  1
 13 40  1  0
 13 41  1  0
 15 42  1  0
 15 43  1  0
 16 44  1  0
 16 45  1  0
 17 46  1  0
 17 47  1  0
 18 48  1  0
 18 49  1  0
 20 50  1  0
 21 51  1  0
 23 52  1  0
 26 53  1  0
 27 54  1  0
M  END
>  <smiles>  (22) 
O=C(NCC(=O)N1C[C@H](O)C[C@H]1CN1CCCC1)c1ccc2cc(F)ccc2n1

>  <score_type>  (22) 
oracle

>  <origin>  (22) 
autodockgpu

>  <m_score__min__energy>  (22) 
-8.9700000000000006

>  <m_primary>  (22) 
energy

>  <rmsd>  (22) 
2.060749614078478

>  <m_score__min__rmsd>  (22) 
2.060749614078478

>  <meeko>  (22) 
{"free_energy": -8.44, "intermolecular_energy": -10.52, "internal_energy": -1.55, "cluster_size": 33, "cluster_id": 1, "rank_in_cluster": 16}

>  <energy>  (22) 
-8.2

>  <cluster_rmsd>  (22) 
0.99

>  <cluster>  (22) 
1

$$$$

     RDKit          3D

 54 57  0  0  0  0  0  0  0  0999 V2000
  136.3520   77.1960  222.4960 O   0  0  0  0  0  0  0  0  0  0  0  0
  136.4780   76.0190  222.9400 C   0  0  0  0  0  0  0  0  0  0  0  0
  137.5530   75.1840  222.4650 N   0  0  0  0  0  0  0  0  0  0  0  0
  138.4610   75.7400  221.4840 C   0  0  0  0  0  0  0  0  0  0  0  0
  139.8300   75.1400  221.6660 C   0  0  0  0  0  0  0  0  0  0  0  0
  139.9510   74.0940  222.3470 O   0  0  0  0  0  0  0  0  0  0  0  0
  140.8970   75.8240  221.0390 N   0  0  0  0  0  0  0  0  0  0  0  0
  141.7420   75.3960  219.9230 C   0  0  0  0  0  0  0  0  0  0  0  0
  142.1550   76.6300  219.2020 C   0  0  2  0  0  0  0  0  0  0  0  0
  143.5220   76.9090  219.4170 O   0  0  0  0  0  0  0  0  0  0  0  0
  141.4020   77.7380  219.9600 C   0  0  0  0  0  0  0  0  0  0  0  0
  141.4380   77.1700  221.3580 C   0  0  1  0  0  0  0  0  0  0  0  0
  140.6040   77.8550  222.3640 C   0  0  0  0  0  0  0  0  0  0  0  0
  141.2990   78.7470  223.2430 N   0  0  0  0  0  0  0  0  0  0  0  0
  142.5580   79.2300  222.8520 C   0  0  0  0  0  0  0  0  0  0  0  0
  142.7290   80.6050  223.4690 C   0  0  0  0  0  0  0  0  0  0  0  0
  141.3310   81.1260  223.5180 C   0  0  0  0  0  0  0  0  0  0  0  0
  140.4690   79.9150  223.4820 C   0  0  0  0  0  0  0  0  0  0  0  0
  135.5690   75.4480  223.9290 C   0  0  0  0  0  0  0  0  0  0  0  0
  134.7740   76.3380  224.6400 C   0  0  0  0  0  0  0  0  0  0  0  0
  133.8730   75.9310  225.5970 C   0  0  0  0  0  0  0  0  0  0  0  0
  133.7790   74.5620  225.8360 C   0  0  0  0  0  0  0  0  0  0  0  0
  132.8900   74.1190  226.7830 C   0  0  0  0  0  0  0  0  0  0  0  0
  132.8020   72.7690  227.0140 C   0  0  0  0  0  0  0  0  0  0  0  0
  131.9430   72.3060  227.9310 F   0  0  0  0  0  0  0  0  0  0  0  0
  133.6060   71.9140  226.2890 C   0  0  0  0  0  0  0  0  0  0  0  0
  134.4980   72.3290  225.3410 C   0  0  0  0  0  0  0  0  0  0  0  0
  134.5890   73.6920  225.1050 C   0  0  0  0  0  0  0  0  0  0  0  0
  135.4560   74.1420  224.1790 N   0  0  0  0  0  0  0  0  0  0  0  0
  137.6840   74.2120  222.8090 H   0  0  0  0  0  0  0  0  0  0  0  0
  138.0925   75.5114  220.4731 H   0  0  0  0  0  0  0  0  0  0  0  0
  138.5193   76.8304  221.6167 H   0  0  0  0  0  0  0  0  0  0  0  0
  142.6272   74.8631  220.3004 H   0  0  0  0  0  0  0  0  0  0  0  0
  141.1990   74.7107  219.2556 H   0  0  0  0  0  0  0  0  0  0  0  0
  141.9623   76.5459  218.1223 H   0  0  0  0  0  0  0  0  0  0  0  0
  143.6900   77.8470  219.6400 H   0  0  0  0  0  0  0  0  0  0  0  0
  141.9256   78.7034  219.8980 H   0  0  0  0  0  0  0  0  0  0  0  0
  140.3955   77.9604  219.5760 H   0  0  0  0  0  0  0  0  0  0  0  0
  142.4272   77.2381  221.8344 H   0  0  0  0  0  0  0  0  0  0  0  0
  139.8381   78.4359  221.8293 H   0  0  0  0  0  0  0  0  0  0  0  0
  140.1942   77.0607  223.0052 H   0  0  0  0  0  0  0  0  0  0  0  0
  143.3481   78.5552  223.2130 H   0  0  0  0  0  0  0  0  0  0  0  0
  142.6291   79.2851  221.7557 H   0  0  0  0  0  0  0  0  0  0  0  0
  143.1606   80.5347  224.4784 H   0  0  0  0  0  0  0  0  0  0  0  0
  143.4139   81.2528  222.9022 H   0  0  0  0  0  0  0  0  0  0  0  0
  141.1620   81.6937  224.4449 H   0  0  0  0  0  0  0  0  0  0  0  0
  141.1157   81.8120  222.6855 H   0  0  0  0  0  0  0  0  0  0  0  0
  139.9475   79.8055  224.4443 H   0  0  0  0  0  0  0  0  0  0  0  0
  139.7265   80.0128  222.6763 H   0  0  0  0  0  0  0  0  0  0  0  0
  134.8687   77.4134  224.4291 H   0  0  0  0  0  0  0  0  0  0  0  0
  133.2546   76.6544  226.1486 H   0  0  0  0  0  0  0  0  0  0  0  0
  132.2633   74.8286  227.3432 H   0  0  0  0  0  0  0  0  0  0  0  0
  133.5241   70.8348  226.4857 H   0  0  0  0  0  0  0  0  0  0  0  0
  135.1194   71.6100  224.7869 H   0  0  0  0  0  0  0  0  0  0  0  0
  1  2  2  0
  2  3  1  0
  3  4  1  0
  4  5  1  0
  5  6  2  0
  5  7  1  0
  7  8  1  0
  8  9  1  0
  9 10  1  0
  9 11  1  0
 11 12  1  0
 12 13  1  0
 13 14  1  0
 14 15  1  0
 15 16  1  0
 16 17  1  0
 17 18  1  0
  2 19  1  0
 19 20  2  0
 20 21  1  0
 21 22  2  0
 22 23  1  0
 23 24  2  0
 24 25  1  0
 24 26  1  0
 26 27  2  0
 27 28  1  0
 28 29  2  0
 12  7  1  0
 18 14  1  0
 29 19  1  0
 28 22  1  0
  3 30  1  0
  4 31  1  0
  4 32  1  0
  8 33  1  0
  8 34  1  0
  9 35  1  6
 10 36  1  0
 11 37  1  0
 11 38  1  0
 12 39  1  1
 13 40  1  0
 13 41  1  0
 15 42  1  0
 15 43  1  0
 16 44  1  0
 16 45  1  0
 17 46  1  0
 17 47  1  0
 18 48  1  0
 18 49  1  0
 20 50  1  0
 21 51  1  0
 23 52  1  0
 26 53  1  0
 27 54  1  0
M  END
>  <smiles>  (23) 
O=C(NCC(=O)N1C[C@H](O)C[C@H]1CN1CCCC1)c1ccc2cc(F)ccc2n1

>  <score_type>  (23) 
oracle

>  <origin>  (23) 
autodockgpu

>  <m_score__min__energy>  (23) 
-8.9700000000000006

>  <m_primary>  (23) 
energy

>  <rmsd>  (23) 
5.536169463645432

>  <m_score__min__rmsd>  (23) 
5.536169463645432

>  <meeko>  (23) 
{"free_energy": -7.39, "intermolecular_energy": -9.48, "internal_energy": -1.85, "cluster_size": 3, "cluster_id": 5, "rank_in_cluster": 1}

>  <energy>  (23) 
-8.19

>  <cluster_rmsd>  (23) 
1.23

>  <cluster>  (23) 
1

$$$$

     RDKit          3D

 54 57  0  0  0  0  0  0  0  0999 V2000
  139.4030   71.2310  221.1420 O   0  0  0  0  0  0  0  0  0  0  0  0
  139.5270   71.7900  222.2690 C   0  0  0  0  0  0  0  0  0  0  0  0
  139.4670   73.2270  222.3670 N   0  0  0  0  0  0  0  0  0  0  0  0
  139.2640   73.9830  221.1480 C   0  0  0  0  0  0  0  0  0  0  0  0
  139.5620   75.4370  221.4010 C   0  0  0  0  0  0  0  0  0  0  0  0
  138.6910   76.1500  221.9540 O   0  0  0  0  0  0  0  0  0  0  0  0
  140.8320   75.8930  220.9820 N   0  0  0  0  0  0  0  0  0  0  0  0
  141.9070   75.1550  220.3150 C   0  0  0  0  0  0  0  0  0  0  0  0
  142.6440   76.1380  219.4770 C   0  0  2  0  0  0  0  0  0  0  0  0
  143.9150   76.4170  220.0220 O   0  0  0  0  0  0  0  0  0  0  0  0
  141.8350   77.4330  219.6760 C   0  0  0  0  0  0  0  0  0  0  0  0
  141.4080   77.2560  221.1130 C   0  0  1  0  0  0  0  0  0  0  0  0
  140.4050   78.2110  221.6190 C   0  0  0  0  0  0  0  0  0  0  0  0
  140.9270   79.3560  222.3030 N   0  0  0  0  0  0  0  0  0  0  0  0
  141.1710   79.2600  223.6820 C   0  0  0  0  0  0  0  0  0  0  0  0
  142.3240   80.1910  224.0050 C   0  0  0  0  0  0  0  0  0  0  0  0
  143.1350   80.1660  222.7520 C   0  0  0  0  0  0  0  0  0  0  0  0
  142.1860   79.7390  221.6900 C   0  0  0  0  0  0  0  0  0  0  0  0
  139.7310   71.0390  223.5040 C   0  0  0  0  0  0  0  0  0  0  0  0
  139.3830   69.6940  223.4870 C   0  0  0  0  0  0  0  0  0  0  0  0
  139.5300   68.8740  224.5820 C   0  0  0  0  0  0  0  0  0  0  0  0
  140.0530   69.4470  225.7380 C   0  0  0  0  0  0  0  0  0  0  0  0
  140.2150   68.6590  226.8490 C   0  0  0  0  0  0  0  0  0  0  0  0
  140.7310   69.2310  227.9850 C   0  0  0  0  0  0  0  0  0  0  0  0
  140.9020   68.4870  229.0850 F   0  0  0  0  0  0  0  0  0  0  0  0
  141.0670   70.5690  227.9660 C   0  0  0  0  0  0  0  0  0  0  0  0
  140.9160   71.3750  226.8730 C   0  0  0  0  0  0  0  0  0  0  0  0
  140.3950   70.8000  225.7230 C   0  0  0  0  0  0  0  0  0  0  0  0
  140.2310   71.5610  224.6260 N   0  0  0  0  0  0  0  0  0  0  0  0
  139.5660   73.7180  223.2780 H   0  0  0  0  0  0  0  0  0  0  0  0
  139.9360   73.6023  220.3647 H   0  0  0  0  0  0  0  0  0  0  0  0
  138.2194   73.8754  220.8206 H   0  0  0  0  0  0  0  0  0  0  0  0
  142.5823   74.7115  221.0615 H   0  0  0  0  0  0  0  0  0  0  0  0
  141.5033   74.3360  219.7015 H   0  0  0  0  0  0  0  0  0  0  0  0
  142.7589   75.7765  218.4445 H   0  0  0  0  0  0  0  0  0  0  0  0
  144.0000   77.3380  220.3430 H   0  0  0  0  0  0  0  0  0  0  0  0
  142.4591   78.3289  219.5428 H   0  0  0  0  0  0  0  0  0  0  0  0
  141.0110   77.5793  218.9621 H   0  0  0  0  0  0  0  0  0  0  0  0
  142.2221   77.4142  221.8357 H   0  0  0  0  0  0  0  0  0  0  0  0
  139.8164   78.5689  220.7614 H   0  0  0  0  0  0  0  0  0  0  0  0
  139.8153   77.6589  222.3656 H   0  0  0  0  0  0  0  0  0  0  0  0
  140.2751   79.5621  224.2442 H   0  0  0  0  0  0  0  0  0  0  0  0
  141.4177   78.2251  223.9614 H   0  0  0  0  0  0  0  0  0  0  0  0
  141.9631   81.2071  224.2224 H   0  0  0  0  0  0  0  0  0  0  0  0
  142.8922   79.8854  224.8960 H   0  0  0  0  0  0  0  0  0  0  0  0
  143.5379   81.1656  222.5318 H   0  0  0  0  0  0  0  0  0  0  0  0
  143.9989   79.4897  222.8315 H   0  0  0  0  0  0  0  0  0  0  0  0
  142.0170   80.5713  220.9909 H   0  0  0  0  0  0  0  0  0  0  0  0
  142.6057   78.8835  221.1405 H   0  0  0  0  0  0  0  0  0  0  0  0
  138.9730   69.2671  222.5598 H   0  0  0  0  0  0  0  0  0  0  0  0
  139.2466   67.8118  224.5456 H   0  0  0  0  0  0  0  0  0  0  0  0
  139.9381   67.5946  226.8300 H   0  0  0  0  0  0  0  0  0  0  0  0
  141.4803   71.0126  228.8838 H   0  0  0  0  0  0  0  0  0  0  0  0
  141.1966   72.4382  226.9038 H   0  0  0  0  0  0  0  0  0  0  0  0
  1  2  2  0
  2  3  1  0
  3  4  1  0
  4  5  1  0
  5  6  2  0
  5  7  1  0
  7  8  1  0
  8  9  1  0
  9 10  1  0
  9 11  1  0
 11 12  1  0
 12 13  1  0
 13 14  1  0
 14 15  1  0
 15 16  1  0
 16 17  1  0
 17 18  1  0
  2 19  1  0
 19 20  2  0
 20 21  1  0
 21 22  2  0
 22 23  1  0
 23 24  2  0
 24 25  1  0
 24 26  1  0
 26 27  2  0
 27 28  1  0
 28 29  2  0
 12  7  1  0
 18 14  1  0
 29 19  1  0
 28 22  1  0
  3 30  1  0
  4 31  1  0
  4 32  1  0
  8 33  1  0
  8 34  1  0
  9 35  1  6
 10 36  1  0
 11 37  1  0
 11 38  1  0
 12 39  1  1
 13 40  1  0
 13 41  1  0
 15 42  1  0
 15 43  1  0
 16 44  1  0
 16 45  1  0
 17 46  1  0
 17 47  1  0
 18 48  1  0
 18 49  1  0
 20 50  1  0
 21 51  1  0
 23 52  1  0
 26 53  1  0
 27 54  1  0
M  END
>  <smiles>  (24) 
O=C(NCC(=O)N1C[C@H](O)C[C@H]1CN1CCCC1)c1ccc2cc(F)ccc2n1

>  <score_type>  (24) 
oracle

>  <origin>  (24) 
autodockgpu

>  <m_score__min__energy>  (24) 
-8.9700000000000006

>  <m_primary>  (24) 
energy

>  <rmsd>  (24) 
1.8716173491608303

>  <m_score__min__rmsd>  (24) 
1.8716173491608303

>  <meeko>  (24) 
{"free_energy": -8.37, "intermolecular_energy": -10.46, "internal_energy": -1.29, "cluster_size": 33, "cluster_id": 1, "rank_in_cluster": 19}

>  <energy>  (24) 
-8.19

>  <cluster_rmsd>  (24) 
1.0

>  <cluster>  (24) 
1

$$$$

     RDKit          3D

 54 57  0  0  0  0  0  0  0  0999 V2000
  140.3010   71.2770  221.0970 O   0  0  0  0  0  0  0  0  0  0  0  0
  140.0550   71.8500  222.1970 C   0  0  0  0  0  0  0  0  0  0  0  0
  139.8500   73.2760  222.2330 N   0  0  0  0  0  0  0  0  0  0  0  0
  139.9340   74.0060  220.9850 C   0  0  0  0  0  0  0  0  0  0  0  0
  140.7780   75.2370  221.1770 C   0  0  0  0  0  0  0  0  0  0  0  0
  140.8520   75.7550  222.3170 O   0  0  0  0  0  0  0  0  0  0  0  0
  141.4370   75.7240  220.0250 N   0  0  0  0  0  0  0  0  0  0  0  0
  140.9730   76.7000  219.0360 C   0  0  0  0  0  0  0  0  0  0  0  0
  142.1850   77.3850  218.5110 C   0  0  2  0  0  0  0  0  0  0  0  0
  142.4570   76.9870  217.1840 O   0  0  0  0  0  0  0  0  0  0  0  0
  143.3180   76.7670  219.3500 C   0  0  0  0  0  0  0  0  0  0  0  0
  142.7850   75.3640  219.5170 C   0  0  1  0  0  0  0  0  0  0  0  0
  143.5020   74.5020  220.4750 C   0  0  0  0  0  0  0  0  0  0  0  0
  143.8070   73.1810  220.0140 N   0  0  0  0  0  0  0  0  0  0  0  0
  143.4500   72.0900  220.8210 C   0  0  0  0  0  0  0  0  0  0  0  0
  143.1700   70.9170  219.9020 C   0  0  0  0  0  0  0  0  0  0  0  0
  142.6470   71.5750  218.6690 C   0  0  0  0  0  0  0  0  0  0  0  0
  143.1640   72.9680  218.7290 C   0  0  0  0  0  0  0  0  0  0  0  0
  139.9680   71.1240  223.4610 C   0  0  0  0  0  0  0  0  0  0  0  0
  139.4090   69.8540  223.4190 C   0  0  0  0  0  0  0  0  0  0  0  0
  139.2720   69.0640  224.5380 C   0  0  0  0  0  0  0  0  0  0  0  0
  139.7250   69.5910  225.7450 C   0  0  0  0  0  0  0  0  0  0  0  0
  139.6060   68.8300  226.8800 C   0  0  0  0  0  0  0  0  0  0  0  0
  140.0540   69.3560  228.0670 C   0  0  0  0  0  0  0  0  0  0  0  0
  139.9520   68.6380  229.1920 F   0  0  0  0  0  0  0  0  0  0  0  0
  140.6050   70.6210  228.0710 C   0  0  0  0  0  0  0  0  0  0  0  0
  140.7350   71.3970  226.9540 C   0  0  0  0  0  0  0  0  0  0  0  0
  140.2840   70.8690  225.7540 C   0  0  0  0  0  0  0  0  0  0  0  0
  140.3940   71.6030  224.6320 N   0  0  0  0  0  0  0  0  0  0  0  0
  139.6470   73.7770  223.1210 H   0  0  0  0  0  0  0  0  0  0  0  0
  140.3903   73.3654  220.2160 H   0  0  0  0  0  0  0  0  0  0  0  0
  138.9237   74.3015  220.6655 H   0  0  0  0  0  0  0  0  0  0  0  0
  140.4424   76.1891  218.2191 H   0  0  0  0  0  0  0  0  0  0  0  0
  140.2755   77.4206  219.4879 H   0  0  0  0  0  0  0  0  0  0  0  0
  142.0759   78.4788  218.5512 H   0  0  0  0  0  0  0  0  0  0  0  0
  141.6540   76.7090  216.6970 H   0  0  0  0  0  0  0  0  0  0  0  0
  144.2772   76.7779  218.8117 H   0  0  0  0  0  0  0  0  0  0  0  0
  143.5388   77.2938  220.2901 H   0  0  0  0  0  0  0  0  0  0  0  0
  142.8562   74.7554  218.6035 H   0  0  0  0  0  0  0  0  0  0  0  0
  144.4499   74.9976  220.7318 H   0  0  0  0  0  0  0  0  0  0  0  0
  142.8211   74.3718  221.3290 H   0  0  0  0  0  0  0  0  0  0  0  0
  144.2751   71.8427  221.5051 H   0  0  0  0  0  0  0  0  0  0  0  0
  142.5630   72.3290  221.4261 H   0  0  0  0  0  0  0  0  0  0  0  0
  144.0900   70.3528  219.6893 H   0  0  0  0  0  0  0  0  0  0  0  0
  142.4708   70.1854  220.3331 H   0  0  0  0  0  0  0  0  0  0  0  0
  143.0191   71.0626  217.7695 H   0  0  0  0  0  0  0  0  0  0  0  0
  141.5487   71.5432  218.6172 H   0  0  0  0  0  0  0  0  0  0  0  0
  143.8939   73.1252  217.9212 H   0  0  0  0  0  0  0  0  0  0  0  0
  142.3322   73.6777  218.6085 H   0  0  0  0  0  0  0  0  0  0  0  0
  139.0611   69.4628  222.4516 H   0  0  0  0  0  0  0  0  0  0  0  0
  138.8245   68.0607  224.4814 H   0  0  0  0  0  0  0  0  0  0  0  0
  139.1630   67.8239  226.8405 H   0  0  0  0  0  0  0  0  0  0  0  0
  140.9602   71.0284  229.0291 H   0  0  0  0  0  0  0  0  0  0  0  0
  141.1802   72.4016  227.0048 H   0  0  0  0  0  0  0  0  0  0  0  0
  1  2  2  0
  2  3  1  0
  3  4  1  0
  4  5  1  0
  5  6  2  0
  5  7  1  0
  7  8  1  0
  8  9  1  0
  9 10  1  0
  9 11  1  0
 11 12  1  0
 12 13  1  0
 13 14  1  0
 14 15  1  0
 15 16  1  0
 16 17  1  0
 17 18  1  0
  2 19  1  0
 19 20  2  0
 20 21  1  0
 21 22  2  0
 22 23  1  0
 23 24  2  0
 24 25  1  0
 24 26  1  0
 26 27  2  0
 27 28  1  0
 28 29  2  0
 12  7  1  0
 18 14  1  0
 29 19  1  0
 28 22  1  0
  3 30  1  0
  4 31  1  0
  4 32  1  0
  8 33  1  0
  8 34  1  0
  9 35  1  6
 10 36  1  0
 11 37  1  0
 11 38  1  0
 12 39  1  6
 13 40  1  0
 13 41  1  0
 15 42  1  0
 15 43  1  0
 16 44  1  0
 16 45  1  0
 17 46  1  0
 17 47  1  0
 18 48  1  0
 18 49  1  0
 20 50  1  0
 21 51  1  0
 23 52  1  0
 26 53  1  0
 27 54  1  0
M  END
>  <smiles>  (25) 
O=C(NCC(=O)N1C[C@H](O)C[C@H]1CN1CCCC1)c1ccc2cc(F)ccc2n1

>  <score_type>  (25) 
oracle

>  <origin>  (25) 
autodockgpu

>  <m_score__min__energy>  (25) 
-8.9700000000000006

>  <m_primary>  (25) 
energy

>  <rmsd>  (25) 
4.24707541542949

>  <m_score__min__rmsd>  (25) 
4.24707541542949

>  <meeko>  (25) 
{"free_energy": -6.42, "intermolecular_energy": -8.5, "internal_energy": -2.31, "cluster_size": 3, "cluster_id": 3, "rank_in_cluster": 3}

>  <energy>  (25) 
-8.19

>  <cluster_rmsd>  (25) 
1.06

>  <cluster>  (25) 
1

$$$$

     RDKit          3D

 54 57  0  0  0  0  0  0  0  0999 V2000
  141.2530   72.1950  221.6580 O   0  0  0  0  0  0  0  0  0  0  0  0
  140.3410   72.3130  222.5250 C   0  0  0  0  0  0  0  0  0  0  0  0
  139.3240   73.3220  222.3640 N   0  0  0  0  0  0  0  0  0  0  0  0
  139.3900   74.1720  221.1940 C   0  0  0  0  0  0  0  0  0  0  0  0
  139.8390   75.5520  221.5970 C   0  0  0  0  0  0  0  0  0  0  0  0
  139.1330   76.2140  222.3930 O   0  0  0  0  0  0  0  0  0  0  0  0
  141.0530   76.0000  221.0280 N   0  0  0  0  0  0  0  0  0  0  0  0
  142.1570   75.2190  220.4660 C   0  0  0  0  0  0  0  0  0  0  0  0
  142.7820   76.0610  219.4110 C   0  0  2  0  0  0  0  0  0  0  0  0
  144.0470   76.5320  219.8220 O   0  0  0  0  0  0  0  0  0  0  0  0
  141.8820   77.3100  219.3910 C   0  0  0  0  0  0  0  0  0  0  0  0
  141.5240   77.3980  220.8550 C   0  0  1  0  0  0  0  0  0  0  0  0
  140.4690   78.3640  221.2130 C   0  0  0  0  0  0  0  0  0  0  0  0
  140.8910   79.4800  222.0060 N   0  0  0  0  0  0  0  0  0  0  0  0
  140.9800   79.3180  223.3970 C   0  0  0  0  0  0  0  0  0  0  0  0
  142.0740   80.2450  223.8930 C   0  0  0  0  0  0  0  0  0  0  0  0
  143.0210   80.2930  222.7400 C   0  0  0  0  0  0  0  0  0  0  0  0
  142.2050   79.9080  221.5580 C   0  0  0  0  0  0  0  0  0  0  0  0
  140.2640   71.4620  223.7080 C   0  0  0  0  0  0  0  0  0  0  0  0
  139.6920   70.2070  223.5440 C   0  0  0  0  0  0  0  0  0  0  0  0
  139.5630   69.3070  224.5770 C   0  0  0  0  0  0  0  0  0  0  0  0
  140.0370   69.7030  225.8250 C   0  0  0  0  0  0  0  0  0  0  0  0
  139.9260   68.8300  226.8780 C   0  0  0  0  0  0  0  0  0  0  0  0
  140.3950   69.2270  228.1060 C   0  0  0  0  0  0  0  0  0  0  0  0
  140.3020   68.3980  229.1520 F   0  0  0  0  0  0  0  0  0  0  0  0
  140.9580   70.4800  228.2330 C   0  0  0  0  0  0  0  0  0  0  0  0
  141.0810   71.3670  227.2000 C   0  0  0  0  0  0  0  0  0  0  0  0
  140.6080   70.9690  225.9590 C   0  0  0  0  0  0  0  0  0  0  0  0
  140.7100   71.8140  224.9160 N   0  0  0  0  0  0  0  0  0  0  0  0
  138.5610   73.4460  223.0600 H   0  0  0  0  0  0  0  0  0  0  0  0
  140.1066   73.7494  220.4744 H   0  0  0  0  0  0  0  0  0  0  0  0
  138.3946   74.2326  220.7298 H   0  0  0  0  0  0  0  0  0  0  0  0
  142.8928   74.9844  221.2493 H   0  0  0  0  0  0  0  0  0  0  0  0
  141.7966   74.2664  220.0504 H   0  0  0  0  0  0  0  0  0  0  0  0
  142.8855   75.5071  218.4663 H   0  0  0  0  0  0  0  0  0  0  0  0
  144.0190   77.4450  220.1740 H   0  0  0  0  0  0  0  0  0  0  0  0
  142.4285   78.2016  219.0500 H   0  0  0  0  0  0  0  0  0  0  0  0
  141.0229   77.2513  218.7065 H   0  0  0  0  0  0  0  0  0  0  0  0
  142.3493   77.7553  221.4884 H   0  0  0  0  0  0  0  0  0  0  0  0
  140.0391   78.7562  220.2795 H   0  0  0  0  0  0  0  0  0  0  0  0
  139.7524   77.8081  221.8355 H   0  0  0  0  0  0  0  0  0  0  0  0
  140.0216   79.5816  223.8682 H   0  0  0  0  0  0  0  0  0  0  0  0
  141.2110   78.2733  223.6522 H   0  0  0  0  0  0  0  0  0  0  0  0
  141.6736   81.2446  224.1177 H   0  0  0  0  0  0  0  0  0  0  0  0
  142.5439   79.9010  224.8262 H   0  0  0  0  0  0  0  0  0  0  0  0
  143.4280   81.3073  222.6155 H   0  0  0  0  0  0  0  0  0  0  0  0
  143.8825   79.6244  222.8838 H   0  0  0  0  0  0  0  0  0  0  0  0
  142.1013   80.7718  220.8849 H   0  0  0  0  0  0  0  0  0  0  0  0
  142.6986   79.0858  221.0191 H   0  0  0  0  0  0  0  0  0  0  0  0
  139.3268   69.9205  222.5467 H   0  0  0  0  0  0  0  0  0  0  0  0
  139.1056   68.3184  224.4236 H   0  0  0  0  0  0  0  0  0  0  0  0
  139.4727   67.8371  226.7417 H   0  0  0  0  0  0  0  0  0  0  0  0
  141.3295   70.7830  229.2230 H   0  0  0  0  0  0  0  0  0  0  0  0
  141.5371   72.3571  227.3476 H   0  0  0  0  0  0  0  0  0  0  0  0
  1  2  2  0
  2  3  1  0
  3  4  1  0
  4  5  1  0
  5  6  2  0
  5  7  1  0
  7  8  1  0
  8  9  1  0
  9 10  1  0
  9 11  1  0
 11 12  1  0
 12 13  1  0
 13 14  1  0
 14 15  1  0
 15 16  1  0
 16 17  1  0
 17 18  1  0
  2 19  1  0
 19 20  2  0
 20 21  1  0
 21 22  2  0
 22 23  1  0
 23 24  2  0
 24 25  1  0
 24 26  1  0
 26 27  2  0
 27 28  1  0
 28 29  2  0
 12  7  1  0
 18 14  1  0
 29 19  1  0
 28 22  1  0
  3 30  1  0
  4 31  1  0
  4 32  1  0
  8 33  1  0
  8 34  1  0
  9 35  1  6
 10 36  1  0
 11 37  1  0
 11 38  1  0
 12 39  1  1
 13 40  1  0
 13 41  1  0
 15 42  1  0
 15 43  1  0
 16 44  1  0
 16 45  1  0
 17 46  1  0
 17 47  1  0
 18 48  1  0
 18 49  1  0
 20 50  1  0
 21 51  1  0
 23 52  1  0
 26 53  1  0
 27 54  1  0
M  END
>  <smiles>  (26) 
O=C(NCC(=O)N1C[C@H](O)C[C@H]1CN1CCCC1)c1ccc2cc(F)ccc2n1

>  <score_type>  (26) 
oracle

>  <origin>  (26) 
autodockgpu

>  <m_score__min__energy>  (26) 
-8.9700000000000006

>  <m_primary>  (26) 
energy

>  <rmsd>  (26) 
1.989234403805384

>  <m_score__min__rmsd>  (26) 
1.989234403805384

>  <meeko>  (26) 
{"free_energy": -8.77, "intermolecular_energy": -10.85, "internal_energy": -1.39, "cluster_size": 33, "cluster_id": 1, "rank_in_cluster": 6}

>  <energy>  (26) 
-8.12

>  <cluster_rmsd>  (26) 
1.18

>  <cluster>  (26) 
1

$$$$

     RDKit          3D

 54 57  0  0  0  0  0  0  0  0999 V2000
  141.2070   73.7910  220.7230 O   0  0  0  0  0  0  0  0  0  0  0  0
  140.5390   74.6170  221.4100 C   0  0  0  0  0  0  0  0  0  0  0  0
  139.3560   74.1800  222.1070 N   0  0  0  0  0  0  0  0  0  0  0  0
  138.9750   72.7870  221.9910 C   0  0  0  0  0  0  0  0  0  0  0  0
  139.5690   72.0040  223.1310 C   0  0  0  0  0  0  0  0  0  0  0  0
  140.7530   72.2330  223.4760 O   0  0  0  0  0  0  0  0  0  0  0  0
  138.7220   71.0480  223.7360 N   0  0  0  0  0  0  0  0  0  0  0  0
  137.2840   70.8410  223.5580 C   0  0  0  0  0  0  0  0  0  0  0  0
  137.0290   69.3930  223.7840 C   0  0  2  0  0  0  0  0  0  0  0  0
  136.3540   69.1810  225.0050 O   0  0  0  0  0  0  0  0  0  0  0  0
  138.4430   68.8280  224.0100 C   0  0  0  0  0  0  0  0  0  0  0  0
  139.0810   69.9970  224.7220 C   0  0  1  0  0  0  0  0  0  0  0  0
  140.5410   69.9250  224.9170 C   0  0  0  0  0  0  0  0  0  0  0  0
  141.0160   70.3260  226.2070 N   0  0  0  0  0  0  0  0  0  0  0  0
  141.1100   71.6980  226.4910 C   0  0  0  0  0  0  0  0  0  0  0  0
  140.8910   71.8690  227.9820 C   0  0  0  0  0  0  0  0  0  0  0  0
  139.9590   70.7520  228.3140 C   0  0  0  0  0  0  0  0  0  0  0  0
  140.1520   69.7560  227.2270 C   0  0  0  0  0  0  0  0  0  0  0  0
  140.9140   76.0220  221.5340 C   0  0  0  0  0  0  0  0  0  0  0  0
  141.5330   76.6070  220.4380 C   0  0  0  0  0  0  0  0  0  0  0  0
  141.9320   77.9240  220.4240 C   0  0  0  0  0  0  0  0  0  0  0  0
  141.6890   78.6720  221.5730 C   0  0  0  0  0  0  0  0  0  0  0  0
  142.0720   79.9890  221.5940 C   0  0  0  0  0  0  0  0  0  0  0  0
  141.8300   80.7210  222.7300 C   0  0  0  0  0  0  0  0  0  0  0  0
  142.1920   82.0090  222.7810 F   0  0  0  0  0  0  0  0  0  0  0  0
  141.2130   80.1080  223.8010 C   0  0  0  0  0  0  0  0  0  0  0  0
  140.8200   78.7980  223.8040 C   0  0  0  0  0  0  0  0  0  0  0  0
  141.0640   78.0570  222.6580 C   0  0  0  0  0  0  0  0  0  0  0  0
  140.6940   76.7640  222.6220 N   0  0  0  0  0  0  0  0  0  0  0  0
  138.7850   74.8330  222.6790 H   0  0  0  0  0  0  0  0  0  0  0  0
  137.8786   72.7036  222.0218 H   0  0  0  0  0  0  0  0  0  0  0  0
  139.3485   72.3845  221.0379 H   0  0  0  0  0  0  0  0  0  0  0  0
  136.7213   71.4432  224.2865 H   0  0  0  0  0  0  0  0  0  0  0  0
  136.9619   71.1470  222.5517 H   0  0  0  0  0  0  0  0  0  0  0  0
  136.4438   68.9566  222.9611 H   0  0  0  0  0  0  0  0  0  0  0  0
  135.3800   69.1740  224.9060 H   0  0  0  0  0  0  0  0  0  0  0  0
  138.4265   67.9261  224.6395 H   0  0  0  0  0  0  0  0  0  0  0  0
  138.9630   68.5012  223.0974 H   0  0  0  0  0  0  0  0  0  0  0  0
  138.7432   70.1165  225.7620 H   0  0  0  0  0  0  0  0  0  0  0  0
  140.8531   68.8834  224.7508 H   0  0  0  0  0  0  0  0  0  0  0  0
  140.9744   70.6402  224.2024 H   0  0  0  0  0  0  0  0  0  0  0  0
  142.1060   72.0723  226.2120 H   0  0  0  0  0  0  0  0  0  0  0  0
  140.3592   72.2648  225.9208 H   0  0  0  0  0  0  0  0  0  0  0  0
  141.8373   71.7719  228.5344 H   0  0  0  0  0  0  0  0  0  0  0  0
  140.4947   72.8591  228.2514 H   0  0  0  0  0  0  0  0  0  0  0  0
  140.2130   70.3134  229.2903 H   0  0  0  0  0  0  0  0  0  0  0  0
  138.9149   71.0911  228.3840 H   0  0  0  0  0  0  0  0  0  0  0  0
  140.6170   68.8478  227.6380 H   0  0  0  0  0  0  0  0  0  0  0  0
  139.1786   69.4967  226.7852 H   0  0  0  0  0  0  0  0  0  0  0  0
  141.7121   75.9924  219.5435 H   0  0  0  0  0  0  0  0  0  0  0  0
  142.4214   78.3663  219.5438 H   0  0  0  0  0  0  0  0  0  0  0  0
  142.5611   80.4475  220.7219 H   0  0  0  0  0  0  0  0  0  0  0  0
  141.0264   80.7073  224.7043 H   0  0  0  0  0  0  0  0  0  0  0  0
  140.3298   78.3501  224.6810 H   0  0  0  0  0  0  0  0  0  0  0  0
  1  2  2  0
  2  3  1  0
  3  4  1  0
  4  5  1  0
  5  6  2  0
  5  7  1  0
  7  8  1  0
  8  9  1  0
  9 10  1  0
  9 11  1  0
 11 12  1  0
 12 13  1  0
 13 14  1  0
 14 15  1  0
 15 16  1  0
 16 17  1  0
 17 18  1  0
  2 19  1  0
 19 20  2  0
 20 21  1  0
 21 22  2  0
 22 23  1  0
 23 24  2  0
 24 25  1  0
 24 26  1  0
 26 27  2  0
 27 28  1  0
 28 29  2  0
 12  7  1  0
 18 14  1  0
 29 19  1  0
 28 22  1  0
  3 30  1  0
  4 31  1  0
  4 32  1  0
  8 33  1  0
  8 34  1  0
  9 35  1  6
 10 36  1  0
 11 37  1  0
 11 38  1  0
 12 39  1  1
 13 40  1  0
 13 41  1  0
 15 42  1  0
 15 43  1  0
 16 44  1  0
 16 45  1  0
 17 46  1  0
 17 47  1  0
 18 48  1  0
 18 49  1  0
 20 50  1  0
 21 51  1  0
 23 52  1  0
 26 53  1  0
 27 54  1  0
M  END
>  <smiles>  (27) 
O=C(NCC(=O)N1C[C@H](O)C[C@H]1CN1CCCC1)c1ccc2cc(F)ccc2n1

>  <score_type>  (27) 
oracle

>  <origin>  (27) 
autodockgpu

>  <m_score__min__energy>  (27) 
-8.9700000000000006

>  <m_primary>  (27) 
energy

>  <rmsd>  (27) 
9.33857748156004

>  <m_score__min__rmsd>  (27) 
9.33857748156004

>  <meeko>  (27) 
{"free_energy": -7.71, "intermolecular_energy": -9.8, "internal_energy": -1.41, "cluster_size": 2, "cluster_id": 4, "rank_in_cluster": 1}

>  <energy>  (27) 
-7.92

>  <cluster_rmsd>  (27) 
1.2

>  <cluster>  (27) 
1

$$$$

     RDKit          3D

 54 57  0  0  0  0  0  0  0  0999 V2000
  140.4330   71.7520  221.0940 O   0  0  0  0  0  0  0  0  0  0  0  0
  140.0440   72.2210  222.2010 C   0  0  0  0  0  0  0  0  0  0  0  0
  139.5650   73.5780  222.2770 N   0  0  0  0  0  0  0  0  0  0  0  0
  139.5490   74.3610  221.0580 C   0  0  0  0  0  0  0  0  0  0  0  0
  140.3730   75.6060  221.2470 C   0  0  0  0  0  0  0  0  0  0  0  0
  140.3130   76.2180  222.3400 O   0  0  0  0  0  0  0  0  0  0  0  0
  141.1700   75.9960  220.1460 N   0  0  0  0  0  0  0  0  0  0  0  0
  140.9210   77.0360  219.1460 C   0  0  0  0  0  0  0  0  0  0  0  0
  142.2520   77.5360  218.7080 C   0  0  2  0  0  0  0  0  0  0  0  0
  142.5470   77.1100  217.3960 O   0  0  0  0  0  0  0  0  0  0  0  0
  143.2250   76.7500  219.6070 C   0  0  0  0  0  0  0  0  0  0  0  0
  142.4800   75.4420  219.7180 C   0  0  1  0  0  0  0  0  0  0  0  0
  142.9980   74.4770  220.7060 C   0  0  0  0  0  0  0  0  0  0  0  0
  143.8970   73.4870  220.1940 N   0  0  0  0  0  0  0  0  0  0  0  0
  144.5410   73.7320  218.9720 C   0  0  0  0  0  0  0  0  0  0  0  0
  145.8790   73.0200  219.0120 C   0  0  0  0  0  0  0  0  0  0  0  0
  146.2400   73.0660  220.4590 C   0  0  0  0  0  0  0  0  0  0  0  0
  144.9470   73.2530  221.1700 C   0  0  0  0  0  0  0  0  0  0  0  0
  140.0560   71.4420  223.4350 C   0  0  0  0  0  0  0  0  0  0  0  0
  139.5460   70.1520  223.3690 C   0  0  0  0  0  0  0  0  0  0  0  0
  139.5030   69.3120  224.4590 C   0  0  0  0  0  0  0  0  0  0  0  0
  140.0020   69.8080  225.6610 C   0  0  0  0  0  0  0  0  0  0  0  0
  139.9760   68.9970  226.7680 C   0  0  0  0  0  0  0  0  0  0  0  0
  140.4690   69.4920  227.9500 C   0  0  0  0  0  0  0  0  0  0  0  0
  140.4590   68.7260  229.0470 F   0  0  0  0  0  0  0  0  0  0  0  0
  140.9690   70.7780  227.9790 C   0  0  0  0  0  0  0  0  0  0  0  0
  141.0060   71.6040  226.8910 C   0  0  0  0  0  0  0  0  0  0  0  0
  140.5100   71.1070  225.6950 C   0  0  0  0  0  0  0  0  0  0  0  0
  140.5280   71.8900  224.6010 N   0  0  0  0  0  0  0  0  0  0  0  0
  139.2400   73.9950  223.1720 H   0  0  0  0  0  0  0  0  0  0  0  0
  139.9696   73.7651  220.2346 H   0  0  0  0  0  0  0  0  0  0  0  0
  138.5129   74.6416  220.8176 H   0  0  0  0  0  0  0  0  0  0  0  0
  140.3736   76.6152  218.2897 H   0  0  0  0  0  0  0  0  0  0  0  0
  140.3112   77.8499  219.5652 H   0  0  0  0  0  0  0  0  0  0  0  0
  142.3035   78.6337  218.7577 H   0  0  0  0  0  0  0  0  0  0  0  0
  142.3360   77.7850  216.7180 H   0  0  0  0  0  0  0  0  0  0  0  0
  144.2078   76.6209  219.1301 H   0  0  0  0  0  0  0  0  0  0  0  0
  143.4609   77.2320  220.5672 H   0  0  0  0  0  0  0  0  0  0  0  0
  142.5185   74.8353  218.8013 H   0  0  0  0  0  0  0  0  0  0  0  0
  143.5276   75.0434  221.4862 H   0  0  0  0  0  0  0  0  0  0  0  0
  142.1210   73.9243  221.0740 H   0  0  0  0  0  0  0  0  0  0  0  0
  143.9329   73.3427  218.1422 H   0  0  0  0  0  0  0  0  0  0  0  0
  144.6810   74.8120  218.8172 H   0  0  0  0  0  0  0  0  0  0  0  0
  145.7851   71.9818  218.6607 H   0  0  0  0  0  0  0  0  0  0  0  0
  146.6359   73.4823  218.3613 H   0  0  0  0  0  0  0  0  0  0  0  0
  146.7194   72.1255  220.7684 H   0  0  0  0  0  0  0  0  0  0  0  0
  146.9555   73.8712  220.6820 H   0  0  0  0  0  0  0  0  0  0  0  0
  144.7133   72.3499  221.7530 H   0  0  0  0  0  0  0  0  0  0  0  0
  145.0194   74.1146  221.8500 H   0  0  0  0  0  0  0  0  0  0  0  0
  139.1604   69.7862  222.4059 H   0  0  0  0  0  0  0  0  0  0  0  0
  139.0927   68.2942  224.3839 H   0  0  0  0  0  0  0  0  0  0  0  0
  139.5704   67.9762  226.7097 H   0  0  0  0  0  0  0  0  0  0  0  0
  141.3604   71.1603  228.9333 H   0  0  0  0  0  0  0  0  0  0  0  0
  141.4133   72.6234  226.9611 H   0  0  0  0  0  0  0  0  0  0  0  0
  1  2  2  0
  2  3  1  0
  3  4  1  0
  4  5  1  0
  5  6  2  0
  5  7  1  0
  7  8  1  0
  8  9  1  0
  9 10  1  0
  9 11  1  0
 11 12  1  0
 12 13  1  0
 13 14  1  0
 14 15  1  0
 15 16  1  0
 16 17  1  0
 17 18  1  0
  2 19  1  0
 19 20  2  0
 20 21  1  0
 21 22  2  0
 22 23  1  0
 23 24  2  0
 24 25  1  0
 24 26  1  0
 26 27  2  0
 27 28  1  0
 28 29  2  0
 12  7  1  0
 18 14  1  0
 29 19  1  0
 28 22  1  0
  3 30  1  0
  4 31  1  0
  4 32  1  0
  8 33  1  0
  8 34  1  0
  9 35  1  6
 10 36  1  0
 11 37  1  0
 11 38  1  0
 12 39  1  6
 13 40  1  0
 13 41  1  0
 15 42  1  0
 15 43  1  0
 16 44  1  0
 16 45  1  0
 17 46  1  0
 17 47  1  0
 18 48  1  0
 18 49  1  0
 20 50  1  0
 21 51  1  0
 23 52  1  0
 26 53  1  0
 27 54  1  0
M  END
>  <smiles>  (28) 
O=C(NCC(=O)N1C[C@H](O)C[C@H]1CN1CCCC1)c1ccc2cc(F)ccc2n1

>  <score_type>  (28) 
oracle

>  <origin>  (28) 
autodockgpu

>  <m_score__min__energy>  (28) 
-8.9700000000000006

>  <m_primary>  (28) 
energy

>  <rmsd>  (28) 
4.293255481493042

>  <m_score__min__rmsd>  (28) 
4.293255481493042

>  <meeko>  (28) 
{"free_energy": -7.24, "intermolecular_energy": -9.33, "internal_energy": -1.71, "cluster_size": 3, "cluster_id": 3, "rank_in_cluster": 2}

>  <energy>  (28) 
-7.88

>  <cluster_rmsd>  (28) 
1.71

>  <cluster>  (28) 
1

$$$$

     RDKit          3D

 54 57  0  0  0  0  0  0  0  0999 V2000
  137.2470   75.5700  222.3590 O   0  0  0  0  0  0  0  0  0  0  0  0
  138.4930   75.7830  222.3640 C   0  0  0  0  0  0  0  0  0  0  0  0
  139.4070   74.7050  222.0830 N   0  0  0  0  0  0  0  0  0  0  0  0
  138.8490   73.3980  221.8000 C   0  0  0  0  0  0  0  0  0  0  0  0
  139.6880   72.3370  222.4600 C   0  0  0  0  0  0  0  0  0  0  0  0
  140.9350   72.3800  222.3340 O   0  0  0  0  0  0  0  0  0  0  0  0
  138.9840   71.3510  223.1870 N   0  0  0  0  0  0  0  0  0  0  0  0
  137.6580   70.7840  222.9330 C   0  0  0  0  0  0  0  0  0  0  0  0
  137.6820   69.3910  223.4550 C   0  0  2  0  0  0  0  0  0  0  0  0
  136.9050   69.2750  224.6270 O   0  0  0  0  0  0  0  0  0  0  0  0
  139.1380   69.2270  223.9280 C   0  0  0  0  0  0  0  0  0  0  0  0
  139.4150   70.6300  224.4120 C   0  0  1  0  0  0  0  0  0  0  0  0
  140.8170   70.9410  224.7470 C   0  0  0  0  0  0  0  0  0  0  0  0
  141.1650   70.8300  226.1320 N   0  0  0  0  0  0  0  0  0  0  0  0
  141.0730   71.9740  226.9400 C   0  0  0  0  0  0  0  0  0  0  0  0
  140.7490   71.5120  228.3480 C   0  0  0  0  0  0  0  0  0  0  0  0
  139.9460   70.2750  228.1170 C   0  0  0  0  0  0  0  0  0  0  0  0
  140.3220   69.8220  226.7520 C   0  0  0  0  0  0  0  0  0  0  0  0
  139.0670   77.0950  222.6470 C   0  0  0  0  0  0  0  0  0  0  0  0
  138.1770   78.1490  222.8090 C   0  0  0  0  0  0  0  0  0  0  0  0
  138.5880   79.4340  223.0830 C   0  0  0  0  0  0  0  0  0  0  0  0
  139.9580   79.6510  223.1980 C   0  0  0  0  0  0  0  0  0  0  0  0
  140.4040   80.9190  223.4720 C   0  0  0  0  0  0  0  0  0  0  0  0
  141.7560   81.1260  223.5830 C   0  0  0  0  0  0  0  0  0  0  0  0
  142.2210   82.3520  223.8510 F   0  0  0  0  0  0  0  0  0  0  0  0
  142.6110   80.0560  223.4170 C   0  0  0  0  0  0  0  0  0  0  0  0
  142.1930   78.7830  223.1450 C   0  0  0  0  0  0  0  0  0  0  0  0
  140.8280   78.5710  223.0320 C   0  0  0  0  0  0  0  0  0  0  0  0
  140.3750   77.3330  222.7630 N   0  0  0  0  0  0  0  0  0  0  0  0
  140.4370   74.8460  222.0800 H   0  0  0  0  0  0  0  0  0  0  0  0
  137.8214   73.3467  222.1890 H   0  0  0  0  0  0  0  0  0  0  0  0
  138.8398   73.2324  220.7126 H   0  0  0  0  0  0  0  0  0  0  0  0
  136.8882   71.3713  223.4549 H   0  0  0  0  0  0  0  0  0  0  0  0
  137.4196   70.8003  221.8593 H   0  0  0  0  0  0  0  0  0  0  0  0
  137.3195   68.6757  222.7020 H   0  0  0  0  0  0  0  0  0  0  0  0
  136.0650   69.7770  224.5800 H   0  0  0  0  0  0  0  0  0  0  0  0
  139.2229   68.4904  224.7406 H   0  0  0  0  0  0  0  0  0  0  0  0
  139.8349   68.8544  223.1628 H   0  0  0  0  0  0  0  0  0  0  0  0
  138.9202   70.8716  225.3642 H   0  0  0  0  0  0  0  0  0  0  0  0
  141.4605   70.2516  224.1807 H   0  0  0  0  0  0  0  0  0  0  0  0
  140.9591   72.0002  224.4866 H   0  0  0  0  0  0  0  0  0  0  0  0
  142.0299   72.5165  226.9335 H   0  0  0  0  0  0  0  0  0  0  0  0
  140.2920   72.6518  226.5650 H   0  0  0  0  0  0  0  0  0  0  0  0
  141.6665   71.2885  228.9121 H   0  0  0  0  0  0  0  0  0  0  0  0
  140.2177   72.2700  228.9423 H   0  0  0  0  0  0  0  0  0  0  0  0
  140.1972   69.5061  228.8625 H   0  0  0  0  0  0  0  0  0  0  0  0
  138.8656   70.4606  228.2079 H   0  0  0  0  0  0  0  0  0  0  0  0
  140.8719   68.8716  226.8177 H   0  0  0  0  0  0  0  0  0  0  0  0
  139.4149   69.6745  226.1475 H   0  0  0  0  0  0  0  0  0  0  0  0
  137.0995   77.9487  222.7145 H   0  0  0  0  0  0  0  0  0  0  0  0
  137.8649   80.2538  223.2057 H   0  0  0  0  0  0  0  0  0  0  0  0
  139.6948   81.7501  223.5997 H   0  0  0  0  0  0  0  0  0  0  0  0
  143.6920   80.2377  223.5089 H   0  0  0  0  0  0  0  0  0  0  0  0
  142.9117   77.9595  223.0208 H   0  0  0  0  0  0  0  0  0  0  0  0
  1  2  2  0
  2  3  1  0
  3  4  1  0
  4  5  1  0
  5  6  2  0
  5  7  1  0
  7  8  1  0
  8  9  1  0
  9 10  1  0
  9 11  1  0
 11 12  1  0
 12 13  1  0
 13 14  1  0
 14 15  1  0
 15 16  1  0
 16 17  1  0
 17 18  1  0
  2 19  1  0
 19 20  2  0
 20 21  1  0
 21 22  2  0
 22 23  1  0
 23 24  2  0
 24 25  1  0
 24 26  1  0
 26 27  2  0
 27 28  1  0
 28 29  2  0
 12  7  1  0
 18 14  1  0
 29 19  1  0
 28 22  1  0
  3 30  1  0
  4 31  1  0
  4 32  1  0
  8 33  1  0
  8 34  1  0
  9 35  1  6
 10 36  1  0
 11 37  1  0
 11 38  1  0
 12 39  1  1
 13 40  1  0
 13 41  1  0
 15 42  1  0
 15 43  1  0
 16 44  1  0
 16 45  1  0
 17 46  1  0
 17 47  1  0
 18 48  1  0
 18 49  1  0
 20 50  1  0
 21 51  1  0
 23 52  1  0
 26 53  1  0
 27 54  1  0
M  END
>  <smiles>  (29) 
O=C(NCC(=O)N1C[C@H](O)C[C@H]1CN1CCCC1)c1ccc2cc(F)ccc2n1

>  <score_type>  (29) 
oracle

>  <origin>  (29) 
autodockgpu

>  <m_score__min__energy>  (29) 
-8.9700000000000006

>  <m_primary>  (29) 
energy

>  <rmsd>  (29) 
9.340451556390219

>  <m_score__min__rmsd>  (29) 
9.340451556390219

>  <meeko>  (29) 
{"free_energy": -7.32, "intermolecular_energy": -9.41, "internal_energy": -1.61, "cluster_size": 2, "cluster_id": 4, "rank_in_cluster": 2}

>  <energy>  (29) 
-7.79

>  <cluster_rmsd>  (29) 
1.19

>  <cluster>  (29) 
1

$$$$

     RDKit          3D

 54 57  0  0  0  0  0  0  0  0999 V2000
  140.9750   73.3550  222.0610 O   0  0  0  0  0  0  0  0  0  0  0  0
  140.6400   72.1380  222.1240 C   0  0  0  0  0  0  0  0  0  0  0  0
  140.5140   71.3650  220.9140 N   0  0  0  0  0  0  0  0  0  0  0  0
  140.7830   72.0270  219.6540 C   0  0  0  0  0  0  0  0  0  0  0  0
  141.8130   71.2460  218.8830 C   0  0  0  0  0  0  0  0  0  0  0  0
  141.4570   70.2210  218.2550 O   0  0  0  0  0  0  0  0  0  0  0  0
  143.1350   71.7460  218.9310 N   0  0  0  0  0  0  0  0  0  0  0  0
  143.6460   73.0520  218.5120 C   0  0  0  0  0  0  0  0  0  0  0  0
  144.8160   73.3520  219.3820 C   0  0  2  0  0  0  0  0  0  0  0  0
  146.0230   73.2560  218.6580 O   0  0  0  0  0  0  0  0  0  0  0  0
  144.8390   72.1540  220.3490 C   0  0  0  0  0  0  0  0  0  0  0  0
  144.3570   71.0620  219.4250 C   0  0  1  0  0  0  0  0  0  0  0  0
  144.0270   69.7710  220.0560 C   0  0  0  0  0  0  0  0  0  0  0  0
  145.0030   68.7340  219.8980 N   0  0  0  0  0  0  0  0  0  0  0  0
  144.5630   67.4440  219.5630 C   0  0  0  0  0  0  0  0  0  0  0  0
  145.6660   66.7830  218.7580 C   0  0  0  0  0  0  0  0  0  0  0  0
  146.3010   67.9340  218.0510 C   0  0  0  0  0  0  0  0  0  0  0  0
  145.9460   69.1260  218.8650 C   0  0  0  0  0  0  0  0  0  0  0  0
  140.3680   71.4600  223.3870 C   0  0  0  0  0  0  0  0  0  0  0  0
  139.6740   70.2590  223.3200 C   0  0  0  0  0  0  0  0  0  0  0  0
  139.3570   69.5190  224.4360 C   0  0  0  0  0  0  0  0  0  0  0  0
  139.7650   70.0240  225.6680 C   0  0  0  0  0  0  0  0  0  0  0  0
  139.4680   69.3110  226.8020 C   0  0  0  0  0  0  0  0  0  0  0  0
  139.8730   69.8150  228.0140 C   0  0  0  0  0  0  0  0  0  0  0  0
  139.5990   69.1430  229.1380 F   0  0  0  0  0  0  0  0  0  0  0  0
  140.5610   71.0110  228.0440 C   0  0  0  0  0  0  0  0  0  0  0  0
  140.8700   71.7380  226.9280 C   0  0  0  0  0  0  0  0  0  0  0  0
  140.4620   71.2320  225.7040 C   0  0  0  0  0  0  0  0  0  0  0  0
  140.7460   71.9190  224.5820 N   0  0  0  0  0  0  0  0  0  0  0  0
  140.2390   70.3630  220.9310 H   0  0  0  0  0  0  0  0  0  0  0  0
  139.8547   72.0878  219.0669 H   0  0  0  0  0  0  0  0  0  0  0  0
  141.1632   73.0408  219.8479 H   0  0  0  0  0  0  0  0  0  0  0  0
  143.9567   73.0171  217.4574 H   0  0  0  0  0  0  0  0  0  0  0  0
  142.8728   73.8286  218.6066 H   0  0  0  0  0  0  0  0  0  0  0  0
  144.7352   74.3530  219.8308 H   0  0  0  0  0  0  0  0  0  0  0  0
  146.4130   74.1300  218.4470 H   0  0  0  0  0  0  0  0  0  0  0  0
  145.8528   71.9525  220.7252 H   0  0  0  0  0  0  0  0  0  0  0  0
  144.2412   72.2849  221.2631 H   0  0  0  0  0  0  0  0  0  0  0  0
  145.1115   70.7421  218.6912 H   0  0  0  0  0  0  0  0  0  0  0  0
  143.8918   69.9464  221.1335 H   0  0  0  0  0  0  0  0  0  0  0  0
  143.1218   69.4107  219.5453 H   0  0  0  0  0  0  0  0  0  0  0  0
  144.3660   66.8648  220.4772 H   0  0  0  0  0  0  0  0  0  0  0  0
  143.6314   67.4907  218.9800 H   0  0  0  0  0  0  0  0  0  0  0  0
  146.3872   66.2769  219.4166 H   0  0  0  0  0  0  0  0  0  0  0  0
  145.2968   66.0043  218.0743 H   0  0  0  0  0  0  0  0  0  0  0  0
  147.3927   67.8066  218.0070 H   0  0  0  0  0  0  0  0  0  0  0  0
  145.9533   68.0241  217.0113 H   0  0  0  0  0  0  0  0  0  0  0  0
  146.8535   69.5366  219.3317 H   0  0  0  0  0  0  0  0  0  0  0  0
  145.4911   69.8923  218.2202 H   0  0  0  0  0  0  0  0  0  0  0  0
  139.3647   69.8835  222.3334 H   0  0  0  0  0  0  0  0  0  0  0  0
  138.8056   68.5703  224.3584 H   0  0  0  0  0  0  0  0  0  0  0  0
  138.9193   68.3595  226.7421 H   0  0  0  0  0  0  0  0  0  0  0  0
  140.8790   71.4018  229.0218 H   0  0  0  0  0  0  0  0  0  0  0  0
  141.4209   72.6875  226.9989 H   0  0  0  0  0  0  0  0  0  0  0  0
  1  2  2  0
  2  3  1  0
  3  4  1  0
  4  5  1  0
  5  6  2  0
  5  7  1  0
  7  8  1  0
  8  9  1  0
  9 10  1  0
  9 11  1  0
 11 12  1  0
 12 13  1  0
 13 14  1  0
 14 15  1  0
 15 16  1  0
 16 17  1  0
 17 18  1  0
  2 19  1  0
 19 20  2  0
 20 21  1  0
 21 22  2  0
 22 23  1  0
 23 24  2  0
 24 25  1  0
 24 26  1  0
 26 27  2  0
 27 28  1  0
 28 29  2  0
 12  7  1  0
 18 14  1  0
 29 19  1  0
 28 22  1  0
  3 30  1  0
  4 31  1  0
  4 32  1  0
  8 33  1  0
  8 34  1  0
  9 35  1  1
 10 36  1  0
 11 37  1  0
 11 38  1  0
 12 39  1  6
 13 40  1  0
 13 41  1  0
 15 42  1  0
 15 43  1  0
 16 44  1  0
 16 45  1  0
 17 46  1  0
 17 47  1  0
 18 48  1  0
 18 49  1  0
 20 50  1  0
 21 51  1  0
 23 52  1  0
 26 53  1  0
 27 54  1  0
M  END
>  <smiles>  (30) 
O=C(NCC(=O)N1C[C@H](O)C[C@H]1CN1CCCC1)c1ccc2cc(F)ccc2n1

>  <score_type>  (30) 
oracle

>  <origin>  (30) 
autodockgpu

>  <m_score__min__energy>  (30) 
-8.9700000000000006

>  <m_primary>  (30) 
energy

>  <rmsd>  (30) 
6.886500758996556

>  <m_score__min__rmsd>  (30) 
6.886500758996556

>  <meeko>  (30) 
{"free_energy": -7.99, "intermolecular_energy": -10.08, "internal_energy": -1.52, "cluster_size": 5, "cluster_id": 2, "rank_in_cluster": 4}

>  <energy>  (30) 
-7.58

>  <cluster_rmsd>  (30) 
1.7

>  <cluster>  (30) 
1

$$$$

     RDKit          3D

 54 57  0  0  0  0  0  0  0  0999 V2000
  138.0600   71.8830  222.3610 O   0  0  0  0  0  0  0  0  0  0  0  0
  139.2030   71.7910  222.8940 C   0  0  0  0  0  0  0  0  0  0  0  0
  140.2980   72.5750  222.3810 N   0  0  0  0  0  0  0  0  0  0  0  0
  140.0390   73.4520  221.2580 C   0  0  0  0  0  0  0  0  0  0  0  0
  140.3050   74.8780  221.6590 C   0  0  0  0  0  0  0  0  0  0  0  0
  139.5970   75.4030  222.5510 O   0  0  0  0  0  0  0  0  0  0  0  0
  141.3580   75.5290  220.9770 N   0  0  0  0  0  0  0  0  0  0  0  0
  142.5230   74.9500  220.3060 C   0  0  0  0  0  0  0  0  0  0  0  0
  142.8840   75.8770  219.1990 C   0  0  2  0  0  0  0  0  0  0  0  0
  144.0780   76.5700  219.4870 O   0  0  0  0  0  0  0  0  0  0  0  0
  141.7780   76.9460  219.2740 C   0  0  0  0  0  0  0  0  0  0  0  0
  141.5540   76.9860  220.7660 C   0  0  1  0  0  0  0  0  0  0  0  0
  140.3830   77.7530  221.2310 C   0  0  0  0  0  0  0  0  0  0  0  0
  140.6720   78.8970  222.0430 N   0  0  0  0  0  0  0  0  0  0  0  0
  140.9240   78.7030  223.4100 C   0  0  0  0  0  0  0  0  0  0  0  0
  141.8760   79.7970  223.8560 C   0  0  0  0  0  0  0  0  0  0  0  0
  142.6820   80.0610  222.6280 C   0  0  0  0  0  0  0  0  0  0  0  0
  141.8380   79.5770  221.5040 C   0  0  0  0  0  0  0  0  0  0  0  0
  139.4770   70.9120  224.0260 C   0  0  0  0  0  0  0  0  0  0  0  0
  139.0570   69.5930  223.9140 C   0  0  0  0  0  0  0  0  0  0  0  0
  139.2570   68.6610  224.9070 C   0  0  0  0  0  0  0  0  0  0  0  0
  139.9110   69.0930  226.0580 C   0  0  0  0  0  0  0  0  0  0  0  0
  140.1290   68.1900  227.0680 C   0  0  0  0  0  0  0  0  0  0  0  0
  140.7740   68.6220  228.2000 C   0  0  0  0  0  0  0  0  0  0  0  0
  141.0020   67.7650  229.2030 F   0  0  0  0  0  0  0  0  0  0  0  0
  141.1780   69.9390  228.2780 C   0  0  0  0  0  0  0  0  0  0  0  0
  140.9740   70.8560  227.2850 C   0  0  0  0  0  0  0  0  0  0  0  0
  140.3230   70.4240  226.1410 C   0  0  0  0  0  0  0  0  0  0  0  0
  140.1020   71.2970  225.1410 N   0  0  0  0  0  0  0  0  0  0  0  0
  141.2510   72.5230  222.7950 H   0  0  0  0  0  0  0  0  0  0  0  0
  140.6975   73.1784  220.4204 H   0  0  0  0  0  0  0  0  0  0  0  0
  138.9882   73.3494  220.9492 H   0  0  0  0  0  0  0  0  0  0  0  0
  143.3610   74.8590  221.0127 H   0  0  0  0  0  0  0  0  0  0  0  0
  142.2987   73.9439  219.9221 H   0  0  0  0  0  0  0  0  0  0  0  0
  142.9931   75.3389  218.2458 H   0  0  0  0  0  0  0  0  0  0  0  0
  143.9830   77.2050  220.2270 H   0  0  0  0  0  0  0  0  0  0  0  0
  142.1212   77.9166  218.8864 H   0  0  0  0  0  0  0  0  0  0  0  0
  140.8808   76.7276  218.6762 H   0  0  0  0  0  0  0  0  0  0  0  0
  142.3605   77.4918  221.3171 H   0  0  0  0  0  0  0  0  0  0  0  0
  139.8316   78.0987  220.3442 H   0  0  0  0  0  0  0  0  0  0  0  0
  139.8109   77.0668  221.8727 H   0  0  0  0  0  0  0  0  0  0  0  0
  139.9844   78.7676  223.9783 H   0  0  0  0  0  0  0  0  0  0  0  0
  141.3634   77.7102  223.5867 H   0  0  0  0  0  0  0  0  0  0  0  0
  141.3258   80.6967  224.1689 H   0  0  0  0  0  0  0  0  0  0  0  0
  142.4887   79.5116  224.7239 H   0  0  0  0  0  0  0  0  0  0  0  0
  142.8862   81.1368  222.5231 H   0  0  0  0  0  0  0  0  0  0  0  0
  143.6593   79.5571  222.6583 H   0  0  0  0  0  0  0  0  0  0  0  0
  141.5154   80.4316  220.8911 H   0  0  0  0  0  0  0  0  0  0  0  0
  142.4168   78.8810  220.8791 H   0  0  0  0  0  0  0  0  0  0  0  0
  138.5430   69.2800  222.9932 H   0  0  0  0  0  0  0  0  0  0  0  0
  138.9154   67.6213  224.7963 H   0  0  0  0  0  0  0  0  0  0  0  0
  139.7952   67.1462  226.9728 H   0  0  0  0  0  0  0  0  0  0  0  0
  141.6937   70.2700  229.1915 H   0  0  0  0  0  0  0  0  0  0  0  0
  141.3137   71.8969  227.3903 H   0  0  0  0  0  0  0  0  0  0  0  0
  1  2  2  0
  2  3  1  0
  3  4  1  0
  4  5  1  0
  5  6  2  0
  5  7  1  0
  7  8  1  0
  8  9  1  0
  9 10  1  0
  9 11  1  0
 11 12  1  0
 12 13  1  0
 13 14  1  0
 14 15  1  0
 15 16  1  0
 16 17  1  0
 17 18  1  0
  2 19  1  0
 19 20  2  0
 20 21  1  0
 21 22  2  0
 22 23  1  0
 23 24  2  0
 24 25  1  0
 24 26  1  0
 26 27  2  0
 27 28  1  0
 28 29  2  0
 12  7  1  0
 18 14  1  0
 29 19  1  0
 28 22  1  0
  3 30  1  0
  4 31  1  0
  4 32  1  0
  8 33  1  0
  8 34  1  0
  9 35  1  6
 10 36  1  0
 11 37  1  0
 11 38  1  0
 12 39  1  1
 13 40  1  0
 13 41  1  0
 15 42  1  0
 15 43  1  0
 16 44  1  0
 16 45  1  0
 17 46  1  0
 17 47  1  0
 18 48  1  0
 18 49  1  0
 20 50  1  0
 21 51  1  0
 23 52  1  0
 26 53  1  0
 27 54  1  0
M  END
>  <smiles>  (31) 
O=C(NCC(=O)N1C[C@H](O)C[C@H]1CN1CCCC1)c1ccc2cc(F)ccc2n1

>  <score_type>  (31) 
oracle

>  <origin>  (31) 
autodockgpu

>  <m_score__min__energy>  (31) 
-8.9700000000000006

>  <m_primary>  (31) 
energy

>  <rmsd>  (31) 
2.0099642018759516

>  <m_score__min__rmsd>  (31) 
2.0099642018759516

>  <meeko>  (31) 
{"free_energy": -8.19, "intermolecular_energy": -10.28, "internal_energy": -1.3, "cluster_size": 33, "cluster_id": 1, "rank_in_cluster": 23}

>  <energy>  (31) 
-7.57

>  <cluster_rmsd>  (31) 
1.68

>  <cluster>  (31) 
1

$$$$

     RDKit          3D

 54 57  0  0  0  0  0  0  0  0999 V2000
  141.2140   71.8210  221.4090 O   0  0  0  0  0  0  0  0  0  0  0  0
  140.5710   72.2840  222.3940 C   0  0  0  0  0  0  0  0  0  0  0  0
  140.0490   73.6270  222.3420 N   0  0  0  0  0  0  0  0  0  0  0  0
  140.2880   74.4020  221.1420 C   0  0  0  0  0  0  0  0  0  0  0  0
  140.2210   75.8700  221.4680 C   0  0  0  0  0  0  0  0  0  0  0  0
  139.5200   76.2480  222.4380 O   0  0  0  0  0  0  0  0  0  0  0  0
  140.9730   76.7270  220.6330 N   0  0  0  0  0  0  0  0  0  0  0  0
  141.7900   76.3970  219.4640 C   0  0  0  0  0  0  0  0  0  0  0  0
  141.7510   77.5820  218.5660 C   0  0  2  0  0  0  0  0  0  0  0  0
  142.9910   78.2560  218.5610 O   0  0  0  0  0  0  0  0  0  0  0  0
  140.7860   78.5340  219.2970 C   0  0  0  0  0  0  0  0  0  0  0  0
  141.1270   78.2010  220.7290 C   0  0  1  0  0  0  0  0  0  0  0  0
  140.2340   78.7630  221.7600 C   0  0  0  0  0  0  0  0  0  0  0  0
  140.8840   79.3070  222.9150 N   0  0  0  0  0  0  0  0  0  0  0  0
  142.2760   79.1660  223.0310 C   0  0  0  0  0  0  0  0  0  0  0  0
  142.7900   80.3580  223.8150 C   0  0  0  0  0  0  0  0  0  0  0  0
  141.8340   81.4420  223.4430 C   0  0  0  0  0  0  0  0  0  0  0  0
  140.6100   80.7320  222.9840 C   0  0  0  0  0  0  0  0  0  0  0  0
  140.3250   71.5120  223.6080 C   0  0  0  0  0  0  0  0  0  0  0  0
  139.6470   70.3090  223.4610 C   0  0  0  0  0  0  0  0  0  0  0  0
  139.3550   69.4850  224.5240 C   0  0  0  0  0  0  0  0  0  0  0  0
  139.7720   69.9040  225.7840 C   0  0  0  0  0  0  0  0  0  0  0  0
  139.5000   69.1070  226.8670 C   0  0  0  0  0  0  0  0  0  0  0  0
  139.9140   69.5270  228.1070 C   0  0  0  0  0  0  0  0  0  0  0  0
  139.6640   68.7710  229.1820 F   0  0  0  0  0  0  0  0  0  0  0  0
  140.5860   70.7270  228.2160 C   0  0  0  0  0  0  0  0  0  0  0  0
  140.8700   71.5380  227.1530 C   0  0  0  0  0  0  0  0  0  0  0  0
  140.4530   71.1170  225.9000 C   0  0  0  0  0  0  0  0  0  0  0  0
  140.7130   71.8880  224.8280 N   0  0  0  0  0  0  0  0  0  0  0  0
  139.5170   74.0390  223.1350 H   0  0  0  0  0  0  0  0  0  0  0  0
  141.2841   74.1607  220.7426 H   0  0  0  0  0  0  0  0  0  0  0  0
  139.5217   74.1589  220.3912 H   0  0  0  0  0  0  0  0  0  0  0  0
  142.8253   76.1887  219.7718 H   0  0  0  0  0  0  0  0  0  0  0  0
  141.4062   75.5014  218.9536 H   0  0  0  0  0  0  0  0  0  0  0  0
  141.4849   77.2960  217.5377 H   0  0  0  0  0  0  0  0  0  0  0  0
  143.5980   77.9450  219.2640 H   0  0  0  0  0  0  0  0  0  0  0  0
  140.9954   79.5879  219.0616 H   0  0  0  0  0  0  0  0  0  0  0  0
  139.7252   78.4126  219.0323 H   0  0  0  0  0  0  0  0  0  0  0  0
  142.0962   78.6062  221.0551 H   0  0  0  0  0  0  0  0  0  0  0  0
  139.6438   79.5661  221.2946 H   0  0  0  0  0  0  0  0  0  0  0  0
  139.6295   77.9197  222.1253 H   0  0  0  0  0  0  0  0  0  0  0  0
  142.5162   78.2340  223.5637 H   0  0  0  0  0  0  0  0  0  0  0  0
  142.7457   79.1236  222.0373 H   0  0  0  0  0  0  0  0  0  0  0  0
  142.7629   80.1611  224.8969 H   0  0  0  0  0  0  0  0  0  0  0  0
  143.8372   80.6070  223.5884 H   0  0  0  0  0  0  0  0  0  0  0  0
  141.6101   82.0761  224.3135 H   0  0  0  0  0  0  0  0  0  0  0  0
  142.2427   82.1064  222.6674 H   0  0  0  0  0  0  0  0  0  0  0  0
  139.7899   80.9153  223.6938 H   0  0  0  0  0  0  0  0  0  0  0  0
  140.3184   81.1016  221.9898 H   0  0  0  0  0  0  0  0  0  0  0  0
  139.3303   70.0020  222.4533 H   0  0  0  0  0  0  0  0  0  0  0  0
  138.8156   68.5366  224.3839 H   0  0  0  0  0  0  0  0  0  0  0  0
  138.9633   68.1546  226.7450 H   0  0  0  0  0  0  0  0  0  0  0  0
  140.9120   71.0496  229.2158 H   0  0  0  0  0  0  0  0  0  0  0  0
  141.4085   72.4878  227.2867 H   0  0  0  0  0  0  0  0  0  0  0  0
  1  2  2  0
  2  3  1  0
  3  4  1  0
  4  5  1  0
  5  6  2  0
  5  7  1  0
  7  8  1  0
  8  9  1  0
  9 10  1  0
  9 11  1  0
 11 12  1  0
 12 13  1  0
 13 14  1  0
 14 15  1  0
 15 16  1  0
 16 17  1  0
 17 18  1  0
  2 19  1  0
 19 20  2  0
 20 21  1  0
 21 22  2  0
 22 23  1  0
 23 24  2  0
 24 25  1  0
 24 26  1  0
 26 27  2  0
 27 28  1  0
 28 29  2  0
 12  7  1  0
 18 14  1  0
 29 19  1  0
 28 22  1  0
  3 30  1  0
  4 31  1  0
  4 32  1  0
  8 33  1  0
  8 34  1  0
  9 35  1  6
 10 36  1  0
 11 37  1  0
 11 38  1  0
 12 39  1  1
 13 40  1  0
 13 41  1  0
 15 42  1  0
 15 43  1  0
 16 44  1  0
 16 45  1  0
 17 46  1  0
 17 47  1  0
 18 48  1  0
 18 49  1  0
 20 50  1  0
 21 51  1  0
 23 52  1  0
 26 53  1  0
 27 54  1  0
M  END
>  <smiles>  (32) 
O=C(NCC(=O)N1C[C@H](O)C[C@H]1CN1CCCC1)c1ccc2cc(F)ccc2n1

>  <score_type>  (32) 
oracle

>  <origin>  (32) 
autodockgpu

>  <m_score__min__energy>  (32) 
-8.9700000000000006

>  <m_primary>  (32) 
energy

>  <rmsd>  (32) 
2.199582689437426

>  <m_score__min__rmsd>  (32) 
2.199582689437426

>  <meeko>  (32) 
{"free_energy": -8.27, "intermolecular_energy": -10.36, "internal_energy": -1.6, "cluster_size": 33, "cluster_id": 1, "rank_in_cluster": 20}

>  <energy>  (32) 
-7.56

>  <cluster_rmsd>  (32) 
1.67

>  <cluster>  (32) 
1

$$$$

     RDKit          3D

 54 57  0  0  0  0  0  0  0  0999 V2000
  140.7460   72.0640  221.0180 O   0  0  0  0  0  0  0  0  0  0  0  0
  140.3050   72.5310  222.1070 C   0  0  0  0  0  0  0  0  0  0  0  0
  139.9520   73.9250  222.1990 N   0  0  0  0  0  0  0  0  0  0  0  0
  140.1190   74.7480  221.0180 C   0  0  0  0  0  0  0  0  0  0  0  0
  141.5810   75.0380  220.8080 C   0  0  0  0  0  0  0  0  0  0  0  0
  142.4300   74.1900  221.1740 O   0  0  0  0  0  0  0  0  0  0  0  0
  141.8870   76.2760  220.2000 N   0  0  0  0  0  0  0  0  0  0  0  0
  142.4220   76.5440  218.8640 C   0  0  0  0  0  0  0  0  0  0  0  0
  141.8970   77.8740  218.4510 C   0  0  2  0  0  0  0  0  0  0  0  0
  142.9190   78.8470  218.4590 O   0  0  0  0  0  0  0  0  0  0  0  0
  140.9760   78.2570  219.6240 C   0  0  0  0  0  0  0  0  0  0  0  0
  141.7420   77.6400  220.7700 C   0  0  1  0  0  0  0  0  0  0  0  0
  141.0510   77.6020  222.0720 C   0  0  0  0  0  0  0  0  0  0  0  0
  141.4910   78.5650  223.0370 N   0  0  0  0  0  0  0  0  0  0  0  0
  142.5970   79.3710  222.7250 C   0  0  0  0  0  0  0  0  0  0  0  0
  142.4140   80.6930  223.4470 C   0  0  0  0  0  0  0  0  0  0  0  0
  140.9300   80.8490  223.4880 C   0  0  0  0  0  0  0  0  0  0  0  0
  140.3950   79.4710  223.3350 C   0  0  0  0  0  0  0  0  0  0  0  0
  140.1320   71.7120  223.3030 C   0  0  0  0  0  0  0  0  0  0  0  0
  139.3760   70.5550  223.1690 C   0  0  0  0  0  0  0  0  0  0  0  0
  139.1400   69.6940  224.2170 C   0  0  0  0  0  0  0  0  0  0  0  0
  139.7000   70.0270  225.4480 C   0  0  0  0  0  0  0  0  0  0  0  0
  139.4870   69.1910  226.5140 C   0  0  0  0  0  0  0  0  0  0  0  0
  140.0410   69.5250  227.7250 C   0  0  0  0  0  0  0  0  0  0  0  0
  139.8520   68.7290  228.7850 F   0  0  0  0  0  0  0  0  0  0  0  0
  140.7870   70.6810  227.8220 C   0  0  0  0  0  0  0  0  0  0  0  0
  141.0150   71.5290  226.7750 C   0  0  0  0  0  0  0  0  0  0  0  0
  140.4570   71.1950  225.5510 C   0  0  0  0  0  0  0  0  0  0  0  0
  140.6560   72.0050  224.4950 N   0  0  0  0  0  0  0  0  0  0  0  0
  139.5880   74.3410  223.0800 H   0  0  0  0  0  0  0  0  0  0  0  0
  139.7217   74.2154  220.1414 H   0  0  0  0  0  0  0  0  0  0  0  0
  139.5742   75.6942  221.1518 H   0  0  0  0  0  0  0  0  0  0  0  0
  143.5215   76.5629  218.8928 H   0  0  0  0  0  0  0  0  0  0  0  0
  142.1195   75.7613  218.1527 H   0  0  0  0  0  0  0  0  0  0  0  0
  141.4391   77.8313  217.4517 H   0  0  0  0  0  0  0  0  0  0  0  0
  143.3170   78.9900  217.5760 H   0  0  0  0  0  0  0  0  0  0  0  0
  140.8861   79.3479  219.7333 H   0  0  0  0  0  0  0  0  0  0  0  0
  139.9345   77.9168  219.5260 H   0  0  0  0  0  0  0  0  0  0  0  0
  142.6526   78.1952  221.0391 H   0  0  0  0  0  0  0  0  0  0  0  0
  139.9792   77.7705  221.8908 H   0  0  0  0  0  0  0  0  0  0  0  0
  141.2808   76.6172  222.5048 H   0  0  0  0  0  0  0  0  0  0  0  0
  143.5240   78.8839  223.0619 H   0  0  0  0  0  0  0  0  0  0  0  0
  142.6682   79.5287  221.6387 H   0  0  0  0  0  0  0  0  0  0  0  0
  142.8356   80.6510  224.4622 H   0  0  0  0  0  0  0  0  0  0  0  0
  142.9251   81.5321  222.9524 H   0  0  0  0  0  0  0  0  0  0  0  0
  140.6130   81.2826  224.4480 H   0  0  0  0  0  0  0  0  0  0  0  0
  140.5633   81.5247  222.7013 H   0  0  0  0  0  0  0  0  0  0  0  0
  139.9044   79.1606  224.2694 H   0  0  0  0  0  0  0  0  0  0  0  0
  139.6618   79.4474  222.5153 H   0  0  0  0  0  0  0  0  0  0  0  0
  138.9478   70.3164  222.1843 H   0  0  0  0  0  0  0  0  0  0  0  0
  138.5361   68.7837  224.0879 H   0  0  0  0  0  0  0  0  0  0  0  0
  138.8873   68.2757  226.4016 H   0  0  0  0  0  0  0  0  0  0  0  0
  141.2239   70.9351  228.7990 H   0  0  0  0  0  0  0  0  0  0  0  0
  141.6177   72.4408  226.8987 H   0  0  0  0  0  0  0  0  0  0  0  0
  1  2  2  0
  2  3  1  0
  3  4  1  0
  4  5  1  0
  5  6  2  0
  5  7  1  0
  7  8  1  0
  8  9  1  0
  9 10  1  0
  9 11  1  0
 11 12  1  0
 12 13  1  0
 13 14  1  0
 14 15  1  0
 15 16  1  0
 16 17  1  0
 17 18  1  0
  2 19  1  0
 19 20  2  0
 20 21  1  0
 21 22  2  0
 22 23  1  0
 23 24  2  0
 24 25  1  0
 24 26  1  0
 26 27  2  0
 27 28  1  0
 28 29  2  0
 12  7  1  0
 18 14  1  0
 29 19  1  0
 28 22  1  0
  3 30  1  0
  4 31  1  0
  4 32  1  0
  8 33  1  0
  8 34  1  0
  9 35  1  6
 10 36  1  0
 11 37  1  0
 11 38  1  0
 12 39  1  1
 13 40  1  0
 13 41  1  0
 15 42  1  0
 15 43  1  0
 16 44  1  0
 16 45  1  0
 17 46  1  0
 17 47  1  0
 18 48  1  0
 18 49  1  0
 20 50  1  0
 21 51  1  0
 23 52  1  0
 26 53  1  0
 27 54  1  0
M  END
>  <smiles>  (33) 
O=C(NCC(=O)N1C[C@H](O)C[C@H]1CN1CCCC1)c1ccc2cc(F)ccc2n1

>  <score_type>  (33) 
oracle

>  <origin>  (33) 
autodockgpu

>  <m_score__min__energy>  (33) 
-8.9700000000000006

>  <m_primary>  (33) 
energy

>  <rmsd>  (33) 
2.387065098505203

>  <m_score__min__rmsd>  (33) 
2.387065098505203

>  <meeko>  (33) 
{"free_energy": -8.12, "intermolecular_energy": -10.21, "internal_energy": -1.23, "cluster_size": 33, "cluster_id": 1, "rank_in_cluster": 26}

>  <energy>  (33) 
-7.54

>  <cluster_rmsd>  (33) 
1.33

>  <cluster>  (33) 
1

$$$$

     RDKit          3D

 54 57  0  0  0  0  0  0  0  0999 V2000
  138.8220   73.3180  221.5240 O   0  0  0  0  0  0  0  0  0  0  0  0
  139.9060   72.9080  222.0280 C   0  0  0  0  0  0  0  0  0  0  0  0
  141.1630   73.4060  221.5290 N   0  0  0  0  0  0  0  0  0  0  0  0
  141.1300   74.3740  220.4520 C   0  0  0  0  0  0  0  0  0  0  0  0
  142.4730   75.0460  220.3360 C   0  0  0  0  0  0  0  0  0  0  0  0
  143.4790   74.4870  220.8340 O   0  0  0  0  0  0  0  0  0  0  0  0
  142.4900   76.2860  219.6570 N   0  0  0  0  0  0  0  0  0  0  0  0
  143.0590   76.6160  218.3490 C   0  0  0  0  0  0  0  0  0  0  0  0
  142.2360   77.7250  217.7940 C   0  0  2  0  0  0  0  0  0  0  0  0
  142.9520   78.9410  217.8030 O   0  0  0  0  0  0  0  0  0  0  0  0
  141.1390   77.9040  218.8590 C   0  0  0  0  0  0  0  0  0  0  0  0
  141.9290   77.5860  220.1050 C   0  0  1  0  0  0  0  0  0  0  0  0
  141.1530   77.4310  221.3490 C   0  0  0  0  0  0  0  0  0  0  0  0
  141.0880   78.5890  222.1890 N   0  0  0  0  0  0  0  0  0  0  0  0
  141.6880   78.5330  223.4570 C   0  0  0  0  0  0  0  0  0  0  0  0
  142.1450   79.9360  223.8060 C   0  0  0  0  0  0  0  0  0  0  0  0
  142.4720   80.5230  222.4730 C   0  0  0  0  0  0  0  0  0  0  0  0
  141.6980   79.7100  221.4970 C   0  0  0  0  0  0  0  0  0  0  0  0
  139.9520   71.9330  223.1130 C   0  0  0  0  0  0  0  0  0  0  0  0
  139.3940   70.6860  222.8620 C   0  0  0  0  0  0  0  0  0  0  0  0
  139.3760   69.6770  223.7980 C   0  0  0  0  0  0  0  0  0  0  0  0
  139.9500   69.9510  225.0370 C   0  0  0  0  0  0  0  0  0  0  0  0
  139.9500   68.9680  225.9940 C   0  0  0  0  0  0  0  0  0  0  0  0
  140.5180   69.2450  227.2130 C   0  0  0  0  0  0  0  0  0  0  0  0
  140.5350   68.3070  228.1670 F   0  0  0  0  0  0  0  0  0  0  0  0
  141.0630   70.4940  227.4270 C   0  0  0  0  0  0  0  0  0  0  0  0
  141.0760   71.4890  226.4910 C   0  0  0  0  0  0  0  0  0  0  0  0
  140.5040   71.2130  225.2580 C   0  0  0  0  0  0  0  0  0  0  0  0
  140.4950   72.1670  224.3090 N   0  0  0  0  0  0  0  0  0  0  0  0
  142.0730   73.0890  221.9200 H   0  0  0  0  0  0  0  0  0  0  0  0
  140.8936   73.8627  219.5072 H   0  0  0  0  0  0  0  0  0  0  0  0
  140.3599   75.1304  220.6638 H   0  0  0  0  0  0  0  0  0  0  0  0
  144.1047   76.9387  218.4606 H   0  0  0  0  0  0  0  0  0  0  0  0
  143.0493   75.7424  217.6807 H   0  0  0  0  0  0  0  0  0  0  0  0
  141.9034   77.5022  216.7694 H   0  0  0  0  0  0  0  0  0  0  0  0
  143.6210   78.9970  217.0900 H   0  0  0  0  0  0  0  0  0  0  0  0
  140.7489   78.9324  218.8743 H   0  0  0  0  0  0  0  0  0  0  0  0
  140.2420   77.2853  218.7087 H   0  0  0  0  0  0  0  0  0  0  0  0
  142.6261   78.3845  220.3991 H   0  0  0  0  0  0  0  0  0  0  0  0
  140.1244   77.1552  221.0735 H   0  0  0  0  0  0  0  0  0  0  0  0
  141.6785   76.6637  221.9364 H   0  0  0  0  0  0  0  0  0  0  0  0
  140.9602   78.1787  224.2018 H   0  0  0  0  0  0  0  0  0  0  0  0
  142.5401   77.8373  223.4526 H   0  0  0  0  0  0  0  0  0  0  0  0
  141.3421   80.5018  224.3011 H   0  0  0  0  0  0  0  0  0  0  0  0
  142.9919   79.9544  224.5077 H   0  0  0  0  0  0  0  0  0  0  0  0
  142.1638   81.5780  222.4285 H   0  0  0  0  0  0  0  0  0  0  0  0
  143.5520   80.5025  222.2650 H   0  0  0  0  0  0  0  0  0  0  0  0
  140.9138   80.3315  221.0401 H   0  0  0  0  0  0  0  0  0  0  0  0
  142.3702   79.3377  220.7099 H   0  0  0  0  0  0  0  0  0  0  0  0
  138.9481   70.4970  221.8744 H   0  0  0  0  0  0  0  0  0  0  0  0
  138.9279   68.6970  223.5771 H   0  0  0  0  0  0  0  0  0  0  0  0
  139.5060   67.9825  225.7899 H   0  0  0  0  0  0  0  0  0  0  0  0
  141.5136   70.7010  228.4089 H   0  0  0  0  0  0  0  0  0  0  0  0
  141.5227   72.4708  226.7068 H   0  0  0  0  0  0  0  0  0  0  0  0
  1  2  2  0
  2  3  1  0
  3  4  1  0
  4  5  1  0
  5  6  2  0
  5  7  1  0
  7  8  1  0
  8  9  1  0
  9 10  1  0
  9 11  1  0
 11 12  1  0
 12 13  1  0
 13 14  1  0
 14 15  1  0
 15 16  1  0
 16 17  1  0
 17 18  1  0
  2 19  1  0
 19 20  2  0
 20 21  1  0
 21 22  2  0
 22 23  1  0
 23 24  2  0
 24 25  1  0
 24 26  1  0
 26 27  2  0
 27 28  1  0
 28 29  2  0
 12  7  1  0
 18 14  1  0
 29 19  1  0
 28 22  1  0
  3 30  1  0
  4 31  1  0
  4 32  1  0
  8 33  1  0
  8 34  1  0
  9 35  1  6
 10 36  1  0
 11 37  1  0
 11 38  1  0
 12 39  1  1
 13 40  1  0
 13 41  1  0
 15 42  1  0
 15 43  1  0
 16 44  1  0
 16 45  1  0
 17 46  1  0
 17 47  1  0
 18 48  1  0
 18 49  1  0
 20 50  1  0
 21 51  1  0
 23 52  1  0
 26 53  1  0
 27 54  1  0
M  END
>  <smiles>  (34) 
O=C(NCC(=O)N1C[C@H](O)C[C@H]1CN1CCCC1)c1ccc2cc(F)ccc2n1

>  <score_type>  (34) 
oracle

>  <origin>  (34) 
autodockgpu

>  <m_score__min__energy>  (34) 
-8.9700000000000006

>  <m_primary>  (34) 
energy

>  <rmsd>  (34) 
2.3455240021290686

>  <m_score__min__rmsd>  (34) 
2.3455240021290686

>  <meeko>  (34) 
{"free_energy": -7.58, "intermolecular_energy": -9.67, "internal_energy": -1.78, "cluster_size": 33, "cluster_id": 1, "rank_in_cluster": 30}

>  <energy>  (34) 
-8.52

>  <cluster_rmsd>  (34) 
0.0

>  <cluster>  (34) 
2

$$$$

     RDKit          3D

 54 57  0  0  0  0  0  0  0  0999 V2000
  138.6390   73.0810  221.3090 O   0  0  0  0  0  0  0  0  0  0  0  0
  139.6760   72.8500  221.9940 C   0  0  0  0  0  0  0  0  0  0  0  0
  140.8980   73.5580  221.7060 N   0  0  0  0  0  0  0  0  0  0  0  0
  140.8860   74.5220  220.6250 C   0  0  0  0  0  0  0  0  0  0  0  0
  142.2750   75.0650  220.4180 C   0  0  0  0  0  0  0  0  0  0  0  0
  143.2550   74.4160  220.8540 O   0  0  0  0  0  0  0  0  0  0  0  0
  142.3640   76.2970  219.7300 N   0  0  0  0  0  0  0  0  0  0  0  0
  142.9590   76.5870  218.4240 C   0  0  0  0  0  0  0  0  0  0  0  0
  142.2010   77.7330  217.8540 C   0  0  2  0  0  0  0  0  0  0  0  0
  142.9810   78.9100  217.8610 O   0  0  0  0  0  0  0  0  0  0  0  0
  141.1060   77.9780  218.9080 C   0  0  0  0  0  0  0  0  0  0  0  0
  141.8680   77.6290  220.1630 C   0  0  1  0  0  0  0  0  0  0  0  0
  141.0750   77.5240  221.4020 C   0  0  0  0  0  0  0  0  0  0  0  0
  141.0830   78.6830  222.2440 N   0  0  0  0  0  0  0  0  0  0  0  0
  141.7190   78.6000  223.4930 C   0  0  0  0  0  0  0  0  0  0  0  0
  142.2440   79.9830  223.8280 C   0  0  0  0  0  0  0  0  0  0  0  0
  142.5530   80.5580  222.4860 C   0  0  0  0  0  0  0  0  0  0  0  0
  141.7170   79.7800  221.5340 C   0  0  0  0  0  0  0  0  0  0  0  0
  139.7000   71.8820  223.0850 C   0  0  0  0  0  0  0  0  0  0  0  0
  138.9310   70.7360  222.9270 C   0  0  0  0  0  0  0  0  0  0  0  0
  138.8690   69.7430  223.8780 C   0  0  0  0  0  0  0  0  0  0  0  0
  139.6220   69.9270  225.0350 C   0  0  0  0  0  0  0  0  0  0  0  0
  139.5860   68.9570  226.0050 C   0  0  0  0  0  0  0  0  0  0  0  0
  140.3300   69.1440  227.1430 C   0  0  0  0  0  0  0  0  0  0  0  0
  140.3160   68.2160  228.1070 F   0  0  0  0  0  0  0  0  0  0  0  0
  141.0830   70.2940  227.2670 C   0  0  0  0  0  0  0  0  0  0  0  0
  141.1370   71.2740  226.3160 C   0  0  0  0  0  0  0  0  0  0  0  0
  140.3860   71.0880  225.1650 C   0  0  0  0  0  0  0  0  0  0  0  0
  140.4120   72.0300  224.2050 N   0  0  0  0  0  0  0  0  0  0  0  0
  141.7690   73.3910  222.2490 H   0  0  0  0  0  0  0  0  0  0  0  0
  140.5428   74.0325  219.7016 H   0  0  0  0  0  0  0  0  0  0  0  0
  140.2048   75.3475  220.8789 H   0  0  0  0  0  0  0  0  0  0  0  0
  144.0194   76.8548  218.5415 H   0  0  0  0  0  0  0  0  0  0  0  0
  142.9073   75.7100  217.7621 H   0  0  0  0  0  0  0  0  0  0  0  0
  141.8657   77.5204  216.8282 H   0  0  0  0  0  0  0  0  0  0  0  0
  143.5340   79.0060  217.0580 H   0  0  0  0  0  0  0  0  0  0  0  0
  140.7704   79.0255  218.9121 H   0  0  0  0  0  0  0  0  0  0  0  0
  140.1789   77.4062  218.7546 H   0  0  0  0  0  0  0  0  0  0  0  0
  142.6032   78.3928  220.4564 H   0  0  0  0  0  0  0  0  0  0  0  0
  140.0319   77.3186  221.1194 H   0  0  0  0  0  0  0  0  0  0  0  0
  141.5434   76.7218  221.9911 H   0  0  0  0  0  0  0  0  0  0  0  0
  141.0005   78.2748  224.2598 H   0  0  0  0  0  0  0  0  0  0  0  0
  142.5410   77.8697  223.4623 H   0  0  0  0  0  0  0  0  0  0  0  0
  141.4808   80.5805  224.3481 H   0  0  0  0  0  0  0  0  0  0  0  0
  143.1124   79.9656  224.5029 H   0  0  0  0  0  0  0  0  0  0  0  0
  142.2873   81.6249  222.4517 H   0  0  0  0  0  0  0  0  0  0  0  0
  143.6242   80.4930  222.2446 H   0  0  0  0  0  0  0  0  0  0  0  0
  140.9452   80.4341  221.1022 H   0  0  0  0  0  0  0  0  0  0  0  0
  142.3487   79.3823  220.7260 H   0  0  0  0  0  0  0  0  0  0  0  0
  138.3468   70.6171  222.0026 H   0  0  0  0  0  0  0  0  0  0  0  0
  138.2522   68.8442  223.7308 H   0  0  0  0  0  0  0  0  0  0  0  0
  138.9755   68.0514  225.8736 H   0  0  0  0  0  0  0  0  0  0  0  0
  141.6741   70.4297  228.1847 H   0  0  0  0  0  0  0  0  0  0  0  0
  141.7520   72.1749  226.4579 H   0  0  0  0  0  0  0  0  0  0  0  0
  1  2  2  0
  2  3  1  0
  3  4  1  0
  4  5  1  0
  5  6  2  0
  5  7  1  0
  7  8  1  0
  8  9  1  0
  9 10  1  0
  9 11  1  0
 11 12  1  0
 12 13  1  0
 13 14  1  0
 14 15  1  0
 15 16  1  0
 16 17  1  0
 17 18  1  0
  2 19  1  0
 19 20  2  0
 20 21  1  0
 21 22  2  0
 22 23  1  0
 23 24  2  0
 24 25  1  0
 24 26  1  0
 26 27  2  0
 27 28  1  0
 28 29  2  0
 12  7  1  0
 18 14  1  0
 29 19  1  0
 28 22  1  0
  3 30  1  0
  4 31  1  0
  4 32  1  0
  8 33  1  0
  8 34  1  0
  9 35  1  6
 10 36  1  0
 11 37  1  0
 11 38  1  0
 12 39  1  1
 13 40  1  0
 13 41  1  0
 15 42  1  0
 15 43  1  0
 16 44  1  0
 16 45  1  0
 17 46  1  0
 17 47  1  0
 18 48  1  0
 18 49  1  0
 20 50  1  0
 21 51  1  0
 23 52  1  0
 26 53  1  0
 27 54  1  0
M  END
>  <smiles>  (35) 
O=C(NCC(=O)N1C[C@H](O)C[C@H]1CN1CCCC1)c1ccc2cc(F)ccc2n1

>  <score_type>  (35) 
oracle

>  <origin>  (35) 
autodockgpu

>  <m_score__min__energy>  (35) 
-8.9700000000000006

>  <m_primary>  (35) 
energy

>  <rmsd>  (35) 
2.282606679478411

>  <m_score__min__rmsd>  (35) 
2.282606679478411

>  <meeko>  (35) 
{"free_energy": -7.56, "intermolecular_energy": -9.64, "internal_energy": -1.79, "cluster_size": 33, "cluster_id": 1, "rank_in_cluster": 32}

>  <energy>  (35) 
-8.52

>  <cluster_rmsd>  (35) 
0.14

>  <cluster>  (35) 
2

$$$$

     RDKit          3D

 54 57  0  0  0  0  0  0  0  0999 V2000
  140.7340   71.6970  221.1200 O   0  0  0  0  0  0  0  0  0  0  0  0
  140.3140   72.2190  222.1920 C   0  0  0  0  0  0  0  0  0  0  0  0
  139.9460   73.6120  222.2150 N   0  0  0  0  0  0  0  0  0  0  0  0
  140.0760   74.3700  220.9870 C   0  0  0  0  0  0  0  0  0  0  0  0
  140.8550   75.6300  221.2520 C   0  0  0  0  0  0  0  0  0  0  0  0
  140.9370   76.0620  222.4260 O   0  0  0  0  0  0  0  0  0  0  0  0
  141.4480   76.2430  220.1240 N   0  0  0  0  0  0  0  0  0  0  0  0
  141.2980   77.6120  219.6290 C   0  0  0  0  0  0  0  0  0  0  0  0
  142.5750   77.9630  218.9500 C   0  0  2  0  0  0  0  0  0  0  0  0
  142.4050   78.0200  217.5500 O   0  0  0  0  0  0  0  0  0  0  0  0
  143.4460   76.7170  219.1920 C   0  0  0  0  0  0  0  0  0  0  0  0
  142.3860   75.6430  219.1400 C   0  0  1  0  0  0  0  0  0  0  0  0
  142.8030   74.2920  219.5580 C   0  0  0  0  0  0  0  0  0  0  0  0
  144.2160   74.0640  219.6030 N   0  0  0  0  0  0  0  0  0  0  0  0
  144.8690   74.1380  220.8430 C   0  0  0  0  0  0  0  0  0  0  0  0
  146.0540   73.1940  220.7910 C   0  0  0  0  0  0  0  0  0  0  0  0
  145.5830   72.1160  219.8720 C   0  0  0  0  0  0  0  0  0  0  0  0
  144.5000   72.7430  219.0700 C   0  0  0  0  0  0  0  0  0  0  0  0
  140.1780   71.4660  223.4340 C   0  0  0  0  0  0  0  0  0  0  0  0
  139.5520   70.2280  223.3550 C   0  0  0  0  0  0  0  0  0  0  0  0
  139.3650   69.4170  224.4510 C   0  0  0  0  0  0  0  0  0  0  0  0
  139.8370   69.8870  225.6740 C   0  0  0  0  0  0  0  0  0  0  0  0
  139.6690   69.1040  226.7890 C   0  0  0  0  0  0  0  0  0  0  0  0
  140.1360   69.5730  227.9920 C   0  0  0  0  0  0  0  0  0  0  0  0
  139.9870   68.8320  229.0960 F   0  0  0  0  0  0  0  0  0  0  0  0
  140.7530   70.8060  228.0340 C   0  0  0  0  0  0  0  0  0  0  0  0
  140.9330   71.6040  226.9380 C   0  0  0  0  0  0  0  0  0  0  0  0
  140.4630   71.1330  225.7220 C   0  0  0  0  0  0  0  0  0  0  0  0
  140.6200   71.8890  224.6200 N   0  0  0  0  0  0  0  0  0  0  0  0
  139.5980   74.0720  223.0800 H   0  0  0  0  0  0  0  0  0  0  0  0
  140.6046   73.7637  220.2367 H   0  0  0  0  0  0  0  0  0  0  0  0
  139.0758   74.6310  220.6110 H   0  0  0  0  0  0  0  0  0  0  0  0
  140.4618   77.6681  218.9165 H   0  0  0  0  0  0  0  0  0  0  0  0
  141.0826   78.3092  220.4521 H   0  0  0  0  0  0  0  0  0  0  0  0
  142.9696   78.9239  219.3119 H   0  0  0  0  0  0  0  0  0  0  0  0
  143.1120   78.5270  217.1000 H   0  0  0  0  0  0  0  0  0  0  0  0
  144.1995   76.5857  218.4015 H   0  0  0  0  0  0  0  0  0  0  0  0
  144.0390   76.7387  220.1182 H   0  0  0  0  0  0  0  0  0  0  0  0
  142.0193   75.4369  218.1236 H   0  0  0  0  0  0  0  0  0  0  0  0
  142.3992   74.1101  220.5649 H   0  0  0  0  0  0  0  0  0  0  0  0
  142.4133   73.6072  218.7904 H   0  0  0  0  0  0  0  0  0  0  0  0
  145.2155   75.1661  221.0242 H   0  0  0  0  0  0  0  0  0  0  0  0
  144.1857   73.8575  221.6581 H   0  0  0  0  0  0  0  0  0  0  0  0
  146.9439   73.6982  220.3861 H   0  0  0  0  0  0  0  0  0  0  0  0
  146.3545   72.8198  221.7808 H   0  0  0  0  0  0  0  0  0  0  0  0
  146.4018   71.7785  219.2196 H   0  0  0  0  0  0  0  0  0  0  0  0
  145.2320   71.2290  220.4198 H   0  0  0  0  0  0  0  0  0  0  0  0
  144.8217   72.8304  218.0217 H   0  0  0  0  0  0  0  0  0  0  0  0
  143.5943   72.1209  219.1210 H   0  0  0  0  0  0  0  0  0  0  0  0
  139.1908   69.8817  222.3754 H   0  0  0  0  0  0  0  0  0  0  0  0
  138.8650   68.4410  224.3649 H   0  0  0  0  0  0  0  0  0  0  0  0
  139.1724   68.1249  226.7204 H   0  0  0  0  0  0  0  0  0  0  0  0
  141.1215   71.1683  229.0050 H   0  0  0  0  0  0  0  0  0  0  0  0
  141.4313   72.5814  227.0183 H   0  0  0  0  0  0  0  0  0  0  0  0
  1  2  2  0
  2  3  1  0
  3  4  1  0
  4  5  1  0
  5  6  2  0
  5  7  1  0
  7  8  1  0
  8  9  1  0
  9 10  1  0
  9 11  1  0
 11 12  1  0
 12 13  1  0
 13 14  1  0
 14 15  1  0
 15 16  1  0
 16 17  1  0
 17 18  1  0
  2 19  1  0
 19 20  2  0
 20 21  1  0
 21 22  2  0
 22 23  1  0
 23 24  2  0
 24 25  1  0
 24 26  1  0
 26 27  2  0
 27 28  1  0
 28 29  2  0
 12  7  1  0
 18 14  1  0
 29 19  1  0
 28 22  1  0
  3 30  1  0
  4 31  1  0
  4 32  1  0
  8 33  1  0
  8 34  1  0
  9 35  1  1
 10 36  1  0
 11 37  1  0
 11 38  1  0
 12 39  1  6
 13 40  1  0
 13 41  1  0
 15 42  1  0
 15 43  1  0
 16 44  1  0
 16 45  1  0
 17 46  1  0
 17 47  1  0
 18 48  1  0
 18 49  1  0
 20 50  1  0
 21 51  1  0
 23 52  1  0
 26 53  1  0
 27 54  1  0
M  END
>  <smiles>  (36) 
O=C(NCC(=O)N1C[C@H](O)C[C@H]1CN1CCCC1)c1ccc2cc(F)ccc2n1

>  <score_type>  (36) 
oracle

>  <origin>  (36) 
autodockgpu

>  <m_score__min__energy>  (36) 
-8.9700000000000006

>  <m_primary>  (36) 
energy

>  <rmsd>  (36) 
4.305398866597271

>  <m_score__min__rmsd>  (36) 
4.305398866597271

>  <meeko>  (36) 
{"free_energy": -7.72, "intermolecular_energy": -9.81, "internal_energy": -1.69, "cluster_size": 3, "cluster_id": 3, "rank_in_cluster": 1}

>  <energy>  (36) 
-8.38

>  <cluster_rmsd>  (36) 
0.27

>  <cluster>  (36) 
2

$$$$

     RDKit          3D

 54 57  0  0  0  0  0  0  0  0999 V2000
  141.3490   72.4480  221.7800 O   0  0  0  0  0  0  0  0  0  0  0  0
  140.3590   72.4510  222.5660 C   0  0  0  0  0  0  0  0  0  0  0  0
  139.2620   73.3560  222.3350 N   0  0  0  0  0  0  0  0  0  0  0  0
  139.3400   74.2400  221.1890 C   0  0  0  0  0  0  0  0  0  0  0  0
  139.9100   75.5670  221.6130 C   0  0  0  0  0  0  0  0  0  0  0  0
  139.3100   76.2370  222.4870 O   0  0  0  0  0  0  0  0  0  0  0  0
  141.1080   75.9610  220.9750 N   0  0  0  0  0  0  0  0  0  0  0  0
  142.1980   75.1310  220.4590 C   0  0  0  0  0  0  0  0  0  0  0  0
  142.7940   75.8720  219.3140 C   0  0  2  0  0  0  0  0  0  0  0  0
  144.0680   76.3790  219.6470 O   0  0  0  0  0  0  0  0  0  0  0  0
  141.8900   77.1130  219.2020 C   0  0  0  0  0  0  0  0  0  0  0  0
  141.5710   77.3370  220.6600 C   0  0  1  0  0  0  0  0  0  0  0  0
  140.5230   78.3320  220.9550 C   0  0  0  0  0  0  0  0  0  0  0  0
  140.7790   79.1920  222.0710 N   0  0  0  0  0  0  0  0  0  0  0  0
  141.4210   78.6560  223.1980 C   0  0  0  0  0  0  0  0  0  0  0  0
  142.2130   79.7750  223.8450 C   0  0  0  0  0  0  0  0  0  0  0  0
  142.5900   80.6330  222.6840 C   0  0  0  0  0  0  0  0  0  0  0  0
  141.5940   80.3100  221.6290 C   0  0  0  0  0  0  0  0  0  0  0  0
  140.2690   71.5650  223.7230 C   0  0  0  0  0  0  0  0  0  0  0  0
  139.6870   70.3210  223.5180 C   0  0  0  0  0  0  0  0  0  0  0  0
  139.5450   69.3920  224.5240 C   0  0  0  0  0  0  0  0  0  0  0  0
  140.0170   69.7460  225.7850 C   0  0  0  0  0  0  0  0  0  0  0  0
  139.8940   68.8430  226.8110 C   0  0  0  0  0  0  0  0  0  0  0  0
  140.3610   69.1980  228.0520 C   0  0  0  0  0  0  0  0  0  0  0  0
  140.2550   68.3390  229.0730 F   0  0  0  0  0  0  0  0  0  0  0  0
  140.9340   70.4420  228.2190 C   0  0  0  0  0  0  0  0  0  0  0  0
  141.0700   71.3580  227.2130 C   0  0  0  0  0  0  0  0  0  0  0  0
  140.5990   71.0020  225.9590 C   0  0  0  0  0  0  0  0  0  0  0  0
  140.7130   71.8760  224.9420 N   0  0  0  0  0  0  0  0  0  0  0  0
  138.4340   73.3850  222.9630 H   0  0  0  0  0  0  0  0  0  0  0  0
  139.9894   73.7904  220.4234 H   0  0  0  0  0  0  0  0  0  0  0  0
  138.3323   74.3908  220.7746 H   0  0  0  0  0  0  0  0  0  0  0  0
  142.9545   74.9694  221.2411 H   0  0  0  0  0  0  0  0  0  0  0  0
  141.8286   74.1443  220.1428 H   0  0  0  0  0  0  0  0  0  0  0  0
  142.8751   75.2334  218.4220 H   0  0  0  0  0  0  0  0  0  0  0  0
  144.0290   77.2570  220.0790 H   0  0  0  0  0  0  0  0  0  0  0  0
  142.4244   77.9693  218.7648 H   0  0  0  0  0  0  0  0  0  0  0  0
  141.0131   76.9901  218.5493 H   0  0  0  0  0  0  0  0  0  0  0  0
  142.4121   77.7520  221.2347 H   0  0  0  0  0  0  0  0  0  0  0  0
  140.3965   78.9639  220.0635 H   0  0  0  0  0  0  0  0  0  0  0  0
  139.6268   77.7529  221.2224 H   0  0  0  0  0  0  0  0  0  0  0  0
  140.6746   78.2660  223.9057 H   0  0  0  0  0  0  0  0  0  0  0  0
  142.0848   77.8278  222.9090 H   0  0  0  0  0  0  0  0  0  0  0  0
  141.5950   80.3322  224.5644 H   0  0  0  0  0  0  0  0  0  0  0  0
  143.0801   79.4169  224.4194 H   0  0  0  0  0  0  0  0  0  0  0  0
  142.5344   81.6975  222.9555 H   0  0  0  0  0  0  0  0  0  0  0  0
  143.6214   80.4471  222.3500 H   0  0  0  0  0  0  0  0  0  0  0  0
  140.9522   81.1848  221.4481 H   0  0  0  0  0  0  0  0  0  0  0  0
  142.1144   80.0436  220.6972 H   0  0  0  0  0  0  0  0  0  0  0  0
  139.3247   70.0675  222.5108 H   0  0  0  0  0  0  0  0  0  0  0  0
  139.0790   68.4128  224.3395 H   0  0  0  0  0  0  0  0  0  0  0  0
  139.4324   67.8587  226.6430 H   0  0  0  0  0  0  0  0  0  0  0  0
  141.3028   70.7125  229.2194 H   0  0  0  0  0  0  0  0  0  0  0  0
  141.5349   72.3388  227.3918 H   0  0  0  0  0  0  0  0  0  0  0  0
  1  2  2  0
  2  3  1  0
  3  4  1  0
  4  5  1  0
  5  6  2  0
  5  7  1  0
  7  8  1  0
  8  9  1  0
  9 10  1  0
  9 11  1  0
 11 12  1  0
 12 13  1  0
 13 14  1  0
 14 15  1  0
 15 16  1  0
 16 17  1  0
 17 18  1  0
  2 19  1  0
 19 20  2  0
 20 21  1  0
 21 22  2  0
 22 23  1  0
 23 24  2  0
 24 25  1  0
 24 26  1  0
 26 27  2  0
 27 28  1  0
 28 29  2  0
 12  7  1  0
 18 14  1  0
 29 19  1  0
 28 22  1  0
  3 30  1  0
  4 31  1  0
  4 32  1  0
  8 33  1  0
  8 34  1  0
  9 35  1  6
 10 36  1  0
 11 37  1  0
 11 38  1  0
 12 39  1  1
 13 40  1  0
 13 41  1  0
 15 42  1  0
 15 43  1  0
 16 44  1  0
 16 45  1  0
 17 46  1  0
 17 47  1  0
 18 48  1  0
 18 49  1  0
 20 50  1  0
 21 51  1  0
 23 52  1  0
 26 53  1  0
 27 54  1  0
M  END
>  <smiles>  (37) 
O=C(NCC(=O)N1C[C@H](O)C[C@H]1CN1CCCC1)c1ccc2cc(F)ccc2n1

>  <score_type>  (37) 
oracle

>  <origin>  (37) 
autodockgpu

>  <m_score__min__energy>  (37) 
-8.9700000000000006

>  <m_primary>  (37) 
energy

>  <rmsd>  (37) 
1.9615217526534168

>  <m_score__min__rmsd>  (37) 
1.9615217526534168

>  <meeko>  (37) 
{"free_energy": -8.86, "intermolecular_energy": -10.95, "internal_energy": -1.42, "cluster_size": 33, "cluster_id": 1, "rank_in_cluster": 2}

>  <energy>  (37) 
-7.99

>  <cluster_rmsd>  (37) 
0.64

>  <cluster>  (37) 
2

$$$$

     RDKit          3D

 54 57  0  0  0  0  0  0  0  0999 V2000
  140.5990   71.8480  221.1640 O   0  0  0  0  0  0  0  0  0  0  0  0
  140.0020   72.2090  222.2180 C   0  0  0  0  0  0  0  0  0  0  0  0
  139.2510   73.4390  222.2310 N   0  0  0  0  0  0  0  0  0  0  0  0
  139.2110   74.2240  221.0140 C   0  0  0  0  0  0  0  0  0  0  0  0
  139.8660   75.5580  221.2520 C   0  0  0  0  0  0  0  0  0  0  0  0
  139.2020   76.4750  221.7910 O   0  0  0  0  0  0  0  0  0  0  0  0
  141.2120   75.6730  220.8360 N   0  0  0  0  0  0  0  0  0  0  0  0
  142.2120   74.6220  220.6360 C   0  0  0  0  0  0  0  0  0  0  0  0
  143.1320   75.1040  219.5710 C   0  0  2  0  0  0  0  0  0  0  0  0
  144.3930   75.4430  220.1050 O   0  0  0  0  0  0  0  0  0  0  0  0
  142.5020   76.4460  219.1560 C   0  0  0  0  0  0  0  0  0  0  0  0
  141.9650   76.9050  220.4900 C   0  0  1  0  0  0  0  0  0  0  0  0
  141.0760   78.0830  220.4670 C   0  0  0  0  0  0  0  0  0  0  0  0
  141.0120   78.8370  221.6830 N   0  0  0  0  0  0  0  0  0  0  0  0
  141.3960   78.2140  222.8800 C   0  0  0  0  0  0  0  0  0  0  0  0
  141.9490   79.2890  223.7950 C   0  0  0  0  0  0  0  0  0  0  0  0
  142.5440   80.2690  222.8390 C   0  0  0  0  0  0  0  0  0  0  0  0
  141.8460   80.0190  221.5500 C   0  0  0  0  0  0  0  0  0  0  0  0
  140.0350   71.4270  223.4500 C   0  0  0  0  0  0  0  0  0  0  0  0
  139.5340   70.1330  223.3870 C   0  0  0  0  0  0  0  0  0  0  0  0
  139.5110   69.2900  224.4750 C   0  0  0  0  0  0  0  0  0  0  0  0
  140.0200   69.7870  225.6720 C   0  0  0  0  0  0  0  0  0  0  0  0
  140.0140   68.9740  226.7770 C   0  0  0  0  0  0  0  0  0  0  0  0
  140.5170   69.4700  227.9540 C   0  0  0  0  0  0  0  0  0  0  0  0
  140.5260   68.7010  229.0500 F   0  0  0  0  0  0  0  0  0  0  0  0
  141.0070   70.7600  227.9810 C   0  0  0  0  0  0  0  0  0  0  0  0
  141.0250   71.5880  226.8940 C   0  0  0  0  0  0  0  0  0  0  0  0
  140.5180   71.0910  225.7040 C   0  0  0  0  0  0  0  0  0  0  0  0
  140.5160   71.8760  224.6110 N   0  0  0  0  0  0  0  0  0  0  0  0
  138.7500   73.7660  223.0820 H   0  0  0  0  0  0  0  0  0  0  0  0
  139.7476   73.6899  220.2160 H   0  0  0  0  0  0  0  0  0  0  0  0
  138.1642   74.3793  220.7137 H   0  0  0  0  0  0  0  0  0  0  0  0
  142.7696   74.4470  221.5679 H   0  0  0  0  0  0  0  0  0  0  0  0
  141.7362   73.6730  220.3480 H   0  0  0  0  0  0  0  0  0  0  0  0
  143.2602   74.3493  218.7810 H   0  0  0  0  0  0  0  0  0  0  0  0
  145.1370   75.1690  219.5320 H   0  0  0  0  0  0  0  0  0  0  0  0
  143.2527   77.1434  218.7560 H   0  0  0  0  0  0  0  0  0  0  0  0
  141.7534   76.3785  218.3528 H   0  0  0  0  0  0  0  0  0  0  0  0
  142.7467   77.2532  221.1811 H   0  0  0  0  0  0  0  0  0  0  0  0
  141.4269   78.7556  219.6704 H   0  0  0  0  0  0  0  0  0  0  0  0
  140.0616   77.6898  220.3044 H   0  0  0  0  0  0  0  0  0  0  0  0
  140.5253   77.7326  223.3492 H   0  0  0  0  0  0  0  0  0  0  0  0
  142.1538   77.4400  222.6887 H   0  0  0  0  0  0  0  0  0  0  0  0
  141.1481   79.7528  224.3895 H   0  0  0  0  0  0  0  0  0  0  0  0
  142.6729   78.9042  224.5284 H   0  0  0  0  0  0  0  0  0  0  0  0
  142.3674   81.2994  223.1812 H   0  0  0  0  0  0  0  0  0  0  0  0
  143.6339   80.1502  222.7493 H   0  0  0  0  0  0  0  0  0  0  0  0
  141.2184   80.8861  221.2967 H   0  0  0  0  0  0  0  0  0  0  0  0
  142.5864   79.8624  220.7517 H   0  0  0  0  0  0  0  0  0  0  0  0
  139.1392   69.7667  222.4278 H   0  0  0  0  0  0  0  0  0  0  0  0
  139.1083   68.2689  224.4021 H   0  0  0  0  0  0  0  0  0  0  0  0
  139.6160   67.9500  226.7212 H   0  0  0  0  0  0  0  0  0  0  0  0
  141.4058   71.1435  228.9317 H   0  0  0  0  0  0  0  0  0  0  0  0
  141.4266   72.6099  226.9611 H   0  0  0  0  0  0  0  0  0  0  0  0
  1  2  2  0
  2  3  1  0
  3  4  1  0
  4  5  1  0
  5  6  2  0
  5  7  1  0
  7  8  1  0
  8  9  1  0
  9 10  1  0
  9 11  1  0
 11 12  1  0
 12 13  1  0
 13 14  1  0
 14 15  1  0
 15 16  1  0
 16 17  1  0
 17 18  1  0
  2 19  1  0
 19 20  2  0
 20 21  1  0
 21 22  2  0
 22 23  1  0
 23 24  2  0
 24 25  1  0
 24 26  1  0
 26 27  2  0
 27 28  1  0
 28 29  2  0
 12  7  1  0
 18 14  1  0
 29 19  1  0
 28 22  1  0
  3 30  1  0
  4 31  1  0
  4 32  1  0
  8 33  1  0
  8 34  1  0
  9 35  1  6
 10 36  1  0
 11 37  1  0
 11 38  1  0
 12 39  1  1
 13 40  1  0
 13 41  1  0
 15 42  1  0
 15 43  1  0
 16 44  1  0
 16 45  1  0
 17 46  1  0
 17 47  1  0
 18 48  1  0
 18 49  1  0
 20 50  1  0
 21 51  1  0
 23 52  1  0
 26 53  1  0
 27 54  1  0
M  END
>  <smiles>  (38) 
O=C(NCC(=O)N1C[C@H](O)C[C@H]1CN1CCCC1)c1ccc2cc(F)ccc2n1

>  <score_type>  (38) 
oracle

>  <origin>  (38) 
autodockgpu

>  <m_score__min__energy>  (38) 
-8.9700000000000006

>  <m_primary>  (38) 
energy

>  <rmsd>  (38) 
2.0159937354180553

>  <m_score__min__rmsd>  (38) 
2.0159937354180553

>  <meeko>  (38) 
{"free_energy": -8.2, "intermolecular_energy": -10.29, "internal_energy": -1.44, "cluster_size": 33, "cluster_id": 1, "rank_in_cluster": 22}

>  <energy>  (38) 
-7.69

>  <cluster_rmsd>  (38) 
0.88

>  <cluster>  (38) 
2

$$$$

     RDKit          3D

 54 57  0  0  0  0  0  0  0  0999 V2000
  139.6560   73.4950  222.4410 O   0  0  0  0  0  0  0  0  0  0  0  0
  140.3070   72.4190  222.5670 C   0  0  0  0  0  0  0  0  0  0  0  0
  141.1990   71.9930  221.5180 N   0  0  0  0  0  0  0  0  0  0  0  0
  141.3140   72.8310  220.3420 C   0  0  0  0  0  0  0  0  0  0  0  0
  142.0760   72.0970  219.2720 C   0  0  0  0  0  0  0  0  0  0  0  0
  141.4570   71.3220  218.5050 O   0  0  0  0  0  0  0  0  0  0  0  0
  143.4660   72.3480  219.2160 N   0  0  0  0  0  0  0  0  0  0  0  0
  144.1710   73.6150  219.0140 C   0  0  0  0  0  0  0  0  0  0  0  0
  145.4700   73.5010  219.7310 C   0  0  2  0  0  0  0  0  0  0  0  0
  146.5430   73.3870  218.8220 O   0  0  0  0  0  0  0  0  0  0  0  0
  145.3710   72.1180  220.4010 C   0  0  0  0  0  0  0  0  0  0  0  0
  144.5800   71.3750  219.3510 C   0  0  1  0  0  0  0  0  0  0  0  0
  144.0800   70.0410  219.7320 C   0  0  0  0  0  0  0  0  0  0  0  0
  145.0520   68.9890  219.7340 N   0  0  0  0  0  0  0  0  0  0  0  0
  144.6020   67.6600  219.7280 C   0  0  0  0  0  0  0  0  0  0  0  0
  145.6470   66.8300  219.0080 C   0  0  0  0  0  0  0  0  0  0  0  0
  146.2140   67.7910  218.0170 C   0  0  0  0  0  0  0  0  0  0  0  0
  145.9090   69.1360  218.5710 C   0  0  0  0  0  0  0  0  0  0  0  0
  140.2000   71.5670  223.7470 C   0  0  0  0  0  0  0  0  0  0  0  0
  139.5640   70.3430  223.5830 C   0  0  0  0  0  0  0  0  0  0  0  0
  139.4010   69.4450  224.6130 C   0  0  0  0  0  0  0  0  0  0  0  0
  139.9070   69.8100  225.8580 C   0  0  0  0  0  0  0  0  0  0  0  0
  139.7630   68.9390  226.9080 C   0  0  0  0  0  0  0  0  0  0  0  0
  140.2640   69.3050  228.1320 C   0  0  0  0  0  0  0  0  0  0  0  0
  140.1400   68.4760  229.1760 F   0  0  0  0  0  0  0  0  0  0  0  0
  140.8900   70.5280  228.2590 C   0  0  0  0  0  0  0  0  0  0  0  0
  141.0470   71.4120  227.2290 C   0  0  0  0  0  0  0  0  0  0  0  0
  140.5420   71.0450  225.9910 C   0  0  0  0  0  0  0  0  0  0  0  0
  140.6750   71.8890  224.9520 N   0  0  0  0  0  0  0  0  0  0  0  0
  141.7480   71.1130  221.5890 H   0  0  0  0  0  0  0  0  0  0  0  0
  140.3091   73.0802  219.9703 H   0  0  0  0  0  0  0  0  0  0  0  0
  141.8497   73.7556  220.6031 H   0  0  0  0  0  0  0  0  0  0  0  0
  144.3439   73.7857  217.9412 H   0  0  0  0  0  0  0  0  0  0  0  0
  143.5812   74.4611  219.3963 H   0  0  0  0  0  0  0  0  0  0  0  0
  145.6390   74.3639  220.3919 H   0  0  0  0  0  0  0  0  0  0  0  0
  146.5690   74.1160  218.1690 H   0  0  0  0  0  0  0  0  0  0  0  0
  146.3626   71.6689  220.5591 H   0  0  0  0  0  0  0  0  0  0  0  0
  144.9214   72.1203  221.4049 H   0  0  0  0  0  0  0  0  0  0  0  0
  145.1668   71.1232  218.4553 H   0  0  0  0  0  0  0  0  0  0  0  0
  143.6602   70.1147  220.7460 H   0  0  0  0  0  0  0  0  0  0  0  0
  143.3437   69.7665  218.9622 H   0  0  0  0  0  0  0  0  0  0  0  0
  144.4813   67.2994  220.7602 H   0  0  0  0  0  0  0  0  0  0  0  0
  143.6284   67.5822  219.2220 H   0  0  0  0  0  0  0  0  0  0  0  0
  146.4216   66.4779  219.7052 H   0  0  0  0  0  0  0  0  0  0  0  0
  145.2352   65.9215  218.5444 H   0  0  0  0  0  0  0  0  0  0  0  0
  147.3005   67.6500  217.9191 H   0  0  0  0  0  0  0  0  0  0  0  0
  145.7875   67.6503  217.0129 H   0  0  0  0  0  0  0  0  0  0  0  0
  146.8449   69.6343  218.8640 H   0  0  0  0  0  0  0  0  0  0  0  0
  145.3979   69.7429  217.8091 H   0  0  0  0  0  0  0  0  0  0  0  0
  139.1744   70.0806  222.5883 H   0  0  0  0  0  0  0  0  0  0  0  0
  138.8933   68.4813  224.4596 H   0  0  0  0  0  0  0  0  0  0  0  0
  139.2584   67.9711  226.7722 H   0  0  0  0  0  0  0  0  0  0  0  0
  141.2856   70.8075  229.2466 H   0  0  0  0  0  0  0  0  0  0  0  0
  141.5541   72.3770  227.3762 H   0  0  0  0  0  0  0  0  0  0  0  0
  1  2  2  0
  2  3  1  0
  3  4  1  0
  4  5  1  0
  5  6  2  0
  5  7  1  0
  7  8  1  0
  8  9  1  0
  9 10  1  0
  9 11  1  0
 11 12  1  0
 12 13  1  0
 13 14  1  0
 14 15  1  0
 15 16  1  0
 16 17  1  0
 17 18  1  0
  2 19  1  0
 19 20  2  0
 20 21  1  0
 21 22  2  0
 22 23  1  0
 23 24  2  0
 24 25  1  0
 24 26  1  0
 26 27  2  0
 27 28  1  0
 28 29  2  0
 12  7  1  0
 18 14  1  0
 29 19  1  0
 28 22  1  0
  3 30  1  0
  4 31  1  0
  4 32  1  0
  8 33  1  0
  8 34  1  0
  9 35  1  1
 10 36  1  0
 11 37  1  0
 11 38  1  0
 12 39  1  6
 13 40  1  0
 13 41  1  0
 15 42  1  0
 15 43  1  0
 16 44  1  0
 16 45  1  0
 17 46  1  0
 17 47  1  0
 18 48  1  0
 18 49  1  0
 20 50  1  0
 21 51  1  0
 23 52  1  0
 26 53  1  0
 27 54  1  0
M  END
>  <smiles>  (39) 
O=C(NCC(=O)N1C[C@H](O)C[C@H]1CN1CCCC1)c1ccc2cc(F)ccc2n1

>  <score_type>  (39) 
oracle

>  <origin>  (39) 
autodockgpu

>  <m_score__min__energy>  (39) 
-8.9700000000000006

>  <m_primary>  (39) 
energy

>  <rmsd>  (39) 
6.896059159522427

>  <m_score__min__rmsd>  (39) 
6.896059159522427

>  <meeko>  (39) 
{"free_energy": -8.38, "intermolecular_energy": -10.47, "internal_energy": -1.27, "cluster_size": 5, "cluster_id": 2, "rank_in_cluster": 3}

>  <energy>  (39) 
-7.72

>  <cluster_rmsd>  (39) 
0.0

>  <cluster>  (39) 
3

$$$$

     RDKit          3D

 54 57  0  0  0  0  0  0  0  0999 V2000
  141.1970   72.3060  221.6180 O   0  0  0  0  0  0  0  0  0  0  0  0
  140.2930   72.4160  222.4950 C   0  0  0  0  0  0  0  0  0  0  0  0
  139.2770   73.4280  222.3540 N   0  0  0  0  0  0  0  0  0  0  0  0
  139.3330   74.2910  221.1930 C   0  0  0  0  0  0  0  0  0  0  0  0
  139.8120   75.6580  221.6020 C   0  0  0  0  0  0  0  0  0  0  0  0
  139.1260   76.3280  222.4090 O   0  0  0  0  0  0  0  0  0  0  0  0
  141.0300   76.0880  221.0270 N   0  0  0  0  0  0  0  0  0  0  0  0
  142.0560   75.3030  220.3390 C   0  0  0  0  0  0  0  0  0  0  0  0
  142.6940   76.2090  219.3460 C   0  0  2  0  0  0  0  0  0  0  0  0
  144.0030   76.5570  219.7440 O   0  0  0  0  0  0  0  0  0  0  0  0
  141.8780   77.5070  219.4940 C   0  0  0  0  0  0  0  0  0  0  0  0
  141.5850   77.4640  220.9740 C   0  0  1  0  0  0  0  0  0  0  0  0
  140.6110   78.4510  221.4760 C   0  0  0  0  0  0  0  0  0  0  0  0
  141.1640   79.6810  221.9590 N   0  0  0  0  0  0  0  0  0  0  0  0
  140.5380   80.3190  223.0410 C   0  0  0  0  0  0  0  0  0  0  0  0
  141.6090   81.0720  223.8060 C   0  0  0  0  0  0  0  0  0  0  0  0
  142.8250   80.2330  223.5930 C   0  0  0  0  0  0  0  0  0  0  0  0
  142.5420   79.4540  222.3590 C   0  0  0  0  0  0  0  0  0  0  0  0
  140.2250   71.5520  223.6700 C   0  0  0  0  0  0  0  0  0  0  0  0
  139.6520   70.2990  223.4960 C   0  0  0  0  0  0  0  0  0  0  0  0
  139.5320   69.3880  224.5210 C   0  0  0  0  0  0  0  0  0  0  0  0
  140.0160   69.7700  225.7690 C   0  0  0  0  0  0  0  0  0  0  0  0
  139.9130   68.8870  226.8140 C   0  0  0  0  0  0  0  0  0  0  0  0
  140.3920   69.2700  228.0420 C   0  0  0  0  0  0  0  0  0  0  0  0
  140.3070   68.4300  229.0800 F   0  0  0  0  0  0  0  0  0  0  0  0
  140.9560   70.5220  228.1780 C   0  0  0  0  0  0  0  0  0  0  0  0
  141.0700   71.4200  227.1530 C   0  0  0  0  0  0  0  0  0  0  0  0
  140.5880   71.0350  225.9120 C   0  0  0  0  0  0  0  0  0  0  0  0
  140.6810   71.8910  224.8780 N   0  0  0  0  0  0  0  0  0  0  0  0
  138.5200   73.5460  223.0580 H   0  0  0  0  0  0  0  0  0  0  0  0
  140.0279   73.8656  220.4540 H   0  0  0  0  0  0  0  0  0  0  0  0
  138.3293   74.3731  220.7504 H   0  0  0  0  0  0  0  0  0  0  0  0
  142.8049   74.9433  221.0599 H   0  0  0  0  0  0  0  0  0  0  0  0
  141.6166   74.4231  219.8464 H   0  0  0  0  0  0  0  0  0  0  0  0
  142.7239   75.7499  218.3468 H   0  0  0  0  0  0  0  0  0  0  0  0
  144.0680   77.4720  220.0860 H   0  0  0  0  0  0  0  0  0  0  0  0
  142.4683   78.3939  219.2202 H   0  0  0  0  0  0  0  0  0  0  0  0
  140.9906   77.5730  218.8474 H   0  0  0  0  0  0  0  0  0  0  0  0
  142.4568   77.7017  221.6012 H   0  0  0  0  0  0  0  0  0  0  0  0
  139.9196   78.6910  220.6548 H   0  0  0  0  0  0  0  0  0  0  0  0
  140.1271   77.9792  222.3439 H   0  0  0  0  0  0  0  0  0  0  0  0
  139.7751   81.0209  222.6732 H   0  0  0  0  0  0  0  0  0  0  0  0
  140.0417   79.5833  223.6909 H   0  0  0  0  0  0  0  0  0  0  0  0
  141.7498   82.0835  223.3973 H   0  0  0  0  0  0  0  0  0  0  0  0
  141.3626   81.2171  224.8682 H   0  0  0  0  0  0  0  0  0  0  0  0
  143.7132   80.8671  223.4550 H   0  0  0  0  0  0  0  0  0  0  0  0
  143.0344   79.5818  224.4544 H   0  0  0  0  0  0  0  0  0  0  0  0
  143.2176   79.7802  221.5545 H   0  0  0  0  0  0  0  0  0  0  0  0
  142.7000   78.3828  222.5526 H   0  0  0  0  0  0  0  0  0  0  0  0
  139.2789   70.0233  222.4986 H   0  0  0  0  0  0  0  0  0  0  0  0
  139.0735   68.4010  224.3608 H   0  0  0  0  0  0  0  0  0  0  0  0
  139.4575   67.8960  226.6712 H   0  0  0  0  0  0  0  0  0  0  0  0
  141.3358   70.8146  229.1680 H   0  0  0  0  0  0  0  0  0  0  0  0
  141.5263   72.4089  227.3074 H   0  0  0  0  0  0  0  0  0  0  0  0
  1  2  2  0
  2  3  1  0
  3  4  1  0
  4  5  1  0
  5  6  2  0
  5  7  1  0
  7  8  1  0
  8  9  1  0
  9 10  1  0
  9 11  1  0
 11 12  1  0
 12 13  1  0
 13 14  1  0
 14 15  1  0
 15 16  1  0
 16 17  1  0
 17 18  1  0
  2 19  1  0
 19 20  2  0
 20 21  1  0
 21 22  2  0
 22 23  1  0
 23 24  2  0
 24 25  1  0
 24 26  1  0
 26 27  2  0
 27 28  1  0
 28 29  2  0
 12  7  1  0
 18 14  1  0
 29 19  1  0
 28 22  1  0
  3 30  1  0
  4 31  1  0
  4 32  1  0
  8 33  1  0
  8 34  1  0
  9 35  1  6
 10 36  1  0
 11 37  1  0
 11 38  1  0
 12 39  1  1
 13 40  1  0
 13 41  1  0
 15 42  1  0
 15 43  1  0
 16 44  1  0
 16 45  1  0
 17 46  1  0
 17 47  1  0
 18 48  1  0
 18 49  1  0
 20 50  1  0
 21 51  1  0
 23 52  1  0
 26 53  1  0
 27 54  1  0
M  END
>  <smiles>  (40) 
O=C(NCC(=O)N1C[C@H](O)C[C@H]1CN1CCCC1)c1ccc2cc(F)ccc2n1

>  <score_type>  (40) 
oracle

>  <origin>  (40) 
autodockgpu

>  <m_score__min__energy>  (40) 
-8.9700000000000006

>  <m_primary>  (40) 
energy

>  <rmsd>  (40) 
2.140247084928174

>  <m_score__min__rmsd>  (40) 
2.140247084928174

>  <meeko>  (40) 
{"free_energy": -8.82, "intermolecular_energy": -10.91, "internal_energy": -1.29, "cluster_size": 33, "cluster_id": 1, "rank_in_cluster": 5}

>  <energy>  (40) 
-7.24

>  <cluster_rmsd>  (40) 
0.62

>  <cluster>  (40) 
3

$$$$

     RDKit          3D

 54 57  0  0  0  0  0  0  0  0999 V2000
  139.0720   74.6120  222.3320 O   0  0  0  0  0  0  0  0  0  0  0  0
  140.1240   75.2280  221.9990 C   0  0  0  0  0  0  0  0  0  0  0  0
  141.2610   74.4920  221.5050 N   0  0  0  0  0  0  0  0  0  0  0  0
  141.1470   73.0510  221.4090 C   0  0  0  0  0  0  0  0  0  0  0  0
  141.6770   72.5910  220.0770 C   0  0  0  0  0  0  0  0  0  0  0  0
  140.8660   72.2440  219.1850 O   0  0  0  0  0  0  0  0  0  0  0  0
  143.0830   72.5870  219.9360 N   0  0  0  0  0  0  0  0  0  0  0  0
  144.0640   71.6400  220.4700 C   0  0  0  0  0  0  0  0  0  0  0  0
  145.2030   71.6190  219.5120 C   0  0  2  0  0  0  0  0  0  0  0  0
  146.3360   72.2590  220.0580 O   0  0  0  0  0  0  0  0  0  0  0  0
  144.7220   72.5540  218.3880 C   0  0  0  0  0  0  0  0  0  0  0  0
  143.9350   73.5550  219.1990 C   0  0  1  0  0  0  0  0  0  0  0  0
  143.1140   74.5130  218.4350 C   0  0  0  0  0  0  0  0  0  0  0  0
  142.5500   75.5900  219.1930 N   0  0  0  0  0  0  0  0  0  0  0  0
  143.2480   76.8070  219.2520 C   0  0  0  0  0  0  0  0  0  0  0  0
  142.2210   77.9120  219.4100 C   0  0  0  0  0  0  0  0  0  0  0  0
  141.0340   77.3730  218.6830 C   0  0  0  0  0  0  0  0  0  0  0  0
  141.2320   75.8990  218.6660 C   0  0  0  0  0  0  0  0  0  0  0  0
  140.2500   76.6790  222.0910 C   0  0  0  0  0  0  0  0  0  0  0  0
  139.1100   77.4270  221.8260 C   0  0  0  0  0  0  0  0  0  0  0  0
  139.0930   78.8030  221.8830 C   0  0  0  0  0  0  0  0  0  0  0  0
  140.2840   79.4380  222.2240 C   0  0  0  0  0  0  0  0  0  0  0  0
  140.3030   80.8080  222.2910 C   0  0  0  0  0  0  0  0  0  0  0  0
  141.4810   81.4280  222.6280 C   0  0  0  0  0  0  0  0  0  0  0  0
  141.5310   82.7630  222.7030 F   0  0  0  0  0  0  0  0  0  0  0  0
  142.5940   80.6540  222.8850 C   0  0  0  0  0  0  0  0  0  0  0  0
  142.6000   79.2880  222.8260 C   0  0  0  0  0  0  0  0  0  0  0  0
  141.4120   78.6590  222.4860 C   0  0  0  0  0  0  0  0  0  0  0  0
  141.3770   77.3160  222.4160 N   0  0  0  0  0  0  0  0  0  0  0  0
  142.1410   74.9680  221.2240 H   0  0  0  0  0  0  0  0  0  0  0  0
  141.7293   72.5829  222.2163 H   0  0  0  0  0  0  0  0  0  0  0  0
  140.0901   72.7608  221.5020 H   0  0  0  0  0  0  0  0  0  0  0  0
  144.4084   71.9695  221.4614 H   0  0  0  0  0  0  0  0  0  0  0  0
  143.6250   70.6380  220.5850 H   0  0  0  0  0  0  0  0  0  0  0  0
  145.4660   70.5903  219.2247 H   0  0  0  0  0  0  0  0  0  0  0  0
  146.6000   71.8940  220.9270 H   0  0  0  0  0  0  0  0  0  0  0  0
  145.5643   73.0268  217.8618 H   0  0  0  0  0  0  0  0  0  0  0  0
  144.1552   72.0600  217.5850 H   0  0  0  0  0  0  0  0  0  0  0  0
  144.5663   74.2447  219.7785 H   0  0  0  0  0  0  0  0  0  0  0  0
  143.7473   74.9487  217.6482 H   0  0  0  0  0  0  0  0  0  0  0  0
  142.2594   73.9365  218.0512 H   0  0  0  0  0  0  0  0  0  0  0  0
  143.9340   76.8056  220.1119 H   0  0  0  0  0  0  0  0  0  0  0  0
  143.8433   76.9578  218.3394 H   0  0  0  0  0  0  0  0  0  0  0  0
  141.9889   78.0874  220.4708 H   0  0  0  0  0  0  0  0  0  0  0  0
  142.5642   78.8819  219.0209 H   0  0  0  0  0  0  0  0  0  0  0  0
  140.1053   77.6326  219.2123 H   0  0  0  0  0  0  0  0  0  0  0  0
  140.9449   77.7904  217.6692 H   0  0  0  0  0  0  0  0  0  0  0  0
  140.4640   75.4170  219.2889 H   0  0  0  0  0  0  0  0  0  0  0  0
  141.1486   75.5259  217.6346 H   0  0  0  0  0  0  0  0  0  0  0  0
  138.1827   76.8987  221.5597 H   0  0  0  0  0  0  0  0  0  0  0  0
  138.1784   79.3752  221.6685 H   0  0  0  0  0  0  0  0  0  0  0  0
  139.3971   81.3953  222.0800 H   0  0  0  0  0  0  0  0  0  0  0  0
  143.5304   81.1654  223.1527 H   0  0  0  0  0  0  0  0  0  0  0  0
  143.5116   78.7107  223.0399 H   0  0  0  0  0  0  0  0  0  0  0  0
  1  2  2  0
  2  3  1  0
  3  4  1  0
  4  5  1  0
  5  6  2  0
  5  7  1  0
  7  8  1  0
  8  9  1  0
  9 10  1  0
  9 11  1  0
 11 12  1  0
 12 13  1  0
 13 14  1  0
 14 15  1  0
 15 16  1  0
 16 17  1  0
 17 18  1  0
  2 19  1  0
 19 20  2  0
 20 21  1  0
 21 22  2  0
 22 23  1  0
 23 24  2  0
 24 25  1  0
 24 26  1  0
 26 27  2  0
 27 28  1  0
 28 29  2  0
 12  7  1  0
 18 14  1  0
 29 19  1  0
 28 22  1  0
  3 30  1  0
  4 31  1  0
  4 32  1  0
  8 33  1  0
  8 34  1  0
  9 35  1  6
 10 36  1  0
 11 37  1  0
 11 38  1  0
 12 39  1  1
 13 40  1  0
 13 41  1  0
 15 42  1  0
 15 43  1  0
 16 44  1  0
 16 45  1  0
 17 46  1  0
 17 47  1  0
 18 48  1  0
 18 49  1  0
 20 50  1  0
 21 51  1  0
 23 52  1  0
 26 53  1  0
 27 54  1  0
M  END
>  <smiles>  (41) 
O=C(NCC(=O)N1C[C@H](O)C[C@H]1CN1CCCC1)c1ccc2cc(F)ccc2n1

>  <score_type>  (41) 
oracle

>  <origin>  (41) 
autodockgpu

>  <m_score__min__energy>  (41) 
-8.9700000000000006

>  <m_primary>  (41) 
energy

>  <rmsd>  (41) 
7.685323125538673

>  <m_score__min__rmsd>  (41) 
7.685323125538673

>  <meeko>  (41) 
{"free_energy": -5.54, "intermolecular_energy": -7.63, "internal_energy": -3.2, "cluster_size": 1, "cluster_id": 9, "rank_in_cluster": 1}

>  <energy>  (41) 
-6.42

>  <cluster_rmsd>  (41) 
1.01

>  <cluster>  (41) 
3

$$$$

     RDKit          3D

 54 57  0  0  0  0  0  0  0  0999 V2000
  141.3180   72.5300  221.8960 O   0  0  0  0  0  0  0  0  0  0  0  0
  140.2930   72.4320  222.6290 C   0  0  0  0  0  0  0  0  0  0  0  0
  139.1300   73.2350  222.3480 N   0  0  0  0  0  0  0  0  0  0  0  0
  139.1840   74.1360  221.2150 C   0  0  0  0  0  0  0  0  0  0  0  0
  139.5720   75.5130  221.6840 C   0  0  0  0  0  0  0  0  0  0  0  0
  138.8440   76.0990  222.5200 O   0  0  0  0  0  0  0  0  0  0  0  0
  140.7560   76.0480  221.1280 N   0  0  0  0  0  0  0  0  0  0  0  0
  141.6610   75.4610  220.1380 C   0  0  0  0  0  0  0  0  0  0  0  0
  142.2620   76.5940  219.3840 C   0  0  2  0  0  0  0  0  0  0  0  0
  143.6220   76.7630  219.7220 O   0  0  0  0  0  0  0  0  0  0  0  0
  141.5500   77.8200  219.9830 C   0  0  0  0  0  0  0  0  0  0  0  0
  141.3930   77.3590  221.4120 C   0  0  1  0  0  0  0  0  0  0  0  0
  140.5360   78.1910  222.2770 C   0  0  0  0  0  0  0  0  0  0  0  0
  141.2200   78.9730  223.2630 N   0  0  0  0  0  0  0  0  0  0  0  0
  142.5860   79.2370  223.0800 C   0  0  0  0  0  0  0  0  0  0  0  0
  142.8810   80.5760  223.7290 C   0  0  0  0  0  0  0  0  0  0  0  0
  141.5970   81.3190  223.5620 C   0  0  0  0  0  0  0  0  0  0  0  0
  140.5650   80.2640  223.3800 C   0  0  0  0  0  0  0  0  0  0  0  0
  140.2260   71.5270  223.7720 C   0  0  0  0  0  0  0  0  0  0  0  0
  139.6480   70.2830  223.5570 C   0  0  0  0  0  0  0  0  0  0  0  0
  139.5280   69.3360  224.5490 C   0  0  0  0  0  0  0  0  0  0  0  0
  140.0180   69.6730  225.8080 C   0  0  0  0  0  0  0  0  0  0  0  0
  139.9160   68.7530  226.8210 C   0  0  0  0  0  0  0  0  0  0  0  0
  140.4000   69.0910  228.0600 C   0  0  0  0  0  0  0  0  0  0  0  0
  140.3160   68.2150  229.0690 F   0  0  0  0  0  0  0  0  0  0  0  0
  140.9690   70.3350  228.2390 C   0  0  0  0  0  0  0  0  0  0  0  0
  141.0830   71.2680  227.2460 C   0  0  0  0  0  0  0  0  0  0  0  0
  140.5950   70.9300  225.9930 C   0  0  0  0  0  0  0  0  0  0  0  0
  140.6870   71.8210  224.9900 N   0  0  0  0  0  0  0  0  0  0  0  0
  138.2710   73.1790  222.9320 H   0  0  0  0  0  0  0  0  0  0  0  0
  139.9292   73.7717  220.4925 H   0  0  0  0  0  0  0  0  0  0  0  0
  138.1956   74.1785  220.7341 H   0  0  0  0  0  0  0  0  0  0  0  0
  142.4482   74.8803  220.6411 H   0  0  0  0  0  0  0  0  0  0  0  0
  141.1219   74.7788  219.4642 H   0  0  0  0  0  0  0  0  0  0  0  0
  142.1693   76.4460  218.2980 H   0  0  0  0  0  0  0  0  0  0  0  0
  143.7490   77.2600  220.5560 H   0  0  0  0  0  0  0  0  0  0  0  0
  142.1689   78.7266  219.9121 H   0  0  0  0  0  0  0  0  0  0  0  0
  140.6127   78.1026  219.4815 H   0  0  0  0  0  0  0  0  0  0  0  0
  142.3327   77.3728  221.9837 H   0  0  0  0  0  0  0  0  0  0  0  0
  139.9719   78.8800  221.6312 H   0  0  0  0  0  0  0  0  0  0  0  0
  139.9042   77.4871  222.8386 H   0  0  0  0  0  0  0  0  0  0  0  0
  143.1881   78.4484  223.5549 H   0  0  0  0  0  0  0  0  0  0  0  0
  142.8365   79.2612  222.0092 H   0  0  0  0  0  0  0  0  0  0  0  0
  143.1314   80.4532  224.7931 H   0  0  0  0  0  0  0  0  0  0  0  0
  143.7431   81.0937  223.2832 H   0  0  0  0  0  0  0  0  0  0  0  0
  141.3801   81.9225  224.4557 H   0  0  0  0  0  0  0  0  0  0  0  0
  141.6300   82.0168  222.7123 H   0  0  0  0  0  0  0  0  0  0  0  0
  139.8889   80.2566  224.2477 H   0  0  0  0  0  0  0  0  0  0  0  0
  139.9833   80.4681  222.4690 H   0  0  0  0  0  0  0  0  0  0  0  0
  139.2701   70.0441  222.5519 H   0  0  0  0  0  0  0  0  0  0  0  0
  139.0656   68.3568  224.3556 H   0  0  0  0  0  0  0  0  0  0  0  0
  139.4576   67.7688  226.6443 H   0  0  0  0  0  0  0  0  0  0  0  0
  141.3529   70.5909  229.2376 H   0  0  0  0  0  0  0  0  0  0  0  0
  141.5440   72.2489  227.4340 H   0  0  0  0  0  0  0  0  0  0  0  0
  1  2  2  0
  2  3  1  0
  3  4  1  0
  4  5  1  0
  5  6  2  0
  5  7  1  0
  7  8  1  0
  8  9  1  0
  9 10  1  0
  9 11  1  0
 11 12  1  0
 12 13  1  0
 13 14  1  0
 14 15  1  0
 15 16  1  0
 16 17  1  0
 17 18  1  0
  2 19  1  0
 19 20  2  0
 20 21  1  0
 21 22  2  0
 22 23  1  0
 23 24  2  0
 24 25  1  0
 24 26  1  0
 26 27  2  0
 27 28  1  0
 28 29  2  0
 12  7  1  0
 18 14  1  0
 29 19  1  0
 28 22  1  0
  3 30  1  0
  4 31  1  0
  4 32  1  0
  8 33  1  0
  8 34  1  0
  9 35  1  6
 10 36  1  0
 11 37  1  0
 11 38  1  0
 12 39  1  1
 13 40  1  0
 13 41  1  0
 15 42  1  0
 15 43  1  0
 16 44  1  0
 16 45  1  0
 17 46  1  0
 17 47  1  0
 18 48  1  0
 18 49  1  0
 20 50  1  0
 21 51  1  0
 23 52  1  0
 26 53  1  0
 27 54  1  0
M  END
>  <smiles>  (42) 
O=C(NCC(=O)N1C[C@H](O)C[C@H]1CN1CCCC1)c1ccc2cc(F)ccc2n1

>  <score_type>  (42) 
oracle

>  <origin>  (42) 
autodockgpu

>  <m_score__min__energy>  (42) 
-8.9700000000000006

>  <m_primary>  (42) 
energy

>  <rmsd>  (42) 
2.191421047046591

>  <m_score__min__rmsd>  (42) 
2.191421047046591

>  <meeko>  (42) 
{"free_energy": -8.97, "intermolecular_energy": -11.05, "internal_energy": -1.21, "cluster_size": 33, "cluster_id": 1, "rank_in_cluster": 1}

>  <energy>  (42) 
-7.71

>  <cluster_rmsd>  (42) 
0.0

>  <cluster>  (42) 
4

$$$$

     RDKit          3D

 54 57  0  0  0  0  0  0  0  0999 V2000
  139.7870   70.9590  221.4480 O   0  0  0  0  0  0  0  0  0  0  0  0
  139.8090   71.4770  222.6010 C   0  0  0  0  0  0  0  0  0  0  0  0
  139.7600   72.9100  222.7450 N   0  0  0  0  0  0  0  0  0  0  0  0
  139.6850   73.7110  221.5400 C   0  0  0  0  0  0  0  0  0  0  0  0
  139.9600   75.1530  221.8750 C   0  0  0  0  0  0  0  0  0  0  0  0
  139.2360   75.7310  222.7190 O   0  0  0  0  0  0  0  0  0  0  0  0
  141.0410   75.7540  221.1910 N   0  0  0  0  0  0  0  0  0  0  0  0
  142.0420   75.1370  220.3190 C   0  0  0  0  0  0  0  0  0  0  0  0
  142.4480   76.1750  219.3330 C   0  0  2  0  0  0  0  0  0  0  0  0
  143.7560   76.6380  219.5930 O   0  0  0  0  0  0  0  0  0  0  0  0
  141.5310   77.3610  219.6870 C   0  0  0  0  0  0  0  0  0  0  0  0
  141.4420   77.1840  221.1830 C   0  0  1  0  0  0  0  0  0  0  0  0
  140.4470   78.0190  221.8820 C   0  0  0  0  0  0  0  0  0  0  0  0
  140.9340   78.7530  223.0110 N   0  0  0  0  0  0  0  0  0  0  0  0
  142.3100   79.0190  223.0960 C   0  0  0  0  0  0  0  0  0  0  0  0
  142.4740   80.3260  223.8480 C   0  0  0  0  0  0  0  0  0  0  0  0
  141.2400   81.0810  223.4820 C   0  0  0  0  0  0  0  0  0  0  0  0
  140.2640   80.0400  223.0640 C   0  0  0  0  0  0  0  0  0  0  0  0
  139.8840   70.6800  223.8220 C   0  0  0  0  0  0  0  0  0  0  0  0
  139.3370   69.4040  223.7740 C   0  0  0  0  0  0  0  0  0  0  0  0
  139.3460   68.5500  224.8540 C   0  0  0  0  0  0  0  0  0  0  0  0
  139.9360   69.0160  226.0250 C   0  0  0  0  0  0  0  0  0  0  0  0
  139.9640   68.1910  227.1210 C   0  0  0  0  0  0  0  0  0  0  0  0
  140.5480   68.6570  228.2730 C   0  0  0  0  0  0  0  0  0  0  0  0
  140.5910   67.8750  229.3590 F   0  0  0  0  0  0  0  0  0  0  0  0
  141.0810   69.9290  228.2850 C   0  0  0  0  0  0  0  0  0  0  0  0
  141.0670   70.7690  227.2070 C   0  0  0  0  0  0  0  0  0  0  0  0
  140.4780   70.3020  226.0420 C   0  0  0  0  0  0  0  0  0  0  0  0
  140.4430   71.0990  224.9580 N   0  0  0  0  0  0  0  0  0  0  0  0
  139.7770   73.3680  223.6780 H   0  0  0  0  0  0  0  0  0  0  0  0
  140.4324   73.3543  220.8160 H   0  0  0  0  0  0  0  0  0  0  0  0
  138.6790   73.6224  221.1041 H   0  0  0  0  0  0  0  0  0  0  0  0
  142.9120   74.8142  220.9096 H   0  0  0  0  0  0  0  0  0  0  0  0
  141.6335   74.2494  219.8137 H   0  0  0  0  0  0  0  0  0  0  0  0
  142.3921   75.7921  218.3033 H   0  0  0  0  0  0  0  0  0  0  0  0
  143.7710   77.4770  220.0980 H   0  0  0  0  0  0  0  0  0  0  0  0
  141.9868   78.3248  219.4161 H   0  0  0  0  0  0  0  0  0  0  0  0
  140.5640   77.3722  219.1629 H   0  0  0  0  0  0  0  0  0  0  0  0
  142.3606   77.4739  221.7142 H   0  0  0  0  0  0  0  0  0  0  0  0
  140.0440   78.7419  221.1575 H   0  0  0  0  0  0  0  0  0  0  0  0
  139.6967   77.3202  222.2803 H   0  0  0  0  0  0  0  0  0  0  0  0
  142.8170   78.2072  223.6381 H   0  0  0  0  0  0  0  0  0  0  0  0
  142.7544   79.0901  222.0923 H   0  0  0  0  0  0  0  0  0  0  0  0
  142.5249   80.1540  224.9333 H   0  0  0  0  0  0  0  0  0  0  0  0
  143.4009   80.8601  223.5919 H   0  0  0  0  0  0  0  0  0  0  0  0
  140.8593   81.6431  224.3475 H   0  0  0  0  0  0  0  0  0  0  0  0
  141.4260   81.8174  222.6863 H   0  0  0  0  0  0  0  0  0  0  0  0
  139.4391   79.9960  223.7903 H   0  0  0  0  0  0  0  0  0  0  0  0
  139.8604   80.2883  222.0713 H   0  0  0  0  0  0  0  0  0  0  0  0
  138.8779   69.0619  222.8348 H   0  0  0  0  0  0  0  0  0  0  0  0
  138.9061   67.5436  224.7938 H   0  0  0  0  0  0  0  0  0  0  0  0
  139.5294   67.1814  227.0778 H   0  0  0  0  0  0  0  0  0  0  0  0
  141.5441   70.2881  229.2159 H   0  0  0  0  0  0  0  0  0  0  0  0
  141.5059   71.7762  227.2615 H   0  0  0  0  0  0  0  0  0  0  0  0
  1  2  2  0
  2  3  1  0
  3  4  1  0
  4  5  1  0
  5  6  2  0
  5  7  1  0
  7  8  1  0
  8  9  1  0
  9 10  1  0
  9 11  1  0
 11 12  1  0
 12 13  1  0
 13 14  1  0
 14 15  1  0
 15 16  1  0
 16 17  1  0
 17 18  1  0
  2 19  1  0
 19 20  2  0
 20 21  1  0
 21 22  2  0
 22 23  1  0
 23 24  2  0
 24 25  1  0
 24 26  1  0
 26 27  2  0
 27 28  1  0
 28 29  2  0
 12  7  1  0
 18 14  1  0
 29 19  1  0
 28 22  1  0
  3 30  1  0
  4 31  1  0
  4 32  1  0
  8 33  1  0
  8 34  1  0
  9 35  1  6
 10 36  1  0
 11 37  1  0
 11 38  1  0
 12 39  1  1
 13 40  1  0
 13 41  1  0
 15 42  1  0
 15 43  1  0
 16 44  1  0
 16 45  1  0
 17 46  1  0
 17 47  1  0
 18 48  1  0
 18 49  1  0
 20 50  1  0
 21 51  1  0
 23 52  1  0
 26 53  1  0
 27 54  1  0
M  END
>  <smiles>  (43) 
O=C(NCC(=O)N1C[C@H](O)C[C@H]1CN1CCCC1)c1ccc2cc(F)ccc2n1

>  <score_type>  (43) 
oracle

>  <origin>  (43) 
autodockgpu

>  <m_score__min__energy>  (43) 
-8.9700000000000006

>  <m_primary>  (43) 
energy

>  <rmsd>  (43) 
2.1169402181407535

>  <m_score__min__rmsd>  (43) 
2.1169402181407535

>  <meeko>  (43) 
{"free_energy": -8.62, "intermolecular_energy": -10.71, "internal_energy": -1.39, "cluster_size": 33, "cluster_id": 1, "rank_in_cluster": 11}

>  <energy>  (43) 
-7.32

>  <cluster_rmsd>  (43) 
1.5

>  <cluster>  (43) 
4

$$$$

     RDKit          3D

 54 57  0  0  0  0  0  0  0  0999 V2000
  138.6960   73.0320  221.2920 O   0  0  0  0  0  0  0  0  0  0  0  0
  139.7310   72.8150  221.9850 C   0  0  0  0  0  0  0  0  0  0  0  0
  140.9640   73.4880  221.6640 N   0  0  0  0  0  0  0  0  0  0  0  0
  140.9660   74.4030  220.5410 C   0  0  0  0  0  0  0  0  0  0  0  0
  142.3370   75.0050  220.3830 C   0  0  0  0  0  0  0  0  0  0  0  0
  143.3270   74.3980  220.8540 O   0  0  0  0  0  0  0  0  0  0  0  0
  142.3970   76.2400  219.6980 N   0  0  0  0  0  0  0  0  0  0  0  0
  142.9550   76.5410  218.3780 C   0  0  0  0  0  0  0  0  0  0  0  0
  142.1730   77.6830  217.8330 C   0  0  2  0  0  0  0  0  0  0  0  0
  142.9420   78.8660  217.8250 O   0  0  0  0  0  0  0  0  0  0  0  0
  141.1040   77.9140  218.9180 C   0  0  0  0  0  0  0  0  0  0  0  0
  141.9030   77.5660  220.1500 C   0  0  1  0  0  0  0  0  0  0  0  0
  141.1440   77.4500  221.4100 C   0  0  0  0  0  0  0  0  0  0  0  0
  141.0770   78.6380  222.2070 N   0  0  0  0  0  0  0  0  0  0  0  0
  141.5940   78.6000  223.5120 C   0  0  0  0  0  0  0  0  0  0  0  0
  142.0900   79.9940  223.8440 C   0  0  0  0  0  0  0  0  0  0  0  0
  142.5250   80.5200  222.5170 C   0  0  0  0  0  0  0  0  0  0  0  0
  141.7790   79.7080  221.5200 C   0  0  0  0  0  0  0  0  0  0  0  0
  139.7410   71.8960  223.1190 C   0  0  0  0  0  0  0  0  0  0  0  0
  139.0040   70.7260  222.9870 C   0  0  0  0  0  0  0  0  0  0  0  0
  138.9330   69.7750  223.9800 C   0  0  0  0  0  0  0  0  0  0  0  0
  139.6440   70.0270  225.1510 C   0  0  0  0  0  0  0  0  0  0  0  0
  139.5970   69.1000  226.1610 C   0  0  0  0  0  0  0  0  0  0  0  0
  140.3000   69.3550  227.3130 C   0  0  0  0  0  0  0  0  0  0  0  0
  140.2750   68.4700  228.3160 F   0  0  0  0  0  0  0  0  0  0  0  0
  141.0220   70.5270  227.4090 C   0  0  0  0  0  0  0  0  0  0  0  0
  141.0850   71.4650  226.4170 C   0  0  0  0  0  0  0  0  0  0  0  0
  140.3770   71.2110  225.2530 C   0  0  0  0  0  0  0  0  0  0  0  0
  140.4120   72.1100  224.2530 N   0  0  0  0  0  0  0  0  0  0  0  0
  141.8330   73.3310  222.2130 H   0  0  0  0  0  0  0  0  0  0  0  0
  140.6976   73.8579  219.6241 H   0  0  0  0  0  0  0  0  0  0  0  0
  140.2337   75.2039  220.7208 H   0  0  0  0  0  0  0  0  0  0  0  0
  144.0159   76.8172  218.4690 H   0  0  0  0  0  0  0  0  0  0  0  0
  142.8930   75.6664  217.7137 H   0  0  0  0  0  0  0  0  0  0  0  0
  141.8129   77.4721  216.8152 H   0  0  0  0  0  0  0  0  0  0  0  0
  143.4030   79.0160  216.9740 H   0  0  0  0  0  0  0  0  0  0  0  0
  140.7596   78.9585  218.9362 H   0  0  0  0  0  0  0  0  0  0  0  0
  140.1779   77.3351  218.7871 H   0  0  0  0  0  0  0  0  0  0  0  0
  142.6405   78.3339  220.4265 H   0  0  0  0  0  0  0  0  0  0  0  0
  140.1150   77.1534  221.1585 H   0  0  0  0  0  0  0  0  0  0  0  0
  141.6854   76.7110  222.0189 H   0  0  0  0  0  0  0  0  0  0  0  0
  140.8063   78.3026  224.2199 H   0  0  0  0  0  0  0  0  0  0  0  0
  142.4127   77.8690  223.5843 H   0  0  0  0  0  0  0  0  0  0  0  0
  141.2835   80.6100  224.2685 H   0  0  0  0  0  0  0  0  0  0  0  0
  142.8916   80.0011  224.5972 H   0  0  0  0  0  0  0  0  0  0  0  0
  142.2672   81.5849  222.4195 H   0  0  0  0  0  0  0  0  0  0  0  0
  143.6139   80.4465  222.3793 H   0  0  0  0  0  0  0  0  0  0  0  0
  141.0536   80.3461  220.9941 H   0  0  0  0  0  0  0  0  0  0  0  0
  142.4821   79.2806  220.7899 H   0  0  0  0  0  0  0  0  0  0  0  0
  138.4543   70.5521  222.0502 H   0  0  0  0  0  0  0  0  0  0  0  0
  138.3408   68.8566  223.8542 H   0  0  0  0  0  0  0  0  0  0  0  0
  139.0110   68.1756  226.0510 H   0  0  0  0  0  0  0  0  0  0  0  0
  141.5793   70.7174  228.3381 H   0  0  0  0  0  0  0  0  0  0  0  0
  141.6747   72.3857  226.5378 H   0  0  0  0  0  0  0  0  0  0  0  0
  1  2  2  0
  2  3  1  0
  3  4  1  0
  4  5  1  0
  5  6  2  0
  5  7  1  0
  7  8  1  0
  8  9  1  0
  9 10  1  0
  9 11  1  0
 11 12  1  0
 12 13  1  0
 13 14  1  0
 14 15  1  0
 15 16  1  0
 16 17  1  0
 17 18  1  0
  2 19  1  0
 19 20  2  0
 20 21  1  0
 21 22  2  0
 22 23  1  0
 23 24  2  0
 24 25  1  0
 24 26  1  0
 26 27  2  0
 27 28  1  0
 28 29  2  0
 12  7  1  0
 18 14  1  0
 29 19  1  0
 28 22  1  0
  3 30  1  0
  4 31  1  0
  4 32  1  0
  8 33  1  0
  8 34  1  0
  9 35  1  6
 10 36  1  0
 11 37  1  0
 11 38  1  0
 12 39  1  1
 13 40  1  0
 13 41  1  0
 15 42  1  0
 15 43  1  0
 16 44  1  0
 16 45  1  0
 17 46  1  0
 17 47  1  0
 18 48  1  0
 18 49  1  0
 20 50  1  0
 21 51  1  0
 23 52  1  0
 26 53  1  0
 27 54  1  0
M  END
>  <smiles>  (44) 
O=C(NCC(=O)N1C[C@H](O)C[C@H]1CN1CCCC1)c1ccc2cc(F)ccc2n1

>  <score_type>  (44) 
oracle

>  <origin>  (44) 
autodockgpu

>  <m_score__min__energy>  (44) 
-8.9700000000000006

>  <m_primary>  (44) 
energy

>  <rmsd>  (44) 
2.2746722076552492

>  <m_score__min__rmsd>  (44) 
2.2746722076552492

>  <meeko>  (44) 
{"free_energy": -7.57, "intermolecular_energy": -9.66, "internal_energy": -1.78, "cluster_size": 33, "cluster_id": 1, "rank_in_cluster": 31}

>  <energy>  (44) 
-7.39

>  <cluster_rmsd>  (44) 
0.0

>  <cluster>  (44) 
5

$$$$

     RDKit          3D

 54 57  0  0  0  0  0  0  0  0999 V2000
  141.3850   72.5030  221.9090 O   0  0  0  0  0  0  0  0  0  0  0  0
  140.3700   72.4800  222.6640 C   0  0  0  0  0  0  0  0  0  0  0  0
  139.2700   73.3770  222.4140 N   0  0  0  0  0  0  0  0  0  0  0  0
  139.3740   74.2820  221.2880 C   0  0  0  0  0  0  0  0  0  0  0  0
  140.0530   75.5530  221.7240 C   0  0  0  0  0  0  0  0  0  0  0  0
  139.5930   76.1860  222.7030 O   0  0  0  0  0  0  0  0  0  0  0  0
  141.1860   75.9410  220.9720 N   0  0  0  0  0  0  0  0  0  0  0  0
  142.3230   75.1330  220.5270 C   0  0  0  0  0  0  0  0  0  0  0  0
  142.8060   75.7370  219.2560 C   0  0  2  0  0  0  0  0  0  0  0  0
  144.0420   76.3900  219.4430 O   0  0  0  0  0  0  0  0  0  0  0  0
  141.7930   76.8710  219.0090 C   0  0  0  0  0  0  0  0  0  0  0  0
  141.5130   77.2860  220.4340 C   0  0  1  0  0  0  0  0  0  0  0  0
  140.3950   78.2260  220.6320 C   0  0  0  0  0  0  0  0  0  0  0  0
  140.6240   79.2720  221.5840 N   0  0  0  0  0  0  0  0  0  0  0  0
  140.0200   79.1740  222.8470 C   0  0  0  0  0  0  0  0  0  0  0  0
  140.9250   79.8790  223.8400 C   0  0  0  0  0  0  0  0  0  0  0  0
  142.2850   79.6630  223.2650 C   0  0  0  0  0  0  0  0  0  0  0  0
  142.0520   79.3910  221.8210 C   0  0  0  0  0  0  0  0  0  0  0  0
  140.2550   71.5720  223.8000 C   0  0  0  0  0  0  0  0  0  0  0  0
  139.6530   70.3420  223.5640 C   0  0  0  0  0  0  0  0  0  0  0  0
  139.4860   69.3940  224.5480 C   0  0  0  0  0  0  0  0  0  0  0  0
  139.9520   69.7140  225.8210 C   0  0  0  0  0  0  0  0  0  0  0  0
  139.8040   68.7920  226.8260 C   0  0  0  0  0  0  0  0  0  0  0  0
  140.2650   69.1130  228.0790 C   0  0  0  0  0  0  0  0  0  0  0  0
  140.1360   68.2340  229.0800 F   0  0  0  0  0  0  0  0  0  0  0  0
  140.8580   70.3430  228.2770 C   0  0  0  0  0  0  0  0  0  0  0  0
  141.0180   71.2770  227.2930 C   0  0  0  0  0  0  0  0  0  0  0  0
  140.5540   70.9560  226.0270 C   0  0  0  0  0  0  0  0  0  0  0  0
  140.6920   71.8500  225.0300 N   0  0  0  0  0  0  0  0  0  0  0  0
  138.4220   73.3840  223.0160 H   0  0  0  0  0  0  0  0  0  0  0  0
  139.9633   73.8072  220.4897 H   0  0  0  0  0  0  0  0  0  0  0  0
  138.3669   74.5156  220.9123 H   0  0  0  0  0  0  0  0  0  0  0  0
  143.1213   75.1530  221.2835 H   0  0  0  0  0  0  0  0  0  0  0  0
  142.0286   74.0835  220.3792 H   0  0  0  0  0  0  0  0  0  0  0  0
  142.9072   74.9786  218.4657 H   0  0  0  0  0  0  0  0  0  0  0  0
  143.9870   77.1440  220.0660 H   0  0  0  0  0  0  0  0  0  0  0  0
  142.2333   77.6917  218.4236 H   0  0  0  0  0  0  0  0  0  0  0  0
  140.9054   76.5814  218.4274 H   0  0  0  0  0  0  0  0  0  0  0  0
  142.3362   77.8492  220.8978 H   0  0  0  0  0  0  0  0  0  0  0  0
  140.1716   78.6946  219.6622 H   0  0  0  0  0  0  0  0  0  0  0  0
  139.5674   77.6263  221.0387 H   0  0  0  0  0  0  0  0  0  0  0  0
  139.0322   79.6577  222.8297 H   0  0  0  0  0  0  0  0  0  0  0  0
  139.8806   78.1201  223.1296 H   0  0  0  0  0  0  0  0  0  0  0  0
  140.6868   80.9512  223.9003 H   0  0  0  0  0  0  0  0  0  0  0  0
  140.8225   79.4981  224.8669 H   0  0  0  0  0  0  0  0  0  0  0  0
  142.9068   80.5612  223.3941 H   0  0  0  0  0  0  0  0  0  0  0  0
  142.8177   78.8381  223.7608 H   0  0  0  0  0  0  0  0  0  0  0  0
  142.4574   80.2185  221.2202 H   0  0  0  0  0  0  0  0  0  0  0  0
  142.5544   78.4553  221.5345 H   0  0  0  0  0  0  0  0  0  0  0  0
  139.2950   70.1165  222.5486 H   0  0  0  0  0  0  0  0  0  0  0  0
  139.0059   68.4268  224.3383 H   0  0  0  0  0  0  0  0  0  0  0  0
  139.3277   67.8194  226.6328 H   0  0  0  0  0  0  0  0  0  0  0  0
  141.2232   70.5856  229.2858 H   0  0  0  0  0  0  0  0  0  0  0  0
  141.4965   72.2462  227.4975 H   0  0  0  0  0  0  0  0  0  0  0  0
  1  2  2  0
  2  3  1  0
  3  4  1  0
  4  5  1  0
  5  6  2  0
  5  7  1  0
  7  8  1  0
  8  9  1  0
  9 10  1  0
  9 11  1  0
 11 12  1  0
 12 13  1  0
 13 14  1  0
 14 15  1  0
 15 16  1  0
 16 17  1  0
 17 18  1  0
  2 19  1  0
 19 20  2  0
 20 21  1  0
 21 22  2  0
 22 23  1  0
 23 24  2  0
 24 25  1  0
 24 26  1  0
 26 27  2  0
 27 28  1  0
 28 29  2  0
 12  7  1  0
 18 14  1  0
 29 19  1  0
 28 22  1  0
  3 30  1  0
  4 31  1  0
  4 32  1  0
  8 33  1  0
  8 34  1  0
  9 35  1  6
 10 36  1  0
 11 37  1  0
 11 38  1  0
 12 39  1  1
 13 40  1  0
 13 41  1  0
 15 42  1  0
 15 43  1  0
 16 44  1  0
 16 45  1  0
 17 46  1  0
 17 47  1  0
 18 48  1  0
 18 49  1  0
 20 50  1  0
 21 51  1  0
 23 52  1  0
 26 53  1  0
 27 54  1  0
M  END
>  <smiles>  (45) 
O=C(NCC(=O)N1C[C@H](O)C[C@H]1CN1CCCC1)c1ccc2cc(F)ccc2n1

>  <score_type>  (45) 
oracle

>  <origin>  (45) 
autodockgpu

>  <m_score__min__energy>  (45) 
-8.9700000000000006

>  <m_primary>  (45) 
energy

>  <rmsd>  (45) 
2.093584318443674

>  <m_score__min__rmsd>  (45) 
2.093584318443674

>  <meeko>  (45) 
{"free_energy": -8.39, "intermolecular_energy": -10.48, "internal_energy": -1.54, "cluster_size": 33, "cluster_id": 1, "rank_in_cluster": 18}

>  <energy>  (45) 
-7.36

>  <cluster_rmsd>  (45) 
0.36

>  <cluster>  (45) 
5

$$$$

     RDKit          3D

 54 57  0  0  0  0  0  0  0  0999 V2000
  141.4320   72.7740  222.0440 O   0  0  0  0  0  0  0  0  0  0  0  0
  140.3570   72.6150  222.6910 C   0  0  0  0  0  0  0  0  0  0  0  0
  139.1920   73.3890  222.3450 N   0  0  0  0  0  0  0  0  0  0  0  0
  139.3030   74.3330  221.2510 C   0  0  0  0  0  0  0  0  0  0  0  0
  139.9170   75.6130  221.7500 C   0  0  0  0  0  0  0  0  0  0  0  0
  139.3600   76.2310  222.6880 O   0  0  0  0  0  0  0  0  0  0  0  0
  141.1020   76.0280  221.1010 N   0  0  0  0  0  0  0  0  0  0  0  0
  142.1820   75.2150  220.5390 C   0  0  0  0  0  0  0  0  0  0  0  0
  142.7570   75.9910  219.4070 C   0  0  2  0  0  0  0  0  0  0  0  0
  144.0370   76.4870  219.7310 O   0  0  0  0  0  0  0  0  0  0  0  0
  141.8520   77.2360  219.3510 C   0  0  0  0  0  0  0  0  0  0  0  0
  141.5600   77.4130  220.8220 C   0  0  1  0  0  0  0  0  0  0  0  0
  140.5190   78.3980  221.1670 C   0  0  0  0  0  0  0  0  0  0  0  0
  140.9120   79.4190  222.0910 N   0  0  0  0  0  0  0  0  0  0  0  0
  141.1500   79.0600  223.4270 C   0  0  0  0  0  0  0  0  0  0  0  0
  142.1970   80.0120  223.9730 C   0  0  0  0  0  0  0  0  0  0  0  0
  143.0190   80.3330  222.7700 C   0  0  0  0  0  0  0  0  0  0  0  0
  142.1310   80.0470  221.6120 C   0  0  0  0  0  0  0  0  0  0  0  0
  140.2340   71.6680  223.7940 C   0  0  0  0  0  0  0  0  0  0  0  0
  139.5630   70.4810  223.5310 C   0  0  0  0  0  0  0  0  0  0  0  0
  139.3810   69.5020  224.4820 C   0  0  0  0  0  0  0  0  0  0  0  0
  139.9060   69.7450  225.7490 C   0  0  0  0  0  0  0  0  0  0  0  0
  139.7450   68.7910  226.7210 C   0  0  0  0  0  0  0  0  0  0  0  0
  140.2640   69.0360  227.9680 C   0  0  0  0  0  0  0  0  0  0  0  0
  140.1240   68.1240  228.9380 F   0  0  0  0  0  0  0  0  0  0  0  0
  140.9250   70.2260  228.1940 C   0  0  0  0  0  0  0  0  0  0  0  0
  141.1000   71.1910  227.2420 C   0  0  0  0  0  0  0  0  0  0  0  0
  140.5760   70.9460  225.9820 C   0  0  0  0  0  0  0  0  0  0  0  0
  140.7260   71.8720  225.0170 N   0  0  0  0  0  0  0  0  0  0  0  0
  138.2930   73.2840  222.8570 H   0  0  0  0  0  0  0  0  0  0  0  0
  139.9384   73.9055  220.4614 H   0  0  0  0  0  0  0  0  0  0  0  0
  138.3021   74.5416  220.8451 H   0  0  0  0  0  0  0  0  0  0  0  0
  142.9528   75.0293  221.3015 H   0  0  0  0  0  0  0  0  0  0  0  0
  141.8063   74.2387  220.1989 H   0  0  0  0  0  0  0  0  0  0  0  0
  142.8206   75.3802  218.4944 H   0  0  0  0  0  0  0  0  0  0  0  0
  144.0120   77.2030  220.3990 H   0  0  0  0  0  0  0  0  0  0  0  0
  142.3792   78.1056  218.9318 H   0  0  0  0  0  0  0  0  0  0  0  0
  140.9633   77.1348  218.7107 H   0  0  0  0  0  0  0  0  0  0  0  0
  142.4117   77.8087  221.3947 H   0  0  0  0  0  0  0  0  0  0  0  0
  140.1973   78.8895  220.2370 H   0  0  0  0  0  0  0  0  0  0  0  0
  139.7228   77.8292  221.6695 H   0  0  0  0  0  0  0  0  0  0  0  0
  140.2218   79.1471  224.0108 H   0  0  0  0  0  0  0  0  0  0  0  0
  141.4994   78.0191  223.4931 H   0  0  0  0  0  0  0  0  0  0  0  0
  141.7302   80.9183  224.3861 H   0  0  0  0  0  0  0  0  0  0  0  0
  142.7850   79.5829  224.7977 H   0  0  0  0  0  0  0  0  0  0  0  0
  143.3175   81.3917  222.7765 H   0  0  0  0  0  0  0  0  0  0  0  0
  143.9480   79.7450  222.7345 H   0  0  0  0  0  0  0  0  0  0  0  0
  141.8832   80.9869  221.0970 H   0  0  0  0  0  0  0  0  0  0  0  0
  142.6436   79.3731  220.9097 H   0  0  0  0  0  0  0  0  0  0  0  0
  139.1601   70.3160  222.5208 H   0  0  0  0  0  0  0  0  0  0  0  0
  138.8449   68.5696  224.2514 H   0  0  0  0  0  0  0  0  0  0  0  0
  139.2129   67.8524  226.5066 H   0  0  0  0  0  0  0  0  0  0  0  0
  141.3348   70.4085  229.1984 H   0  0  0  0  0  0  0  0  0  0  0  0
  141.6355   72.1252  227.4667 H   0  0  0  0  0  0  0  0  0  0  0  0
  1  2  2  0
  2  3  1  0
  3  4  1  0
  4  5  1  0
  5  6  2  0
  5  7  1  0
  7  8  1  0
  8  9  1  0
  9 10  1  0
  9 11  1  0
 11 12  1  0
 12 13  1  0
 13 14  1  0
 14 15  1  0
 15 16  1  0
 16 17  1  0
 17 18  1  0
  2 19  1  0
 19 20  2  0
 20 21  1  0
 21 22  2  0
 22 23  1  0
 23 24  2  0
 24 25  1  0
 24 26  1  0
 26 27  2  0
 27 28  1  0
 28 29  2  0
 12  7  1  0
 18 14  1  0
 29 19  1  0
 28 22  1  0
  3 30  1  0
  4 31  1  0
  4 32  1  0
  8 33  1  0
  8 34  1  0
  9 35  1  6
 10 36  1  0
 11 37  1  0
 11 38  1  0
 12 39  1  1
 13 40  1  0
 13 41  1  0
 15 42  1  0
 15 43  1  0
 16 44  1  0
 16 45  1  0
 17 46  1  0
 17 47  1  0
 18 48  1  0
 18 49  1  0
 20 50  1  0
 21 51  1  0
 23 52  1  0
 26 53  1  0
 27 54  1  0
M  END
>  <smiles>  (46) 
O=C(NCC(=O)N1C[C@H](O)C[C@H]1CN1CCCC1)c1ccc2cc(F)ccc2n1

>  <score_type>  (46) 
oracle

>  <origin>  (46) 
autodockgpu

>  <m_score__min__energy>  (46) 
-8.9700000000000006

>  <m_primary>  (46) 
energy

>  <rmsd>  (46) 
2.0399994221293998

>  <m_score__min__rmsd>  (46) 
2.0399994221293998

>  <meeko>  (46) 
{"free_energy": -8.75, "intermolecular_energy": -10.84, "internal_energy": -1.42, "cluster_size": 33, "cluster_id": 1, "rank_in_cluster": 7}

>  <energy>  (46) 
-6.98

>  <cluster_rmsd>  (46) 
0.5

>  <cluster>  (46) 
5

$$$$

     RDKit          3D

 54 57  0  0  0  0  0  0  0  0999 V2000
  138.8070   71.8430  221.9900 O   0  0  0  0  0  0  0  0  0  0  0  0
  139.9480   71.5450  222.4470 C   0  0  0  0  0  0  0  0  0  0  0  0
  141.1200   71.7340  221.6310 N   0  0  0  0  0  0  0  0  0  0  0  0
  140.9390   72.2690  220.2970 C   0  0  0  0  0  0  0  0  0  0  0  0
  141.8100   71.5150  219.3280 C   0  0  0  0  0  0  0  0  0  0  0  0
  141.3160   70.5640  218.6760 O   0  0  0  0  0  0  0  0  0  0  0  0
  143.1520   71.9500  219.2300 N   0  0  0  0  0  0  0  0  0  0  0  0
  143.6740   73.2590  218.8350 C   0  0  0  0  0  0  0  0  0  0  0  0
  144.9620   73.4410  219.5560 C   0  0  2  0  0  0  0  0  0  0  0  0
  146.0570   73.3460  218.6710 O   0  0  0  0  0  0  0  0  0  0  0  0
  145.0480   72.1760  220.4290 C   0  0  0  0  0  0  0  0  0  0  0  0
  144.3900   71.1780  219.5080 C   0  0  1  0  0  0  0  0  0  0  0  0
  144.0760   69.8590  220.0890 C   0  0  0  0  0  0  0  0  0  0  0  0
  145.0850   68.8550  219.9330 N   0  0  0  0  0  0  0  0  0  0  0  0
  144.6830   67.5270  219.7210 C   0  0  0  0  0  0  0  0  0  0  0  0
  145.7550   66.8550  218.8850 C   0  0  0  0  0  0  0  0  0  0  0  0
  146.2850   67.9760  218.0550 C   0  0  0  0  0  0  0  0  0  0  0  0
  145.9340   69.2090  218.8090 C   0  0  0  0  0  0  0  0  0  0  0  0
  140.1420   71.0060  223.7900 C   0  0  0  0  0  0  0  0  0  0  0  0
  140.7160   71.8530  224.7300 C   0  0  0  0  0  0  0  0  0  0  0  0
  140.9490   71.4700  226.0320 C   0  0  0  0  0  0  0  0  0  0  0  0
  140.5820   70.1740  226.3860 C   0  0  0  0  0  0  0  0  0  0  0  0
  140.7990   69.7590  227.6760 C   0  0  0  0  0  0  0  0  0  0  0  0
  140.4350   68.4800  228.0190 C   0  0  0  0  0  0  0  0  0  0  0  0
  140.6330   68.0460  229.2690 F   0  0  0  0  0  0  0  0  0  0  0  0
  139.8670   67.6670  227.0600 C   0  0  0  0  0  0  0  0  0  0  0  0
  139.6400   68.0580  225.7700 C   0  0  0  0  0  0  0  0  0  0  0  0
  140.0060   69.3480  225.4200 C   0  0  0  0  0  0  0  0  0  0  0  0
  139.8000   69.7700  224.1590 N   0  0  0  0  0  0  0  0  0  0  0  0
  142.0720   71.4980  221.9760 H   0  0  0  0  0  0  0  0  0  0  0  0
  139.8850   72.1637  220.0002 H   0  0  0  0  0  0  0  0  0  0  0  0
  141.2194   73.3326  220.2889 H   0  0  0  0  0  0  0  0  0  0  0  0
  143.8406   73.2884  217.7481 H   0  0  0  0  0  0  0  0  0  0  0  0
  142.9635   74.0604  219.0860 H   0  0  0  0  0  0  0  0  0  0  0  0
  144.9947   74.4090  220.0774 H   0  0  0  0  0  0  0  0  0  0  0  0
  146.1800   74.1510  218.1280 H   0  0  0  0  0  0  0  0  0  0  0  0
  146.0903   71.9024  220.6500 H   0  0  0  0  0  0  0  0  0  0  0  0
  144.5845   72.2659  221.4225 H   0  0  0  0  0  0  0  0  0  0  0  0
  145.0237   70.8801  218.6597 H   0  0  0  0  0  0  0  0  0  0  0  0
  143.9008   69.9974  221.1661 H   0  0  0  0  0  0  0  0  0  0  0  0
  143.1985   69.4900  219.5377 H   0  0  0  0  0  0  0  0  0  0  0  0
  144.5779   67.0078  220.6850 H   0  0  0  0  0  0  0  0  0  0  0  0
  143.7117   67.4934  219.2058 H   0  0  0  0  0  0  0  0  0  0  0  0
  146.5434   66.4277  219.5221 H   0  0  0  0  0  0  0  0  0  0  0  0
  145.3744   66.0145  218.2861 H   0  0  0  0  0  0  0  0  0  0  0  0
  147.3756   67.8901  217.9395 H   0  0  0  0  0  0  0  0  0  0  0  0
  145.8611   67.9763  217.0400 H   0  0  0  0  0  0  0  0  0  0  0  0
  146.8525   69.6887  219.1782 H   0  0  0  0  0  0  0  0  0  0  0  0
  145.4003   69.9076  218.1479 H   0  0  0  0  0  0  0  0  0  0  0  0
  140.9957   72.8711  224.4215 H   0  0  0  0  0  0  0  0  0  0  0  0
  141.4047   72.1571  226.7601 H   0  0  0  0  0  0  0  0  0  0  0  0
  141.2530   70.4338  228.4166 H   0  0  0  0  0  0  0  0  0  0  0  0
  139.5803   66.6454  227.3501 H   0  0  0  0  0  0  0  0  0  0  0  0
  139.1844   67.3750  225.0379 H   0  0  0  0  0  0  0  0  0  0  0  0
  1  2  2  0
  2  3  1  0
  3  4  1  0
  4  5  1  0
  5  6  2  0
  5  7  1  0
  7  8  1  0
  8  9  1  0
  9 10  1  0
  9 11  1  0
 11 12  1  0
 12 13  1  0
 13 14  1  0
 14 15  1  0
 15 16  1  0
 16 17  1  0
 17 18  1  0
  2 19  1  0
 19 20  2  0
 20 21  1  0
 21 22  2  0
 22 23  1  0
 23 24  2  0
 24 25  1  0
 24 26  1  0
 26 27  2  0
 27 28  1  0
 28 29  2  0
 12  7  1  0
 18 14  1  0
 29 19  1  0
 28 22  1  0
  3 30  1  0
  4 31  1  0
  4 32  1  0
  8 33  1  0
  8 34  1  0
  9 35  1  1
 10 36  1  0
 11 37  1  0
 11 38  1  0
 12 39  1  6
 13 40  1  0
 13 41  1  0
 15 42  1  0
 15 43  1  0
 16 44  1  0
 16 45  1  0
 17 46  1  0
 17 47  1  0
 18 48  1  0
 18 49  1  0
 20 50  1  0
 21 51  1  0
 23 52  1  0
 26 53  1  0
 27 54  1  0
M  END
>  <smiles>  (47) 
O=C(NCC(=O)N1C[C@H](O)C[C@H]1CN1CCCC1)c1ccc2cc(F)ccc2n1

>  <score_type>  (47) 
oracle

>  <origin>  (47) 
autodockgpu

>  <m_score__min__energy>  (47) 
-8.9700000000000006

>  <m_primary>  (47) 
energy

>  <rmsd>  (47) 
7.097618835830405

>  <m_score__min__rmsd>  (47) 
7.097618835830405

>  <meeko>  (47) 
{"free_energy": -7.69, "intermolecular_energy": -9.78, "internal_energy": -1.32, "cluster_size": 5, "cluster_id": 2, "rank_in_cluster": 5}

>  <energy>  (47) 
-7.01

>  <cluster_rmsd>  (47) 
0.0

>  <cluster>  (47) 
6

$$$$

     RDKit          3D

 54 57  0  0  0  0  0  0  0  0999 V2000
  140.4720   71.1930  221.4080 O   0  0  0  0  0  0  0  0  0  0  0  0
  140.0700   71.6640  222.5100 C   0  0  0  0  0  0  0  0  0  0  0  0
  139.6060   73.0270  222.5820 N   0  0  0  0  0  0  0  0  0  0  0  0
  139.6180   73.8130  221.3650 C   0  0  0  0  0  0  0  0  0  0  0  0
  139.9830   75.2370  221.6880 C   0  0  0  0  0  0  0  0  0  0  0  0
  139.2540   75.8910  222.4720 O   0  0  0  0  0  0  0  0  0  0  0  0
  141.1490   75.7360  221.0650 N   0  0  0  0  0  0  0  0  0  0  0  0
  142.2790   75.0020  220.4930 C   0  0  0  0  0  0  0  0  0  0  0  0
  142.8190   75.8410  219.3890 C   0  0  2  0  0  0  0  0  0  0  0  0
  144.0660   76.4000  219.7420 O   0  0  0  0  0  0  0  0  0  0  0  0
  141.8460   77.0340  219.3580 C   0  0  0  0  0  0  0  0  0  0  0  0
  141.5300   77.1520  220.8290 C   0  0  1  0  0  0  0  0  0  0  0  0
  140.4310   78.0660  221.1900 C   0  0  0  0  0  0  0  0  0  0  0  0
  140.7440   79.0560  222.1780 N   0  0  0  0  0  0  0  0  0  0  0  0
  141.3590   78.6430  223.3690 C   0  0  0  0  0  0  0  0  0  0  0  0
  142.2210   79.7920  223.8580 C   0  0  0  0  0  0  0  0  0  0  0  0
  142.6410   80.4570  222.5900 C   0  0  0  0  0  0  0  0  0  0  0  0
  141.6210   80.0520  221.5870 C   0  0  0  0  0  0  0  0  0  0  0  0
  140.0530   70.8810  223.7420 C   0  0  0  0  0  0  0  0  0  0  0  0
  139.5350   69.5950  223.6630 C   0  0  0  0  0  0  0  0  0  0  0  0
  139.4650   68.7530  224.7490 C   0  0  0  0  0  0  0  0  0  0  0  0
  139.9440   69.2410  225.9620 C   0  0  0  0  0  0  0  0  0  0  0  0
  139.8920   68.4280  227.0650 C   0  0  0  0  0  0  0  0  0  0  0  0
  140.3660   68.9170  228.2580 C   0  0  0  0  0  0  0  0  0  0  0  0
  140.3290   68.1470  229.3530 F   0  0  0  0  0  0  0  0  0  0  0  0
  140.8740   70.1980  228.3000 C   0  0  0  0  0  0  0  0  0  0  0  0
  140.9390   71.0270  227.2150 C   0  0  0  0  0  0  0  0  0  0  0  0
  140.4610   70.5370  226.0090 C   0  0  0  0  0  0  0  0  0  0  0  0
  140.5050   71.3220  224.9180 N   0  0  0  0  0  0  0  0  0  0  0  0
  139.2700   73.4450  223.4720 H   0  0  0  0  0  0  0  0  0  0  0  0
  140.3576   73.3949  220.6663 H   0  0  0  0  0  0  0  0  0  0  0  0
  138.6199   73.7872  220.9033 H   0  0  0  0  0  0  0  0  0  0  0  0
  143.0520   74.8394  221.2585 H   0  0  0  0  0  0  0  0  0  0  0  0
  141.9633   74.0156  220.1223 H   0  0  0  0  0  0  0  0  0  0  0  0
  142.9253   75.2610  218.4604 H   0  0  0  0  0  0  0  0  0  0  0  0
  143.9870   77.2910  220.1400 H   0  0  0  0  0  0  0  0  0  0  0  0
  142.3274   77.9436  218.9695 H   0  0  0  0  0  0  0  0  0  0  0  0
  140.9707   76.9014  218.7051 H   0  0  0  0  0  0  0  0  0  0  0  0
  142.3525   77.5792  221.4215 H   0  0  0  0  0  0  0  0  0  0  0  0
  140.1130   78.5894  220.2763 H   0  0  0  0  0  0  0  0  0  0  0  0
  139.6500   77.4333  221.6370 H   0  0  0  0  0  0  0  0  0  0  0  0
  140.5947   78.3997  224.1218 H   0  0  0  0  0  0  0  0  0  0  0  0
  141.9704   77.7446  223.1986 H   0  0  0  0  0  0  0  0  0  0  0  0
  141.6418   80.4792  224.4922 H   0  0  0  0  0  0  0  0  0  0  0  0
  143.0685   79.4656  224.4786 H   0  0  0  0  0  0  0  0  0  0  0  0
  142.6509   81.5502  222.7116 H   0  0  0  0  0  0  0  0  0  0  0  0
  143.6573   80.1647  222.2871 H   0  0  0  0  0  0  0  0  0  0  0  0
  141.0311   80.9303  221.2859 H   0  0  0  0  0  0  0  0  0  0  0  0
  142.1186   79.6297  220.7015 H   0  0  0  0  0  0  0  0  0  0  0  0
  139.1653   69.2344  222.6918 H   0  0  0  0  0  0  0  0  0  0  0  0
  139.0487   67.7385  224.6627 H   0  0  0  0  0  0  0  0  0  0  0  0
  139.4811   67.4099  226.9963 H   0  0  0  0  0  0  0  0  0  0  0  0
  141.2489   70.5750  229.2629 H   0  0  0  0  0  0  0  0  0  0  0  0
  141.3540   72.0425  227.2954 H   0  0  0  0  0  0  0  0  0  0  0  0
  1  2  2  0
  2  3  1  0
  3  4  1  0
  4  5  1  0
  5  6  2  0
  5  7  1  0
  7  8  1  0
  8  9  1  0
  9 10  1  0
  9 11  1  0
 11 12  1  0
 12 13  1  0
 13 14  1  0
 14 15  1  0
 15 16  1  0
 16 17  1  0
 17 18  1  0
  2 19  1  0
 19 20  2  0
 20 21  1  0
 21 22  2  0
 22 23  1  0
 23 24  2  0
 24 25  1  0
 24 26  1  0
 26 27  2  0
 27 28  1  0
 28 29  2  0
 12  7  1  0
 18 14  1  0
 29 19  1  0
 28 22  1  0
  3 30  1  0
  4 31  1  0
  4 32  1  0
  8 33  1  0
  8 34  1  0
  9 35  1  6
 10 36  1  0
 11 37  1  0
 11 38  1  0
 12 39  1  1
 13 40  1  0
 13 41  1  0
 15 42  1  0
 15 43  1  0
 16 44  1  0
 16 45  1  0
 17 46  1  0
 17 47  1  0
 18 48  1  0
 18 49  1  0
 20 50  1  0
 21 51  1  0
 23 52  1  0
 26 53  1  0
 27 54  1  0
M  END
>  <smiles>  (48) 
O=C(NCC(=O)N1C[C@H](O)C[C@H]1CN1CCCC1)c1ccc2cc(F)ccc2n1

>  <score_type>  (48) 
oracle

>  <origin>  (48) 
autodockgpu

>  <m_score__min__energy>  (48) 
-8.9700000000000006

>  <m_primary>  (48) 
energy

>  <rmsd>  (48) 
1.910732219572226

>  <m_score__min__rmsd>  (48) 
1.910732219572226

>  <meeko>  (48) 
{"free_energy": -8.64, "intermolecular_energy": -10.73, "internal_energy": -1.48, "cluster_size": 33, "cluster_id": 1, "rank_in_cluster": 10}

>  <energy>  (48) 
-5.63

>  <cluster_rmsd>  (48) 
0.0

>  <cluster>  (48) 
7

$$$$

     RDKit          3D

 54 57  0  0  0  0  0  0  0  0999 V2000
  139.9330   70.9450  221.4650 O   0  0  0  0  0  0  0  0  0  0  0  0
  139.9100   71.4820  222.6100 C   0  0  0  0  0  0  0  0  0  0  0  0
  139.8640   72.9180  222.7280 N   0  0  0  0  0  0  0  0  0  0  0  0
  139.8430   73.7000  221.5080 C   0  0  0  0  0  0  0  0  0  0  0  0
  140.1100   75.1450  221.8310 C   0  0  0  0  0  0  0  0  0  0  0  0
  139.4340   75.7050  222.7260 O   0  0  0  0  0  0  0  0  0  0  0  0
  141.1290   75.7720  221.0770 N   0  0  0  0  0  0  0  0  0  0  0  0
  142.2080   75.1650  220.2960 C   0  0  0  0  0  0  0  0  0  0  0  0
  142.5130   76.1070  219.1850 C   0  0  2  0  0  0  0  0  0  0  0  0
  143.7550   76.7440  219.3860 O   0  0  0  0  0  0  0  0  0  0  0  0
  141.4620   77.2160  219.3790 C   0  0  0  0  0  0  0  0  0  0  0  0
  141.3670   77.2250  220.8850 C   0  0  1  0  0  0  0  0  0  0  0  0
  140.2730   78.0250  221.4660 C   0  0  0  0  0  0  0  0  0  0  0  0
  140.6730   79.0600  222.3720 N   0  0  0  0  0  0  0  0  0  0  0  0
  141.4390   78.7090  223.4950 C   0  0  0  0  0  0  0  0  0  0  0  0
  142.3180   79.8970  223.8350 C   0  0  0  0  0  0  0  0  0  0  0  0
  142.5650   80.5230  222.5030 C   0  0  0  0  0  0  0  0  0  0  0  0
  141.4440   80.0530  221.6460 C   0  0  0  0  0  0  0  0  0  0  0  0
  139.9300   70.7050  223.8450 C   0  0  0  0  0  0  0  0  0  0  0  0
  139.3420   69.4480  223.8070 C   0  0  0  0  0  0  0  0  0  0  0  0
  139.2970   68.6140  224.9000 C   0  0  0  0  0  0  0  0  0  0  0  0
  139.8760   69.0800  226.0770 C   0  0  0  0  0  0  0  0  0  0  0  0
  139.8510   68.2750  227.1870 C   0  0  0  0  0  0  0  0  0  0  0  0
  140.4240   68.7410  228.3450 C   0  0  0  0  0  0  0  0  0  0  0  0
  140.4160   67.9780  229.4440 F   0  0  0  0  0  0  0  0  0  0  0  0
  141.0000   69.9940  228.3470 C   0  0  0  0  0  0  0  0  0  0  0  0
  141.0390   70.8150  227.2550 C   0  0  0  0  0  0  0  0  0  0  0  0
  140.4610   70.3470  226.0840 C   0  0  0  0  0  0  0  0  0  0  0  0
  140.4780   71.1260  224.9870 N   0  0  0  0  0  0  0  0  0  0  0  0
  139.8450   73.3910  223.6530 H   0  0  0  0  0  0  0  0  0  0  0  0
  140.6184   73.3288  220.8217 H   0  0  0  0  0  0  0  0  0  0  0  0
  138.8557   73.6082  221.0318 H   0  0  0  0  0  0  0  0  0  0  0  0
  143.0979   75.0213  220.9264 H   0  0  0  0  0  0  0  0  0  0  0  0
  141.9104   74.1793  219.9089 H   0  0  0  0  0  0  0  0  0  0  0  0
  142.5193   75.5913  218.2134 H   0  0  0  0  0  0  0  0  0  0  0  0
  143.7340   77.4020  220.1110 H   0  0  0  0  0  0  0  0  0  0  0  0
  141.8107   78.1824  218.9860 H   0  0  0  0  0  0  0  0  0  0  0  0
  140.5093   77.0487  218.8553 H   0  0  0  0  0  0  0  0  0  0  0  0
  142.2374   77.6834  221.3773 H   0  0  0  0  0  0  0  0  0  0  0  0
  139.7217   78.4950  220.6383 H   0  0  0  0  0  0  0  0  0  0  0  0
  139.6712   77.3222  222.0609 H   0  0  0  0  0  0  0  0  0  0  0  0
  140.7780   78.4757  224.3428 H   0  0  0  0  0  0  0  0  0  0  0  0
  142.0522   77.8205  223.2840 H   0  0  0  0  0  0  0  0  0  0  0  0
  141.7980   80.5936  224.5091 H   0  0  0  0  0  0  0  0  0  0  0  0
  143.2427   79.6162  224.3605 H   0  0  0  0  0  0  0  0  0  0  0  0
  142.5571   81.6200  222.5834 H   0  0  0  0  0  0  0  0  0  0  0  0
  143.5463   80.2457  222.0905 H   0  0  0  0  0  0  0  0  0  0  0  0
  140.7970   80.9040  221.3869 H   0  0  0  0  0  0  0  0  0  0  0  0
  141.8451   79.6079  220.7235 H   0  0  0  0  0  0  0  0  0  0  0  0
  138.8932   69.1045  222.8633 H   0  0  0  0  0  0  0  0  0  0  0  0
  138.8242   67.6223  224.8463 H   0  0  0  0  0  0  0  0  0  0  0  0
  139.3833   67.2800  227.1508 H   0  0  0  0  0  0  0  0  0  0  0  0
  141.4545   70.3536  229.2819 H   0  0  0  0  0  0  0  0  0  0  0  0
  141.5102   71.8078  227.3028 H   0  0  0  0  0  0  0  0  0  0  0  0
  1  2  2  0
  2  3  1  0
  3  4  1  0
  4  5  1  0
  5  6  2  0
  5  7  1  0
  7  8  1  0
  8  9  1  0
  9 10  1  0
  9 11  1  0
 11 12  1  0
 12 13  1  0
 13 14  1  0
 14 15  1  0
 15 16  1  0
 16 17  1  0
 17 18  1  0
  2 19  1  0
 19 20  2  0
 20 21  1  0
 21 22  2  0
 22 23  1  0
 23 24  2  0
 24 25  1  0
 24 26  1  0
 26 27  2  0
 27 28  1  0
 28 29  2  0
 12  7  1  0
 18 14  1  0
 29 19  1  0
 28 22  1  0
  3 30  1  0
  4 31  1  0
  4 32  1  0
  8 33  1  0
  8 34  1  0
  9 35  1  6
 10 36  1  0
 11 37  1  0
 11 38  1  0
 12 39  1  1
 13 40  1  0
 13 41  1  0
 15 42  1  0
 15 43  1  0
 16 44  1  0
 16 45  1  0
 17 46  1  0
 17 47  1  0
 18 48  1  0
 18 49  1  0
 20 50  1  0
 21 51  1  0
 23 52  1  0
 26 53  1  0
 27 54  1  0
M  END
>  <smiles>  (49) 
O=C(NCC(=O)N1C[C@H](O)C[C@H]1CN1CCCC1)c1ccc2cc(F)ccc2n1

>  <score_type>  (49) 
oracle

>  <origin>  (49) 
autodockgpu

>  <m_score__min__energy>  (49) 
-8.9700000000000006

>  <m_primary>  (49) 
energy

>  <rmsd>  (49) 
1.8744951138554227

>  <m_score__min__rmsd>  (49) 
1.8744951138554227

>  <meeko>  (49) 
{"free_energy": -8.55, "intermolecular_energy": -10.64, "internal_energy": -1.56, "cluster_size": 33, "cluster_id": 1, "rank_in_cluster": 14}

>  <energy>  (49) 
-5.55

>  <cluster_rmsd>  (49) 
0.0

>  <cluster>  (49) 
8

$$$$

     RDKit          3D

 54 57  0  0  0  0  0  0  0  0999 V2000
  141.0100   71.9380  221.1730 O   0  0  0  0  0  0  0  0  0  0  0  0
  140.4690   72.3830  222.2260 C   0  0  0  0  0  0  0  0  0  0  0  0
  140.0270   73.7540  222.2810 N   0  0  0  0  0  0  0  0  0  0  0  0
  140.2220   74.5780  221.1060 C   0  0  0  0  0  0  0  0  0  0  0  0
  140.7690   75.9190  221.5160 C   0  0  0  0  0  0  0  0  0  0  0  0
  140.6210   76.3020  222.7000 O   0  0  0  0  0  0  0  0  0  0  0  0
  141.4240   76.6580  220.5040 N   0  0  0  0  0  0  0  0  0  0  0  0
  142.3470   76.1920  219.4680 C   0  0  0  0  0  0  0  0  0  0  0  0
  142.1740   77.1000  218.3010 C   0  0  2  0  0  0  0  0  0  0  0  0
  143.2920   77.9470  218.1480 O   0  0  0  0  0  0  0  0  0  0  0  0
  141.0330   78.0280  218.7570 C   0  0  0  0  0  0  0  0  0  0  0  0
  141.3410   78.1160  220.2320 C   0  0  1  0  0  0  0  0  0  0  0  0
  140.3160   78.7570  221.0760 C   0  0  0  0  0  0  0  0  0  0  0  0
  140.8070   79.6700  222.0650 N   0  0  0  0  0  0  0  0  0  0  0  0
  141.0690   79.1840  223.3550 C   0  0  0  0  0  0  0  0  0  0  0  0
  142.1940   80.0190  223.9350 C   0  0  0  0  0  0  0  0  0  0  0  0
  142.9920   80.3910  222.7300 C   0  0  0  0  0  0  0  0  0  0  0  0
  142.0460   80.2600  221.5900 C   0  0  0  0  0  0  0  0  0  0  0  0
  140.2670   71.5620  223.4150 C   0  0  0  0  0  0  0  0  0  0  0  0
  139.5900   70.3610  223.2430 C   0  0  0  0  0  0  0  0  0  0  0  0
  139.3380   69.4940  224.2810 C   0  0  0  0  0  0  0  0  0  0  0  0
  139.7950   69.8650  225.5430 C   0  0  0  0  0  0  0  0  0  0  0  0
  139.5620   69.0240  226.6010 C   0  0  0  0  0  0  0  0  0  0  0  0
  140.0150   69.3970  227.8420 C   0  0  0  0  0  0  0  0  0  0  0  0
  139.8040   68.5960  228.8940 F   0  0  0  0  0  0  0  0  0  0  0  0
  140.6840   70.5960  227.9770 C   0  0  0  0  0  0  0  0  0  0  0  0
  140.9290   71.4500  226.9390 C   0  0  0  0  0  0  0  0  0  0  0  0
  140.4730   71.0770  225.6840 C   0  0  0  0  0  0  0  0  0  0  0  0
  140.6940   71.8910  224.6360 N   0  0  0  0  0  0  0  0  0  0  0  0
  139.5790   74.1510  223.1310 H   0  0  0  0  0  0  0  0  0  0  0  0
  140.9327   74.0847  220.4266 H   0  0  0  0  0  0  0  0  0  0  0  0
  139.2590   74.7172  220.5930 H   0  0  0  0  0  0  0  0  0  0  0  0
  143.3831   76.2388  219.8344 H   0  0  0  0  0  0  0  0  0  0  0  0
  142.1372   75.1482  219.1916 H   0  0  0  0  0  0  0  0  0  0  0  0
  142.0138   76.5330  217.3721 H   0  0  0  0  0  0  0  0  0  0  0  0
  143.3270   78.3790  217.2700 H   0  0  0  0  0  0  0  0  0  0  0  0
  141.0876   79.0123  218.2691 H   0  0  0  0  0  0  0  0  0  0  0  0
  140.0209   77.6714  218.5153 H   0  0  0  0  0  0  0  0  0  0  0  0
  142.2151   78.7431  220.4617 H   0  0  0  0  0  0  0  0  0  0  0  0
  139.6320   79.3101  220.4155 H   0  0  0  0  0  0  0  0  0  0  0  0
  139.8345   77.9408  221.6345 H   0  0  0  0  0  0  0  0  0  0  0  0
  140.1698   79.2775  223.9817 H   0  0  0  0  0  0  0  0  0  0  0  0
  141.3526   78.1218  223.3194 H   0  0  0  0  0  0  0  0  0  0  0  0
  141.8020   80.9135  224.4411 H   0  0  0  0  0  0  0  0  0  0  0  0
  142.7819   79.4852  224.6962 H   0  0  0  0  0  0  0  0  0  0  0  0
  143.3583   81.4250  222.8123 H   0  0  0  0  0  0  0  0  0  0  0  0
  143.8795   79.7527  222.6075 H   0  0  0  0  0  0  0  0  0  0  0  0
  141.8414   81.2538  221.1652 H   0  0  0  0  0  0  0  0  0  0  0  0
  142.4881   79.6180  220.8139 H   0  0  0  0  0  0  0  0  0  0  0  0
  139.2410   70.0922  222.2350 H   0  0  0  0  0  0  0  0  0  0  0  0
  138.7988   68.5486  224.1210 H   0  0  0  0  0  0  0  0  0  0  0  0
  139.0255   68.0743  226.4587 H   0  0  0  0  0  0  0  0  0  0  0  0
  141.0407   70.8808  228.9778 H   0  0  0  0  0  0  0  0  0  0  0  0
  141.4672   72.3969  227.0931 H   0  0  0  0  0  0  0  0  0  0  0  0
  1  2  2  0
  2  3  1  0
  3  4  1  0
  4  5  1  0
  5  6  2  0
  5  7  1  0
  7  8  1  0
  8  9  1  0
  9 10  1  0
  9 11  1  0
 11 12  1  0
 12 13  1  0
 13 14  1  0
 14 15  1  0
 15 16  1  0
 16 17  1  0
 17 18  1  0
  2 19  1  0
 19 20  2  0
 20 21  1  0
 21 22  2  0
 22 23  1  0
 23 24  2  0
 24 25  1  0
 24 26  1  0
 26 27  2  0
 27 28  1  0
 28 29  2  0
 12  7  1  0
 18 14  1  0
 29 19  1  0
 28 22  1  0
  3 30  1  0
  4 31  1  0
  4 32  1  0
  8 33  1  0
  8 34  1  0
  9 35  1  6
 10 36  1  0
 11 37  1  0
 11 38  1  0
 12 39  1  6
 13 40  1  0
 13 41  1  0
 15 42  1  0
 15 43  1  0
 16 44  1  0
 16 45  1  0
 17 46  1  0
 17 47  1  0
 18 48  1  0
 18 49  1  0
 20 50  1  0
 21 51  1  0
 23 52  1  0
 26 53  1  0
 27 54  1  0
M  END
>  <smiles>  (50) 
O=C(NCC(=O)N1C[C@H](O)C[C@H]1CN1CCCC1)c1ccc2cc(F)ccc2n1

>  <score_type>  (50) 
oracle

>  <origin>  (50) 
autodockgpu

>  <m_score__min__energy>  (50) 
-8.9700000000000006

>  <m_primary>  (50) 
energy

>  <rmsd>  (50) 
2.0157652954669065

>  <m_score__min__rmsd>  (50) 
2.0157652954669065

>  <meeko>  (50) 
{"free_energy": -7.92, "intermolecular_energy": -10.01, "internal_energy": -1.72, "cluster_size": 33, "cluster_id": 1, "rank_in_cluster": 27}

>  <energy>  (50) 
-5.54

>  <cluster_rmsd>  (50) 
0.0

>  <cluster>  (50) 
9

$$$$
