
     RDKit          3D

 50 52  0  0  0  0  0  0  0  0999 V2000
  139.7560   72.6170  222.8210 C   0  0  0  0  0  0  0  0  0  0  0  0
  140.2240   71.2080  223.0990 C   0  0  0  0  0  0  0  0  0  0  0  0
  140.0040   70.3980  221.8370 C   0  0  0  0  0  0  0  0  0  0  0  0
  139.5000   70.5540  224.2190 C   0  0  2  0  0  0  0  0  0  0  0  0
  138.0790   70.8010  224.1920 N   0  0  0  0  0  0  0  0  0  0  0  0
  137.1420   69.7440  224.2850 C   0  0  0  0  0  0  0  0  0  0  0  0
  137.5690   68.5490  224.3990 O   0  0  0  0  0  0  0  0  0  0  0  0
  135.6740   69.9140  224.2630 C   0  0  0  0  0  0  0  0  0  0  0  0
  135.1830   71.1300  224.8210 N   0  0  0  0  0  0  0  0  0  0  0  0
  135.4440   72.4200  224.2330 C   0  0  0  0  0  0  0  0  0  0  0  0
  136.1240   72.5460  223.1770 O   0  0  0  0  0  0  0  0  0  0  0  0
  134.9040   73.6350  224.8800 C   0  0  0  0  0  0  0  0  0  0  0  0
  135.4170   74.8610  224.5690 C   0  0  0  0  0  0  0  0  0  0  0  0
  134.9270   76.0060  225.1620 C   0  0  0  0  0  0  0  0  0  0  0  0
  133.9070   75.8870  226.0740 C   0  0  0  0  0  0  0  0  0  0  0  0
  133.3800   76.9890  226.6950 C   0  0  0  0  0  0  0  0  0  0  0  0
  132.3580   76.8670  227.6090 C   0  0  0  0  0  0  0  0  0  0  0  0
  131.7320   78.3270  228.3640 Cl  0  0  0  0  0  0  0  0  0  0  0  0
  131.8160   75.6360  227.9440 C   0  0  0  0  0  0  0  0  0  0  0  0
  132.3610   74.5290  227.3070 C   0  0  0  0  0  0  0  0  0  0  0  0
  133.3900   74.6430  226.3860 C   0  0  0  0  0  0  0  0  0  0  0  0
  133.8940   73.5430  225.7870 N   0  0  0  0  0  0  0  0  0  0  0  0
  140.0250   70.8730  225.5540 C   0  0  0  0  0  0  0  0  0  0  0  0
  139.6350   70.0900  226.6440 C   0  0  0  0  0  0  0  0  0  0  0  0
  140.1240   70.3810  227.9000 C   0  0  0  0  0  0  0  0  0  0  0  0
  140.9910   71.4340  228.0990 C   0  0  0  0  0  0  0  0  0  0  0  0
  141.3930   72.2260  227.0370 C   0  0  0  0  0  0  0  0  0  0  0  0
  140.8960   71.9210  225.7870 C   0  0  0  0  0  0  0  0  0  0  0  0
  139.5822   73.1402  223.7729 H   0  0  0  0  0  0  0  0  0  0  0  0
  140.5248   73.1516  222.2438 H   0  0  0  0  0  0  0  0  0  0  0  0
  138.8201   72.5853  222.2438 H   0  0  0  0  0  0  0  0  0  0  0  0
  141.2826   71.2551  223.3941 H   0  0  0  0  0  0  0  0  0  0  0  0
  139.7244   69.3687  222.1060 H   0  0  0  0  0  0  0  0  0  0  0  0
  139.1972   70.8541  221.2445 H   0  0  0  0  0  0  0  0  0  0  0  0
  140.9307   70.3833  221.2445 H   0  0  0  0  0  0  0  0  0  0  0  0
  139.6814   69.4833  224.0436 H   0  0  0  0  0  0  0  0  0  0  0  0
  137.7660   71.7900  224.1100 H   0  0  0  0  0  0  0  0  0  0  0  0
  135.3442   69.8661  223.2147 H   0  0  0  0  0  0  0  0  0  0  0  0
  135.2701   69.1099  224.8957 H   0  0  0  0  0  0  0  0  0  0  0  0
  134.5940   71.1630  225.7050 H   0  0  0  0  0  0  0  0  0  0  0  0
  136.2328   74.9371  223.8350 H   0  0  0  0  0  0  0  0  0  0  0  0
  135.3439   76.9923  224.9101 H   0  0  0  0  0  0  0  0  0  0  0  0
  133.7798   77.9864  226.4595 H   0  0  0  0  0  0  0  0  0  0  0  0
  130.9990   75.5412  228.6744 H   0  0  0  0  0  0  0  0  0  0  0  0
  131.9634   73.5304  227.5408 H   0  0  0  0  0  0  0  0  0  0  0  0
  138.9426   69.2473  226.5009 H   0  0  0  0  0  0  0  0  0  0  0  0
  139.8173   69.7630  228.7568 H   0  0  0  0  0  0  0  0  0  0  0  0
  141.3668   71.6469  229.1106 H   0  0  0  0  0  0  0  0  0  0  0  0
  142.0843   73.0687  227.1848 H   0  0  0  0  0  0  0  0  0  0  0  0
  141.2078   72.5418  224.9341 H   0  0  0  0  0  0  0  0  0  0  0  0
  1  2  1  0
  2  3  1  0
  2  4  1  0
  4  5  1  0
  5  6  1  0
  6  7  2  0
  6  8  1  0
  8  9  1  0
  9 10  1  0
 10 11  2  0
 10 12  1  0
 12 13  2  0
 13 14  1  0
 14 15  2  0
 15 16  1  0
 16 17  2  0
 17 18  1  0
 17 19  1  0
 19 20  2  0
 20 21  1  0
 21 22  2  0
  4 23  1  0
 23 24  2  0
 24 25  1  0
 25 26  2  0
 26 27  1  0
 27 28  2  0
 22 12  1  0
 28 23  1  0
 21 15  1  0
  1 29  1  0
  1 30  1  0
  1 31  1  0
  2 32  1  0
  3 33  1  0
  3 34  1  0
  3 35  1  0
  4 36  1  6
  5 37  1  0
  8 38  1  0
  8 39  1  0
  9 40  1  0
 13 41  1  0
 14 42  1  0
 16 43  1  0
 19 44  1  0
 20 45  1  0
 24 46  1  0
 25 47  1  0
 26 48  1  0
 27 49  1  0
 28 50  1  0
M  END
>  <smiles>  (1) 
CC(C)[C@H](NC(=O)CNC(=O)c1ccc2cc(Cl)ccc2n1)c1ccccc1

>  <score_type>  (1) 
oracle

>  <origin>  (1) 
autodockgpu

>  <m_score__min__energy>  (1) 
-8.7699999999999996

>  <m_primary>  (1) 
energy

>  <rmsd>  (1) 
9.74612632325453

>  <m_score__min__rmsd>  (1) 
9.74612632325453

>  <meeko>  (1) 
{"free_energy": -7.51, "intermolecular_energy": -9.3, "internal_energy": -2.43, "cluster_size": 8, "cluster_id": 2, "rank_in_cluster": 6}

>  <energy>  (1) 
-8.77

>  <cluster_rmsd>  (1) 
0.0

>  <cluster>  (1) 
1

$$$$

     RDKit          3D

 50 52  0  0  0  0  0  0  0  0999 V2000
  141.7680   77.1300  220.2030 C   0  0  0  0  0  0  0  0  0  0  0  0
  142.8570   76.4400  219.4170 C   0  0  0  0  0  0  0  0  0  0  0  0
  142.8700   77.0460  218.0290 C   0  0  0  0  0  0  0  0  0  0  0  0
  142.6620   74.9730  219.2970 C   0  0  2  0  0  0  0  0  0  0  0  0
  141.4400   74.5150  219.9120 N   0  0  0  0  0  0  0  0  0  0  0  0
  140.4030   73.9250  219.1490 C   0  0  0  0  0  0  0  0  0  0  0  0
  140.5610   73.7950  217.8910 O   0  0  0  0  0  0  0  0  0  0  0  0
  139.1250   73.4330  219.7020 C   0  0  0  0  0  0  0  0  0  0  0  0
  139.2310   72.5300  220.7990 N   0  0  0  0  0  0  0  0  0  0  0  0
  139.7850   72.9110  222.0740 C   0  0  0  0  0  0  0  0  0  0  0  0
  140.2070   74.0800  222.2940 O   0  0  0  0  0  0  0  0  0  0  0  0
  139.8660   71.9100  223.1580 C   0  0  0  0  0  0  0  0  0  0  0  0
  139.4490   70.6280  222.9400 C   0  0  0  0  0  0  0  0  0  0  0  0
  139.5170   69.6800  223.9390 C   0  0  0  0  0  0  0  0  0  0  0  0
  140.0160   70.0520  225.1630 C   0  0  0  0  0  0  0  0  0  0  0  0
  140.1070   69.1530  226.1930 C   0  0  0  0  0  0  0  0  0  0  0  0
  140.6080   69.5280  227.4200 C   0  0  0  0  0  0  0  0  0  0  0  0
  140.6960   68.3180  228.6930 Cl  0  0  0  0  0  0  0  0  0  0  0  0
  141.0410   70.8210  227.6720 C   0  0  0  0  0  0  0  0  0  0  0  0
  140.9410   71.7200  226.6180 C   0  0  0  0  0  0  0  0  0  0  0  0
  140.4380   71.3510  225.3800 C   0  0  0  0  0  0  0  0  0  0  0  0
  140.3570   72.2540  224.3800 N   0  0  0  0  0  0  0  0  0  0  0  0
  143.7870   74.1650  219.7880 C   0  0  0  0  0  0  0  0  0  0  0  0
  144.8240   74.7940  220.4840 C   0  0  0  0  0  0  0  0  0  0  0  0
  145.8830   74.0450  220.9490 C   0  0  0  0  0  0  0  0  0  0  0  0
  145.9380   72.6840  220.7380 C   0  0  0  0  0  0  0  0  0  0  0  0
  144.9270   72.0360  220.0510 C   0  0  0  0  0  0  0  0  0  0  0  0
  143.8730   72.8000  219.5930 C   0  0  0  0  0  0  0  0  0  0  0  0
  141.9596   77.0086  221.2794 H   0  0  0  0  0  0  0  0  0  0  0  0
  141.7562   78.2007  219.9511 H   0  0  0  0  0  0  0  0  0  0  0  0
  140.7948   76.6834  219.9511 H   0  0  0  0  0  0  0  0  0  0  0  0
  143.8062   76.5873  219.9531 H   0  0  0  0  0  0  0  0  0  0  0  0
  142.8935   78.1429  218.1080 H   0  0  0  0  0  0  0  0  0  0  0  0
  143.7609   76.6983  217.4855 H   0  0  0  0  0  0  0  0  0  0  0  0
  141.9650   76.7369  217.4855 H   0  0  0  0  0  0  0  0  0  0  0  0
  142.5976   74.8170  218.2100 H   0  0  0  0  0  0  0  0  0  0  0  0
  141.3510   74.6270  220.9430 H   0  0  0  0  0  0  0  0  0  0  0  0
  138.5444   74.3050  220.0375 H   0  0  0  0  0  0  0  0  0  0  0  0
  138.6480   72.8632  218.8909 H   0  0  0  0  0  0  0  0  0  0  0  0
  138.9080   71.5180  220.7470 H   0  0  0  0  0  0  0  0  0  0  0  0
  139.0530   70.3475  221.9528 H   0  0  0  0  0  0  0  0  0  0  0  0
  139.1790   68.6487  223.7594 H   0  0  0  0  0  0  0  0  0  0  0  0
  139.7748   68.1159  226.0376 H   0  0  0  0  0  0  0  0  0  0  0  0
  141.4415   71.1183  228.6524 H   0  0  0  0  0  0  0  0  0  0  0  0
  141.2715   72.7580  226.7705 H   0  0  0  0  0  0  0  0  0  0  0  0
  144.7945   75.8796  220.6591 H   0  0  0  0  0  0  0  0  0  0  0  0
  146.6974   74.5411  221.4973 H   0  0  0  0  0  0  0  0  0  0  0  0
  146.7938   72.1077  221.1194 H   0  0  0  0  0  0  0  0  0  0  0  0
  144.9621   70.9506  219.8761 H   0  0  0  0  0  0  0  0  0  0  0  0
  143.0616   72.2976  219.0459 H   0  0  0  0  0  0  0  0  0  0  0  0
  1  2  1  0
  2  3  1  0
  2  4  1  0
  4  5  1  0
  5  6  1  0
  6  7  2  0
  6  8  1  0
  8  9  1  0
  9 10  1  0
 10 11  2  0
 10 12  1  0
 12 13  2  0
 13 14  1  0
 14 15  2  0
 15 16  1  0
 16 17  2  0
 17 18  1  0
 17 19  1  0
 19 20  2  0
 20 21  1  0
 21 22  2  0
  4 23  1  0
 23 24  2  0
 24 25  1  0
 25 26  2  0
 26 27  1  0
 27 28  2  0
 22 12  1  0
 28 23  1  0
 21 15  1  0
  1 29  1  0
  1 30  1  0
  1 31  1  0
  2 32  1  0
  3 33  1  0
  3 34  1  0
  3 35  1  0
  4 36  1  6
  5 37  1  0
  8 38  1  0
  8 39  1  0
  9 40  1  0
 13 41  1  0
 14 42  1  0
 16 43  1  0
 19 44  1  0
 20 45  1  0
 24 46  1  0
 25 47  1  0
 26 48  1  0
 27 49  1  0
 28 50  1  0
M  END
>  <smiles>  (2) 
CC(C)[C@H](NC(=O)CNC(=O)c1ccc2cc(Cl)ccc2n1)c1ccccc1

>  <score_type>  (2) 
oracle

>  <origin>  (2) 
autodockgpu

>  <m_score__min__energy>  (2) 
-8.7699999999999996

>  <m_primary>  (2) 
energy

>  <rmsd>  (2) 
6.541389394390464

>  <m_score__min__rmsd>  (2) 
6.541389394390464

>  <meeko>  (2) 
{"free_energy": -7.99, "intermolecular_energy": -9.78, "internal_energy": -2.13, "cluster_size": 12, "cluster_id": 4, "rank_in_cluster": 5}

>  <energy>  (2) 
-8.7

>  <cluster_rmsd>  (2) 
0.26

>  <cluster>  (2) 
1

$$$$

     RDKit          3D

 50 52  0  0  0  0  0  0  0  0999 V2000
  137.6070   76.6890  222.5720 C   0  0  0  0  0  0  0  0  0  0  0  0
  138.4260   77.9560  222.6410 C   0  0  0  0  0  0  0  0  0  0  0  0
  137.5360   79.0980  222.1990 C   0  0  0  0  0  0  0  0  0  0  0  0
  139.6340   77.9270  221.7760 C   0  0  2  0  0  0  0  0  0  0  0  0
  140.1710   76.6000  221.6030 N   0  0  0  0  0  0  0  0  0  0  0  0
  141.1030   76.3070  220.5780 C   0  0  0  0  0  0  0  0  0  0  0  0
  141.4740   77.2420  219.7960 O   0  0  0  0  0  0  0  0  0  0  0  0
  141.6970   74.9760  220.3340 C   0  0  0  0  0  0  0  0  0  0  0  0
  141.3730   73.9690  221.2890 N   0  0  0  0  0  0  0  0  0  0  0  0
  140.0170   73.6270  221.6340 C   0  0  0  0  0  0  0  0  0  0  0  0
  139.0280   74.2030  221.1000 O   0  0  0  0  0  0  0  0  0  0  0  0
  139.7670   72.5750  222.6420 C   0  0  0  0  0  0  0  0  0  0  0  0
  138.5990   71.8680  222.6190 C   0  0  0  0  0  0  0  0  0  0  0  0
  138.3490   70.8820  223.5510 C   0  0  0  0  0  0  0  0  0  0  0  0
  139.3020   70.6250  224.5060 C   0  0  0  0  0  0  0  0  0  0  0  0
  139.1080   69.6580  225.4570 C   0  0  0  0  0  0  0  0  0  0  0  0
  140.0640   69.4010  226.4140 C   0  0  0  0  0  0  0  0  0  0  0  0
  139.7450   68.1440  227.6010 Cl  0  0  0  0  0  0  0  0  0  0  0  0
  141.2600   70.1020  226.4620 C   0  0  0  0  0  0  0  0  0  0  0  0
  141.4410   71.0790  225.4920 C   0  0  0  0  0  0  0  0  0  0  0  0
  140.4830   71.3430  224.5260 C   0  0  0  0  0  0  0  0  0  0  0  0
  140.6960   72.3010  223.5990 N   0  0  0  0  0  0  0  0  0  0  0  0
  140.7080   78.8370  222.1980 C   0  0  0  0  0  0  0  0  0  0  0  0
  141.2670   78.6870  223.4700 C   0  0  0  0  0  0  0  0  0  0  0  0
  142.2760   79.5340  223.8740 C   0  0  0  0  0  0  0  0  0  0  0  0
  142.7430   80.5310  223.0440 C   0  0  0  0  0  0  0  0  0  0  0  0
  142.2060   80.7030  221.7800 C   0  0  0  0  0  0  0  0  0  0  0  0
  141.1980   79.8450  221.3900 C   0  0  0  0  0  0  0  0  0  0  0  0
  137.3824   76.3416  223.5913 H   0  0  0  0  0  0  0  0  0  0  0  0
  136.6667   76.8889  222.0372 H   0  0  0  0  0  0  0  0  0  0  0  0
  138.1753   75.9137  222.0372 H   0  0  0  0  0  0  0  0  0  0  0  0
  138.7827   78.0730  223.6750 H   0  0  0  0  0  0  0  0  0  0  0  0
  137.1343   79.6134  223.0838 H   0  0  0  0  0  0  0  0  0  0  0  0
  138.1219   79.8073  221.5960 H   0  0  0  0  0  0  0  0  0  0  0  0
  136.7051   78.7031  221.5960 H   0  0  0  0  0  0  0  0  0  0  0  0
  139.2589   78.2907  220.8080 H   0  0  0  0  0  0  0  0  0  0  0  0
  139.8540   75.8640  222.2670 H   0  0  0  0  0  0  0  0  0  0  0  0
  141.3546   74.6290  219.3479 H   0  0  0  0  0  0  0  0  0  0  0  0
  142.7857   75.1165  220.4049 H   0  0  0  0  0  0  0  0  0  0  0  0
  142.1120   73.4060  221.8070 H   0  0  0  0  0  0  0  0  0  0  0  0
  137.8471   72.0876  221.8467 H   0  0  0  0  0  0  0  0  0  0  0  0
  137.4071   70.3142  223.5297 H   0  0  0  0  0  0  0  0  0  0  0  0
  138.1736   69.0777  225.4560 H   0  0  0  0  0  0  0  0  0  0  0  0
  142.0233   69.8953  227.2266 H   0  0  0  0  0  0  0  0  0  0  0  0
  142.3740   71.6617  225.4903 H   0  0  0  0  0  0  0  0  0  0  0  0
  140.9038   77.8977  224.1445 H   0  0  0  0  0  0  0  0  0  0  0  0
  142.7160   79.4128  224.8748 H   0  0  0  0  0  0  0  0  0  0  0  0
  143.5490   81.1952  223.3892 H   0  0  0  0  0  0  0  0  0  0  0  0
  142.5699   81.4958  221.1099 H   0  0  0  0  0  0  0  0  0  0  0  0
  140.7635   79.9696  220.3872 H   0  0  0  0  0  0  0  0  0  0  0  0
  1  2  1  0
  2  3  1  0
  2  4  1  0
  4  5  1  0
  5  6  1  0
  6  7  2  0
  6  8  1  0
  8  9  1  0
  9 10  1  0
 10 11  2  0
 10 12  1  0
 12 13  2  0
 13 14  1  0
 14 15  2  0
 15 16  1  0
 16 17  2  0
 17 18  1  0
 17 19  1  0
 19 20  2  0
 20 21  1  0
 21 22  2  0
  4 23  1  0
 23 24  2  0
 24 25  1  0
 25 26  2  0
 26 27  1  0
 27 28  2  0
 22 12  1  0
 28 23  1  0
 21 15  1  0
  1 29  1  0
  1 30  1  0
  1 31  1  0
  2 32  1  0
  3 33  1  0
  3 34  1  0
  3 35  1  0
  4 36  1  6
  5 37  1  0
  8 38  1  0
  8 39  1  0
  9 40  1  0
 13 41  1  0
 14 42  1  0
 16 43  1  0
 19 44  1  0
 20 45  1  0
 24 46  1  0
 25 47  1  0
 26 48  1  0
 27 49  1  0
 28 50  1  0
M  END
>  <smiles>  (3) 
CC(C)[C@H](NC(=O)CNC(=O)c1ccc2cc(Cl)ccc2n1)c1ccccc1

>  <score_type>  (3) 
oracle

>  <origin>  (3) 
autodockgpu

>  <m_score__min__energy>  (3) 
-8.7699999999999996

>  <m_primary>  (3) 
energy

>  <rmsd>  (3) 
3.596772253226388

>  <m_score__min__rmsd>  (3) 
3.596772253226388

>  <meeko>  (3) 
{"free_energy": -7.36, "intermolecular_energy": -9.15, "internal_energy": -2.32, "cluster_size": 11, "cluster_id": 1, "rank_in_cluster": 9}

>  <energy>  (3) 
-8.68

>  <cluster_rmsd>  (3) 
0.25

>  <cluster>  (3) 
1

$$$$

     RDKit          3D

 50 52  0  0  0  0  0  0  0  0999 V2000
  139.1930   67.0240  226.7040 C   0  0  0  0  0  0  0  0  0  0  0  0
  140.0230   67.8790  225.7760 C   0  0  0  0  0  0  0  0  0  0  0  0
  141.4040   68.0040  226.3860 C   0  0  0  0  0  0  0  0  0  0  0  0
  139.4660   69.2410  225.5700 C   0  0  2  0  0  0  0  0  0  0  0  0
  139.5290   69.6720  224.1950 N   0  0  0  0  0  0  0  0  0  0  0  0
  138.7710   70.7750  223.7310 C   0  0  0  0  0  0  0  0  0  0  0  0
  138.0210   71.3970  224.5510 O   0  0  0  0  0  0  0  0  0  0  0  0
  138.7780   71.2770  222.3410 C   0  0  0  0  0  0  0  0  0  0  0  0
  139.2140   72.6230  222.1720 N   0  0  0  0  0  0  0  0  0  0  0  0
  140.3070   72.9860  221.3060 C   0  0  0  0  0  0  0  0  0  0  0  0
  140.9430   72.1250  220.6370 O   0  0  0  0  0  0  0  0  0  0  0  0
  140.7020   74.4070  221.1930 C   0  0  0  0  0  0  0  0  0  0  0  0
  141.6560   74.7830  220.2920 C   0  0  0  0  0  0  0  0  0  0  0  0
  142.0380   76.1030  220.1720 C   0  0  0  0  0  0  0  0  0  0  0  0
  141.4350   77.0350  220.9800 C   0  0  0  0  0  0  0  0  0  0  0  0
  141.7740   78.3610  220.9050 C   0  0  0  0  0  0  0  0  0  0  0  0
  141.1680   79.2950  221.7160 C   0  0  0  0  0  0  0  0  0  0  0  0
  141.6540   80.9780  221.5620 Cl  0  0  0  0  0  0  0  0  0  0  0  0
  140.1950   78.9440  222.6390 C   0  0  0  0  0  0  0  0  0  0  0  0
  139.8640   77.5970  222.7030 C   0  0  0  0  0  0  0  0  0  0  0  0
  140.4690   76.6510  221.8910 C   0  0  0  0  0  0  0  0  0  0  0  0
  140.1190   75.3500  221.9820 N   0  0  0  0  0  0  0  0  0  0  0  0
  140.0510   70.2760  226.4340 C   0  0  0  0  0  0  0  0  0  0  0  0
  141.0130   71.1400  225.9050 C   0  0  0  0  0  0  0  0  0  0  0  0
  141.5670   72.1150  226.7070 C   0  0  0  0  0  0  0  0  0  0  0  0
  141.1870   72.2510  228.0250 C   0  0  0  0  0  0  0  0  0  0  0  0
  140.2370   71.4080  228.5750 C   0  0  0  0  0  0  0  0  0  0  0  0
  139.6920   70.4390  227.7580 C   0  0  0  0  0  0  0  0  0  0  0  0
  139.4353   67.2737  227.7475 H   0  0  0  0  0  0  0  0  0  0  0  0
  138.1251   67.2134  226.5202 H   0  0  0  0  0  0  0  0  0  0  0  0
  139.4140   65.9622  226.5202 H   0  0  0  0  0  0  0  0  0  0  0  0
  140.0374   67.3926  224.7895 H   0  0  0  0  0  0  0  0  0  0  0  0
  141.3224   67.9966  227.4829 H   0  0  0  0  0  0  0  0  0  0  0  0
  142.0272   67.1586  226.0590 H   0  0  0  0  0  0  0  0  0  0  0  0
  141.8653   68.9476  226.0590 H   0  0  0  0  0  0  0  0  0  0  0  0
  138.4116   69.1294  225.8628 H   0  0  0  0  0  0  0  0  0  0  0  0
  140.1610   69.1480  223.5570 H   0  0  0  0  0  0  0  0  0  0  0  0
  139.4437   70.6296  221.7513 H   0  0  0  0  0  0  0  0  0  0  0  0
  137.7291   71.2580  222.0102 H   0  0  0  0  0  0  0  0  0  0  0  0
  138.7610   73.4440  222.6730 H   0  0  0  0  0  0  0  0  0  0  0  0
  142.1271   74.0222  219.6523 H   0  0  0  0  0  0  0  0  0  0  0  0
  142.8080   76.4021  219.4456 H   0  0  0  0  0  0  0  0  0  0  0  0
  142.5416   78.6841  220.1863 H   0  0  0  0  0  0  0  0  0  0  0  0
  139.7117   79.6915  223.2852 H   0  0  0  0  0  0  0  0  0  0  0  0
  139.0973   77.2705  223.4210 H   0  0  0  0  0  0  0  0  0  0  0  0
  141.3265   71.0430  224.8551 H   0  0  0  0  0  0  0  0  0  0  0  0
  142.3239   72.7948  226.2887 H   0  0  0  0  0  0  0  0  0  0  0  0
  141.6429   73.0367  228.6453 H   0  0  0  0  0  0  0  0  0  0  0  0
  139.9276   71.5070  229.6259 H   0  0  0  0  0  0  0  0  0  0  0  0
  138.9345   69.7631  228.1816 H   0  0  0  0  0  0  0  0  0  0  0  0
  1  2  1  0
  2  3  1  0
  2  4  1  0
  4  5  1  0
  5  6  1  0
  6  7  2  0
  6  8  1  0
  8  9  1  0
  9 10  1  0
 10 11  2  0
 10 12  1  0
 12 13  2  0
 13 14  1  0
 14 15  2  0
 15 16  1  0
 16 17  2  0
 17 18  1  0
 17 19  1  0
 19 20  2  0
 20 21  1  0
 21 22  2  0
  4 23  1  0
 23 24  2  0
 24 25  1  0
 25 26  2  0
 26 27  1  0
 27 28  2  0
 22 12  1  0
 28 23  1  0
 21 15  1  0
  1 29  1  0
  1 30  1  0
  1 31  1  0
  2 32  1  0
  3 33  1  0
  3 34  1  0
  3 35  1  0
  4 36  1  1
  5 37  1  0
  8 38  1  0
  8 39  1  0
  9 40  1  0
 13 41  1  0
 14 42  1  0
 16 43  1  0
 19 44  1  0
 20 45  1  0
 24 46  1  0
 25 47  1  0
 26 48  1  0
 27 49  1  0
 28 50  1  0
M  END
>  <smiles>  (4) 
CC(C)[C@H](NC(=O)CNC(=O)c1ccc2cc(Cl)ccc2n1)c1ccccc1

>  <score_type>  (4) 
oracle

>  <origin>  (4) 
autodockgpu

>  <m_score__min__energy>  (4) 
-8.7699999999999996

>  <m_primary>  (4) 
energy

>  <rmsd>  (4) 
9.803516936487634

>  <m_score__min__rmsd>  (4) 
9.803516936487634

>  <meeko>  (4) 
{"free_energy": -8.52, "intermolecular_energy": -10.31, "internal_energy": -1.63, "cluster_size": 11, "cluster_id": 3, "rank_in_cluster": 1}

>  <energy>  (4) 
-8.63

>  <cluster_rmsd>  (4) 
0.76

>  <cluster>  (4) 
1

$$$$

     RDKit          3D

 50 52  0  0  0  0  0  0  0  0999 V2000
  138.7930   68.0270  223.4330 C   0  0  0  0  0  0  0  0  0  0  0  0
  139.5760   68.6290  224.5760 C   0  0  0  0  0  0  0  0  0  0  0  0
  139.5670   67.6250  225.7110 C   0  0  0  0  0  0  0  0  0  0  0  0
  139.0140   69.9130  225.0680 C   0  0  2  0  0  0  0  0  0  0  0  0
  138.6720   70.8220  224.0020 N   0  0  0  0  0  0  0  0  0  0  0  0
  137.3430   70.9420  223.5290 C   0  0  0  0  0  0  0  0  0  0  0  0
  136.4320   70.2300  224.0640 O   0  0  0  0  0  0  0  0  0  0  0  0
  136.9130   71.8470  222.4440 C   0  0  0  0  0  0  0  0  0  0  0  0
  137.6200   73.0800  222.3490 N   0  0  0  0  0  0  0  0  0  0  0  0
  138.9910   73.1630  221.9130 C   0  0  0  0  0  0  0  0  0  0  0  0
  139.6480   72.1370  221.5820 O   0  0  0  0  0  0  0  0  0  0  0  0
  139.6550   74.4830  221.8500 C   0  0  0  0  0  0  0  0  0  0  0  0
  140.8710   74.6090  221.2420 C   0  0  0  0  0  0  0  0  0  0  0  0
  141.5050   75.8320  221.1740 C   0  0  0  0  0  0  0  0  0  0  0  0
  140.8870   76.9240  221.7320 C   0  0  0  0  0  0  0  0  0  0  0  0
  141.4700   78.1640  221.6940 C   0  0  0  0  0  0  0  0  0  0  0  0
  140.8480   79.2570  222.2540 C   0  0  0  0  0  0  0  0  0  0  0  0
  141.6570   80.8160  222.1660 Cl  0  0  0  0  0  0  0  0  0  0  0  0
  139.6130   79.1600  222.8780 C   0  0  0  0  0  0  0  0  0  0  0  0
  139.0370   77.8970  222.9070 C   0  0  0  0  0  0  0  0  0  0  0  0
  139.6560   76.7920  222.3470 C   0  0  0  0  0  0  0  0  0  0  0  0
  139.0620   75.5800  222.3960 N   0  0  0  0  0  0  0  0  0  0  0  0
  139.8530   70.6080  226.0530 C   0  0  0  0  0  0  0  0  0  0  0  0
  139.7480   70.2620  227.4030 C   0  0  0  0  0  0  0  0  0  0  0  0
  140.5310   70.9080  228.3350 C   0  0  0  0  0  0  0  0  0  0  0  0
  141.4190   71.8940  227.9570 C   0  0  0  0  0  0  0  0  0  0  0  0
  141.5430   72.2570  226.6270 C   0  0  0  0  0  0  0  0  0  0  0  0
  140.7520   71.5990  225.7070 C   0  0  0  0  0  0  0  0  0  0  0  0
  137.9808   67.4026  223.8336 H   0  0  0  0  0  0  0  0  0  0  0  0
  138.3666   68.8321  222.8165 H   0  0  0  0  0  0  0  0  0  0  0  0
  139.4614   67.4080  222.8165 H   0  0  0  0  0  0  0  0  0  0  0  0
  140.5904   68.8500  224.2124 H   0  0  0  0  0  0  0  0  0  0  0  0
  139.5718   68.1588  226.6728 H   0  0  0  0  0  0  0  0  0  0  0  0
  138.6632   67.0017  225.6421 H   0  0  0  0  0  0  0  0  0  0  0  0
  140.4594   66.9856  225.6421 H   0  0  0  0  0  0  0  0  0  0  0  0
  138.0934   69.6039  225.5846 H   0  0  0  0  0  0  0  0  0  0  0  0
  139.4400   71.3960  223.5980 H   0  0  0  0  0  0  0  0  0  0  0  0
  137.0361   71.3129  221.4903 H   0  0  0  0  0  0  0  0  0  0  0  0
  135.8717   72.1164  222.6745 H   0  0  0  0  0  0  0  0  0  0  0  0
  137.1810   74.0180  222.5930 H   0  0  0  0  0  0  0  0  0  0  0  0
  141.3514   73.7234  220.8006 H   0  0  0  0  0  0  0  0  0  0  0  0
  142.4846   75.9305  220.6834 H   0  0  0  0  0  0  0  0  0  0  0  0
  142.4495   78.2876  221.2088 H   0  0  0  0  0  0  0  0  0  0  0  0
  139.1177   80.0347  223.3248 H   0  0  0  0  0  0  0  0  0  0  0  0
  138.0572   77.7700  223.3905 H   0  0  0  0  0  0  0  0  0  0  0  0
  139.0442   69.4783  227.7199 H   0  0  0  0  0  0  0  0  0  0  0  0
  140.4467   70.6333  229.3968 H   0  0  0  0  0  0  0  0  0  0  0  0
  142.0336   72.3958  228.7189 H   0  0  0  0  0  0  0  0  0  0  0  0
  142.2471   73.0422  226.3143 H   0  0  0  0  0  0  0  0  0  0  0  0
  140.8415   71.8770  224.6465 H   0  0  0  0  0  0  0  0  0  0  0  0
  1  2  1  0
  2  3  1  0
  2  4  1  0
  4  5  1  0
  5  6  1  0
  6  7  2  0
  6  8  1  0
  8  9  1  0
  9 10  1  0
 10 11  2  0
 10 12  1  0
 12 13  2  0
 13 14  1  0
 14 15  2  0
 15 16  1  0
 16 17  2  0
 17 18  1  0
 17 19  1  0
 19 20  2  0
 20 21  1  0
 21 22  2  0
  4 23  1  0
 23 24  2  0
 24 25  1  0
 25 26  2  0
 26 27  1  0
 27 28  2  0
 22 12  1  0
 28 23  1  0
 21 15  1  0
  1 29  1  0
  1 30  1  0
  1 31  1  0
  2 32  1  0
  3 33  1  0
  3 34  1  0
  3 35  1  0
  4 36  1  1
  5 37  1  0
  8 38  1  0
  8 39  1  0
  9 40  1  0
 13 41  1  0
 14 42  1  0
 16 43  1  0
 19 44  1  0
 20 45  1  0
 24 46  1  0
 25 47  1  0
 26 48  1  0
 27 49  1  0
 28 50  1  0
M  END
>  <smiles>  (5) 
CC(C)[C@H](NC(=O)CNC(=O)c1ccc2cc(Cl)ccc2n1)c1ccccc1

>  <score_type>  (5) 
oracle

>  <origin>  (5) 
autodockgpu

>  <m_score__min__energy>  (5) 
-8.7699999999999996

>  <m_primary>  (5) 
energy

>  <rmsd>  (5) 
9.316563959159234

>  <m_score__min__rmsd>  (5) 
9.316563959159234

>  <meeko>  (5) 
{"free_energy": -7.83, "intermolecular_energy": -9.62, "internal_energy": -2.37, "cluster_size": 11, "cluster_id": 3, "rank_in_cluster": 3}

>  <energy>  (5) 
-8.61

>  <cluster_rmsd>  (5) 
0.76

>  <cluster>  (5) 
1

$$$$

     RDKit          3D

 50 52  0  0  0  0  0  0  0  0999 V2000
  141.9580   77.4390  220.0620 C   0  0  0  0  0  0  0  0  0  0  0  0
  142.9700   76.6540  219.2620 C   0  0  0  0  0  0  0  0  0  0  0  0
  142.9500   77.1950  217.8480 C   0  0  0  0  0  0  0  0  0  0  0  0
  142.6910   75.1960  219.2210 C   0  0  2  0  0  0  0  0  0  0  0  0
  141.4380   74.8450  219.8450 N   0  0  0  0  0  0  0  0  0  0  0  0
  140.5530   73.9110  219.2540 C   0  0  0  0  0  0  0  0  0  0  0  0
  140.8780   73.3690  218.1470 O   0  0  0  0  0  0  0  0  0  0  0  0
  139.2550   73.5000  219.8270 C   0  0  0  0  0  0  0  0  0  0  0  0
  139.3210   72.5840  220.9150 N   0  0  0  0  0  0  0  0  0  0  0  0
  140.0520   72.8600  222.1260 C   0  0  0  0  0  0  0  0  0  0  0  0
  140.6770   73.9440  222.2950 O   0  0  0  0  0  0  0  0  0  0  0  0
  140.0760   71.8510  223.2060 C   0  0  0  0  0  0  0  0  0  0  0  0
  139.6210   70.5850  222.9700 C   0  0  0  0  0  0  0  0  0  0  0  0
  139.6360   69.6300  223.9650 C   0  0  0  0  0  0  0  0  0  0  0  0
  140.1200   69.9780  225.2010 C   0  0  0  0  0  0  0  0  0  0  0  0
  140.1590   69.0710  226.2280 C   0  0  0  0  0  0  0  0  0  0  0  0
  140.6440   69.4220  227.4680 C   0  0  0  0  0  0  0  0  0  0  0  0
  140.6640   68.2030  228.7350 Cl  0  0  0  0  0  0  0  0  0  0  0  0
  141.1130   70.6980  227.7380 C   0  0  0  0  0  0  0  0  0  0  0  0
  141.0660   71.6060  226.6870 C   0  0  0  0  0  0  0  0  0  0  0  0
  140.5790   71.2610  225.4370 C   0  0  0  0  0  0  0  0  0  0  0  0
  140.5510   72.1720  224.4410 N   0  0  0  0  0  0  0  0  0  0  0  0
  143.7620   74.3540  219.7710 C   0  0  0  0  0  0  0  0  0  0  0  0
  143.7020   72.9690  219.5870 C   0  0  0  0  0  0  0  0  0  0  0  0
  144.7030   72.1710  220.0980 C   0  0  0  0  0  0  0  0  0  0  0  0
  145.7640   72.7170  220.7890 C   0  0  0  0  0  0  0  0  0  0  0  0
  145.8480   74.0840  220.9870 C   0  0  0  0  0  0  0  0  0  0  0  0
  144.8380   74.8690  220.4680 C   0  0  0  0  0  0  0  0  0  0  0  0
  142.1464   77.2929  221.1358 H   0  0  0  0  0  0  0  0  0  0  0  0
  142.0457   78.5077  219.8164 H   0  0  0  0  0  0  0  0  0  0  0  0
  140.9447   77.0883  219.8164 H   0  0  0  0  0  0  0  0  0  0  0  0
  143.9500   76.7717  219.7476 H   0  0  0  0  0  0  0  0  0  0  0  0
  142.9094   78.2939  217.8764 H   0  0  0  0  0  0  0  0  0  0  0  0
  143.8606   76.8753  217.3202 H   0  0  0  0  0  0  0  0  0  0  0  0
  142.0655   76.8089  217.3202 H   0  0  0  0  0  0  0  0  0  0  0  0
  142.6283   74.9824  218.1438 H   0  0  0  0  0  0  0  0  0  0  0  0
  141.2120   75.2990  220.7530 H   0  0  0  0  0  0  0  0  0  0  0  0
  138.7393   74.4057  220.1789 H   0  0  0  0  0  0  0  0  0  0  0  0
  138.7268   72.9695  219.0210 H   0  0  0  0  0  0  0  0  0  0  0  0
  138.8350   71.6380  220.9040 H   0  0  0  0  0  0  0  0  0  0  0  0
  139.2374   70.3235  221.9728 H   0  0  0  0  0  0  0  0  0  0  0  0
  139.2680   68.6115  223.7720 H   0  0  0  0  0  0  0  0  0  0  0  0
  139.7970   68.0461  226.0588 H   0  0  0  0  0  0  0  0  0  0  0  0
  141.5008   70.9765  228.7290 H   0  0  0  0  0  0  0  0  0  0  0  0
  141.4271   72.6317  226.8531 H   0  0  0  0  0  0  0  0  0  0  0  0
  142.8615   72.5194  219.0381 H   0  0  0  0  0  0  0  0  0  0  0  0
  144.6547   71.0818  219.9523 H   0  0  0  0  0  0  0  0  0  0  0  0
  146.5512   72.0596  221.1867 H   0  0  0  0  0  0  0  0  0  0  0  0
  146.6894   74.5292  221.5382 H   0  0  0  0  0  0  0  0  0  0  0  0
  144.8925   75.9576  220.6166 H   0  0  0  0  0  0  0  0  0  0  0  0
  1  2  1  0
  2  3  1  0
  2  4  1  0
  4  5  1  0
  5  6  1  0
  6  7  2  0
  6  8  1  0
  8  9  1  0
  9 10  1  0
 10 11  2  0
 10 12  1  0
 12 13  2  0
 13 14  1  0
 14 15  2  0
 15 16  1  0
 16 17  2  0
 17 18  1  0
 17 19  1  0
 19 20  2  0
 20 21  1  0
 21 22  2  0
  4 23  1  0
 23 24  2  0
 24 25  1  0
 25 26  2  0
 26 27  1  0
 27 28  2  0
 22 12  1  0
 28 23  1  0
 21 15  1  0
  1 29  1  0
  1 30  1  0
  1 31  1  0
  2 32  1  0
  3 33  1  0
  3 34  1  0
  3 35  1  0
  4 36  1  6
  5 37  1  0
  8 38  1  0
  8 39  1  0
  9 40  1  0
 13 41  1  0
 14 42  1  0
 16 43  1  0
 19 44  1  0
 20 45  1  0
 24 46  1  0
 25 47  1  0
 26 48  1  0
 27 49  1  0
 28 50  1  0
M  END
>  <smiles>  (6) 
CC(C)[C@H](NC(=O)CNC(=O)c1ccc2cc(Cl)ccc2n1)c1ccccc1

>  <score_type>  (6) 
oracle

>  <origin>  (6) 
autodockgpu

>  <m_score__min__energy>  (6) 
-8.7699999999999996

>  <m_primary>  (6) 
energy

>  <rmsd>  (6) 
6.380365828306129

>  <m_score__min__rmsd>  (6) 
6.380365828306129

>  <meeko>  (6) 
{"free_energy": -7.9, "intermolecular_energy": -9.69, "internal_energy": -2.13, "cluster_size": 12, "cluster_id": 4, "rank_in_cluster": 9}

>  <energy>  (6) 
-8.41

>  <cluster_rmsd>  (6) 
0.62

>  <cluster>  (6) 
1

$$$$

     RDKit          3D

 50 52  0  0  0  0  0  0  0  0999 V2000
  139.1480   67.3140  226.8000 C   0  0  0  0  0  0  0  0  0  0  0  0
  139.9380   67.9780  225.6980 C   0  0  0  0  0  0  0  0  0  0  0  0
  141.3920   67.9860  226.1220 C   0  0  0  0  0  0  0  0  0  0  0  0
  139.5120   69.3750  225.4240 C   0  0  2  0  0  0  0  0  0  0  0  0
  139.6850   69.7550  224.0430 N   0  0  0  0  0  0  0  0  0  0  0  0
  138.5860   69.8290  223.1530 C   0  0  0  0  0  0  0  0  0  0  0  0
  137.4200   69.5540  223.5880 O   0  0  0  0  0  0  0  0  0  0  0  0
  138.6800   70.2070  221.7280 C   0  0  0  0  0  0  0  0  0  0  0  0
  139.0750   71.5520  221.4690 N   0  0  0  0  0  0  0  0  0  0  0  0
  140.3010   72.1160  221.9740 C   0  0  0  0  0  0  0  0  0  0  0  0
  141.1050   71.4430  222.6760 O   0  0  0  0  0  0  0  0  0  0  0  0
  140.6330   73.5230  221.6660 C   0  0  0  0  0  0  0  0  0  0  0  0
  141.6720   73.8140  220.8300 C   0  0  0  0  0  0  0  0  0  0  0  0
  141.9970   75.1210  220.5300 C   0  0  0  0  0  0  0  0  0  0  0  0
  141.2510   76.1270  221.0920 C   0  0  0  0  0  0  0  0  0  0  0  0
  141.5270   77.4440  220.8310 C   0  0  0  0  0  0  0  0  0  0  0  0
  140.7780   78.4520  221.3950 C   0  0  0  0  0  0  0  0  0  0  0  0
  141.1920   80.1180  221.0130 Cl  0  0  0  0  0  0  0  0  0  0  0  0
  139.7170   78.1880  222.2480 C   0  0  0  0  0  0  0  0  0  0  0  0
  139.4500   76.8490  222.5020 C   0  0  0  0  0  0  0  0  0  0  0  0
  140.1990   75.8290  221.9390 C   0  0  0  0  0  0  0  0  0  0  0  0
  139.9080   74.5390  222.2110 N   0  0  0  0  0  0  0  0  0  0  0  0
  140.1370   70.3840  226.2900 C   0  0  0  0  0  0  0  0  0  0  0  0
  139.7740   70.4440  227.6380 C   0  0  0  0  0  0  0  0  0  0  0  0
  140.3550   71.3860  228.4590 C   0  0  0  0  0  0  0  0  0  0  0  0
  141.2900   72.2740  227.9700 C   0  0  0  0  0  0  0  0  0  0  0  0
  141.6670   72.2380  226.6390 C   0  0  0  0  0  0  0  0  0  0  0  0
  141.0760   71.2880  225.8320 C   0  0  0  0  0  0  0  0  0  0  0  0
  139.5356   67.6398  227.7765 H   0  0  0  0  0  0  0  0  0  0  0  0
  138.0885   67.5968  226.7132 H   0  0  0  0  0  0  0  0  0  0  0  0
  139.2443   66.2217  226.7132 H   0  0  0  0  0  0  0  0  0  0  0  0
  139.7695   67.4102  224.7710 H   0  0  0  0  0  0  0  0  0  0  0  0
  141.4537   67.9863  227.2203 H   0  0  0  0  0  0  0  0  0  0  0  0
  141.8941   67.0906  225.7268 H   0  0  0  0  0  0  0  0  0  0  0  0
  141.8842   68.8869  225.7268 H   0  0  0  0  0  0  0  0  0  0  0  0
  138.4379   69.3621  225.6608 H   0  0  0  0  0  0  0  0  0  0  0  0
  140.6490   69.9830  223.7260 H   0  0  0  0  0  0  0  0  0  0  0  0
  139.4137   69.5414  221.2497 H   0  0  0  0  0  0  0  0  0  0  0  0
  137.6609   70.1114  221.3251 H   0  0  0  0  0  0  0  0  0  0  0  0
  138.4910   72.2230  220.8880 H   0  0  0  0  0  0  0  0  0  0  0  0
  142.2587   72.9947  220.3890 H   0  0  0  0  0  0  0  0  0  0  0  0
  142.8349   75.3516  219.8557 H   0  0  0  0  0  0  0  0  0  0  0  0
  142.3604   77.6996  220.1601 H   0  0  0  0  0  0  0  0  0  0  0  0
  139.1199   78.9945  222.6985 H   0  0  0  0  0  0  0  0  0  0  0  0
  138.6168   76.5902  223.1719 H   0  0  0  0  0  0  0  0  0  0  0  0
  139.0285   69.7431  228.0416 H   0  0  0  0  0  0  0  0  0  0  0  0
  140.0687   71.4303  229.5202 H   0  0  0  0  0  0  0  0  0  0  0  0
  141.7402   73.0176  228.6441 H   0  0  0  0  0  0  0  0  0  0  0  0
  142.4115   72.9419  226.2387 H   0  0  0  0  0  0  0  0  0  0  0  0
  141.3666   71.2483  224.7718 H   0  0  0  0  0  0  0  0  0  0  0  0
  1  2  1  0
  2  3  1  0
  2  4  1  0
  4  5  1  0
  5  6  1  0
  6  7  2  0
  6  8  1  0
  8  9  1  0
  9 10  1  0
 10 11  2  0
 10 12  1  0
 12 13  2  0
 13 14  1  0
 14 15  2  0
 15 16  1  0
 16 17  2  0
 17 18  1  0
 17 19  1  0
 19 20  2  0
 20 21  1  0
 21 22  2  0
  4 23  1  0
 23 24  2  0
 24 25  1  0
 25 26  2  0
 26 27  1  0
 27 28  2  0
 22 12  1  0
 28 23  1  0
 21 15  1  0
  1 29  1  0
  1 30  1  0
  1 31  1  0
  2 32  1  0
  3 33  1  0
  3 34  1  0
  3 35  1  0
  4 36  1  1
  5 37  1  0
  8 38  1  0
  8 39  1  0
  9 40  1  0
 13 41  1  0
 14 42  1  0
 16 43  1  0
 19 44  1  0
 20 45  1  0
 24 46  1  0
 25 47  1  0
 26 48  1  0
 27 49  1  0
 28 50  1  0
M  END
>  <smiles>  (7) 
CC(C)[C@H](NC(=O)CNC(=O)c1ccc2cc(Cl)ccc2n1)c1ccccc1

>  <score_type>  (7) 
oracle

>  <origin>  (7) 
autodockgpu

>  <m_score__min__energy>  (7) 
-8.7699999999999996

>  <m_primary>  (7) 
energy

>  <rmsd>  (7) 
9.393464537590571

>  <m_score__min__rmsd>  (7) 
9.393464537590571

>  <meeko>  (7) 
{"free_energy": -7.86, "intermolecular_energy": -9.65, "internal_energy": -2.14, "cluster_size": 11, "cluster_id": 3, "rank_in_cluster": 2}

>  <energy>  (7) 
-8.04

>  <cluster_rmsd>  (7) 
1.53

>  <cluster>  (7) 
1

$$$$

     RDKit          3D

 50 52  0  0  0  0  0  0  0  0999 V2000
  138.7370   68.1750  223.3720 C   0  0  0  0  0  0  0  0  0  0  0  0
  139.5620   68.7490  224.5000 C   0  0  0  0  0  0  0  0  0  0  0  0
  139.6460   67.6950  225.5850 C   0  0  0  0  0  0  0  0  0  0  0  0
  138.9880   69.9890  225.0810 C   0  0  2  0  0  0  0  0  0  0  0  0
  138.5890   70.9480  224.0800 N   0  0  0  0  0  0  0  0  0  0  0  0
  137.2800   70.9550  223.5410 C   0  0  0  0  0  0  0  0  0  0  0  0
  136.4380   70.0930  223.9570 O   0  0  0  0  0  0  0  0  0  0  0  0
  136.7950   71.9000  222.5140 C   0  0  0  0  0  0  0  0  0  0  0  0
  137.5340   73.1120  222.3910 N   0  0  0  0  0  0  0  0  0  0  0  0
  138.9100   73.1480  221.9650 C   0  0  0  0  0  0  0  0  0  0  0  0
  139.5440   72.0970  221.6700 O   0  0  0  0  0  0  0  0  0  0  0  0
  139.6070   74.4490  221.8710 C   0  0  0  0  0  0  0  0  0  0  0  0
  140.8340   74.5270  221.2770 C   0  0  0  0  0  0  0  0  0  0  0  0
  141.4990   75.7310  221.1800 C   0  0  0  0  0  0  0  0  0  0  0  0
  140.9010   76.8540  221.6950 C   0  0  0  0  0  0  0  0  0  0  0  0
  141.5150   78.0780  221.6270 C   0  0  0  0  0  0  0  0  0  0  0  0
  140.9130   79.2030  222.1440 C   0  0  0  0  0  0  0  0  0  0  0  0
  141.7610   80.7390  222.0190 Cl  0  0  0  0  0  0  0  0  0  0  0  0
  139.6680   79.1560  222.7530 C   0  0  0  0  0  0  0  0  0  0  0  0
  139.0590   77.9080  222.8130 C   0  0  0  0  0  0  0  0  0  0  0  0
  139.6580   76.7710  222.2960 C   0  0  0  0  0  0  0  0  0  0  0  0
  139.0340   75.5760  222.3740 N   0  0  0  0  0  0  0  0  0  0  0  0
  139.8440   70.6500  226.0760 C   0  0  0  0  0  0  0  0  0  0  0  0
  139.7570   70.2610  227.4150 C   0  0  0  0  0  0  0  0  0  0  0  0
  140.5560   70.8740  228.3550 C   0  0  0  0  0  0  0  0  0  0  0  0
  141.4420   71.8670  227.9960 C   0  0  0  0  0  0  0  0  0  0  0  0
  141.5490   72.2730  226.6770 C   0  0  0  0  0  0  0  0  0  0  0  0
  140.7420   71.6480  225.7480 C   0  0  0  0  0  0  0  0  0  0  0  0
  137.9012   67.5935  223.7881 H   0  0  0  0  0  0  0  0  0  0  0  0
  138.3416   68.9941  222.7533 H   0  0  0  0  0  0  0  0  0  0  0  0
  139.3675   67.5196  222.7533 H   0  0  0  0  0  0  0  0  0  0  0  0
  140.5481   69.0194  224.0944 H   0  0  0  0  0  0  0  0  0  0  0  0
  139.6073   68.1803  226.5714 H   0  0  0  0  0  0  0  0  0  0  0  0
  138.8005   66.9984  225.4857 H   0  0  0  0  0  0  0  0  0  0  0  0
  140.5911   67.1411  225.4857 H   0  0  0  0  0  0  0  0  0  0  0  0
  138.0929   69.6278  225.6086 H   0  0  0  0  0  0  0  0  0  0  0  0
  139.3000   71.6430  223.7720 H   0  0  0  0  0  0  0  0  0  0  0  0
  136.8239   71.3865  221.5417 H   0  0  0  0  0  0  0  0  0  0  0  0
  135.7846   72.1961  222.8324 H   0  0  0  0  0  0  0  0  0  0  0  0
  137.1160   74.0670  222.6050 H   0  0  0  0  0  0  0  0  0  0  0  0
  141.2984   73.6166  220.8702 H   0  0  0  0  0  0  0  0  0  0  0  0
  142.4871   75.7902  220.7004 H   0  0  0  0  0  0  0  0  0  0  0  0
  142.5036   78.1624  221.1521 H   0  0  0  0  0  0  0  0  0  0  0  0
  139.1891   80.0562  223.1656 H   0  0  0  0  0  0  0  0  0  0  0  0
  138.0698   77.8204  223.2861 H   0  0  0  0  0  0  0  0  0  0  0  0
  139.0547   69.4700  227.7169 H   0  0  0  0  0  0  0  0  0  0  0  0
  140.4858   70.5662  229.4087 H   0  0  0  0  0  0  0  0  0  0  0  0
  142.0698   72.3412  228.7648 H   0  0  0  0  0  0  0  0  0  0  0  0
  142.2519   73.0653  226.3799 H   0  0  0  0  0  0  0  0  0  0  0  0
  140.8172   71.9593  224.6956 H   0  0  0  0  0  0  0  0  0  0  0  0
  1  2  1  0
  2  3  1  0
  2  4  1  0
  4  5  1  0
  5  6  1  0
  6  7  2  0
  6  8  1  0
  8  9  1  0
  9 10  1  0
 10 11  2  0
 10 12  1  0
 12 13  2  0
 13 14  1  0
 14 15  2  0
 15 16  1  0
 16 17  2  0
 17 18  1  0
 17 19  1  0
 19 20  2  0
 20 21  1  0
 21 22  2  0
  4 23  1  0
 23 24  2  0
 24 25  1  0
 25 26  2  0
 26 27  1  0
 27 28  2  0
 22 12  1  0
 28 23  1  0
 21 15  1  0
  1 29  1  0
  1 30  1  0
  1 31  1  0
  2 32  1  0
  3 33  1  0
  3 34  1  0
  3 35  1  0
  4 36  1  1
  5 37  1  0
  8 38  1  0
  8 39  1  0
  9 40  1  0
 13 41  1  0
 14 42  1  0
 16 43  1  0
 19 44  1  0
 20 45  1  0
 24 46  1  0
 25 47  1  0
 26 48  1  0
 27 49  1  0
 28 50  1  0
M  END
>  <smiles>  (8) 
CC(C)[C@H](NC(=O)CNC(=O)c1ccc2cc(Cl)ccc2n1)c1ccccc1

>  <score_type>  (8) 
oracle

>  <origin>  (8) 
autodockgpu

>  <m_score__min__energy>  (8) 
-8.7699999999999996

>  <m_primary>  (8) 
energy

>  <rmsd>  (8) 
9.30235726780229

>  <m_score__min__rmsd>  (8) 
9.30235726780229

>  <meeko>  (8) 
{"free_energy": -7.75, "intermolecular_energy": -9.54, "internal_energy": -2.32, "cluster_size": 11, "cluster_id": 3, "rank_in_cluster": 7}

>  <energy>  (8) 
-7.56

>  <cluster_rmsd>  (8) 
1.08

>  <cluster>  (8) 
1

$$$$

     RDKit          3D

 50 52  0  0  0  0  0  0  0  0999 V2000
  140.4660   78.9350  219.0220 C   0  0  0  0  0  0  0  0  0  0  0  0
  141.7990   78.7140  219.6970 C   0  0  0  0  0  0  0  0  0  0  0  0
  142.5600   77.6930  218.8770 C   0  0  0  0  0  0  0  0  0  0  0  0
  141.6810   78.2160  221.0920 C   0  0  2  0  0  0  0  0  0  0  0  0
  140.5080   77.4030  221.3020 N   0  0  0  0  0  0  0  0  0  0  0  0
  140.4880   76.0300  220.9540 C   0  0  0  0  0  0  0  0  0  0  0  0
  141.5330   75.5070  220.4480 O   0  0  0  0  0  0  0  0  0  0  0  0
  139.3290   75.1320  221.1360 C   0  0  0  0  0  0  0  0  0  0  0  0
  139.4570   74.1560  222.1660 N   0  0  0  0  0  0  0  0  0  0  0  0
  139.6600   72.7550  221.8940 C   0  0  0  0  0  0  0  0  0  0  0  0
  139.7420   72.3100  220.7150 O   0  0  0  0  0  0  0  0  0  0  0  0
  139.7760   71.8060  223.0210 C   0  0  0  0  0  0  0  0  0  0  0  0
  139.3780   70.5090  222.8680 C   0  0  0  0  0  0  0  0  0  0  0  0
  139.4780   69.6090  223.9080 C   0  0  0  0  0  0  0  0  0  0  0  0
  139.9880   70.0450  225.1060 C   0  0  0  0  0  0  0  0  0  0  0  0
  140.1100   69.1960  226.1750 C   0  0  0  0  0  0  0  0  0  0  0  0
  140.6220   69.6350  227.3750 C   0  0  0  0  0  0  0  0  0  0  0  0
  140.7500   68.4870  228.7010 Cl  0  0  0  0  0  0  0  0  0  0  0  0
  141.0350   70.9460  227.5610 C   0  0  0  0  0  0  0  0  0  0  0  0
  140.9040   71.7940  226.4690 C   0  0  0  0  0  0  0  0  0  0  0  0
  140.3900   71.3590  225.2570 C   0  0  0  0  0  0  0  0  0  0  0  0
  140.2780   72.2150  224.2190 N   0  0  0  0  0  0  0  0  0  0  0  0
  141.7380   79.2640  222.1200 C   0  0  0  0  0  0  0  0  0  0  0  0
  142.9600   79.5440  222.7390 C   0  0  0  0  0  0  0  0  0  0  0  0
  143.0240   80.5260  223.7040 C   0  0  0  0  0  0  0  0  0  0  0  0
  141.9010   81.2370  224.0710 C   0  0  0  0  0  0  0  0  0  0  0  0
  140.6790   80.9790  223.4760 C   0  0  0  0  0  0  0  0  0  0  0  0
  140.6320   79.9940  222.5110 C   0  0  0  0  0  0  0  0  0  0  0  0
  139.6852   79.0645  219.7859 H   0  0  0  0  0  0  0  0  0  0  0  0
  140.5179   79.8368  218.3943 H   0  0  0  0  0  0  0  0  0  0  0  0
  140.2241   78.0647  218.3943 H   0  0  0  0  0  0  0  0  0  0  0  0
  142.3153   79.6837  219.7526 H   0  0  0  0  0  0  0  0  0  0  0  0
  143.0798   76.9956  219.5504 H   0  0  0  0  0  0  0  0  0  0  0  0
  141.8563   77.1342  218.2425 H   0  0  0  0  0  0  0  0  0  0  0  0
  143.2966   78.2077  218.2425 H   0  0  0  0  0  0  0  0  0  0  0  0
  142.5776   77.5903  221.2126 H   0  0  0  0  0  0  0  0  0  0  0  0
  139.6770   77.8610  221.7280 H   0  0  0  0  0  0  0  0  0  0  0  0
  138.4526   75.7549  221.3682 H   0  0  0  0  0  0  0  0  0  0  0  0
  139.2392   74.5658  220.1972 H   0  0  0  0  0  0  0  0  0  0  0  0
  139.4120   74.3990  223.2000 H   0  0  0  0  0  0  0  0  0  0  0  0
  138.9717   70.1771  221.9011 H   0  0  0  0  0  0  0  0  0  0  0  0
  139.1563   68.5648  223.7807 H   0  0  0  0  0  0  0  0  0  0  0  0
  139.7938   68.1474  226.0724 H   0  0  0  0  0  0  0  0  0  0  0  0
  141.4439   71.2949  228.5208 H   0  0  0  0  0  0  0  0  0  0  0  0
  141.2178   72.8435  226.5687 H   0  0  0  0  0  0  0  0  0  0  0  0
  143.8642   78.9843  222.4577 H   0  0  0  0  0  0  0  0  0  0  0  0
  143.9864   80.7461  224.1892 H   0  0  0  0  0  0  0  0  0  0  0  0
  141.9775   82.0162  224.8437 H   0  0  0  0  0  0  0  0  0  0  0  0
  139.7767   81.5393  223.7621 H   0  0  0  0  0  0  0  0  0  0  0  0
  139.6667   79.7794  222.0293 H   0  0  0  0  0  0  0  0  0  0  0  0
  1  2  1  0
  2  3  1  0
  2  4  1  0
  4  5  1  0
  5  6  1  0
  6  7  2  0
  6  8  1  0
  8  9  1  0
  9 10  1  0
 10 11  2  0
 10 12  1  0
 12 13  2  0
 13 14  1  0
 14 15  2  0
 15 16  1  0
 16 17  2  0
 17 18  1  0
 17 19  1  0
 19 20  2  0
 20 21  1  0
 21 22  2  0
  4 23  1  0
 23 24  2  0
 24 25  1  0
 25 26  2  0
 26 27  1  0
 27 28  2  0
 22 12  1  0
 28 23  1  0
 21 15  1  0
  1 29  1  0
  1 30  1  0
  1 31  1  0
  2 32  1  0
  3 33  1  0
  3 34  1  0
  3 35  1  0
  4 36  1  1
  5 37  1  0
  8 38  1  0
  8 39  1  0
  9 40  1  0
 13 41  1  0
 14 42  1  0
 16 43  1  0
 19 44  1  0
 20 45  1  0
 24 46  1  0
 25 47  1  0
 26 48  1  0
 27 49  1  0
 28 50  1  0
M  END
>  <smiles>  (9) 
CC(C)[C@H](NC(=O)CNC(=O)c1ccc2cc(Cl)ccc2n1)c1ccccc1

>  <score_type>  (9) 
oracle

>  <origin>  (9) 
autodockgpu

>  <m_score__min__energy>  (9) 
-8.7699999999999996

>  <m_primary>  (9) 
energy

>  <rmsd>  (9) 
3.8657379712562197

>  <m_score__min__rmsd>  (9) 
3.8657379712562197

>  <meeko>  (9) 
{"free_energy": -8.63, "intermolecular_energy": -10.42, "internal_energy": -1.32, "cluster_size": 11, "cluster_id": 1, "rank_in_cluster": 4}

>  <energy>  (9) 
-7.36

>  <cluster_rmsd>  (9) 
1.86

>  <cluster>  (9) 
1

$$$$

     RDKit          3D

 50 52  0  0  0  0  0  0  0  0999 V2000
  138.5260   79.0510  222.3190 C   0  0  0  0  0  0  0  0  0  0  0  0
  139.0180   77.8060  221.6200 C   0  0  0  0  0  0  0  0  0  0  0  0
  138.7390   76.6310  222.5350 C   0  0  0  0  0  0  0  0  0  0  0  0
  140.4700   77.8360  221.3100 C   0  0  2  0  0  0  0  0  0  0  0  0
  141.0820   76.5300  221.3530 N   0  0  0  0  0  0  0  0  0  0  0  0
  140.9420   75.6110  220.2850 C   0  0  0  0  0  0  0  0  0  0  0  0
  140.2610   75.9530  219.2640 O   0  0  0  0  0  0  0  0  0  0  0  0
  141.5350   74.2580  220.2540 C   0  0  0  0  0  0  0  0  0  0  0  0
  141.2900   73.4490  221.4000 N   0  0  0  0  0  0  0  0  0  0  0  0
  140.3570   72.3500  221.3960 C   0  0  0  0  0  0  0  0  0  0  0  0
  139.7010   72.0370  220.3650 O   0  0  0  0  0  0  0  0  0  0  0  0
  140.1560   71.5650  222.6320 C   0  0  0  0  0  0  0  0  0  0  0  0
  139.4110   70.4210  222.6030 C   0  0  0  0  0  0  0  0  0  0  0  0
  139.2130   69.6750  223.7460 C   0  0  0  0  0  0  0  0  0  0  0  0
  139.7820   70.1060  224.9180 C   0  0  0  0  0  0  0  0  0  0  0  0
  139.6190   69.4050  226.0850 C   0  0  0  0  0  0  0  0  0  0  0  0
  140.1910   69.8400  227.2590 C   0  0  0  0  0  0  0  0  0  0  0  0
  139.9390   68.8870  228.7160 Cl  0  0  0  0  0  0  0  0  0  0  0  0
  140.9540   70.9960  227.3210 C   0  0  0  0  0  0  0  0  0  0  0  0
  141.1090   71.6950  226.1300 C   0  0  0  0  0  0  0  0  0  0  0  0
  140.5370   71.2650  224.9440 C   0  0  0  0  0  0  0  0  0  0  0  0
  140.7110   71.9720  223.8070 N   0  0  0  0  0  0  0  0  0  0  0  0
  141.2510   78.7690  222.1340 C   0  0  0  0  0  0  0  0  0  0  0  0
  141.8090   79.9030  221.5370 C   0  0  0  0  0  0  0  0  0  0  0  0
  142.5420   80.7840  222.3020 C   0  0  0  0  0  0  0  0  0  0  0  0
  142.7360   80.5650  223.6490 C   0  0  0  0  0  0  0  0  0  0  0  0
  142.1960   79.4500  224.2660 C   0  0  0  0  0  0  0  0  0  0  0  0
  141.4640   78.5780  223.4860 C   0  0  0  0  0  0  0  0  0  0  0  0
  138.5830   78.9068  223.4080 H   0  0  0  0  0  0  0  0  0  0  0  0
  139.1536   79.9066  222.0291 H   0  0  0  0  0  0  0  0  0  0  0  0
  137.4830   79.2464  222.0291 H   0  0  0  0  0  0  0  0  0  0  0  0
  138.4927   77.7284  220.6566 H   0  0  0  0  0  0  0  0  0  0  0  0
  138.8162   76.9560  223.5831 H   0  0  0  0  0  0  0  0  0  0  0  0
  137.7253   76.2495  222.3431 H   0  0  0  0  0  0  0  0  0  0  0  0
  139.4730   75.8345  222.3431 H   0  0  0  0  0  0  0  0  0  0  0  0
  140.4986   78.2115  220.2765 H   0  0  0  0  0  0  0  0  0  0  0  0
  141.6410   76.2910  222.1980 H   0  0  0  0  0  0  0  0  0  0  0  0
  141.1307   73.7320  219.3766 H   0  0  0  0  0  0  0  0  0  0  0  0
  142.6241   74.4091  220.2215 H   0  0  0  0  0  0  0  0  0  0  0  0
  141.7810   73.6030  222.3310 H   0  0  0  0  0  0  0  0  0  0  0  0
  138.9625   70.0898  221.6548 H   0  0  0  0  0  0  0  0  0  0  0  0
  138.6118   68.7542  223.7187 H   0  0  0  0  0  0  0  0  0  0  0  0
  139.0221   68.4810  226.0831 H   0  0  0  0  0  0  0  0  0  0  0  0
  141.4111   71.3405  228.2604 H   0  0  0  0  0  0  0  0  0  0  0  0
  141.7051   72.6195  226.1291 H   0  0  0  0  0  0  0  0  0  0  0  0
  141.6639   80.0910  220.4630 H   0  0  0  0  0  0  0  0  0  0  0  0
  142.9793   81.6763  221.8302 H   0  0  0  0  0  0  0  0  0  0  0  0
  143.3251   81.2827  224.2387 H   0  0  0  0  0  0  0  0  0  0  0  0
  142.3450   79.2654  225.3401 H   0  0  0  0  0  0  0  0  0  0  0  0
  141.0290   77.6877  223.9636 H   0  0  0  0  0  0  0  0  0  0  0  0
  1  2  1  0
  2  3  1  0
  2  4  1  0
  4  5  1  0
  5  6  1  0
  6  7  2  0
  6  8  1  0
  8  9  1  0
  9 10  1  0
 10 11  2  0
 10 12  1  0
 12 13  2  0
 13 14  1  0
 14 15  2  0
 15 16  1  0
 16 17  2  0
 17 18  1  0
 17 19  1  0
 19 20  2  0
 20 21  1  0
 21 22  2  0
  4 23  1  0
 23 24  2  0
 24 25  1  0
 25 26  2  0
 26 27  1  0
 27 28  2  0
 22 12  1  0
 28 23  1  0
 21 15  1  0
  1 29  1  0
  1 30  1  0
  1 31  1  0
  2 32  1  0
  3 33  1  0
  3 34  1  0
  3 35  1  0
  4 36  1  6
  5 37  1  0
  8 38  1  0
  8 39  1  0
  9 40  1  0
 13 41  1  0
 14 42  1  0
 16 43  1  0
 19 44  1  0
 20 45  1  0
 24 46  1  0
 25 47  1  0
 26 48  1  0
 27 49  1  0
 28 50  1  0
M  END
>  <smiles>  (10) 
CC(C)[C@H](NC(=O)CNC(=O)c1ccc2cc(Cl)ccc2n1)c1ccccc1

>  <score_type>  (10) 
oracle

>  <origin>  (10) 
autodockgpu

>  <m_score__min__energy>  (10) 
-8.7699999999999996

>  <m_primary>  (10) 
energy

>  <rmsd>  (10) 
4.093420696622359

>  <m_score__min__rmsd>  (10) 
4.093420696622359

>  <meeko>  (10) 
{"free_energy": -8.04, "intermolecular_energy": -9.83, "internal_energy": -1.58, "cluster_size": 11, "cluster_id": 1, "rank_in_cluster": 7}

>  <energy>  (10) 
-7.35

>  <cluster_rmsd>  (10) 
1.9

>  <cluster>  (10) 
1

$$$$

     RDKit          3D

 50 52  0  0  0  0  0  0  0  0999 V2000
  138.7350   68.0140  223.4390 C   0  0  0  0  0  0  0  0  0  0  0  0
  139.5540   68.6230  224.5510 C   0  0  0  0  0  0  0  0  0  0  0  0
  139.6020   67.6190  225.6850 C   0  0  0  0  0  0  0  0  0  0  0  0
  138.9960   69.9000  225.0670 C   0  0  2  0  0  0  0  0  0  0  0  0
  138.6500   70.8270  224.0170 N   0  0  0  0  0  0  0  0  0  0  0  0
  137.3200   70.9470  223.5440 C   0  0  0  0  0  0  0  0  0  0  0  0
  136.4130   70.2180  224.0630 O   0  0  0  0  0  0  0  0  0  0  0  0
  136.8860   71.8680  222.4740 C   0  0  0  0  0  0  0  0  0  0  0  0
  137.6180   73.0870  222.3720 N   0  0  0  0  0  0  0  0  0  0  0  0
  138.9860   73.1400  221.9240 C   0  0  0  0  0  0  0  0  0  0  0  0
  139.6190   72.1010  221.5880 O   0  0  0  0  0  0  0  0  0  0  0  0
  139.6760   74.4460  221.8540 C   0  0  0  0  0  0  0  0  0  0  0  0
  140.8920   74.5460  221.2410 C   0  0  0  0  0  0  0  0  0  0  0  0
  141.5510   75.7550  221.1670 C   0  0  0  0  0  0  0  0  0  0  0  0
  140.9580   76.8610  221.7230 C   0  0  0  0  0  0  0  0  0  0  0  0
  141.5660   78.0890  221.6790 C   0  0  0  0  0  0  0  0  0  0  0  0
  140.9690   79.1960  222.2370 C   0  0  0  0  0  0  0  0  0  0  0  0
  141.8090   80.7390  222.1410 Cl  0  0  0  0  0  0  0  0  0  0  0  0
  139.7350   79.1270  222.8660 C   0  0  0  0  0  0  0  0  0  0  0  0
  139.1320   77.8760  222.9020 C   0  0  0  0  0  0  0  0  0  0  0  0
  139.7260   76.7560  222.3430 C   0  0  0  0  0  0  0  0  0  0  0  0
  139.1080   75.5570  222.3990 N   0  0  0  0  0  0  0  0  0  0  0  0
  139.8400   70.5790  226.0590 C   0  0  0  0  0  0  0  0  0  0  0  0
  140.7590   71.5400  225.6280 C   0  0  0  0  0  0  0  0  0  0  0  0
  141.5540   72.1830  226.5510 C   0  0  0  0  0  0  0  0  0  0  0  0
  141.4610   71.8930  227.8950 C   0  0  0  0  0  0  0  0  0  0  0  0
  140.5610   70.9440  228.3500 C   0  0  0  0  0  0  0  0  0  0  0  0
  139.7710   70.3110  227.4130 C   0  0  0  0  0  0  0  0  0  0  0  0
  137.9229   67.4101  223.8701 H   0  0  0  0  0  0  0  0  0  0  0  0
  138.3067   68.8147  222.8182 H   0  0  0  0  0  0  0  0  0  0  0  0
  139.3785   67.3733  222.8182 H   0  0  0  0  0  0  0  0  0  0  0  0
  140.5506   68.8554  224.1475 H   0  0  0  0  0  0  0  0  0  0  0  0
  139.5766   68.1513  226.6473 H   0  0  0  0  0  0  0  0  0  0  0  0
  138.7350   66.9456  225.6154 H   0  0  0  0  0  0  0  0  0  0  0  0
  140.5293   67.0314  225.6154 H   0  0  0  0  0  0  0  0  0  0  0  0
  138.0781   69.5828  225.5835 H   0  0  0  0  0  0  0  0  0  0  0  0
  139.4140   71.4140  223.6250 H   0  0  0  0  0  0  0  0  0  0  0  0
  136.9772   71.3379  221.5145 H   0  0  0  0  0  0  0  0  0  0  0  0
  135.8557   72.1577  222.7279 H   0  0  0  0  0  0  0  0  0  0  0  0
  137.2010   74.0330  222.6200 H   0  0  0  0  0  0  0  0  0  0  0  0
  141.3524   73.6496  220.8000 H   0  0  0  0  0  0  0  0  0  0  0  0
  142.5309   75.8315  220.6730 H   0  0  0  0  0  0  0  0  0  0  0  0
  142.5461   78.1908  221.1901 H   0  0  0  0  0  0  0  0  0  0  0  0
  139.2601   80.0135  223.3116 H   0  0  0  0  0  0  0  0  0  0  0  0
  138.1517   77.7713  223.3899 H   0  0  0  0  0  0  0  0  0  0  0  0
  140.8468   71.7813  224.5584 H   0  0  0  0  0  0  0  0  0  0  0  0
  142.2750   72.9404  226.2097 H   0  0  0  0  0  0  0  0  0  0  0  0
  142.1072   72.4199  228.6125 H   0  0  0  0  0  0  0  0  0  0  0  0
  140.4790   70.7036  229.4203 H   0  0  0  0  0  0  0  0  0  0  0  0
  139.0507   69.5558  227.7606 H   0  0  0  0  0  0  0  0  0  0  0  0
  1  2  1  0
  2  3  1  0
  2  4  1  0
  4  5  1  0
  5  6  1  0
  6  7  2  0
  6  8  1  0
  8  9  1  0
  9 10  1  0
 10 11  2  0
 10 12  1  0
 12 13  2  0
 13 14  1  0
 14 15  2  0
 15 16  1  0
 16 17  2  0
 17 18  1  0
 17 19  1  0
 19 20  2  0
 20 21  1  0
 21 22  2  0
  4 23  1  0
 23 24  2  0
 24 25  1  0
 25 26  2  0
 26 27  1  0
 27 28  2  0
 22 12  1  0
 28 23  1  0
 21 15  1  0
  1 29  1  0
  1 30  1  0
  1 31  1  0
  2 32  1  0
  3 33  1  0
  3 34  1  0
  3 35  1  0
  4 36  1  1
  5 37  1  0
  8 38  1  0
  8 39  1  0
  9 40  1  0
 13 41  1  0
 14 42  1  0
 16 43  1  0
 19 44  1  0
 20 45  1  0
 24 46  1  0
 25 47  1  0
 26 48  1  0
 27 49  1  0
 28 50  1  0
M  END
>  <smiles>  (11) 
CC(C)[C@H](NC(=O)CNC(=O)c1ccc2cc(Cl)ccc2n1)c1ccccc1

>  <score_type>  (11) 
oracle

>  <origin>  (11) 
autodockgpu

>  <m_score__min__energy>  (11) 
-8.7699999999999996

>  <m_primary>  (11) 
energy

>  <rmsd>  (11) 
9.526285371681325

>  <m_score__min__rmsd>  (11) 
9.526285371681325

>  <meeko>  (11) 
{"free_energy": -7.76, "intermolecular_energy": -9.55, "internal_energy": -2.4, "cluster_size": 11, "cluster_id": 3, "rank_in_cluster": 6}

>  <energy>  (11) 
-7.3

>  <cluster_rmsd>  (11) 
1.8

>  <cluster>  (11) 
1

$$$$

     RDKit          3D

 50 52  0  0  0  0  0  0  0  0999 V2000
  139.5840   69.8870  221.9150 C   0  0  0  0  0  0  0  0  0  0  0  0
  139.2010   69.2440  223.2270 C   0  0  0  0  0  0  0  0  0  0  0  0
  138.1950   68.1530  222.9230 C   0  0  0  0  0  0  0  0  0  0  0  0
  138.5980   70.1940  224.1970 C   0  0  2  0  0  0  0  0  0  0  0  0
  138.1360   71.4130  223.5790 N   0  0  0  0  0  0  0  0  0  0  0  0
  136.7850   71.5780  223.1880 C   0  0  0  0  0  0  0  0  0  0  0  0
  135.9620   70.6260  223.3930 O   0  0  0  0  0  0  0  0  0  0  0  0
  136.2340   72.7910  222.5490 C   0  0  0  0  0  0  0  0  0  0  0  0
  137.0770   73.9400  222.5730 N   0  0  0  0  0  0  0  0  0  0  0  0
  138.3890   73.9590  221.9750 C   0  0  0  0  0  0  0  0  0  0  0  0
  138.8670   72.9500  221.3860 O   0  0  0  0  0  0  0  0  0  0  0  0
  139.2030   75.1910  222.0510 C   0  0  0  0  0  0  0  0  0  0  0  0
  140.4870   75.1920  221.5870 C   0  0  0  0  0  0  0  0  0  0  0  0
  141.2620   76.3310  221.6490 C   0  0  0  0  0  0  0  0  0  0  0  0
  140.7140   77.4680  222.1900 C   0  0  0  0  0  0  0  0  0  0  0  0
  141.4370   78.6290  222.2780 C   0  0  0  0  0  0  0  0  0  0  0  0
  140.8860   79.7690  222.8200 C   0  0  0  0  0  0  0  0  0  0  0  0
  141.8750   81.2210  222.8990 Cl  0  0  0  0  0  0  0  0  0  0  0  0
  139.5860   79.7990  223.3000 C   0  0  0  0  0  0  0  0  0  0  0  0
  138.8670   78.6140  223.2030 C   0  0  0  0  0  0  0  0  0  0  0  0
  139.4140   77.4630  222.6590 C   0  0  0  0  0  0  0  0  0  0  0  0
  138.6830   76.3300  222.5830 N   0  0  0  0  0  0  0  0  0  0  0  0
  139.4570   70.5240  225.3430 C   0  0  0  0  0  0  0  0  0  0  0  0
  139.3590   69.7590  226.5090 C   0  0  0  0  0  0  0  0  0  0  0  0
  140.1610   70.0600  227.5890 C   0  0  0  0  0  0  0  0  0  0  0  0
  141.0590   71.1050  227.5380 C   0  0  0  0  0  0  0  0  0  0  0  0
  141.1760   71.8780  226.3960 C   0  0  0  0  0  0  0  0  0  0  0  0
  140.3660   71.5630  225.3240 C   0  0  0  0  0  0  0  0  0  0  0  0
  140.1380   70.8170  222.1104 H   0  0  0  0  0  0  0  0  0  0  0  0
  140.2181   69.1965  221.3396 H   0  0  0  0  0  0  0  0  0  0  0  0
  138.6748   70.1157  221.3396 H   0  0  0  0  0  0  0  0  0  0  0  0
  140.1181   68.8565  223.6947 H   0  0  0  0  0  0  0  0  0  0  0  0
  137.8104   67.7359  223.8654 H   0  0  0  0  0  0  0  0  0  0  0  0
  137.3618   68.5743  222.3414 H   0  0  0  0  0  0  0  0  0  0  0  0
  138.6823   67.3566  222.3414 H   0  0  0  0  0  0  0  0  0  0  0  0
  137.7322   69.6384  224.5866 H   0  0  0  0  0  0  0  0  0  0  0  0
  138.8320   72.1720  223.4380 H   0  0  0  0  0  0  0  0  0  0  0  0
  136.0197   72.5511  221.4971 H   0  0  0  0  0  0  0  0  0  0  0  0
  135.3434   73.0605  223.1357 H   0  0  0  0  0  0  0  0  0  0  0  0
  136.7920   74.8560  223.0320 H   0  0  0  0  0  0  0  0  0  0  0  0
  140.9092   74.2714  221.1577 H   0  0  0  0  0  0  0  0  0  0  0  0
  142.2959   76.3288  221.2735 H   0  0  0  0  0  0  0  0  0  0  0  0
  142.4734   78.6507  221.9100 H   0  0  0  0  0  0  0  0  0  0  0  0
  139.1480   80.7101  223.7335 H   0  0  0  0  0  0  0  0  0  0  0  0
  137.8303   78.5888  223.5699 H   0  0  0  0  0  0  0  0  0  0  0  0
  138.6467   68.9226  226.5643 H   0  0  0  0  0  0  0  0  0  0  0  0
  140.0833   69.4571  228.5058 H   0  0  0  0  0  0  0  0  0  0  0  0
  141.6881   71.3263  228.4128 H   0  0  0  0  0  0  0  0  0  0  0  0
  141.8893   72.7138  226.3446 H   0  0  0  0  0  0  0  0  0  0  0  0
  140.4486   72.1693  224.4099 H   0  0  0  0  0  0  0  0  0  0  0  0
  1  2  1  0
  2  3  1  0
  2  4  1  0
  4  5  1  0
  5  6  1  0
  6  7  2  0
  6  8  1  0
  8  9  1  0
  9 10  1  0
 10 11  2  0
 10 12  1  0
 12 13  2  0
 13 14  1  0
 14 15  2  0
 15 16  1  0
 16 17  2  0
 17 18  1  0
 17 19  1  0
 19 20  2  0
 20 21  1  0
 21 22  2  0
  4 23  1  0
 23 24  2  0
 24 25  1  0
 25 26  2  0
 26 27  1  0
 27 28  2  0
 22 12  1  0
 28 23  1  0
 21 15  1  0
  1 29  1  0
  1 30  1  0
  1 31  1  0
  2 32  1  0
  3 33  1  0
  3 34  1  0
  3 35  1  0
  4 36  1  1
  5 37  1  0
  8 38  1  0
  8 39  1  0
  9 40  1  0
 13 41  1  0
 14 42  1  0
 16 43  1  0
 19 44  1  0
 20 45  1  0
 24 46  1  0
 25 47  1  0
 26 48  1  0
 27 49  1  0
 28 50  1  0
M  END
>  <smiles>  (12) 
CC(C)[C@H](NC(=O)CNC(=O)c1ccc2cc(Cl)ccc2n1)c1ccccc1

>  <score_type>  (12) 
oracle

>  <origin>  (12) 
autodockgpu

>  <m_score__min__energy>  (12) 
-8.7699999999999996

>  <m_primary>  (12) 
energy

>  <rmsd>  (12) 
9.391088389615987

>  <m_score__min__rmsd>  (12) 
9.391088389615987

>  <meeko>  (12) 
{"free_energy": -7.34, "intermolecular_energy": -9.13, "internal_energy": -2.5, "cluster_size": 11, "cluster_id": 3, "rank_in_cluster": 10}

>  <energy>  (12) 
-8.6

>  <cluster_rmsd>  (12) 
0.0

>  <cluster>  (12) 
2

$$$$

     RDKit          3D

 50 52  0  0  0  0  0  0  0  0999 V2000
  141.5550   77.0710  220.4240 C   0  0  0  0  0  0  0  0  0  0  0  0
  142.7230   76.4790  219.6720 C   0  0  0  0  0  0  0  0  0  0  0  0
  142.8080   77.1860  218.3350 C   0  0  0  0  0  0  0  0  0  0  0  0
  142.5950   75.0190  219.4340 C   0  0  2  0  0  0  0  0  0  0  0  0
  141.3900   74.4600  219.9980 N   0  0  0  0  0  0  0  0  0  0  0  0
  140.3600   73.9420  219.1770 C   0  0  0  0  0  0  0  0  0  0  0  0
  140.5080   73.9690  217.9110 O   0  0  0  0  0  0  0  0  0  0  0  0
  139.0980   73.3560  219.6750 C   0  0  0  0  0  0  0  0  0  0  0  0
  139.2240   72.4630  220.7780 N   0  0  0  0  0  0  0  0  0  0  0  0
  139.7130   72.8790  222.0690 C   0  0  0  0  0  0  0  0  0  0  0  0
  140.0560   74.0720  222.2980 O   0  0  0  0  0  0  0  0  0  0  0  0
  139.8200   71.8860  223.1590 C   0  0  0  0  0  0  0  0  0  0  0  0
  139.4130   70.5990  222.9550 C   0  0  0  0  0  0  0  0  0  0  0  0
  139.5060   69.6580  223.9590 C   0  0  0  0  0  0  0  0  0  0  0  0
  140.0180   70.0440  225.1730 C   0  0  0  0  0  0  0  0  0  0  0  0
  140.1330   69.1530  226.2080 C   0  0  0  0  0  0  0  0  0  0  0  0
  140.6470   69.5420  227.4250 C   0  0  0  0  0  0  0  0  0  0  0  0
  140.7650   68.3420  228.7060 Cl  0  0  0  0  0  0  0  0  0  0  0  0
  141.0690   70.8410  227.6630 C   0  0  0  0  0  0  0  0  0  0  0  0
  140.9450   71.7310  226.6040 C   0  0  0  0  0  0  0  0  0  0  0  0
  140.4290   71.3480  225.3760 C   0  0  0  0  0  0  0  0  0  0  0  0
  140.3240   72.2440  224.3710 N   0  0  0  0  0  0  0  0  0  0  0  0
  143.7520   74.2250  219.8720 C   0  0  0  0  0  0  0  0  0  0  0  0
  143.7380   72.8400  219.6860 C   0  0  0  0  0  0  0  0  0  0  0  0
  144.8180   72.0880  220.0920 C   0  0  0  0  0  0  0  0  0  0  0  0
  145.9150   72.6800  220.6820 C   0  0  0  0  0  0  0  0  0  0  0  0
  145.9550   74.0490  220.8790 C   0  0  0  0  0  0  0  0  0  0  0  0
  144.8660   74.7880  220.4660 C   0  0  0  0  0  0  0  0  0  0  0  0
  141.7321   76.9813  221.5059 H   0  0  0  0  0  0  0  0  0  0  0  0
  141.4471   78.1326  220.1569 H   0  0  0  0  0  0  0  0  0  0  0  0
  140.6350   76.5304  220.1569 H   0  0  0  0  0  0  0  0  0  0  0  0
  143.6260   76.6189  220.2843 H   0  0  0  0  0  0  0  0  0  0  0  0
  142.9378   78.2659  218.4989 H   0  0  0  0  0  0  0  0  0  0  0  0
  143.6657   76.7955  217.7676 H   0  0  0  0  0  0  0  0  0  0  0  0
  141.8822   77.0099  217.7676 H   0  0  0  0  0  0  0  0  0  0  0  0
  142.5456   74.9469  218.3375 H   0  0  0  0  0  0  0  0  0  0  0  0
  141.3090   74.4440  221.0350 H   0  0  0  0  0  0  0  0  0  0  0  0
  138.4401   74.1822  219.9826 H   0  0  0  0  0  0  0  0  0  0  0  0
  138.6996   72.7533  218.8455 H   0  0  0  0  0  0  0  0  0  0  0  0
  138.9650   71.4330  220.7190 H   0  0  0  0  0  0  0  0  0  0  0  0
  139.0050   70.3083  221.9757 H   0  0  0  0  0  0  0  0  0  0  0  0
  139.1774   68.6218  223.7909 H   0  0  0  0  0  0  0  0  0  0  0  0
  139.8098   68.1114  226.0645 H   0  0  0  0  0  0  0  0  0  0  0  0
  141.4790   71.1495  228.6360 H   0  0  0  0  0  0  0  0  0  0  0  0
  141.2667   72.7735  226.7444 H   0  0  0  0  0  0  0  0  0  0  0  0
  142.8695   72.3534  219.2181 H   0  0  0  0  0  0  0  0  0  0  0  0
  144.8054   70.9982  219.9433 H   0  0  0  0  0  0  0  0  0  0  0  0
  146.7655   72.0585  220.9987 H   0  0  0  0  0  0  0  0  0  0  0  0
  146.8250   74.5312  221.3486 H   0  0  0  0  0  0  0  0  0  0  0  0
  144.8849   75.8775  220.6165 H   0  0  0  0  0  0  0  0  0  0  0  0
  1  2  1  0
  2  3  1  0
  2  4  1  0
  4  5  1  0
  5  6  1  0
  6  7  2  0
  6  8  1  0
  8  9  1  0
  9 10  1  0
 10 11  2  0
 10 12  1  0
 12 13  2  0
 13 14  1  0
 14 15  2  0
 15 16  1  0
 16 17  2  0
 17 18  1  0
 17 19  1  0
 19 20  2  0
 20 21  1  0
 21 22  2  0
  4 23  1  0
 23 24  2  0
 24 25  1  0
 25 26  2  0
 26 27  1  0
 27 28  2  0
 22 12  1  0
 28 23  1  0
 21 15  1  0
  1 29  1  0
  1 30  1  0
  1 31  1  0
  2 32  1  0
  3 33  1  0
  3 34  1  0
  3 35  1  0
  4 36  1  6
  5 37  1  0
  8 38  1  0
  8 39  1  0
  9 40  1  0
 13 41  1  0
 14 42  1  0
 16 43  1  0
 19 44  1  0
 20 45  1  0
 24 46  1  0
 25 47  1  0
 26 48  1  0
 27 49  1  0
 28 50  1  0
M  END
>  <smiles>  (13) 
CC(C)[C@H](NC(=O)CNC(=O)c1ccc2cc(Cl)ccc2n1)c1ccccc1

>  <score_type>  (13) 
oracle

>  <origin>  (13) 
autodockgpu

>  <m_score__min__energy>  (13) 
-8.7699999999999996

>  <m_primary>  (13) 
energy

>  <rmsd>  (13) 
6.411686278579331

>  <m_score__min__rmsd>  (13) 
6.411686278579331

>  <meeko>  (13) 
{"free_energy": -8.05, "intermolecular_energy": -9.84, "internal_energy": -2.13, "cluster_size": 12, "cluster_id": 4, "rank_in_cluster": 3}

>  <energy>  (13) 
-8.57

>  <cluster_rmsd>  (13) 
0.09

>  <cluster>  (13) 
2

$$$$

     RDKit          3D

 50 52  0  0  0  0  0  0  0  0999 V2000
  138.8280   67.9480  223.3120 C   0  0  0  0  0  0  0  0  0  0  0  0
  138.3850   69.3090  222.8320 C   0  0  0  0  0  0  0  0  0  0  0  0
  139.5290   69.9070  222.0390 C   0  0  0  0  0  0  0  0  0  0  0  0
  138.0290   70.2390  223.9350 C   0  0  2  0  0  0  0  0  0  0  0  0
  137.6230   71.5400  223.4650 N   0  0  0  0  0  0  0  0  0  0  0  0
  136.2870   71.8020  223.0740 C   0  0  0  0  0  0  0  0  0  0  0  0
  135.4280   70.8620  223.1450 O   0  0  0  0  0  0  0  0  0  0  0  0
  135.7920   73.1040  222.5810 C   0  0  0  0  0  0  0  0  0  0  0  0
  136.7320   74.1740  222.6090 N   0  0  0  0  0  0  0  0  0  0  0  0
  138.0250   74.0950  221.9760 C   0  0  0  0  0  0  0  0  0  0  0  0
  138.3980   73.0640  221.3510 O   0  0  0  0  0  0  0  0  0  0  0  0
  138.9450   75.2490  222.0590 C   0  0  0  0  0  0  0  0  0  0  0  0
  140.2210   75.1420  221.5830 C   0  0  0  0  0  0  0  0  0  0  0  0
  141.0940   76.2080  221.6520 C   0  0  0  0  0  0  0  0  0  0  0  0
  140.6530   77.3820  222.2090 C   0  0  0  0  0  0  0  0  0  0  0  0
  141.4760   78.4740  222.3040 C   0  0  0  0  0  0  0  0  0  0  0  0
  141.0320   79.6510  222.8630 C   0  0  0  0  0  0  0  0  0  0  0  0
  142.1450   81.0100  222.9490 Cl  0  0  0  0  0  0  0  0  0  0  0  0
  139.7420   79.7900  223.3540 C   0  0  0  0  0  0  0  0  0  0  0  0
  138.9210   78.6740  223.2510 C   0  0  0  0  0  0  0  0  0  0  0  0
  139.3600   77.4860  222.6890 C   0  0  0  0  0  0  0  0  0  0  0  0
  138.5310   76.4240  222.6070 N   0  0  0  0  0  0  0  0  0  0  0  0
  139.0700   70.3940  224.9610 C   0  0  0  0  0  0  0  0  0  0  0  0
  139.0790   69.5280  226.0580 C   0  0  0  0  0  0  0  0  0  0  0  0
  140.0510   69.6650  227.0250 C   0  0  0  0  0  0  0  0  0  0  0  0
  141.0160   70.6440  226.9290 C   0  0  0  0  0  0  0  0  0  0  0  0
  141.0300   71.5160  225.8540 C   0  0  0  0  0  0  0  0  0  0  0  0
  140.0510   71.3650  224.8940 C   0  0  0  0  0  0  0  0  0  0  0  0
  138.8335   67.9310  224.4119 H   0  0  0  0  0  0  0  0  0  0  0  0
  138.1326   67.1827  222.9369 H   0  0  0  0  0  0  0  0  0  0  0  0
  139.8407   67.7386  222.9369 H   0  0  0  0  0  0  0  0  0  0  0  0
  137.4752   69.1752  222.2284 H   0  0  0  0  0  0  0  0  0  0  0  0
  140.2870   70.3032  222.7307 H   0  0  0  0  0  0  0  0  0  0  0  0
  139.9814   69.1300  221.4052 H   0  0  0  0  0  0  0  0  0  0  0  0
  139.1493   70.7220  221.4052 H   0  0  0  0  0  0  0  0  0  0  0  0
  137.1695   69.7460  224.4127 H   0  0  0  0  0  0  0  0  0  0  0  0
  138.3470   72.2860  223.4310 H   0  0  0  0  0  0  0  0  0  0  0  0
  135.4652   72.9687  221.5394 H   0  0  0  0  0  0  0  0  0  0  0  0
  134.9844   73.3969  223.2680 H   0  0  0  0  0  0  0  0  0  0  0  0
  136.5400   75.0990  223.0980 H   0  0  0  0  0  0  0  0  0  0  0  0
  140.5568   74.1933  221.1388 H   0  0  0  0  0  0  0  0  0  0  0  0
  142.1212   76.1188  221.2688 H   0  0  0  0  0  0  0  0  0  0  0  0
  142.5075   78.4088  221.9276 H   0  0  0  0  0  0  0  0  0  0  0  0
  139.3888   80.7314  223.8001 H   0  0  0  0  0  0  0  0  0  0  0  0
  137.8893   78.7355  223.6277 H   0  0  0  0  0  0  0  0  0  0  0  0
  138.3149   68.7420  226.1488 H   0  0  0  0  0  0  0  0  0  0  0  0
  140.0567   68.9820  227.8873 H   0  0  0  0  0  0  0  0  0  0  0  0
  141.7819   70.7333  227.7135 H   0  0  0  0  0  0  0  0  0  0  0  0
  141.7950   72.3018  225.7683 H   0  0  0  0  0  0  0  0  0  0  0  0
  140.0512   72.0505  224.0337 H   0  0  0  0  0  0  0  0  0  0  0  0
  1  2  1  0
  2  3  1  0
  2  4  1  0
  4  5  1  0
  5  6  1  0
  6  7  2  0
  6  8  1  0
  8  9  1  0
  9 10  1  0
 10 11  2  0
 10 12  1  0
 12 13  2  0
 13 14  1  0
 14 15  2  0
 15 16  1  0
 16 17  2  0
 17 18  1  0
 17 19  1  0
 19 20  2  0
 20 21  1  0
 21 22  2  0
  4 23  1  0
 23 24  2  0
 24 25  1  0
 25 26  2  0
 26 27  1  0
 27 28  2  0
 22 12  1  0
 28 23  1  0
 21 15  1  0
  1 29  1  0
  1 30  1  0
  1 31  1  0
  2 32  1  0
  3 33  1  0
  3 34  1  0
  3 35  1  0
  4 36  1  1
  5 37  1  0
  8 38  1  0
  8 39  1  0
  9 40  1  0
 13 41  1  0
 14 42  1  0
 16 43  1  0
 19 44  1  0
 20 45  1  0
 24 46  1  0
 25 47  1  0
 26 48  1  0
 27 49  1  0
 28 50  1  0
M  END
>  <smiles>  (14) 
CC(C)[C@H](NC(=O)CNC(=O)c1ccc2cc(Cl)ccc2n1)c1ccccc1

>  <score_type>  (14) 
oracle

>  <origin>  (14) 
autodockgpu

>  <m_score__min__energy>  (14) 
-8.7699999999999996

>  <m_primary>  (14) 
energy

>  <rmsd>  (14) 
9.454699567543674

>  <m_score__min__rmsd>  (14) 
9.454699567543674

>  <meeko>  (14) 
{"free_energy": -7.18, "intermolecular_energy": -8.97, "internal_energy": -2.4, "cluster_size": 11, "cluster_id": 3, "rank_in_cluster": 11}

>  <energy>  (14) 
-8.44

>  <cluster_rmsd>  (14) 
0.13

>  <cluster>  (14) 
2

$$$$

     RDKit          3D

 50 52  0  0  0  0  0  0  0  0999 V2000
  137.4630   76.7620  222.4720 C   0  0  0  0  0  0  0  0  0  0  0  0
  138.3700   77.9330  222.7660 C   0  0  0  0  0  0  0  0  0  0  0  0
  137.5740   79.1980  222.5190 C   0  0  0  0  0  0  0  0  0  0  0  0
  139.5910   77.9630  221.9200 C   0  0  2  0  0  0  0  0  0  0  0  0
  140.1590   76.6540  221.7060 N   0  0  0  0  0  0  0  0  0  0  0  0
  141.1710   76.4360  220.7400 C   0  0  0  0  0  0  0  0  0  0  0  0
  141.5860   77.4220  220.0480 O   0  0  0  0  0  0  0  0  0  0  0  0
  141.8020   75.1290  220.4600 C   0  0  0  0  0  0  0  0  0  0  0  0
  141.4460   74.0690  221.3420 N   0  0  0  0  0  0  0  0  0  0  0  0
  140.0800   73.6780  221.5830 C   0  0  0  0  0  0  0  0  0  0  0  0
  139.1120   74.2560  221.0160 O   0  0  0  0  0  0  0  0  0  0  0  0
  139.7960   72.5710  222.5210 C   0  0  0  0  0  0  0  0  0  0  0  0
  138.6360   71.8600  222.4100 C   0  0  0  0  0  0  0  0  0  0  0  0
  138.3540   70.8240  223.2760 C   0  0  0  0  0  0  0  0  0  0  0  0
  139.2670   70.5200  224.2540 C   0  0  0  0  0  0  0  0  0  0  0  0
  139.0410   69.5010  225.1420 C   0  0  0  0  0  0  0  0  0  0  0  0
  139.9580   69.1970  226.1230 C   0  0  0  0  0  0  0  0  0  0  0  0
  139.5990   67.8750  227.2260 Cl  0  0  0  0  0  0  0  0  0  0  0  0
  141.1460   69.9000  226.2600 C   0  0  0  0  0  0  0  0  0  0  0  0
  141.3600   70.9290  225.3520 C   0  0  0  0  0  0  0  0  0  0  0  0
  140.4420   71.2410  224.3630 C   0  0  0  0  0  0  0  0  0  0  0  0
  140.6870   72.2500  223.4990 N   0  0  0  0  0  0  0  0  0  0  0  0
  140.6380   78.8780  222.3930 C   0  0  0  0  0  0  0  0  0  0  0  0
  141.2170   78.6620  223.6470 C   0  0  0  0  0  0  0  0  0  0  0  0
  142.2000   79.5150  224.0980 C   0  0  0  0  0  0  0  0  0  0  0  0
  142.6230   80.5810  223.3330 C   0  0  0  0  0  0  0  0  0  0  0  0
  142.0670   80.8190  222.0880 C   0  0  0  0  0  0  0  0  0  0  0  0
  141.0840   79.9550  221.6510 C   0  0  0  0  0  0  0  0  0  0  0  0
  137.1191   76.3180  223.4179 H   0  0  0  0  0  0  0  0  0  0  0  0
  136.5945   77.1075  221.8920 H   0  0  0  0  0  0  0  0  0  0  0  0
  138.0146   76.0075  221.8920 H   0  0  0  0  0  0  0  0  0  0  0  0
  138.7119   77.8434  223.8077 H   0  0  0  0  0  0  0  0  0  0  0  0
  137.2913   79.6473  223.4824 H   0  0  0  0  0  0  0  0  0  0  0  0
  138.1865   79.9110  221.9476 H   0  0  0  0  0  0  0  0  0  0  0  0
  136.6662   78.9543  221.9476 H   0  0  0  0  0  0  0  0  0  0  0  0
  139.2234   78.3560  220.9606 H   0  0  0  0  0  0  0  0  0  0  0  0
  139.8040   75.8750  222.2970 H   0  0  0  0  0  0  0  0  0  0  0  0
  141.5195   74.8291  219.4401 H   0  0  0  0  0  0  0  0  0  0  0  0
  142.8826   75.2826  220.5971 H   0  0  0  0  0  0  0  0  0  0  0  0
  142.1660   73.4980  221.8780 H   0  0  0  0  0  0  0  0  0  0  0  0
  137.9161   72.1168  221.6189 H   0  0  0  0  0  0  0  0  0  0  0  0
  137.4176   70.2540  223.1845 H   0  0  0  0  0  0  0  0  0  0  0  0
  138.1119   68.9165  225.0699 H   0  0  0  0  0  0  0  0  0  0  0  0
  141.8779   69.6561  227.0441 H   0  0  0  0  0  0  0  0  0  0  0  0
  142.2884   71.5150  225.4206 H   0  0  0  0  0  0  0  0  0  0  0  0
  140.8896   77.8163  224.2695 H   0  0  0  0  0  0  0  0  0  0  0  0
  142.6549   79.3428  225.0846 H   0  0  0  0  0  0  0  0  0  0  0  0
  143.4094   81.2484  223.7154 H   0  0  0  0  0  0  0  0  0  0  0  0
  142.3970   81.6665  221.4692 H   0  0  0  0  0  0  0  0  0  0  0  0
  140.6332   80.1323  220.6634 H   0  0  0  0  0  0  0  0  0  0  0  0
  1  2  1  0
  2  3  1  0
  2  4  1  0
  4  5  1  0
  5  6  1  0
  6  7  2  0
  6  8  1  0
  8  9  1  0
  9 10  1  0
 10 11  2  0
 10 12  1  0
 12 13  2  0
 13 14  1  0
 14 15  2  0
 15 16  1  0
 16 17  2  0
 17 18  1  0
 17 19  1  0
 19 20  2  0
 20 21  1  0
 21 22  2  0
  4 23  1  0
 23 24  2  0
 24 25  1  0
 25 26  2  0
 26 27  1  0
 27 28  2  0
 22 12  1  0
 28 23  1  0
 21 15  1  0
  1 29  1  0
  1 30  1  0
  1 31  1  0
  2 32  1  0
  3 33  1  0
  3 34  1  0
  3 35  1  0
  4 36  1  6
  5 37  1  0
  8 38  1  0
  8 39  1  0
  9 40  1  0
 13 41  1  0
 14 42  1  0
 16 43  1  0
 19 44  1  0
 20 45  1  0
 24 46  1  0
 25 47  1  0
 26 48  1  0
 27 49  1  0
 28 50  1  0
M  END
>  <smiles>  (15) 
CC(C)[C@H](NC(=O)CNC(=O)c1ccc2cc(Cl)ccc2n1)c1ccccc1

>  <score_type>  (15) 
oracle

>  <origin>  (15) 
autodockgpu

>  <m_score__min__energy>  (15) 
-8.7699999999999996

>  <m_primary>  (15) 
energy

>  <rmsd>  (15) 
3.610802914035329

>  <m_score__min__rmsd>  (15) 
3.610802914035329

>  <meeko>  (15) 
{"free_energy": -7.35, "intermolecular_energy": -9.14, "internal_energy": -2.33, "cluster_size": 11, "cluster_id": 1, "rank_in_cluster": 10}

>  <energy>  (15) 
-8.43

>  <cluster_rmsd>  (15) 
0.16

>  <cluster>  (15) 
2

$$$$

     RDKit          3D

 50 52  0  0  0  0  0  0  0  0999 V2000
  140.4910   79.0590  218.5500 C   0  0  0  0  0  0  0  0  0  0  0  0
  141.7930   78.7400  219.2460 C   0  0  0  0  0  0  0  0  0  0  0  0
  142.5780   77.8130  218.3410 C   0  0  0  0  0  0  0  0  0  0  0  0
  141.6130   78.0810  220.5650 C   0  0  2  0  0  0  0  0  0  0  0  0
  140.4840   77.1840  220.5970 N   0  0  0  0  0  0  0  0  0  0  0  0
  140.5700   75.9070  221.2030 C   0  0  0  0  0  0  0  0  0  0  0  0
  141.6720   75.5500  221.7330 O   0  0  0  0  0  0  0  0  0  0  0  0
  139.4630   74.9320  221.2750 C   0  0  0  0  0  0  0  0  0  0  0  0
  139.5790   73.9370  222.2890 N   0  0  0  0  0  0  0  0  0  0  0  0
  139.7420   72.5360  221.9930 C   0  0  0  0  0  0  0  0  0  0  0  0
  139.7970   72.1070  220.8070 O   0  0  0  0  0  0  0  0  0  0  0  0
  139.8480   71.5670  223.1050 C   0  0  0  0  0  0  0  0  0  0  0  0
  139.4410   70.2750  222.9280 C   0  0  0  0  0  0  0  0  0  0  0  0
  139.5320   69.3570  223.9530 C   0  0  0  0  0  0  0  0  0  0  0  0
  140.0410   69.7700  225.1590 C   0  0  0  0  0  0  0  0  0  0  0  0
  140.1540   68.9010  226.2140 C   0  0  0  0  0  0  0  0  0  0  0  0
  140.6650   69.3170  227.4230 C   0  0  0  0  0  0  0  0  0  0  0  0
  140.7810   68.1450  228.7300 Cl  0  0  0  0  0  0  0  0  0  0  0  0
  141.0860   70.6210  227.6330 C   0  0  0  0  0  0  0  0  0  0  0  0
  140.9640   71.4880  226.5550 C   0  0  0  0  0  0  0  0  0  0  0  0
  140.4510   71.0780  225.3350 C   0  0  0  0  0  0  0  0  0  0  0  0
  140.3490   71.9510  224.3100 N   0  0  0  0  0  0  0  0  0  0  0  0
  141.5320   79.0070  221.7030 C   0  0  0  0  0  0  0  0  0  0  0  0
  140.2870   79.5190  222.0780 C   0  0  0  0  0  0  0  0  0  0  0  0
  140.2010   80.3870  223.1440 C   0  0  0  0  0  0  0  0  0  0  0  0
  141.3260   80.7610  223.8500 C   0  0  0  0  0  0  0  0  0  0  0  0
  142.5710   80.2700  223.5000 C   0  0  0  0  0  0  0  0  0  0  0  0
  142.6400   79.4010  222.4300 C   0  0  0  0  0  0  0  0  0  0  0  0
  139.7108   79.2502  219.3015 H   0  0  0  0  0  0  0  0  0  0  0  0
  140.6207   79.9519  217.9208 H   0  0  0  0  0  0  0  0  0  0  0  0
  140.1933   78.2072  217.9208 H   0  0  0  0  0  0  0  0  0  0  0  0
  142.3155   79.6889  219.4373 H   0  0  0  0  0  0  0  0  0  0  0  0
  143.1684   77.1158  218.9536 H   0  0  0  0  0  0  0  0  0  0  0  0
  141.8824   77.2446  217.7061 H   0  0  0  0  0  0  0  0  0  0  0  0
  143.2532   78.4055  217.7061 H   0  0  0  0  0  0  0  0  0  0  0  0
  142.5381   77.4977  220.6829 H   0  0  0  0  0  0  0  0  0  0  0  0
  139.5970   77.5140  220.1640 H   0  0  0  0  0  0  0  0  0  0  0  0
  138.5324   75.4903  221.4546 H   0  0  0  0  0  0  0  0  0  0  0  0
  139.4805   74.3883  220.3189 H   0  0  0  0  0  0  0  0  0  0  0  0
  139.5540   74.1650  223.3270 H   0  0  0  0  0  0  0  0  0  0  0  0
  139.0351   69.9627  221.9545 H   0  0  0  0  0  0  0  0  0  0  0  0
  139.2041   68.3172  223.8074 H   0  0  0  0  0  0  0  0  0  0  0  0
  139.8317   67.8563  226.0925 H   0  0  0  0  0  0  0  0  0  0  0  0
  141.4941   70.9507  228.5998 H   0  0  0  0  0  0  0  0  0  0  0  0
  141.2849   72.5335  226.6735 H   0  0  0  0  0  0  0  0  0  0  0  0
  139.3809   79.2305  221.5251 H   0  0  0  0  0  0  0  0  0  0  0  0
  139.2198   80.7885  223.4372 H   0  0  0  0  0  0  0  0  0  0  0  0
  141.2321   81.4552  224.6981 H   0  0  0  0  0  0  0  0  0  0  0  0
  143.4746   80.5620  224.0552 H   0  0  0  0  0  0  0  0  0  0  0  0
  143.6240   79.0027  222.1417 H   0  0  0  0  0  0  0  0  0  0  0  0
  1  2  1  0
  2  3  1  0
  2  4  1  0
  4  5  1  0
  5  6  1  0
  6  7  2  0
  6  8  1  0
  8  9  1  0
  9 10  1  0
 10 11  2  0
 10 12  1  0
 12 13  2  0
 13 14  1  0
 14 15  2  0
 15 16  1  0
 16 17  2  0
 17 18  1  0
 17 19  1  0
 19 20  2  0
 20 21  1  0
 21 22  2  0
  4 23  1  0
 23 24  2  0
 24 25  1  0
 25 26  2  0
 26 27  1  0
 27 28  2  0
 22 12  1  0
 28 23  1  0
 21 15  1  0
  1 29  1  0
  1 30  1  0
  1 31  1  0
  2 32  1  0
  3 33  1  0
  3 34  1  0
  3 35  1  0
  4 36  1  1
  5 37  1  0
  8 38  1  0
  8 39  1  0
  9 40  1  0
 13 41  1  0
 14 42  1  0
 16 43  1  0
 19 44  1  0
 20 45  1  0
 24 46  1  0
 25 47  1  0
 26 48  1  0
 27 49  1  0
 28 50  1  0
M  END
>  <smiles>  (16) 
CC(C)[C@H](NC(=O)CNC(=O)c1ccc2cc(Cl)ccc2n1)c1ccccc1

>  <score_type>  (16) 
oracle

>  <origin>  (16) 
autodockgpu

>  <m_score__min__energy>  (16) 
-8.7699999999999996

>  <m_primary>  (16) 
energy

>  <rmsd>  (16) 
3.767386785255964

>  <m_score__min__rmsd>  (16) 
3.767386785255964

>  <meeko>  (16) 
{"free_energy": -8.41, "intermolecular_energy": -10.2, "internal_energy": -1.48, "cluster_size": 11, "cluster_id": 1, "rank_in_cluster": 6}

>  <energy>  (16) 
-8.4

>  <cluster_rmsd>  (16) 
0.55

>  <cluster>  (16) 
2

$$$$

     RDKit          3D

 50 52  0  0  0  0  0  0  0  0999 V2000
  136.0950   75.3840  223.5300 C   0  0  0  0  0  0  0  0  0  0  0  0
  136.6380   76.7480  223.1750 C   0  0  0  0  0  0  0  0  0  0  0  0
  135.5140   77.5320  222.5300 C   0  0  0  0  0  0  0  0  0  0  0  0
  137.7880   76.7000  222.2360 C   0  0  2  0  0  0  0  0  0  0  0  0
  138.2170   75.3550  221.9380 N   0  0  0  0  0  0  0  0  0  0  0  0
  138.0710   74.8010  220.6430 C   0  0  0  0  0  0  0  0  0  0  0  0
  137.5510   75.5130  219.7230 O   0  0  0  0  0  0  0  0  0  0  0  0
  138.4830   73.4350  220.2600 C   0  0  0  0  0  0  0  0  0  0  0  0
  138.6790   72.5220  221.3360 N   0  0  0  0  0  0  0  0  0  0  0  0
  139.6900   72.7110  222.3450 C   0  0  0  0  0  0  0  0  0  0  0  0
  140.4640   73.7080  222.3360 O   0  0  0  0  0  0  0  0  0  0  0  0
  139.8330   71.7110  223.4250 C   0  0  0  0  0  0  0  0  0  0  0  0
  139.4670   70.4130  223.2090 C   0  0  0  0  0  0  0  0  0  0  0  0
  139.5930   69.4660  224.2040 C   0  0  0  0  0  0  0  0  0  0  0  0
  140.0950   69.8560  225.4210 C   0  0  0  0  0  0  0  0  0  0  0  0
  140.2420   68.9590  226.4470 C   0  0  0  0  0  0  0  0  0  0  0  0
  140.7470   69.3520  227.6660 C   0  0  0  0  0  0  0  0  0  0  0  0
  140.9080   68.1440  228.9340 Cl  0  0  0  0  0  0  0  0  0  0  0  0
  141.1270   70.6620  227.9150 C   0  0  0  0  0  0  0  0  0  0  0  0
  140.9710   71.5580  226.8660 C   0  0  0  0  0  0  0  0  0  0  0  0
  140.4650   71.1710  225.6360 C   0  0  0  0  0  0  0  0  0  0  0  0
  140.3280   72.0730  224.6400 N   0  0  0  0  0  0  0  0  0  0  0  0
  138.9480   77.5020  222.6500 C   0  0  0  0  0  0  0  0  0  0  0  0
  138.7380   78.7700  223.1990 C   0  0  0  0  0  0  0  0  0  0  0  0
  139.8190   79.5290  223.5920 C   0  0  0  0  0  0  0  0  0  0  0  0
  141.1070   79.0580  223.4520 C   0  0  0  0  0  0  0  0  0  0  0  0
  141.3440   77.8060  222.9110 C   0  0  0  0  0  0  0  0  0  0  0  0
  140.2510   77.0590  222.5230 C   0  0  0  0  0  0  0  0  0  0  0  0
  136.0533   75.2793  224.6242 H   0  0  0  0  0  0  0  0  0  0  0  0
  135.0837   75.2718  223.1122 H   0  0  0  0  0  0  0  0  0  0  0  0
  136.7526   74.6075  223.1122 H   0  0  0  0  0  0  0  0  0  0  0  0
  137.0058   77.2173  224.0994 H   0  0  0  0  0  0  0  0  0  0  0  0
  134.8797   77.9745  223.3122 H   0  0  0  0  0  0  0  0  0  0  0  0
  135.9368   78.3321  221.9047 H   0  0  0  0  0  0  0  0  0  0  0  0
  134.9092   76.8588  221.9047 H   0  0  0  0  0  0  0  0  0  0  0  0
  137.3839   77.1581  221.3212 H   0  0  0  0  0  0  0  0  0  0  0  0
  138.6480   74.8080  222.7110 H   0  0  0  0  0  0  0  0  0  0  0  0
  137.7051   73.0197  219.6024 H   0  0  0  0  0  0  0  0  0  0  0  0
  139.4655   73.5435  219.7774 H   0  0  0  0  0  0  0  0  0  0  0  0
  138.0910   71.6450  221.4630 H   0  0  0  0  0  0  0  0  0  0  0  0
  139.0661   70.1187  222.2278 H   0  0  0  0  0  0  0  0  0  0  0  0
  139.2978   68.4213  224.0264 H   0  0  0  0  0  0  0  0  0  0  0  0
  139.9520   67.9090  226.2940 H   0  0  0  0  0  0  0  0  0  0  0  0
  141.5298   70.9741  228.8898 H   0  0  0  0  0  0  0  0  0  0  0  0
  141.2585   72.6091  227.0165 H   0  0  0  0  0  0  0  0  0  0  0  0
  137.7161   79.1597  223.3167 H   0  0  0  0  0  0  0  0  0  0  0  0
  139.6515   80.5265  224.0243 H   0  0  0  0  0  0  0  0  0  0  0  0
  141.9538   79.6824  223.7730 H   0  0  0  0  0  0  0  0  0  0  0  0
  142.3676   77.4204  222.7946 H   0  0  0  0  0  0  0  0  0  0  0  0
  140.4250   76.0622  222.0915 H   0  0  0  0  0  0  0  0  0  0  0  0
  1  2  1  0
  2  3  1  0
  2  4  1  0
  4  5  1  0
  5  6  1  0
  6  7  2  0
  6  8  1  0
  8  9  1  0
  9 10  1  0
 10 11  2  0
 10 12  1  0
 12 13  2  0
 13 14  1  0
 14 15  2  0
 15 16  1  0
 16 17  2  0
 17 18  1  0
 17 19  1  0
 19 20  2  0
 20 21  1  0
 21 22  2  0
  4 23  1  0
 23 24  2  0
 24 25  1  0
 25 26  2  0
 26 27  1  0
 27 28  2  0
 22 12  1  0
 28 23  1  0
 21 15  1  0
  1 29  1  0
  1 30  1  0
  1 31  1  0
  2 32  1  0
  3 33  1  0
  3 34  1  0
  3 35  1  0
  4 36  1  6
  5 37  1  0
  8 38  1  0
  8 39  1  0
  9 40  1  0
 13 41  1  0
 14 42  1  0
 16 43  1  0
 19 44  1  0
 20 45  1  0
 24 46  1  0
 25 47  1  0
 26 48  1  0
 27 49  1  0
 28 50  1  0
M  END
>  <smiles>  (17) 
CC(C)[C@H](NC(=O)CNC(=O)c1ccc2cc(Cl)ccc2n1)c1ccccc1

>  <score_type>  (17) 
oracle

>  <origin>  (17) 
autodockgpu

>  <m_score__min__energy>  (17) 
-8.7699999999999996

>  <m_primary>  (17) 
energy

>  <rmsd>  (17) 
4.486070877205447

>  <m_score__min__rmsd>  (17) 
4.486070877205447

>  <meeko>  (17) 
{"free_energy": -8.01, "intermolecular_energy": -9.8, "internal_energy": -2.15, "cluster_size": 8, "cluster_id": 5, "rank_in_cluster": 8}

>  <energy>  (17) 
-7.51

>  <cluster_rmsd>  (17) 
1.28

>  <cluster>  (17) 
2

$$$$

     RDKit          3D

 50 52  0  0  0  0  0  0  0  0999 V2000
  135.9080   75.2010  223.5110 C   0  0  0  0  0  0  0  0  0  0  0  0
  136.4670   76.5640  223.1790 C   0  0  0  0  0  0  0  0  0  0  0  0
  135.3390   77.3890  222.5960 C   0  0  0  0  0  0  0  0  0  0  0  0
  137.5850   76.5230  222.2020 C   0  0  2  0  0  0  0  0  0  0  0  0
  138.0450   75.1840  221.9280 N   0  0  0  0  0  0  0  0  0  0  0  0
  137.9050   74.6010  220.6450 C   0  0  0  0  0  0  0  0  0  0  0  0
  137.3620   75.2820  219.7140 O   0  0  0  0  0  0  0  0  0  0  0  0
  138.3470   73.2380  220.2850 C   0  0  0  0  0  0  0  0  0  0  0  0
  138.5790   72.3540  221.3780 N   0  0  0  0  0  0  0  0  0  0  0  0
  139.5990   72.5870  222.3690 C   0  0  0  0  0  0  0  0  0  0  0  0
  140.3490   73.6010  222.3270 O   0  0  0  0  0  0  0  0  0  0  0  0
  139.7790   71.6150  223.4680 C   0  0  0  0  0  0  0  0  0  0  0  0
  139.4130   70.3110  223.2950 C   0  0  0  0  0  0  0  0  0  0  0  0
  139.5740   69.3890  224.3080 C   0  0  0  0  0  0  0  0  0  0  0  0
  140.1120   69.8110  225.4990 C   0  0  0  0  0  0  0  0  0  0  0  0
  140.2950   68.9400  226.5410 C   0  0  0  0  0  0  0  0  0  0  0  0
  140.8340   69.3640  227.7340 C   0  0  0  0  0  0  0  0  0  0  0  0
  141.0400   68.1890  229.0260 Cl  0  0  0  0  0  0  0  0  0  0  0  0
  141.2160   70.6810  227.9400 C   0  0  0  0  0  0  0  0  0  0  0  0
  141.0240   71.5510  226.8740 C   0  0  0  0  0  0  0  0  0  0  0  0
  140.4810   71.1320  225.6700 C   0  0  0  0  0  0  0  0  0  0  0  0
  140.3100   72.0080  224.6570 N   0  0  0  0  0  0  0  0  0  0  0  0
  138.7330   77.3710  222.5520 C   0  0  0  0  0  0  0  0  0  0  0  0
  140.0270   76.8840  222.3470 C   0  0  0  0  0  0  0  0  0  0  0  0
  141.1100   77.6720  222.6710 C   0  0  0  0  0  0  0  0  0  0  0  0
  140.9380   78.9350  223.1970 C   0  0  0  0  0  0  0  0  0  0  0  0
  139.6680   79.4410  223.4120 C   0  0  0  0  0  0  0  0  0  0  0  0
  138.5950   78.6400  223.0810 C   0  0  0  0  0  0  0  0  0  0  0  0
  135.8588   75.0810  224.6033 H   0  0  0  0  0  0  0  0  0  0  0  0
  134.8980   75.1054  223.0858 H   0  0  0  0  0  0  0  0  0  0  0  0
  136.5600   74.4238  223.0858 H   0  0  0  0  0  0  0  0  0  0  0  0
  136.8745   76.9973  224.1043 H   0  0  0  0  0  0  0  0  0  0  0  0
  134.7436   77.8245  223.4120 H   0  0  0  0  0  0  0  0  0  0  0  0
  135.7572   78.1959  221.9762 H   0  0  0  0  0  0  0  0  0  0  0  0
  134.6968   76.7460  221.9762 H   0  0  0  0  0  0  0  0  0  0  0  0
  137.1358   76.9417  221.2894 H   0  0  0  0  0  0  0  0  0  0  0  0
  138.4930   74.6620  222.7080 H   0  0  0  0  0  0  0  0  0  0  0  0
  137.5720   72.7893  219.6462 H   0  0  0  0  0  0  0  0  0  0  0  0
  139.3202   73.3605  219.7872 H   0  0  0  0  0  0  0  0  0  0  0  0
  138.0140   71.4660  221.5320 H   0  0  0  0  0  0  0  0  0  0  0  0
  138.9836   69.9913  222.3341 H   0  0  0  0  0  0  0  0  0  0  0  0
  139.2781   68.3392  224.1652 H   0  0  0  0  0  0  0  0  0  0  0  0
  140.0065   67.8852  226.4219 H   0  0  0  0  0  0  0  0  0  0  0  0
  141.6470   71.0181  228.8942 H   0  0  0  0  0  0  0  0  0  0  0  0
  141.3123   72.6063  226.9895 H   0  0  0  0  0  0  0  0  0  0  0  0
  140.1799   75.8778  221.9296 H   0  0  0  0  0  0  0  0  0  0  0  0
  142.1276   77.2875  222.5075 H   0  0  0  0  0  0  0  0  0  0  0  0
  141.8179   79.5456  223.4479 H   0  0  0  0  0  0  0  0  0  0  0  0
  139.5195   80.4467  223.8321 H   0  0  0  0  0  0  0  0  0  0  0  0
  137.5800   79.0305  223.2462 H   0  0  0  0  0  0  0  0  0  0  0  0
  1  2  1  0
  2  3  1  0
  2  4  1  0
  4  5  1  0
  5  6  1  0
  6  7  2  0
  6  8  1  0
  8  9  1  0
  9 10  1  0
 10 11  2  0
 10 12  1  0
 12 13  2  0
 13 14  1  0
 14 15  2  0
 15 16  1  0
 16 17  2  0
 17 18  1  0
 17 19  1  0
 19 20  2  0
 20 21  1  0
 21 22  2  0
  4 23  1  0
 23 24  2  0
 24 25  1  0
 25 26  2  0
 26 27  1  0
 27 28  2  0
 22 12  1  0
 28 23  1  0
 21 15  1  0
  1 29  1  0
  1 30  1  0
  1 31  1  0
  2 32  1  0
  3 33  1  0
  3 34  1  0
  3 35  1  0
  4 36  1  6
  5 37  1  0
  8 38  1  0
  8 39  1  0
  9 40  1  0
 13 41  1  0
 14 42  1  0
 16 43  1  0
 19 44  1  0
 20 45  1  0
 24 46  1  0
 25 47  1  0
 26 48  1  0
 27 49  1  0
 28 50  1  0
M  END
>  <smiles>  (18) 
CC(C)[C@H](NC(=O)CNC(=O)c1ccc2cc(Cl)ccc2n1)c1ccccc1

>  <score_type>  (18) 
oracle

>  <origin>  (18) 
autodockgpu

>  <m_score__min__energy>  (18) 
-8.7699999999999996

>  <m_primary>  (18) 
energy

>  <rmsd>  (18) 
4.691897255549845

>  <m_score__min__rmsd>  (18) 
4.691897255549845

>  <meeko>  (18) 
{"free_energy": -8.05, "intermolecular_energy": -9.84, "internal_energy": -2.15, "cluster_size": 8, "cluster_id": 5, "rank_in_cluster": 4}

>  <energy>  (18) 
-7.51

>  <cluster_rmsd>  (18) 
1.26

>  <cluster>  (18) 
2

$$$$

     RDKit          3D

 50 52  0  0  0  0  0  0  0  0999 V2000
  136.0020   75.3520  223.5110 C   0  0  0  0  0  0  0  0  0  0  0  0
  136.5350   76.7200  223.1550 C   0  0  0  0  0  0  0  0  0  0  0  0
  135.4040   77.4960  222.5120 C   0  0  0  0  0  0  0  0  0  0  0  0
  137.6850   76.6810  222.2150 C   0  0  2  0  0  0  0  0  0  0  0  0
  138.1220   75.3400  221.9150 N   0  0  0  0  0  0  0  0  0  0  0  0
  138.0360   74.8090  220.6050 C   0  0  0  0  0  0  0  0  0  0  0  0
  137.5640   75.5390  219.6740 O   0  0  0  0  0  0  0  0  0  0  0  0
  138.4600   73.4470  220.2180 C   0  0  0  0  0  0  0  0  0  0  0  0
  138.6570   72.5310  221.2920 N   0  0  0  0  0  0  0  0  0  0  0  0
  139.6400   72.7390  222.3250 C   0  0  0  0  0  0  0  0  0  0  0  0
  140.3860   73.7560  222.3400 O   0  0  0  0  0  0  0  0  0  0  0  0
  139.7860   71.7340  223.4000 C   0  0  0  0  0  0  0  0  0  0  0  0
  139.4200   70.4370  223.1800 C   0  0  0  0  0  0  0  0  0  0  0  0
  139.5480   69.4870  224.1710 C   0  0  0  0  0  0  0  0  0  0  0  0
  140.0540   69.8710  225.3870 C   0  0  0  0  0  0  0  0  0  0  0  0
  140.2040   68.9700  226.4090 C   0  0  0  0  0  0  0  0  0  0  0  0
  140.7120   69.3580  227.6280 C   0  0  0  0  0  0  0  0  0  0  0  0
  140.8770   68.1450  228.8910 Cl  0  0  0  0  0  0  0  0  0  0  0  0
  141.0930   70.6670  227.8820 C   0  0  0  0  0  0  0  0  0  0  0  0
  140.9340   71.5680  226.8370 C   0  0  0  0  0  0  0  0  0  0  0  0
  140.4240   71.1850  225.6070 C   0  0  0  0  0  0  0  0  0  0  0  0
  140.2850   72.0910  224.6150 N   0  0  0  0  0  0  0  0  0  0  0  0
  138.8390   77.4900  222.6290 C   0  0  0  0  0  0  0  0  0  0  0  0
  140.1290   77.0030  222.4010 C   0  0  0  0  0  0  0  0  0  0  0  0
  141.2180   77.7540  222.7850 C   0  0  0  0  0  0  0  0  0  0  0  0
  141.0570   78.9810  223.3940 C   0  0  0  0  0  0  0  0  0  0  0  0
  139.7910   79.4870  223.6330 C   0  0  0  0  0  0  0  0  0  0  0  0
  138.7120   78.7220  223.2410 C   0  0  0  0  0  0  0  0  0  0  0  0
  135.9614   75.2477  224.6053 H   0  0  0  0  0  0  0  0  0  0  0  0
  134.9914   75.2322  223.0935 H   0  0  0  0  0  0  0  0  0  0  0  0
  136.6651   74.5800  223.0935 H   0  0  0  0  0  0  0  0  0  0  0  0
  136.9010   77.1918  224.0788 H   0  0  0  0  0  0  0  0  0  0  0  0
  134.7673   77.9329  223.2954 H   0  0  0  0  0  0  0  0  0  0  0  0
  135.8199   78.2999  221.8868 H   0  0  0  0  0  0  0  0  0  0  0  0
  134.8036   76.8187  221.8868 H   0  0  0  0  0  0  0  0  0  0  0  0
  137.2778   77.1377  221.3009 H   0  0  0  0  0  0  0  0  0  0  0  0
  138.5130   74.7770  222.6980 H   0  0  0  0  0  0  0  0  0  0  0  0
  137.6885   73.0288  219.5547 H   0  0  0  0  0  0  0  0  0  0  0  0
  139.4440   73.5643  219.7406 H   0  0  0  0  0  0  0  0  0  0  0  0
  138.0910   71.6370  221.3990 H   0  0  0  0  0  0  0  0  0  0  0  0
  139.0175   70.1461  222.1985 H   0  0  0  0  0  0  0  0  0  0  0  0
  139.2508   68.4434  223.9905 H   0  0  0  0  0  0  0  0  0  0  0  0
  139.9139   67.9205  226.2526 H   0  0  0  0  0  0  0  0  0  0  0  0
  141.4987   70.9747  228.8571 H   0  0  0  0  0  0  0  0  0  0  0  0
  141.2220   72.6185  226.9907 H   0  0  0  0  0  0  0  0  0  0  0  0
  140.2738   76.0256  221.9177 H   0  0  0  0  0  0  0  0  0  0  0  0
  142.2322   77.3690  222.6031 H   0  0  0  0  0  0  0  0  0  0  0  0
  141.9420   79.5623  223.6922 H   0  0  0  0  0  0  0  0  0  0  0  0
  139.6503   80.4642  224.1181 H   0  0  0  0  0  0  0  0  0  0  0  0
  137.7002   79.1124  223.4249 H   0  0  0  0  0  0  0  0  0  0  0  0
  1  2  1  0
  2  3  1  0
  2  4  1  0
  4  5  1  0
  5  6  1  0
  6  7  2  0
  6  8  1  0
  8  9  1  0
  9 10  1  0
 10 11  2  0
 10 12  1  0
 12 13  2  0
 13 14  1  0
 14 15  2  0
 15 16  1  0
 16 17  2  0
 17 18  1  0
 17 19  1  0
 19 20  2  0
 20 21  1  0
 21 22  2  0
  4 23  1  0
 23 24  2  0
 24 25  1  0
 25 26  2  0
 26 27  1  0
 27 28  2  0
 22 12  1  0
 28 23  1  0
 21 15  1  0
  1 29  1  0
  1 30  1  0
  1 31  1  0
  2 32  1  0
  3 33  1  0
  3 34  1  0
  3 35  1  0
  4 36  1  6
  5 37  1  0
  8 38  1  0
  8 39  1  0
  9 40  1  0
 13 41  1  0
 14 42  1  0
 16 43  1  0
 19 44  1  0
 20 45  1  0
 24 46  1  0
 25 47  1  0
 26 48  1  0
 27 49  1  0
 28 50  1  0
M  END
>  <smiles>  (19) 
CC(C)[C@H](NC(=O)CNC(=O)c1ccc2cc(Cl)ccc2n1)c1ccccc1

>  <score_type>  (19) 
oracle

>  <origin>  (19) 
autodockgpu

>  <m_score__min__energy>  (19) 
-8.7699999999999996

>  <m_primary>  (19) 
energy

>  <rmsd>  (19) 
4.627553239091007

>  <m_score__min__rmsd>  (19) 
4.627553239091007

>  <meeko>  (19) 
{"free_energy": -8.01, "intermolecular_energy": -9.8, "internal_energy": -2.16, "cluster_size": 8, "cluster_id": 5, "rank_in_cluster": 7}

>  <energy>  (19) 
-7.46

>  <cluster_rmsd>  (19) 
1.32

>  <cluster>  (19) 
2

$$$$

     RDKit          3D

 50 52  0  0  0  0  0  0  0  0999 V2000
  139.5490   69.9710  221.8000 C   0  0  0  0  0  0  0  0  0  0  0  0
  139.2370   69.2790  223.1060 C   0  0  0  0  0  0  0  0  0  0  0  0
  138.2870   68.1390  222.8010 C   0  0  0  0  0  0  0  0  0  0  0  0
  138.6070   70.1710  224.1130 C   0  0  2  0  0  0  0  0  0  0  0  0
  138.1220   71.4060  223.5450 N   0  0  0  0  0  0  0  0  0  0  0  0
  136.7600   71.5750  223.1960 C   0  0  0  0  0  0  0  0  0  0  0  0
  135.9490   70.6110  223.3930 O   0  0  0  0  0  0  0  0  0  0  0  0
  136.1860   72.8040  222.6110 C   0  0  0  0  0  0  0  0  0  0  0  0
  137.0330   73.9490  222.6210 N   0  0  0  0  0  0  0  0  0  0  0  0
  138.3190   73.9750  221.9700 C   0  0  0  0  0  0  0  0  0  0  0  0
  138.7680   72.9760  221.3420 O   0  0  0  0  0  0  0  0  0  0  0  0
  139.1410   75.2020  222.0350 C   0  0  0  0  0  0  0  0  0  0  0  0
  140.4140   75.2000  221.5400 C   0  0  0  0  0  0  0  0  0  0  0  0
  141.1960   76.3350  221.5920 C   0  0  0  0  0  0  0  0  0  0  0  0
  140.6660   77.4710  222.1530 C   0  0  0  0  0  0  0  0  0  0  0  0
  141.3970   78.6280  222.2320 C   0  0  0  0  0  0  0  0  0  0  0  0
  140.8650   79.7660  222.7960 C   0  0  0  0  0  0  0  0  0  0  0  0
  141.8620   81.2130  222.8610 Cl  0  0  0  0  0  0  0  0  0  0  0  0
  139.5760   79.7990  223.3060 C   0  0  0  0  0  0  0  0  0  0  0  0
  138.8490   78.6180  223.2180 C   0  0  0  0  0  0  0  0  0  0  0  0
  139.3770   77.4690  222.6530 C   0  0  0  0  0  0  0  0  0  0  0  0
  138.6390   76.3400  222.5870 N   0  0  0  0  0  0  0  0  0  0  0  0
  139.4510   70.4680  225.2780 C   0  0  0  0  0  0  0  0  0  0  0  0
  139.3560   69.6570  226.4120 C   0  0  0  0  0  0  0  0  0  0  0  0
  140.1440   69.9270  227.5100 C   0  0  0  0  0  0  0  0  0  0  0  0
  141.0270   70.9870  227.5080 C   0  0  0  0  0  0  0  0  0  0  0  0
  141.1400   71.8060  226.3990 C   0  0  0  0  0  0  0  0  0  0  0  0
  140.3450   71.5220  225.3080 C   0  0  0  0  0  0  0  0  0  0  0  0
  139.9933   70.9564  222.0041 H   0  0  0  0  0  0  0  0  0  0  0  0
  140.2592   69.3611  221.2224 H   0  0  0  0  0  0  0  0  0  0  0  0
  138.6217   70.0994  221.2224 H   0  0  0  0  0  0  0  0  0  0  0  0
  140.1864   68.9349  223.5421 H   0  0  0  0  0  0  0  0  0  0  0  0
  137.9234   67.7027  223.7430 H   0  0  0  0  0  0  0  0  0  0  0  0
  137.4339   68.5183  222.2192 H   0  0  0  0  0  0  0  0  0  0  0  0
  138.8139   67.3683  222.2192 H   0  0  0  0  0  0  0  0  0  0  0  0
  137.7514   69.5804  224.4724 H   0  0  0  0  0  0  0  0  0  0  0  0
  138.8100   72.1740  223.4100 H   0  0  0  0  0  0  0  0  0  0  0  0
  135.9220   72.5886  221.5651 H   0  0  0  0  0  0  0  0  0  0  0  0
  135.3255   73.0632  223.2452 H   0  0  0  0  0  0  0  0  0  0  0  0
  136.7720   74.8560  223.1090 H   0  0  0  0  0  0  0  0  0  0  0  0
  140.8211   74.2807  221.0938 H   0  0  0  0  0  0  0  0  0  0  0  0
  142.2211   76.3304  221.1931 H   0  0  0  0  0  0  0  0  0  0  0  0
  142.4242   78.6476  221.8389 H   0  0  0  0  0  0  0  0  0  0  0  0
  139.1525   80.7094  223.7552 H   0  0  0  0  0  0  0  0  0  0  0  0
  137.8213   78.5950  223.6096 H   0  0  0  0  0  0  0  0  0  0  0  0
  138.6565   68.8082  226.4282 H   0  0  0  0  0  0  0  0  0  0  0  0
  140.0677   69.2875  228.4017 H   0  0  0  0  0  0  0  0  0  0  0  0
  141.6464   71.1825  228.3958 H   0  0  0  0  0  0  0  0  0  0  0  0
  141.8398   72.6546  226.3875 H   0  0  0  0  0  0  0  0  0  0  0  0
  140.4263   72.1651  224.4193 H   0  0  0  0  0  0  0  0  0  0  0  0
  1  2  1  0
  2  3  1  0
  2  4  1  0
  4  5  1  0
  5  6  1  0
  6  7  2  0
  6  8  1  0
  8  9  1  0
  9 10  1  0
 10 11  2  0
 10 12  1  0
 12 13  2  0
 13 14  1  0
 14 15  2  0
 15 16  1  0
 16 17  2  0
 17 18  1  0
 17 19  1  0
 19 20  2  0
 20 21  1  0
 21 22  2  0
  4 23  1  0
 23 24  2  0
 24 25  1  0
 25 26  2  0
 26 27  1  0
 27 28  2  0
 22 12  1  0
 28 23  1  0
 21 15  1  0
  1 29  1  0
  1 30  1  0
  1 31  1  0
  2 32  1  0
  3 33  1  0
  3 34  1  0
  3 35  1  0
  4 36  1  1
  5 37  1  0
  8 38  1  0
  8 39  1  0
  9 40  1  0
 13 41  1  0
 14 42  1  0
 16 43  1  0
 19 44  1  0
 20 45  1  0
 24 46  1  0
 25 47  1  0
 26 48  1  0
 27 49  1  0
 28 50  1  0
M  END
>  <smiles>  (20) 
CC(C)[C@H](NC(=O)CNC(=O)c1ccc2cc(Cl)ccc2n1)c1ccccc1

>  <score_type>  (20) 
oracle

>  <origin>  (20) 
autodockgpu

>  <m_score__min__energy>  (20) 
-8.7699999999999996

>  <m_primary>  (20) 
energy

>  <rmsd>  (20) 
9.418521388433692

>  <m_score__min__rmsd>  (20) 
9.418521388433692

>  <meeko>  (20) 
{"free_energy": -7.36, "intermolecular_energy": -9.15, "internal_energy": -2.47, "cluster_size": 11, "cluster_id": 3, "rank_in_cluster": 9}

>  <energy>  (20) 
-8.52

>  <cluster_rmsd>  (20) 
0.0

>  <cluster>  (20) 
3

$$$$

     RDKit          3D

 50 52  0  0  0  0  0  0  0  0999 V2000
  136.1130   75.4100  223.4780 C   0  0  0  0  0  0  0  0  0  0  0  0
  136.6600   76.7690  223.1100 C   0  0  0  0  0  0  0  0  0  0  0  0
  135.5410   77.5450  222.4460 C   0  0  0  0  0  0  0  0  0  0  0  0
  137.8180   76.7090  222.1810 C   0  0  2  0  0  0  0  0  0  0  0  0
  138.2310   75.3590  221.8840 N   0  0  0  0  0  0  0  0  0  0  0  0
  138.1210   74.8220  220.5780 C   0  0  0  0  0  0  0  0  0  0  0  0
  137.6480   75.5540  219.6490 O   0  0  0  0  0  0  0  0  0  0  0  0
  138.5210   73.4530  220.1940 C   0  0  0  0  0  0  0  0  0  0  0  0
  138.7050   72.5360  221.2700 N   0  0  0  0  0  0  0  0  0  0  0  0
  139.6990   72.7260  222.2950 C   0  0  0  0  0  0  0  0  0  0  0  0
  140.4670   73.7280  222.3020 O   0  0  0  0  0  0  0  0  0  0  0  0
  139.8300   71.7230  223.3730 C   0  0  0  0  0  0  0  0  0  0  0  0
  139.4530   70.4290  223.1540 C   0  0  0  0  0  0  0  0  0  0  0  0
  139.5680   69.4790  224.1470 C   0  0  0  0  0  0  0  0  0  0  0  0
  140.0720   69.8610  225.3650 C   0  0  0  0  0  0  0  0  0  0  0  0
  140.2090   68.9610  226.3890 C   0  0  0  0  0  0  0  0  0  0  0  0
  140.7140   69.3460  227.6110 C   0  0  0  0  0  0  0  0  0  0  0  0
  140.8620   68.1340  228.8770 Cl  0  0  0  0  0  0  0  0  0  0  0  0
  141.1060   70.6520  227.8640 C   0  0  0  0  0  0  0  0  0  0  0  0
  140.9600   71.5520  226.8160 C   0  0  0  0  0  0  0  0  0  0  0  0
  140.4530   71.1720  225.5840 C   0  0  0  0  0  0  0  0  0  0  0  0
  140.3270   72.0780  224.5900 N   0  0  0  0  0  0  0  0  0  0  0  0
  138.9840   77.4940  222.6090 C   0  0  0  0  0  0  0  0  0  0  0  0
  138.7850   78.7580  223.1710 C   0  0  0  0  0  0  0  0  0  0  0  0
  139.8720   79.5010  223.5760 C   0  0  0  0  0  0  0  0  0  0  0  0
  141.1560   79.0180  223.4350 C   0  0  0  0  0  0  0  0  0  0  0  0
  141.3820   77.7710  222.8810 C   0  0  0  0  0  0  0  0  0  0  0  0
  140.2820   77.0390  222.4810 C   0  0  0  0  0  0  0  0  0  0  0  0
  136.0746   75.3145  224.5732 H   0  0  0  0  0  0  0  0  0  0  0  0
  135.0999   75.2983  223.0644 H   0  0  0  0  0  0  0  0  0  0  0  0
  136.7662   74.6275  223.0644 H   0  0  0  0  0  0  0  0  0  0  0  0
  137.0211   77.2497  224.0312 H   0  0  0  0  0  0  0  0  0  0  0  0
  134.8967   77.9918  223.2175 H   0  0  0  0  0  0  0  0  0  0  0  0
  135.9687   78.3413  221.8192 H   0  0  0  0  0  0  0  0  0  0  0  0
  134.9451   76.8653  221.8192 H   0  0  0  0  0  0  0  0  0  0  0  0
  137.4300   77.1753  221.2634 H   0  0  0  0  0  0  0  0  0  0  0  0
  138.6240   74.7950  222.6650 H   0  0  0  0  0  0  0  0  0  0  0  0
  137.7412   73.0462  219.5334 H   0  0  0  0  0  0  0  0  0  0  0  0
  139.5059   73.5527  219.7145 H   0  0  0  0  0  0  0  0  0  0  0  0
  138.1200   71.6550  221.3840 H   0  0  0  0  0  0  0  0  0  0  0  0
  139.0518   70.1402  222.1713 H   0  0  0  0  0  0  0  0  0  0  0  0
  139.2624   68.4378  223.9668 H   0  0  0  0  0  0  0  0  0  0  0  0
  139.9107   67.9138  226.2325 H   0  0  0  0  0  0  0  0  0  0  0  0
  141.5100   70.9582  228.8402 H   0  0  0  0  0  0  0  0  0  0  0  0
  141.2565   72.6001  226.9693 H   0  0  0  0  0  0  0  0  0  0  0  0
  137.7668   79.1571  223.2892 H   0  0  0  0  0  0  0  0  0  0  0  0
  139.7133   80.4953  224.0189 H   0  0  0  0  0  0  0  0  0  0  0  0
  142.0080   79.6299  223.7661 H   0  0  0  0  0  0  0  0  0  0  0  0
  142.4021   77.3765  222.7633 H   0  0  0  0  0  0  0  0  0  0  0  0
  140.4471   76.0453  222.0390 H   0  0  0  0  0  0  0  0  0  0  0  0
  1  2  1  0
  2  3  1  0
  2  4  1  0
  4  5  1  0
  5  6  1  0
  6  7  2  0
  6  8  1  0
  8  9  1  0
  9 10  1  0
 10 11  2  0
 10 12  1  0
 12 13  2  0
 13 14  1  0
 14 15  2  0
 15 16  1  0
 16 17  2  0
 17 18  1  0
 17 19  1  0
 19 20  2  0
 20 21  1  0
 21 22  2  0
  4 23  1  0
 23 24  2  0
 24 25  1  0
 25 26  2  0
 26 27  1  0
 27 28  2  0
 22 12  1  0
 28 23  1  0
 21 15  1  0
  1 29  1  0
  1 30  1  0
  1 31  1  0
  2 32  1  0
  3 33  1  0
  3 34  1  0
  3 35  1  0
  4 36  1  6
  5 37  1  0
  8 38  1  0
  8 39  1  0
  9 40  1  0
 13 41  1  0
 14 42  1  0
 16 43  1  0
 19 44  1  0
 20 45  1  0
 24 46  1  0
 25 47  1  0
 26 48  1  0
 27 49  1  0
 28 50  1  0
M  END
>  <smiles>  (21) 
CC(C)[C@H](NC(=O)CNC(=O)c1ccc2cc(Cl)ccc2n1)c1ccccc1

>  <score_type>  (21) 
oracle

>  <origin>  (21) 
autodockgpu

>  <m_score__min__energy>  (21) 
-8.7699999999999996

>  <m_primary>  (21) 
energy

>  <rmsd>  (21) 
4.474948243267888

>  <m_score__min__rmsd>  (21) 
4.474948243267888

>  <meeko>  (21) 
{"free_energy": -8.02, "intermolecular_energy": -9.81, "internal_energy": -2.15, "cluster_size": 8, "cluster_id": 5, "rank_in_cluster": 6}

>  <energy>  (21) 
-7.86

>  <cluster_rmsd>  (21) 
1.0

>  <cluster>  (21) 
3

$$$$

     RDKit          3D

 50 52  0  0  0  0  0  0  0  0999 V2000
  135.8700   75.0970  223.5370 C   0  0  0  0  0  0  0  0  0  0  0  0
  136.4460   76.4620  223.2420 C   0  0  0  0  0  0  0  0  0  0  0  0
  135.3240   77.3220  222.6980 C   0  0  0  0  0  0  0  0  0  0  0  0
  137.5520   76.4350  222.2500 C   0  0  2  0  0  0  0  0  0  0  0  0
  138.0230   75.1020  221.9680 N   0  0  0  0  0  0  0  0  0  0  0  0
  137.8440   74.5070  220.6950 C   0  0  0  0  0  0  0  0  0  0  0  0
  137.2550   75.1720  219.7820 O   0  0  0  0  0  0  0  0  0  0  0  0
  138.2950   73.1490  220.3280 C   0  0  0  0  0  0  0  0  0  0  0  0
  138.5320   72.2600  221.4160 N   0  0  0  0  0  0  0  0  0  0  0  0
  139.5630   72.4830  222.3970 C   0  0  0  0  0  0  0  0  0  0  0  0
  140.3200   73.4920  222.3510 O   0  0  0  0  0  0  0  0  0  0  0  0
  139.7480   71.5060  223.4920 C   0  0  0  0  0  0  0  0  0  0  0  0
  139.3950   70.2000  223.3100 C   0  0  0  0  0  0  0  0  0  0  0  0
  139.5590   69.2740  224.3190 C   0  0  0  0  0  0  0  0  0  0  0  0
  140.0880   69.6940  225.5140 C   0  0  0  0  0  0  0  0  0  0  0  0
  140.2740   68.8190  226.5520 C   0  0  0  0  0  0  0  0  0  0  0  0
  140.8040   69.2420  227.7510 C   0  0  0  0  0  0  0  0  0  0  0  0
  141.0140   68.0610  229.0370 Cl  0  0  0  0  0  0  0  0  0  0  0  0
  141.1720   70.5610  227.9650 C   0  0  0  0  0  0  0  0  0  0  0  0
  140.9770   71.4350  226.9040 C   0  0  0  0  0  0  0  0  0  0  0  0
  140.4440   71.0180  225.6950 C   0  0  0  0  0  0  0  0  0  0  0  0
  140.2690   71.8980  224.6860 N   0  0  0  0  0  0  0  0  0  0  0  0
  138.6950   77.2950  222.5880 C   0  0  0  0  0  0  0  0  0  0  0  0
  138.4570   78.5670  223.1180 C   0  0  0  0  0  0  0  0  0  0  0  0
  139.5220   79.3800  223.4390 C   0  0  0  0  0  0  0  0  0  0  0  0
  140.8210   78.9610  223.2440 C   0  0  0  0  0  0  0  0  0  0  0  0
  141.0850   77.7080  222.7200 C   0  0  0  0  0  0  0  0  0  0  0  0
  140.0070   76.9050  222.4050 C   0  0  0  0  0  0  0  0  0  0  0  0
  135.8089   74.9523  224.6257 H   0  0  0  0  0  0  0  0  0  0  0  0
  134.8633   75.0216  223.1000 H   0  0  0  0  0  0  0  0  0  0  0  0
  136.5183   74.3232  223.1000 H   0  0  0  0  0  0  0  0  0  0  0  0
  136.8702   76.8596  224.1758 H   0  0  0  0  0  0  0  0  0  0  0  0
  134.7568   77.7568  223.5342 H   0  0  0  0  0  0  0  0  0  0  0  0
  135.7466   78.1297  222.0824 H   0  0  0  0  0  0  0  0  0  0  0  0
  134.6538   76.7041  222.0824 H   0  0  0  0  0  0  0  0  0  0  0  0
  137.0870   76.8500  221.3436 H   0  0  0  0  0  0  0  0  0  0  0  0
  138.5100   74.5930  222.7340 H   0  0  0  0  0  0  0  0  0  0  0  0
  137.5234   72.6989  219.6861 H   0  0  0  0  0  0  0  0  0  0  0  0
  139.2679   73.2808  219.8320 H   0  0  0  0  0  0  0  0  0  0  0  0
  137.9620   71.3760  221.5730 H   0  0  0  0  0  0  0  0  0  0  0  0
  138.9738   69.8816  222.3450 H   0  0  0  0  0  0  0  0  0  0  0  0
  139.2723   68.2226  224.1694 H   0  0  0  0  0  0  0  0  0  0  0  0
  139.9957   67.7623  226.4258 H   0  0  0  0  0  0  0  0  0  0  0  0
  141.5954   70.8970  228.9230 H   0  0  0  0  0  0  0  0  0  0  0  0
  141.2545   72.4923  227.0272 H   0  0  0  0  0  0  0  0  0  0  0  0
  137.4262   78.9162  223.2776 H   0  0  0  0  0  0  0  0  0  0  0  0
  139.3329   80.3795  223.8576 H   0  0  0  0  0  0  0  0  0  0  0  0
  141.6546   79.6286  223.5073 H   0  0  0  0  0  0  0  0  0  0  0  0
  142.1174   77.3637  222.5600 H   0  0  0  0  0  0  0  0  0  0  0  0
  140.2027   75.9061  221.9880 H   0  0  0  0  0  0  0  0  0  0  0  0
  1  2  1  0
  2  3  1  0
  2  4  1  0
  4  5  1  0
  5  6  1  0
  6  7  2  0
  6  8  1  0
  8  9  1  0
  9 10  1  0
 10 11  2  0
 10 12  1  0
 12 13  2  0
 13 14  1  0
 14 15  2  0
 15 16  1  0
 16 17  2  0
 17 18  1  0
 17 19  1  0
 19 20  2  0
 20 21  1  0
 21 22  2  0
  4 23  1  0
 23 24  2  0
 24 25  1  0
 25 26  2  0
 26 27  1  0
 27 28  2  0
 22 12  1  0
 28 23  1  0
 21 15  1  0
  1 29  1  0
  1 30  1  0
  1 31  1  0
  2 32  1  0
  3 33  1  0
  3 34  1  0
  3 35  1  0
  4 36  1  6
  5 37  1  0
  8 38  1  0
  8 39  1  0
  9 40  1  0
 13 41  1  0
 14 42  1  0
 16 43  1  0
 19 44  1  0
 20 45  1  0
 24 46  1  0
 25 47  1  0
 26 48  1  0
 27 49  1  0
 28 50  1  0
M  END
>  <smiles>  (22) 
CC(C)[C@H](NC(=O)CNC(=O)c1ccc2cc(Cl)ccc2n1)c1ccccc1

>  <score_type>  (22) 
oracle

>  <origin>  (22) 
autodockgpu

>  <m_score__min__energy>  (22) 
-8.7699999999999996

>  <m_primary>  (22) 
energy

>  <rmsd>  (22) 
4.6121036945548965

>  <m_score__min__rmsd>  (22) 
4.6121036945548965

>  <meeko>  (22) 
{"free_energy": -8.03, "intermolecular_energy": -9.82, "internal_energy": -2.13, "cluster_size": 8, "cluster_id": 5, "rank_in_cluster": 5}

>  <energy>  (22) 
-7.83

>  <cluster_rmsd>  (22) 
1.25

>  <cluster>  (22) 
3

$$$$

     RDKit          3D

 50 52  0  0  0  0  0  0  0  0999 V2000
  141.7640   77.1330  220.4610 C   0  0  0  0  0  0  0  0  0  0  0  0
  142.8940   76.5940  219.6160 C   0  0  0  0  0  0  0  0  0  0  0  0
  142.9280   77.4000  218.3340 C   0  0  0  0  0  0  0  0  0  0  0  0
  142.7430   75.1570  219.2730 C   0  0  2  0  0  0  0  0  0  0  0  0
  141.4800   74.6060  219.7000 N   0  0  0  0  0  0  0  0  0  0  0  0
  140.7770   73.6660  218.9080 C   0  0  0  0  0  0  0  0  0  0  0  0
  141.2790   73.3000  217.7950 O   0  0  0  0  0  0  0  0  0  0  0  0
  139.4810   73.0580  219.2720 C   0  0  0  0  0  0  0  0  0  0  0  0
  139.4900   72.2280  220.4300 N   0  0  0  0  0  0  0  0  0  0  0  0
  139.8340   72.7190  221.7410 C   0  0  0  0  0  0  0  0  0  0  0  0
  140.1440   73.9260  221.9390 O   0  0  0  0  0  0  0  0  0  0  0  0
  139.8270   71.7890  222.8900 C   0  0  0  0  0  0  0  0  0  0  0  0
  139.2120   70.5740  222.7830 C   0  0  0  0  0  0  0  0  0  0  0  0
  139.1960   69.6930  223.8440 C   0  0  0  0  0  0  0  0  0  0  0  0
  139.8120   70.0630  225.0140 C   0  0  0  0  0  0  0  0  0  0  0  0
  139.8270   69.2280  226.1010 C   0  0  0  0  0  0  0  0  0  0  0  0
  140.4460   69.6010  227.2730 C   0  0  0  0  0  0  0  0  0  0  0  0
  140.4250   68.4760  228.6250 Cl  0  0  0  0  0  0  0  0  0  0  0  0
  141.0790   70.8260  227.4110 C   0  0  0  0  0  0  0  0  0  0  0  0
  141.0540   71.6610  226.3010 C   0  0  0  0  0  0  0  0  0  0  0  0
  140.4340   71.2930  225.1180 C   0  0  0  0  0  0  0  0  0  0  0  0
  140.4310   72.1320  224.0600 N   0  0  0  0  0  0  0  0  0  0  0  0
  143.8350   74.2980  219.7510 C   0  0  0  0  0  0  0  0  0  0  0  0
  144.8900   74.8720  220.4660 C   0  0  0  0  0  0  0  0  0  0  0  0
  145.9190   74.0750  220.9180 C   0  0  0  0  0  0  0  0  0  0  0  0
  145.9260   72.7180  220.6760 C   0  0  0  0  0  0  0  0  0  0  0  0
  144.8950   72.1230  219.9690 C   0  0  0  0  0  0  0  0  0  0  0  0
  143.8730   72.9350  219.5240 C   0  0  0  0  0  0  0  0  0  0  0  0
  142.0134   77.0141  221.5257 H   0  0  0  0  0  0  0  0  0  0  0  0
  141.6145   78.1994  220.2363 H   0  0  0  0  0  0  0  0  0  0  0  0
  140.8412   76.5781  220.2363 H   0  0  0  0  0  0  0  0  0  0  0  0
  143.8234   76.6824  220.1978 H   0  0  0  0  0  0  0  0  0  0  0  0
  142.9732   78.4721  218.5760 H   0  0  0  0  0  0  0  0  0  0  0  0
  143.8151   77.1188  217.7475 H   0  0  0  0  0  0  0  0  0  0  0  0
  142.0204   77.1945  217.7475 H   0  0  0  0  0  0  0  0  0  0  0  0
  142.7825   75.1556  218.1737 H   0  0  0  0  0  0  0  0  0  0  0  0
  141.1060   74.9190  220.6190 H   0  0  0  0  0  0  0  0  0  0  0  0
  138.7628   73.8728  219.4461 H   0  0  0  0  0  0  0  0  0  0  0  0
  139.2138   72.3984  218.4332 H   0  0  0  0  0  0  0  0  0  0  0  0
  139.2440   71.1930  220.4010 H   0  0  0  0  0  0  0  0  0  0  0  0
  138.7231   70.2945  221.8381 H   0  0  0  0  0  0  0  0  0  0  0  0
  138.7004   68.7150  223.7548 H   0  0  0  0  0  0  0  0  0  0  0  0
  139.3372   68.2452  226.0360 H   0  0  0  0  0  0  0  0  0  0  0  0
  141.5740   71.1210  228.3480 H   0  0  0  0  0  0  0  0  0  0  0  0
  141.5417   72.6450  226.3633 H   0  0  0  0  0  0  0  0  0  0  0  0
  144.8987   75.9535  220.6666 H   0  0  0  0  0  0  0  0  0  0  0  0
  146.7480   74.5288  221.4809 H   0  0  0  0  0  0  0  0  0  0  0  0
  146.7582   72.1023  221.0479 H   0  0  0  0  0  0  0  0  0  0  0  0
  144.8912   71.0413  219.7694 H   0  0  0  0  0  0  0  0  0  0  0  0
  143.0475   72.4754  218.9607 H   0  0  0  0  0  0  0  0  0  0  0  0
  1  2  1  0
  2  3  1  0
  2  4  1  0
  4  5  1  0
  5  6  1  0
  6  7  2  0
  6  8  1  0
  8  9  1  0
  9 10  1  0
 10 11  2  0
 10 12  1  0
 12 13  2  0
 13 14  1  0
 14 15  2  0
 15 16  1  0
 16 17  2  0
 17 18  1  0
 17 19  1  0
 19 20  2  0
 20 21  1  0
 21 22  2  0
  4 23  1  0
 23 24  2  0
 24 25  1  0
 25 26  2  0
 26 27  1  0
 27 28  2  0
 22 12  1  0
 28 23  1  0
 21 15  1  0
  1 29  1  0
  1 30  1  0
  1 31  1  0
  2 32  1  0
  3 33  1  0
  3 34  1  0
  3 35  1  0
  4 36  1  6
  5 37  1  0
  8 38  1  0
  8 39  1  0
  9 40  1  0
 13 41  1  0
 14 42  1  0
 16 43  1  0
 19 44  1  0
 20 45  1  0
 24 46  1  0
 25 47  1  0
 26 48  1  0
 27 49  1  0
 28 50  1  0
M  END
>  <smiles>  (23) 
CC(C)[C@H](NC(=O)CNC(=O)c1ccc2cc(Cl)ccc2n1)c1ccccc1

>  <score_type>  (23) 
oracle

>  <origin>  (23) 
autodockgpu

>  <m_score__min__energy>  (23) 
-8.7699999999999996

>  <m_primary>  (23) 
energy

>  <rmsd>  (23) 
6.521681237622523

>  <m_score__min__rmsd>  (23) 
6.521681237622523

>  <meeko>  (23) 
{"free_energy": -7.9, "intermolecular_energy": -9.69, "internal_energy": -2.09, "cluster_size": 12, "cluster_id": 4, "rank_in_cluster": 10}

>  <energy>  (23) 
-7.81

>  <cluster_rmsd>  (23) 
0.92

>  <cluster>  (23) 
3

$$$$

     RDKit          3D

 50 52  0  0  0  0  0  0  0  0999 V2000
  142.4600   78.4200  218.1340 C   0  0  0  0  0  0  0  0  0  0  0  0
  141.4510   78.8490  219.1730 C   0  0  0  0  0  0  0  0  0  0  0  0
  141.8310   80.2420  219.6300 C   0  0  0  0  0  0  0  0  0  0  0  0
  141.4030   77.9530  220.3570 C   0  0  2  0  0  0  0  0  0  0  0  0
  140.6400   76.7520  220.1240 N   0  0  0  0  0  0  0  0  0  0  0  0
  140.6860   75.6590  221.0230 C   0  0  0  0  0  0  0  0  0  0  0  0
  141.4190   75.7460  222.0620 O   0  0  0  0  0  0  0  0  0  0  0  0
  139.9380   74.3960  220.8550 C   0  0  0  0  0  0  0  0  0  0  0  0
  140.0540   73.4610  221.9230 N   0  0  0  0  0  0  0  0  0  0  0  0
  139.2030   72.3040  222.0440 C   0  0  0  0  0  0  0  0  0  0  0  0
  138.3020   72.0480  221.1980 O   0  0  0  0  0  0  0  0  0  0  0  0
  139.3840   71.3860  223.1890 C   0  0  0  0  0  0  0  0  0  0  0  0
  138.9010   70.1100  223.1270 C   0  0  0  0  0  0  0  0  0  0  0  0
  139.0610   69.2400  224.1850 C   0  0  0  0  0  0  0  0  0  0  0  0
  139.7180   69.6840  225.3060 C   0  0  0  0  0  0  0  0  0  0  0  0
  139.9050   68.8640  226.3880 C   0  0  0  0  0  0  0  0  0  0  0  0
  140.5640   69.3100  227.5110 C   0  0  0  0  0  0  0  0  0  0  0  0
  140.7680   68.2000  228.8600 Cl  0  0  0  0  0  0  0  0  0  0  0  0
  141.0670   70.6000  227.6040 C   0  0  0  0  0  0  0  0  0  0  0  0
  140.8680   71.4180  226.4990 C   0  0  0  0  0  0  0  0  0  0  0  0
  140.2050   70.9760  225.3650 C   0  0  0  0  0  0  0  0  0  0  0  0
  140.0320   71.8030  224.3110 N   0  0  0  0  0  0  0  0  0  0  0  0
  140.9330   78.5980  221.5910 C   0  0  0  0  0  0  0  0  0  0  0  0
  141.8620   78.9330  222.5810 C   0  0  0  0  0  0  0  0  0  0  0  0
  141.4310   79.5390  223.7410 C   0  0  0  0  0  0  0  0  0  0  0  0
  140.0960   79.8190  223.9430 C   0  0  0  0  0  0  0  0  0  0  0  0
  139.1560   79.4970  222.9810 C   0  0  0  0  0  0  0  0  0  0  0  0
  139.6040   78.8920  221.8250 C   0  0  0  0  0  0  0  0  0  0  0  0
  143.3614   78.0367  218.6346 H   0  0  0  0  0  0  0  0  0  0  0  0
  142.0253   77.6289  217.5054 H   0  0  0  0  0  0  0  0  0  0  0  0
  142.7281   79.2820  217.5054 H   0  0  0  0  0  0  0  0  0  0  0  0
  140.4535   78.8123  218.7107 H   0  0  0  0  0  0  0  0  0  0  0  0
  141.8406   80.2773  220.7294 H   0  0  0  0  0  0  0  0  0  0  0  0
  142.8307   80.4938  219.2463 H   0  0  0  0  0  0  0  0  0  0  0  0
  141.0977   80.9666  219.2463 H   0  0  0  0  0  0  0  0  0  0  0  0
  142.4582   77.6829  220.5106 H   0  0  0  0  0  0  0  0  0  0  0  0
  140.0430   76.7210  219.2710 H   0  0  0  0  0  0  0  0  0  0  0  0
  138.8732   74.6469  220.7401 H   0  0  0  0  0  0  0  0  0  0  0  0
  140.3783   73.9023  219.9761 H   0  0  0  0  0  0  0  0  0  0  0  0
  140.7750   73.5570  222.6990 H   0  0  0  0  0  0  0  0  0  0  0  0
  138.3772   69.7716  222.2208 H   0  0  0  0  0  0  0  0  0  0  0  0
  138.6709   68.2129  224.1320 H   0  0  0  0  0  0  0  0  0  0  0  0
  139.5224   67.8331  226.3585 H   0  0  0  0  0  0  0  0  0  0  0  0
  141.5937   70.9548  228.5022 H   0  0  0  0  0  0  0  0  0  0  0  0
  141.2488   72.4496  226.5249 H   0  0  0  0  0  0  0  0  0  0  0  0
  142.9300   78.7141  222.4347 H   0  0  0  0  0  0  0  0  0  0  0  0
  142.1633   79.8035  224.5180 H   0  0  0  0  0  0  0  0  0  0  0  0
  139.7758   80.3028  224.8776 H   0  0  0  0  0  0  0  0  0  0  0  0
  138.0886   79.7156  223.1323 H   0  0  0  0  0  0  0  0  0  0  0  0
  138.8666   78.6309  221.0517 H   0  0  0  0  0  0  0  0  0  0  0  0
  1  2  1  0
  2  3  1  0
  2  4  1  0
  4  5  1  0
  5  6  1  0
  6  7  2  0
  6  8  1  0
  8  9  1  0
  9 10  1  0
 10 11  2  0
 10 12  1  0
 12 13  2  0
 13 14  1  0
 14 15  2  0
 15 16  1  0
 16 17  2  0
 17 18  1  0
 17 19  1  0
 19 20  2  0
 20 21  1  0
 21 22  2  0
  4 23  1  0
 23 24  2  0
 24 25  1  0
 25 26  2  0
 26 27  1  0
 27 28  2  0
 22 12  1  0
 28 23  1  0
 21 15  1  0
  1 29  1  0
  1 30  1  0
  1 31  1  0
  2 32  1  0
  3 33  1  0
  3 34  1  0
  3 35  1  0
  4 36  1  1
  5 37  1  0
  8 38  1  0
  8 39  1  0
  9 40  1  0
 13 41  1  0
 14 42  1  0
 16 43  1  0
 19 44  1  0
 20 45  1  0
 24 46  1  0
 25 47  1  0
 26 48  1  0
 27 49  1  0
 28 50  1  0
M  END
>  <smiles>  (24) 
CC(C)[C@H](NC(=O)CNC(=O)c1ccc2cc(Cl)ccc2n1)c1ccccc1

>  <score_type>  (24) 
oracle

>  <origin>  (24) 
autodockgpu

>  <m_score__min__energy>  (24) 
-8.7699999999999996

>  <m_primary>  (24) 
energy

>  <rmsd>  (24) 
3.989804116906743

>  <m_score__min__rmsd>  (24) 
3.989804116906743

>  <meeko>  (24) 
{"free_energy": -7.56, "intermolecular_energy": -9.35, "internal_energy": -1.85, "cluster_size": 11, "cluster_id": 1, "rank_in_cluster": 8}

>  <energy>  (24) 
-7.78

>  <cluster_rmsd>  (24) 
1.25

>  <cluster>  (24) 
3

$$$$

     RDKit          3D

 50 52  0  0  0  0  0  0  0  0999 V2000
  138.7930   72.7360  222.3240 C   0  0  0  0  0  0  0  0  0  0  0  0
  139.8090   71.9650  223.1320 C   0  0  0  0  0  0  0  0  0  0  0  0
  140.7100   71.2380  222.1560 C   0  0  0  0  0  0  0  0  0  0  0  0
  139.2010   70.9700  224.0530 C   0  0  2  0  0  0  0  0  0  0  0  0
  137.7810   71.1540  224.2220 N   0  0  0  0  0  0  0  0  0  0  0  0
  136.8980   70.0510  224.3230 C   0  0  0  0  0  0  0  0  0  0  0  0
  137.3770   68.8720  224.2650 O   0  0  0  0  0  0  0  0  0  0  0  0
  135.4350   70.1550  224.4950 C   0  0  0  0  0  0  0  0  0  0  0  0
  134.9630   71.3760  225.0580 N   0  0  0  0  0  0  0  0  0  0  0  0
  135.1590   72.6560  224.4240 C   0  0  0  0  0  0  0  0  0  0  0  0
  135.7610   72.7670  223.3210 O   0  0  0  0  0  0  0  0  0  0  0  0
  134.6440   73.8770  225.0800 C   0  0  0  0  0  0  0  0  0  0  0  0
  135.1350   75.1010  224.7280 C   0  0  0  0  0  0  0  0  0  0  0  0
  134.6670   76.2520  225.3290 C   0  0  0  0  0  0  0  0  0  0  0  0
  133.6940   76.1400  226.2900 C   0  0  0  0  0  0  0  0  0  0  0  0
  133.1920   77.2480  226.9210 C   0  0  0  0  0  0  0  0  0  0  0  0
  132.2160   77.1340  227.8860 C   0  0  0  0  0  0  0  0  0  0  0  0
  131.6190   78.6010  228.6510 Cl  0  0  0  0  0  0  0  0  0  0  0  0
  131.6970   75.9050  228.2640 C   0  0  0  0  0  0  0  0  0  0  0  0
  132.2170   74.7920  227.6150 C   0  0  0  0  0  0  0  0  0  0  0  0
  133.2000   74.8980  226.6440 C   0  0  0  0  0  0  0  0  0  0  0  0
  133.6800   73.7920  226.0370 N   0  0  0  0  0  0  0  0  0  0  0  0
  139.8430   70.8890  225.3730 C   0  0  0  0  0  0  0  0  0  0  0  0
  140.7640   71.8730  225.7440 C   0  0  0  0  0  0  0  0  0  0  0  0
  141.3710   71.8060  226.9790 C   0  0  0  0  0  0  0  0  0  0  0  0
  141.0840   70.7820  227.8570 C   0  0  0  0  0  0  0  0  0  0  0  0
  140.1770   69.7950  227.5160 C   0  0  0  0  0  0  0  0  0  0  0  0
  139.5780   69.8770  226.2750 C   0  0  0  0  0  0  0  0  0  0  0  0
  138.1041   73.2587  223.0039 H   0  0  0  0  0  0  0  0  0  0  0  0
  139.3103   73.4710  221.6897 H   0  0  0  0  0  0  0  0  0  0  0  0
  138.2244   72.0400  221.6897 H   0  0  0  0  0  0  0  0  0  0  0  0
  140.3561   72.6828  223.7609 H   0  0  0  0  0  0  0  0  0  0  0  0
  141.4484   70.6422  222.7126 H   0  0  0  0  0  0  0  0  0  0  0  0
  140.1041   70.5729  221.5232 H   0  0  0  0  0  0  0  0  0  0  0  0
  141.2321   71.9708  221.5232 H   0  0  0  0  0  0  0  0  0  0  0  0
  139.3804   70.0121  223.5428 H   0  0  0  0  0  0  0  0  0  0  0  0
  137.4270   72.1310  224.2770 H   0  0  0  0  0  0  0  0  0  0  0  0
  134.9694   70.0372  223.5054 H   0  0  0  0  0  0  0  0  0  0  0  0
  135.1616   69.3686  225.2139 H   0  0  0  0  0  0  0  0  0  0  0  0
  134.4360   71.4210  225.9800 H   0  0  0  0  0  0  0  0  0  0  0  0
  135.9143   75.1710  223.9548 H   0  0  0  0  0  0  0  0  0  0  0  0
  135.0651   77.2370  225.0440 H   0  0  0  0  0  0  0  0  0  0  0  0
  133.5745   78.2438  226.6526 H   0  0  0  0  0  0  0  0  0  0  0  0
  130.9171   75.8162  229.0347 H   0  0  0  0  0  0  0  0  0  0  0  0
  131.8362   73.7947  227.8804 H   0  0  0  0  0  0  0  0  0  0  0  0
  141.0027   72.6958  225.0541 H   0  0  0  0  0  0  0  0  0  0  0  0
  142.0956   72.5811  227.2691 H   0  0  0  0  0  0  0  0  0  0  0  0
  141.5811   70.7499  228.8377 H   0  0  0  0  0  0  0  0  0  0  0  0
  139.9414   68.9739  228.2091 H   0  0  0  0  0  0  0  0  0  0  0  0
  138.8546   69.0987  225.9906 H   0  0  0  0  0  0  0  0  0  0  0  0
  1  2  1  0
  2  3  1  0
  2  4  1  0
  4  5  1  0
  5  6  1  0
  6  7  2  0
  6  8  1  0
  8  9  1  0
  9 10  1  0
 10 11  2  0
 10 12  1  0
 12 13  2  0
 13 14  1  0
 14 15  2  0
 15 16  1  0
 16 17  2  0
 17 18  1  0
 17 19  1  0
 19 20  2  0
 20 21  1  0
 21 22  2  0
  4 23  1  0
 23 24  2  0
 24 25  1  0
 25 26  2  0
 26 27  1  0
 27 28  2  0
 22 12  1  0
 28 23  1  0
 21 15  1  0
  1 29  1  0
  1 30  1  0
  1 31  1  0
  2 32  1  0
  3 33  1  0
  3 34  1  0
  3 35  1  0
  4 36  1  6
  5 37  1  0
  8 38  1  0
  8 39  1  0
  9 40  1  0
 13 41  1  0
 14 42  1  0
 16 43  1  0
 19 44  1  0
 20 45  1  0
 24 46  1  0
 25 47  1  0
 26 48  1  0
 27 49  1  0
 28 50  1  0
M  END
>  <smiles>  (25) 
CC(C)[C@H](NC(=O)CNC(=O)c1ccc2cc(Cl)ccc2n1)c1ccccc1

>  <score_type>  (25) 
oracle

>  <origin>  (25) 
autodockgpu

>  <m_score__min__energy>  (25) 
-8.7699999999999996

>  <m_primary>  (25) 
energy

>  <rmsd>  (25) 
10.046903960176419

>  <m_score__min__rmsd>  (25) 
10.046903960176419

>  <meeko>  (25) 
{"free_energy": -7.51, "intermolecular_energy": -9.3, "internal_energy": -2.37, "cluster_size": 8, "cluster_id": 2, "rank_in_cluster": 7}

>  <energy>  (25) 
-7.76

>  <cluster_rmsd>  (25) 
1.24

>  <cluster>  (25) 
3

$$$$

     RDKit          3D

 50 52  0  0  0  0  0  0  0  0999 V2000
  138.8460   67.7970  223.7600 C   0  0  0  0  0  0  0  0  0  0  0  0
  139.5310   68.4330  224.9470 C   0  0  0  0  0  0  0  0  0  0  0  0
  139.3180   67.5220  226.1370 C   0  0  0  0  0  0  0  0  0  0  0  0
  139.0080   69.7840  225.2780 C   0  0  2  0  0  0  0  0  0  0  0  0
  138.7460   70.5880  224.1090 N   0  0  0  0  0  0  0  0  0  0  0  0
  137.4290   70.7870  223.6280 C   0  0  0  0  0  0  0  0  0  0  0  0
  136.4570   70.2430  224.2480 O   0  0  0  0  0  0  0  0  0  0  0  0
  137.0780   71.5940  222.4410 C   0  0  0  0  0  0  0  0  0  0  0  0
  137.7770   72.8270  222.3020 N   0  0  0  0  0  0  0  0  0  0  0  0
  139.1640   72.9000  221.9180 C   0  0  0  0  0  0  0  0  0  0  0  0
  139.8440   71.8650  221.6760 O   0  0  0  0  0  0  0  0  0  0  0  0
  139.8180   74.2220  221.8050 C   0  0  0  0  0  0  0  0  0  0  0  0
  141.0300   74.3350  221.1870 C   0  0  0  0  0  0  0  0  0  0  0  0
  141.6550   75.5600  221.0710 C   0  0  0  0  0  0  0  0  0  0  0  0
  141.0300   76.6660  221.5920 C   0  0  0  0  0  0  0  0  0  0  0  0
  141.6040   77.9080  221.5060 C   0  0  0  0  0  0  0  0  0  0  0  0
  140.9760   79.0170  222.0290 C   0  0  0  0  0  0  0  0  0  0  0  0
  141.7730   80.5780  221.8810 Cl  0  0  0  0  0  0  0  0  0  0  0  0
  139.7450   78.9330  222.6610 C   0  0  0  0  0  0  0  0  0  0  0  0
  139.1780   77.6680  222.7400 C   0  0  0  0  0  0  0  0  0  0  0  0
  139.8030   76.5470  222.2170 C   0  0  0  0  0  0  0  0  0  0  0  0
  139.2190   75.3340  222.3130 N   0  0  0  0  0  0  0  0  0  0  0  0
  139.8400   70.5460  226.2190 C   0  0  0  0  0  0  0  0  0  0  0  0
  140.7040   71.5270  225.7240 C   0  0  0  0  0  0  0  0  0  0  0  0
  141.4880   72.2470  226.5980 C   0  0  0  0  0  0  0  0  0  0  0  0
  141.4340   72.0170  227.9570 C   0  0  0  0  0  0  0  0  0  0  0  0
  140.5880   71.0520  228.4740 C   0  0  0  0  0  0  0  0  0  0  0  0
  139.8100   70.3400  227.5850 C   0  0  0  0  0  0  0  0  0  0  0  0
  138.0826   67.0883  224.1136 H   0  0  0  0  0  0  0  0  0  0  0  0
  138.3672   68.5780  223.1511 H   0  0  0  0  0  0  0  0  0  0  0  0
  139.5894   67.2616  223.1511 H   0  0  0  0  0  0  0  0  0  0  0  0
  140.5944   68.5607  224.6961 H   0  0  0  0  0  0  0  0  0  0  0  0
  139.4520   68.0952  227.0662 H   0  0  0  0  0  0  0  0  0  0  0  0
  138.2990   67.1089  226.1048 H   0  0  0  0  0  0  0  0  0  0  0  0
  140.0481   66.6999  226.1048 H   0  0  0  0  0  0  0  0  0  0  0  0
  138.0560   69.5684  225.7852 H   0  0  0  0  0  0  0  0  0  0  0  0
  139.5620   71.0260  223.6360 H   0  0  0  0  0  0  0  0  0  0  0  0
  137.2834   70.9868  221.5471 H   0  0  0  0  0  0  0  0  0  0  0  0
  136.0186   71.8630  222.5648 H   0  0  0  0  0  0  0  0  0  0  0  0
  137.3200   73.7720  222.4720 H   0  0  0  0  0  0  0  0  0  0  0  0
  141.5151   73.4374  220.7759 H   0  0  0  0  0  0  0  0  0  0  0  0
  142.6316   75.6483  220.5725 H   0  0  0  0  0  0  0  0  0  0  0  0
  142.5804   78.0207  221.0121 H   0  0  0  0  0  0  0  0  0  0  0  0
  139.2448   79.8199  223.0771 H   0  0  0  0  0  0  0  0  0  0  0  0
  138.2017   77.5519  223.2334 H   0  0  0  0  0  0  0  0  0  0  0  0
  140.7574   71.7228  224.6429 H   0  0  0  0  0  0  0  0  0  0  0  0
  142.1680   73.0177  226.2061 H   0  0  0  0  0  0  0  0  0  0  0  0
  142.0689   72.6058  228.6354 H   0  0  0  0  0  0  0  0  0  0  0  0
  140.5376   70.8594  229.5558 H   0  0  0  0  0  0  0  0  0  0  0  0
  139.1324   69.5703  227.9831 H   0  0  0  0  0  0  0  0  0  0  0  0
  1  2  1  0
  2  3  1  0
  2  4  1  0
  4  5  1  0
  5  6  1  0
  6  7  2  0
  6  8  1  0
  8  9  1  0
  9 10  1  0
 10 11  2  0
 10 12  1  0
 12 13  2  0
 13 14  1  0
 14 15  2  0
 15 16  1  0
 16 17  2  0
 17 18  1  0
 17 19  1  0
 19 20  2  0
 20 21  1  0
 21 22  2  0
  4 23  1  0
 23 24  2  0
 24 25  1  0
 25 26  2  0
 26 27  1  0
 27 28  2  0
 22 12  1  0
 28 23  1  0
 21 15  1  0
  1 29  1  0
  1 30  1  0
  1 31  1  0
  2 32  1  0
  3 33  1  0
  3 34  1  0
  3 35  1  0
  4 36  1  1
  5 37  1  0
  8 38  1  0
  8 39  1  0
  9 40  1  0
 13 41  1  0
 14 42  1  0
 16 43  1  0
 19 44  1  0
 20 45  1  0
 24 46  1  0
 25 47  1  0
 26 48  1  0
 27 49  1  0
 28 50  1  0
M  END
>  <smiles>  (26) 
CC(C)[C@H](NC(=O)CNC(=O)c1ccc2cc(Cl)ccc2n1)c1ccccc1

>  <score_type>  (26) 
oracle

>  <origin>  (26) 
autodockgpu

>  <m_score__min__energy>  (26) 
-8.7699999999999996

>  <m_primary>  (26) 
energy

>  <rmsd>  (26) 
9.542509960041855

>  <m_score__min__rmsd>  (26) 
9.542509960041855

>  <meeko>  (26) 
{"free_energy": -7.72, "intermolecular_energy": -9.51, "internal_energy": -2.42, "cluster_size": 11, "cluster_id": 3, "rank_in_cluster": 8}

>  <energy>  (26) 
-7.75

>  <cluster_rmsd>  (26) 
1.27

>  <cluster>  (26) 
3

$$$$

     RDKit          3D

 50 52  0  0  0  0  0  0  0  0999 V2000
  135.8040   75.1290  223.6880 C   0  0  0  0  0  0  0  0  0  0  0  0
  136.3970   76.4650  223.3070 C   0  0  0  0  0  0  0  0  0  0  0  0
  135.2770   77.3180  222.7500 C   0  0  0  0  0  0  0  0  0  0  0  0
  137.4750   76.3660  222.2890 C   0  0  2  0  0  0  0  0  0  0  0  0
  137.8660   75.0050  222.0150 N   0  0  0  0  0  0  0  0  0  0  0  0
  137.7460   74.4460  220.7190 C   0  0  0  0  0  0  0  0  0  0  0  0
  137.2820   75.1680  219.7770 O   0  0  0  0  0  0  0  0  0  0  0  0
  138.1220   73.0640  220.3590 C   0  0  0  0  0  0  0  0  0  0  0  0
  138.3950   72.1910  221.4520 N   0  0  0  0  0  0  0  0  0  0  0  0
  139.4220   72.4580  222.4270 C   0  0  0  0  0  0  0  0  0  0  0  0
  140.1420   73.4940  222.3700 O   0  0  0  0  0  0  0  0  0  0  0  0
  139.6460   71.4960  223.5270 C   0  0  0  0  0  0  0  0  0  0  0  0
  139.3380   70.1770  223.3560 C   0  0  0  0  0  0  0  0  0  0  0  0
  139.5400   69.2650  224.3710 C   0  0  0  0  0  0  0  0  0  0  0  0
  140.0600   69.7120  225.5600 C   0  0  0  0  0  0  0  0  0  0  0  0
  140.2810   68.8510  226.6040 C   0  0  0  0  0  0  0  0  0  0  0  0
  140.8030   69.3000  227.7960 C   0  0  0  0  0  0  0  0  0  0  0  0
  141.0610   68.1370  229.0890 Cl  0  0  0  0  0  0  0  0  0  0  0  0
  141.1260   70.6330  227.9990 C   0  0  0  0  0  0  0  0  0  0  0  0
  140.8950   71.4920  226.9320 C   0  0  0  0  0  0  0  0  0  0  0  0
  140.3710   71.0480  225.7300 C   0  0  0  0  0  0  0  0  0  0  0  0
  140.1600   71.9150  224.7160 N   0  0  0  0  0  0  0  0  0  0  0  0
  138.6700   77.1670  222.5850 C   0  0  0  0  0  0  0  0  0  0  0  0
  139.9340   76.6130  222.3660 C   0  0  0  0  0  0  0  0  0  0  0  0
  141.0600   77.3570  222.6390 C   0  0  0  0  0  0  0  0  0  0  0  0
  140.9620   78.6420  223.1290 C   0  0  0  0  0  0  0  0  0  0  0  0
  139.7230   79.2160  223.3570 C   0  0  0  0  0  0  0  0  0  0  0  0
  138.6050   78.4570  223.0760 C   0  0  0  0  0  0  0  0  0  0  0  0
  135.7662   75.0438  224.7840 H   0  0  0  0  0  0  0  0  0  0  0  0
  134.7861   75.0495  223.2787 H   0  0  0  0  0  0  0  0  0  0  0  0
  136.4279   74.3208  223.2787 H   0  0  0  0  0  0  0  0  0  0  0  0
  136.8545   76.9009  224.2074 H   0  0  0  0  0  0  0  0  0  0  0  0
  134.7022   77.7558  223.5795 H   0  0  0  0  0  0  0  0  0  0  0  0
  135.7017   78.1235  222.1329 H   0  0  0  0  0  0  0  0  0  0  0  0
  134.6133   76.6945  222.1329 H   0  0  0  0  0  0  0  0  0  0  0  0
  137.0107   76.7946  221.3886 H   0  0  0  0  0  0  0  0  0  0  0  0
  138.2520   74.4480  222.8060 H   0  0  0  0  0  0  0  0  0  0  0  0
  137.2949   72.6295  219.7784 H   0  0  0  0  0  0  0  0  0  0  0  0
  139.0657   73.1470  219.7999 H   0  0  0  0  0  0  0  0  0  0  0  0
  137.8580   71.2880  221.6180 H   0  0  0  0  0  0  0  0  0  0  0  0
  138.9231   69.8369  222.3957 H   0  0  0  0  0  0  0  0  0  0  0  0
  139.2899   68.2030  224.2306 H   0  0  0  0  0  0  0  0  0  0  0  0
  140.0374   67.7847  226.4872 H   0  0  0  0  0  0  0  0  0  0  0  0
  141.5422   70.9906  228.9523 H   0  0  0  0  0  0  0  0  0  0  0  0
  141.1362   72.5592  227.0458 H   0  0  0  0  0  0  0  0  0  0  0  0
  140.0290   75.5882  221.9777 H   0  0  0  0  0  0  0  0  0  0  0  0
  142.0537   76.9191  222.4634 H   0  0  0  0  0  0  0  0  0  0  0  0
  141.8762   79.2161  223.3406 H   0  0  0  0  0  0  0  0  0  0  0  0
  139.6328   80.2402  223.7480 H   0  0  0  0  0  0  0  0  0  0  0  0
  137.6138   78.9007  223.2515 H   0  0  0  0  0  0  0  0  0  0  0  0
  1  2  1  0
  2  3  1  0
  2  4  1  0
  4  5  1  0
  5  6  1  0
  6  7  2  0
  6  8  1  0
  8  9  1  0
  9 10  1  0
 10 11  2  0
 10 12  1  0
 12 13  2  0
 13 14  1  0
 14 15  2  0
 15 16  1  0
 16 17  2  0
 17 18  1  0
 17 19  1  0
 19 20  2  0
 20 21  1  0
 21 22  2  0
  4 23  1  0
 23 24  2  0
 24 25  1  0
 25 26  2  0
 26 27  1  0
 27 28  2  0
 22 12  1  0
 28 23  1  0
 21 15  1  0
  1 29  1  0
  1 30  1  0
  1 31  1  0
  2 32  1  0
  3 33  1  0
  3 34  1  0
  3 35  1  0
  4 36  1  6
  5 37  1  0
  8 38  1  0
  8 39  1  0
  9 40  1  0
 13 41  1  0
 14 42  1  0
 16 43  1  0
 19 44  1  0
 20 45  1  0
 24 46  1  0
 25 47  1  0
 26 48  1  0
 27 49  1  0
 28 50  1  0
M  END
>  <smiles>  (27) 
CC(C)[C@H](NC(=O)CNC(=O)c1ccc2cc(Cl)ccc2n1)c1ccccc1

>  <score_type>  (27) 
oracle

>  <origin>  (27) 
autodockgpu

>  <m_score__min__energy>  (27) 
-8.7699999999999996

>  <m_primary>  (27) 
energy

>  <rmsd>  (27) 
4.807967744761581

>  <m_score__min__rmsd>  (27) 
4.807967744761581

>  <meeko>  (27) 
{"free_energy": -8.07, "intermolecular_energy": -9.86, "internal_energy": -2.15, "cluster_size": 8, "cluster_id": 5, "rank_in_cluster": 3}

>  <energy>  (27) 
-7.72

>  <cluster_rmsd>  (27) 
1.11

>  <cluster>  (27) 
3

$$$$

     RDKit          3D

 50 52  0  0  0  0  0  0  0  0999 V2000
  137.9240   76.5610  222.7090 C   0  0  0  0  0  0  0  0  0  0  0  0
  138.4960   77.9250  222.4040 C   0  0  0  0  0  0  0  0  0  0  0  0
  137.4940   78.6540  221.5330 C   0  0  0  0  0  0  0  0  0  0  0  0
  139.8000   77.8740  221.6950 C   0  0  2  0  0  0  0  0  0  0  0  0
  140.3030   76.5320  221.5360 N   0  0  0  0  0  0  0  0  0  0  0  0
  141.2190   76.2010  220.5080 C   0  0  0  0  0  0  0  0  0  0  0  0
  141.6060   77.1160  219.7100 O   0  0  0  0  0  0  0  0  0  0  0  0
  141.7790   74.8530  220.2790 C   0  0  0  0  0  0  0  0  0  0  0  0
  141.4290   73.8650  221.2450 N   0  0  0  0  0  0  0  0  0  0  0  0
  140.0640   73.5640  221.5950 C   0  0  0  0  0  0  0  0  0  0  0  0
  139.0910   74.1610  221.0570 O   0  0  0  0  0  0  0  0  0  0  0  0
  139.7870   72.5300  222.6140 C   0  0  0  0  0  0  0  0  0  0  0  0
  138.5990   71.8570  222.6020 C   0  0  0  0  0  0  0  0  0  0  0  0
  138.3230   70.8880  223.5440 C   0  0  0  0  0  0  0  0  0  0  0  0
  139.2710   70.6130  224.4980 C   0  0  0  0  0  0  0  0  0  0  0  0
  139.0510   69.6610  225.4600 C   0  0  0  0  0  0  0  0  0  0  0  0
  140.0030   69.3860  226.4160 C   0  0  0  0  0  0  0  0  0  0  0  0
  139.6510   68.1500  227.6170 Cl  0  0  0  0  0  0  0  0  0  0  0  0
  141.2190   70.0510  226.4540 C   0  0  0  0  0  0  0  0  0  0  0  0
  141.4250   71.0130  225.4730 C   0  0  0  0  0  0  0  0  0  0  0  0
  140.4720   71.2960  224.5080 C   0  0  0  0  0  0  0  0  0  0  0  0
  140.7110   72.2380  223.5710 N   0  0  0  0  0  0  0  0  0  0  0  0
  140.8470   78.7220  222.2810 C   0  0  0  0  0  0  0  0  0  0  0  0
  141.5110   79.6450  221.4680 C   0  0  0  0  0  0  0  0  0  0  0  0
  142.4940   80.4450  222.0100 C   0  0  0  0  0  0  0  0  0  0  0  0
  142.8340   80.3500  223.3430 C   0  0  0  0  0  0  0  0  0  0  0  0
  142.1930   79.4440  224.1700 C   0  0  0  0  0  0  0  0  0  0  0  0
  141.2110   78.6510  223.6120 C   0  0  0  0  0  0  0  0  0  0  0  0
  137.8661   76.4230  223.7988 H   0  0  0  0  0  0  0  0  0  0  0  0
  136.9164   76.4806  222.2752 H   0  0  0  0  0  0  0  0  0  0  0  0
  138.5729   75.7859  222.2752 H   0  0  0  0  0  0  0  0  0  0  0  0
  138.6784   78.4378  223.3599 H   0  0  0  0  0  0  0  0  0  0  0  0
  136.7692   79.1813  222.1706 H   0  0  0  0  0  0  0  0  0  0  0  0
  138.0210   79.3813  220.8979 H   0  0  0  0  0  0  0  0  0  0  0  0
  136.9642   77.9288  220.8979 H   0  0  0  0  0  0  0  0  0  0  0  0
  139.5626   78.2871  220.7036 H   0  0  0  0  0  0  0  0  0  0  0  0
  139.9740   75.8140  222.2140 H   0  0  0  0  0  0  0  0  0  0  0  0
  141.4283   74.5040  219.2966 H   0  0  0  0  0  0  0  0  0  0  0  0
  142.8709   74.9666  220.3490 H   0  0  0  0  0  0  0  0  0  0  0  0
  142.1520   73.2870  221.7680 H   0  0  0  0  0  0  0  0  0  0  0  0
  137.8512   72.0910  221.8299 H   0  0  0  0  0  0  0  0  0  0  0  0
  137.3649   70.3478  223.5311 H   0  0  0  0  0  0  0  0  0  0  0  0
  138.0997   69.1087  225.4681 H   0  0  0  0  0  0  0  0  0  0  0  0
  141.9784   69.8293  227.2183 H   0  0  0  0  0  0  0  0  0  0  0  0
  142.3749   71.5676  225.4621 H   0  0  0  0  0  0  0  0  0  0  0  0
  141.2508   79.7324  220.4028 H   0  0  0  0  0  0  0  0  0  0  0  0
  143.0156   81.1709  221.3689 H   0  0  0  0  0  0  0  0  0  0  0  0
  143.6214   80.9998  223.7526 H   0  0  0  0  0  0  0  0  0  0  0  0
  142.4570   79.3590  225.2345 H   0  0  0  0  0  0  0  0  0  0  0  0
  140.6929   77.9272  224.2583 H   0  0  0  0  0  0  0  0  0  0  0  0
  1  2  1  0
  2  3  1  0
  2  4  1  0
  4  5  1  0
  5  6  1  0
  6  7  2  0
  6  8  1  0
  8  9  1  0
  9 10  1  0
 10 11  2  0
 10 12  1  0
 12 13  2  0
 13 14  1  0
 14 15  2  0
 15 16  1  0
 16 17  2  0
 17 18  1  0
 17 19  1  0
 19 20  2  0
 20 21  1  0
 21 22  2  0
  4 23  1  0
 23 24  2  0
 24 25  1  0
 25 26  2  0
 26 27  1  0
 27 28  2  0
 22 12  1  0
 28 23  1  0
 21 15  1  0
  1 29  1  0
  1 30  1  0
  1 31  1  0
  2 32  1  0
  3 33  1  0
  3 34  1  0
  3 35  1  0
  4 36  1  6
  5 37  1  0
  8 38  1  0
  8 39  1  0
  9 40  1  0
 13 41  1  0
 14 42  1  0
 16 43  1  0
 19 44  1  0
 20 45  1  0
 24 46  1  0
 25 47  1  0
 26 48  1  0
 27 49  1  0
 28 50  1  0
M  END
>  <smiles>  (28) 
CC(C)[C@H](NC(=O)CNC(=O)c1ccc2cc(Cl)ccc2n1)c1ccccc1

>  <score_type>  (28) 
oracle

>  <origin>  (28) 
autodockgpu

>  <m_score__min__energy>  (28) 
-8.7699999999999996

>  <m_primary>  (28) 
energy

>  <rmsd>  (28) 
3.9161852921421914

>  <m_score__min__rmsd>  (28) 
3.9161852921421914

>  <meeko>  (28) 
{"free_energy": -7.3, "intermolecular_energy": -9.09, "internal_energy": -2.3, "cluster_size": 11, "cluster_id": 1, "rank_in_cluster": 11}

>  <energy>  (28) 
-7.36

>  <cluster_rmsd>  (28) 
1.72

>  <cluster>  (28) 
3

$$$$

     RDKit          3D

 50 52  0  0  0  0  0  0  0  0999 V2000
  141.8300   77.0610  220.4630 C   0  0  0  0  0  0  0  0  0  0  0  0
  142.9460   76.5380  219.5910 C   0  0  0  0  0  0  0  0  0  0  0  0
  142.9620   77.3680  218.3240 C   0  0  0  0  0  0  0  0  0  0  0  0
  142.7890   75.1070  219.2240 C   0  0  2  0  0  0  0  0  0  0  0  0
  141.5550   74.5350  219.7040 N   0  0  0  0  0  0  0  0  0  0  0  0
  140.7970   73.6380  218.9130 C   0  0  0  0  0  0  0  0  0  0  0  0
  141.2220   73.3310  217.7510 O   0  0  0  0  0  0  0  0  0  0  0  0
  139.5260   73.0120  219.3310 C   0  0  0  0  0  0  0  0  0  0  0  0
  139.5960   72.1810  220.4870 N   0  0  0  0  0  0  0  0  0  0  0  0
  139.7800   72.7070  221.8160 C   0  0  0  0  0  0  0  0  0  0  0  0
  139.8860   73.9460  222.0340 O   0  0  0  0  0  0  0  0  0  0  0  0
  139.8500   71.7750  222.9620 C   0  0  0  0  0  0  0  0  0  0  0  0
  139.3860   70.4970  222.8340 C   0  0  0  0  0  0  0  0  0  0  0  0
  139.4420   69.6130  223.8910 C   0  0  0  0  0  0  0  0  0  0  0  0
  139.9780   70.0460  225.0790 C   0  0  0  0  0  0  0  0  0  0  0  0
  140.0600   69.2120  226.1640 C   0  0  0  0  0  0  0  0  0  0  0  0
  140.5970   69.6470  227.3550 C   0  0  0  0  0  0  0  0  0  0  0  0
  140.6700   68.5200  228.7020 Cl  0  0  0  0  0  0  0  0  0  0  0  0
  141.0770   70.9380  227.5150 C   0  0  0  0  0  0  0  0  0  0  0  0
  140.9860   71.7710  226.4060 C   0  0  0  0  0  0  0  0  0  0  0  0
  140.4470   71.3400  225.2050 C   0  0  0  0  0  0  0  0  0  0  0  0
  140.3760   72.1800  224.1500 N   0  0  0  0  0  0  0  0  0  0  0  0
  143.9130   74.2480  219.6210 C   0  0  0  0  0  0  0  0  0  0  0  0
  144.5730   74.5040  220.8260 C   0  0  0  0  0  0  0  0  0  0  0  0
  145.6270   73.7030  221.2080 C   0  0  0  0  0  0  0  0  0  0  0  0
  146.0440   72.6520  220.4190 C   0  0  0  0  0  0  0  0  0  0  0  0
  145.4090   72.3760  219.2210 C   0  0  0  0  0  0  0  0  0  0  0  0
  144.3550   73.1870  218.8540 C   0  0  0  0  0  0  0  0  0  0  0  0
  142.1014   76.9338  221.5214 H   0  0  0  0  0  0  0  0  0  0  0  0
  141.6689   78.1284  220.2515 H   0  0  0  0  0  0  0  0  0  0  0  0
  140.9066   76.5018  220.2515 H   0  0  0  0  0  0  0  0  0  0  0  0
  143.8842   76.6155  220.1599 H   0  0  0  0  0  0  0  0  0  0  0  0
  142.9826   78.4362  218.5857 H   0  0  0  0  0  0  0  0  0  0  0  0
  143.8555   77.1179  217.7331 H   0  0  0  0  0  0  0  0  0  0  0  0
  142.0595   77.1526  217.7331 H   0  0  0  0  0  0  0  0  0  0  0  0
  142.7695   75.1303  218.1244 H   0  0  0  0  0  0  0  0  0  0  0  0
  141.2460   74.7990  220.6620 H   0  0  0  0  0  0  0  0  0  0  0  0
  138.8048   73.8167  219.5366 H   0  0  0  0  0  0  0  0  0  0  0  0
  139.2322   72.3496  218.5034 H   0  0  0  0  0  0  0  0  0  0  0  0
  139.5160   71.1220  220.4420 H   0  0  0  0  0  0  0  0  0  0  0  0
  138.9615   70.1680  221.8740 H   0  0  0  0  0  0  0  0  0  0  0  0
  139.0660   68.5847  223.7850 H   0  0  0  0  0  0  0  0  0  0  0  0
  139.6910   68.1790  226.0818 H   0  0  0  0  0  0  0  0  0  0  0  0
  141.5061   71.2838  228.4670 H   0  0  0  0  0  0  0  0  0  0  0  0
  141.3535   72.8048  226.4846 H   0  0  0  0  0  0  0  0  0  0  0  0
  144.2530   75.3398  221.4655 H   0  0  0  0  0  0  0  0  0  0  0  0
  146.1440   73.9053  222.1576 H   0  0  0  0  0  0  0  0  0  0  0  0
  146.8889   72.0275  220.7448 H   0  0  0  0  0  0  0  0  0  0  0  0
  145.7330   71.5398  218.5840 H   0  0  0  0  0  0  0  0  0  0  0  0
  143.8411   72.9787  217.9040 H   0  0  0  0  0  0  0  0  0  0  0  0
  1  2  1  0
  2  3  1  0
  2  4  1  0
  4  5  1  0
  5  6  1  0
  6  7  2  0
  6  8  1  0
  8  9  1  0
  9 10  1  0
 10 11  2  0
 10 12  1  0
 12 13  2  0
 13 14  1  0
 14 15  2  0
 15 16  1  0
 16 17  2  0
 17 18  1  0
 17 19  1  0
 19 20  2  0
 20 21  1  0
 21 22  2  0
  4 23  1  0
 23 24  2  0
 24 25  1  0
 25 26  2  0
 26 27  1  0
 27 28  2  0
 22 12  1  0
 28 23  1  0
 21 15  1  0
  1 29  1  0
  1 30  1  0
  1 31  1  0
  2 32  1  0
  3 33  1  0
  3 34  1  0
  3 35  1  0
  4 36  1  6
  5 37  1  0
  8 38  1  0
  8 39  1  0
  9 40  1  0
 13 41  1  0
 14 42  1  0
 16 43  1  0
 19 44  1  0
 20 45  1  0
 24 46  1  0
 25 47  1  0
 26 48  1  0
 27 49  1  0
 28 50  1  0
M  END
>  <smiles>  (29) 
CC(C)[C@H](NC(=O)CNC(=O)c1ccc2cc(Cl)ccc2n1)c1ccccc1

>  <score_type>  (29) 
oracle

>  <origin>  (29) 
autodockgpu

>  <m_score__min__energy>  (29) 
-8.7699999999999996

>  <m_primary>  (29) 
energy

>  <rmsd>  (29) 
6.538978987835229

>  <m_score__min__rmsd>  (29) 
6.538978987835229

>  <meeko>  (29) 
{"free_energy": -7.82, "intermolecular_energy": -9.61, "internal_energy": -2.09, "cluster_size": 12, "cluster_id": 4, "rank_in_cluster": 12}

>  <energy>  (29) 
-7.34

>  <cluster_rmsd>  (29) 
1.7

>  <cluster>  (29) 
3

$$$$

     RDKit          3D

 50 52  0  0  0  0  0  0  0  0999 V2000
  135.8210   75.1410  223.5450 C   0  0  0  0  0  0  0  0  0  0  0  0
  136.4110   76.4930  223.2220 C   0  0  0  0  0  0  0  0  0  0  0  0
  135.2970   77.3520  222.6590 C   0  0  0  0  0  0  0  0  0  0  0  0
  137.5180   76.4350  222.2330 C   0  0  2  0  0  0  0  0  0  0  0  0
  137.9520   75.0880  221.9530 N   0  0  0  0  0  0  0  0  0  0  0  0
  137.8740   74.5420  220.6490 C   0  0  0  0  0  0  0  0  0  0  0  0
  137.4110   75.2620  219.7050 O   0  0  0  0  0  0  0  0  0  0  0  0
  138.2960   73.1740  220.2820 C   0  0  0  0  0  0  0  0  0  0  0  0
  138.5490   72.2910  221.3700 N   0  0  0  0  0  0  0  0  0  0  0  0
  139.5500   72.5550  222.3730 C   0  0  0  0  0  0  0  0  0  0  0  0
  140.2620   73.5970  222.3470 O   0  0  0  0  0  0  0  0  0  0  0  0
  139.7560   71.5820  223.4670 C   0  0  0  0  0  0  0  0  0  0  0  0
  139.4250   70.2690  223.2870 C   0  0  0  0  0  0  0  0  0  0  0  0
  139.6100   69.3470  224.2950 C   0  0  0  0  0  0  0  0  0  0  0  0
  140.1360   69.7760  225.4880 C   0  0  0  0  0  0  0  0  0  0  0  0
  140.3410   68.9050  226.5260 C   0  0  0  0  0  0  0  0  0  0  0  0
  140.8680   69.3370  227.7220 C   0  0  0  0  0  0  0  0  0  0  0  0
  141.1050   68.1600  229.0080 Cl  0  0  0  0  0  0  0  0  0  0  0  0
  141.2140   70.6630  227.9350 C   0  0  0  0  0  0  0  0  0  0  0  0
  140.9990   71.5330  226.8740 C   0  0  0  0  0  0  0  0  0  0  0  0
  140.4690   71.1060  225.6680 C   0  0  0  0  0  0  0  0  0  0  0  0
  140.2750   71.9830  224.6600 N   0  0  0  0  0  0  0  0  0  0  0  0
  138.6830   77.2630  222.5730 C   0  0  0  0  0  0  0  0  0  0  0  0
  139.9670   76.7510  222.3640 C   0  0  0  0  0  0  0  0  0  0  0  0
  141.0660   77.5200  222.6790 C   0  0  0  0  0  0  0  0  0  0  0  0
  140.9200   78.7890  223.1980 C   0  0  0  0  0  0  0  0  0  0  0  0
  139.6610   79.3210  223.4150 C   0  0  0  0  0  0  0  0  0  0  0  0
  138.5710   78.5380  223.0940 C   0  0  0  0  0  0  0  0  0  0  0  0
  135.7665   75.0160  224.6365 H   0  0  0  0  0  0  0  0  0  0  0  0
  134.8102   75.0703  223.1169 H   0  0  0  0  0  0  0  0  0  0  0  0
  136.4566   74.3518  223.1169 H   0  0  0  0  0  0  0  0  0  0  0  0
  136.8389   76.9059  224.1474 H   0  0  0  0  0  0  0  0  0  0  0  0
  134.7223   77.7952  223.4856 H   0  0  0  0  0  0  0  0  0  0  0  0
  135.7284   78.1535  222.0413 H   0  0  0  0  0  0  0  0  0  0  0  0
  134.6316   76.7310  222.0413 H   0  0  0  0  0  0  0  0  0  0  0  0
  137.0678   76.8626  221.3250 H   0  0  0  0  0  0  0  0  0  0  0  0
  138.3350   74.5340  222.7460 H   0  0  0  0  0  0  0  0  0  0  0  0
  137.5014   72.7298  219.6645 H   0  0  0  0  0  0  0  0  0  0  0  0
  139.2574   73.2878  219.7597 H   0  0  0  0  0  0  0  0  0  0  0  0
  138.0170   71.3820  221.5120 H   0  0  0  0  0  0  0  0  0  0  0  0
  139.0049   69.9428  222.3241 H   0  0  0  0  0  0  0  0  0  0  0  0
  139.3419   68.2906  224.1465 H   0  0  0  0  0  0  0  0  0  0  0  0
  140.0802   67.8436  226.4014 H   0  0  0  0  0  0  0  0  0  0  0  0
  141.6354   71.0066  228.8912 H   0  0  0  0  0  0  0  0  0  0  0  0
  141.2580   72.5952  226.9955 H   0  0  0  0  0  0  0  0  0  0  0  0
  140.0991   75.7403  221.9505 H   0  0  0  0  0  0  0  0  0  0  0  0
  142.0754   77.1153  222.5139 H   0  0  0  0  0  0  0  0  0  0  0  0
  141.8125   79.3840  223.4418 H   0  0  0  0  0  0  0  0  0  0  0  0
  139.5337   80.3322  223.8287 H   0  0  0  0  0  0  0  0  0  0  0  0
  137.5643   78.9486  223.2609 H   0  0  0  0  0  0  0  0  0  0  0  0
  1  2  1  0
  2  3  1  0
  2  4  1  0
  4  5  1  0
  5  6  1  0
  6  7  2  0
  6  8  1  0
  8  9  1  0
  9 10  1  0
 10 11  2  0
 10 12  1  0
 12 13  2  0
 13 14  1  0
 14 15  2  0
 15 16  1  0
 16 17  2  0
 17 18  1  0
 17 19  1  0
 19 20  2  0
 20 21  1  0
 21 22  2  0
  4 23  1  0
 23 24  2  0
 24 25  1  0
 25 26  2  0
 26 27  1  0
 27 28  2  0
 22 12  1  0
 28 23  1  0
 21 15  1  0
  1 29  1  0
  1 30  1  0
  1 31  1  0
  2 32  1  0
  3 33  1  0
  3 34  1  0
  3 35  1  0
  4 36  1  6
  5 37  1  0
  8 38  1  0
  8 39  1  0
  9 40  1  0
 13 41  1  0
 14 42  1  0
 16 43  1  0
 19 44  1  0
 20 45  1  0
 24 46  1  0
 25 47  1  0
 26 48  1  0
 27 49  1  0
 28 50  1  0
M  END
>  <smiles>  (30) 
CC(C)[C@H](NC(=O)CNC(=O)c1ccc2cc(Cl)ccc2n1)c1ccccc1

>  <score_type>  (30) 
oracle

>  <origin>  (30) 
autodockgpu

>  <m_score__min__energy>  (30) 
-8.7699999999999996

>  <m_primary>  (30) 
energy

>  <rmsd>  (30) 
4.748266830101177

>  <m_score__min__rmsd>  (30) 
4.748266830101177

>  <meeko>  (30) 
{"free_energy": -8.08, "intermolecular_energy": -9.87, "internal_energy": -2.14, "cluster_size": 8, "cluster_id": 5, "rank_in_cluster": 2}

>  <energy>  (30) 
-7.18

>  <cluster_rmsd>  (30) 
1.9

>  <cluster>  (30) 
3

$$$$

     RDKit          3D

 50 52  0  0  0  0  0  0  0  0999 V2000
  141.4550   76.5020  220.7090 C   0  0  0  0  0  0  0  0  0  0  0  0
  142.7100   76.1530  219.9460 C   0  0  0  0  0  0  0  0  0  0  0  0
  142.7880   77.0800  218.7500 C   0  0  0  0  0  0  0  0  0  0  0  0
  142.7390   74.7480  219.4650 C   0  0  2  0  0  0  0  0  0  0  0  0
  141.5890   73.9850  219.8860 N   0  0  0  0  0  0  0  0  0  0  0  0
  140.3920   73.9740  219.1300 C   0  0  0  0  0  0  0  0  0  0  0  0
  140.3360   74.6540  218.0530 O   0  0  0  0  0  0  0  0  0  0  0  0
  139.1730   73.2230  219.4930 C   0  0  0  0  0  0  0  0  0  0  0  0
  139.2880   72.3660  220.6260 N   0  0  0  0  0  0  0  0  0  0  0  0
  139.7480   72.8280  221.9110 C   0  0  0  0  0  0  0  0  0  0  0  0
  140.0730   74.0310  222.1090 O   0  0  0  0  0  0  0  0  0  0  0  0
  139.8470   71.8700  223.0330 C   0  0  0  0  0  0  0  0  0  0  0  0
  139.4440   70.5760  222.8670 C   0  0  0  0  0  0  0  0  0  0  0  0
  139.5280   69.6690  223.9020 C   0  0  0  0  0  0  0  0  0  0  0  0
  140.0280   70.0950  225.1080 C   0  0  0  0  0  0  0  0  0  0  0  0
  140.1350   69.2380  226.1720 C   0  0  0  0  0  0  0  0  0  0  0  0
  140.6360   69.6660  227.3810 C   0  0  0  0  0  0  0  0  0  0  0  0
  140.7450   68.5090  228.7010 Cl  0  0  0  0  0  0  0  0  0  0  0  0
  141.0540   70.9730  227.5800 C   0  0  0  0  0  0  0  0  0  0  0  0
  140.9390   71.8290  226.4920 C   0  0  0  0  0  0  0  0  0  0  0  0
  140.4350   71.4060  225.2730 C   0  0  0  0  0  0  0  0  0  0  0  0
  140.3390   72.2680  224.2390 N   0  0  0  0  0  0  0  0  0  0  0  0
  143.9640   74.0110  219.8050 C   0  0  0  0  0  0  0  0  0  0  0  0
  144.8100   74.5180  220.7960 C   0  0  0  0  0  0  0  0  0  0  0  0
  145.9610   73.8340  221.1230 C   0  0  0  0  0  0  0  0  0  0  0  0
  146.2930   72.6570  220.4870 C   0  0  0  0  0  0  0  0  0  0  0  0
  145.4750   72.1330  219.5020 C   0  0  0  0  0  0  0  0  0  0  0  0
  144.3260   72.8300  219.1870 C   0  0  0  0  0  0  0  0  0  0  0  0
  141.6552   76.4463  221.7892 H   0  0  0  0  0  0  0  0  0  0  0  0
  141.1383   77.5223  220.4469 H   0  0  0  0  0  0  0  0  0  0  0  0
  140.6570   75.7917  220.4469 H   0  0  0  0  0  0  0  0  0  0  0  0
  143.5645   76.2687  220.6290 H   0  0  0  0  0  0  0  0  0  0  0  0
  142.8755   78.1201  219.0973 H   0  0  0  0  0  0  0  0  0  0  0  0
  143.6675   76.8212  218.1422 H   0  0  0  0  0  0  0  0  0  0  0  0
  141.8776   76.9718  218.1422 H   0  0  0  0  0  0  0  0  0  0  0  0
  142.7169   74.8571  218.3706 H   0  0  0  0  0  0  0  0  0  0  0  0
  141.6750   73.4340  220.7640 H   0  0  0  0  0  0  0  0  0  0  0  0
  138.3763   73.9524  219.7008 H   0  0  0  0  0  0  0  0  0  0  0  0
  138.9627   72.5629  218.6386 H   0  0  0  0  0  0  0  0  0  0  0  0
  139.0420   71.3320  220.5950 H   0  0  0  0  0  0  0  0  0  0  0  0
  139.0466   70.2526  221.8936 H   0  0  0  0  0  0  0  0  0  0  0  0
  139.2018   68.6275  223.7648 H   0  0  0  0  0  0  0  0  0  0  0  0
  139.8156   68.1916  226.0584 H   0  0  0  0  0  0  0  0  0  0  0  0
  141.4546   71.3133  228.5463 H   0  0  0  0  0  0  0  0  0  0  0  0
  141.2583   72.8759  226.6019 H   0  0  0  0  0  0  0  0  0  0  0  0
  144.5586   75.4567  221.3114 H   0  0  0  0  0  0  0  0  0  0  0  0
  146.6250   74.2336  221.9037 H   0  0  0  0  0  0  0  0  0  0  0  0
  147.2172   72.1293  220.7653 H   0  0  0  0  0  0  0  0  0  0  0  0
  145.7311   71.1946  218.9883 H   0  0  0  0  0  0  0  0  0  0  0  0
  143.6663   72.4250  218.4055 H   0  0  0  0  0  0  0  0  0  0  0  0
  1  2  1  0
  2  3  1  0
  2  4  1  0
  4  5  1  0
  5  6  1  0
  6  7  2  0
  6  8  1  0
  8  9  1  0
  9 10  1  0
 10 11  2  0
 10 12  1  0
 12 13  2  0
 13 14  1  0
 14 15  2  0
 15 16  1  0
 16 17  2  0
 17 18  1  0
 17 19  1  0
 19 20  2  0
 20 21  1  0
 21 22  2  0
  4 23  1  0
 23 24  2  0
 24 25  1  0
 25 26  2  0
 26 27  1  0
 27 28  2  0
 22 12  1  0
 28 23  1  0
 21 15  1  0
  1 29  1  0
  1 30  1  0
  1 31  1  0
  2 32  1  0
  3 33  1  0
  3 34  1  0
  3 35  1  0
  4 36  1  6
  5 37  1  0
  8 38  1  0
  8 39  1  0
  9 40  1  0
 13 41  1  0
 14 42  1  0
 16 43  1  0
 19 44  1  0
 20 45  1  0
 24 46  1  0
 25 47  1  0
 26 48  1  0
 27 49  1  0
 28 50  1  0
M  END
>  <smiles>  (31) 
CC(C)[C@H](NC(=O)CNC(=O)c1ccc2cc(Cl)ccc2n1)c1ccccc1

>  <score_type>  (31) 
oracle

>  <origin>  (31) 
autodockgpu

>  <m_score__min__energy>  (31) 
-8.7699999999999996

>  <m_primary>  (31) 
energy

>  <rmsd>  (31) 
6.615278402091091

>  <m_score__min__rmsd>  (31) 
6.615278402091091

>  <meeko>  (31) 
{"free_energy": -7.91, "intermolecular_energy": -9.7, "internal_energy": -1.97, "cluster_size": 12, "cluster_id": 4, "rank_in_cluster": 8}

>  <energy>  (31) 
-8.44

>  <cluster_rmsd>  (31) 
0.0

>  <cluster>  (31) 
4

$$$$

     RDKit          3D

 50 52  0  0  0  0  0  0  0  0999 V2000
  138.8550   72.5670  222.3600 C   0  0  0  0  0  0  0  0  0  0  0  0
  139.8730   72.0260  223.3350 C   0  0  0  0  0  0  0  0  0  0  0  0
  141.0620   71.5420  222.5310 C   0  0  0  0  0  0  0  0  0  0  0  0
  139.3630   70.9010  224.1600 C   0  0  2  0  0  0  0  0  0  0  0  0
  137.9280   70.9170  224.3090 N   0  0  0  0  0  0  0  0  0  0  0  0
  137.1750   69.7190  224.3490 C   0  0  0  0  0  0  0  0  0  0  0  0
  137.7840   68.6040  224.2540 O   0  0  0  0  0  0  0  0  0  0  0  0
  135.7060   69.6510  224.4970 C   0  0  0  0  0  0  0  0  0  0  0  0
  135.0790   70.8290  224.9960 N   0  0  0  0  0  0  0  0  0  0  0  0
  134.0440   70.7980  225.9990 C   0  0  0  0  0  0  0  0  0  0  0  0
  133.6340   69.7140  226.5000 O   0  0  0  0  0  0  0  0  0  0  0  0
  133.4390   72.0670  226.4570 C   0  0  0  0  0  0  0  0  0  0  0  0
  132.2910   72.0500  227.1960 C   0  0  0  0  0  0  0  0  0  0  0  0
  131.7120   73.2240  227.6320 C   0  0  0  0  0  0  0  0  0  0  0  0
  132.3170   74.4130  227.3080 C   0  0  0  0  0  0  0  0  0  0  0  0
  131.7870   75.6100  227.7140 C   0  0  0  0  0  0  0  0  0  0  0  0
  132.3940   76.8020  227.3880 C   0  0  0  0  0  0  0  0  0  0  0  0
  131.6560   78.2980  227.9450 Cl  0  0  0  0  0  0  0  0  0  0  0  0
  133.5600   76.8510  226.6400 C   0  0  0  0  0  0  0  0  0  0  0  0
  134.0840   75.6290  226.2360 C   0  0  0  0  0  0  0  0  0  0  0  0
  133.4790   74.4260  226.5600 C   0  0  0  0  0  0  0  0  0  0  0  0
  134.0190   73.2590  226.1480 N   0  0  0  0  0  0  0  0  0  0  0  0
  139.9900   70.7820  225.4840 C   0  0  0  0  0  0  0  0  0  0  0  0
  140.6640   71.8830  226.0200 C   0  0  0  0  0  0  0  0  0  0  0  0
  141.2540   71.7810  227.2610 C   0  0  0  0  0  0  0  0  0  0  0  0
  141.1910   70.6090  227.9840 C   0  0  0  0  0  0  0  0  0  0  0  0
  140.5310   69.5040  227.4770 C   0  0  0  0  0  0  0  0  0  0  0  0
  139.9450   69.6220  226.2340 C   0  0  0  0  0  0  0  0  0  0  0  0
  138.0164   73.0127  222.9151 H   0  0  0  0  0  0  0  0  0  0  0  0
  139.3249   73.3343  221.7273 H   0  0  0  0  0  0  0  0  0  0  0  0
  138.4820   71.7481  221.7273 H   0  0  0  0  0  0  0  0  0  0  0  0
  140.1347   72.8343  224.0337 H   0  0  0  0  0  0  0  0  0  0  0  0
  141.8597   71.2173  223.2153 H   0  0  0  0  0  0  0  0  0  0  0  0
  140.7563   70.6967  221.8969 H   0  0  0  0  0  0  0  0  0  0  0  0
  141.4335   72.3605  221.8969 H   0  0  0  0  0  0  0  0  0  0  0  0
  139.6533   70.0125  223.5801 H   0  0  0  0  0  0  0  0  0  0  0  0
  137.4660   71.8450  224.3950 H   0  0  0  0  0  0  0  0  0  0  0  0
  135.2767   69.4330  223.5080 H   0  0  0  0  0  0  0  0  0  0  0  0
  135.5167   68.8701  225.2482 H   0  0  0  0  0  0  0  0  0  0  0  0
  135.3360   71.8050  224.6620 H   0  0  0  0  0  0  0  0  0  0  0  0
  131.8215   71.0875  227.4471 H   0  0  0  0  0  0  0  0  0  0  0  0
  130.7863   73.2077  228.2260 H   0  0  0  0  0  0  0  0  0  0  0  0
  130.8622   75.6185  228.3096 H   0  0  0  0  0  0  0  0  0  0  0  0
  134.0437   77.8043  226.3806 H   0  0  0  0  0  0  0  0  0  0  0  0
  135.0085   75.6168  225.6400 H   0  0  0  0  0  0  0  0  0  0  0  0
  140.7230   72.8248  225.4548 H   0  0  0  0  0  0  0  0  0  0  0  0
  141.7837   72.6485  227.6815 H   0  0  0  0  0  0  0  0  0  0  0  0
  141.6697   70.5520  228.9727 H   0  0  0  0  0  0  0  0  0  0  0  0
  140.4755   68.5639  228.0454 H   0  0  0  0  0  0  0  0  0  0  0  0
  139.4164   68.7509  225.8196 H   0  0  0  0  0  0  0  0  0  0  0  0
  1  2  1  0
  2  3  1  0
  2  4  1  0
  4  5  1  0
  5  6  1  0
  6  7  2  0
  6  8  1  0
  8  9  1  0
  9 10  1  0
 10 11  2  0
 10 12  1  0
 12 13  2  0
 13 14  1  0
 14 15  2  0
 15 16  1  0
 16 17  2  0
 17 18  1  0
 17 19  1  0
 19 20  2  0
 20 21  1  0
 21 22  2  0
  4 23  1  0
 23 24  2  0
 24 25  1  0
 25 26  2  0
 26 27  1  0
 27 28  2  0
 22 12  1  0
 28 23  1  0
 21 15  1  0
  1 29  1  0
  1 30  1  0
  1 31  1  0
  2 32  1  0
  3 33  1  0
  3 34  1  0
  3 35  1  0
  4 36  1  6
  5 37  1  0
  8 38  1  0
  8 39  1  0
  9 40  1  0
 13 41  1  0
 14 42  1  0
 16 43  1  0
 19 44  1  0
 20 45  1  0
 24 46  1  0
 25 47  1  0
 26 48  1  0
 27 49  1  0
 28 50  1  0
M  END
>  <smiles>  (32) 
CC(C)[C@H](NC(=O)CNC(=O)c1ccc2cc(Cl)ccc2n1)c1ccccc1

>  <score_type>  (32) 
oracle

>  <origin>  (32) 
autodockgpu

>  <m_score__min__energy>  (32) 
-8.7699999999999996

>  <m_primary>  (32) 
energy

>  <rmsd>  (32) 
10.313333632415036

>  <m_score__min__rmsd>  (32) 
10.313333632415036

>  <meeko>  (32) 
{"free_energy": -8.43, "intermolecular_energy": -10.22, "internal_energy": -1.56, "cluster_size": 8, "cluster_id": 2, "rank_in_cluster": 4}

>  <energy>  (32) 
-8.11

>  <cluster_rmsd>  (32) 
0.63

>  <cluster>  (32) 
4

$$$$

     RDKit          3D

 50 52  0  0  0  0  0  0  0  0999 V2000
  140.4620   78.8320  218.9640 C   0  0  0  0  0  0  0  0  0  0  0  0
  141.8030   78.6640  219.6390 C   0  0  0  0  0  0  0  0  0  0  0  0
  142.5920   77.6490  218.8380 C   0  0  0  0  0  0  0  0  0  0  0  0
  141.7030   78.1900  221.0440 C   0  0  2  0  0  0  0  0  0  0  0  0
  140.5330   77.3810  221.2830 N   0  0  0  0  0  0  0  0  0  0  0  0
  140.4920   76.0130  220.9170 C   0  0  0  0  0  0  0  0  0  0  0  0
  141.5160   75.4910  220.3680 O   0  0  0  0  0  0  0  0  0  0  0  0
  139.3340   75.1190  221.1260 C   0  0  0  0  0  0  0  0  0  0  0  0
  139.4820   74.1450  222.1550 N   0  0  0  0  0  0  0  0  0  0  0  0
  139.6450   72.7390  221.8810 C   0  0  0  0  0  0  0  0  0  0  0  0
  139.6720   72.2880  220.7030 O   0  0  0  0  0  0  0  0  0  0  0  0
  139.7850   71.7920  223.0080 C   0  0  0  0  0  0  0  0  0  0  0  0
  139.4160   70.4860  222.8540 C   0  0  0  0  0  0  0  0  0  0  0  0
  139.5390   69.5880  223.8930 C   0  0  0  0  0  0  0  0  0  0  0  0
  140.0410   70.0350  225.0900 C   0  0  0  0  0  0  0  0  0  0  0  0
  140.1860   69.1870  226.1580 C   0  0  0  0  0  0  0  0  0  0  0  0
  140.6900   69.6370  227.3580 C   0  0  0  0  0  0  0  0  0  0  0  0
  140.8470   68.4910  228.6830 Cl  0  0  0  0  0  0  0  0  0  0  0  0
  141.0730   70.9570  227.5440 C   0  0  0  0  0  0  0  0  0  0  0  0
  140.9200   71.8020  226.4530 C   0  0  0  0  0  0  0  0  0  0  0  0
  140.4130   71.3570  225.2420 C   0  0  0  0  0  0  0  0  0  0  0  0
  140.2800   72.2110  224.2050 N   0  0  0  0  0  0  0  0  0  0  0  0
  141.7740   79.2560  222.0530 C   0  0  0  0  0  0  0  0  0  0  0  0
  140.6330   80.0180  222.3210 C   0  0  0  0  0  0  0  0  0  0  0  0
  140.6890   81.0180  223.2660 C   0  0  0  0  0  0  0  0  0  0  0  0
  141.8550   81.2820  223.9540 C   0  0  0  0  0  0  0  0  0  0  0  0
  142.9990   80.5440  223.7080 C   0  0  0  0  0  0  0  0  0  0  0  0
  142.9260   79.5450  222.7590 C   0  0  0  0  0  0  0  0  0  0  0  0
  139.6767   78.9304  219.7280 H   0  0  0  0  0  0  0  0  0  0  0  0
  140.4781   79.7352  218.3363 H   0  0  0  0  0  0  0  0  0  0  0  0
  140.2548   77.9528  218.3363 H   0  0  0  0  0  0  0  0  0  0  0  0
  142.2903   79.6496  219.6730 H   0  0  0  0  0  0  0  0  0  0  0  0
  143.1196   76.9703  219.5243 H   0  0  0  0  0  0  0  0  0  0  0  0
  141.9056   77.0686  218.2040 H   0  0  0  0  0  0  0  0  0  0  0  0
  143.3238   78.1710  218.2040 H   0  0  0  0  0  0  0  0  0  0  0  0
  142.6008   77.5659  221.1641 H   0  0  0  0  0  0  0  0  0  0  0  0
  139.7200   77.8380  221.7440 H   0  0  0  0  0  0  0  0  0  0  0  0
  138.4648   75.7451  221.3760 H   0  0  0  0  0  0  0  0  0  0  0  0
  139.2214   74.5514  220.1905 H   0  0  0  0  0  0  0  0  0  0  0  0
  139.4820   74.3920  223.1890 H   0  0  0  0  0  0  0  0  0  0  0  0
  139.0152   70.1459  221.8877 H   0  0  0  0  0  0  0  0  0  0  0  0
  139.2415   68.5367  223.7656 H   0  0  0  0  0  0  0  0  0  0  0  0
  139.8953   68.1312  226.0545 H   0  0  0  0  0  0  0  0  0  0  0  0
  141.4758   71.3147  228.5031 H   0  0  0  0  0  0  0  0  0  0  0  0
  141.2104   72.8583  226.5528 H   0  0  0  0  0  0  0  0  0  0  0  0
  139.6959   79.8199  221.7801 H   0  0  0  0  0  0  0  0  0  0  0  0
  139.7897   81.6157  223.4756 H   0  0  0  0  0  0  0  0  0  0  0  0
  141.8754   82.0860  224.7045 H   0  0  0  0  0  0  0  0  0  0  0  0
  143.9344   80.7466  224.2502 H   0  0  0  0  0  0  0  0  0  0  0  0
  143.8284   78.9500  222.5547 H   0  0  0  0  0  0  0  0  0  0  0  0
  1  2  1  0
  2  3  1  0
  2  4  1  0
  4  5  1  0
  5  6  1  0
  6  7  2  0
  6  8  1  0
  8  9  1  0
  9 10  1  0
 10 11  2  0
 10 12  1  0
 12 13  2  0
 13 14  1  0
 14 15  2  0
 15 16  1  0
 16 17  2  0
 17 18  1  0
 17 19  1  0
 19 20  2  0
 20 21  1  0
 21 22  2  0
  4 23  1  0
 23 24  2  0
 24 25  1  0
 25 26  2  0
 26 27  1  0
 27 28  2  0
 22 12  1  0
 28 23  1  0
 21 15  1  0
  1 29  1  0
  1 30  1  0
  1 31  1  0
  2 32  1  0
  3 33  1  0
  3 34  1  0
  3 35  1  0
  4 36  1  1
  5 37  1  0
  8 38  1  0
  8 39  1  0
  9 40  1  0
 13 41  1  0
 14 42  1  0
 16 43  1  0
 19 44  1  0
 20 45  1  0
 24 46  1  0
 25 47  1  0
 26 48  1  0
 27 49  1  0
 28 50  1  0
M  END
>  <smiles>  (33) 
CC(C)[C@H](NC(=O)CNC(=O)c1ccc2cc(Cl)ccc2n1)c1ccccc1

>  <score_type>  (33) 
oracle

>  <origin>  (33) 
autodockgpu

>  <m_score__min__energy>  (33) 
-8.7699999999999996

>  <m_primary>  (33) 
energy

>  <rmsd>  (33) 
3.7439865923567104

>  <m_score__min__rmsd>  (33) 
3.7439865923567104

>  <meeko>  (33) 
{"free_energy": -8.61, "intermolecular_energy": -10.4, "internal_energy": -1.33, "cluster_size": 11, "cluster_id": 1, "rank_in_cluster": 5}

>  <energy>  (33) 
-8.05

>  <cluster_rmsd>  (33) 
1.19

>  <cluster>  (33) 
4

$$$$

     RDKit          3D

 50 52  0  0  0  0  0  0  0  0999 V2000
  138.7940   67.9160  223.4770 C   0  0  0  0  0  0  0  0  0  0  0  0
  139.5830   68.5300  224.6090 C   0  0  0  0  0  0  0  0  0  0  0  0
  139.6160   67.5230  225.7400 C   0  0  0  0  0  0  0  0  0  0  0  0
  139.0000   69.8000  225.1160 C   0  0  2  0  0  0  0  0  0  0  0  0
  138.6240   70.7070  224.0600 N   0  0  0  0  0  0  0  0  0  0  0  0
  137.2660   70.9370  223.7310 C   0  0  0  0  0  0  0  0  0  0  0  0
  136.3600   70.3260  224.3880 O   0  0  0  0  0  0  0  0  0  0  0  0
  136.7990   71.8470  222.6650 C   0  0  0  0  0  0  0  0  0  0  0  0
  137.5410   73.0530  222.5120 N   0  0  0  0  0  0  0  0  0  0  0  0
  138.8710   73.0870  221.9570 C   0  0  0  0  0  0  0  0  0  0  0  0
  139.4570   72.0390  221.5660 O   0  0  0  0  0  0  0  0  0  0  0  0
  139.5760   74.3810  221.8400 C   0  0  0  0  0  0  0  0  0  0  0  0
  140.7920   74.4450  221.2230 C   0  0  0  0  0  0  0  0  0  0  0  0
  141.4650   75.6430  221.1040 C   0  0  0  0  0  0  0  0  0  0  0  0
  140.8850   76.7750  221.6210 C   0  0  0  0  0  0  0  0  0  0  0  0
  141.5070   77.9930  221.5330 C   0  0  0  0  0  0  0  0  0  0  0  0
  140.9240   79.1270  222.0530 C   0  0  0  0  0  0  0  0  0  0  0  0
  141.7820   80.6550  221.9000 Cl  0  0  0  0  0  0  0  0  0  0  0  0
  139.6900   79.0940  222.6850 C   0  0  0  0  0  0  0  0  0  0  0  0
  139.0730   77.8520  222.7660 C   0  0  0  0  0  0  0  0  0  0  0  0
  139.6540   76.7060  222.2460 C   0  0  0  0  0  0  0  0  0  0  0  0
  139.0220   75.5170  222.3450 N   0  0  0  0  0  0  0  0  0  0  0  0
  139.8390   70.5080  226.0930 C   0  0  0  0  0  0  0  0  0  0  0  0
  140.6920   71.5230  225.6490 C   0  0  0  0  0  0  0  0  0  0  0  0
  141.4810   72.1940  226.5570 C   0  0  0  0  0  0  0  0  0  0  0  0
  141.4450   71.8800  227.8990 C   0  0  0  0  0  0  0  0  0  0  0  0
  140.6100   70.8800  228.3660 C   0  0  0  0  0  0  0  0  0  0  0  0
  139.8260   70.2180  227.4440 C   0  0  0  0  0  0  0  0  0  0  0  0
  137.9890   67.2895  223.8887 H   0  0  0  0  0  0  0  0  0  0  0  0
  138.3576   68.7144  222.8589 H   0  0  0  0  0  0  0  0  0  0  0  0
  139.4608   67.2968  222.8589 H   0  0  0  0  0  0  0  0  0  0  0  0
  140.5861   68.7738  224.2290 H   0  0  0  0  0  0  0  0  0  0  0  0
  139.5986   68.0532  226.7036 H   0  0  0  0  0  0  0  0  0  0  0  0
  138.7390   66.8628  225.6689 H   0  0  0  0  0  0  0  0  0  0  0  0
  140.5343   66.9217  225.6689 H   0  0  0  0  0  0  0  0  0  0  0  0
  138.0933   69.4689  225.6435 H   0  0  0  0  0  0  0  0  0  0  0  0
  139.3890   71.1960  223.5530 H   0  0  0  0  0  0  0  0  0  0  0  0
  136.8424   71.3005  221.7114 H   0  0  0  0  0  0  0  0  0  0  0  0
  135.7843   72.1550  222.9576 H   0  0  0  0  0  0  0  0  0  0  0  0
  137.1620   74.0050  222.7970 H   0  0  0  0  0  0  0  0  0  0  0  0
  141.2417   73.5278  220.8148 H   0  0  0  0  0  0  0  0  0  0  0  0
  142.4446   75.6905  220.6060 H   0  0  0  0  0  0  0  0  0  0  0  0
  142.4873   78.0659  221.0393 H   0  0  0  0  0  0  0  0  0  0  0  0
  139.2255   80.0010  223.0992 H   0  0  0  0  0  0  0  0  0  0  0  0
  138.0923   77.7756  223.2584 H   0  0  0  0  0  0  0  0  0  0  0  0
  140.7327   71.7840  224.5812 H   0  0  0  0  0  0  0  0  0  0  0  0
  142.1505   72.9931  226.2059 H   0  0  0  0  0  0  0  0  0  0  0  0
  142.0856   72.4291  228.6047 H   0  0  0  0  0  0  0  0  0  0  0  0
  140.5728   70.6221  229.4347 H   0  0  0  0  0  0  0  0  0  0  0  0
  139.1581   69.4205  227.8016 H   0  0  0  0  0  0  0  0  0  0  0  0
  1  2  1  0
  2  3  1  0
  2  4  1  0
  4  5  1  0
  5  6  1  0
  6  7  2  0
  6  8  1  0
  8  9  1  0
  9 10  1  0
 10 11  2  0
 10 12  1  0
 12 13  2  0
 13 14  1  0
 14 15  2  0
 15 16  1  0
 16 17  2  0
 17 18  1  0
 17 19  1  0
 19 20  2  0
 20 21  1  0
 21 22  2  0
  4 23  1  0
 23 24  2  0
 24 25  1  0
 25 26  2  0
 26 27  1  0
 27 28  2  0
 22 12  1  0
 28 23  1  0
 21 15  1  0
  1 29  1  0
  1 30  1  0
  1 31  1  0
  2 32  1  0
  3 33  1  0
  3 34  1  0
  3 35  1  0
  4 36  1  1
  5 37  1  0
  8 38  1  0
  8 39  1  0
  9 40  1  0
 13 41  1  0
 14 42  1  0
 16 43  1  0
 19 44  1  0
 20 45  1  0
 24 46  1  0
 25 47  1  0
 26 48  1  0
 27 49  1  0
 28 50  1  0
M  END
>  <smiles>  (34) 
CC(C)[C@H](NC(=O)CNC(=O)c1ccc2cc(Cl)ccc2n1)c1ccccc1

>  <score_type>  (34) 
oracle

>  <origin>  (34) 
autodockgpu

>  <m_score__min__energy>  (34) 
-8.7699999999999996

>  <m_primary>  (34) 
energy

>  <rmsd>  (34) 
9.562018674122047

>  <m_score__min__rmsd>  (34) 
9.562018674122047

>  <meeko>  (34) 
{"free_energy": -7.78, "intermolecular_energy": -9.57, "internal_energy": -2.44, "cluster_size": 11, "cluster_id": 3, "rank_in_cluster": 5}

>  <energy>  (34) 
-8.03

>  <cluster_rmsd>  (34) 
1.2

>  <cluster>  (34) 
4

$$$$

     RDKit          3D

 50 52  0  0  0  0  0  0  0  0999 V2000
  138.8430   72.6200  222.3290 C   0  0  0  0  0  0  0  0  0  0  0  0
  139.8540   72.0850  223.3150 C   0  0  0  0  0  0  0  0  0  0  0  0
  141.0500   71.5980  222.5220 C   0  0  0  0  0  0  0  0  0  0  0  0
  139.3380   70.9630  224.1410 C   0  0  2  0  0  0  0  0  0  0  0  0
  137.9020   70.9780  224.2770 N   0  0  0  0  0  0  0  0  0  0  0  0
  137.1490   69.7790  224.3020 C   0  0  0  0  0  0  0  0  0  0  0  0
  137.7600   68.6650  224.2060 O   0  0  0  0  0  0  0  0  0  0  0  0
  135.6790   69.7100  224.4370 C   0  0  0  0  0  0  0  0  0  0  0  0
  135.0490   70.8770  224.9580 N   0  0  0  0  0  0  0  0  0  0  0  0
  134.0180   70.8250  225.9630 C   0  0  0  0  0  0  0  0  0  0  0  0
  133.6140   69.7320  226.4470 O   0  0  0  0  0  0  0  0  0  0  0  0
  133.4100   72.0840  226.4440 C   0  0  0  0  0  0  0  0  0  0  0  0
  132.2590   72.0510  227.1790 C   0  0  0  0  0  0  0  0  0  0  0  0
  131.6770   73.2150  227.6360 C   0  0  0  0  0  0  0  0  0  0  0  0
  132.2810   74.4110  227.3380 C   0  0  0  0  0  0  0  0  0  0  0  0
  131.7480   75.5990  227.7660 C   0  0  0  0  0  0  0  0  0  0  0  0
  132.3550   76.7980  227.4660 C   0  0  0  0  0  0  0  0  0  0  0  0
  131.6130   78.2820  228.0510 Cl  0  0  0  0  0  0  0  0  0  0  0  0
  133.5240   76.8640  226.7230 C   0  0  0  0  0  0  0  0  0  0  0  0
  134.0500   75.6510  226.2970 C   0  0  0  0  0  0  0  0  0  0  0  0
  133.4460   74.4410  226.5940 C   0  0  0  0  0  0  0  0  0  0  0  0
  133.9890   73.2830  226.1620 N   0  0  0  0  0  0  0  0  0  0  0  0
  139.9530   70.8520  225.4710 C   0  0  0  0  0  0  0  0  0  0  0  0
  140.7070   71.9200  225.9640 C   0  0  0  0  0  0  0  0  0  0  0  0
  141.2870   71.8260  227.2110 C   0  0  0  0  0  0  0  0  0  0  0  0
  141.1360   70.6920  227.9810 C   0  0  0  0  0  0  0  0  0  0  0  0
  140.3950   69.6190  227.5170 C   0  0  0  0  0  0  0  0  0  0  0  0
  139.8210   69.7300  226.2670 C   0  0  0  0  0  0  0  0  0  0  0  0
  137.9990   73.0666  222.8751 H   0  0  0  0  0  0  0  0  0  0  0  0
  139.3169   73.3854  221.6968 H   0  0  0  0  0  0  0  0  0  0  0  0
  138.4767   71.7977  221.6968 H   0  0  0  0  0  0  0  0  0  0  0  0
  140.1097   72.8967  224.0120 H   0  0  0  0  0  0  0  0  0  0  0  0
  141.8420   71.2755  223.2139 H   0  0  0  0  0  0  0  0  0  0  0  0
  140.7494   70.7507  221.8882 H   0  0  0  0  0  0  0  0  0  0  0  0
  141.4268   72.4143  221.8882 H   0  0  0  0  0  0  0  0  0  0  0  0
  139.6346   70.0718  223.5684 H   0  0  0  0  0  0  0  0  0  0  0  0
  137.4390   71.9050  224.3650 H   0  0  0  0  0  0  0  0  0  0  0  0
  135.2572   69.5153  223.4399 H   0  0  0  0  0  0  0  0  0  0  0  0
  135.4832   68.9126  225.1689 H   0  0  0  0  0  0  0  0  0  0  0  0
  135.3010   71.8600  224.6380 H   0  0  0  0  0  0  0  0  0  0  0  0
  131.7900   71.0831  227.4095 H   0  0  0  0  0  0  0  0  0  0  0  0
  130.7493   73.1855  228.2263 H   0  0  0  0  0  0  0  0  0  0  0  0
  130.8211   75.5945  228.3583 H   0  0  0  0  0  0  0  0  0  0  0  0
  134.0075   77.8228  226.4844 H   0  0  0  0  0  0  0  0  0  0  0  0
  134.9767   75.6517  225.7043 H   0  0  0  0  0  0  0  0  0  0  0  0
  140.8370   72.8305  225.3606 H   0  0  0  0  0  0  0  0  0  0  0  0
  141.8793   72.6684  227.5977 H   0  0  0  0  0  0  0  0  0  0  0  0
  141.6087   70.6397  228.9729 H   0  0  0  0  0  0  0  0  0  0  0  0
  140.2681   68.7099  228.1232 H   0  0  0  0  0  0  0  0  0  0  0  0
  139.2297   68.8844  225.8857 H   0  0  0  0  0  0  0  0  0  0  0  0
  1  2  1  0
  2  3  1  0
  2  4  1  0
  4  5  1  0
  5  6  1  0
  6  7  2  0
  6  8  1  0
  8  9  1  0
  9 10  1  0
 10 11  2  0
 10 12  1  0
 12 13  2  0
 13 14  1  0
 14 15  2  0
 15 16  1  0
 16 17  2  0
 17 18  1  0
 17 19  1  0
 19 20  2  0
 20 21  1  0
 21 22  2  0
  4 23  1  0
 23 24  2  0
 24 25  1  0
 25 26  2  0
 26 27  1  0
 27 28  2  0
 22 12  1  0
 28 23  1  0
 21 15  1  0
  1 29  1  0
  1 30  1  0
  1 31  1  0
  2 32  1  0
  3 33  1  0
  3 34  1  0
  3 35  1  0
  4 36  1  6
  5 37  1  0
  8 38  1  0
  8 39  1  0
  9 40  1  0
 13 41  1  0
 14 42  1  0
 16 43  1  0
 19 44  1  0
 20 45  1  0
 24 46  1  0
 25 47  1  0
 26 48  1  0
 27 49  1  0
 28 50  1  0
M  END
>  <smiles>  (35) 
CC(C)[C@H](NC(=O)CNC(=O)c1ccc2cc(Cl)ccc2n1)c1ccccc1

>  <score_type>  (35) 
oracle

>  <origin>  (35) 
autodockgpu

>  <m_score__min__energy>  (35) 
-8.7699999999999996

>  <m_primary>  (35) 
energy

>  <rmsd>  (35) 
10.290205237931815

>  <m_score__min__rmsd>  (35) 
10.290205237931815

>  <meeko>  (35) 
{"free_energy": -8.44, "intermolecular_energy": -10.23, "internal_energy": -1.56, "cluster_size": 8, "cluster_id": 2, "rank_in_cluster": 3}

>  <energy>  (35) 
-7.99

>  <cluster_rmsd>  (35) 
1.15

>  <cluster>  (35) 
4

$$$$

     RDKit          3D

 50 52  0  0  0  0  0  0  0  0999 V2000
  140.1750   78.6190  218.4030 C   0  0  0  0  0  0  0  0  0  0  0  0
  141.4560   78.7490  219.1940 C   0  0  0  0  0  0  0  0  0  0  0  0
  142.5820   78.2270  218.3250 C   0  0  0  0  0  0  0  0  0  0  0  0
  141.4430   77.9890  220.4700 C   0  0  2  0  0  0  0  0  0  0  0  0
  140.2300   77.2320  220.6620 N   0  0  0  0  0  0  0  0  0  0  0  0
  140.2580   75.8330  220.8840 C   0  0  0  0  0  0  0  0  0  0  0  0
  141.3840   75.2370  220.9170 O   0  0  0  0  0  0  0  0  0  0  0  0
  139.0640   74.9880  221.0880 C   0  0  0  0  0  0  0  0  0  0  0  0
  139.1660   74.0100  222.1190 N   0  0  0  0  0  0  0  0  0  0  0  0
  139.9200   72.7910  221.9660 C   0  0  0  0  0  0  0  0  0  0  0  0
  140.5420   72.5210  220.9020 O   0  0  0  0  0  0  0  0  0  0  0  0
  139.9680   71.8230  223.0830 C   0  0  0  0  0  0  0  0  0  0  0  0
  139.5340   70.5420  222.8980 C   0  0  0  0  0  0  0  0  0  0  0  0
  139.5710   69.6250  223.9270 C   0  0  0  0  0  0  0  0  0  0  0  0
  140.0570   70.0280  225.1460 C   0  0  0  0  0  0  0  0  0  0  0  0
  140.1180   69.1600  226.2060 C   0  0  0  0  0  0  0  0  0  0  0  0
  140.6060   69.5660  227.4280 C   0  0  0  0  0  0  0  0  0  0  0  0
  140.6550   68.3960  228.7400 Cl  0  0  0  0  0  0  0  0  0  0  0  0
  141.0560   70.8590  227.6460 C   0  0  0  0  0  0  0  0  0  0  0  0
  140.9870   71.7260  226.5630 C   0  0  0  0  0  0  0  0  0  0  0  0
  140.4970   71.3260  225.3300 C   0  0  0  0  0  0  0  0  0  0  0  0
  140.4460   72.1980  224.3010 N   0  0  0  0  0  0  0  0  0  0  0  0
  141.7070   78.8000  221.6660 C   0  0  0  0  0  0  0  0  0  0  0  0
  141.4410   78.2610  222.9270 C   0  0  0  0  0  0  0  0  0  0  0  0
  141.6850   79.0130  224.0550 C   0  0  0  0  0  0  0  0  0  0  0  0
  142.1890   80.2940  223.9600 C   0  0  0  0  0  0  0  0  0  0  0  0
  142.4600   80.8530  222.7240 C   0  0  0  0  0  0  0  0  0  0  0  0
  142.2110   80.0850  221.6050 C   0  0  0  0  0  0  0  0  0  0  0  0
  139.3241   78.5327  219.0947 H   0  0  0  0  0  0  0  0  0  0  0  0
  140.0435   79.5084  217.7692 H   0  0  0  0  0  0  0  0  0  0  0  0
  140.2249   77.7213  217.7692 H   0  0  0  0  0  0  0  0  0  0  0  0
  141.5833   79.8084  219.4615 H   0  0  0  0  0  0  0  0  0  0  0  0
  143.3942   77.8505  218.9642 H   0  0  0  0  0  0  0  0  0  0  0  0
  142.2069   77.4109  217.6899 H   0  0  0  0  0  0  0  0  0  0  0  0
  142.9624   79.0406  217.6899 H   0  0  0  0  0  0  0  0  0  0  0  0
  142.2864   77.2920  220.3560 H   0  0  0  0  0  0  0  0  0  0  0  0
  139.3310   77.7540  220.6410 H   0  0  0  0  0  0  0  0  0  0  0  0
  138.2199   75.6496  221.3326 H   0  0  0  0  0  0  0  0  0  0  0  0
  138.9335   74.4240  220.1527 H   0  0  0  0  0  0  0  0  0  0  0  0
  138.6940   74.1170  223.0650 H   0  0  0  0  0  0  0  0  0  0  0  0
  139.1492   70.2369  221.9137 H   0  0  0  0  0  0  0  0  0  0  0  0
  139.2191   68.5940  223.7746 H   0  0  0  0  0  0  0  0  0  0  0  0
  139.7718   68.1237  226.0781 H   0  0  0  0  0  0  0  0  0  0  0  0
  141.4462   71.1806  228.6229 H   0  0  0  0  0  0  0  0  0  0  0  0
  141.3322   72.7629  226.6880 H   0  0  0  0  0  0  0  0  0  0  0  0
  141.0387   77.2413  223.0187 H   0  0  0  0  0  0  0  0  0  0  0  0
  141.4749   78.5858  225.0466 H   0  0  0  0  0  0  0  0  0  0  0  0
  142.3768   80.8755  224.8747 H   0  0  0  0  0  0  0  0  0  0  0  0
  142.8600   81.8739  222.6363 H   0  0  0  0  0  0  0  0  0  0  0  0
  142.4242   80.5169  220.6161 H   0  0  0  0  0  0  0  0  0  0  0  0
  1  2  1  0
  2  3  1  0
  2  4  1  0
  4  5  1  0
  5  6  1  0
  6  7  2  0
  6  8  1  0
  8  9  1  0
  9 10  1  0
 10 11  2  0
 10 12  1  0
 12 13  2  0
 13 14  1  0
 14 15  2  0
 15 16  1  0
 16 17  2  0
 17 18  1  0
 17 19  1  0
 19 20  2  0
 20 21  1  0
 21 22  2  0
  4 23  1  0
 23 24  2  0
 24 25  1  0
 25 26  2  0
 26 27  1  0
 27 28  2  0
 22 12  1  0
 28 23  1  0
 21 15  1  0
  1 29  1  0
  1 30  1  0
  1 31  1  0
  2 32  1  0
  3 33  1  0
  3 34  1  0
  3 35  1  0
  4 36  1  6
  5 37  1  0
  8 38  1  0
  8 39  1  0
  9 40  1  0
 13 41  1  0
 14 42  1  0
 16 43  1  0
 19 44  1  0
 20 45  1  0
 24 46  1  0
 25 47  1  0
 26 48  1  0
 27 49  1  0
 28 50  1  0
M  END
>  <smiles>  (36) 
CC(C)[C@H](NC(=O)CNC(=O)c1ccc2cc(Cl)ccc2n1)c1ccccc1

>  <score_type>  (36) 
oracle

>  <origin>  (36) 
autodockgpu

>  <m_score__min__energy>  (36) 
-8.7699999999999996

>  <m_primary>  (36) 
energy

>  <rmsd>  (36) 
3.8633144823529326

>  <m_score__min__rmsd>  (36) 
3.8633144823529326

>  <meeko>  (36) 
{"free_energy": -8.7, "intermolecular_energy": -10.49, "internal_energy": -1.28, "cluster_size": 11, "cluster_id": 1, "rank_in_cluster": 2}

>  <energy>  (36) 
-7.94

>  <cluster_rmsd>  (36) 
1.31

>  <cluster>  (36) 
4

$$$$

     RDKit          3D

 50 52  0  0  0  0  0  0  0  0999 V2000
  140.4480   78.9820  218.4520 C   0  0  0  0  0  0  0  0  0  0  0  0
  141.7830   78.7390  219.1150 C   0  0  0  0  0  0  0  0  0  0  0  0
  142.6320   77.9380  218.1490 C   0  0  0  0  0  0  0  0  0  0  0  0
  141.6800   77.9920  220.3950 C   0  0  2  0  0  0  0  0  0  0  0  0
  140.4920   77.1770  220.4770 N   0  0  0  0  0  0  0  0  0  0  0  0
  140.5430   75.8400  220.9400 C   0  0  0  0  0  0  0  0  0  0  0  0
  141.6660   75.3520  221.2930 O   0  0  0  0  0  0  0  0  0  0  0  0
  139.3750   74.9420  221.0530 C   0  0  0  0  0  0  0  0  0  0  0  0
  139.4400   73.9680  222.0910 N   0  0  0  0  0  0  0  0  0  0  0  0
  140.0060   72.6570  221.8970 C   0  0  0  0  0  0  0  0  0  0  0  0
  140.4860   72.2960  220.7870 O   0  0  0  0  0  0  0  0  0  0  0  0
  140.0280   71.7020  223.0260 C   0  0  0  0  0  0  0  0  0  0  0  0
  139.5580   70.4320  222.8570 C   0  0  0  0  0  0  0  0  0  0  0  0
  139.5700   69.5270  223.8980 C   0  0  0  0  0  0  0  0  0  0  0  0
  140.0660   69.9310  225.1120 C   0  0  0  0  0  0  0  0  0  0  0  0
  140.1030   69.0760  226.1820 C   0  0  0  0  0  0  0  0  0  0  0  0
  140.6010   69.4830  227.4000 C   0  0  0  0  0  0  0  0  0  0  0  0
  140.6170   68.3290  228.7270 Cl  0  0  0  0  0  0  0  0  0  0  0  0
  141.0860   70.7660  227.6020 C   0  0  0  0  0  0  0  0  0  0  0  0
  141.0410   71.6210  226.5080 C   0  0  0  0  0  0  0  0  0  0  0  0
  140.5410   71.2190  225.2800 C   0  0  0  0  0  0  0  0  0  0  0  0
  140.5150   72.0800  224.2400 N   0  0  0  0  0  0  0  0  0  0  0  0
  141.7830   78.8270  221.5990 C   0  0  0  0  0  0  0  0  0  0  0  0
  142.2020   80.1550  221.4730 C   0  0  0  0  0  0  0  0  0  0  0  0
  142.3010   80.9470  222.5960 C   0  0  0  0  0  0  0  0  0  0  0  0
  141.9940   80.4500  223.8450 C   0  0  0  0  0  0  0  0  0  0  0  0
  141.5780   79.1400  223.9990 C   0  0  0  0  0  0  0  0  0  0  0  0
  141.4830   78.3610  222.8650 C   0  0  0  0  0  0  0  0  0  0  0  0
  139.6760   79.1225  219.2228 H   0  0  0  0  0  0  0  0  0  0  0  0
  140.5087   79.8839  217.8251 H   0  0  0  0  0  0  0  0  0  0  0  0
  140.1870   78.1166  217.8251 H   0  0  0  0  0  0  0  0  0  0  0  0
  142.2245   79.7171  219.3565 H   0  0  0  0  0  0  0  0  0  0  0  0
  143.3184   77.2904  218.7142 H   0  0  0  0  0  0  0  0  0  0  0  0
  141.9806   77.3178  217.5157 H   0  0  0  0  0  0  0  0  0  0  0  0
  143.2133   78.6243  217.5157 H   0  0  0  0  0  0  0  0  0  0  0  0
  142.5638   77.3373  220.3757 H   0  0  0  0  0  0  0  0  0  0  0  0
  139.5920   77.6130  220.1920 H   0  0  0  0  0  0  0  0  0  0  0  0
  138.4860   75.5652  221.2301 H   0  0  0  0  0  0  0  0  0  0  0  0
  139.3427   74.3738  220.1116 H   0  0  0  0  0  0  0  0  0  0  0  0
  139.0760   74.1470  223.0740 H   0  0  0  0  0  0  0  0  0  0  0  0
  139.1640   70.1256  221.8767 H   0  0  0  0  0  0  0  0  0  0  0  0
  139.1904   68.5041  223.7581 H   0  0  0  0  0  0  0  0  0  0  0  0
  139.7290   68.0480  226.0665 H   0  0  0  0  0  0  0  0  0  0  0  0
  141.4845   71.0892  228.5750 H   0  0  0  0  0  0  0  0  0  0  0  0
  141.4141   72.6497  226.6202 H   0  0  0  0  0  0  0  0  0  0  0  0
  142.4511   80.5650  220.4831 H   0  0  0  0  0  0  0  0  0  0  0  0
  142.6300   81.9918  222.4946 H   0  0  0  0  0  0  0  0  0  0  0  0
  142.0808   81.1014  224.7271 H   0  0  0  0  0  0  0  0  0  0  0  0
  141.3316   78.7338  224.9911 H   0  0  0  0  0  0  0  0  0  0  0  0
  141.1522   77.3175  222.9735 H   0  0  0  0  0  0  0  0  0  0  0  0
  1  2  1  0
  2  3  1  0
  2  4  1  0
  4  5  1  0
  5  6  1  0
  6  7  2  0
  6  8  1  0
  8  9  1  0
  9 10  1  0
 10 11  2  0
 10 12  1  0
 12 13  2  0
 13 14  1  0
 14 15  2  0
 15 16  1  0
 16 17  2  0
 17 18  1  0
 17 19  1  0
 19 20  2  0
 20 21  1  0
 21 22  2  0
  4 23  1  0
 23 24  2  0
 24 25  1  0
 25 26  2  0
 26 27  1  0
 27 28  2  0
 22 12  1  0
 28 23  1  0
 21 15  1  0
  1 29  1  0
  1 30  1  0
  1 31  1  0
  2 32  1  0
  3 33  1  0
  3 34  1  0
  3 35  1  0
  4 36  1  1
  5 37  1  0
  8 38  1  0
  8 39  1  0
  9 40  1  0
 13 41  1  0
 14 42  1  0
 16 43  1  0
 19 44  1  0
 20 45  1  0
 24 46  1  0
 25 47  1  0
 26 48  1  0
 27 49  1  0
 28 50  1  0
M  END
>  <smiles>  (37) 
CC(C)[C@H](NC(=O)CNC(=O)c1ccc2cc(Cl)ccc2n1)c1ccccc1

>  <score_type>  (37) 
oracle

>  <origin>  (37) 
autodockgpu

>  <m_score__min__energy>  (37) 
-8.7699999999999996

>  <m_primary>  (37) 
energy

>  <rmsd>  (37) 
4.040908326740073

>  <m_score__min__rmsd>  (37) 
4.040908326740073

>  <meeko>  (37) 
{"free_energy": -8.77, "intermolecular_energy": -10.56, "internal_energy": -1.31, "cluster_size": 11, "cluster_id": 1, "rank_in_cluster": 1}

>  <energy>  (37) 
-7.92

>  <cluster_rmsd>  (37) 
1.26

>  <cluster>  (37) 
4

$$$$

     RDKit          3D

 50 52  0  0  0  0  0  0  0  0999 V2000
  135.8440   75.1430  223.5330 C   0  0  0  0  0  0  0  0  0  0  0  0
  136.4480   76.4980  223.2540 C   0  0  0  0  0  0  0  0  0  0  0  0
  135.3400   77.3930  222.7370 C   0  0  0  0  0  0  0  0  0  0  0  0
  137.5430   76.4640  222.2510 C   0  0  2  0  0  0  0  0  0  0  0  0
  138.0040   75.1270  221.9670 N   0  0  0  0  0  0  0  0  0  0  0  0
  137.8190   74.5350  220.6940 C   0  0  0  0  0  0  0  0  0  0  0  0
  137.2340   75.2050  219.7810 O   0  0  0  0  0  0  0  0  0  0  0  0
  138.2600   73.1740  220.3250 C   0  0  0  0  0  0  0  0  0  0  0  0
  138.5180   72.2910  221.4120 N   0  0  0  0  0  0  0  0  0  0  0  0
  139.5620   72.5260  222.3780 C   0  0  0  0  0  0  0  0  0  0  0  0
  140.3100   73.5400  222.3170 O   0  0  0  0  0  0  0  0  0  0  0  0
  139.7690   71.5540  223.4730 C   0  0  0  0  0  0  0  0  0  0  0  0
  139.4440   70.2400  223.2940 C   0  0  0  0  0  0  0  0  0  0  0  0
  139.6300   69.3200  224.3040 C   0  0  0  0  0  0  0  0  0  0  0  0
  140.1520   69.7520  225.4970 C   0  0  0  0  0  0  0  0  0  0  0  0
  140.3590   68.8830  226.5360 C   0  0  0  0  0  0  0  0  0  0  0  0
  140.8820   69.3180  227.7330 C   0  0  0  0  0  0  0  0  0  0  0  0
  141.1210   68.1440  229.0200 Cl  0  0  0  0  0  0  0  0  0  0  0  0
  141.2230   70.6450  227.9450 C   0  0  0  0  0  0  0  0  0  0  0  0
  141.0070   71.5140  226.8830 C   0  0  0  0  0  0  0  0  0  0  0  0
  140.4800   71.0830  225.6750 C   0  0  0  0  0  0  0  0  0  0  0  0
  140.2850   71.9590  224.6660 N   0  0  0  0  0  0  0  0  0  0  0  0
  138.6940   77.3190  222.5730 C   0  0  0  0  0  0  0  0  0  0  0  0
  139.9860   76.8290  222.3640 C   0  0  0  0  0  0  0  0  0  0  0  0
  141.0710   77.6230  222.6620 C   0  0  0  0  0  0  0  0  0  0  0  0
  140.9040   78.8960  223.1670 C   0  0  0  0  0  0  0  0  0  0  0  0
  139.6360   79.4050  223.3850 C   0  0  0  0  0  0  0  0  0  0  0  0
  138.5600   78.5970  223.0800 C   0  0  0  0  0  0  0  0  0  0  0  0
  135.7753   74.9889  224.6200 H   0  0  0  0  0  0  0  0  0  0  0  0
  134.8379   75.0920  223.0912 H   0  0  0  0  0  0  0  0  0  0  0  0
  136.4786   74.3607  223.0912 H   0  0  0  0  0  0  0  0  0  0  0  0
  136.8915   76.8691  224.1897 H   0  0  0  0  0  0  0  0  0  0  0  0
  134.7966   77.8319  223.5868 H   0  0  0  0  0  0  0  0  0  0  0  0
  135.7739   78.1971  222.1245 H   0  0  0  0  0  0  0  0  0  0  0  0
  134.6451   76.7997  222.1245 H   0  0  0  0  0  0  0  0  0  0  0  0
  137.0703   76.8805  221.3493 H   0  0  0  0  0  0  0  0  0  0  0  0
  138.4880   74.6140  222.7320 H   0  0  0  0  0  0  0  0  0  0  0  0
  137.4744   72.7218  219.7018 H   0  0  0  0  0  0  0  0  0  0  0  0
  139.2226   73.3013  219.8080 H   0  0  0  0  0  0  0  0  0  0  0  0
  137.9570   71.4030  221.5810 H   0  0  0  0  0  0  0  0  0  0  0  0
  139.0279   69.9107  222.3304 H   0  0  0  0  0  0  0  0  0  0  0  0
  139.3656   68.2625  224.1565 H   0  0  0  0  0  0  0  0  0  0  0  0
  140.1031   67.8204  226.4117 H   0  0  0  0  0  0  0  0  0  0  0  0
  141.6416   70.9907  228.9017 H   0  0  0  0  0  0  0  0  0  0  0  0
  141.2620   72.5772  227.0041 H   0  0  0  0  0  0  0  0  0  0  0  0
  140.1354   75.8153  221.9639 H   0  0  0  0  0  0  0  0  0  0  0  0
  142.0870   77.2361  222.4947 H   0  0  0  0  0  0  0  0  0  0  0  0
  141.7860   79.5113  223.3982 H   0  0  0  0  0  0  0  0  0  0  0  0
  139.4908   80.4184  223.7874 H   0  0  0  0  0  0  0  0  0  0  0  0
  137.5463   78.9895  223.2487 H   0  0  0  0  0  0  0  0  0  0  0  0
  1  2  1  0
  2  3  1  0
  2  4  1  0
  4  5  1  0
  5  6  1  0
  6  7  2  0
  6  8  1  0
  8  9  1  0
  9 10  1  0
 10 11  2  0
 10 12  1  0
 12 13  2  0
 13 14  1  0
 14 15  2  0
 15 16  1  0
 16 17  2  0
 17 18  1  0
 17 19  1  0
 19 20  2  0
 20 21  1  0
 21 22  2  0
  4 23  1  0
 23 24  2  0
 24 25  1  0
 25 26  2  0
 26 27  1  0
 27 28  2  0
 22 12  1  0
 28 23  1  0
 21 15  1  0
  1 29  1  0
  1 30  1  0
  1 31  1  0
  2 32  1  0
  3 33  1  0
  3 34  1  0
  3 35  1  0
  4 36  1  6
  5 37  1  0
  8 38  1  0
  8 39  1  0
  9 40  1  0
 13 41  1  0
 14 42  1  0
 16 43  1  0
 19 44  1  0
 20 45  1  0
 24 46  1  0
 25 47  1  0
 26 48  1  0
 27 49  1  0
 28 50  1  0
M  END
>  <smiles>  (38) 
CC(C)[C@H](NC(=O)CNC(=O)c1ccc2cc(Cl)ccc2n1)c1ccccc1

>  <score_type>  (38) 
oracle

>  <origin>  (38) 
autodockgpu

>  <m_score__min__energy>  (38) 
-8.7699999999999996

>  <m_primary>  (38) 
energy

>  <rmsd>  (38) 
4.72709390774293

>  <m_score__min__rmsd>  (38) 
4.72709390774293

>  <meeko>  (38) 
{"free_energy": -8.09, "intermolecular_energy": -9.88, "internal_energy": -2.15, "cluster_size": 8, "cluster_id": 5, "rank_in_cluster": 1}

>  <energy>  (38) 
-7.91

>  <cluster_rmsd>  (38) 
1.29

>  <cluster>  (38) 
4

$$$$

     RDKit          3D

 50 52  0  0  0  0  0  0  0  0999 V2000
  139.1930   67.1850  226.5410 C   0  0  0  0  0  0  0  0  0  0  0  0
  139.9560   68.1410  225.6550 C   0  0  0  0  0  0  0  0  0  0  0  0
  141.3820   68.1920  226.1630 C   0  0  0  0  0  0  0  0  0  0  0  0
  139.3990   69.5180  225.6530 C   0  0  2  0  0  0  0  0  0  0  0  0
  139.2470   70.0620  224.3260 N   0  0  0  0  0  0  0  0  0  0  0  0
  137.9760   70.1710  223.7110 C   0  0  0  0  0  0  0  0  0  0  0  0
  136.9460   69.7800  224.3520 O   0  0  0  0  0  0  0  0  0  0  0  0
  137.7380   70.7130  222.3580 C   0  0  0  0  0  0  0  0  0  0  0  0
  138.2770   72.0080  222.1060 N   0  0  0  0  0  0  0  0  0  0  0  0
  139.6930   72.2770  222.1050 C   0  0  0  0  0  0  0  0  0  0  0  0
  140.5440   71.3710  222.3240 O   0  0  0  0  0  0  0  0  0  0  0  0
  140.1700   73.6520  221.8420 C   0  0  0  0  0  0  0  0  0  0  0  0
  141.2910   73.8550  221.0900 C   0  0  0  0  0  0  0  0  0  0  0  0
  141.7510   75.1300  220.8340 C   0  0  0  0  0  0  0  0  0  0  0  0
  141.0560   76.1940  221.3530 C   0  0  0  0  0  0  0  0  0  0  0  0
  141.4660   77.4830  221.1310 C   0  0  0  0  0  0  0  0  0  0  0  0
  140.7680   78.5500  221.6520 C   0  0  0  0  0  0  0  0  0  0  0  0
  141.3540   80.1750  221.3250 Cl  0  0  0  0  0  0  0  0  0  0  0  0
  139.6260   78.3750  222.4190 C   0  0  0  0  0  0  0  0  0  0  0  0
  139.2240   77.0630  222.6340 C   0  0  0  0  0  0  0  0  0  0  0  0
  139.9210   75.9850  222.1140 C   0  0  0  0  0  0  0  0  0  0  0  0
  139.4980   74.7230  222.3460 N   0  0  0  0  0  0  0  0  0  0  0  0
  140.1350   70.4750  226.4910 C   0  0  0  0  0  0  0  0  0  0  0  0
  141.0730   71.3220  225.8950 C   0  0  0  0  0  0  0  0  0  0  0  0
  141.7670   72.2230  226.6730 C   0  0  0  0  0  0  0  0  0  0  0  0
  141.5520   72.3030  228.0320 C   0  0  0  0  0  0  0  0  0  0  0  0
  140.6300   71.4760  228.6490 C   0  0  0  0  0  0  0  0  0  0  0  0
  139.9430   70.5800  227.8560 C   0  0  0  0  0  0  0  0  0  0  0  0
  139.3873   67.4284  227.5960 H   0  0  0  0  0  0  0  0  0  0  0  0
  138.1160   67.2754  226.3361 H   0  0  0  0  0  0  0  0  0  0  0  0
  139.5200   66.1549  226.3361 H   0  0  0  0  0  0  0  0  0  0  0  0
  139.8871   67.7728  224.6207 H   0  0  0  0  0  0  0  0  0  0  0  0
  141.3796   68.1919  227.2630 H   0  0  0  0  0  0  0  0  0  0  0  0
  141.9331   67.3130  225.7975 H   0  0  0  0  0  0  0  0  0  0  0  0
  141.8689   69.1081  225.7975 H   0  0  0  0  0  0  0  0  0  0  0  0
  138.4039   69.3871  226.1032 H   0  0  0  0  0  0  0  0  0  0  0  0
  140.1090   70.3810  223.8370 H   0  0  0  0  0  0  0  0  0  0  0  0
  138.1814   70.0156  221.6320 H   0  0  0  0  0  0  0  0  0  0  0  0
  136.6471   70.8199  222.2661 H   0  0  0  0  0  0  0  0  0  0  0  0
  137.6700   72.8570  221.9030 H   0  0  0  0  0  0  0  0  0  0  0  0
  141.8349   72.9900  220.6826 H   0  0  0  0  0  0  0  0  0  0  0  0
  142.6546   75.2906  220.2275 H   0  0  0  0  0  0  0  0  0  0  0  0
  142.3667   77.6682  220.5272 H   0  0  0  0  0  0  0  0  0  0  0  0
  139.0693   79.2281  222.8342 H   0  0  0  0  0  0  0  0  0  0  0  0
  138.3233   76.8741  223.2365 H   0  0  0  0  0  0  0  0  0  0  0  0
  141.2562   71.2699  224.8116 H   0  0  0  0  0  0  0  0  0  0  0  0
  142.5046   72.8892  226.2018 H   0  0  0  0  0  0  0  0  0  0  0  0
  142.1184   73.0308  228.6315 H   0  0  0  0  0  0  0  0  0  0  0  0
  140.4512   71.5309  229.7330 H   0  0  0  0  0  0  0  0  0  0  0  0
  139.2065   69.9168  228.3332 H   0  0  0  0  0  0  0  0  0  0  0  0
  1  2  1  0
  2  3  1  0
  2  4  1  0
  4  5  1  0
  5  6  1  0
  6  7  2  0
  6  8  1  0
  8  9  1  0
  9 10  1  0
 10 11  2  0
 10 12  1  0
 12 13  2  0
 13 14  1  0
 14 15  2  0
 15 16  1  0
 16 17  2  0
 17 18  1  0
 17 19  1  0
 19 20  2  0
 20 21  1  0
 21 22  2  0
  4 23  1  0
 23 24  2  0
 24 25  1  0
 25 26  2  0
 26 27  1  0
 27 28  2  0
 22 12  1  0
 28 23  1  0
 21 15  1  0
  1 29  1  0
  1 30  1  0
  1 31  1  0
  2 32  1  0
  3 33  1  0
  3 34  1  0
  3 35  1  0
  4 36  1  1
  5 37  1  0
  8 38  1  0
  8 39  1  0
  9 40  1  0
 13 41  1  0
 14 42  1  0
 16 43  1  0
 19 44  1  0
 20 45  1  0
 24 46  1  0
 25 47  1  0
 26 48  1  0
 27 49  1  0
 28 50  1  0
M  END
>  <smiles>  (39) 
CC(C)[C@H](NC(=O)CNC(=O)c1ccc2cc(Cl)ccc2n1)c1ccccc1

>  <score_type>  (39) 
oracle

>  <origin>  (39) 
autodockgpu

>  <m_score__min__energy>  (39) 
-8.7699999999999996

>  <m_primary>  (39) 
energy

>  <rmsd>  (39) 
9.571416232828426

>  <m_score__min__rmsd>  (39) 
9.571416232828426

>  <meeko>  (39) 
{"free_energy": -7.81, "intermolecular_energy": -9.6, "internal_energy": -2.29, "cluster_size": 11, "cluster_id": 3, "rank_in_cluster": 4}

>  <energy>  (39) 
-7.9

>  <cluster_rmsd>  (39) 
1.12

>  <cluster>  (39) 
4

$$$$

     RDKit          3D

 50 52  0  0  0  0  0  0  0  0999 V2000
  138.9060   72.6450  222.3460 C   0  0  0  0  0  0  0  0  0  0  0  0
  139.9490   72.0610  223.2700 C   0  0  0  0  0  0  0  0  0  0  0  0
  141.0690   71.5180  222.4070 C   0  0  0  0  0  0  0  0  0  0  0  0
  139.4320   70.9650  224.1290 C   0  0  2  0  0  0  0  0  0  0  0  0
  137.9930   70.9600  224.2300 N   0  0  0  0  0  0  0  0  0  0  0  0
  137.2620   69.7520  224.3340 C   0  0  0  0  0  0  0  0  0  0  0  0
  137.8970   68.6470  224.3420 O   0  0  0  0  0  0  0  0  0  0  0  0
  135.7910   69.6620  224.4390 C   0  0  0  0  0  0  0  0  0  0  0  0
  135.1360   70.8180  224.9520 N   0  0  0  0  0  0  0  0  0  0  0  0
  134.1380   70.7540  225.9910 C   0  0  0  0  0  0  0  0  0  0  0  0
  133.7900   69.6600  226.5130 O   0  0  0  0  0  0  0  0  0  0  0  0
  133.5000   72.0020  226.4610 C   0  0  0  0  0  0  0  0  0  0  0  0
  132.3470   71.9480  227.1910 C   0  0  0  0  0  0  0  0  0  0  0  0
  131.7370   73.1010  227.6390 C   0  0  0  0  0  0  0  0  0  0  0  0
  132.3140   74.3090  227.3360 C   0  0  0  0  0  0  0  0  0  0  0  0
  131.7530   75.4870  227.7540 C   0  0  0  0  0  0  0  0  0  0  0  0
  132.3330   76.6980  227.4490 C   0  0  0  0  0  0  0  0  0  0  0  0
  131.5560   78.1680  228.0210 Cl  0  0  0  0  0  0  0  0  0  0  0  0
  133.5040   76.7850  226.7100 C   0  0  0  0  0  0  0  0  0  0  0  0
  134.0600   75.5820  226.2940 C   0  0  0  0  0  0  0  0  0  0  0  0
  133.4820   74.3600  226.5970 C   0  0  0  0  0  0  0  0  0  0  0  0
  134.0530   73.2120  226.1740 N   0  0  0  0  0  0  0  0  0  0  0  0
  140.0150   70.9200  225.4770 C   0  0  0  0  0  0  0  0  0  0  0  0
  139.7090   69.8440  226.3160 C   0  0  0  0  0  0  0  0  0  0  0  0
  140.2520   69.7920  227.5810 C   0  0  0  0  0  0  0  0  0  0  0  0
  141.0940   70.7850  228.0350 C   0  0  0  0  0  0  0  0  0  0  0  0
  141.4130   71.8620  227.2260 C   0  0  0  0  0  0  0  0  0  0  0  0
  140.8610   71.8980  225.9620 C   0  0  0  0  0  0  0  0  0  0  0  0
  138.0995   73.0966  222.9423 H   0  0  0  0  0  0  0  0  0  0  0  0
  139.3684   73.4155  221.7115 H   0  0  0  0  0  0  0  0  0  0  0  0
  138.4908   71.8481  221.7115 H   0  0  0  0  0  0  0  0  0  0  0  0
  140.2851   72.8592  223.9482 H   0  0  0  0  0  0  0  0  0  0  0  0
  141.8719   71.1288  223.0503 H   0  0  0  0  0  0  0  0  0  0  0  0
  140.6825   70.7073  221.7719 H   0  0  0  0  0  0  0  0  0  0  0  0
  141.4661   72.3236  221.7719 H   0  0  0  0  0  0  0  0  0  0  0  0
  139.7581   70.0568  223.6010 H   0  0  0  0  0  0  0  0  0  0  0  0
  137.5090   71.8820  224.2320 H   0  0  0  0  0  0  0  0  0  0  0  0
  135.3918   69.4661  223.4329 H   0  0  0  0  0  0  0  0  0  0  0  0
  135.5910   68.8583  225.1629 H   0  0  0  0  0  0  0  0  0  0  0  0
  135.3410   71.8010  224.6020 H   0  0  0  0  0  0  0  0  0  0  0  0
  131.8985   70.9712  227.4249 H   0  0  0  0  0  0  0  0  0  0  0  0
  130.8082   73.0535  228.2264 H   0  0  0  0  0  0  0  0  0  0  0  0
  130.8241   75.4650  228.3428 H   0  0  0  0  0  0  0  0  0  0  0  0
  133.9665   77.7530  226.4670 H   0  0  0  0  0  0  0  0  0  0  0  0
  134.9889   75.6002  225.7052 H   0  0  0  0  0  0  0  0  0  0  0  0
  139.0389   69.0441  225.9681 H   0  0  0  0  0  0  0  0  0  0  0  0
  140.0100   68.9447  228.2394 H   0  0  0  0  0  0  0  0  0  0  0  0
  141.5159   70.7208  229.0489 H   0  0  0  0  0  0  0  0  0  0  0  0
  142.0826   72.6605  227.5782 H   0  0  0  0  0  0  0  0  0  0  0  0
  141.1069   72.7477  225.3082 H   0  0  0  0  0  0  0  0  0  0  0  0
  1  2  1  0
  2  3  1  0
  2  4  1  0
  4  5  1  0
  5  6  1  0
  6  7  2  0
  6  8  1  0
  8  9  1  0
  9 10  1  0
 10 11  2  0
 10 12  1  0
 12 13  2  0
 13 14  1  0
 14 15  2  0
 15 16  1  0
 16 17  2  0
 17 18  1  0
 17 19  1  0
 19 20  2  0
 20 21  1  0
 21 22  2  0
  4 23  1  0
 23 24  2  0
 24 25  1  0
 25 26  2  0
 26 27  1  0
 27 28  2  0
 22 12  1  0
 28 23  1  0
 21 15  1  0
  1 29  1  0
  1 30  1  0
  1 31  1  0
  2 32  1  0
  3 33  1  0
  3 34  1  0
  3 35  1  0
  4 36  1  6
  5 37  1  0
  8 38  1  0
  8 39  1  0
  9 40  1  0
 13 41  1  0
 14 42  1  0
 16 43  1  0
 19 44  1  0
 20 45  1  0
 24 46  1  0
 25 47  1  0
 26 48  1  0
 27 49  1  0
 28 50  1  0
M  END
>  <smiles>  (40) 
CC(C)[C@H](NC(=O)CNC(=O)c1ccc2cc(Cl)ccc2n1)c1ccccc1

>  <score_type>  (40) 
oracle

>  <origin>  (40) 
autodockgpu

>  <m_score__min__energy>  (40) 
-8.7699999999999996

>  <m_primary>  (40) 
energy

>  <rmsd>  (40) 
10.080670553833798

>  <m_score__min__rmsd>  (40) 
10.080670553833798

>  <meeko>  (40) 
{"free_energy": -8.6, "intermolecular_energy": -10.39, "internal_energy": -1.5, "cluster_size": 8, "cluster_id": 2, "rank_in_cluster": 1}

>  <energy>  (40) 
-7.9

>  <cluster_rmsd>  (40) 
1.32

>  <cluster>  (40) 
4

$$$$

     RDKit          3D

 50 52  0  0  0  0  0  0  0  0999 V2000
  141.4090   76.4460  220.7790 C   0  0  0  0  0  0  0  0  0  0  0  0
  142.6040   76.0970  219.9240 C   0  0  0  0  0  0  0  0  0  0  0  0
  142.5780   77.0070  218.7130 C   0  0  0  0  0  0  0  0  0  0  0  0
  142.6100   74.6860  219.4620 C   0  0  2  0  0  0  0  0  0  0  0  0
  141.4590   73.9420  219.9110 N   0  0  0  0  0  0  0  0  0  0  0  0
  140.2120   74.0350  219.2470 C   0  0  0  0  0  0  0  0  0  0  0  0
  140.1110   74.7940  218.2270 O   0  0  0  0  0  0  0  0  0  0  0  0
  138.9880   73.3090  219.6440 C   0  0  0  0  0  0  0  0  0  0  0  0
  139.1250   72.4270  220.7550 N   0  0  0  0  0  0  0  0  0  0  0  0
  139.7020   72.8360  222.0100 C   0  0  0  0  0  0  0  0  0  0  0  0
  140.1190   74.0120  222.2000 O   0  0  0  0  0  0  0  0  0  0  0  0
  139.8150   71.8550  223.1110 C   0  0  0  0  0  0  0  0  0  0  0  0
  139.4100   70.5650  222.9220 C   0  0  0  0  0  0  0  0  0  0  0  0
  139.5070   69.6360  223.9370 C   0  0  0  0  0  0  0  0  0  0  0  0
  140.0220   70.0360  225.1450 C   0  0  0  0  0  0  0  0  0  0  0  0
  140.1420   69.1570  226.1900 C   0  0  0  0  0  0  0  0  0  0  0  0
  140.6590   69.5600  227.4000 C   0  0  0  0  0  0  0  0  0  0  0  0
  140.7840   68.3750  228.6940 Cl  0  0  0  0  0  0  0  0  0  0  0  0
  141.0800   70.8620  227.6220 C   0  0  0  0  0  0  0  0  0  0  0  0
  140.9510   71.7410  226.5540 C   0  0  0  0  0  0  0  0  0  0  0  0
  140.4310   71.3430  225.3320 C   0  0  0  0  0  0  0  0  0  0  0  0
  140.3220   72.2280  224.3180 N   0  0  0  0  0  0  0  0  0  0  0  0
  143.8320   73.9400  219.7930 C   0  0  0  0  0  0  0  0  0  0  0  0
  144.8240   74.5630  220.5550 C   0  0  0  0  0  0  0  0  0  0  0  0
  145.9740   73.8730  220.8720 C   0  0  0  0  0  0  0  0  0  0  0  0
  146.1620   72.5740  220.4470 C   0  0  0  0  0  0  0  0  0  0  0  0
  145.1970   71.9340  219.6900 C   0  0  0  0  0  0  0  0  0  0  0  0
  144.0520   72.6390  219.3830 C   0  0  0  0  0  0  0  0  0  0  0  0
  141.6825   76.3661  221.8415 H   0  0  0  0  0  0  0  0  0  0  0  0
  141.0889   77.4752  220.5591 H   0  0  0  0  0  0  0  0  0  0  0  0
  140.5853   75.7509  220.5591 H   0  0  0  0  0  0  0  0  0  0  0  0
  143.5083   76.2303  220.5360 H   0  0  0  0  0  0  0  0  0  0  0  0
  142.5480   78.0559  219.0431 H   0  0  0  0  0  0  0  0  0  0  0  0
  143.4813   76.8386  218.1083 H   0  0  0  0  0  0  0  0  0  0  0  0
  141.6858   76.7873  218.1083 H   0  0  0  0  0  0  0  0  0  0  0  0
  142.5719   74.7806  218.3667 H   0  0  0  0  0  0  0  0  0  0  0  0
  141.5810   73.3240  220.7390 H   0  0  0  0  0  0  0  0  0  0  0  0
  138.2200   74.0547  219.8973 H   0  0  0  0  0  0  0  0  0  0  0  0
  138.7260   72.6720  218.7863 H   0  0  0  0  0  0  0  0  0  0  0  0
  138.8090   71.4120  220.7280 H   0  0  0  0  0  0  0  0  0  0  0  0
  139.0007   70.2623  221.9469 H   0  0  0  0  0  0  0  0  0  0  0  0
  139.1789   68.5976  223.7819 H   0  0  0  0  0  0  0  0  0  0  0  0
  139.8200   68.1133  226.0594 H   0  0  0  0  0  0  0  0  0  0  0  0
  141.4933   71.1814  228.5901 H   0  0  0  0  0  0  0  0  0  0  0  0
  141.2715   72.7855  226.6819 H   0  0  0  0  0  0  0  0  0  0  0  0
  144.6877   75.5986  220.8999 H   0  0  0  0  0  0  0  0  0  0  0  0
  146.7533   74.3650  221.4725 H   0  0  0  0  0  0  0  0  0  0  0  0
  147.0876   72.0423  220.7125 H   0  0  0  0  0  0  0  0  0  0  0  0
  145.3380   70.8991  219.3450 H   0  0  0  0  0  0  0  0  0  0  0  0
  143.2763   72.1413  218.7825 H   0  0  0  0  0  0  0  0  0  0  0  0
  1  2  1  0
  2  3  1  0
  2  4  1  0
  4  5  1  0
  5  6  1  0
  6  7  2  0
  6  8  1  0
  8  9  1  0
  9 10  1  0
 10 11  2  0
 10 12  1  0
 12 13  2  0
 13 14  1  0
 14 15  2  0
 15 16  1  0
 16 17  2  0
 17 18  1  0
 17 19  1  0
 19 20  2  0
 20 21  1  0
 21 22  2  0
  4 23  1  0
 23 24  2  0
 24 25  1  0
 25 26  2  0
 26 27  1  0
 27 28  2  0
 22 12  1  0
 28 23  1  0
 21 15  1  0
  1 29  1  0
  1 30  1  0
  1 31  1  0
  2 32  1  0
  3 33  1  0
  3 34  1  0
  3 35  1  0
  4 36  1  6
  5 37  1  0
  8 38  1  0
  8 39  1  0
  9 40  1  0
 13 41  1  0
 14 42  1  0
 16 43  1  0
 19 44  1  0
 20 45  1  0
 24 46  1  0
 25 47  1  0
 26 48  1  0
 27 49  1  0
 28 50  1  0
M  END
>  <smiles>  (41) 
CC(C)[C@H](NC(=O)CNC(=O)c1ccc2cc(Cl)ccc2n1)c1ccccc1

>  <score_type>  (41) 
oracle

>  <origin>  (41) 
autodockgpu

>  <m_score__min__energy>  (41) 
-8.7699999999999996

>  <m_primary>  (41) 
energy

>  <rmsd>  (41) 
6.636110988216825

>  <m_score__min__rmsd>  (41) 
6.636110988216825

>  <meeko>  (41) 
{"free_energy": -7.92, "intermolecular_energy": -9.71, "internal_energy": -1.93, "cluster_size": 12, "cluster_id": 4, "rank_in_cluster": 7}

>  <energy>  (41) 
-7.86

>  <cluster_rmsd>  (41) 
1.17

>  <cluster>  (41) 
4

$$$$

     RDKit          3D

 50 52  0  0  0  0  0  0  0  0999 V2000
  141.7730   77.4060  220.8680 C   0  0  0  0  0  0  0  0  0  0  0  0
  142.7010   76.6830  219.9200 C   0  0  0  0  0  0  0  0  0  0  0  0
  142.5280   77.3060  218.5500 C   0  0  0  0  0  0  0  0  0  0  0  0
  142.4290   75.2260  219.8210 C   0  0  2  0  0  0  0  0  0  0  0  0
  141.2680   74.8190  220.5740 N   0  0  0  0  0  0  0  0  0  0  0  0
  139.9600   75.1910  220.1780 C   0  0  0  0  0  0  0  0  0  0  0  0
  139.8120   75.9010  219.1300 O   0  0  0  0  0  0  0  0  0  0  0  0
  138.7230   74.8160  220.8940 C   0  0  0  0  0  0  0  0  0  0  0  0
  138.8820   73.8770  221.9530 N   0  0  0  0  0  0  0  0  0  0  0  0
  139.7040   72.6980  221.8350 C   0  0  0  0  0  0  0  0  0  0  0  0
  140.3400   72.4330  220.7780 O   0  0  0  0  0  0  0  0  0  0  0  0
  139.8080   71.7690  222.9800 C   0  0  0  0  0  0  0  0  0  0  0  0
  139.3830   70.4770  222.8540 C   0  0  0  0  0  0  0  0  0  0  0  0
  139.4720   69.5960  223.9110 C   0  0  0  0  0  0  0  0  0  0  0  0
  139.9990   70.0440  225.0970 C   0  0  0  0  0  0  0  0  0  0  0  0
  140.1120   69.2130  226.1810 C   0  0  0  0  0  0  0  0  0  0  0  0
  140.6410   69.6650  227.3690 C   0  0  0  0  0  0  0  0  0  0  0  0
  140.7560   68.5400  228.7160 Cl  0  0  0  0  0  0  0  0  0  0  0  0
  141.0820   70.9700  227.5280 C   0  0  0  0  0  0  0  0  0  0  0  0
  140.9600   71.8000  226.4200 C   0  0  0  0  0  0  0  0  0  0  0  0
  140.4290   71.3530  225.2210 C   0  0  0  0  0  0  0  0  0  0  0  0
  140.3270   72.1900  224.1660 N   0  0  0  0  0  0  0  0  0  0  0  0
  143.5670   74.3670  220.1760 C   0  0  0  0  0  0  0  0  0  0  0  0
  143.3900   72.9810  220.2080 C   0  0  0  0  0  0  0  0  0  0  0  0
  144.4520   72.1670  220.5380 C   0  0  0  0  0  0  0  0  0  0  0  0
  145.6880   72.6990  220.8390 C   0  0  0  0  0  0  0  0  0  0  0  0
  145.8910   74.0670  220.8160 C   0  0  0  0  0  0  0  0  0  0  0  0
  144.8180   74.8680  220.4820 C   0  0  0  0  0  0  0  0  0  0  0  0
  142.0611   77.1815  221.9056 H   0  0  0  0  0  0  0  0  0  0  0  0
  141.8431   78.4899  220.6943 H   0  0  0  0  0  0  0  0  0  0  0  0
  140.7391   77.0729  220.6943 H   0  0  0  0  0  0  0  0  0  0  0  0
  143.7259   76.7854  220.3062 H   0  0  0  0  0  0  0  0  0  0  0  0
  142.2352   78.3605  218.6611 H   0  0  0  0  0  0  0  0  0  0  0  0
  143.4770   77.2453  217.9971 H   0  0  0  0  0  0  0  0  0  0  0  0
  141.7462   76.7646  217.9971 H   0  0  0  0  0  0  0  0  0  0  0  0
  142.2318   75.0787  218.7489 H   0  0  0  0  0  0  0  0  0  0  0  0
  141.4260   74.2300  221.4170 H   0  0  0  0  0  0  0  0  0  0  0  0
  138.2870   75.7326  221.3179 H   0  0  0  0  0  0  0  0  0  0  0  0
  138.0837   74.3209  220.1482 H   0  0  0  0  0  0  0  0  0  0  0  0
  138.4040   73.9850  222.8970 H   0  0  0  0  0  0  0  0  0  0  0  0
  138.9640   70.1347  221.8963 H   0  0  0  0  0  0  0  0  0  0  0  0
  139.1281   68.5564  223.8062 H   0  0  0  0  0  0  0  0  0  0  0  0
  139.7749   68.1690  226.1006 H   0  0  0  0  0  0  0  0  0  0  0  0
  141.5048   71.3283  228.4782 H   0  0  0  0  0  0  0  0  0  0  0  0
  141.2956   72.8447  226.4974 H   0  0  0  0  0  0  0  0  0  0  0  0
  142.4093   72.5426  219.9713 H   0  0  0  0  0  0  0  0  0  0  0  0
  144.3115   71.0763  220.5616 H   0  0  0  0  0  0  0  0  0  0  0  0
  146.5205   72.0291  221.0999 H   0  0  0  0  0  0  0  0  0  0  0  0
  146.8730   74.5011  221.0554 H   0  0  0  0  0  0  0  0  0  0  0  0
  144.9656   75.9578  220.4582 H   0  0  0  0  0  0  0  0  0  0  0  0
  1  2  1  0
  2  3  1  0
  2  4  1  0
  4  5  1  0
  5  6  1  0
  6  7  2  0
  6  8  1  0
  8  9  1  0
  9 10  1  0
 10 11  2  0
 10 12  1  0
 12 13  2  0
 13 14  1  0
 14 15  2  0
 15 16  1  0
 16 17  2  0
 17 18  1  0
 17 19  1  0
 19 20  2  0
 20 21  1  0
 21 22  2  0
  4 23  1  0
 23 24  2  0
 24 25  1  0
 25 26  2  0
 26 27  1  0
 27 28  2  0
 22 12  1  0
 28 23  1  0
 21 15  1  0
  1 29  1  0
  1 30  1  0
  1 31  1  0
  2 32  1  0
  3 33  1  0
  3 34  1  0
  3 35  1  0
  4 36  1  6
  5 37  1  0
  8 38  1  0
  8 39  1  0
  9 40  1  0
 13 41  1  0
 14 42  1  0
 16 43  1  0
 19 44  1  0
 20 45  1  0
 24 46  1  0
 25 47  1  0
 26 48  1  0
 27 49  1  0
 28 50  1  0
M  END
>  <smiles>  (42) 
CC(C)[C@H](NC(=O)CNC(=O)c1ccc2cc(Cl)ccc2n1)c1ccccc1

>  <score_type>  (42) 
oracle

>  <origin>  (42) 
autodockgpu

>  <m_score__min__energy>  (42) 
-8.7699999999999996

>  <m_primary>  (42) 
energy

>  <rmsd>  (42) 
6.221397947822531

>  <m_score__min__rmsd>  (42) 
6.221397947822531

>  <meeko>  (42) 
{"free_energy": -8.11, "intermolecular_energy": -9.9, "internal_energy": -1.87, "cluster_size": 12, "cluster_id": 4, "rank_in_cluster": 2}

>  <energy>  (42) 
-7.82

>  <cluster_rmsd>  (42) 
1.35

>  <cluster>  (42) 
4

$$$$

     RDKit          3D

 50 52  0  0  0  0  0  0  0  0999 V2000
  138.9540   72.6480  222.3120 C   0  0  0  0  0  0  0  0  0  0  0  0
  140.0000   72.0360  223.2130 C   0  0  0  0  0  0  0  0  0  0  0  0
  141.0840   71.4600  222.3260 C   0  0  0  0  0  0  0  0  0  0  0  0
  139.4710   70.9570  224.0860 C   0  0  2  0  0  0  0  0  0  0  0  0
  138.0310   70.9490  224.1610 N   0  0  0  0  0  0  0  0  0  0  0  0
  137.3010   69.7390  224.2470 C   0  0  0  0  0  0  0  0  0  0  0  0
  137.9370   68.6340  224.2600 O   0  0  0  0  0  0  0  0  0  0  0  0
  135.8280   69.6460  224.3260 C   0  0  0  0  0  0  0  0  0  0  0  0
  135.1620   70.7970  224.8380 N   0  0  0  0  0  0  0  0  0  0  0  0
  134.2010   70.7300  225.9100 C   0  0  0  0  0  0  0  0  0  0  0  0
  133.8950   69.6380  226.4640 O   0  0  0  0  0  0  0  0  0  0  0  0
  133.5480   71.9720  226.3770 C   0  0  0  0  0  0  0  0  0  0  0  0
  132.3820   71.9080  227.0850 C   0  0  0  0  0  0  0  0  0  0  0  0
  131.7590   73.0550  227.5300 C   0  0  0  0  0  0  0  0  0  0  0  0
  132.3370   74.2670  227.2450 C   0  0  0  0  0  0  0  0  0  0  0  0
  131.7620   75.4400  227.6610 C   0  0  0  0  0  0  0  0  0  0  0  0
  132.3430   76.6550  227.3740 C   0  0  0  0  0  0  0  0  0  0  0  0
  131.5480   78.1180  227.9420 Cl  0  0  0  0  0  0  0  0  0  0  0  0
  133.5260   76.7530  226.6580 C   0  0  0  0  0  0  0  0  0  0  0  0
  134.0950   75.5550  226.2440 C   0  0  0  0  0  0  0  0  0  0  0  0
  133.5170   74.3280  226.5280 C   0  0  0  0  0  0  0  0  0  0  0  0
  134.1010   73.1860  226.1070 N   0  0  0  0  0  0  0  0  0  0  0  0
  140.0310   70.9410  225.4450 C   0  0  0  0  0  0  0  0  0  0  0  0
  139.6630   69.9170  226.3210 C   0  0  0  0  0  0  0  0  0  0  0  0
  140.1840   69.8930  227.5970 C   0  0  0  0  0  0  0  0  0  0  0  0
  141.0630   70.8660  228.0240 C   0  0  0  0  0  0  0  0  0  0  0  0
  141.4430   71.8920  227.1780 C   0  0  0  0  0  0  0  0  0  0  0  0
  140.9140   71.9000  225.9040 C   0  0  0  0  0  0  0  0  0  0  0  0
  138.1659   73.1091  222.9255 H   0  0  0  0  0  0  0  0  0  0  0  0
  139.4206   73.4156  221.6771 H   0  0  0  0  0  0  0  0  0  0  0  0
  138.5135   71.8652  221.6771 H   0  0  0  0  0  0  0  0  0  0  0  0
  140.3746   72.8250  223.8817 H   0  0  0  0  0  0  0  0  0  0  0  0
  141.8828   71.0355  222.9519 H   0  0  0  0  0  0  0  0  0  0  0  0
  140.6568   70.6699  221.6910 H   0  0  0  0  0  0  0  0  0  0  0  0
  141.4997   72.2562  221.6910 H   0  0  0  0  0  0  0  0  0  0  0  0
  139.8091   70.0389  223.5833 H   0  0  0  0  0  0  0  0  0  0  0  0
  137.5460   71.8700  224.1600 H   0  0  0  0  0  0  0  0  0  0  0  0
  135.4465   69.4583  223.3115 H   0  0  0  0  0  0  0  0  0  0  0  0
  135.6169   68.8358  225.0394 H   0  0  0  0  0  0  0  0  0  0  0  0
  135.3330   71.7770  224.4630 H   0  0  0  0  0  0  0  0  0  0  0  0
  131.9334   70.9277  227.3034 H   0  0  0  0  0  0  0  0  0  0  0  0
  130.8201   72.9999  228.1004 H   0  0  0  0  0  0  0  0  0  0  0  0
  130.8226   75.4101  228.2325 H   0  0  0  0  0  0  0  0  0  0  0  0
  133.9883   77.7248  226.4304 H   0  0  0  0  0  0  0  0  0  0  0  0
  135.0345   75.5814  225.6724 H   0  0  0  0  0  0  0  0  0  0  0  0
  138.9619   69.1347  225.9946 H   0  0  0  0  0  0  0  0  0  0  0  0
  139.8942   69.0853  228.2852 H   0  0  0  0  0  0  0  0  0  0  0  0
  141.4656   70.8257  229.0469 H   0  0  0  0  0  0  0  0  0  0  0  0
  142.1422   72.6739  227.5092 H   0  0  0  0  0  0  0  0  0  0  0  0
  141.2094   72.7092  225.2200 H   0  0  0  0  0  0  0  0  0  0  0  0
  1  2  1  0
  2  3  1  0
  2  4  1  0
  4  5  1  0
  5  6  1  0
  6  7  2  0
  6  8  1  0
  8  9  1  0
  9 10  1  0
 10 11  2  0
 10 12  1  0
 12 13  2  0
 13 14  1  0
 14 15  2  0
 15 16  1  0
 16 17  2  0
 17 18  1  0
 17 19  1  0
 19 20  2  0
 20 21  1  0
 21 22  2  0
  4 23  1  0
 23 24  2  0
 24 25  1  0
 25 26  2  0
 26 27  1  0
 27 28  2  0
 22 12  1  0
 28 23  1  0
 21 15  1  0
  1 29  1  0
  1 30  1  0
  1 31  1  0
  2 32  1  0
  3 33  1  0
  3 34  1  0
  3 35  1  0
  4 36  1  6
  5 37  1  0
  8 38  1  0
  8 39  1  0
  9 40  1  0
 13 41  1  0
 14 42  1  0
 16 43  1  0
 19 44  1  0
 20 45  1  0
 24 46  1  0
 25 47  1  0
 26 48  1  0
 27 49  1  0
 28 50  1  0
M  END
>  <smiles>  (43) 
CC(C)[C@H](NC(=O)CNC(=O)c1ccc2cc(Cl)ccc2n1)c1ccccc1

>  <score_type>  (43) 
oracle

>  <origin>  (43) 
autodockgpu

>  <m_score__min__energy>  (43) 
-8.7699999999999996

>  <m_primary>  (43) 
energy

>  <rmsd>  (43) 
10.030467554535392

>  <m_score__min__rmsd>  (43) 
10.030467554535392

>  <meeko>  (43) 
{"free_energy": -8.57, "intermolecular_energy": -10.36, "internal_energy": -1.49, "cluster_size": 8, "cluster_id": 2, "rank_in_cluster": 2}

>  <energy>  (43) 
-8.09

>  <cluster_rmsd>  (43) 
0.0

>  <cluster>  (43) 
5

$$$$

     RDKit          3D

 50 52  0  0  0  0  0  0  0  0999 V2000
  141.7340   76.9630  219.8860 C   0  0  0  0  0  0  0  0  0  0  0  0
  142.9190   76.2480  219.2820 C   0  0  0  0  0  0  0  0  0  0  0  0
  143.0930   76.7670  217.8690 C   0  0  0  0  0  0  0  0  0  0  0  0
  142.7580   74.7720  219.2330 C   0  0  2  0  0  0  0  0  0  0  0  0
  141.5530   74.3160  219.8800 N   0  0  0  0  0  0  0  0  0  0  0  0
  140.4210   73.9060  219.1330 C   0  0  0  0  0  0  0  0  0  0  0  0
  140.4770   73.9410  217.8610 O   0  0  0  0  0  0  0  0  0  0  0  0
  139.1520   73.4290  219.7200 C   0  0  0  0  0  0  0  0  0  0  0  0
  139.2770   72.5180  220.8090 N   0  0  0  0  0  0  0  0  0  0  0  0
  139.8230   72.9000  222.0870 C   0  0  0  0  0  0  0  0  0  0  0  0
  140.2210   74.0750  222.3170 O   0  0  0  0  0  0  0  0  0  0  0  0
  139.9250   71.8910  223.1630 C   0  0  0  0  0  0  0  0  0  0  0  0
  139.5320   70.6040  222.9340 C   0  0  0  0  0  0  0  0  0  0  0  0
  139.6190   69.6490  223.9250 C   0  0  0  0  0  0  0  0  0  0  0  0
  140.1130   70.0200  225.1510 C   0  0  0  0  0  0  0  0  0  0  0  0
  140.2230   69.1140  226.1740 C   0  0  0  0  0  0  0  0  0  0  0  0
  140.7180   69.4880  227.4030 C   0  0  0  0  0  0  0  0  0  0  0  0
  140.8310   68.2700  228.6660 Cl  0  0  0  0  0  0  0  0  0  0  0  0
  141.1270   70.7870  227.6650 C   0  0  0  0  0  0  0  0  0  0  0  0
  141.0080   71.6920  226.6190 C   0  0  0  0  0  0  0  0  0  0  0  0
  140.5110   71.3240  225.3790 C   0  0  0  0  0  0  0  0  0  0  0  0
  140.4110   72.2340  224.3870 N   0  0  0  0  0  0  0  0  0  0  0  0
  143.9070   74.0150  219.7500 C   0  0  0  0  0  0  0  0  0  0  0  0
  144.8820   74.6830  220.4970 C   0  0  0  0  0  0  0  0  0  0  0  0
  145.9620   73.9820  220.9870 C   0  0  0  0  0  0  0  0  0  0  0  0
  146.0980   72.6300  220.7530 C   0  0  0  0  0  0  0  0  0  0  0  0
  145.1480   71.9440  220.0170 C   0  0  0  0  0  0  0  0  0  0  0  0
  144.0720   72.6610  219.5340 C   0  0  0  0  0  0  0  0  0  0  0  0
  141.8014   76.9223  220.9832 H   0  0  0  0  0  0  0  0  0  0  0  0
  141.7327   78.0128  219.5574 H   0  0  0  0  0  0  0  0  0  0  0  0
  140.8047   76.4748  219.5574 H   0  0  0  0  0  0  0  0  0  0  0  0
  143.7941   76.4477  219.9178 H   0  0  0  0  0  0  0  0  0  0  0  0
  143.4425   77.8095  217.9017 H   0  0  0  0  0  0  0  0  0  0  0  0
  143.8330   76.1486  217.3398 H   0  0  0  0  0  0  0  0  0  0  0  0
  142.1298   76.7196  217.3398 H   0  0  0  0  0  0  0  0  0  0  0  0
  142.6878   74.5622  218.1555 H   0  0  0  0  0  0  0  0  0  0  0  0
  141.5480   74.2890  220.9200 H   0  0  0  0  0  0  0  0  0  0  0  0
  138.5938   74.3072  220.0768 H   0  0  0  0  0  0  0  0  0  0  0  0
  138.6435   72.8710  218.9200 H   0  0  0  0  0  0  0  0  0  0  0  0
  138.9750   71.5000  220.7480 H   0  0  0  0  0  0  0  0  0  0  0  0
  139.1403   70.3246  221.9448 H   0  0  0  0  0  0  0  0  0  0  0  0
  139.2997   68.6132  223.7374 H   0  0  0  0  0  0  0  0  0  0  0  0
  139.9109   68.0720  226.0103 H   0  0  0  0  0  0  0  0  0  0  0  0
  141.5237   71.0838  228.6471 H   0  0  0  0  0  0  0  0  0  0  0  0
  141.3183   72.7350  226.7798 H   0  0  0  0  0  0  0  0  0  0  0  0
  144.7873   75.7614  220.6922 H   0  0  0  0  0  0  0  0  0  0  0  0
  146.7281   74.5093  221.5743 H   0  0  0  0  0  0  0  0  0  0  0  0
  146.9693   72.0920  221.1549 H   0  0  0  0  0  0  0  0  0  0  0  0
  145.2468   70.8656  219.8237 H   0  0  0  0  0  0  0  0  0  0  0  0
  143.3086   72.1279  218.9484 H   0  0  0  0  0  0  0  0  0  0  0  0
  1  2  1  0
  2  3  1  0
  2  4  1  0
  4  5  1  0
  5  6  1  0
  6  7  2  0
  6  8  1  0
  8  9  1  0
  9 10  1  0
 10 11  2  0
 10 12  1  0
 12 13  2  0
 13 14  1  0
 14 15  2  0
 15 16  1  0
 16 17  2  0
 17 18  1  0
 17 19  1  0
 19 20  2  0
 20 21  1  0
 21 22  2  0
  4 23  1  0
 23 24  2  0
 24 25  1  0
 25 26  2  0
 26 27  1  0
 27 28  2  0
 22 12  1  0
 28 23  1  0
 21 15  1  0
  1 29  1  0
  1 30  1  0
  1 31  1  0
  2 32  1  0
  3 33  1  0
  3 34  1  0
  3 35  1  0
  4 36  1  6
  5 37  1  0
  8 38  1  0
  8 39  1  0
  9 40  1  0
 13 41  1  0
 14 42  1  0
 16 43  1  0
 19 44  1  0
 20 45  1  0
 24 46  1  0
 25 47  1  0
 26 48  1  0
 27 49  1  0
 28 50  1  0
M  END
>  <smiles>  (44) 
CC(C)[C@H](NC(=O)CNC(=O)c1ccc2cc(Cl)ccc2n1)c1ccccc1

>  <score_type>  (44) 
oracle

>  <origin>  (44) 
autodockgpu

>  <m_score__min__energy>  (44) 
-8.7699999999999996

>  <m_primary>  (44) 
energy

>  <rmsd>  (44) 
6.629794021557682

>  <m_score__min__rmsd>  (44) 
6.629794021557682

>  <meeko>  (44) 
{"free_energy": -7.86, "intermolecular_energy": -9.65, "internal_energy": -2.1, "cluster_size": 12, "cluster_id": 4, "rank_in_cluster": 11}

>  <energy>  (44) 
-8.08

>  <cluster_rmsd>  (44) 
0.08

>  <cluster>  (44) 
5

$$$$

     RDKit          3D

 50 52  0  0  0  0  0  0  0  0999 V2000
  140.4470   78.9400  218.6040 C   0  0  0  0  0  0  0  0  0  0  0  0
  141.7920   78.6640  219.2350 C   0  0  0  0  0  0  0  0  0  0  0  0
  142.5650   77.7710  218.2860 C   0  0  0  0  0  0  0  0  0  0  0  0
  141.6980   77.9910  220.5560 C   0  0  2  0  0  0  0  0  0  0  0  0
  140.5280   77.1580  220.6820 N   0  0  0  0  0  0  0  0  0  0  0  0
  140.6320   75.7630  220.9020 C   0  0  0  0  0  0  0  0  0  0  0  0
  141.7900   75.2380  220.9920 O   0  0  0  0  0  0  0  0  0  0  0  0
  139.4850   74.8430  221.0400 C   0  0  0  0  0  0  0  0  0  0  0  0
  139.5840   73.8830  222.0880 N   0  0  0  0  0  0  0  0  0  0  0  0
  139.7610   72.4740  221.8420 C   0  0  0  0  0  0  0  0  0  0  0  0
  139.8440   72.0060  220.6720 O   0  0  0  0  0  0  0  0  0  0  0  0
  139.8460   71.5420  222.9870 C   0  0  0  0  0  0  0  0  0  0  0  0
  139.4340   70.2480  222.8490 C   0  0  0  0  0  0  0  0  0  0  0  0
  139.5060   69.3640  223.9060 C   0  0  0  0  0  0  0  0  0  0  0  0
  140.0040   69.8140  225.1040 C   0  0  0  0  0  0  0  0  0  0  0  0
  140.0990   68.9820  226.1880 C   0  0  0  0  0  0  0  0  0  0  0  0
  140.5980   69.4350  227.3890 C   0  0  0  0  0  0  0  0  0  0  0  0
  140.6910   68.3080  228.7360 Cl  0  0  0  0  0  0  0  0  0  0  0  0
  141.0250   70.7430  227.5600 C   0  0  0  0  0  0  0  0  0  0  0  0
  140.9220   71.5730  226.4510 C   0  0  0  0  0  0  0  0  0  0  0  0
  140.4200   71.1260  225.2400 C   0  0  0  0  0  0  0  0  0  0  0  0
  140.3360   71.9640  224.1850 N   0  0  0  0  0  0  0  0  0  0  0  0
  141.7780   78.8980  221.7090 C   0  0  0  0  0  0  0  0  0  0  0  0
  142.1440   80.2320  221.5030 C   0  0  0  0  0  0  0  0  0  0  0  0
  142.2210   81.0900  222.5780 C   0  0  0  0  0  0  0  0  0  0  0  0
  141.9430   80.6550  223.8570 C   0  0  0  0  0  0  0  0  0  0  0  0
  141.5790   79.3410  224.0900 C   0  0  0  0  0  0  0  0  0  0  0  0
  141.5060   78.4940  223.0020 C   0  0  0  0  0  0  0  0  0  0  0  0
  139.6964   79.0940  219.3932 H   0  0  0  0  0  0  0  0  0  0  0  0
  140.5133   79.8433  217.9797 H   0  0  0  0  0  0  0  0  0  0  0  0
  140.1522   78.0836  217.9797 H   0  0  0  0  0  0  0  0  0  0  0  0
  142.2897   79.6295  219.4087 H   0  0  0  0  0  0  0  0  0  0  0  0
  143.1772   77.0638  218.8648 H   0  0  0  0  0  0  0  0  0  0  0  0
  141.8604   77.2126  217.6521 H   0  0  0  0  0  0  0  0  0  0  0  0
  143.2186   78.3883  217.6521 H   0  0  0  0  0  0  0  0  0  0  0  0
  142.5947   77.3543  220.5780 H   0  0  0  0  0  0  0  0  0  0  0  0
  139.5990   77.6230  220.6150 H   0  0  0  0  0  0  0  0  0  0  0  0
  138.5855   75.4496  221.2215 H   0  0  0  0  0  0  0  0  0  0  0  0
  139.4521   74.2636  220.1056 H   0  0  0  0  0  0  0  0  0  0  0  0
  139.5340   74.1440  223.1170 H   0  0  0  0  0  0  0  0  0  0  0  0
  139.0390   69.9051  221.8814 H   0  0  0  0  0  0  0  0  0  0  0  0
  139.1720   68.3222  223.7916 H   0  0  0  0  0  0  0  0  0  0  0  0
  139.7716   67.9357  226.0978 H   0  0  0  0  0  0  0  0  0  0  0  0
  141.4230   71.1032  228.5201 H   0  0  0  0  0  0  0  0  0  0  0  0
  141.2498   72.6195  226.5374 H   0  0  0  0  0  0  0  0  0  0  0  0
  142.3690   80.5939  220.4889 H   0  0  0  0  0  0  0  0  0  0  0  0
  142.5088   82.1389  222.4137 H   0  0  0  0  0  0  0  0  0  0  0  0
  142.0113   81.3593  224.6992 H   0  0  0  0  0  0  0  0  0  0  0  0
  141.3556   78.9835  225.1060 H   0  0  0  0  0  0  0  0  0  0  0  0
  141.2172   77.4465  223.1730 H   0  0  0  0  0  0  0  0  0  0  0  0
  1  2  1  0
  2  3  1  0
  2  4  1  0
  4  5  1  0
  5  6  1  0
  6  7  2  0
  6  8  1  0
  8  9  1  0
  9 10  1  0
 10 11  2  0
 10 12  1  0
 12 13  2  0
 13 14  1  0
 14 15  2  0
 15 16  1  0
 16 17  2  0
 17 18  1  0
 17 19  1  0
 19 20  2  0
 20 21  1  0
 21 22  2  0
  4 23  1  0
 23 24  2  0
 24 25  1  0
 25 26  2  0
 26 27  1  0
 27 28  2  0
 22 12  1  0
 28 23  1  0
 21 15  1  0
  1 29  1  0
  1 30  1  0
  1 31  1  0
  2 32  1  0
  3 33  1  0
  3 34  1  0
  3 35  1  0
  4 36  1  1
  5 37  1  0
  8 38  1  0
  8 39  1  0
  9 40  1  0
 13 41  1  0
 14 42  1  0
 16 43  1  0
 19 44  1  0
 20 45  1  0
 24 46  1  0
 25 47  1  0
 26 48  1  0
 27 49  1  0
 28 50  1  0
M  END
>  <smiles>  (45) 
CC(C)[C@H](NC(=O)CNC(=O)c1ccc2cc(Cl)ccc2n1)c1ccccc1

>  <score_type>  (45) 
oracle

>  <origin>  (45) 
autodockgpu

>  <m_score__min__energy>  (45) 
-8.7699999999999996

>  <m_primary>  (45) 
energy

>  <rmsd>  (45) 
4.019990018023275

>  <m_score__min__rmsd>  (45) 
4.019990018023275

>  <meeko>  (45) 
{"free_energy": -8.68, "intermolecular_energy": -10.47, "internal_energy": -1.43, "cluster_size": 11, "cluster_id": 1, "rank_in_cluster": 3}

>  <energy>  (45) 
-8.07

>  <cluster_rmsd>  (45) 
0.16

>  <cluster>  (45) 
5

$$$$

     RDKit          3D

 50 52  0  0  0  0  0  0  0  0999 V2000
  141.4890   76.8950  220.4350 C   0  0  0  0  0  0  0  0  0  0  0  0
  142.6990   76.3390  219.7220 C   0  0  0  0  0  0  0  0  0  0  0  0
  142.8430   77.0910  218.4150 C   0  0  0  0  0  0  0  0  0  0  0  0
  142.5970   74.8860  219.4300 C   0  0  2  0  0  0  0  0  0  0  0  0
  141.4110   74.2820  219.9860 N   0  0  0  0  0  0  0  0  0  0  0  0
  140.2930   73.9630  219.1770 C   0  0  0  0  0  0  0  0  0  0  0  0
  140.3440   74.2150  217.9290 O   0  0  0  0  0  0  0  0  0  0  0  0
  139.0450   73.3450  219.6700 C   0  0  0  0  0  0  0  0  0  0  0  0
  139.1880   72.4550  220.7730 N   0  0  0  0  0  0  0  0  0  0  0  0
  139.7160   72.8690  222.0480 C   0  0  0  0  0  0  0  0  0  0  0  0
  140.0810   74.0580  222.2640 O   0  0  0  0  0  0  0  0  0  0  0  0
  139.8390   71.8790  223.1390 C   0  0  0  0  0  0  0  0  0  0  0  0
  139.4640   70.5820  222.9320 C   0  0  0  0  0  0  0  0  0  0  0  0
  139.5720   69.6440  223.9380 C   0  0  0  0  0  0  0  0  0  0  0  0
  140.0660   70.0420  225.1550 C   0  0  0  0  0  0  0  0  0  0  0  0
  140.1950   69.1540  226.1910 C   0  0  0  0  0  0  0  0  0  0  0  0
  140.6910   69.5550  227.4120 C   0  0  0  0  0  0  0  0  0  0  0  0
  140.8280   68.3580  228.6940 Cl  0  0  0  0  0  0  0  0  0  0  0  0
  141.0800   70.8630  227.6520 C   0  0  0  0  0  0  0  0  0  0  0  0
  140.9430   71.7510  226.5920 C   0  0  0  0  0  0  0  0  0  0  0  0
  140.4450   71.3560  225.3610 C   0  0  0  0  0  0  0  0  0  0  0  0
  140.3260   72.2490  224.3550 N   0  0  0  0  0  0  0  0  0  0  0  0
  143.7750   74.1000  219.8220 C   0  0  0  0  0  0  0  0  0  0  0  0
  144.8380   74.7420  220.4640 C   0  0  0  0  0  0  0  0  0  0  0  0
  145.9470   74.0130  220.8360 C   0  0  0  0  0  0  0  0  0  0  0  0
  146.0260   72.6600  220.5840 C   0  0  0  0  0  0  0  0  0  0  0  0
  144.9890   72.0000  219.9490 C   0  0  0  0  0  0  0  0  0  0  0  0
  143.8850   72.7440  219.5840 C   0  0  0  0  0  0  0  0  0  0  0  0
  141.6401   76.8256  221.5224 H   0  0  0  0  0  0  0  0  0  0  0  0
  141.3479   77.9483  220.1509 H   0  0  0  0  0  0  0  0  0  0  0  0
  140.5979   76.3161  220.1509 H   0  0  0  0  0  0  0  0  0  0  0  0
  143.5696   76.4666  220.3821 H   0  0  0  0  0  0  0  0  0  0  0  0
  143.0461   78.1519  218.6228 H   0  0  0  0  0  0  0  0  0  0  0  0
  143.6758   76.6647  217.8365 H   0  0  0  0  0  0  0  0  0  0  0  0
  141.9116   77.0025  217.8365 H   0  0  0  0  0  0  0  0  0  0  0  0
  142.5348   74.8544  218.3322 H   0  0  0  0  0  0  0  0  0  0  0  0
  141.4110   74.0790  221.0070 H   0  0  0  0  0  0  0  0  0  0  0  0
  138.3652   74.1542  219.9751 H   0  0  0  0  0  0  0  0  0  0  0  0
  138.6662   72.7323  218.8387 H   0  0  0  0  0  0  0  0  0  0  0  0
  138.9140   71.4280  220.7250 H   0  0  0  0  0  0  0  0  0  0  0  0
  139.0705   70.2812  221.9498 H   0  0  0  0  0  0  0  0  0  0  0  0
  139.2689   68.6003  223.7684 H   0  0  0  0  0  0  0  0  0  0  0  0
  139.8979   68.1050  226.0452 H   0  0  0  0  0  0  0  0  0  0  0  0
  141.4755   71.1810  228.6279 H   0  0  0  0  0  0  0  0  0  0  0  0
  141.2393   72.8007  226.7348 H   0  0  0  0  0  0  0  0  0  0  0  0
  144.7897   75.8213  220.6708 H   0  0  0  0  0  0  0  0  0  0  0  0
  146.7824   74.5189  221.3421 H   0  0  0  0  0  0  0  0  0  0  0  0
  146.9217   72.1000  220.8906 H   0  0  0  0  0  0  0  0  0  0  0  0
  145.0423   70.9209  219.7424 H   0  0  0  0  0  0  0  0  0  0  0  0
  143.0525   72.2321  219.0791 H   0  0  0  0  0  0  0  0  0  0  0  0
  1  2  1  0
  2  3  1  0
  2  4  1  0
  4  5  1  0
  5  6  1  0
  6  7  2  0
  6  8  1  0
  8  9  1  0
  9 10  1  0
 10 11  2  0
 10 12  1  0
 12 13  2  0
 13 14  1  0
 14 15  2  0
 15 16  1  0
 16 17  2  0
 17 18  1  0
 17 19  1  0
 19 20  2  0
 20 21  1  0
 21 22  2  0
  4 23  1  0
 23 24  2  0
 24 25  1  0
 25 26  2  0
 26 27  1  0
 27 28  2  0
 22 12  1  0
 28 23  1  0
 21 15  1  0
  1 29  1  0
  1 30  1  0
  1 31  1  0
  2 32  1  0
  3 33  1  0
  3 34  1  0
  3 35  1  0
  4 36  1  6
  5 37  1  0
  8 38  1  0
  8 39  1  0
  9 40  1  0
 13 41  1  0
 14 42  1  0
 16 43  1  0
 19 44  1  0
 20 45  1  0
 24 46  1  0
 25 47  1  0
 26 48  1  0
 27 49  1  0
 28 50  1  0
M  END
>  <smiles>  (46) 
CC(C)[C@H](NC(=O)CNC(=O)c1ccc2cc(Cl)ccc2n1)c1ccccc1

>  <score_type>  (46) 
oracle

>  <origin>  (46) 
autodockgpu

>  <m_score__min__energy>  (46) 
-8.7699999999999996

>  <m_primary>  (46) 
energy

>  <rmsd>  (46) 
6.564136676950909

>  <m_score__min__rmsd>  (46) 
6.564136676950909

>  <meeko>  (46) 
{"free_energy": -8.03, "intermolecular_energy": -9.82, "internal_energy": -2.07, "cluster_size": 12, "cluster_id": 4, "rank_in_cluster": 4}

>  <energy>  (46) 
-8.05

>  <cluster_rmsd>  (46) 
0.08

>  <cluster>  (46) 
5

$$$$

     RDKit          3D

 50 52  0  0  0  0  0  0  0  0999 V2000
  142.2130   77.7520  219.5460 C   0  0  0  0  0  0  0  0  0  0  0  0
  143.1720   76.6730  219.1050 C   0  0  0  0  0  0  0  0  0  0  0  0
  143.2770   76.7460  217.5950 C   0  0  0  0  0  0  0  0  0  0  0  0
  142.7400   75.3040  219.4880 C   0  0  2  0  0  0  0  0  0  0  0  0
  141.7490   75.3000  220.5360 N   0  0  0  0  0  0  0  0  0  0  0  0
  140.3730   75.1210  220.2530 C   0  0  0  0  0  0  0  0  0  0  0  0
  140.0080   74.9570  219.0430 O   0  0  0  0  0  0  0  0  0  0  0  0
  139.2980   75.1060  221.2670 C   0  0  0  0  0  0  0  0  0  0  0  0
  139.4090   74.1010  222.2710 N   0  0  0  0  0  0  0  0  0  0  0  0
  139.7120   72.7250  221.9690 C   0  0  0  0  0  0  0  0  0  0  0  0
  139.9050   72.3290  220.7860 O   0  0  0  0  0  0  0  0  0  0  0  0
  139.8010   71.7430  223.0710 C   0  0  0  0  0  0  0  0  0  0  0  0
  139.3650   70.4620  222.8830 C   0  0  0  0  0  0  0  0  0  0  0  0
  139.4400   69.5320  223.8990 C   0  0  0  0  0  0  0  0  0  0  0  0
  139.9650   69.9200  225.1060 C   0  0  0  0  0  0  0  0  0  0  0  0
  140.0640   69.0390  226.1520 C   0  0  0  0  0  0  0  0  0  0  0  0
  140.5900   69.4310  227.3620 C   0  0  0  0  0  0  0  0  0  0  0  0
  140.6870   68.2440  228.6560 Cl  0  0  0  0  0  0  0  0  0  0  0  0
  141.0430   70.7230  227.5830 C   0  0  0  0  0  0  0  0  0  0  0  0
  140.9350   71.6030  226.5140 C   0  0  0  0  0  0  0  0  0  0  0  0
  140.4060   71.2170  225.2920 C   0  0  0  0  0  0  0  0  0  0  0  0
  140.3180   72.1030  224.2770 N   0  0  0  0  0  0  0  0  0  0  0  0
  143.8370   74.3970  219.8510 C   0  0  0  0  0  0  0  0  0  0  0  0
  143.7230   73.0360  219.5520 C   0  0  0  0  0  0  0  0  0  0  0  0
  144.7470   72.1780  219.8870 C   0  0  0  0  0  0  0  0  0  0  0  0
  145.8850   72.6390  220.5140 C   0  0  0  0  0  0  0  0  0  0  0  0
  146.0240   73.9810  220.8230 C   0  0  0  0  0  0  0  0  0  0  0  0
  144.9900   74.8270  220.4800 C   0  0  0  0  0  0  0  0  0  0  0  0
  142.1813   77.7876  220.6450 H   0  0  0  0  0  0  0  0  0  0  0  0
  142.5507   78.7240  219.1572 H   0  0  0  0  0  0  0  0  0  0  0  0
  141.2081   77.5307  219.1572 H   0  0  0  0  0  0  0  0  0  0  0  0
  144.1346   76.8510  219.6066 H   0  0  0  0  0  0  0  0  0  0  0  0
  144.1508   77.3536  217.3172 H   0  0  0  0  0  0  0  0  0  0  0  0
  143.3909   75.7313  217.1859 H   0  0  0  0  0  0  0  0  0  0  0  0
  142.3654   77.2061  217.1859 H   0  0  0  0  0  0  0  0  0  0  0  0
  142.2876   74.9152  218.5638 H   0  0  0  0  0  0  0  0  0  0  0  0
  142.0840   75.4250  221.5130 H   0  0  0  0  0  0  0  0  0  0  0  0
  139.2926   76.0852  221.7682 H   0  0  0  0  0  0  0  0  0  0  0  0
  138.3717   74.8804  220.7183 H   0  0  0  0  0  0  0  0  0  0  0  0
  139.2750   74.3020  223.3070 H   0  0  0  0  0  0  0  0  0  0  0  0
  138.9485   70.1682  221.9082 H   0  0  0  0  0  0  0  0  0  0  0  0
  139.0866   68.5017  223.7450 H   0  0  0  0  0  0  0  0  0  0  0  0
  139.7177   68.0030  226.0221 H   0  0  0  0  0  0  0  0  0  0  0  0
  141.4642   71.0333  228.5506 H   0  0  0  0  0  0  0  0  0  0  0  0
  141.2803   72.6397  226.6410 H   0  0  0  0  0  0  0  0  0  0  0  0
  142.8211   72.6528  219.0523 H   0  0  0  0  0  0  0  0  0  0  0  0
  144.6554   71.1077  219.6504 H   0  0  0  0  0  0  0  0  0  0  0  0
  146.6895   71.9342  220.7710 H   0  0  0  0  0  0  0  0  0  0  0  0
  146.9270   74.3594  221.3243 H   0  0  0  0  0  0  0  0  0  0  0  0
  145.0879   75.8963  220.7188 H   0  0  0  0  0  0  0  0  0  0  0  0
  1  2  1  0
  2  3  1  0
  2  4  1  0
  4  5  1  0
  5  6  1  0
  6  7  2  0
  6  8  1  0
  8  9  1  0
  9 10  1  0
 10 11  2  0
 10 12  1  0
 12 13  2  0
 13 14  1  0
 14 15  2  0
 15 16  1  0
 16 17  2  0
 17 18  1  0
 17 19  1  0
 19 20  2  0
 20 21  1  0
 21 22  2  0
  4 23  1  0
 23 24  2  0
 24 25  1  0
 25 26  2  0
 26 27  1  0
 27 28  2  0
 22 12  1  0
 28 23  1  0
 21 15  1  0
  1 29  1  0
  1 30  1  0
  1 31  1  0
  2 32  1  0
  3 33  1  0
  3 34  1  0
  3 35  1  0
  4 36  1  6
  5 37  1  0
  8 38  1  0
  8 39  1  0
  9 40  1  0
 13 41  1  0
 14 42  1  0
 16 43  1  0
 19 44  1  0
 20 45  1  0
 24 46  1  0
 25 47  1  0
 26 48  1  0
 27 49  1  0
 28 50  1  0
M  END
>  <smiles>  (47) 
CC(C)[C@H](NC(=O)CNC(=O)c1ccc2cc(Cl)ccc2n1)c1ccccc1

>  <score_type>  (47) 
oracle

>  <origin>  (47) 
autodockgpu

>  <m_score__min__energy>  (47) 
-8.7699999999999996

>  <m_primary>  (47) 
energy

>  <rmsd>  (47) 
6.313032978658943

>  <m_score__min__rmsd>  (47) 
6.313032978658943

>  <meeko>  (47) 
{"free_energy": -8.44, "intermolecular_energy": -10.23, "internal_energy": -1.62, "cluster_size": 12, "cluster_id": 4, "rank_in_cluster": 1}

>  <energy>  (47) 
-8.03

>  <cluster_rmsd>  (47) 
0.08

>  <cluster>  (47) 
5

$$$$

     RDKit          3D

 50 52  0  0  0  0  0  0  0  0999 V2000
  141.7100   76.7260  220.4760 C   0  0  0  0  0  0  0  0  0  0  0  0
  142.9100   76.2410  219.6980 C   0  0  0  0  0  0  0  0  0  0  0  0
  142.9830   77.0540  218.4210 C   0  0  0  0  0  0  0  0  0  0  0  0
  142.8430   74.8000  219.3450 C   0  0  2  0  0  0  0  0  0  0  0  0
  141.6490   74.1550  219.8340 N   0  0  0  0  0  0  0  0  0  0  0  0
  140.6070   73.7640  218.9590 C   0  0  0  0  0  0  0  0  0  0  0  0
  140.7350   73.9860  217.7100 O   0  0  0  0  0  0  0  0  0  0  0  0
  139.3560   73.1020  219.3800 C   0  0  0  0  0  0  0  0  0  0  0  0
  139.4560   72.2610  220.5260 N   0  0  0  0  0  0  0  0  0  0  0  0
  139.7650   72.7660  221.8400 C   0  0  0  0  0  0  0  0  0  0  0  0
  139.9620   73.9940  222.0530 O   0  0  0  0  0  0  0  0  0  0  0  0
  139.8580   71.8240  222.9760 C   0  0  0  0  0  0  0  0  0  0  0  0
  139.4380   70.5330  222.8310 C   0  0  0  0  0  0  0  0  0  0  0  0
  139.5170   69.6400  223.8790 C   0  0  0  0  0  0  0  0  0  0  0  0
  140.0290   70.0770  225.0760 C   0  0  0  0  0  0  0  0  0  0  0  0
  140.1310   69.2340  226.1520 C   0  0  0  0  0  0  0  0  0  0  0  0
  140.6460   69.6730  227.3510 C   0  0  0  0  0  0  0  0  0  0  0  0
  140.7470   68.5340  228.6870 Cl  0  0  0  0  0  0  0  0  0  0  0  0
  141.0820   70.9780  227.5290 C   0  0  0  0  0  0  0  0  0  0  0  0
  140.9710   71.8190  226.4290 C   0  0  0  0  0  0  0  0  0  0  0  0
  140.4540   71.3840  225.2190 C   0  0  0  0  0  0  0  0  0  0  0  0
  140.3630   72.2330  224.1720 N   0  0  0  0  0  0  0  0  0  0  0  0
  144.0200   74.0180  219.7480 C   0  0  0  0  0  0  0  0  0  0  0  0
  144.8420   74.5020  220.7700 C   0  0  0  0  0  0  0  0  0  0  0  0
  145.9470   73.7750  221.1550 C   0  0  0  0  0  0  0  0  0  0  0  0
  146.2570   72.5770  220.5480 C   0  0  0  0  0  0  0  0  0  0  0  0
  145.4620   72.0750  219.5330 C   0  0  0  0  0  0  0  0  0  0  0  0
  144.3580   72.8140  219.1600 C   0  0  0  0  0  0  0  0  0  0  0  0
  141.9140   76.6435  221.5538 H   0  0  0  0  0  0  0  0  0  0  0  0
  141.5075   77.7766  220.2205 H   0  0  0  0  0  0  0  0  0  0  0  0
  140.8344   76.1112  220.2205 H   0  0  0  0  0  0  0  0  0  0  0  0
  143.7993   76.3676  220.3329 H   0  0  0  0  0  0  0  0  0  0  0  0
  143.0788   78.1210  218.6706 H   0  0  0  0  0  0  0  0  0  0  0  0
  143.8561   76.7352  217.8328 H   0  0  0  0  0  0  0  0  0  0  0  0
  142.0670   76.8959  217.8328 H   0  0  0  0  0  0  0  0  0  0  0  0
  142.8193   74.8117  218.2453 H   0  0  0  0  0  0  0  0  0  0  0  0
  141.5840   73.9800  220.8580 H   0  0  0  0  0  0  0  0  0  0  0  0
  138.6165   73.8860  219.6000 H   0  0  0  0  0  0  0  0  0  0  0  0
  139.0723   72.4412  218.5477 H   0  0  0  0  0  0  0  0  0  0  0  0
  139.3080   71.2090  220.4850 H   0  0  0  0  0  0  0  0  0  0  0  0
  139.0309   70.2005  221.8647 H   0  0  0  0  0  0  0  0  0  0  0  0
  139.1774   68.6007  223.7588 H   0  0  0  0  0  0  0  0  0  0  0  0
  139.7962   68.1906  226.0560 H   0  0  0  0  0  0  0  0  0  0  0  0
  141.4927   71.3273  228.4878 H   0  0  0  0  0  0  0  0  0  0  0  0
  141.3040   72.8633  226.5213 H   0  0  0  0  0  0  0  0  0  0  0  0
  144.6080   75.4569  221.2634 H   0  0  0  0  0  0  0  0  0  0  0  0
  146.5924   74.1568  221.9598 H   0  0  0  0  0  0  0  0  0  0  0  0
  147.1447   72.0148  220.8736 H   0  0  0  0  0  0  0  0  0  0  0  0
  145.7015   71.1208  219.0409 H   0  0  0  0  0  0  0  0  0  0  0  0
  143.7159   72.4259  218.3556 H   0  0  0  0  0  0  0  0  0  0  0  0
  1  2  1  0
  2  3  1  0
  2  4  1  0
  4  5  1  0
  5  6  1  0
  6  7  2  0
  6  8  1  0
  8  9  1  0
  9 10  1  0
 10 11  2  0
 10 12  1  0
 12 13  2  0
 13 14  1  0
 14 15  2  0
 15 16  1  0
 16 17  2  0
 17 18  1  0
 17 19  1  0
 19 20  2  0
 20 21  1  0
 21 22  2  0
  4 23  1  0
 23 24  2  0
 24 25  1  0
 25 26  2  0
 26 27  1  0
 27 28  2  0
 22 12  1  0
 28 23  1  0
 21 15  1  0
  1 29  1  0
  1 30  1  0
  1 31  1  0
  2 32  1  0
  3 33  1  0
  3 34  1  0
  3 35  1  0
  4 36  1  6
  5 37  1  0
  8 38  1  0
  8 39  1  0
  9 40  1  0
 13 41  1  0
 14 42  1  0
 16 43  1  0
 19 44  1  0
 20 45  1  0
 24 46  1  0
 25 47  1  0
 26 48  1  0
 27 49  1  0
 28 50  1  0
M  END
>  <smiles>  (48) 
CC(C)[C@H](NC(=O)CNC(=O)c1ccc2cc(Cl)ccc2n1)c1ccccc1

>  <score_type>  (48) 
oracle

>  <origin>  (48) 
autodockgpu

>  <m_score__min__energy>  (48) 
-8.7699999999999996

>  <m_primary>  (48) 
energy

>  <rmsd>  (48) 
6.649493212302777

>  <m_score__min__rmsd>  (48) 
6.649493212302777

>  <meeko>  (48) 
{"free_energy": -7.94, "intermolecular_energy": -9.73, "internal_energy": -2.1, "cluster_size": 12, "cluster_id": 4, "rank_in_cluster": 6}

>  <energy>  (48) 
-8.02

>  <cluster_rmsd>  (48) 
0.31

>  <cluster>  (48) 
5

$$$$

     RDKit          3D

 50 52  0  0  0  0  0  0  0  0999 V2000
  139.5800   72.4970  222.7490 C   0  0  0  0  0  0  0  0  0  0  0  0
  140.1250   71.1330  223.1000 C   0  0  0  0  0  0  0  0  0  0  0  0
  139.9510   70.2460  221.8840 C   0  0  0  0  0  0  0  0  0  0  0  0
  139.4380   70.5000  224.2550 C   0  0  2  0  0  0  0  0  0  0  0  0
  138.0170   70.7520  224.2720 N   0  0  0  0  0  0  0  0  0  0  0  0
  137.0810   69.7330  223.9710 C   0  0  0  0  0  0  0  0  0  0  0  0
  137.5100   68.5680  223.6820 O   0  0  0  0  0  0  0  0  0  0  0  0
  135.6150   69.9100  223.9650 C   0  0  0  0  0  0  0  0  0  0  0  0
  135.1350   71.1170  224.5500 N   0  0  0  0  0  0  0  0  0  0  0  0
  135.5280   72.4220  224.0820 C   0  0  0  0  0  0  0  0  0  0  0  0
  136.3230   72.5710  223.1140 O   0  0  0  0  0  0  0  0  0  0  0  0
  134.9890   73.6260  224.7510 C   0  0  0  0  0  0  0  0  0  0  0  0
  135.4970   74.8580  224.4560 C   0  0  0  0  0  0  0  0  0  0  0  0
  135.0070   75.9920  225.0700 C   0  0  0  0  0  0  0  0  0  0  0  0
  133.9950   75.8560  225.9870 C   0  0  0  0  0  0  0  0  0  0  0  0
  133.4690   76.9480  226.6280 C   0  0  0  0  0  0  0  0  0  0  0  0
  132.4540   76.8090  227.5480 C   0  0  0  0  0  0  0  0  0  0  0  0
  131.8300   78.2560  228.3300 Cl  0  0  0  0  0  0  0  0  0  0  0  0
  131.9180   75.5720  227.8690 C   0  0  0  0  0  0  0  0  0  0  0  0
  132.4620   74.4760  227.2100 C   0  0  0  0  0  0  0  0  0  0  0  0
  133.4830   74.6070  226.2840 C   0  0  0  0  0  0  0  0  0  0  0  0
  133.9860   73.5170  225.6650 N   0  0  0  0  0  0  0  0  0  0  0  0
  140.0090   70.8400  225.5650 C   0  0  0  0  0  0  0  0  0  0  0  0
  139.6510   70.0800  226.6820 C   0  0  0  0  0  0  0  0  0  0  0  0
  140.1820   70.3900  227.9150 C   0  0  0  0  0  0  0  0  0  0  0  0
  141.0630   71.4400  228.0660 C   0  0  0  0  0  0  0  0  0  0  0  0
  141.4330   72.2100  226.9780 C   0  0  0  0  0  0  0  0  0  0  0  0
  140.8930   71.8850  225.7500 C   0  0  0  0  0  0  0  0  0  0  0  0
  139.3582   73.0520  223.6725 H   0  0  0  0  0  0  0  0  0  0  0  0
  140.3264   73.0495  222.1594 H   0  0  0  0  0  0  0  0  0  0  0  0
  138.6584   72.3830  222.1594 H   0  0  0  0  0  0  0  0  0  0  0  0
  141.1793   71.2548  223.3893 H   0  0  0  0  0  0  0  0  0  0  0  0
  139.7487   69.2146  222.2084 H   0  0  0  0  0  0  0  0  0  0  0  0
  139.1077   70.6126  221.2804 H   0  0  0  0  0  0  0  0  0  0  0  0
  140.8704   70.2668  221.2804 H   0  0  0  0  0  0  0  0  0  0  0  0
  139.6102   69.4258  224.0923 H   0  0  0  0  0  0  0  0  0  0  0  0
  137.7040   71.7120  224.5230 H   0  0  0  0  0  0  0  0  0  0  0  0
  135.2759   69.8835  222.9189 H   0  0  0  0  0  0  0  0  0  0  0  0
  135.2127   69.0959  224.5858 H   0  0  0  0  0  0  0  0  0  0  0  0
  134.4560   71.1320  225.3690 H   0  0  0  0  0  0  0  0  0  0  0  0
  136.3082   74.9479  223.7185 H   0  0  0  0  0  0  0  0  0  0  0  0
  135.4184   76.9835  224.8299 H   0  0  0  0  0  0  0  0  0  0  0  0
  133.8637   77.9500  226.4040 H   0  0  0  0  0  0  0  0  0  0  0  0
  131.1072   75.4637  228.6044 H   0  0  0  0  0  0  0  0  0  0  0  0
  132.0690   73.4727  227.4311 H   0  0  0  0  0  0  0  0  0  0  0  0
  138.9494   69.2393  226.5773 H   0  0  0  0  0  0  0  0  0  0  0  0
  139.8987   69.7905  228.7927 H   0  0  0  0  0  0  0  0  0  0  0  0
  141.4751   71.6673  229.0602 H   0  0  0  0  0  0  0  0  0  0  0  0
  142.1328   73.0516  227.0876 H   0  0  0  0  0  0  0  0  0  0  0  0
  141.1808   72.4877  224.8760 H   0  0  0  0  0  0  0  0  0  0  0  0
  1  2  1  0
  2  3  1  0
  2  4  1  0
  4  5  1  0
  5  6  1  0
  6  7  2  0
  6  8  1  0
  8  9  1  0
  9 10  1  0
 10 11  2  0
 10 12  1  0
 12 13  2  0
 13 14  1  0
 14 15  2  0
 15 16  1  0
 16 17  2  0
 17 18  1  0
 17 19  1  0
 19 20  2  0
 20 21  1  0
 21 22  2  0
  4 23  1  0
 23 24  2  0
 24 25  1  0
 25 26  2  0
 26 27  1  0
 27 28  2  0
 22 12  1  0
 28 23  1  0
 21 15  1  0
  1 29  1  0
  1 30  1  0
  1 31  1  0
  2 32  1  0
  3 33  1  0
  3 34  1  0
  3 35  1  0
  4 36  1  6
  5 37  1  0
  8 38  1  0
  8 39  1  0
  9 40  1  0
 13 41  1  0
 14 42  1  0
 16 43  1  0
 19 44  1  0
 20 45  1  0
 24 46  1  0
 25 47  1  0
 26 48  1  0
 27 49  1  0
 28 50  1  0
M  END
>  <smiles>  (49) 
CC(C)[C@H](NC(=O)CNC(=O)c1ccc2cc(Cl)ccc2n1)c1ccccc1

>  <score_type>  (49) 
oracle

>  <origin>  (49) 
autodockgpu

>  <m_score__min__energy>  (49) 
-8.7699999999999996

>  <m_primary>  (49) 
energy

>  <rmsd>  (49) 
9.709062202014985

>  <m_score__min__rmsd>  (49) 
9.709062202014985

>  <meeko>  (49) 
{"free_energy": -7.46, "intermolecular_energy": -9.25, "internal_energy": -2.45, "cluster_size": 8, "cluster_id": 2, "rank_in_cluster": 8}

>  <energy>  (49) 
-8.01

>  <cluster_rmsd>  (49) 
0.26

>  <cluster>  (49) 
5

$$$$

     RDKit          3D

 50 52  0  0  0  0  0  0  0  0999 V2000
  139.5580   72.5810  222.8200 C   0  0  0  0  0  0  0  0  0  0  0  0
  140.2830   71.2830  223.0850 C   0  0  0  0  0  0  0  0  0  0  0  0
  140.2590   70.4780  221.8030 C   0  0  0  0  0  0  0  0  0  0  0  0
  139.6700   70.4730  224.1700 C   0  0  2  0  0  0  0  0  0  0  0  0
  138.2280   70.4950  224.1420 N   0  0  0  0  0  0  0  0  0  0  0  0
  137.4630   69.3550  224.4880 C   0  0  0  0  0  0  0  0  0  0  0  0
  138.0690   68.2880  224.8330 O   0  0  0  0  0  0  0  0  0  0  0  0
  135.9870   69.2960  224.4830 C   0  0  0  0  0  0  0  0  0  0  0  0
  135.3200   70.4610  224.9600 N   0  0  0  0  0  0  0  0  0  0  0  0
  134.3060   70.4170  225.9830 C   0  0  0  0  0  0  0  0  0  0  0  0
  133.9520   69.3320  226.5240 O   0  0  0  0  0  0  0  0  0  0  0  0
  133.6560   71.6720  226.4160 C   0  0  0  0  0  0  0  0  0  0  0  0
  132.5060   71.6300  227.1520 C   0  0  0  0  0  0  0  0  0  0  0  0
  131.8860   72.7900  227.5640 C   0  0  0  0  0  0  0  0  0  0  0  0
  132.4500   73.9930  227.2200 C   0  0  0  0  0  0  0  0  0  0  0  0
  131.8780   75.1790  227.6030 C   0  0  0  0  0  0  0  0  0  0  0  0
  132.4450   76.3850  227.2570 C   0  0  0  0  0  0  0  0  0  0  0  0
  131.6540   77.8640  227.7840 Cl  0  0  0  0  0  0  0  0  0  0  0  0
  133.6120   76.4600  226.5120 C   0  0  0  0  0  0  0  0  0  0  0  0
  134.1790   75.2500  226.1320 C   0  0  0  0  0  0  0  0  0  0  0  0
  133.6140   74.0330  226.4760 C   0  0  0  0  0  0  0  0  0  0  0  0
  134.1960   72.8780  226.0880 N   0  0  0  0  0  0  0  0  0  0  0  0
  140.1370   70.8110  225.5210 C   0  0  0  0  0  0  0  0  0  0  0  0
  141.0220   71.8800  225.6890 C   0  0  0  0  0  0  0  0  0  0  0  0
  141.4650   72.2040  226.9530 C   0  0  0  0  0  0  0  0  0  0  0  0
  141.0500   71.4900  228.0570 C   0  0  0  0  0  0  0  0  0  0  0  0
  140.1760   70.4260  227.9200 C   0  0  0  0  0  0  0  0  0  0  0  0
  139.7410   70.1150  226.6480 C   0  0  0  0  0  0  0  0  0  0  0  0
  139.2932   73.0550  223.7767 H   0  0  0  0  0  0  0  0  0  0  0  0
  140.2105   73.2547  222.2452 H   0  0  0  0  0  0  0  0  0  0  0  0
  138.6422   72.3787  222.2452 H   0  0  0  0  0  0  0  0  0  0  0  0
  141.3040   71.5271  223.4135 H   0  0  0  0  0  0  0  0  0  0  0  0
  140.2270   69.4052  222.0442 H   0  0  0  0  0  0  0  0  0  0  0  0
  139.3685   70.7487  221.2167 H   0  0  0  0  0  0  0  0  0  0  0  0
  141.1640   70.6952  221.2167 H   0  0  0  0  0  0  0  0  0  0  0  0
  140.0176   69.4528  223.9501 H   0  0  0  0  0  0  0  0  0  0  0  0
  137.7670   71.3870  223.8660 H   0  0  0  0  0  0  0  0  0  0  0  0
  135.6595   69.1191  223.4479 H   0  0  0  0  0  0  0  0  0  0  0  0
  135.7171   68.4895  225.1806 H   0  0  0  0  0  0  0  0  0  0  0  0
  135.5270   71.4370  224.5920 H   0  0  0  0  0  0  0  0  0  0  0  0
  132.0686   70.6568  227.4196 H   0  0  0  0  0  0  0  0  0  0  0  0
  130.9594   72.7524  228.1556 H   0  0  0  0  0  0  0  0  0  0  0  0
  130.9516   75.1666  228.1960 H   0  0  0  0  0  0  0  0  0  0  0  0
  134.0640   77.4244  226.2370 H   0  0  0  0  0  0  0  0  0  0  0  0
  135.1057   75.2587  225.5394 H   0  0  0  0  0  0  0  0  0  0  0  0
  141.3626   72.4588  224.8178 H   0  0  0  0  0  0  0  0  0  0  0  0
  142.1609   73.0459  227.0833 H   0  0  0  0  0  0  0  0  0  0  0  0
  141.4170   71.7687  229.0558 H   0  0  0  0  0  0  0  0  0  0  0  0
  139.8400   69.8487  228.7940 H   0  0  0  0  0  0  0  0  0  0  0  0
  139.0451   69.2721  226.5246 H   0  0  0  0  0  0  0  0  0  0  0  0
  1  2  1  0
  2  3  1  0
  2  4  1  0
  4  5  1  0
  5  6  1  0
  6  7  2  0
  6  8  1  0
  8  9  1  0
  9 10  1  0
 10 11  2  0
 10 12  1  0
 12 13  2  0
 13 14  1  0
 14 15  2  0
 15 16  1  0
 16 17  2  0
 17 18  1  0
 17 19  1  0
 19 20  2  0
 20 21  1  0
 21 22  2  0
  4 23  1  0
 23 24  2  0
 24 25  1  0
 25 26  2  0
 26 27  1  0
 27 28  2  0
 22 12  1  0
 28 23  1  0
 21 15  1  0
  1 29  1  0
  1 30  1  0
  1 31  1  0
  2 32  1  0
  3 33  1  0
  3 34  1  0
  3 35  1  0
  4 36  1  6
  5 37  1  0
  8 38  1  0
  8 39  1  0
  9 40  1  0
 13 41  1  0
 14 42  1  0
 16 43  1  0
 19 44  1  0
 20 45  1  0
 24 46  1  0
 25 47  1  0
 26 48  1  0
 27 49  1  0
 28 50  1  0
M  END
>  <smiles>  (50) 
CC(C)[C@H](NC(=O)CNC(=O)c1ccc2cc(Cl)ccc2n1)c1ccccc1

>  <score_type>  (50) 
oracle

>  <origin>  (50) 
autodockgpu

>  <m_score__min__energy>  (50) 
-8.7699999999999996

>  <m_primary>  (50) 
energy

>  <rmsd>  (50) 
10.188502258451503

>  <m_score__min__rmsd>  (50) 
10.188502258451503

>  <meeko>  (50) 
{"free_energy": -8.4, "intermolecular_energy": -10.19, "internal_energy": -1.53, "cluster_size": 8, "cluster_id": 2, "rank_in_cluster": 5}

>  <energy>  (50) 
-8.01

>  <cluster_rmsd>  (50) 
0.28

>  <cluster>  (50) 
5

$$$$
