
     RDKit          3D

 45 47  0  0  0  0  0  0  0  0999 V2000
  140.4160   73.4140  222.3400 O   0  0  0  0  0  0  0  0  0  0  0  0
  140.3940   72.1560  222.4140 C   0  0  0  0  0  0  0  0  0  0  0  0
  140.6010   71.4460  221.2000 N   0  0  0  0  0  0  0  0  0  0  0  0
  140.8290   72.0080  219.9220 C   0  0  0  0  0  0  0  0  0  0  0  0
  142.1230   72.4140  219.4370 C   0  0  0  0  0  0  0  0  0  0  0  0
  142.0670   72.7220  218.1410 O   0  0  0  0  0  0  0  0  0  0  0  0
  143.3890   72.5570  219.9750 N   0  0  0  0  0  0  0  0  0  0  0  0
  144.4300   71.5220  220.0590 C   0  0  0  0  0  0  0  0  0  0  0  0
  145.4440   71.9340  218.9940 C   0  0  0  0  0  0  0  0  0  0  0  0
  145.9660   73.3180  219.3060 C   0  0  0  0  0  0  0  0  0  0  0  0
  145.3120   73.8990  220.5370 C   0  0  0  0  0  0  0  0  0  0  0  0
  143.8270   73.8270  220.5610 C   0  0  1  0  0  0  0  0  0  0  0  0
  143.1680   75.0550  220.1020 C   0  0  0  0  0  0  0  0  0  0  0  0
  143.2150   75.3190  218.7400 O   0  0  0  0  0  0  0  0  0  0  0  0
  140.1670   71.4720  223.6760 C   0  0  0  0  0  0  0  0  0  0  0  0
  139.3460   70.3680  223.6950 C   0  0  0  0  0  0  0  0  0  0  0  0
  139.0660   69.6500  224.8380 C   0  0  0  0  0  0  0  0  0  0  0  0
  139.6590   70.0910  226.0090 C   0  0  0  0  0  0  0  0  0  0  0  0
  139.3750   69.3690  227.1500 C   0  0  0  0  0  0  0  0  0  0  0  0
  139.9540   69.7860  228.3340 C   0  0  0  0  0  0  0  0  0  0  0  0
  140.7850   70.8960  228.3420 C   0  0  0  0  0  0  0  0  0  0  0  0
  141.0620   71.6150  227.1830 C   0  0  0  0  0  0  0  0  0  0  0  0
  140.4840   71.1990  225.9980 C   0  0  0  0  0  0  0  0  0  0  0  0
  140.7140   71.8520  224.8430 N   0  0  0  0  0  0  0  0  0  0  0  0
  140.5780   70.3900  221.2910 H   0  0  0  0  0  0  0  0  0  0  0  0
  140.4605   71.2645  219.1999 H   0  0  0  0  0  0  0  0  0  0  0  0
  140.3331   72.9836  220.0326 H   0  0  0  0  0  0  0  0  0  0  0  0
  144.8926   71.5123  221.0569 H   0  0  0  0  0  0  0  0  0  0  0  0
  144.0343   70.5082  219.8985 H   0  0  0  0  0  0  0  0  0  0  0  0
  146.2802   71.2193  218.9875 H   0  0  0  0  0  0  0  0  0  0  0  0
  144.9586   71.9384  218.0069 H   0  0  0  0  0  0  0  0  0  0  0  0
  147.0517   73.2599  219.4733 H   0  0  0  0  0  0  0  0  0  0  0  0
  145.7322   73.9722  218.4532 H   0  0  0  0  0  0  0  0  0  0  0  0
  145.6929   73.3543  221.4135 H   0  0  0  0  0  0  0  0  0  0  0  0
  145.5649   74.9695  220.5395 H   0  0  0  0  0  0  0  0  0  0  0  0
  143.4692   73.8001  221.6009 H   0  0  0  0  0  0  0  0  0  0  0  0
  142.1089   74.9929  220.3926 H   0  0  0  0  0  0  0  0  0  0  0  0
  143.7281   75.8758  220.5738 H   0  0  0  0  0  0  0  0  0  0  0  0
  142.9140   74.5710  218.1840 H   0  0  0  0  0  0  0  0  0  0  0  0
  138.8894   70.0414  222.7491 H   0  0  0  0  0  0  0  0  0  0  0  0
  138.4048   68.7711  224.8207 H   0  0  0  0  0  0  0  0  0  0  0  0
  138.7112   68.4924  227.1186 H   0  0  0  0  0  0  0  0  0  0  0  0
  139.7560   69.2387  229.2674 H   0  0  0  0  0  0  0  0  0  0  0  0
  141.2382   71.2174  229.2914 H   0  0  0  0  0  0  0  0  0  0  0  0
  141.7245   72.4927  227.2092 H   0  0  0  0  0  0  0  0  0  0  0  0
  1  2  2  0
  2  3  1  0
  3  4  1  0
  4  5  1  0
  5  6  2  0
  5  7  1  0
  7  8  1  0
  8  9  1  0
  9 10  1  0
 10 11  1  0
 11 12  1  0
 12 13  1  0
 13 14  1  0
  2 15  1  0
 15 16  2  0
 16 17  1  0
 17 18  2  0
 18 19  1  0
 19 20  2  0
 20 21  1  0
 21 22  2  0
 22 23  1  0
 23 24  2  0
 12  7  1  0
 24 15  1  0
 23 18  1  0
  3 25  1  0
  4 26  1  0
  4 27  1  0
  8 28  1  0
  8 29  1  0
  9 30  1  0
  9 31  1  0
 10 32  1  0
 10 33  1  0
 11 34  1  0
 11 35  1  0
 12 36  1  1
 13 37  1  0
 13 38  1  0
 14 39  1  0
 16 40  1  0
 17 41  1  0
 19 42  1  0
 20 43  1  0
 21 44  1  0
 22 45  1  0
M  END
>  <smiles>  (1) 
O=C(NCC(=O)N1CCCC[C@H]1CO)c1ccc2ccccc2n1

>  <score_type>  (1) 
oracle

>  <origin>  (1) 
autodockgpu

>  <m_score__min__energy>  (1) 
-7.9000000000000004

>  <m_primary>  (1) 
energy

>  <rmsd>  (1) 
3.7826504844552025

>  <m_score__min__rmsd>  (1) 
3.7826504844552025

>  <meeko>  (1) 
{"free_energy": -6.24, "intermolecular_energy": -8.03, "internal_energy": -1.83, "cluster_size": 4, "cluster_id": 3, "rank_in_cluster": 2}

>  <energy>  (1) 
-7.9

>  <cluster_rmsd>  (1) 
0.0

>  <cluster>  (1) 
1

$$$$

     RDKit          3D

 45 47  0  0  0  0  0  0  0  0999 V2000
  141.3600   71.4960  221.4420 O   0  0  0  0  0  0  0  0  0  0  0  0
  140.7190   72.4890  221.8800 C   0  0  0  0  0  0  0  0  0  0  0  0
  139.6540   72.2100  222.7800 N   0  0  0  0  0  0  0  0  0  0  0  0
  139.2450   70.9340  223.2320 C   0  0  0  0  0  0  0  0  0  0  0  0
  139.2920   70.5110  224.6070 C   0  0  0  0  0  0  0  0  0  0  0  0
  138.0900   70.1060  225.0200 O   0  0  0  0  0  0  0  0  0  0  0  0
  140.2600   70.4250  225.5910 N   0  0  0  0  0  0  0  0  0  0  0  0
  141.2460   71.4570  225.9460 C   0  0  0  0  0  0  0  0  0  0  0  0
  140.7380   72.0080  227.2770 C   0  0  0  0  0  0  0  0  0  0  0  0
  140.6690   70.8890  228.2900 C   0  0  0  0  0  0  0  0  0  0  0  0
  141.0760   69.5640  227.6900 C   0  0  0  0  0  0  0  0  0  0  0  0
  140.4100   69.2170  226.4070 C   0  0  1  0  0  0  0  0  0  0  0  0
  139.2380   68.3490  226.5650 C   0  0  0  0  0  0  0  0  0  0  0  0
  139.3760   67.0300  226.1550 O   0  0  0  0  0  0  0  0  0  0  0  0
  141.0540   73.8460  221.4810 C   0  0  0  0  0  0  0  0  0  0  0  0
  141.9710   74.0340  220.4720 C   0  0  0  0  0  0  0  0  0  0  0  0
  142.3580   75.2780  220.0190 C   0  0  0  0  0  0  0  0  0  0  0  0
  141.7730   76.3710  220.6350 C   0  0  0  0  0  0  0  0  0  0  0  0
  142.1640   77.6130  220.1800 C   0  0  0  0  0  0  0  0  0  0  0  0
  141.5960   78.7240  220.7760 C   0  0  0  0  0  0  0  0  0  0  0  0
  140.6700   78.5620  221.7940 C   0  0  0  0  0  0  0  0  0  0  0  0
  140.2860   77.3010  222.2450 C   0  0  0  0  0  0  0  0  0  0  0  0
  140.8520   76.1910  221.6490 C   0  0  0  0  0  0  0  0  0  0  0  0
  140.5210   74.9450  222.0400 N   0  0  0  0  0  0  0  0  0  0  0  0
  139.1330   73.0620  223.1320 H   0  0  0  0  0  0  0  0  0  0  0  0
  138.1935   70.8327  222.9253 H   0  0  0  0  0  0  0  0  0  0  0  0
  140.0267   70.2974  222.7920 H   0  0  0  0  0  0  0  0  0  0  0  0
  142.2480   71.0179  226.0610 H   0  0  0  0  0  0  0  0  0  0  0  0
  141.3428   72.2347  225.1741 H   0  0  0  0  0  0  0  0  0  0  0  0
  141.4251   72.7876  227.6376 H   0  0  0  0  0  0  0  0  0  0  0  0
  139.7359   72.4396  227.1375 H   0  0  0  0  0  0  0  0  0  0  0  0
  141.3439   71.1236  229.1263 H   0  0  0  0  0  0  0  0  0  0  0  0
  139.6279   70.8032  228.6346 H   0  0  0  0  0  0  0  0  0  0  0  0
  142.1614   69.5898  227.5135 H   0  0  0  0  0  0  0  0  0  0  0  0
  140.7655   68.7945  228.4121 H   0  0  0  0  0  0  0  0  0  0  0  0
  141.0570   68.5519  225.8162 H   0  0  0  0  0  0  0  0  0  0  0  0
  138.9724   68.3396  227.6324 H   0  0  0  0  0  0  0  0  0  0  0  0
  138.4712   68.7774  225.9028 H   0  0  0  0  0  0  0  0  0  0  0  0
  139.6260   66.4170  226.8770 H   0  0  0  0  0  0  0  0  0  0  0  0
  142.4186   73.1457  220.0023 H   0  0  0  0  0  0  0  0  0  0  0  0
  143.0937   75.3955  219.2098 H   0  0  0  0  0  0  0  0  0  0  0  0
  142.9022   77.7162  219.3710 H   0  0  0  0  0  0  0  0  0  0  0  0
  141.8785   79.7336  220.4429 H   0  0  0  0  0  0  0  0  0  0  0  0
  140.2255   79.4542  222.2592 H   0  0  0  0  0  0  0  0  0  0  0  0
  139.5504   77.1921  223.0555 H   0  0  0  0  0  0  0  0  0  0  0  0
  1  2  2  0
  2  3  1  0
  3  4  1  0
  4  5  1  0
  5  6  2  0
  5  7  1  0
  7  8  1  0
  8  9  1  0
  9 10  1  0
 10 11  1  0
 11 12  1  0
 12 13  1  0
 13 14  1  0
  2 15  1  0
 15 16  2  0
 16 17  1  0
 17 18  2  0
 18 19  1  0
 19 20  2  0
 20 21  1  0
 21 22  2  0
 22 23  1  0
 23 24  2  0
 12  7  1  0
 24 15  1  0
 23 18  1  0
  3 25  1  0
  4 26  1  0
  4 27  1  0
  8 28  1  0
  8 29  1  0
  9 30  1  0
  9 31  1  0
 10 32  1  0
 10 33  1  0
 11 34  1  0
 11 35  1  0
 12 36  1  6
 13 37  1  0
 13 38  1  0
 14 39  1  0
 16 40  1  0
 17 41  1  0
 19 42  1  0
 20 43  1  0
 21 44  1  0
 22 45  1  0
M  END
>  <smiles>  (2) 
O=C(NCC(=O)N1CCCC[C@H]1CO)c1ccc2ccccc2n1

>  <score_type>  (2) 
oracle

>  <origin>  (2) 
autodockgpu

>  <m_score__min__energy>  (2) 
-7.9000000000000004

>  <m_primary>  (2) 
energy

>  <rmsd>  (2) 
8.573383934991233

>  <m_score__min__rmsd>  (2) 
8.573383934991233

>  <meeko>  (2) 
{"free_energy": -7.9, "intermolecular_energy": -9.69, "internal_energy": -0.97, "cluster_size": 20, "cluster_id": 1, "rank_in_cluster": 1}

>  <energy>  (2) 
-7.53

>  <cluster_rmsd>  (2) 
0.74

>  <cluster>  (2) 
1

$$$$

     RDKit          3D

 45 47  0  0  0  0  0  0  0  0999 V2000
  141.4610   71.6780  221.1650 O   0  0  0  0  0  0  0  0  0  0  0  0
  140.8900   72.5840  221.8300 C   0  0  0  0  0  0  0  0  0  0  0  0
  140.0820   72.1580  222.9200 N   0  0  0  0  0  0  0  0  0  0  0  0
  139.8560   70.8230  223.3300 C   0  0  0  0  0  0  0  0  0  0  0  0
  139.5910   70.4300  224.6900 C   0  0  0  0  0  0  0  0  0  0  0  0
  138.2780   70.3670  224.9170 O   0  0  0  0  0  0  0  0  0  0  0  0
  140.3500   70.1110  225.8010 N   0  0  0  0  0  0  0  0  0  0  0  0
  140.8710   71.0470  226.8080 C   0  0  0  0  0  0  0  0  0  0  0  0
  139.9900   70.7980  228.0310 C   0  0  0  0  0  0  0  0  0  0  0  0
  140.1150   69.3530  228.4540 C   0  0  0  0  0  0  0  0  0  0  0  0
  141.0270   68.5760  227.5330 C   0  0  0  0  0  0  0  0  0  0  0  0
  140.7410   68.7270  226.0820 C   0  0  1  0  0  0  0  0  0  0  0  0
  139.9060   67.6550  225.5300 C   0  0  0  0  0  0  0  0  0  0  0  0
  138.5370   67.7590  225.7330 O   0  0  0  0  0  0  0  0  0  0  0  0
  141.0530   73.9890  221.4960 C   0  0  0  0  0  0  0  0  0  0  0  0
  141.9540   74.3380  220.5160 C   0  0  0  0  0  0  0  0  0  0  0  0
  142.1840   75.6400  220.1250 C   0  0  0  0  0  0  0  0  0  0  0  0
  141.4510   76.6210  220.7730 C   0  0  0  0  0  0  0  0  0  0  0  0
  141.6850   77.9220  220.3780 C   0  0  0  0  0  0  0  0  0  0  0  0
  140.9680   78.9230  221.0070 C   0  0  0  0  0  0  0  0  0  0  0  0
  140.0540   78.5970  221.9970 C   0  0  0  0  0  0  0  0  0  0  0  0
  139.8290   77.2790  222.3860 C   0  0  0  0  0  0  0  0  0  0  0  0
  140.5450   76.2780  221.7570 C   0  0  0  0  0  0  0  0  0  0  0  0
  140.3720   74.9840  222.0880 N   0  0  0  0  0  0  0  0  0  0  0  0
  139.6150   72.9390  223.4620 H   0  0  0  0  0  0  0  0  0  0  0  0
  138.9918   70.4744  222.7456 H   0  0  0  0  0  0  0  0  0  0  0  0
  140.8544   70.3868  223.1781 H   0  0  0  0  0  0  0  0  0  0  0  0
  141.9255   70.8310  227.0347 H   0  0  0  0  0  0  0  0  0  0  0  0
  140.8420   72.0934  226.4700 H   0  0  0  0  0  0  0  0  0  0  0  0
  140.3133   71.4509  228.8552 H   0  0  0  0  0  0  0  0  0  0  0  0
  138.9419   71.0178  227.7796 H   0  0  0  0  0  0  0  0  0  0  0  0
  140.5231   69.3147  229.4748 H   0  0  0  0  0  0  0  0  0  0  0  0
  139.1153   68.8962  228.4108 H   0  0  0  0  0  0  0  0  0  0  0  0
  142.0588   68.9122  227.7130 H   0  0  0  0  0  0  0  0  0  0  0  0
  140.8632   67.5137  227.7670 H   0  0  0  0  0  0  0  0  0  0  0  0
  141.6603   68.5671  225.4995 H   0  0  0  0  0  0  0  0  0  0  0  0
  140.0797   67.6238  224.4443 H   0  0  0  0  0  0  0  0  0  0  0  0
  140.2086   66.7471  226.0723 H   0  0  0  0  0  0  0  0  0  0  0  0
  138.2010   68.6780  225.6860 H   0  0  0  0  0  0  0  0  0  0  0  0
  142.5201   73.5365  220.0188 H   0  0  0  0  0  0  0  0  0  0  0  0
  142.9124   75.8873  219.3386 H   0  0  0  0  0  0  0  0  0  0  0  0
  142.4165   78.1548  219.5901 H   0  0  0  0  0  0  0  0  0  0  0  0
  141.1223   79.9744  220.7229 H   0  0  0  0  0  0  0  0  0  0  0  0
  139.4901   79.4029  222.4896 H   0  0  0  0  0  0  0  0  0  0  0  0
  139.0997   77.0405  223.1742 H   0  0  0  0  0  0  0  0  0  0  0  0
  1  2  2  0
  2  3  1  0
  3  4  1  0
  4  5  1  0
  5  6  2  0
  5  7  1  0
  7  8  1  0
  8  9  1  0
  9 10  1  0
 10 11  1  0
 11 12  1  0
 12 13  1  0
 13 14  1  0
  2 15  1  0
 15 16  2  0
 16 17  1  0
 17 18  2  0
 18 19  1  0
 19 20  2  0
 20 21  1  0
 21 22  2  0
 22 23  1  0
 23 24  2  0
 12  7  1  0
 24 15  1  0
 23 18  1  0
  3 25  1  0
  4 26  1  0
  4 27  1  0
  8 28  1  0
  8 29  1  0
  9 30  1  0
  9 31  1  0
 10 32  1  0
 10 33  1  0
 11 34  1  0
 11 35  1  0
 12 36  1  6
 13 37  1  0
 13 38  1  0
 14 39  1  0
 16 40  1  0
 17 41  1  0
 19 42  1  0
 20 43  1  0
 21 44  1  0
 22 45  1  0
M  END
>  <smiles>  (3) 
O=C(NCC(=O)N1CCCC[C@H]1CO)c1ccc2ccccc2n1

>  <score_type>  (3) 
oracle

>  <origin>  (3) 
autodockgpu

>  <m_score__min__energy>  (3) 
-7.9000000000000004

>  <m_primary>  (3) 
energy

>  <rmsd>  (3) 
8.834177539245593

>  <m_score__min__rmsd>  (3) 
8.834177539245593

>  <meeko>  (3) 
{"free_energy": -7.0, "intermolecular_energy": -8.79, "internal_energy": -1.87, "cluster_size": 20, "cluster_id": 1, "rank_in_cluster": 12}

>  <energy>  (3) 
-7.52

>  <cluster_rmsd>  (3) 
0.71

>  <cluster>  (3) 
1

$$$$

     RDKit          3D

 45 47  0  0  0  0  0  0  0  0999 V2000
  140.8770   71.2530  221.5750 O   0  0  0  0  0  0  0  0  0  0  0  0
  140.3310   72.2990  222.0180 C   0  0  0  0  0  0  0  0  0  0  0  0
  139.2600   72.1160  222.9350 N   0  0  0  0  0  0  0  0  0  0  0  0
  138.7480   70.8810  223.3980 C   0  0  0  0  0  0  0  0  0  0  0  0
  138.9620   70.3650  224.7250 C   0  0  0  0  0  0  0  0  0  0  0  0
  137.8430   69.8240  225.2080 O   0  0  0  0  0  0  0  0  0  0  0  0
  140.0230   70.2960  225.6100 N   0  0  0  0  0  0  0  0  0  0  0  0
  140.7890   71.4270  226.1520 C   0  0  0  0  0  0  0  0  0  0  0  0
  140.3150   71.5320  227.6000 C   0  0  0  0  0  0  0  0  0  0  0  0
  140.6010   70.2320  228.3170 C   0  0  0  0  0  0  0  0  0  0  0  0
  141.2230   69.2100  227.3960 C   0  0  0  0  0  0  0  0  0  0  0  0
  140.5190   69.0090  226.1020 C   0  0  1  0  0  0  0  0  0  0  0  0
  139.5900   67.8730  226.1050 C   0  0  0  0  0  0  0  0  0  0  0  0
  139.1920   67.3870  224.8690 O   0  0  0  0  0  0  0  0  0  0  0  0
  140.7770   73.6210  221.6100 C   0  0  0  0  0  0  0  0  0  0  0  0
  141.7250   73.7240  220.6170 C   0  0  0  0  0  0  0  0  0  0  0  0
  142.2150   74.9280  220.1570 C   0  0  0  0  0  0  0  0  0  0  0  0
  141.7040   76.0720  220.7480 C   0  0  0  0  0  0  0  0  0  0  0  0
  142.1980   77.2730  220.2850 C   0  0  0  0  0  0  0  0  0  0  0  0
  141.7060   78.4330  220.8560 C   0  0  0  0  0  0  0  0  0  0  0  0
  140.7510   78.3560  221.8580 C   0  0  0  0  0  0  0  0  0  0  0  0
  140.2620   77.1350  222.3160 C   0  0  0  0  0  0  0  0  0  0  0  0
  140.7530   75.9760  221.7450 C   0  0  0  0  0  0  0  0  0  0  0  0
  140.3200   74.7650  222.1440 N   0  0  0  0  0  0  0  0  0  0  0  0
  138.8210   73.0110  223.2930 H   0  0  0  0  0  0  0  0  0  0  0  0
  137.6567   70.9469  223.2767 H   0  0  0  0  0  0  0  0  0  0  0  0
  139.3416   70.1729  222.8012 H   0  0  0  0  0  0  0  0  0  0  0  0
  141.8694   71.2250  226.1076 H   0  0  0  0  0  0  0  0  0  0  0  0
  140.6308   72.3566  225.5856 H   0  0  0  0  0  0  0  0  0  0  0  0
  140.8478   72.3530  228.1020 H   0  0  0  0  0  0  0  0  0  0  0  0
  139.2336   71.7323  227.6192 H   0  0  0  0  0  0  0  0  0  0  0  0
  141.2925   70.4290  229.1495 H   0  0  0  0  0  0  0  0  0  0  0  0
  139.6467   69.8263  228.6840 H   0  0  0  0  0  0  0  0  0  0  0  0
  142.2518   69.5317  227.1768 H   0  0  0  0  0  0  0  0  0  0  0  0
  141.1656   68.2479  227.9262 H   0  0  0  0  0  0  0  0  0  0  0  0
  141.2304   68.6664  225.3361 H   0  0  0  0  0  0  0  0  0  0  0  0
  140.0755   67.0476  226.6464 H   0  0  0  0  0  0  0  0  0  0  0  0
  138.6708   68.2545  226.5736 H   0  0  0  0  0  0  0  0  0  0  0  0
  138.6240   68.0070  224.3660 H   0  0  0  0  0  0  0  0  0  0  0  0
  142.1117   72.7976  220.1672 H   0  0  0  0  0  0  0  0  0  0  0  0
  142.9730   74.9776  219.3614 H   0  0  0  0  0  0  0  0  0  0  0  0
  142.9568   77.3076  219.4894 H   0  0  0  0  0  0  0  0  0  0  0  0
  142.0713   79.4133  220.5161 H   0  0  0  0  0  0  0  0  0  0  0  0
  140.3685   79.2859  222.3041 H   0  0  0  0  0  0  0  0  0  0  0  0
  139.5040   77.0941  223.1121 H   0  0  0  0  0  0  0  0  0  0  0  0
  1  2  2  0
  2  3  1  0
  3  4  1  0
  4  5  1  0
  5  6  2  0
  5  7  1  0
  7  8  1  0
  8  9  1  0
  9 10  1  0
 10 11  1  0
 11 12  1  0
 12 13  1  0
 13 14  1  0
  2 15  1  0
 15 16  2  0
 16 17  1  0
 17 18  2  0
 18 19  1  0
 19 20  2  0
 20 21  1  0
 21 22  2  0
 22 23  1  0
 23 24  2  0
 12  7  1  0
 24 15  1  0
 23 18  1  0
  3 25  1  0
  4 26  1  0
  4 27  1  0
  8 28  1  0
  8 29  1  0
  9 30  1  0
  9 31  1  0
 10 32  1  0
 10 33  1  0
 11 34  1  0
 11 35  1  0
 12 36  1  6
 13 37  1  0
 13 38  1  0
 14 39  1  0
 16 40  1  0
 17 41  1  0
 19 42  1  0
 20 43  1  0
 21 44  1  0
 22 45  1  0
M  END
>  <smiles>  (4) 
O=C(NCC(=O)N1CCCC[C@H]1CO)c1ccc2ccccc2n1

>  <score_type>  (4) 
oracle

>  <origin>  (4) 
autodockgpu

>  <m_score__min__energy>  (4) 
-7.9000000000000004

>  <m_primary>  (4) 
energy

>  <rmsd>  (4) 
8.541980368927495

>  <m_score__min__rmsd>  (4) 
8.541980368927495

>  <meeko>  (4) 
{"free_energy": -7.35, "intermolecular_energy": -9.14, "internal_energy": -1.77, "cluster_size": 20, "cluster_id": 1, "rank_in_cluster": 6}

>  <energy>  (4) 
-7.41

>  <cluster_rmsd>  (4) 
0.71

>  <cluster>  (4) 
1

$$$$

     RDKit          3D

 45 47  0  0  0  0  0  0  0  0999 V2000
  141.0860   71.3320  221.5540 O   0  0  0  0  0  0  0  0  0  0  0  0
  140.7250   72.4020  222.1140 C   0  0  0  0  0  0  0  0  0  0  0  0
  139.9610   72.2680  223.3060 N   0  0  0  0  0  0  0  0  0  0  0  0
  139.5690   71.0580  223.9240 C   0  0  0  0  0  0  0  0  0  0  0  0
  140.2800   70.4380  225.0110 C   0  0  0  0  0  0  0  0  0  0  0  0
  141.5790   70.7350  224.9580 O   0  0  0  0  0  0  0  0  0  0  0  0
  139.9550   69.6190  226.0770 N   0  0  0  0  0  0  0  0  0  0  0  0
  139.4740   68.2320  226.0060 C   0  0  0  0  0  0  0  0  0  0  0  0
  140.6740   67.4030  226.4580 C   0  0  0  0  0  0  0  0  0  0  0  0
  141.0700   67.8150  227.8570 C   0  0  0  0  0  0  0  0  0  0  0  0
  140.2040   68.9380  228.3770 C   0  0  0  0  0  0  0  0  0  0  0  0
  140.0500   70.0980  227.4590 C   0  0  1  0  0  0  0  0  0  0  0  0
  140.9780   71.1990  227.7390 C   0  0  0  0  0  0  0  0  0  0  0  0
  140.7510   72.3940  227.0710 O   0  0  0  0  0  0  0  0  0  0  0  0
  141.0730   73.7020  221.5650 C   0  0  0  0  0  0  0  0  0  0  0  0
  141.9080   73.7580  220.4720 C   0  0  0  0  0  0  0  0  0  0  0  0
  142.2990   74.9390  219.8760 C   0  0  0  0  0  0  0  0  0  0  0  0
  141.8070   76.1080  220.4320 C   0  0  0  0  0  0  0  0  0  0  0  0
  142.2020   77.2860  219.8330 C   0  0  0  0  0  0  0  0  0  0  0  0
  141.7260   78.4690  220.3670 C   0  0  0  0  0  0  0  0  0  0  0  0
  140.8840   78.4390  221.4680 C   0  0  0  0  0  0  0  0  0  0  0  0
  140.4940   77.2420  222.0630 C   0  0  0  0  0  0  0  0  0  0  0  0
  140.9690   76.0590  221.5300 C   0  0  0  0  0  0  0  0  0  0  0  0
  140.6280   74.8680  222.0600 N   0  0  0  0  0  0  0  0  0  0  0  0
  139.6720   73.1820  223.7550 H   0  0  0  0  0  0  0  0  0  0  0  0
  138.5487   71.2314  224.2966 H   0  0  0  0  0  0  0  0  0  0  0  0
  139.7618   70.3395  223.1137 H   0  0  0  0  0  0  0  0  0  0  0  0
  138.6175   68.0800  226.6793 H   0  0  0  0  0  0  0  0  0  0  0  0
  139.1224   67.9561  225.0009 H   0  0  0  0  0  0  0  0  0  0  0  0
  140.4064   66.3361  226.4515 H   0  0  0  0  0  0  0  0  0  0  0  0
  141.5172   67.5727  225.7723 H   0  0  0  0  0  0  0  0  0  0  0  0
  140.9681   66.9477  228.5259 H   0  0  0  0  0  0  0  0  0  0  0  0
  142.1104   68.1710  227.8271 H   0  0  0  0  0  0  0  0  0  0  0  0
  139.2030   68.5295  228.5796 H   0  0  0  0  0  0  0  0  0  0  0  0
  140.7116   69.3241  229.2732 H   0  0  0  0  0  0  0  0  0  0  0  0
  139.0932   70.6056  227.6511 H   0  0  0  0  0  0  0  0  0  0  0  0
  140.9316   71.4070  228.8182 H   0  0  0  0  0  0  0  0  0  0  0  0
  141.9566   70.8492  227.3785 H   0  0  0  0  0  0  0  0  0  0  0  0
  141.1650   72.4340  226.1840 H   0  0  0  0  0  0  0  0  0  0  0  0
  142.2826   72.8127  220.0524 H   0  0  0  0  0  0  0  0  0  0  0  0
  142.9680   74.9516  219.0029 H   0  0  0  0  0  0  0  0  0  0  0  0
  142.8723   77.2842  218.9608 H   0  0  0  0  0  0  0  0  0  0  0  0
  142.0146   79.4315  219.9195 H   0  0  0  0  0  0  0  0  0  0  0  0
  140.5135   79.3878  221.8834 H   0  0  0  0  0  0  0  0  0  0  0  0
  139.8244   77.2383  222.9357 H   0  0  0  0  0  0  0  0  0  0  0  0
  1  2  2  0
  2  3  1  0
  3  4  1  0
  4  5  1  0
  5  6  2  0
  5  7  1  0
  7  8  1  0
  8  9  1  0
  9 10  1  0
 10 11  1  0
 11 12  1  0
 12 13  1  0
 13 14  1  0
  2 15  1  0
 15 16  2  0
 16 17  1  0
 17 18  2  0
 18 19  1  0
 19 20  2  0
 20 21  1  0
 21 22  2  0
 22 23  1  0
 23 24  2  0
 12  7  1  0
 24 15  1  0
 23 18  1  0
  3 25  1  0
  4 26  1  0
  4 27  1  0
  8 28  1  0
  8 29  1  0
  9 30  1  0
  9 31  1  0
 10 32  1  0
 10 33  1  0
 11 34  1  0
 11 35  1  0
 12 36  1  1
 13 37  1  0
 13 38  1  0
 14 39  1  0
 16 40  1  0
 17 41  1  0
 19 42  1  0
 20 43  1  0
 21 44  1  0
 22 45  1  0
M  END
>  <smiles>  (5) 
O=C(NCC(=O)N1CCCC[C@H]1CO)c1ccc2ccccc2n1

>  <score_type>  (5) 
oracle

>  <origin>  (5) 
autodockgpu

>  <m_score__min__energy>  (5) 
-7.9000000000000004

>  <m_primary>  (5) 
energy

>  <rmsd>  (5) 
8.862449411432419

>  <m_score__min__rmsd>  (5) 
8.862449411432419

>  <meeko>  (5) 
{"free_energy": -7.07, "intermolecular_energy": -8.86, "internal_energy": -1.79, "cluster_size": 20, "cluster_id": 1, "rank_in_cluster": 7}

>  <energy>  (5) 
-7.4

>  <cluster_rmsd>  (5) 
0.89

>  <cluster>  (5) 
1

$$$$

     RDKit          3D

 45 47  0  0  0  0  0  0  0  0999 V2000
  141.1950   71.9540  221.6390 O   0  0  0  0  0  0  0  0  0  0  0  0
  140.3230   72.2160  222.5110 C   0  0  0  0  0  0  0  0  0  0  0  0
  139.4670   73.3190  222.2390 N   0  0  0  0  0  0  0  0  0  0  0  0
  139.4950   74.1460  221.0930 C   0  0  0  0  0  0  0  0  0  0  0  0
  140.5110   75.1330  220.8330 C   0  0  0  0  0  0  0  0  0  0  0  0
  141.0970   75.5180  221.9660 O   0  0  0  0  0  0  0  0  0  0  0  0
  141.0170   75.7720  219.7160 N   0  0  0  0  0  0  0  0  0  0  0  0
  140.3410   76.7970  218.9080 C   0  0  0  0  0  0  0  0  0  0  0  0
  141.0570   78.0930  219.2840 C   0  0  0  0  0  0  0  0  0  0  0  0
  142.5270   77.9660  218.9590 C   0  0  0  0  0  0  0  0  0  0  0  0
  142.8630   76.6010  218.4050 C   0  0  0  0  0  0  0  0  0  0  0  0
  142.3480   75.4520  219.1950 C   0  0  1  0  0  0  0  0  0  0  0  0
  143.3310   74.8900  220.1290 C   0  0  0  0  0  0  0  0  0  0  0  0
  142.9950   73.6930  220.7460 O   0  0  0  0  0  0  0  0  0  0  0  0
  140.2040   71.4310  223.7280 C   0  0  0  0  0  0  0  0  0  0  0  0
  139.5440   70.2250  223.6780 C   0  0  0  0  0  0  0  0  0  0  0  0
  139.3760   69.4050  224.7740 C   0  0  0  0  0  0  0  0  0  0  0  0
  139.9130   69.8500  225.9700 C   0  0  0  0  0  0  0  0  0  0  0  0
  139.7430   69.0270  227.0630 C   0  0  0  0  0  0  0  0  0  0  0  0
  140.2690   69.4460  228.2710 C   0  0  0  0  0  0  0  0  0  0  0  0
  140.9380   70.6570  228.3480 C   0  0  0  0  0  0  0  0  0  0  0  0
  141.1020   71.4790  227.2360 C   0  0  0  0  0  0  0  0  0  0  0  0
  140.5780   71.0600  226.0280 C   0  0  0  0  0  0  0  0  0  0  0  0
  140.7040   71.8100  224.9160 N   0  0  0  0  0  0  0  0  0  0  0  0
  138.7430   73.5160  222.9880 H   0  0  0  0  0  0  0  0  0  0  0  0
  139.5185   73.4612  220.2325 H   0  0  0  0  0  0  0  0  0  0  0  0
  138.6232   74.7900  221.2805 H   0  0  0  0  0  0  0  0  0  0  0  0
  140.4528   76.5855  217.8343 H   0  0  0  0  0  0  0  0  0  0  0  0
  139.2583   76.8404  219.0974 H   0  0  0  0  0  0  0  0  0  0  0  0
  140.6259   78.9292  218.7140 H   0  0  0  0  0  0  0  0  0  0  0  0
  140.9335   78.2823  220.3605 H   0  0  0  0  0  0  0  0  0  0  0  0
  142.7939   78.7288  218.2127 H   0  0  0  0  0  0  0  0  0  0  0  0
  143.0964   78.1071  219.8895 H   0  0  0  0  0  0  0  0  0  0  0  0
  142.4422   76.5325  217.3910 H   0  0  0  0  0  0  0  0  0  0  0  0
  143.9599   76.5225  218.4323 H   0  0  0  0  0  0  0  0  0  0  0  0
  142.1946   74.5834  218.5377 H   0  0  0  0  0  0  0  0  0  0  0  0
  144.2645   74.7260  219.5708 H   0  0  0  0  0  0  0  0  0  0  0  0
  143.4047   75.6237  220.9452 H   0  0  0  0  0  0  0  0  0  0  0  0
  142.2940   73.7840  221.4240 H   0  0  0  0  0  0  0  0  0  0  0  0
  139.1286   69.8977  222.7135 H   0  0  0  0  0  0  0  0  0  0  0  0
  138.8423   68.4459  224.7016 H   0  0  0  0  0  0  0  0  0  0  0  0
  139.2074   68.0701  226.9769 H   0  0  0  0  0  0  0  0  0  0  0  0
  140.1567   68.8198  229.1684 H   0  0  0  0  0  0  0  0  0  0  0  0
  141.3514   70.9783  229.3154 H   0  0  0  0  0  0  0  0  0  0  0  0
  141.6352   72.4377  227.3172 H   0  0  0  0  0  0  0  0  0  0  0  0
  1  2  2  0
  2  3  1  0
  3  4  1  0
  4  5  1  0
  5  6  2  0
  5  7  1  0
  7  8  1  0
  8  9  1  0
  9 10  1  0
 10 11  1  0
 11 12  1  0
 12 13  1  0
 13 14  1  0
  2 15  1  0
 15 16  2  0
 16 17  1  0
 17 18  2  0
 18 19  1  0
 19 20  2  0
 20 21  1  0
 21 22  2  0
 22 23  1  0
 23 24  2  0
 12  7  1  0
 24 15  1  0
 23 18  1  0
  3 25  1  0
  4 26  1  0
  4 27  1  0
  8 28  1  0
  8 29  1  0
  9 30  1  0
  9 31  1  0
 10 32  1  0
 10 33  1  0
 11 34  1  0
 11 35  1  0
 12 36  1  6
 13 37  1  0
 13 38  1  0
 14 39  1  0
 16 40  1  0
 17 41  1  0
 19 42  1  0
 20 43  1  0
 21 44  1  0
 22 45  1  0
M  END
>  <smiles>  (6) 
O=C(NCC(=O)N1CCCC[C@H]1CO)c1ccc2ccccc2n1

>  <score_type>  (6) 
oracle

>  <origin>  (6) 
autodockgpu

>  <m_score__min__energy>  (6) 
-7.9000000000000004

>  <m_primary>  (6) 
energy

>  <rmsd>  (6) 
2.104394681307986

>  <m_score__min__rmsd>  (6) 
2.104394681307986

>  <meeko>  (6) 
{"free_energy": -6.41, "intermolecular_energy": -8.2, "internal_energy": -2.27, "cluster_size": 14, "cluster_id": 2, "rank_in_cluster": 10}

>  <energy>  (6) 
-7.35

>  <cluster_rmsd>  (6) 
0.79

>  <cluster>  (6) 
1

$$$$

     RDKit          3D

 45 47  0  0  0  0  0  0  0  0999 V2000
  139.3160   71.1620  221.4660 O   0  0  0  0  0  0  0  0  0  0  0  0
  139.5370   71.6280  222.6160 C   0  0  0  0  0  0  0  0  0  0  0  0
  139.6960   73.0390  222.7090 N   0  0  0  0  0  0  0  0  0  0  0  0
  139.6280   73.9670  221.6440 C   0  0  0  0  0  0  0  0  0  0  0  0
  140.4460   75.1480  221.5480 C   0  0  0  0  0  0  0  0  0  0  0  0
  141.7340   74.8470  221.7150 O   0  0  0  0  0  0  0  0  0  0  0  0
  140.2270   76.4970  221.3350 N   0  0  0  0  0  0  0  0  0  0  0  0
  139.6020   77.4450  222.2680 C   0  0  0  0  0  0  0  0  0  0  0  0
  140.7720   78.2860  222.7750 C   0  0  0  0  0  0  0  0  0  0  0  0
  141.4420   78.9700  221.6060 C   0  0  0  0  0  0  0  0  0  0  0  0
  140.7970   78.5950  220.2930 C   0  0  0  0  0  0  0  0  0  0  0  0
  140.6060   77.1370  220.0730 C   0  0  1  0  0  0  0  0  0  0  0  0
  141.6760   76.5140  219.2840 C   0  0  0  0  0  0  0  0  0  0  0  0
  142.9120   76.3810  219.9000 O   0  0  0  0  0  0  0  0  0  0  0  0
  139.6270   70.7650  223.7820 C   0  0  0  0  0  0  0  0  0  0  0  0
  139.1480   69.4780  223.6920 C   0  0  0  0  0  0  0  0  0  0  0  0
  139.1850   68.5800  224.7380 C   0  0  0  0  0  0  0  0  0  0  0  0
  139.7390   69.0320  225.9250 C   0  0  0  0  0  0  0  0  0  0  0  0
  139.7740   68.1300  226.9680 C   0  0  0  0  0  0  0  0  0  0  0  0
  140.3220   68.5530  228.1650 C   0  0  0  0  0  0  0  0  0  0  0  0
  140.8110   69.8450  228.2800 C   0  0  0  0  0  0  0  0  0  0  0  0
  140.7690   70.7450  227.2180 C   0  0  0  0  0  0  0  0  0  0  0  0
  140.2220   70.3230  226.0220 C   0  0  0  0  0  0  0  0  0  0  0  0
  140.1530   71.1460  224.9570 N   0  0  0  0  0  0  0  0  0  0  0  0
  139.8800   73.4030  223.6860 H   0  0  0  0  0  0  0  0  0  0  0  0
  139.8331   73.3881  220.7314 H   0  0  0  0  0  0  0  0  0  0  0  0
  138.6384   74.4136  221.8206 H   0  0  0  0  0  0  0  0  0  0  0  0
  138.8630   78.0742  221.7503 H   0  0  0  0  0  0  0  0  0  0  0  0
  139.0563   76.9433  223.0807 H   0  0  0  0  0  0  0  0  0  0  0  0
  140.4006   79.0442  223.4802 H   0  0  0  0  0  0  0  0  0  0  0  0
  141.4978   77.6360  223.2856 H   0  0  0  0  0  0  0  0  0  0  0  0
  141.3684   80.0592  221.7407 H   0  0  0  0  0  0  0  0  0  0  0  0
  142.4927   78.6458  221.5761 H   0  0  0  0  0  0  0  0  0  0  0  0
  139.8095   79.0776  220.2493 H   0  0  0  0  0  0  0  0  0  0  0  0
  141.4879   78.9335  219.5068 H   0  0  0  0  0  0  0  0  0  0  0  0
  139.7527   76.9668  219.4000 H   0  0  0  0  0  0  0  0  0  0  0  0
  141.3362   75.5073  218.9992 H   0  0  0  0  0  0  0  0  0  0  0  0
  141.8474   77.1990  218.4405 H   0  0  0  0  0  0  0  0  0  0  0  0
  142.8630   76.3590  220.8780 H   0  0  0  0  0  0  0  0  0  0  0  0
  138.7133   69.1487  222.7367 H   0  0  0  0  0  0  0  0  0  0  0  0
  138.7945   67.5568  224.6353 H   0  0  0  0  0  0  0  0  0  0  0  0
  139.3797   67.1097  226.8516 H   0  0  0  0  0  0  0  0  0  0  0  0
  140.3698   67.8665  229.0232 H   0  0  0  0  0  0  0  0  0  0  0  0
  141.2447   70.1687  229.2377 H   0  0  0  0  0  0  0  0  0  0  0  0
  141.1617   71.7665  227.3289 H   0  0  0  0  0  0  0  0  0  0  0  0
  1  2  2  0
  2  3  1  0
  3  4  1  0
  4  5  1  0
  5  6  2  0
  5  7  1  0
  7  8  1  0
  8  9  1  0
  9 10  1  0
 10 11  1  0
 11 12  1  0
 12 13  1  0
 13 14  1  0
  2 15  1  0
 15 16  2  0
 16 17  1  0
 17 18  2  0
 18 19  1  0
 19 20  2  0
 20 21  1  0
 21 22  2  0
 22 23  1  0
 23 24  2  0
 12  7  1  0
 24 15  1  0
 23 18  1  0
  3 25  1  0
  4 26  1  0
  4 27  1  0
  8 28  1  0
  8 29  1  0
  9 30  1  0
  9 31  1  0
 10 32  1  0
 10 33  1  0
 11 34  1  0
 11 35  1  0
 12 36  1  6
 13 37  1  0
 13 38  1  0
 14 39  1  0
 16 40  1  0
 17 41  1  0
 19 42  1  0
 20 43  1  0
 21 44  1  0
 22 45  1  0
M  END
>  <smiles>  (7) 
O=C(NCC(=O)N1CCCC[C@H]1CO)c1ccc2ccccc2n1

>  <score_type>  (7) 
oracle

>  <origin>  (7) 
autodockgpu

>  <m_score__min__energy>  (7) 
-7.9000000000000004

>  <m_primary>  (7) 
energy

>  <rmsd>  (7) 
2.5469737766213987

>  <m_score__min__rmsd>  (7) 
2.5469737766213987

>  <meeko>  (7) 
{"free_energy": -6.65, "intermolecular_energy": -8.44, "internal_energy": -1.79, "cluster_size": 14, "cluster_id": 2, "rank_in_cluster": 4}

>  <energy>  (7) 
-7.07

>  <cluster_rmsd>  (7) 
1.49

>  <cluster>  (7) 
1

$$$$

     RDKit          3D

 45 47  0  0  0  0  0  0  0  0999 V2000
  136.5430   69.2060  224.2800 O   0  0  0  0  0  0  0  0  0  0  0  0
  136.2750   70.4000  224.5850 C   0  0  0  0  0  0  0  0  0  0  0  0
  137.2700   71.3700  224.2800 N   0  0  0  0  0  0  0  0  0  0  0  0
  138.5230   71.1300  223.6700 C   0  0  0  0  0  0  0  0  0  0  0  0
  139.5150   70.2240  224.1900 C   0  0  0  0  0  0  0  0  0  0  0  0
  139.5830   69.1190  223.4460 O   0  0  0  0  0  0  0  0  0  0  0  0
  140.3960   70.2160  225.2550 N   0  0  0  0  0  0  0  0  0  0  0  0
  141.2860   71.3100  225.6690 C   0  0  0  0  0  0  0  0  0  0  0  0
  140.6320   71.8570  226.9360 C   0  0  0  0  0  0  0  0  0  0  0  0
  140.5380   70.7570  227.9670 C   0  0  0  0  0  0  0  0  0  0  0  0
  141.0710   69.4460  227.4380 C   0  0  0  0  0  0  0  0  0  0  0  0
  140.5420   69.0350  226.1110 C   0  0  1  0  0  0  0  0  0  0  0  0
  139.4120   68.1020  226.1890 C   0  0  0  0  0  0  0  0  0  0  0  0
  139.2850   67.1850  225.1560 O   0  0  0  0  0  0  0  0  0  0  0  0
  135.0170   70.7600  225.2150 C   0  0  0  0  0  0  0  0  0  0  0  0
  134.0890   69.7720  225.4570 C   0  0  0  0  0  0  0  0  0  0  0  0
  132.8660   70.0070  226.0490 C   0  0  0  0  0  0  0  0  0  0  0  0
  132.5910   71.3170  226.4050 C   0  0  0  0  0  0  0  0  0  0  0  0
  131.3670   71.5470  226.9960 C   0  0  0  0  0  0  0  0  0  0  0  0
  131.0640   72.8460  227.3630 C   0  0  0  0  0  0  0  0  0  0  0  0
  131.9810   73.8590  227.1300 C   0  0  0  0  0  0  0  0  0  0  0  0
  133.2140   73.6110  226.5310 C   0  0  0  0  0  0  0  0  0  0  0  0
  133.5170   72.3140  226.1650 C   0  0  0  0  0  0  0  0  0  0  0  0
  134.6930   72.0100  225.5830 N   0  0  0  0  0  0  0  0  0  0  0  0
  137.0190   72.3640  224.5450 H   0  0  0  0  0  0  0  0  0  0  0  0
  138.2960   70.7719  222.6550 H   0  0  0  0  0  0  0  0  0  0  0  0
  139.0209   72.0976  223.8308 H   0  0  0  0  0  0  0  0  0  0  0  0
  142.2970   70.9325  225.8822 H   0  0  0  0  0  0  0  0  0  0  0  0
  141.4066   72.0765  224.8893 H   0  0  0  0  0  0  0  0  0  0  0  0
  141.2389   72.6831  227.3350 H   0  0  0  0  0  0  0  0  0  0  0  0
  139.6231   72.2257  226.6990 H   0  0  0  0  0  0  0  0  0  0  0  0
  141.1224   71.0478  228.8524 H   0  0  0  0  0  0  0  0  0  0  0  0
  139.4772   70.6171  228.2223 H   0  0  0  0  0  0  0  0  0  0  0  0
  142.1646   69.5318  227.3563 H   0  0  0  0  0  0  0  0  0  0  0  0
  140.7417   68.6742  228.1493 H   0  0  0  0  0  0  0  0  0  0  0  0
  141.2752   68.3980  225.5945 H   0  0  0  0  0  0  0  0  0  0  0  0
  139.5126   67.5353  227.1264 H   0  0  0  0  0  0  0  0  0  0  0  0
  138.5132   68.7330  226.1256 H   0  0  0  0  0  0  0  0  0  0  0  0
  139.5160   67.5490  224.2760 H   0  0  0  0  0  0  0  0  0  0  0  0
  134.3362   68.7413  225.1627 H   0  0  0  0  0  0  0  0  0  0  0  0
  132.1456   69.1955  226.2293 H   0  0  0  0  0  0  0  0  0  0  0  0
  130.6558   70.7260  227.1698 H   0  0  0  0  0  0  0  0  0  0  0  0
  130.0985   73.0742  227.8382 H   0  0  0  0  0  0  0  0  0  0  0  0
  131.7280   74.8876  227.4264 H   0  0  0  0  0  0  0  0  0  0  0  0
  133.9289   74.4281  226.3538 H   0  0  0  0  0  0  0  0  0  0  0  0
  1  2  2  0
  2  3  1  0
  3  4  1  0
  4  5  1  0
  5  6  2  0
  5  7  1  0
  7  8  1  0
  8  9  1  0
  9 10  1  0
 10 11  1  0
 11 12  1  0
 12 13  1  0
 13 14  1  0
  2 15  1  0
 15 16  2  0
 16 17  1  0
 17 18  2  0
 18 19  1  0
 19 20  2  0
 20 21  1  0
 21 22  2  0
 22 23  1  0
 23 24  2  0
 12  7  1  0
 24 15  1  0
 23 18  1  0
  3 25  1  0
  4 26  1  0
  4 27  1  0
  8 28  1  0
  8 29  1  0
  9 30  1  0
  9 31  1  0
 10 32  1  0
 10 33  1  0
 11 34  1  0
 11 35  1  0
 12 36  1  6
 13 37  1  0
 13 38  1  0
 14 39  1  0
 16 40  1  0
 17 41  1  0
 19 42  1  0
 20 43  1  0
 21 44  1  0
 22 45  1  0
M  END
>  <smiles>  (8) 
O=C(NCC(=O)N1CCCC[C@H]1CO)c1ccc2ccccc2n1

>  <score_type>  (8) 
oracle

>  <origin>  (8) 
autodockgpu

>  <m_score__min__energy>  (8) 
-7.9000000000000004

>  <m_primary>  (8) 
energy

>  <rmsd>  (8) 
8.128235107694934

>  <m_score__min__rmsd>  (8) 
8.128235107694934

>  <meeko>  (8) 
{"free_energy": -6.56, "intermolecular_energy": -8.35, "internal_energy": -2.04, "cluster_size": 4, "cluster_id": 4, "rank_in_cluster": 1}

>  <energy>  (8) 
-7.07

>  <cluster_rmsd>  (8) 
1.52

>  <cluster>  (8) 
1

$$$$

     RDKit          3D

 45 47  0  0  0  0  0  0  0  0999 V2000
  141.4340   71.7110  221.2420 O   0  0  0  0  0  0  0  0  0  0  0  0
  140.8140   72.6300  221.8430 C   0  0  0  0  0  0  0  0  0  0  0  0
  139.8970   72.2220  222.8500 N   0  0  0  0  0  0  0  0  0  0  0  0
  139.6120   70.8940  223.2440 C   0  0  0  0  0  0  0  0  0  0  0  0
  139.4420   70.4750  224.6120 C   0  0  0  0  0  0  0  0  0  0  0  0
  138.1500   70.3240  224.9030 O   0  0  0  0  0  0  0  0  0  0  0  0
  140.2760   70.2010  225.6800 N   0  0  0  0  0  0  0  0  0  0  0  0
  140.8470   71.1740  226.6220 C   0  0  0  0  0  0  0  0  0  0  0  0
  140.0520   70.9530  227.9070 C   0  0  0  0  0  0  0  0  0  0  0  0
  140.2240   69.5230  228.3650 C   0  0  0  0  0  0  0  0  0  0  0  0
  141.0840   68.7290  227.4110 C   0  0  0  0  0  0  0  0  0  0  0  0
  140.7040   68.8310  225.9770 C   0  0  1  0  0  0  0  0  0  0  0  0
  139.8500   67.7320  225.5140 C   0  0  0  0  0  0  0  0  0  0  0  0
  138.5100   67.7850  225.8730 O   0  0  0  0  0  0  0  0  0  0  0  0
  141.0290   74.0300  221.5180 C   0  0  0  0  0  0  0  0  0  0  0  0
  141.9620   74.3530  220.5590 C   0  0  0  0  0  0  0  0  0  0  0  0
  142.2410   75.6480  220.1780 C   0  0  0  0  0  0  0  0  0  0  0  0
  141.5270   76.6500  220.8150 C   0  0  0  0  0  0  0  0  0  0  0  0
  141.8110   77.9440  220.4310 C   0  0  0  0  0  0  0  0  0  0  0  0
  141.1130   78.9650  221.0490 C   0  0  0  0  0  0  0  0  0  0  0  0
  140.1690   78.6660  222.0190 C   0  0  0  0  0  0  0  0  0  0  0  0
  139.8930   77.3540  222.3970 C   0  0  0  0  0  0  0  0  0  0  0  0
  140.5900   76.3330  221.7790 C   0  0  0  0  0  0  0  0  0  0  0  0
  140.3680   75.0440  222.1000 N   0  0  0  0  0  0  0  0  0  0  0  0
  139.3900   73.0140  223.3390 H   0  0  0  0  0  0  0  0  0  0  0  0
  138.6757   70.6265  222.7325 H   0  0  0  0  0  0  0  0  0  0  0  0
  140.5587   70.3946  222.9902 H   0  0  0  0  0  0  0  0  0  0  0  0
  141.9171   70.9786  226.7855 H   0  0  0  0  0  0  0  0  0  0  0  0
  140.7800   72.2088  226.2549 H   0  0  0  0  0  0  0  0  0  0  0  0
  140.4197   71.6350  228.6878 H   0  0  0  0  0  0  0  0  0  0  0  0
  138.9868   71.1525  227.7185 H   0  0  0  0  0  0  0  0  0  0  0  0
  140.6982   69.5215  229.3575 H   0  0  0  0  0  0  0  0  0  0  0  0
  139.2299   69.0534  228.4015 H   0  0  0  0  0  0  0  0  0  0  0  0
  142.1206   69.0823  227.5137 H   0  0  0  0  0  0  0  0  0  0  0  0
  140.9487   67.6728  227.6869 H   0  0  0  0  0  0  0  0  0  0  0  0
  141.5860   68.6644  225.3411 H   0  0  0  0  0  0  0  0  0  0  0  0
  139.8994   67.7127  224.4153 H   0  0  0  0  0  0  0  0  0  0  0  0
  140.2448   66.8330  226.0098 H   0  0  0  0  0  0  0  0  0  0  0  0
  138.0730   68.6290  225.6360 H   0  0  0  0  0  0  0  0  0  0  0  0
  142.5134   73.5355  220.0715 H   0  0  0  0  0  0  0  0  0  0  0  0
  142.9924   75.8744  219.4072 H   0  0  0  0  0  0  0  0  0  0  0  0
  142.5664   78.1562  219.6601 H   0  0  0  0  0  0  0  0  0  0  0  0
  141.3063   80.0118  220.7717 H   0  0  0  0  0  0  0  0  0  0  0  0
  139.6223   79.4881  222.5040 H   0  0  0  0  0  0  0  0  0  0  0  0
  139.1393   77.1360  223.1680 H   0  0  0  0  0  0  0  0  0  0  0  0
  1  2  2  0
  2  3  1  0
  3  4  1  0
  4  5  1  0
  5  6  2  0
  5  7  1  0
  7  8  1  0
  8  9  1  0
  9 10  1  0
 10 11  1  0
 11 12  1  0
 12 13  1  0
 13 14  1  0
  2 15  1  0
 15 16  2  0
 16 17  1  0
 17 18  2  0
 18 19  1  0
 19 20  2  0
 20 21  1  0
 21 22  2  0
 22 23  1  0
 23 24  2  0
 12  7  1  0
 24 15  1  0
 23 18  1  0
  3 25  1  0
  4 26  1  0
  4 27  1  0
  8 28  1  0
  8 29  1  0
  9 30  1  0
  9 31  1  0
 10 32  1  0
 10 33  1  0
 11 34  1  0
 11 35  1  0
 12 36  1  6
 13 37  1  0
 13 38  1  0
 14 39  1  0
 16 40  1  0
 17 41  1  0
 19 42  1  0
 20 43  1  0
 21 44  1  0
 22 45  1  0
M  END
>  <smiles>  (9) 
O=C(NCC(=O)N1CCCC[C@H]1CO)c1ccc2ccccc2n1

>  <score_type>  (9) 
oracle

>  <origin>  (9) 
autodockgpu

>  <m_score__min__energy>  (9) 
-7.9000000000000004

>  <m_primary>  (9) 
energy

>  <rmsd>  (9) 
8.758331845331936

>  <m_score__min__rmsd>  (9) 
8.758331845331936

>  <meeko>  (9) 
{"free_energy": -7.01, "intermolecular_energy": -8.8, "internal_energy": -1.88, "cluster_size": 20, "cluster_id": 1, "rank_in_cluster": 11}

>  <energy>  (9) 
-7.06

>  <cluster_rmsd>  (9) 
1.51

>  <cluster>  (9) 
1

$$$$

     RDKit          3D

 45 47  0  0  0  0  0  0  0  0999 V2000
  140.6010   70.8090  221.2330 O   0  0  0  0  0  0  0  0  0  0  0  0
  140.4890   71.5910  222.2160 C   0  0  0  0  0  0  0  0  0  0  0  0
  140.5870   72.9810  221.9340 N   0  0  0  0  0  0  0  0  0  0  0  0
  140.7940   73.5720  220.6660 C   0  0  0  0  0  0  0  0  0  0  0  0
  141.7430   73.0910  219.6960 C   0  0  0  0  0  0  0  0  0  0  0  0
  141.1640   72.2400  218.8490 O   0  0  0  0  0  0  0  0  0  0  0  0
  143.0870   73.2880  219.4330 N   0  0  0  0  0  0  0  0  0  0  0  0
  143.7520   74.5730  219.1730 C   0  0  0  0  0  0  0  0  0  0  0  0
  144.5360   74.8470  220.4550 C   0  0  0  0  0  0  0  0  0  0  0  0
  145.5120   73.7190  220.6970 C   0  0  0  0  0  0  0  0  0  0  0  0
  145.4010   72.6450  219.6420 C   0  0  0  0  0  0  0  0  0  0  0  0
  144.0210   72.1620  219.3710 C   0  0  1  0  0  0  0  0  0  0  0  0
  143.6700   70.9390  220.1030 C   0  0  0  0  0  0  0  0  0  0  0  0
  142.7200   70.1120  219.5200 O   0  0  0  0  0  0  0  0  0  0  0  0
  140.2740   71.0920  223.5640 C   0  0  0  0  0  0  0  0  0  0  0  0
  139.5790   69.9150  223.7320 C   0  0  0  0  0  0  0  0  0  0  0  0
  139.3210   69.3570  224.9660 C   0  0  0  0  0  0  0  0  0  0  0  0
  139.8000   70.0420  226.0700 C   0  0  0  0  0  0  0  0  0  0  0  0
  139.5380   69.4800  227.3020 C   0  0  0  0  0  0  0  0  0  0  0  0
  140.0050   70.1420  228.4230 C   0  0  0  0  0  0  0  0  0  0  0  0
  140.7070   71.3280  228.2800 C   0  0  0  0  0  0  0  0  0  0  0  0
  140.9630   71.8850  227.0290 C   0  0  0  0  0  0  0  0  0  0  0  0
  140.4980   71.2240  225.9090 C   0  0  0  0  0  0  0  0  0  0  0  0
  140.7130   71.7110  224.6720 N   0  0  0  0  0  0  0  0  0  0  0  0
  140.4890   73.6150  222.7780 H   0  0  0  0  0  0  0  0  0  0  0  0
  139.8160   73.5475  220.1630 H   0  0  0  0  0  0  0  0  0  0  0  0
  141.2579   74.5266  220.9549 H   0  0  0  0  0  0  0  0  0  0  0  0
  144.4288   74.4957  218.3093 H   0  0  0  0  0  0  0  0  0  0  0  0
  143.0415   75.3769  218.9303 H   0  0  0  0  0  0  0  0  0  0  0  0
  145.0870   75.7936  220.3530 H   0  0  0  0  0  0  0  0  0  0  0  0
  143.8396   74.9188  221.3034 H   0  0  0  0  0  0  0  0  0  0  0  0
  146.5345   74.1245  220.6860 H   0  0  0  0  0  0  0  0  0  0  0  0
  145.2764   73.2664  221.6715 H   0  0  0  0  0  0  0  0  0  0  0  0
  145.8111   73.0465  218.7036 H   0  0  0  0  0  0  0  0  0  0  0  0
  145.9564   71.7784  220.0299 H   0  0  0  0  0  0  0  0  0  0  0  0
  143.9481   71.7899  218.3384 H   0  0  0  0  0  0  0  0  0  0  0  0
  144.5909   70.3508  220.2292 H   0  0  0  0  0  0  0  0  0  0  0  0
  143.2127   71.2862  221.0413 H   0  0  0  0  0  0  0  0  0  0  0  0
  141.8210   70.5010  219.4950 H   0  0  0  0  0  0  0  0  0  0  0  0
  139.2110   69.3936  222.8361 H   0  0  0  0  0  0  0  0  0  0  0  0
  138.7626   68.4148  225.0685 H   0  0  0  0  0  0  0  0  0  0  0  0
  138.9770   68.5379  227.3900 H   0  0  0  0  0  0  0  0  0  0  0  0
  139.8197   69.7281  229.4252 H   0  0  0  0  0  0  0  0  0  0  0  0
  141.0726   71.8444  229.1798 H   0  0  0  0  0  0  0  0  0  0  0  0
  141.5217   72.8280  226.9356 H   0  0  0  0  0  0  0  0  0  0  0  0
  1  2  2  0
  2  3  1  0
  3  4  1  0
  4  5  1  0
  5  6  2  0
  5  7  1  0
  7  8  1  0
  8  9  1  0
  9 10  1  0
 10 11  1  0
 11 12  1  0
 12 13  1  0
 13 14  1  0
  2 15  1  0
 15 16  2  0
 16 17  1  0
 17 18  2  0
 18 19  1  0
 19 20  2  0
 20 21  1  0
 21 22  2  0
 22 23  1  0
 23 24  2  0
 12  7  1  0
 24 15  1  0
 23 18  1  0
  3 25  1  0
  4 26  1  0
  4 27  1  0
  8 28  1  0
  8 29  1  0
  9 30  1  0
  9 31  1  0
 10 32  1  0
 10 33  1  0
 11 34  1  0
 11 35  1  0
 12 36  1  6
 13 37  1  0
 13 38  1  0
 14 39  1  0
 16 40  1  0
 17 41  1  0
 19 42  1  0
 20 43  1  0
 21 44  1  0
 22 45  1  0
M  END
>  <smiles>  (10) 
O=C(NCC(=O)N1CCCC[C@H]1CO)c1ccc2ccccc2n1

>  <score_type>  (10) 
oracle

>  <origin>  (10) 
autodockgpu

>  <m_score__min__energy>  (10) 
-7.9000000000000004

>  <m_primary>  (10) 
energy

>  <rmsd>  (10) 
3.841975355833505

>  <m_score__min__rmsd>  (10) 
3.841975355833505

>  <meeko>  (10) 
{"free_energy": -5.69, "intermolecular_energy": -7.48, "internal_energy": -2.58, "cluster_size": 4, "cluster_id": 3, "rank_in_cluster": 3}

>  <energy>  (10) 
-7.04

>  <cluster_rmsd>  (10) 
1.48

>  <cluster>  (10) 
1

$$$$

     RDKit          3D

 45 47  0  0  0  0  0  0  0  0999 V2000
  139.5710   74.1210  221.9460 O   0  0  0  0  0  0  0  0  0  0  0  0
  140.7010   74.6050  221.6650 C   0  0  0  0  0  0  0  0  0  0  0  0
  140.8650   76.0000  221.8860 N   0  0  0  0  0  0  0  0  0  0  0  0
  139.8930   76.8950  222.3900 C   0  0  0  0  0  0  0  0  0  0  0  0
  139.7800   78.2740  221.9910 C   0  0  0  0  0  0  0  0  0  0  0  0
  138.7130   78.4550  221.2120 O   0  0  0  0  0  0  0  0  0  0  0  0
  140.4960   79.4360  222.2090 N   0  0  0  0  0  0  0  0  0  0  0  0
  140.5500   80.2150  223.4550 C   0  0  0  0  0  0  0  0  0  0  0  0
  141.9380   79.9160  224.0160 C   0  0  0  0  0  0  0  0  0  0  0  0
  142.9870   80.3410  223.0140 C   0  0  0  0  0  0  0  0  0  0  0  0
  142.3660   80.8890  221.7520 C   0  0  0  0  0  0  0  0  0  0  0  0
  141.3030   80.0420  221.1470 C   0  0  1  0  0  0  0  0  0  0  0  0
  141.7860   79.1690  220.0710 C   0  0  0  0  0  0  0  0  0  0  0  0
  142.2450   77.9130  220.4430 O   0  0  0  0  0  0  0  0  0  0  0  0
  141.7730   73.7760  221.1410 C   0  0  0  0  0  0  0  0  0  0  0  0
  141.5020   72.4670  220.8160 C   0  0  0  0  0  0  0  0  0  0  0  0
  142.4470   71.5980  220.3130 C   0  0  0  0  0  0  0  0  0  0  0  0
  143.7250   72.1040  220.1380 C   0  0  0  0  0  0  0  0  0  0  0  0
  144.6670   71.2310  219.6350 C   0  0  0  0  0  0  0  0  0  0  0  0
  145.9510   71.7090  219.4500 C   0  0  0  0  0  0  0  0  0  0  0  0
  146.2500   73.0240  219.7690 C   0  0  0  0  0  0  0  0  0  0  0  0
  145.2880   73.8940  220.2770 C   0  0  0  0  0  0  0  0  0  0  0  0
  144.0040   73.4180  220.4620 C   0  0  0  0  0  0  0  0  0  0  0  0
  143.0300   74.2100  220.9490 N   0  0  0  0  0  0  0  0  0  0  0  0
  141.8240   76.3800  221.6420 H   0  0  0  0  0  0  0  0  0  0  0  0
  138.9195   76.4378  222.1591 H   0  0  0  0  0  0  0  0  0  0  0  0
  140.2335   77.0071  223.4300 H   0  0  0  0  0  0  0  0  0  0  0  0
  140.4340   81.2895  223.2500 H   0  0  0  0  0  0  0  0  0  0  0  0
  139.7438   79.9510  224.1553 H   0  0  0  0  0  0  0  0  0  0  0  0
  142.0815   80.4706  224.9551 H   0  0  0  0  0  0  0  0  0  0  0  0
  142.0312   78.8373  224.2102 H   0  0  0  0  0  0  0  0  0  0  0  0
  143.6182   81.1194  223.4675 H   0  0  0  0  0  0  0  0  0  0  0  0
  143.5828   79.4560  222.7460 H   0  0  0  0  0  0  0  0  0  0  0  0
  141.9264   81.8694  221.9875 H   0  0  0  0  0  0  0  0  0  0  0  0
  143.1765   80.9363  221.0098 H   0  0  0  0  0  0  0  0  0  0  0  0
  140.5999   80.6687  220.5788 H   0  0  0  0  0  0  0  0  0  0  0  0
  140.9571   79.0241  219.3626 H   0  0  0  0  0  0  0  0  0  0  0  0
  142.6637   79.6845  219.6540 H   0  0  0  0  0  0  0  0  0  0  0  0
  143.0930   77.9340  220.9340 H   0  0  0  0  0  0  0  0  0  0  0  0
  140.4779   72.0941  220.9652 H   0  0  0  0  0  0  0  0  0  0  0  0
  142.1989   70.5558  220.0633 H   0  0  0  0  0  0  0  0  0  0  0  0
  144.4058   70.1910  219.3897 H   0  0  0  0  0  0  0  0  0  0  0  0
  146.7335   71.0470  219.0505 H   0  0  0  0  0  0  0  0  0  0  0  0
  147.2757   73.3911  219.6168 H   0  0  0  0  0  0  0  0  0  0  0  0
  145.5442   74.9346  220.5248 H   0  0  0  0  0  0  0  0  0  0  0  0
  1  2  2  0
  2  3  1  0
  3  4  1  0
  4  5  1  0
  5  6  2  0
  5  7  1  0
  7  8  1  0
  8  9  1  0
  9 10  1  0
 10 11  1  0
 11 12  1  0
 12 13  1  0
 13 14  1  0
  2 15  1  0
 15 16  2  0
 16 17  1  0
 17 18  2  0
 18 19  1  0
 19 20  2  0
 20 21  1  0
 21 22  2  0
 22 23  1  0
 23 24  2  0
 12  7  1  0
 24 15  1  0
 23 18  1  0
  3 25  1  0
  4 26  1  0
  4 27  1  0
  8 28  1  0
  8 29  1  0
  9 30  1  0
  9 31  1  0
 10 32  1  0
 10 33  1  0
 11 34  1  0
 11 35  1  0
 12 36  1  6
 13 37  1  0
 13 38  1  0
 14 39  1  0
 16 40  1  0
 17 41  1  0
 19 42  1  0
 20 43  1  0
 21 44  1  0
 22 45  1  0
M  END
>  <smiles>  (11) 
O=C(NCC(=O)N1CCCC[C@H]1CO)c1ccc2ccccc2n1

>  <score_type>  (11) 
oracle

>  <origin>  (11) 
autodockgpu

>  <m_score__min__energy>  (11) 
-7.9000000000000004

>  <m_primary>  (11) 
energy

>  <rmsd>  (11) 
6.440600261980668

>  <m_score__min__rmsd>  (11) 
6.440600261980668

>  <meeko>  (11) 
{"free_energy": -6.15, "intermolecular_energy": -7.94, "internal_energy": -1.98, "cluster_size": 1, "cluster_id": 8, "rank_in_cluster": 1}

>  <energy>  (11) 
-7.01

>  <cluster_rmsd>  (11) 
0.83

>  <cluster>  (11) 
1

$$$$

     RDKit          3D

 45 47  0  0  0  0  0  0  0  0999 V2000
  140.0270   74.1830  221.9700 O   0  0  0  0  0  0  0  0  0  0  0  0
  140.7300   75.2120  221.7790 C   0  0  0  0  0  0  0  0  0  0  0  0
  141.9690   75.0190  221.1100 N   0  0  0  0  0  0  0  0  0  0  0  0
  142.4900   73.7910  220.6370 C   0  0  0  0  0  0  0  0  0  0  0  0
  143.4300   73.6760  219.5530 C   0  0  0  0  0  0  0  0  0  0  0  0
  144.0640   74.8320  219.3510 O   0  0  0  0  0  0  0  0  0  0  0  0
  143.8280   72.6800  218.6800 N   0  0  0  0  0  0  0  0  0  0  0  0
  143.2450   72.3800  217.3640 C   0  0  0  0  0  0  0  0  0  0  0  0
  144.2890   72.8910  216.3740 C   0  0  0  0  0  0  0  0  0  0  0  0
  145.5990   72.1760  216.6120 C   0  0  0  0  0  0  0  0  0  0  0  0
  145.5080   71.2100  217.7690 C   0  0  0  0  0  0  0  0  0  0  0  0
  144.9240   71.7680  219.0170 C   0  0  1  0  0  0  0  0  0  0  0  0
  145.9260   72.2300  219.9830 C   0  0  0  0  0  0  0  0  0  0  0  0
  146.6570   73.3580  219.6360 O   0  0  0  0  0  0  0  0  0  0  0  0
  140.2920   76.5250  222.2230 C   0  0  0  0  0  0  0  0  0  0  0  0
  138.9430   76.7650  222.3530 C   0  0  0  0  0  0  0  0  0  0  0  0
  138.4230   77.9740  222.7670 C   0  0  0  0  0  0  0  0  0  0  0  0
  139.3360   78.9740  223.0570 C   0  0  0  0  0  0  0  0  0  0  0  0
  138.8120   80.1810  223.4700 C   0  0  0  0  0  0  0  0  0  0  0  0
  139.6990   81.1990  223.7670 C   0  0  0  0  0  0  0  0  0  0  0  0
  141.0630   80.9820  223.6450 C   0  0  0  0  0  0  0  0  0  0  0  0
  141.5780   79.7580  223.2260 C   0  0  0  0  0  0  0  0  0  0  0  0
  140.6920   78.7400  222.9290 C   0  0  0  0  0  0  0  0  0  0  0  0
  141.1270   77.5330  222.5200 N   0  0  0  0  0  0  0  0  0  0  0  0
  142.5390   75.9000  220.9620 H   0  0  0  0  0  0  0  0  0  0  0  0
  142.9770   73.3209  221.5041 H   0  0  0  0  0  0  0  0  0  0  0  0
  141.5927   73.3467  220.1815 H   0  0  0  0  0  0  0  0  0  0  0  0
  143.0878   71.2980  217.2432 H   0  0  0  0  0  0  0  0  0  0  0  0
  142.2598   72.8476  217.2202 H   0  0  0  0  0  0  0  0  0  0  0  0
  143.9465   72.6972  215.3468 H   0  0  0  0  0  0  0  0  0  0  0  0
  144.4301   73.9728  216.5146 H   0  0  0  0  0  0  0  0  0  0  0  0
  145.8708   71.6188  215.7034 H   0  0  0  0  0  0  0  0  0  0  0  0
  146.3613   72.9307  216.8556 H   0  0  0  0  0  0  0  0  0  0  0  0
  144.8862   70.3592  217.4535 H   0  0  0  0  0  0  0  0  0  0  0  0
  146.5432   70.9314  218.0153 H   0  0  0  0  0  0  0  0  0  0  0  0
  144.4552   70.9646  219.6041 H   0  0  0  0  0  0  0  0  0  0  0  0
  145.4031   72.4494  220.9256 H   0  0  0  0  0  0  0  0  0  0  0  0
  146.6638   71.4164  220.0435 H   0  0  0  0  0  0  0  0  0  0  0  0
  146.1010   74.1210  219.3750 H   0  0  0  0  0  0  0  0  0  0  0  0
  138.2431   75.9506  222.1144 H   0  0  0  0  0  0  0  0  0  0  0  0
  137.3390   78.1353  222.8618 H   0  0  0  0  0  0  0  0  0  0  0  0
  137.7257   80.3287  223.5600 H   0  0  0  0  0  0  0  0  0  0  0  0
  139.3237   82.1782  224.0991 H   0  0  0  0  0  0  0  0  0  0  0  0
  141.7580   81.7999  223.8860 H   0  0  0  0  0  0  0  0  0  0  0  0
  142.6634   79.6052  223.1337 H   0  0  0  0  0  0  0  0  0  0  0  0
  1  2  2  0
  2  3  1  0
  3  4  1  0
  4  5  1  0
  5  6  2  0
  5  7  1  0
  7  8  1  0
  8  9  1  0
  9 10  1  0
 10 11  1  0
 11 12  1  0
 12 13  1  0
 13 14  1  0
  2 15  1  0
 15 16  2  0
 16 17  1  0
 17 18  2  0
 18 19  1  0
 19 20  2  0
 20 21  1  0
 21 22  2  0
 22 23  1  0
 23 24  2  0
 12  7  1  0
 24 15  1  0
 23 18  1  0
  3 25  1  0
  4 26  1  0
  4 27  1  0
  8 28  1  0
  8 29  1  0
  9 30  1  0
  9 31  1  0
 10 32  1  0
 10 33  1  0
 11 34  1  0
 11 35  1  0
 12 36  1  1
 13 37  1  0
 13 38  1  0
 14 39  1  0
 16 40  1  0
 17 41  1  0
 19 42  1  0
 20 43  1  0
 21 44  1  0
 22 45  1  0
M  END
>  <smiles>  (12) 
O=C(NCC(=O)N1CCCC[C@H]1CO)c1ccc2ccccc2n1

>  <score_type>  (12) 
oracle

>  <origin>  (12) 
autodockgpu

>  <m_score__min__energy>  (12) 
-7.9000000000000004

>  <m_primary>  (12) 
energy

>  <rmsd>  (12) 
7.653711612457091

>  <m_score__min__rmsd>  (12) 
7.653711612457091

>  <meeko>  (12) 
{"free_energy": -5.83, "intermolecular_energy": -7.62, "internal_energy": -2.08, "cluster_size": 4, "cluster_id": 6, "rank_in_cluster": 4}

>  <energy>  (12) 
-7.0

>  <cluster_rmsd>  (12) 
0.88

>  <cluster>  (12) 
1

$$$$

     RDKit          3D

 45 47  0  0  0  0  0  0  0  0999 V2000
  141.4390   71.5330  221.7210 O   0  0  0  0  0  0  0  0  0  0  0  0
  140.8560   72.5750  222.1240 C   0  0  0  0  0  0  0  0  0  0  0  0
  139.8790   72.4010  223.1430 N   0  0  0  0  0  0  0  0  0  0  0  0
  139.5000   71.1800  223.7480 C   0  0  0  0  0  0  0  0  0  0  0  0
  140.1700   70.5980  224.8810 C   0  0  0  0  0  0  0  0  0  0  0  0
  141.4860   70.8000  224.8090 O   0  0  0  0  0  0  0  0  0  0  0  0
  139.7910   69.8880  226.0060 N   0  0  0  0  0  0  0  0  0  0  0  0
  139.1430   68.5690  226.0370 C   0  0  0  0  0  0  0  0  0  0  0  0
  140.2500   67.6250  226.4980 C   0  0  0  0  0  0  0  0  0  0  0  0
  140.7510   68.0640  227.8550 C   0  0  0  0  0  0  0  0  0  0  0  0
  140.0500   69.3130  228.3340 C   0  0  0  0  0  0  0  0  0  0  0  0
  140.0010   70.4290  227.3520 C   0  0  1  0  0  0  0  0  0  0  0  0
  141.0670   71.4210  227.5320 C   0  0  0  0  0  0  0  0  0  0  0  0
  140.9310   72.6180  226.8440 O   0  0  0  0  0  0  0  0  0  0  0  0
  141.1670   73.8830  221.5710 C   0  0  0  0  0  0  0  0  0  0  0  0
  141.9870   73.9590  220.4680 C   0  0  0  0  0  0  0  0  0  0  0  0
  142.3430   75.1480  219.8680 C   0  0  0  0  0  0  0  0  0  0  0  0
  141.8320   76.3050  220.4320 C   0  0  0  0  0  0  0  0  0  0  0  0
  142.1920   77.4920  219.8290 C   0  0  0  0  0  0  0  0  0  0  0  0
  141.6960   78.6640  220.3700 C   0  0  0  0  0  0  0  0  0  0  0  0
  140.8690   78.6140  221.4810 C   0  0  0  0  0  0  0  0  0  0  0  0
  140.5150   77.4080  222.0800 C   0  0  0  0  0  0  0  0  0  0  0  0
  141.0090   76.2370  221.5390 C   0  0  0  0  0  0  0  0  0  0  0  0
  140.7020   75.0380  222.0730 N   0  0  0  0  0  0  0  0  0  0  0  0
  139.4050   73.2930  223.4630 H   0  0  0  0  0  0  0  0  0  0  0  0
  138.4531   71.3139  224.0580 H   0  0  0  0  0  0  0  0  0  0  0  0
  139.7691   70.4641  222.9573 H   0  0  0  0  0  0  0  0  0  0  0  0
  138.3028   68.5627  226.7469 H   0  0  0  0  0  0  0  0  0  0  0  0
  138.7200   68.2820  225.0630 H   0  0  0  0  0  0  0  0  0  0  0  0
  139.8542   66.6010  226.5665 H   0  0  0  0  0  0  0  0  0  0  0  0
  141.0785   67.6492  225.7748 H   0  0  0  0  0  0  0  0  0  0  0  0
  140.5726   67.2555  228.5792 H   0  0  0  0  0  0  0  0  0  0  0  0
  141.8247   68.2864  227.7677 H   0  0  0  0  0  0  0  0  0  0  0  0
  139.0158   69.0438  228.5948 H   0  0  0  0  0  0  0  0  0  0  0  0
  140.6367   69.6835  229.1875 H   0  0  0  0  0  0  0  0  0  0  0  0
  139.1220   71.0614  227.5451 H   0  0  0  0  0  0  0  0  0  0  0  0
  141.1229   71.6583  228.6046 H   0  0  0  0  0  0  0  0  0  0  0  0
  141.9703   70.9511  227.1158 H   0  0  0  0  0  0  0  0  0  0  0  0
  141.2460   72.5770  225.9170 H   0  0  0  0  0  0  0  0  0  0  0  0
  142.3784   73.0227  220.0434 H   0  0  0  0  0  0  0  0  0  0  0  0
  142.9997   75.1763  218.9860 H   0  0  0  0  0  0  0  0  0  0  0  0
  142.8508   77.5059  218.9482 H   0  0  0  0  0  0  0  0  0  0  0  0
  141.9571   79.6331  219.9198 H   0  0  0  0  0  0  0  0  0  0  0  0
  140.4813   79.5537  221.9014 H   0  0  0  0  0  0  0  0  0  0  0  0
  139.8582   77.3882  222.9622 H   0  0  0  0  0  0  0  0  0  0  0  0
  1  2  2  0
  2  3  1  0
  3  4  1  0
  4  5  1  0
  5  6  2  0
  5  7  1  0
  7  8  1  0
  8  9  1  0
  9 10  1  0
 10 11  1  0
 11 12  1  0
 12 13  1  0
 13 14  1  0
  2 15  1  0
 15 16  2  0
 16 17  1  0
 17 18  2  0
 18 19  1  0
 19 20  2  0
 20 21  1  0
 21 22  2  0
 22 23  1  0
 23 24  2  0
 12  7  1  0
 24 15  1  0
 23 18  1  0
  3 25  1  0
  4 26  1  0
  4 27  1  0
  8 28  1  0
  8 29  1  0
  9 30  1  0
  9 31  1  0
 10 32  1  0
 10 33  1  0
 11 34  1  0
 11 35  1  0
 12 36  1  1
 13 37  1  0
 13 38  1  0
 14 39  1  0
 16 40  1  0
 17 41  1  0
 19 42  1  0
 20 43  1  0
 21 44  1  0
 22 45  1  0
M  END
>  <smiles>  (13) 
O=C(NCC(=O)N1CCCC[C@H]1CO)c1ccc2ccccc2n1

>  <score_type>  (13) 
oracle

>  <origin>  (13) 
autodockgpu

>  <m_score__min__energy>  (13) 
-7.9000000000000004

>  <m_primary>  (13) 
energy

>  <rmsd>  (13) 
8.812340083258116

>  <m_score__min__rmsd>  (13) 
8.812340083258116

>  <meeko>  (13) 
{"free_energy": -6.99, "intermolecular_energy": -8.78, "internal_energy": -1.76, "cluster_size": 20, "cluster_id": 1, "rank_in_cluster": 14}

>  <energy>  (13) 
-7.0

>  <cluster_rmsd>  (13) 
0.82

>  <cluster>  (13) 
1

$$$$

     RDKit          3D

 45 47  0  0  0  0  0  0  0  0999 V2000
  141.5530   71.7320  221.4470 O   0  0  0  0  0  0  0  0  0  0  0  0
  140.8350   72.6490  221.9290 C   0  0  0  0  0  0  0  0  0  0  0  0
  139.8120   72.2450  222.8310 N   0  0  0  0  0  0  0  0  0  0  0  0
  139.5210   70.9230  223.2390 C   0  0  0  0  0  0  0  0  0  0  0  0
  139.3740   70.5140  224.6120 C   0  0  0  0  0  0  0  0  0  0  0  0
  138.0870   70.3700  224.9280 O   0  0  0  0  0  0  0  0  0  0  0  0
  140.2260   70.2440  225.6670 N   0  0  0  0  0  0  0  0  0  0  0  0
  140.7920   71.2170  226.6120 C   0  0  0  0  0  0  0  0  0  0  0  0
  140.0160   70.9700  227.9040 C   0  0  0  0  0  0  0  0  0  0  0  0
  140.2190   69.5390  228.3450 C   0  0  0  0  0  0  0  0  0  0  0  0
  141.0810   68.7700  227.3730 C   0  0  0  0  0  0  0  0  0  0  0  0
  140.6810   68.8790  225.9450 C   0  0  1  0  0  0  0  0  0  0  0  0
  139.8400   67.7690  225.4810 C   0  0  0  0  0  0  0  0  0  0  0  0
  138.5060   67.7940  225.8600 O   0  0  0  0  0  0  0  0  0  0  0  0
  141.0460   74.0440  221.5790 C   0  0  0  0  0  0  0  0  0  0  0  0
  141.9640   74.3500  220.6000 C   0  0  0  0  0  0  0  0  0  0  0  0
  142.2380   75.6390  220.1940 C   0  0  0  0  0  0  0  0  0  0  0  0
  141.5350   76.6520  220.8250 C   0  0  0  0  0  0  0  0  0  0  0  0
  141.8140   77.9390  220.4160 C   0  0  0  0  0  0  0  0  0  0  0  0
  141.1260   78.9710  221.0280 C   0  0  0  0  0  0  0  0  0  0  0  0
  140.1970   78.6880  222.0170 C   0  0  0  0  0  0  0  0  0  0  0  0
  139.9260   77.3830  222.4200 C   0  0  0  0  0  0  0  0  0  0  0  0
  140.6120   76.3510  221.8080 C   0  0  0  0  0  0  0  0  0  0  0  0
  140.3950   75.0680  222.1540 N   0  0  0  0  0  0  0  0  0  0  0  0
  139.2250   73.0360  223.2220 H   0  0  0  0  0  0  0  0  0  0  0  0
  138.5718   70.6624  222.7479 H   0  0  0  0  0  0  0  0  0  0  0  0
  140.4572   70.4122  222.9697 H   0  0  0  0  0  0  0  0  0  0  0  0
  141.8670   71.0378  226.7610 H   0  0  0  0  0  0  0  0  0  0  0  0
  140.7036   72.2541  226.2562 H   0  0  0  0  0  0  0  0  0  0  0  0
  140.3809   71.6508  228.6872 H   0  0  0  0  0  0  0  0  0  0  0  0
  138.9453   71.1529  227.7305 H   0  0  0  0  0  0  0  0  0  0  0  0
  140.7052   69.5360  229.3317 H   0  0  0  0  0  0  0  0  0  0  0  0
  139.2339   69.0514  228.3884 H   0  0  0  0  0  0  0  0  0  0  0  0
  142.1123   69.1410  227.4663 H   0  0  0  0  0  0  0  0  0  0  0  0
  140.9684   67.7089  227.6402 H   0  0  0  0  0  0  0  0  0  0  0  0
  141.5575   68.7335  225.2965 H   0  0  0  0  0  0  0  0  0  0  0  0
  139.8735   67.7632  224.3815 H   0  0  0  0  0  0  0  0  0  0  0  0
  140.2584   66.8714  225.9598 H   0  0  0  0  0  0  0  0  0  0  0  0
  138.0940   68.6800  225.7920 H   0  0  0  0  0  0  0  0  0  0  0  0
  142.5067   73.5241  220.1169 H   0  0  0  0  0  0  0  0  0  0  0  0
  142.9778   75.8521  219.4084 H   0  0  0  0  0  0  0  0  0  0  0  0
  142.5578   78.1379  219.6304 H   0  0  0  0  0  0  0  0  0  0  0  0
  141.3155   80.0130  220.7308 H   0  0  0  0  0  0  0  0  0  0  0  0
  139.6584   79.5182  222.4973 H   0  0  0  0  0  0  0  0  0  0  0  0
  139.1842   77.1785  223.2061 H   0  0  0  0  0  0  0  0  0  0  0  0
  1  2  2  0
  2  3  1  0
  3  4  1  0
  4  5  1  0
  5  6  2  0
  5  7  1  0
  7  8  1  0
  8  9  1  0
  9 10  1  0
 10 11  1  0
 11 12  1  0
 12 13  1  0
 13 14  1  0
  2 15  1  0
 15 16  2  0
 16 17  1  0
 17 18  2  0
 18 19  1  0
 19 20  2  0
 20 21  1  0
 21 22  2  0
 22 23  1  0
 23 24  2  0
 12  7  1  0
 24 15  1  0
 23 18  1  0
  3 25  1  0
  4 26  1  0
  4 27  1  0
  8 28  1  0
  8 29  1  0
  9 30  1  0
  9 31  1  0
 10 32  1  0
 10 33  1  0
 11 34  1  0
 11 35  1  0
 12 36  1  6
 13 37  1  0
 13 38  1  0
 14 39  1  0
 16 40  1  0
 17 41  1  0
 19 42  1  0
 20 43  1  0
 21 44  1  0
 22 45  1  0
M  END
>  <smiles>  (14) 
O=C(NCC(=O)N1CCCC[C@H]1CO)c1ccc2ccccc2n1

>  <score_type>  (14) 
oracle

>  <origin>  (14) 
autodockgpu

>  <m_score__min__energy>  (14) 
-7.9000000000000004

>  <m_primary>  (14) 
energy

>  <rmsd>  (14) 
8.737881692456465

>  <m_score__min__rmsd>  (14) 
8.737881692456465

>  <meeko>  (14) 
{"free_energy": -7.0, "intermolecular_energy": -8.79, "internal_energy": -1.9, "cluster_size": 20, "cluster_id": 1, "rank_in_cluster": 13}

>  <energy>  (14) 
-6.99

>  <cluster_rmsd>  (14) 
1.43

>  <cluster>  (14) 
1

$$$$

     RDKit          3D

 45 47  0  0  0  0  0  0  0  0999 V2000
  140.9850   71.3070  221.5270 O   0  0  0  0  0  0  0  0  0  0  0  0
  140.6890   72.3780  222.1210 C   0  0  0  0  0  0  0  0  0  0  0  0
  139.9830   72.2470  223.3490 N   0  0  0  0  0  0  0  0  0  0  0  0
  139.5840   71.0400  223.9680 C   0  0  0  0  0  0  0  0  0  0  0  0
  140.2870   70.4200  225.0610 C   0  0  0  0  0  0  0  0  0  0  0  0
  141.5850   70.7210  225.0190 O   0  0  0  0  0  0  0  0  0  0  0  0
  139.9540   69.5990  226.1230 N   0  0  0  0  0  0  0  0  0  0  0  0
  139.4930   68.2060  226.0460 C   0  0  0  0  0  0  0  0  0  0  0  0
  140.6950   67.3930  226.5200 C   0  0  0  0  0  0  0  0  0  0  0  0
  141.0620   67.8130  227.9250 C   0  0  0  0  0  0  0  0  0  0  0  0
  140.1730   68.9250  228.4270 C   0  0  0  0  0  0  0  0  0  0  0  0
  140.0200   70.0810  227.5050 C   0  0  1  0  0  0  0  0  0  0  0  0
  140.9290   71.1950  227.7980 C   0  0  0  0  0  0  0  0  0  0  0  0
  140.7560   72.3560  227.0570 O   0  0  0  0  0  0  0  0  0  0  0  0
  141.0510   73.6750  221.5760 C   0  0  0  0  0  0  0  0  0  0  0  0
  141.9030   73.7270  220.4960 C   0  0  0  0  0  0  0  0  0  0  0  0
  142.3080   74.9050  219.9040 C   0  0  0  0  0  0  0  0  0  0  0  0
  141.8120   76.0760  220.4510 C   0  0  0  0  0  0  0  0  0  0  0  0
  142.2200   77.2520  219.8560 C   0  0  0  0  0  0  0  0  0  0  0  0
  141.7400   78.4380  220.3800 C   0  0  0  0  0  0  0  0  0  0  0  0
  140.8810   78.4130  221.4670 C   0  0  0  0  0  0  0  0  0  0  0  0
  140.4770   77.2180  222.0590 C   0  0  0  0  0  0  0  0  0  0  0  0
  140.9560   76.0320  221.5350 C   0  0  0  0  0  0  0  0  0  0  0  0
  140.6020   74.8440  222.0620 N   0  0  0  0  0  0  0  0  0  0  0  0
  139.7480   73.1630  223.8280 H   0  0  0  0  0  0  0  0  0  0  0  0
  138.5622   71.2176  224.3345 H   0  0  0  0  0  0  0  0  0  0  0  0
  139.7795   70.3189  223.1606 H   0  0  0  0  0  0  0  0  0  0  0  0
  138.6269   68.0437  226.7044 H   0  0  0  0  0  0  0  0  0  0  0  0
  139.1631   67.9243  225.0352 H   0  0  0  0  0  0  0  0  0  0  0  0
  140.4408   66.3228  226.5114 H   0  0  0  0  0  0  0  0  0  0  0  0
  141.5476   67.5716  225.8483 H   0  0  0  0  0  0  0  0  0  0  0  0
  140.9601   66.9459  228.5941 H   0  0  0  0  0  0  0  0  0  0  0  0
  142.0981   68.1824  227.9123 H   0  0  0  0  0  0  0  0  0  0  0  0
  139.1739   68.5038  228.6127 H   0  0  0  0  0  0  0  0  0  0  0  0
  140.6600   69.3193  229.3311 H   0  0  0  0  0  0  0  0  0  0  0  0
  139.0538   70.5766  227.6810 H   0  0  0  0  0  0  0  0  0  0  0  0
  140.8041   71.4560  228.8593 H   0  0  0  0  0  0  0  0  0  0  0  0
  141.9302   70.8279  227.5280 H   0  0  0  0  0  0  0  0  0  0  0  0
  141.2560   72.3620  226.2150 H   0  0  0  0  0  0  0  0  0  0  0  0
  142.2805   72.7796  220.0837 H   0  0  0  0  0  0  0  0  0  0  0  0
  142.9903   74.9136  219.0412 H   0  0  0  0  0  0  0  0  0  0  0  0
  142.9037   77.2462  218.9943 H   0  0  0  0  0  0  0  0  0  0  0  0
  142.0392   79.3986  219.9353 H   0  0  0  0  0  0  0  0  0  0  0  0
  140.5072   79.3640  221.8743 H   0  0  0  0  0  0  0  0  0  0  0  0
  139.7942   77.2185  222.9215 H   0  0  0  0  0  0  0  0  0  0  0  0
  1  2  2  0
  2  3  1  0
  3  4  1  0
  4  5  1  0
  5  6  2  0
  5  7  1  0
  7  8  1  0
  8  9  1  0
  9 10  1  0
 10 11  1  0
 11 12  1  0
 12 13  1  0
 13 14  1  0
  2 15  1  0
 15 16  2  0
 16 17  1  0
 17 18  2  0
 18 19  1  0
 19 20  2  0
 20 21  1  0
 21 22  2  0
 22 23  1  0
 23 24  2  0
 12  7  1  0
 24 15  1  0
 23 18  1  0
  3 25  1  0
  4 26  1  0
  4 27  1  0
  8 28  1  0
  8 29  1  0
  9 30  1  0
  9 31  1  0
 10 32  1  0
 10 33  1  0
 11 34  1  0
 11 35  1  0
 12 36  1  1
 13 37  1  0
 13 38  1  0
 14 39  1  0
 16 40  1  0
 17 41  1  0
 19 42  1  0
 20 43  1  0
 21 44  1  0
 22 45  1  0
M  END
>  <smiles>  (15) 
O=C(NCC(=O)N1CCCC[C@H]1CO)c1ccc2ccccc2n1

>  <score_type>  (15) 
oracle

>  <origin>  (15) 
autodockgpu

>  <m_score__min__energy>  (15) 
-7.9000000000000004

>  <m_primary>  (15) 
energy

>  <rmsd>  (15) 
8.877234800143455

>  <m_score__min__rmsd>  (15) 
8.877234800143455

>  <meeko>  (15) 
{"free_energy": -7.06, "intermolecular_energy": -8.85, "internal_energy": -1.77, "cluster_size": 20, "cluster_id": 1, "rank_in_cluster": 9}

>  <energy>  (15) 
-6.98

>  <cluster_rmsd>  (15) 
0.8

>  <cluster>  (15) 
1

$$$$

     RDKit          3D

 45 47  0  0  0  0  0  0  0  0999 V2000
  141.3340   72.9580  221.5230 O   0  0  0  0  0  0  0  0  0  0  0  0
  140.3930   72.9810  222.3620 C   0  0  0  0  0  0  0  0  0  0  0  0
  139.5590   74.1330  222.3470 N   0  0  0  0  0  0  0  0  0  0  0  0
  139.6780   75.2500  221.4880 C   0  0  0  0  0  0  0  0  0  0  0  0
  140.0280   76.5750  221.9290 C   0  0  0  0  0  0  0  0  0  0  0  0
  141.1080   76.5440  222.7110 O   0  0  0  0  0  0  0  0  0  0  0  0
  139.5250   77.8510  221.7480 N   0  0  0  0  0  0  0  0  0  0  0  0
  138.2110   78.3470  222.1810 C   0  0  0  0  0  0  0  0  0  0  0  0
  138.5320   79.2460  223.3730 C   0  0  0  0  0  0  0  0  0  0  0  0
  139.4610   80.3540  222.9310 C   0  0  0  0  0  0  0  0  0  0  0  0
  139.8300   80.2260  221.4720 C   0  0  0  0  0  0  0  0  0  0  0  0
  140.3000   78.8800  221.0510 C   0  0  1  0  0  0  0  0  0  0  0  0
  141.7610   78.7440  221.0350 C   0  0  0  0  0  0  0  0  0  0  0  0
  142.4210   78.9330  222.2400 O   0  0  0  0  0  0  0  0  0  0  0  0
  140.1780   71.8860  223.2930 C   0  0  0  0  0  0  0  0  0  0  0  0
  139.4670   70.7870  222.8710 C   0  0  0  0  0  0  0  0  0  0  0  0
  139.2080   69.6960  223.6750 C   0  0  0  0  0  0  0  0  0  0  0  0
  139.7040   69.7460  224.9670 C   0  0  0  0  0  0  0  0  0  0  0  0
  139.4410   68.6540  225.7670 C   0  0  0  0  0  0  0  0  0  0  0  0
  139.9250   68.6750  227.0630 C   0  0  0  0  0  0  0  0  0  0  0  0
  140.6440   69.7710  227.5120 C   0  0  0  0  0  0  0  0  0  0  0  0
  140.9010   70.8680  226.6930 C   0  0  0  0  0  0  0  0  0  0  0  0
  140.4190   70.8470  225.3980 C   0  0  0  0  0  0  0  0  0  0  0  0
  140.6340   71.8770  224.5570 N   0  0  0  0  0  0  0  0  0  0  0  0
  138.7760   74.1250  223.0620 H   0  0  0  0  0  0  0  0  0  0  0  0
  140.4395   74.9733  220.7440 H   0  0  0  0  0  0  0  0  0  0  0  0
  138.6282   75.3993  221.1952 H   0  0  0  0  0  0  0  0  0  0  0  0
  137.7252   78.9206  221.3779 H   0  0  0  0  0  0  0  0  0  0  0  0
  137.5147   77.5350  222.4376 H   0  0  0  0  0  0  0  0  0  0  0  0
  137.6012   79.6820  223.7649 H   0  0  0  0  0  0  0  0  0  0  0  0
  139.0179   78.6517  224.1609 H   0  0  0  0  0  0  0  0  0  0  0  0
  138.9620   81.3215  223.0888 H   0  0  0  0  0  0  0  0  0  0  0  0
  140.3841   80.2845  223.5252 H   0  0  0  0  0  0  0  0  0  0  0  0
  138.9422   80.4784  220.8736 H   0  0  0  0  0  0  0  0  0  0  0  0
  140.6781   80.9080  221.3119 H   0  0  0  0  0  0  0  0  0  0  0  0
  140.0855   78.7227  219.9836 H   0  0  0  0  0  0  0  0  0  0  0  0
  141.9966   77.7290  220.6824 H   0  0  0  0  0  0  0  0  0  0  0  0
  142.1178   79.5541  220.3820 H   0  0  0  0  0  0  0  0  0  0  0  0
  142.5930   78.1010  222.7290 H   0  0  0  0  0  0  0  0  0  0  0  0
  139.0852   70.7773  221.8394 H   0  0  0  0  0  0  0  0  0  0  0  0
  138.6366   68.8305  223.3084 H   0  0  0  0  0  0  0  0  0  0  0  0
  138.8664   67.7960  225.3879 H   0  0  0  0  0  0  0  0  0  0  0  0
  139.7395   67.8241  227.7349 H   0  0  0  0  0  0  0  0  0  0  0  0
  141.0227   69.7749  228.5447 H   0  0  0  0  0  0  0  0  0  0  0  0
  141.4733   71.7295  227.0676 H   0  0  0  0  0  0  0  0  0  0  0  0
  1  2  2  0
  2  3  1  0
  3  4  1  0
  4  5  1  0
  5  6  2  0
  5  7  1  0
  7  8  1  0
  8  9  1  0
  9 10  1  0
 10 11  1  0
 11 12  1  0
 12 13  1  0
 13 14  1  0
  2 15  1  0
 15 16  2  0
 16 17  1  0
 17 18  2  0
 18 19  1  0
 19 20  2  0
 20 21  1  0
 21 22  2  0
 22 23  1  0
 23 24  2  0
 12  7  1  0
 24 15  1  0
 23 18  1  0
  3 25  1  0
  4 26  1  0
  4 27  1  0
  8 28  1  0
  8 29  1  0
  9 30  1  0
  9 31  1  0
 10 32  1  0
 10 33  1  0
 11 34  1  0
 11 35  1  0
 12 36  1  6
 13 37  1  0
 13 38  1  0
 14 39  1  0
 16 40  1  0
 17 41  1  0
 19 42  1  0
 20 43  1  0
 21 44  1  0
 22 45  1  0
M  END
>  <smiles>  (16) 
O=C(NCC(=O)N1CCCC[C@H]1CO)c1ccc2ccccc2n1

>  <score_type>  (16) 
oracle

>  <origin>  (16) 
autodockgpu

>  <m_score__min__energy>  (16) 
-7.9000000000000004

>  <m_primary>  (16) 
energy

>  <rmsd>  (16) 
3.282487103580882

>  <m_score__min__rmsd>  (16) 
3.282487103580882

>  <meeko>  (16) 
{"free_energy": -6.54, "intermolecular_energy": -8.33, "internal_energy": -1.54, "cluster_size": 14, "cluster_id": 2, "rank_in_cluster": 8}

>  <energy>  (16) 
-6.97

>  <cluster_rmsd>  (16) 
0.98

>  <cluster>  (16) 
1

$$$$

     RDKit          3D

 45 47  0  0  0  0  0  0  0  0999 V2000
  139.9610   73.5370  222.3900 O   0  0  0  0  0  0  0  0  0  0  0  0
  140.5830   72.4560  222.5710 C   0  0  0  0  0  0  0  0  0  0  0  0
  141.5500   72.1100  221.5870 N   0  0  0  0  0  0  0  0  0  0  0  0
  141.8830   72.8560  220.4320 C   0  0  0  0  0  0  0  0  0  0  0  0
  143.0410   72.6060  219.6140 C   0  0  0  0  0  0  0  0  0  0  0  0
  143.4860   73.7360  219.0650 O   0  0  0  0  0  0  0  0  0  0  0  0
  143.7910   71.4990  219.2610 N   0  0  0  0  0  0  0  0  0  0  0  0
  143.3540   70.3700  218.4270 C   0  0  0  0  0  0  0  0  0  0  0  0
  144.0790   70.5890  217.1010 C   0  0  0  0  0  0  0  0  0  0  0  0
  145.5710   70.5970  217.3410 C   0  0  0  0  0  0  0  0  0  0  0  0
  145.9050   70.4310  218.8050 C   0  0  0  0  0  0  0  0  0  0  0  0
  145.1700   71.3350  219.7290 C   0  0  1  0  0  0  0  0  0  0  0  0
  145.9180   72.5440  220.0920 C   0  0  0  0  0  0  0  0  0  0  0  0
  146.2770   73.3920  219.0540 O   0  0  0  0  0  0  0  0  0  0  0  0
  140.3210   71.6110  223.7230 C   0  0  0  0  0  0  0  0  0  0  0  0
  139.6100   70.4460  223.5440 C   0  0  0  0  0  0  0  0  0  0  0  0
  139.3090   69.5750  224.5700 C   0  0  0  0  0  0  0  0  0  0  0  0
  139.7600   69.9230  225.8320 C   0  0  0  0  0  0  0  0  0  0  0  0
  139.4550   69.0500  226.8550 C   0  0  0  0  0  0  0  0  0  0  0  0
  139.8920   69.3720  228.1260 C   0  0  0  0  0  0  0  0  0  0  0  0
  140.6100   70.5390  228.3330 C   0  0  0  0  0  0  0  0  0  0  0  0
  140.9100   71.4120  227.2910 C   0  0  0  0  0  0  0  0  0  0  0  0
  140.4740   71.0910  226.0200 C   0  0  0  0  0  0  0  0  0  0  0  0
  140.7320   71.8950  224.9700 N   0  0  0  0  0  0  0  0  0  0  0  0
  142.0590   71.1980  221.7630 H   0  0  0  0  0  0  0  0  0  0  0  0
  141.0179   72.7638  219.7588 H   0  0  0  0  0  0  0  0  0  0  0  0
  142.1512   73.8239  220.8806 H   0  0  0  0  0  0  0  0  0  0  0  0
  143.6485   69.4119  218.8802 H   0  0  0  0  0  0  0  0  0  0  0  0
  142.2610   70.3275  218.3103 H   0  0  0  0  0  0  0  0  0  0  0  0
  143.8235   69.7769  216.4044 H   0  0  0  0  0  0  0  0  0  0  0  0
  143.7709   71.5522  216.6681 H   0  0  0  0  0  0  0  0  0  0  0  0
  146.0269   69.7707  216.7759 H   0  0  0  0  0  0  0  0  0  0  0  0
  145.9654   71.5685  217.0085 H   0  0  0  0  0  0  0  0  0  0  0  0
  145.6764   69.3936  219.0906 H   0  0  0  0  0  0  0  0  0  0  0  0
  146.9691   70.6907  218.9065 H   0  0  0  0  0  0  0  0  0  0  0  0
  145.0799   70.8662  220.7200 H   0  0  0  0  0  0  0  0  0  0  0  0
  145.2980   73.1209  220.7939 H   0  0  0  0  0  0  0  0  0  0  0  0
  146.8687   72.1803  220.5090 H   0  0  0  0  0  0  0  0  0  0  0  0
  145.6290   74.1070  218.8890 H   0  0  0  0  0  0  0  0  0  0  0  0
  139.2640   70.1968  222.5300 H   0  0  0  0  0  0  0  0  0  0  0  0
  138.7394   68.6505  224.3946 H   0  0  0  0  0  0  0  0  0  0  0  0
  138.8837   68.1292  226.6659 H   0  0  0  0  0  0  0  0  0  0  0  0
  139.6704   68.7036  228.9711 H   0  0  0  0  0  0  0  0  0  0  0  0
  140.9526   70.7824  229.3495 H   0  0  0  0  0  0  0  0  0  0  0  0
  141.4801   72.3346  227.4751 H   0  0  0  0  0  0  0  0  0  0  0  0
  1  2  2  0
  2  3  1  0
  3  4  1  0
  4  5  1  0
  5  6  2  0
  5  7  1  0
  7  8  1  0
  8  9  1  0
  9 10  1  0
 10 11  1  0
 11 12  1  0
 12 13  1  0
 13 14  1  0
  2 15  1  0
 15 16  2  0
 16 17  1  0
 17 18  2  0
 18 19  1  0
 19 20  2  0
 20 21  1  0
 21 22  2  0
 22 23  1  0
 23 24  2  0
 12  7  1  0
 24 15  1  0
 23 18  1  0
  3 25  1  0
  4 26  1  0
  4 27  1  0
  8 28  1  0
  8 29  1  0
  9 30  1  0
  9 31  1  0
 10 32  1  0
 10 33  1  0
 11 34  1  0
 11 35  1  0
 12 36  1  1
 13 37  1  0
 13 38  1  0
 14 39  1  0
 16 40  1  0
 17 41  1  0
 19 42  1  0
 20 43  1  0
 21 44  1  0
 22 45  1  0
M  END
>  <smiles>  (17) 
O=C(NCC(=O)N1CCCC[C@H]1CO)c1ccc2ccccc2n1

>  <score_type>  (17) 
oracle

>  <origin>  (17) 
autodockgpu

>  <m_score__min__energy>  (17) 
-7.9000000000000004

>  <m_primary>  (17) 
energy

>  <rmsd>  (17) 
4.521281782499008

>  <m_score__min__rmsd>  (17) 
4.521281782499008

>  <meeko>  (17) 
{"free_energy": -6.73, "intermolecular_energy": -8.52, "internal_energy": -1.54, "cluster_size": 4, "cluster_id": 3, "rank_in_cluster": 1}

>  <energy>  (17) 
-6.87

>  <cluster_rmsd>  (17) 
1.75

>  <cluster>  (17) 
1

$$$$

     RDKit          3D

 45 47  0  0  0  0  0  0  0  0999 V2000
  139.9460   74.6120  222.0400 O   0  0  0  0  0  0  0  0  0  0  0  0
  140.3010   75.6240  221.3780 C   0  0  0  0  0  0  0  0  0  0  0  0
  140.6570   75.4000  220.0200 N   0  0  0  0  0  0  0  0  0  0  0  0
  140.6510   74.1600  219.3400 C   0  0  0  0  0  0  0  0  0  0  0  0
  141.6530   73.1400  219.5100 C   0  0  0  0  0  0  0  0  0  0  0  0
  141.3210   72.0350  218.8420 O   0  0  0  0  0  0  0  0  0  0  0  0
  142.8530   73.0250  220.1870 N   0  0  0  0  0  0  0  0  0  0  0  0
  143.4210   71.7990  220.7670 C   0  0  0  0  0  0  0  0  0  0  0  0
  144.5640   71.4400  219.8190 C   0  0  0  0  0  0  0  0  0  0  0  0
  145.5540   72.5800  219.7720 C   0  0  0  0  0  0  0  0  0  0  0  0
  145.1120   73.7430  220.6290 C   0  0  0  0  0  0  0  0  0  0  0  0
  143.7100   74.1910  220.4170 C   0  0  1  0  0  0  0  0  0  0  0  0
  143.5870   75.3240  219.4930 C   0  0  0  0  0  0  0  0  0  0  0  0
  143.0400   76.4920  220.0050 O   0  0  0  0  0  0  0  0  0  0  0  0
  140.3440   76.9470  221.9770 C   0  0  0  0  0  0  0  0  0  0  0  0
  139.1750   77.5020  222.4450 C   0  0  0  0  0  0  0  0  0  0  0  0
  139.1070   78.7500  223.0290 C   0  0  0  0  0  0  0  0  0  0  0  0
  140.2960   79.4510  223.1340 C   0  0  0  0  0  0  0  0  0  0  0  0
  140.2230   80.6980  223.7180 C   0  0  0  0  0  0  0  0  0  0  0  0
  141.3960   81.4220  223.8370 C   0  0  0  0  0  0  0  0  0  0  0  0
  142.5870   80.8850  223.3740 C   0  0  0  0  0  0  0  0  0  0  0  0
  142.6450   79.6240  222.7850 C   0  0  0  0  0  0  0  0  0  0  0  0
  141.4740   78.9000  222.6670 C   0  0  0  0  0  0  0  0  0  0  0  0
  141.4650   77.6750  222.1070 N   0  0  0  0  0  0  0  0  0  0  0  0
  140.9510   76.2680  219.4870 H   0  0  0  0  0  0  0  0  0  0  0  0
  139.6942   73.6832  219.5994 H   0  0  0  0  0  0  0  0  0  0  0  0
  140.8602   74.4868  218.3107 H   0  0  0  0  0  0  0  0  0  0  0  0
  143.7990   71.9853  221.7831 H   0  0  0  0  0  0  0  0  0  0  0  0
  142.6798   70.9919  220.8629 H   0  0  0  0  0  0  0  0  0  0  0  0
  145.0679   70.5310  220.1794 H   0  0  0  0  0  0  0  0  0  0  0  0
  144.1624   71.2605  218.8108 H   0  0  0  0  0  0  0  0  0  0  0  0
  146.5283   72.2206  220.1347 H   0  0  0  0  0  0  0  0  0  0  0  0
  145.6238   72.9294  218.7313 H   0  0  0  0  0  0  0  0  0  0  0  0
  145.2190   73.4483  221.6834 H   0  0  0  0  0  0  0  0  0  0  0  0
  145.7497   74.5922  220.3422 H   0  0  0  0  0  0  0  0  0  0  0  0
  143.3194   74.6540  221.3352 H   0  0  0  0  0  0  0  0  0  0  0  0
  144.5951   75.5628  219.1231 H   0  0  0  0  0  0  0  0  0  0  0  0
  142.8797   74.9895  218.7198 H   0  0  0  0  0  0  0  0  0  0  0  0
  142.7920   76.4290  220.9500 H   0  0  0  0  0  0  0  0  0  0  0  0
  138.2464   76.9203  222.3484 H   0  0  0  0  0  0  0  0  0  0  0  0
  138.1562   79.1669  223.3927 H   0  0  0  0  0  0  0  0  0  0  0  0
  139.2653   81.1031  224.0768 H   0  0  0  0  0  0  0  0  0  0  0  0
  141.3834   82.4208  224.2977 H   0  0  0  0  0  0  0  0  0  0  0  0
  143.5124   81.4711  223.4745 H   0  0  0  0  0  0  0  0  0  0  0  0
  143.5996   79.2146  222.4227 H   0  0  0  0  0  0  0  0  0  0  0  0
  1  2  2  0
  2  3  1  0
  3  4  1  0
  4  5  1  0
  5  6  2  0
  5  7  1  0
  7  8  1  0
  8  9  1  0
  9 10  1  0
 10 11  1  0
 11 12  1  0
 12 13  1  0
 13 14  1  0
  2 15  1  0
 15 16  2  0
 16 17  1  0
 17 18  2  0
 18 19  1  0
 19 20  2  0
 20 21  1  0
 21 22  2  0
 22 23  1  0
 23 24  2  0
 12  7  1  0
 24 15  1  0
 23 18  1  0
  3 25  1  0
  4 26  1  0
  4 27  1  0
  8 28  1  0
  8 29  1  0
  9 30  1  0
  9 31  1  0
 10 32  1  0
 10 33  1  0
 11 34  1  0
 11 35  1  0
 12 36  1  1
 13 37  1  0
 13 38  1  0
 14 39  1  0
 16 40  1  0
 17 41  1  0
 19 42  1  0
 20 43  1  0
 21 44  1  0
 22 45  1  0
M  END
>  <smiles>  (18) 
O=C(NCC(=O)N1CCCC[C@H]1CO)c1ccc2ccccc2n1

>  <score_type>  (18) 
oracle

>  <origin>  (18) 
autodockgpu

>  <m_score__min__energy>  (18) 
-7.9000000000000004

>  <m_primary>  (18) 
energy

>  <rmsd>  (18) 
7.572251871437091

>  <m_score__min__rmsd>  (18) 
7.572251871437091

>  <meeko>  (18) 
{"free_energy": -6.19, "intermolecular_energy": -7.98, "internal_energy": -2.47, "cluster_size": 4, "cluster_id": 6, "rank_in_cluster": 2}

>  <energy>  (18) 
-6.84

>  <cluster_rmsd>  (18) 
1.8

>  <cluster>  (18) 
1

$$$$

     RDKit          3D

 45 47  0  0  0  0  0  0  0  0999 V2000
  141.4850   71.7500  221.2790 O   0  0  0  0  0  0  0  0  0  0  0  0
  140.8220   72.6580  221.8510 C   0  0  0  0  0  0  0  0  0  0  0  0
  139.8610   72.2320  222.8090 N   0  0  0  0  0  0  0  0  0  0  0  0
  139.5780   70.8990  223.1840 C   0  0  0  0  0  0  0  0  0  0  0  0
  139.4730   70.4470  224.5480 C   0  0  0  0  0  0  0  0  0  0  0  0
  138.2020   70.2090  224.8720 O   0  0  0  0  0  0  0  0  0  0  0  0
  140.3520   70.2080  225.5880 N   0  0  0  0  0  0  0  0  0  0  0  0
  141.1610   71.2060  226.3030 C   0  0  0  0  0  0  0  0  0  0  0  0
  140.4690   71.3380  227.6580 C   0  0  0  0  0  0  0  0  0  0  0  0
  140.4530   69.9930  228.3470 C   0  0  0  0  0  0  0  0  0  0  0  0
  141.0790   68.9180  227.4910 C   0  0  0  0  0  0  0  0  0  0  0  0
  140.5820   68.8510  226.0920 C   0  0  1  0  0  0  0  0  0  0  0  0
  139.5220   67.8570  225.8880 C   0  0  0  0  0  0  0  0  0  0  0  0
  139.2050   67.5400  224.5750 O   0  0  0  0  0  0  0  0  0  0  0  0
  141.0320   74.0620  221.5420 C   0  0  0  0  0  0  0  0  0  0  0  0
  141.9640   74.3990  220.5870 C   0  0  0  0  0  0  0  0  0  0  0  0
  142.2390   75.7000  220.2200 C   0  0  0  0  0  0  0  0  0  0  0  0
  141.5210   76.6920  220.8680 C   0  0  0  0  0  0  0  0  0  0  0  0
  141.8000   77.9910  220.4980 C   0  0  0  0  0  0  0  0  0  0  0  0
  141.0980   79.0030  221.1270 C   0  0  0  0  0  0  0  0  0  0  0  0
  140.1540   78.6890  222.0930 C   0  0  0  0  0  0  0  0  0  0  0  0
  139.8830   77.3720  222.4560 C   0  0  0  0  0  0  0  0  0  0  0  0
  140.5840   76.3610  221.8270 C   0  0  0  0  0  0  0  0  0  0  0  0
  140.3670   75.0670  222.1340 N   0  0  0  0  0  0  0  0  0  0  0  0
  139.3190   73.0150  223.2750 H   0  0  0  0  0  0  0  0  0  0  0  0
  138.6127   70.6569  222.7154 H   0  0  0  0  0  0  0  0  0  0  0  0
  140.5032   70.3942  222.8690 H   0  0  0  0  0  0  0  0  0  0  0  0
  142.1965   70.8556  226.4250 H   0  0  0  0  0  0  0  0  0  0  0  0
  141.2261   72.1633  225.7651 H   0  0  0  0  0  0  0  0  0  0  0  0
  141.0152   72.0624  228.2800 H   0  0  0  0  0  0  0  0  0  0  0  0
  139.4364   71.6875  227.5106 H   0  0  0  0  0  0  0  0  0  0  0  0
  141.0141   70.0692  229.2901 H   0  0  0  0  0  0  0  0  0  0  0  0
  139.4048   69.7158  228.5324 H   0  0  0  0  0  0  0  0  0  0  0  0
  142.1636   69.0983  227.4581 H   0  0  0  0  0  0  0  0  0  0  0  0
  140.8056   67.9600  227.9573 H   0  0  0  0  0  0  0  0  0  0  0  0
  141.3602   68.4318  225.4372 H   0  0  0  0  0  0  0  0  0  0  0  0
  139.8358   66.9287  226.3878 H   0  0  0  0  0  0  0  0  0  0  0  0
  138.6123   68.3181  226.3001 H   0  0  0  0  0  0  0  0  0  0  0  0
  138.6990   68.2390  224.1130 H   0  0  0  0  0  0  0  0  0  0  0  0
  142.5184   73.5889  220.0906 H   0  0  0  0  0  0  0  0  0  0  0  0
  142.9899   75.9377  219.4521 H   0  0  0  0  0  0  0  0  0  0  0  0
  142.5546   78.2143  219.7294 H   0  0  0  0  0  0  0  0  0  0  0  0
  141.2879   80.0536  220.8619 H   0  0  0  0  0  0  0  0  0  0  0  0
  139.6035   79.5034  222.5867 H   0  0  0  0  0  0  0  0  0  0  0  0
  139.1298   77.1425  223.2241 H   0  0  0  0  0  0  0  0  0  0  0  0
  1  2  2  0
  2  3  1  0
  3  4  1  0
  4  5  1  0
  5  6  2  0
  5  7  1  0
  7  8  1  0
  8  9  1  0
  9 10  1  0
 10 11  1  0
 11 12  1  0
 12 13  1  0
 13 14  1  0
  2 15  1  0
 15 16  2  0
 16 17  1  0
 17 18  2  0
 18 19  1  0
 19 20  2  0
 20 21  1  0
 21 22  2  0
 22 23  1  0
 23 24  2  0
 12  7  1  0
 24 15  1  0
 23 18  1  0
  3 25  1  0
  4 26  1  0
  4 27  1  0
  8 28  1  0
  8 29  1  0
  9 30  1  0
  9 31  1  0
 10 32  1  0
 10 33  1  0
 11 34  1  0
 11 35  1  0
 12 36  1  6
 13 37  1  0
 13 38  1  0
 14 39  1  0
 16 40  1  0
 17 41  1  0
 19 42  1  0
 20 43  1  0
 21 44  1  0
 22 45  1  0
M  END
>  <smiles>  (19) 
O=C(NCC(=O)N1CCCC[C@H]1CO)c1ccc2ccccc2n1

>  <score_type>  (19) 
oracle

>  <origin>  (19) 
autodockgpu

>  <m_score__min__energy>  (19) 
-7.9000000000000004

>  <m_primary>  (19) 
energy

>  <rmsd>  (19) 
8.748891593526064

>  <m_score__min__rmsd>  (19) 
8.748891593526064

>  <meeko>  (19) 
{"free_energy": -7.4, "intermolecular_energy": -9.19, "internal_energy": -1.75, "cluster_size": 20, "cluster_id": 1, "rank_in_cluster": 5}

>  <energy>  (19) 
-6.83

>  <cluster_rmsd>  (19) 
0.84

>  <cluster>  (19) 
1

$$$$

     RDKit          3D

 45 47  0  0  0  0  0  0  0  0999 V2000
  140.7230   70.9890  221.6730 O   0  0  0  0  0  0  0  0  0  0  0  0
  140.2170   72.0490  222.1310 C   0  0  0  0  0  0  0  0  0  0  0  0
  139.1580   71.8910  223.0670 N   0  0  0  0  0  0  0  0  0  0  0  0
  138.6180   70.6700  223.5330 C   0  0  0  0  0  0  0  0  0  0  0  0
  138.8730   70.1200  224.8390 C   0  0  0  0  0  0  0  0  0  0  0  0
  137.7760   69.5450  225.3330 O   0  0  0  0  0  0  0  0  0  0  0  0
  139.9560   70.0470  225.6950 N   0  0  0  0  0  0  0  0  0  0  0  0
  140.5290   71.1470  226.4850 C   0  0  0  0  0  0  0  0  0  0  0  0
  140.0890   70.8410  227.9150 C   0  0  0  0  0  0  0  0  0  0  0  0
  140.6200   69.4870  228.3250 C   0  0  0  0  0  0  0  0  0  0  0  0
  141.3840   68.8220  227.2040 C   0  0  0  0  0  0  0  0  0  0  0  0
  140.6860   68.7920  225.8920 C   0  0  1  0  0  0  0  0  0  0  0  0
  139.9720   67.5370  225.6320 C   0  0  0  0  0  0  0  0  0  0  0  0
  138.8170   67.3100  226.3670 O   0  0  0  0  0  0  0  0  0  0  0  0
  140.6940   73.3590  221.7210 C   0  0  0  0  0  0  0  0  0  0  0  0
  141.7040   73.4350  220.7890 C   0  0  0  0  0  0  0  0  0  0  0  0
  142.2280   74.6270  220.3340 C   0  0  0  0  0  0  0  0  0  0  0  0
  141.6850   75.7860  220.8630 C   0  0  0  0  0  0  0  0  0  0  0  0
  142.2120   76.9750  220.4040 C   0  0  0  0  0  0  0  0  0  0  0  0
  141.6900   78.1480  220.9150 C   0  0  0  0  0  0  0  0  0  0  0  0
  140.6720   78.0980  221.8540 C   0  0  0  0  0  0  0  0  0  0  0  0
  140.1500   76.8900  222.3090 C   0  0  0  0  0  0  0  0  0  0  0  0
  140.6710   75.7170  221.7980 C   0  0  0  0  0  0  0  0  0  0  0  0
  140.2080   74.5160  222.1970 N   0  0  0  0  0  0  0  0  0  0  0  0
  138.7510   72.7970  223.4360 H   0  0  0  0  0  0  0  0  0  0  0  0
  137.5259   70.7828  223.4658 H   0  0  0  0  0  0  0  0  0  0  0  0
  139.1529   69.9499  222.8964 H   0  0  0  0  0  0  0  0  0  0  0  0
  141.6262   71.1549  226.4064 H   0  0  0  0  0  0  0  0  0  0  0  0
  140.1931   72.1362  226.1405 H   0  0  0  0  0  0  0  0  0  0  0  0
  140.4848   71.6111  228.5934 H   0  0  0  0  0  0  0  0  0  0  0  0
  138.9903   70.8361  227.9681 H   0  0  0  0  0  0  0  0  0  0  0  0
  141.2911   69.6137  229.1873 H   0  0  0  0  0  0  0  0  0  0  0  0
  139.7632   68.8469  228.5821 H   0  0  0  0  0  0  0  0  0  0  0  0
  142.3331   69.3621  227.0720 H   0  0  0  0  0  0  0  0  0  0  0  0
  141.5136   67.7718  227.5044 H   0  0  0  0  0  0  0  0  0  0  0  0
  141.4227   68.7615  225.0757 H   0  0  0  0  0  0  0  0  0  0  0  0
  139.6964   67.5255  224.5672 H   0  0  0  0  0  0  0  0  0  0  0  0
  140.6680   66.7416  225.9369 H   0  0  0  0  0  0  0  0  0  0  0  0
  138.1670   68.0420  226.3140 H   0  0  0  0  0  0  0  0  0  0  0  0
  142.1143   72.4971  220.3864 H   0  0  0  0  0  0  0  0  0  0  0  0
  143.0364   74.6556  219.5886 H   0  0  0  0  0  0  0  0  0  0  0  0
  143.0196   76.9891  219.6573 H   0  0  0  0  0  0  0  0  0  0  0  0
  142.0815   79.1189  220.5773 H   0  0  0  0  0  0  0  0  0  0  0  0
  140.2647   79.0395  222.2512 H   0  0  0  0  0  0  0  0  0  0  0  0
  139.3432   76.8702  223.0564 H   0  0  0  0  0  0  0  0  0  0  0  0
  1  2  2  0
  2  3  1  0
  3  4  1  0
  4  5  1  0
  5  6  2  0
  5  7  1  0
  7  8  1  0
  8  9  1  0
  9 10  1  0
 10 11  1  0
 11 12  1  0
 12 13  1  0
 13 14  1  0
  2 15  1  0
 15 16  2  0
 16 17  1  0
 17 18  2  0
 18 19  1  0
 19 20  2  0
 20 21  1  0
 21 22  2  0
 22 23  1  0
 23 24  2  0
 12  7  1  0
 24 15  1  0
 23 18  1  0
  3 25  1  0
  4 26  1  0
  4 27  1  0
  8 28  1  0
  8 29  1  0
  9 30  1  0
  9 31  1  0
 10 32  1  0
 10 33  1  0
 11 34  1  0
 11 35  1  0
 12 36  1  6
 13 37  1  0
 13 38  1  0
 14 39  1  0
 16 40  1  0
 17 41  1  0
 19 42  1  0
 20 43  1  0
 21 44  1  0
 22 45  1  0
M  END
>  <smiles>  (20) 
O=C(NCC(=O)N1CCCC[C@H]1CO)c1ccc2ccccc2n1

>  <score_type>  (20) 
oracle

>  <origin>  (20) 
autodockgpu

>  <m_score__min__energy>  (20) 
-7.9000000000000004

>  <m_primary>  (20) 
energy

>  <rmsd>  (20) 
8.50916292953361

>  <m_score__min__rmsd>  (20) 
8.50916292953361

>  <meeko>  (20) 
{"free_energy": -6.83, "intermolecular_energy": -8.62, "internal_energy": -1.95, "cluster_size": 20, "cluster_id": 1, "rank_in_cluster": 19}

>  <energy>  (20) 
-6.35

>  <cluster_rmsd>  (20) 
1.35

>  <cluster>  (20) 
1

$$$$

     RDKit          3D

 45 47  0  0  0  0  0  0  0  0999 V2000
  141.5380   72.0770  221.1240 O   0  0  0  0  0  0  0  0  0  0  0  0
  140.9600   72.9550  221.8210 C   0  0  0  0  0  0  0  0  0  0  0  0
  140.1550   72.4840  222.8940 N   0  0  0  0  0  0  0  0  0  0  0  0
  139.9380   71.1350  223.2570 C   0  0  0  0  0  0  0  0  0  0  0  0
  139.6820   70.6910  224.6030 C   0  0  0  0  0  0  0  0  0  0  0  0
  138.3710   70.6410  224.8430 O   0  0  0  0  0  0  0  0  0  0  0  0
  140.4480   70.3150  225.6910 N   0  0  0  0  0  0  0  0  0  0  0  0
  141.0810   71.2080  226.6710 C   0  0  0  0  0  0  0  0  0  0  0  0
  140.2250   71.0440  227.9250 C   0  0  0  0  0  0  0  0  0  0  0  0
  140.2390   69.5960  228.3570 C   0  0  0  0  0  0  0  0  0  0  0  0
  141.0480   68.7380  227.4130 C   0  0  0  0  0  0  0  0  0  0  0  0
  140.7280   68.9040  225.9710 C   0  0  1  0  0  0  0  0  0  0  0  0
  139.7850   67.9040  225.4570 C   0  0  0  0  0  0  0  0  0  0  0  0
  138.4410   68.1100  225.7340 O   0  0  0  0  0  0  0  0  0  0  0  0
  141.1130   74.3720  221.5360 C   0  0  0  0  0  0  0  0  0  0  0  0
  141.9280   74.7560  220.4960 C   0  0  0  0  0  0  0  0  0  0  0  0
  142.1400   76.0720  220.1440 C   0  0  0  0  0  0  0  0  0  0  0  0
  141.4830   77.0300  220.8980 C   0  0  0  0  0  0  0  0  0  0  0  0
  141.6990   78.3450  220.5430 C   0  0  0  0  0  0  0  0  0  0  0  0
  141.0560   79.3230  221.2790 C   0  0  0  0  0  0  0  0  0  0  0  0
  140.2300   78.9630  222.3320 C   0  0  0  0  0  0  0  0  0  0  0  0
  140.0220   77.6300  222.6800 C   0  0  0  0  0  0  0  0  0  0  0  0
  140.6640   76.6520  221.9450 C   0  0  0  0  0  0  0  0  0  0  0  0
  140.5030   75.3460  222.2320 N   0  0  0  0  0  0  0  0  0  0  0  0
  139.6820   73.2430  223.4620 H   0  0  0  0  0  0  0  0  0  0  0  0
  139.0725   70.8032  222.6647 H   0  0  0  0  0  0  0  0  0  0  0  0
  140.9381   70.7105  223.0852 H   0  0  0  0  0  0  0  0  0  0  0  0
  142.1202   70.9033  226.8640 H   0  0  0  0  0  0  0  0  0  0  0  0
  141.1300   72.2509  226.3246 H   0  0  0  0  0  0  0  0  0  0  0  0
  140.6319   71.6715  228.7317 H   0  0  0  0  0  0  0  0  0  0  0  0
  139.1918   71.3523  227.7073 H   0  0  0  0  0  0  0  0  0  0  0  0
  140.6772   69.5288  229.3637 H   0  0  0  0  0  0  0  0  0  0  0  0
  139.2027   69.2272  228.3521 H   0  0  0  0  0  0  0  0  0  0  0  0
  142.1105   68.9845  227.5558 H   0  0  0  0  0  0  0  0  0  0  0  0
  140.8000   67.6955  227.6614 H   0  0  0  0  0  0  0  0  0  0  0  0
  141.6098   68.6621  225.3595 H   0  0  0  0  0  0  0  0  0  0  0  0
  139.8980   67.8714  224.3633 H   0  0  0  0  0  0  0  0  0  0  0  0
  140.0456   66.9697  225.9758 H   0  0  0  0  0  0  0  0  0  0  0  0
  138.1500   69.0370  225.6050 H   0  0  0  0  0  0  0  0  0  0  0  0
  142.4367   73.9724  219.9154 H   0  0  0  0  0  0  0  0  0  0  0  0
  142.7979   76.3472  219.3064 H   0  0  0  0  0  0  0  0  0  0  0  0
  142.3599   78.6067  219.7035 H   0  0  0  0  0  0  0  0  0  0  0  0
  141.1997   80.3846  221.0293 H   0  0  0  0  0  0  0  0  0  0  0  0
  139.7246   79.7515  222.9090 H   0  0  0  0  0  0  0  0  0  0  0  0
  139.3629   77.3628  223.5192 H   0  0  0  0  0  0  0  0  0  0  0  0
  1  2  2  0
  2  3  1  0
  3  4  1  0
  4  5  1  0
  5  6  2  0
  5  7  1  0
  7  8  1  0
  8  9  1  0
  9 10  1  0
 10 11  1  0
 11 12  1  0
 12 13  1  0
 13 14  1  0
  2 15  1  0
 15 16  2  0
 16 17  1  0
 17 18  2  0
 18 19  1  0
 19 20  2  0
 20 21  1  0
 21 22  2  0
 22 23  1  0
 23 24  2  0
 12  7  1  0
 24 15  1  0
 23 18  1  0
  3 25  1  0
  4 26  1  0
  4 27  1  0
  8 28  1  0
  8 29  1  0
  9 30  1  0
  9 31  1  0
 10 32  1  0
 10 33  1  0
 11 34  1  0
 11 35  1  0
 12 36  1  6
 13 37  1  0
 13 38  1  0
 14 39  1  0
 16 40  1  0
 17 41  1  0
 19 42  1  0
 20 43  1  0
 21 44  1  0
 22 45  1  0
M  END
>  <smiles>  (21) 
O=C(NCC(=O)N1CCCC[C@H]1CO)c1ccc2ccccc2n1

>  <score_type>  (21) 
oracle

>  <origin>  (21) 
autodockgpu

>  <m_score__min__energy>  (21) 
-7.9000000000000004

>  <m_primary>  (21) 
energy

>  <rmsd>  (21) 
8.827932449256624

>  <m_score__min__rmsd>  (21) 
8.827932449256624

>  <meeko>  (21) 
{"free_energy": -6.97, "intermolecular_energy": -8.76, "internal_energy": -1.87, "cluster_size": 20, "cluster_id": 1, "rank_in_cluster": 16}

>  <energy>  (21) 
-7.03

>  <cluster_rmsd>  (21) 
0.0

>  <cluster>  (21) 
2

$$$$

     RDKit          3D

 45 47  0  0  0  0  0  0  0  0999 V2000
  140.7130   72.4650  221.8730 O   0  0  0  0  0  0  0  0  0  0  0  0
  139.7430   72.2850  222.6570 C   0  0  0  0  0  0  0  0  0  0  0  0
  138.5260   72.9400  222.3200 N   0  0  0  0  0  0  0  0  0  0  0  0
  138.2980   73.7690  221.1970 C   0  0  0  0  0  0  0  0  0  0  0  0
  138.9310   75.0470  220.9930 C   0  0  0  0  0  0  0  0  0  0  0  0
  138.3160   75.7300  220.0270 O   0  0  0  0  0  0  0  0  0  0  0  0
  140.0030   75.7260  221.5410 N   0  0  0  0  0  0  0  0  0  0  0  0
  141.4220   75.5540  221.1950 C   0  0  0  0  0  0  0  0  0  0  0  0
  141.7580   76.8060  220.3880 C   0  0  0  0  0  0  0  0  0  0  0  0
  141.5060   78.0320  221.2360 C   0  0  0  0  0  0  0  0  0  0  0  0
  140.9630   77.6690  222.5970 C   0  0  0  0  0  0  0  0  0  0  0  0
  139.8110   76.7290  222.5920 C   0  0  1  0  0  0  0  0  0  0  0  0
  138.5050   77.3930  222.6730 C   0  0  0  0  0  0  0  0  0  0  0  0
  138.0600   78.0410  221.5300 O   0  0  0  0  0  0  0  0  0  0  0  0
  139.8660   71.4520  223.8420 C   0  0  0  0  0  0  0  0  0  0  0  0
  139.4020   70.1570  223.7930 C   0  0  0  0  0  0  0  0  0  0  0  0
  139.4710   69.2860  224.8600 C   0  0  0  0  0  0  0  0  0  0  0  0
  140.0420   69.7740  226.0230 C   0  0  0  0  0  0  0  0  0  0  0  0
  140.1090   68.8990  227.0880 C   0  0  0  0  0  0  0  0  0  0  0  0
  140.6740   69.3590  228.2630 C   0  0  0  0  0  0  0  0  0  0  0  0
  141.1490   70.6590  228.3370 C   0  0  0  0  0  0  0  0  0  0  0  0
  141.0750   71.5310  227.2540 C   0  0  0  0  0  0  0  0  0  0  0  0
  140.5100   71.0730  226.0790 C   0  0  0  0  0  0  0  0  0  0  0  0
  140.4100   71.8680  224.9970 N   0  0  0  0  0  0  0  0  0  0  0  0
  137.7270   72.7720  222.9950 H   0  0  0  0  0  0  0  0  0  0  0  0
  138.5651   73.1614  220.3198 H   0  0  0  0  0  0  0  0  0  0  0  0
  137.2579   74.0790  221.3759 H   0  0  0  0  0  0  0  0  0  0  0  0
  142.0416   75.4951  222.1020 H   0  0  0  0  0  0  0  0  0  0  0  0
  141.6128   74.6257  220.6366 H   0  0  0  0  0  0  0  0  0  0  0  0
  142.8163   76.7773  220.0895 H   0  0  0  0  0  0  0  0  0  0  0  0
  141.1255   76.8446  219.4888 H   0  0  0  0  0  0  0  0  0  0  0  0
  142.4527   78.5774  221.3640 H   0  0  0  0  0  0  0  0  0  0  0  0
  140.7578   78.6547  220.7238 H   0  0  0  0  0  0  0  0  0  0  0  0
  141.7765   77.2063  223.1750 H   0  0  0  0  0  0  0  0  0  0  0  0
  140.5887   78.6062  223.0347 H   0  0  0  0  0  0  0  0  0  0  0  0
  139.7885   76.1578  223.5318 H   0  0  0  0  0  0  0  0  0  0  0  0
  137.7586   76.6282  222.9337 H   0  0  0  0  0  0  0  0  0  0  0  0
  138.6326   78.1877  223.4228 H   0  0  0  0  0  0  0  0  0  0  0  0
  138.0440   77.4690  220.7350 H   0  0  0  0  0  0  0  0  0  0  0  0
  138.9532   69.7985  222.8549 H   0  0  0  0  0  0  0  0  0  0  0  0
  139.0916   68.2558  224.7906 H   0  0  0  0  0  0  0  0  0  0  0  0
  139.7261   67.8711  227.0049 H   0  0  0  0  0  0  0  0  0  0  0  0
  140.7464   68.6949  229.1369 H   0  0  0  0  0  0  0  0  0  0  0  0
  141.5970   71.0117  229.2777 H   0  0  0  0  0  0  0  0  0  0  0  0
  141.4570   72.5596  227.3318 H   0  0  0  0  0  0  0  0  0  0  0  0
  1  2  2  0
  2  3  1  0
  3  4  1  0
  4  5  1  0
  5  6  2  0
  5  7  1  0
  7  8  1  0
  8  9  1  0
  9 10  1  0
 10 11  1  0
 11 12  1  0
 12 13  1  0
 13 14  1  0
  2 15  1  0
 15 16  2  0
 16 17  1  0
 17 18  2  0
 18 19  1  0
 19 20  2  0
 20 21  1  0
 21 22  2  0
 22 23  1  0
 23 24  2  0
 12  7  1  0
 24 15  1  0
 23 18  1  0
  3 25  1  0
  4 26  1  0
  4 27  1  0
  8 28  1  0
  8 29  1  0
  9 30  1  0
  9 31  1  0
 10 32  1  0
 10 33  1  0
 11 34  1  0
 11 35  1  0
 12 36  1  1
 13 37  1  0
 13 38  1  0
 14 39  1  0
 16 40  1  0
 17 41  1  0
 19 42  1  0
 20 43  1  0
 21 44  1  0
 22 45  1  0
M  END
>  <smiles>  (22) 
O=C(NCC(=O)N1CCCC[C@H]1CO)c1ccc2ccccc2n1

>  <score_type>  (22) 
oracle

>  <origin>  (22) 
autodockgpu

>  <m_score__min__energy>  (22) 
-7.9000000000000004

>  <m_primary>  (22) 
energy

>  <rmsd>  (22) 
2.6513401885434718

>  <m_score__min__rmsd>  (22) 
2.6513401885434718

>  <meeko>  (22) 
{"free_energy": -6.13, "intermolecular_energy": -7.92, "internal_energy": -1.86, "cluster_size": 14, "cluster_id": 2, "rank_in_cluster": 14}

>  <energy>  (22) 
-6.91

>  <cluster_rmsd>  (22) 
1.12

>  <cluster>  (22) 
2

$$$$

     RDKit          3D

 45 47  0  0  0  0  0  0  0  0999 V2000
  141.3680   72.0660  221.6220 O   0  0  0  0  0  0  0  0  0  0  0  0
  140.5430   72.3950  222.5160 C   0  0  0  0  0  0  0  0  0  0  0  0
  139.8580   73.6270  222.3240 N   0  0  0  0  0  0  0  0  0  0  0  0
  140.0090   74.5150  221.2330 C   0  0  0  0  0  0  0  0  0  0  0  0
  140.8940   75.6510  221.2320 C   0  0  0  0  0  0  0  0  0  0  0  0
  142.1620   75.2620  221.0960 O   0  0  0  0  0  0  0  0  0  0  0  0
  140.7540   77.0220  221.3390 N   0  0  0  0  0  0  0  0  0  0  0  0
  140.1850   77.7620  222.4750 C   0  0  0  0  0  0  0  0  0  0  0  0
  141.4000   78.3930  223.1500 C   0  0  0  0  0  0  0  0  0  0  0  0
  142.1120   79.2910  222.1640 C   0  0  0  0  0  0  0  0  0  0  0  0
  141.4490   79.2690  220.8070 C   0  0  0  0  0  0  0  0  0  0  0  0
  141.1740   77.9160  220.2560 C   0  0  1  0  0  0  0  0  0  0  0  0
  142.2060   77.4330  219.3320 C   0  0  0  0  0  0  0  0  0  0  0  0
  141.8740   76.3490  218.5330 O   0  0  0  0  0  0  0  0  0  0  0  0
  140.3090   71.5580  223.6800 C   0  0  0  0  0  0  0  0  0  0  0  0
  139.6720   70.3490  223.5110 C   0  0  0  0  0  0  0  0  0  0  0  0
  139.4030   69.4820  224.5490 C   0  0  0  0  0  0  0  0  0  0  0  0
  139.8070   69.8810  225.8120 C   0  0  0  0  0  0  0  0  0  0  0  0
  139.5340   69.0100  226.8460 C   0  0  0  0  0  0  0  0  0  0  0  0
  139.9270   69.3820  228.1190 C   0  0  0  0  0  0  0  0  0  0  0  0
  140.5690   70.5940  228.3160 C   0  0  0  0  0  0  0  0  0  0  0  0
  140.8370   71.4640  227.2620 C   0  0  0  0  0  0  0  0  0  0  0  0
  140.4460   71.0930  225.9890 C   0  0  0  0  0  0  0  0  0  0  0  0
  140.6770   71.8900  224.9280 N   0  0  0  0  0  0  0  0  0  0  0  0
  139.1710   73.8790  223.0890 H   0  0  0  0  0  0  0  0  0  0  0  0
  140.3244   73.8915  220.3834 H   0  0  0  0  0  0  0  0  0  0  0  0
  139.0293   75.0151  221.2353 H   0  0  0  0  0  0  0  0  0  0  0  0
  139.4853   78.5360  222.1265 H   0  0  0  0  0  0  0  0  0  0  0  0
  139.6100   77.1168  223.1555 H   0  0  0  0  0  0  0  0  0  0  0  0
  141.0718   78.9864  224.0161 H   0  0  0  0  0  0  0  0  0  0  0  0
  142.0853   77.6015  223.4875 H   0  0  0  0  0  0  0  0  0  0  0  0
  142.1018   80.3214  222.5488 H   0  0  0  0  0  0  0  0  0  0  0  0
  143.1421   78.9232  222.0478 H   0  0  0  0  0  0  0  0  0  0  0  0
  140.4913   79.8040  220.8880 H   0  0  0  0  0  0  0  0  0  0  0  0
  142.1604   79.7410  220.1133 H   0  0  0  0  0  0  0  0  0  0  0  0
  140.3143   77.9574  219.5710 H   0  0  0  0  0  0  0  0  0  0  0  0
  142.4732   78.2671  218.6665 H   0  0  0  0  0  0  0  0  0  0  0  0
  143.0233   77.0757  219.9757 H   0  0  0  0  0  0  0  0  0  0  0  0
  142.0210   75.4820  218.9650 H   0  0  0  0  0  0  0  0  0  0  0  0
  139.3618   70.0600  222.4960 H   0  0  0  0  0  0  0  0  0  0  0  0
  138.8931   68.5217  224.3821 H   0  0  0  0  0  0  0  0  0  0  0  0
  139.0219   68.0535  226.6647 H   0  0  0  0  0  0  0  0  0  0  0  0
  139.7303   68.7172  228.9730 H   0  0  0  0  0  0  0  0  0  0  0  0
  140.8757   70.8771  229.3337 H   0  0  0  0  0  0  0  0  0  0  0  0
  141.3471   72.4225  227.4381 H   0  0  0  0  0  0  0  0  0  0  0  0
  1  2  2  0
  2  3  1  0
  3  4  1  0
  4  5  1  0
  5  6  2  0
  5  7  1  0
  7  8  1  0
  8  9  1  0
  9 10  1  0
 10 11  1  0
 11 12  1  0
 12 13  1  0
 13 14  1  0
  2 15  1  0
 15 16  2  0
 16 17  1  0
 17 18  2  0
 18 19  1  0
 19 20  2  0
 20 21  1  0
 21 22  2  0
 22 23  1  0
 23 24  2  0
 12  7  1  0
 24 15  1  0
 23 18  1  0
  3 25  1  0
  4 26  1  0
  4 27  1  0
  8 28  1  0
  8 29  1  0
  9 30  1  0
  9 31  1  0
 10 32  1  0
 10 33  1  0
 11 34  1  0
 11 35  1  0
 12 36  1  6
 13 37  1  0
 13 38  1  0
 14 39  1  0
 16 40  1  0
 17 41  1  0
 19 42  1  0
 20 43  1  0
 21 44  1  0
 22 45  1  0
M  END
>  <smiles>  (23) 
O=C(NCC(=O)N1CCCC[C@H]1CO)c1ccc2ccccc2n1

>  <score_type>  (23) 
oracle

>  <origin>  (23) 
autodockgpu

>  <m_score__min__energy>  (23) 
-7.9000000000000004

>  <m_primary>  (23) 
energy

>  <rmsd>  (23) 
2.912832283116868

>  <m_score__min__rmsd>  (23) 
2.912832283116868

>  <meeko>  (23) 
{"free_energy": -6.91, "intermolecular_energy": -8.7, "internal_energy": -1.51, "cluster_size": 14, "cluster_id": 2, "rank_in_cluster": 2}

>  <energy>  (23) 
-6.86

>  <cluster_rmsd>  (23) 
1.44

>  <cluster>  (23) 
2

$$$$

     RDKit          3D

 45 47  0  0  0  0  0  0  0  0999 V2000
  139.4990   71.4760  221.3470 O   0  0  0  0  0  0  0  0  0  0  0  0
  140.1100   71.9280  222.3530 C   0  0  0  0  0  0  0  0  0  0  0  0
  140.8350   73.1360  222.1630 N   0  0  0  0  0  0  0  0  0  0  0  0
  140.9390   73.8790  220.9630 C   0  0  0  0  0  0  0  0  0  0  0  0
  141.5950   73.4030  219.7730 C   0  0  0  0  0  0  0  0  0  0  0  0
  140.7080   73.1660  218.8060 O   0  0  0  0  0  0  0  0  0  0  0  0
  142.8970   73.1320  219.3930 N   0  0  0  0  0  0  0  0  0  0  0  0
  143.9220   74.1130  219.0060 C   0  0  0  0  0  0  0  0  0  0  0  0
  144.8700   74.1450  220.2040 C   0  0  0  0  0  0  0  0  0  0  0  0
  145.4370   72.7630  220.4330 C   0  0  0  0  0  0  0  0  0  0  0  0
  144.8780   71.7590  219.4530 C   0  0  0  0  0  0  0  0  0  0  0  0
  143.3970   71.7570  219.3220 C   0  0  1  0  0  0  0  0  0  0  0  0
  142.7320   70.7430  220.1490 C   0  0  0  0  0  0  0  0  0  0  0  0
  141.4280   70.4140  219.8080 O   0  0  0  0  0  0  0  0  0  0  0  0
  140.0720   71.2460  223.6350 C   0  0  0  0  0  0  0  0  0  0  0  0
  139.5070   69.9930  223.7040 C   0  0  0  0  0  0  0  0  0  0  0  0
  139.4210   69.2620  224.8700 C   0  0  0  0  0  0  0  0  0  0  0  0
  139.9390   69.8510  226.0110 C   0  0  0  0  0  0  0  0  0  0  0  0
  139.8500   69.1170  227.1750 C   0  0  0  0  0  0  0  0  0  0  0  0
  140.3600   69.6790  228.3310 C   0  0  0  0  0  0  0  0  0  0  0  0
  140.9340   70.9400  228.2880 C   0  0  0  0  0  0  0  0  0  0  0  0
  141.0160   71.6710  227.1050 C   0  0  0  0  0  0  0  0  0  0  0  0
  140.5070   71.1090  225.9500 C   0  0  0  0  0  0  0  0  0  0  0  0
  140.5580   71.7650  224.7750 N   0  0  0  0  0  0  0  0  0  0  0  0
  141.3380   73.4940  223.0240 H   0  0  0  0  0  0  0  0  0  0  0  0
  139.9053   74.1055  220.6627 H   0  0  0  0  0  0  0  0  0  0  0  0
  141.6263   74.6799  221.2732 H   0  0  0  0  0  0  0  0  0  0  0  0
  144.4504   73.7892  218.0972 H   0  0  0  0  0  0  0  0  0  0  0  0
  143.4978   75.1010  218.7739 H   0  0  0  0  0  0  0  0  0  0  0  0
  145.6905   74.8497  220.0039 H   0  0  0  0  0  0  0  0  0  0  0  0
  144.3194   74.4691  221.0994 H   0  0  0  0  0  0  0  0  0  0  0  0
  146.5302   72.8028  220.3176 H   0  0  0  0  0  0  0  0  0  0  0  0
  145.1585   72.4425  221.4477 H   0  0  0  0  0  0  0  0  0  0  0  0
  145.3066   71.9750  218.4632 H   0  0  0  0  0  0  0  0  0  0  0  0
  145.1505   70.7676  219.8439 H   0  0  0  0  0  0  0  0  0  0  0  0
  143.1088   71.4010  218.3219 H   0  0  0  0  0  0  0  0  0  0  0  0
  143.3324   69.8230  220.0942 H   0  0  0  0  0  0  0  0  0  0  0  0
  142.6631   71.1897  221.1518 H   0  0  0  0  0  0  0  0  0  0  0  0
  140.8450   71.1920  219.6850 H   0  0  0  0  0  0  0  0  0  0  0  0
  139.1030   69.5517  222.7809 H   0  0  0  0  0  0  0  0  0  0  0  0
  138.9641   68.2617  224.8926 H   0  0  0  0  0  0  0  0  0  0  0  0
  139.3890   68.1183  227.1837 H   0  0  0  0  0  0  0  0  0  0  0  0
  140.3104   69.1273  229.2813 H   0  0  0  0  0  0  0  0  0  0  0  0
  141.3362   71.3759  229.2144 H   0  0  0  0  0  0  0  0  0  0  0  0
  141.4746   72.6708  227.0908 H   0  0  0  0  0  0  0  0  0  0  0  0
  1  2  2  0
  2  3  1  0
  3  4  1  0
  4  5  1  0
  5  6  2  0
  5  7  1  0
  7  8  1  0
  8  9  1  0
  9 10  1  0
 10 11  1  0
 11 12  1  0
 12 13  1  0
 13 14  1  0
  2 15  1  0
 15 16  2  0
 16 17  1  0
 17 18  2  0
 18 19  1  0
 19 20  2  0
 20 21  1  0
 21 22  2  0
 22 23  1  0
 23 24  2  0
 12  7  1  0
 24 15  1  0
 23 18  1  0
  3 25  1  0
  4 26  1  0
  4 27  1  0
  8 28  1  0
  8 29  1  0
  9 30  1  0
  9 31  1  0
 10 32  1  0
 10 33  1  0
 11 34  1  0
 11 35  1  0
 12 36  1  6
 13 37  1  0
 13 38  1  0
 14 39  1  0
 16 40  1  0
 17 41  1  0
 19 42  1  0
 20 43  1  0
 21 44  1  0
 22 45  1  0
M  END
>  <smiles>  (24) 
O=C(NCC(=O)N1CCCC[C@H]1CO)c1ccc2ccccc2n1

>  <score_type>  (24) 
oracle

>  <origin>  (24) 
autodockgpu

>  <m_score__min__energy>  (24) 
-7.9000000000000004

>  <m_primary>  (24) 
energy

>  <rmsd>  (24) 
3.8911343743651794

>  <m_score__min__rmsd>  (24) 
3.8911343743651794

>  <meeko>  (24) 
{"free_energy": -5.35, "intermolecular_energy": -7.14, "internal_energy": -2.71, "cluster_size": 4, "cluster_id": 3, "rank_in_cluster": 4}

>  <energy>  (24) 
-6.65

>  <cluster_rmsd>  (24) 
1.22

>  <cluster>  (24) 
2

$$$$

     RDKit          3D

 45 47  0  0  0  0  0  0  0  0999 V2000
  136.6810   69.1410  224.1420 O   0  0  0  0  0  0  0  0  0  0  0  0
  136.3590   70.3110  224.4810 C   0  0  0  0  0  0  0  0  0  0  0  0
  137.3170   71.3310  224.2250 N   0  0  0  0  0  0  0  0  0  0  0  0
  138.5890   71.1630  223.6300 C   0  0  0  0  0  0  0  0  0  0  0  0
  139.6050   70.2740  224.1300 C   0  0  0  0  0  0  0  0  0  0  0  0
  139.8030   69.2600  223.2880 O   0  0  0  0  0  0  0  0  0  0  0  0
  140.4100   70.2120  225.2530 N   0  0  0  0  0  0  0  0  0  0  0  0
  141.3590   71.2360  225.7120 C   0  0  0  0  0  0  0  0  0  0  0  0
  140.6710   71.8580  226.9260 C   0  0  0  0  0  0  0  0  0  0  0  0
  140.4160   70.7880  227.9620 C   0  0  0  0  0  0  0  0  0  0  0  0
  140.8710   69.4280  227.4870 C   0  0  0  0  0  0  0  0  0  0  0  0
  140.3990   69.0390  226.1320 C   0  0  1  0  0  0  0  0  0  0  0  0
  139.1920   68.2050  226.1440 C   0  0  0  0  0  0  0  0  0  0  0  0
  138.9210   67.4790  224.9930 O   0  0  0  0  0  0  0  0  0  0  0  0
  135.0770   70.5980  225.1010 C   0  0  0  0  0  0  0  0  0  0  0  0
  134.1940   69.5620  225.3090 C   0  0  0  0  0  0  0  0  0  0  0  0
  132.9540   69.7270  225.8890 C   0  0  0  0  0  0  0  0  0  0  0  0
  132.6130   71.0140  226.2690 C   0  0  0  0  0  0  0  0  0  0  0  0
  131.3710   71.1740  226.8480 C   0  0  0  0  0  0  0  0  0  0  0  0
  131.0030   72.4490  227.2370 C   0  0  0  0  0  0  0  0  0  0  0  0
  131.8740   73.5090  227.0390 C   0  0  0  0  0  0  0  0  0  0  0  0
  133.1250   73.3320  226.4520 C   0  0  0  0  0  0  0  0  0  0  0  0
  133.4940   72.0590  226.0630 C   0  0  0  0  0  0  0  0  0  0  0  0
  134.6900   71.8240  225.4910 N   0  0  0  0  0  0  0  0  0  0  0  0
  137.0210   72.3050  224.5190 H   0  0  0  0  0  0  0  0  0  0  0  0
  138.3935   70.8398  222.5969 H   0  0  0  0  0  0  0  0  0  0  0  0
  139.0471   72.1405  223.8412 H   0  0  0  0  0  0  0  0  0  0  0  0
  142.3187   70.7803  225.9971 H   0  0  0  0  0  0  0  0  0  0  0  0
  141.5940   71.9759  224.9327 H   0  0  0  0  0  0  0  0  0  0  0  0
  141.3180   72.6374  227.3550 H   0  0  0  0  0  0  0  0  0  0  0  0
  139.7147   72.3053  226.6170 H   0  0  0  0  0  0  0  0  0  0  0  0
  140.9622   71.0452  228.8815 H   0  0  0  0  0  0  0  0  0  0  0  0
  139.3325   70.7413  228.1460 H   0  0  0  0  0  0  0  0  0  0  0  0
  141.9710   69.4210  227.4790 H   0  0  0  0  0  0  0  0  0  0  0  0
  140.4314   68.6991  228.1837 H   0  0  0  0  0  0  0  0  0  0  0  0
  141.1096   68.3345  225.6752 H   0  0  0  0  0  0  0  0  0  0  0  0
  139.2905   67.4891  226.9733 H   0  0  0  0  0  0  0  0  0  0  0  0
  138.3550   68.9120  226.2418 H   0  0  0  0  0  0  0  0  0  0  0  0
  138.5180   68.0120  224.2770 H   0  0  0  0  0  0  0  0  0  0  0  0
  134.4933   68.5507  224.9964 H   0  0  0  0  0  0  0  0  0  0  0  0
  132.2702   68.8790  226.0421 H   0  0  0  0  0  0  0  0  0  0  0  0
  130.6970   70.3172  226.9951 H   0  0  0  0  0  0  0  0  0  0  0  0
  130.0214   72.6216  227.7025 H   0  0  0  0  0  0  0  0  0  0  0  0
  131.5690   74.5178  227.3541 H   0  0  0  0  0  0  0  0  0  0  0  0
  133.8026   74.1854  226.3019 H   0  0  0  0  0  0  0  0  0  0  0  0
  1  2  2  0
  2  3  1  0
  3  4  1  0
  4  5  1  0
  5  6  2  0
  5  7  1  0
  7  8  1  0
  8  9  1  0
  9 10  1  0
 10 11  1  0
 11 12  1  0
 12 13  1  0
 13 14  1  0
  2 15  1  0
 15 16  2  0
 16 17  1  0
 17 18  2  0
 18 19  1  0
 19 20  2  0
 20 21  1  0
 21 22  2  0
 22 23  1  0
 23 24  2  0
 12  7  1  0
 24 15  1  0
 23 18  1  0
  3 25  1  0
  4 26  1  0
  4 27  1  0
  8 28  1  0
  8 29  1  0
  9 30  1  0
  9 31  1  0
 10 32  1  0
 10 33  1  0
 11 34  1  0
 11 35  1  0
 12 36  1  6
 13 37  1  0
 13 38  1  0
 14 39  1  0
 16 40  1  0
 17 41  1  0
 19 42  1  0
 20 43  1  0
 21 44  1  0
 22 45  1  0
M  END
>  <smiles>  (25) 
O=C(NCC(=O)N1CCCC[C@H]1CO)c1ccc2ccccc2n1

>  <score_type>  (25) 
oracle

>  <origin>  (25) 
autodockgpu

>  <m_score__min__energy>  (25) 
-7.9000000000000004

>  <m_primary>  (25) 
energy

>  <rmsd>  (25) 
8.096527694299919

>  <m_score__min__rmsd>  (25) 
8.096527694299919

>  <meeko>  (25) 
{"free_energy": -6.28, "intermolecular_energy": -8.07, "internal_energy": -2.69, "cluster_size": 4, "cluster_id": 4, "rank_in_cluster": 4}

>  <energy>  (25) 
-6.57

>  <cluster_rmsd>  (25) 
1.64

>  <cluster>  (25) 
2

$$$$

     RDKit          3D

 45 47  0  0  0  0  0  0  0  0999 V2000
  139.3150   72.1660  221.4410 O   0  0  0  0  0  0  0  0  0  0  0  0
  140.3170   71.7740  222.0970 C   0  0  0  0  0  0  0  0  0  0  0  0
  141.5740   71.8450  221.4360 N   0  0  0  0  0  0  0  0  0  0  0  0
  141.8110   72.3100  220.1210 C   0  0  0  0  0  0  0  0  0  0  0  0
  141.6820   73.6860  219.7150 C   0  0  0  0  0  0  0  0  0  0  0  0
  141.1110   73.7730  218.5140 O   0  0  0  0  0  0  0  0  0  0  0  0
  142.0040   74.9180  220.2540 N   0  0  0  0  0  0  0  0  0  0  0  0
  143.1830   75.7360  219.9340 C   0  0  0  0  0  0  0  0  0  0  0  0
  142.6200   76.8770  219.0900 C   0  0  0  0  0  0  0  0  0  0  0  0
  141.5830   77.6300  219.8920 C   0  0  0  0  0  0  0  0  0  0  0  0
  141.3780   77.0190  221.2570 C   0  0  0  0  0  0  0  0  0  0  0  0
  141.1550   75.5490  221.2680 C   0  0  1  0  0  0  0  0  0  0  0  0
  139.7390   75.1670  221.3080 C   0  0  0  0  0  0  0  0  0  0  0  0
  139.2100   74.8530  222.5520 O   0  0  0  0  0  0  0  0  0  0  0  0
  140.1890   71.2760  223.4560 C   0  0  0  0  0  0  0  0  0  0  0  0
  139.4690   70.1240  223.6760 C   0  0  0  0  0  0  0  0  0  0  0  0
  139.2880   69.5690  224.9250 C   0  0  0  0  0  0  0  0  0  0  0  0
  139.8740   70.2320  225.9900 C   0  0  0  0  0  0  0  0  0  0  0  0
  139.6890   69.6730  227.2370 C   0  0  0  0  0  0  0  0  0  0  0  0
  140.2640   70.3130  228.3200 C   0  0  0  0  0  0  0  0  0  0  0  0
  140.9940   71.4750  228.1250 C   0  0  0  0  0  0  0  0  0  0  0  0
  141.1720   72.0280  226.8600 C   0  0  0  0  0  0  0  0  0  0  0  0
  140.5990   71.3890  225.7770 C   0  0  0  0  0  0  0  0  0  0  0  0
  140.7350   71.8740  224.5280 N   0  0  0  0  0  0  0  0  0  0  0  0
  142.3990   71.5100  222.0100 H   0  0  0  0  0  0  0  0  0  0  0  0
  142.8480   72.0269  219.8876 H   0  0  0  0  0  0  0  0  0  0  0  0
  140.9657   71.8548  219.5841 H   0  0  0  0  0  0  0  0  0  0  0  0
  143.6521   76.1221  220.8510 H   0  0  0  0  0  0  0  0  0  0  0  0
  143.9650   75.1666  219.4102 H   0  0  0  0  0  0  0  0  0  0  0  0
  143.4339   77.5612  218.8080 H   0  0  0  0  0  0  0  0  0  0  0  0
  142.1554   76.4673  218.1810 H   0  0  0  0  0  0  0  0  0  0  0  0
  141.9148   78.6716  220.0143 H   0  0  0  0  0  0  0  0  0  0  0  0
  140.6280   77.5806  219.3483 H   0  0  0  0  0  0  0  0  0  0  0  0
  142.2715   77.2317  221.8623 H   0  0  0  0  0  0  0  0  0  0  0  0
  140.4575   77.4694  221.6568 H   0  0  0  0  0  0  0  0  0  0  0  0
  141.4909   75.1249  222.2257 H   0  0  0  0  0  0  0  0  0  0  0  0
  139.1563   76.0066  220.9010 H   0  0  0  0  0  0  0  0  0  0  0  0
  139.6757   74.2362  220.7253 H   0  0  0  0  0  0  0  0  0  0  0  0
  139.1560   73.8900  222.7260 H   0  0  0  0  0  0  0  0  0  0  0  0
  139.0143   69.6199  222.8105 H   0  0  0  0  0  0  0  0  0  0  0  0
  138.7072   68.6459  225.0683 H   0  0  0  0  0  0  0  0  0  0  0  0
  139.1044   68.7501  227.3659 H   0  0  0  0  0  0  0  0  0  0  0  0
  140.1424   69.9012  229.3327 H   0  0  0  0  0  0  0  0  0  0  0  0
  141.4456   71.9745  228.9948 H   0  0  0  0  0  0  0  0  0  0  0  0
  141.7547   72.9513  226.7257 H   0  0  0  0  0  0  0  0  0  0  0  0
  1  2  2  0
  2  3  1  0
  3  4  1  0
  4  5  1  0
  5  6  2  0
  5  7  1  0
  7  8  1  0
  8  9  1  0
  9 10  1  0
 10 11  1  0
 11 12  1  0
 12 13  1  0
 13 14  1  0
  2 15  1  0
 15 16  2  0
 16 17  1  0
 17 18  2  0
 18 19  1  0
 19 20  2  0
 20 21  1  0
 21 22  2  0
 22 23  1  0
 23 24  2  0
 12  7  1  0
 24 15  1  0
 23 18  1  0
  3 25  1  0
  4 26  1  0
  4 27  1  0
  8 28  1  0
  8 29  1  0
  9 30  1  0
  9 31  1  0
 10 32  1  0
 10 33  1  0
 11 34  1  0
 11 35  1  0
 12 36  1  1
 13 37  1  0
 13 38  1  0
 14 39  1  0
 16 40  1  0
 17 41  1  0
 19 42  1  0
 20 43  1  0
 21 44  1  0
 22 45  1  0
M  END
>  <smiles>  (26) 
O=C(NCC(=O)N1CCCC[C@H]1CO)c1ccc2ccccc2n1

>  <score_type>  (26) 
oracle

>  <origin>  (26) 
autodockgpu

>  <m_score__min__energy>  (26) 
-7.9000000000000004

>  <m_primary>  (26) 
energy

>  <rmsd>  (26) 
2.899929797789643

>  <m_score__min__rmsd>  (26) 
2.899929797789643

>  <meeko>  (26) 
{"free_energy": -6.34, "intermolecular_energy": -8.13, "internal_energy": -1.93, "cluster_size": 14, "cluster_id": 2, "rank_in_cluster": 12}

>  <energy>  (26) 
-6.56

>  <cluster_rmsd>  (26) 
1.91

>  <cluster>  (26) 
2

$$$$

     RDKit          3D

 45 47  0  0  0  0  0  0  0  0999 V2000
  136.3840   69.3540  224.3020 O   0  0  0  0  0  0  0  0  0  0  0  0
  136.1920   70.5630  224.6010 C   0  0  0  0  0  0  0  0  0  0  0  0
  137.2120   71.4790  224.2210 N   0  0  0  0  0  0  0  0  0  0  0  0
  138.4150   71.1690  223.5440 C   0  0  0  0  0  0  0  0  0  0  0  0
  139.7280   71.3350  224.1110 C   0  0  0  0  0  0  0  0  0  0  0  0
  140.4350   72.2260  223.4150 O   0  0  0  0  0  0  0  0  0  0  0  0
  140.4260   70.8050  225.1800 N   0  0  0  0  0  0  0  0  0  0  0  0
  141.2130   71.5500  226.1740 C   0  0  0  0  0  0  0  0  0  0  0  0
  140.3510   71.5040  227.4340 C   0  0  0  0  0  0  0  0  0  0  0  0
  140.1180   70.0650  227.8310 C   0  0  0  0  0  0  0  0  0  0  0  0
  140.7600   69.1040  226.8570 C   0  0  0  0  0  0  0  0  0  0  0  0
  140.4610   69.3600  225.4240 C   0  0  1  0  0  0  0  0  0  0  0  0
  139.3550   68.5510  224.8980 C   0  0  0  0  0  0  0  0  0  0  0  0
  138.4970   67.9840  225.8280 O   0  0  0  0  0  0  0  0  0  0  0  0
  134.9920   70.9940  225.2970 C   0  0  0  0  0  0  0  0  0  0  0  0
  134.1010   70.0400  225.7350 C   0  0  0  0  0  0  0  0  0  0  0  0
  132.9340   70.3420  226.4040 C   0  0  0  0  0  0  0  0  0  0  0  0
  132.6770   71.6840  226.6290 C   0  0  0  0  0  0  0  0  0  0  0  0
  131.5080   71.9820  227.2980 C   0  0  0  0  0  0  0  0  0  0  0  0
  131.2260   73.3140  227.5380 C   0  0  0  0  0  0  0  0  0  0  0  0
  132.1070   74.2930  227.1060 C   0  0  0  0  0  0  0  0  0  0  0  0
  133.2830   73.9780  226.4310 C   0  0  0  0  0  0  0  0  0  0  0  0
  133.5670   72.6470  226.1920 C   0  0  0  0  0  0  0  0  0  0  0  0
  134.6890   72.2780  225.5440 N   0  0  0  0  0  0  0  0  0  0  0  0
  137.0260   72.4880  224.4840 H   0  0  0  0  0  0  0  0  0  0  0  0
  138.3394   70.1049  223.2756 H   0  0  0  0  0  0  0  0  0  0  0  0
  138.4237   71.9496  222.7691 H   0  0  0  0  0  0  0  0  0  0  0  0
  142.1851   71.0651  226.3469 H   0  0  0  0  0  0  0  0  0  0  0  0
  141.4398   72.5772  225.8523 H   0  0  0  0  0  0  0  0  0  0  0  0
  140.8663   72.0310  228.2505 H   0  0  0  0  0  0  0  0  0  0  0  0
  139.3849   71.9913  227.2360 H   0  0  0  0  0  0  0  0  0  0  0  0
  140.5454   69.8976  228.8307 H   0  0  0  0  0  0  0  0  0  0  0  0
  139.0335   69.8807  227.8292 H   0  0  0  0  0  0  0  0  0  0  0  0
  141.8502   69.1603  226.9923 H   0  0  0  0  0  0  0  0  0  0  0  0
  140.3391   68.1134  227.0839 H   0  0  0  0  0  0  0  0  0  0  0  0
  141.2834   68.9856  224.7967 H   0  0  0  0  0  0  0  0  0  0  0  0
  138.7538   69.1966  224.2410 H   0  0  0  0  0  0  0  0  0  0  0  0
  139.8358   67.6997  224.3939 H   0  0  0  0  0  0  0  0  0  0  0  0
  137.5540   68.2070  225.6820 H   0  0  0  0  0  0  0  0  0  0  0  0
  134.3323   68.9822  225.5411 H   0  0  0  0  0  0  0  0  0  0  0  0
  132.2420   69.5566  226.7420 H   0  0  0  0  0  0  0  0  0  0  0  0
  130.8236   71.1870  227.6292 H   0  0  0  0  0  0  0  0  0  0  0  0
  130.3054   73.5960  228.0700 H   0  0  0  0  0  0  0  0  0  0  0  0
  131.8701   75.3491  227.3022 H   0  0  0  0  0  0  0  0  0  0  0  0
  133.9696   74.7695  226.0960 H   0  0  0  0  0  0  0  0  0  0  0  0
  1  2  2  0
  2  3  1  0
  3  4  1  0
  4  5  1  0
  5  6  2  0
  5  7  1  0
  7  8  1  0
  8  9  1  0
  9 10  1  0
 10 11  1  0
 11 12  1  0
 12 13  1  0
 13 14  1  0
  2 15  1  0
 15 16  2  0
 16 17  1  0
 17 18  2  0
 18 19  1  0
 19 20  2  0
 20 21  1  0
 21 22  2  0
 22 23  1  0
 23 24  2  0
 12  7  1  0
 24 15  1  0
 23 18  1  0
  3 25  1  0
  4 26  1  0
  4 27  1  0
  8 28  1  0
  8 29  1  0
  9 30  1  0
  9 31  1  0
 10 32  1  0
 10 33  1  0
 11 34  1  0
 11 35  1  0
 12 36  1  6
 13 37  1  0
 13 38  1  0
 14 39  1  0
 16 40  1  0
 17 41  1  0
 19 42  1  0
 20 43  1  0
 21 44  1  0
 22 45  1  0
M  END
>  <smiles>  (27) 
O=C(NCC(=O)N1CCCC[C@H]1CO)c1ccc2ccccc2n1

>  <score_type>  (27) 
oracle

>  <origin>  (27) 
autodockgpu

>  <m_score__min__energy>  (27) 
-7.9000000000000004

>  <m_primary>  (27) 
energy

>  <rmsd>  (27) 
7.952714874003654

>  <m_score__min__rmsd>  (27) 
7.952714874003654

>  <meeko>  (27) 
{"free_energy": -6.53, "intermolecular_energy": -8.32, "internal_energy": -1.99, "cluster_size": 4, "cluster_id": 4, "rank_in_cluster": 2}

>  <energy>  (27) 
-6.55

>  <cluster_rmsd>  (27) 
1.75

>  <cluster>  (27) 
2

$$$$

     RDKit          3D

 45 47  0  0  0  0  0  0  0  0999 V2000
  140.3130   71.2010  221.1720 O   0  0  0  0  0  0  0  0  0  0  0  0
  139.8160   71.8190  222.1510 C   0  0  0  0  0  0  0  0  0  0  0  0
  139.2050   73.0710  221.8660 N   0  0  0  0  0  0  0  0  0  0  0  0
  139.0980   73.6890  220.5980 C   0  0  0  0  0  0  0  0  0  0  0  0
  139.7450   74.9260  220.2440 C   0  0  0  0  0  0  0  0  0  0  0  0
  139.4120   75.2970  219.0080 O   0  0  0  0  0  0  0  0  0  0  0  0
  140.6150   75.8070  220.8600 N   0  0  0  0  0  0  0  0  0  0  0  0
  141.9800   76.1400  220.4270 C   0  0  0  0  0  0  0  0  0  0  0  0
  141.8490   77.5480  219.8490 C   0  0  0  0  0  0  0  0  0  0  0  0
  141.3270   78.4820  220.9170 C   0  0  0  0  0  0  0  0  0  0  0  0
  141.0510   77.7550  222.2110 C   0  0  0  0  0  0  0  0  0  0  0  0
  140.2370   76.5180  222.0840 C   0  0  1  0  0  0  0  0  0  0  0  0
  138.8070   76.7230  222.3420 C   0  0  0  0  0  0  0  0  0  0  0  0
  138.0780   75.6130  222.7440 O   0  0  0  0  0  0  0  0  0  0  0  0
  139.8690   71.2780  223.4990 C   0  0  0  0  0  0  0  0  0  0  0  0
  139.2940   70.0520  223.7440 C   0  0  0  0  0  0  0  0  0  0  0  0
  139.2890   69.4500  224.9850 C   0  0  0  0  0  0  0  0  0  0  0  0
  139.9040   70.1440  226.0140 C   0  0  0  0  0  0  0  0  0  0  0  0
  139.8960   69.5390  227.2530 C   0  0  0  0  0  0  0  0  0  0  0  0
  140.5020   70.2090  228.2990 C   0  0  0  0  0  0  0  0  0  0  0  0
  141.0890   71.4460  228.0780 C   0  0  0  0  0  0  0  0  0  0  0  0
  141.0880   72.0450  226.8210 C   0  0  0  0  0  0  0  0  0  0  0  0
  140.4830   71.3760  225.7750 C   0  0  0  0  0  0  0  0  0  0  0  0
  140.4500   71.9030  224.5360 N   0  0  0  0  0  0  0  0  0  0  0  0
  138.7950   73.5690  222.7070 H   0  0  0  0  0  0  0  0  0  0  0  0
  139.4612   72.9455  219.8732 H   0  0  0  0  0  0  0  0  0  0  0  0
  138.0436   74.0021  220.6083 H   0  0  0  0  0  0  0  0  0  0  0  0
  142.6745   76.1302  221.2800 H   0  0  0  0  0  0  0  0  0  0  0  0
  142.3823   75.4189  219.7003 H   0  0  0  0  0  0  0  0  0  0  0  0
  142.8340   77.8970  219.5056 H   0  0  0  0  0  0  0  0  0  0  0  0
  141.1500   77.5333  218.9998 H   0  0  0  0  0  0  0  0  0  0  0  0
  142.0762   79.2659  221.1018 H   0  0  0  0  0  0  0  0  0  0  0  0
  140.3813   78.9156  220.5598 H   0  0  0  0  0  0  0  0  0  0  0  0
  142.0173   77.4812  222.6597 H   0  0  0  0  0  0  0  0  0  0  0  0
  140.4585   78.4467  222.8278 H   0  0  0  0  0  0  0  0  0  0  0  0
  140.4777   75.8239  222.9028 H   0  0  0  0  0  0  0  0  0  0  0  0
  138.7171   77.4838  223.1314 H   0  0  0  0  0  0  0  0  0  0  0  0
  138.3782   77.0126  221.3713 H   0  0  0  0  0  0  0  0  0  0  0  0
  138.6130   74.9400  223.2130 H   0  0  0  0  0  0  0  0  0  0  0  0
  138.8134   69.5247  222.9067 H   0  0  0  0  0  0  0  0  0  0  0  0
  138.8203   68.4685  225.1492 H   0  0  0  0  0  0  0  0  0  0  0  0
  139.4236   68.5571  227.4037 H   0  0  0  0  0  0  0  0  0  0  0  0
  140.5187   69.7623  229.3041 H   0  0  0  0  0  0  0  0  0  0  0  0
  141.5686   71.9683  228.9190 H   0  0  0  0  0  0  0  0  0  0  0  0
  141.5577   73.0273  226.6648 H   0  0  0  0  0  0  0  0  0  0  0  0
  1  2  2  0
  2  3  1  0
  3  4  1  0
  4  5  1  0
  5  6  2  0
  5  7  1  0
  7  8  1  0
  8  9  1  0
  9 10  1  0
 10 11  1  0
 11 12  1  0
 12 13  1  0
 13 14  1  0
  2 15  1  0
 15 16  2  0
 16 17  1  0
 17 18  2  0
 18 19  1  0
 19 20  2  0
 20 21  1  0
 21 22  2  0
 22 23  1  0
 23 24  2  0
 12  7  1  0
 24 15  1  0
 23 18  1  0
  3 25  1  0
  4 26  1  0
  4 27  1  0
  8 28  1  0
  8 29  1  0
  9 30  1  0
  9 31  1  0
 10 32  1  0
 10 33  1  0
 11 34  1  0
 11 35  1  0
 12 36  1  1
 13 37  1  0
 13 38  1  0
 14 39  1  0
 16 40  1  0
 17 41  1  0
 19 42  1  0
 20 43  1  0
 21 44  1  0
 22 45  1  0
M  END
>  <smiles>  (28) 
O=C(NCC(=O)N1CCCC[C@H]1CO)c1ccc2ccccc2n1

>  <score_type>  (28) 
oracle

>  <origin>  (28) 
autodockgpu

>  <m_score__min__energy>  (28) 
-7.9000000000000004

>  <m_primary>  (28) 
energy

>  <rmsd>  (28) 
2.4957654938827307

>  <m_score__min__rmsd>  (28) 
2.4957654938827307

>  <meeko>  (28) 
{"free_energy": -6.86, "intermolecular_energy": -8.65, "internal_energy": -1.68, "cluster_size": 14, "cluster_id": 2, "rank_in_cluster": 3}

>  <energy>  (28) 
-6.54

>  <cluster_rmsd>  (28) 
1.23

>  <cluster>  (28) 
2

$$$$

     RDKit          3D

 45 47  0  0  0  0  0  0  0  0999 V2000
  140.8860   71.1220  221.7410 O   0  0  0  0  0  0  0  0  0  0  0  0
  140.3460   72.1750  222.1750 C   0  0  0  0  0  0  0  0  0  0  0  0
  139.2930   72.0060  223.1160 N   0  0  0  0  0  0  0  0  0  0  0  0
  138.7950   70.7780  223.6130 C   0  0  0  0  0  0  0  0  0  0  0  0
  139.5470   69.8810  224.4510 C   0  0  0  0  0  0  0  0  0  0  0  0
  139.3020   68.6120  224.1250 O   0  0  0  0  0  0  0  0  0  0  0  0
  140.4420   70.0100  225.4980 N   0  0  0  0  0  0  0  0  0  0  0  0
  141.4170   71.0930  225.6930 C   0  0  0  0  0  0  0  0  0  0  0  0
  140.8250   71.9190  226.8330 C   0  0  0  0  0  0  0  0  0  0  0  0
  140.6670   71.0450  228.0560 C   0  0  0  0  0  0  0  0  0  0  0  0
  141.0940   69.6220  227.7860 C   0  0  0  0  0  0  0  0  0  0  0  0
  140.5150   69.0060  226.5630 C   0  0  1  0  0  0  0  0  0  0  0  0
  139.3210   68.1930  226.8190 C   0  0  0  0  0  0  0  0  0  0  0  0
  139.1960   67.0180  226.0920 O   0  0  0  0  0  0  0  0  0  0  0  0
  140.7780   73.4900  221.7330 C   0  0  0  0  0  0  0  0  0  0  0  0
  141.7230   73.5770  220.7360 C   0  0  0  0  0  0  0  0  0  0  0  0
  142.2010   74.7740  220.2440 C   0  0  0  0  0  0  0  0  0  0  0  0
  141.6800   75.9270  220.8070 C   0  0  0  0  0  0  0  0  0  0  0  0
  142.1610   77.1220  220.3130 C   0  0  0  0  0  0  0  0  0  0  0  0
  141.6600   78.2900  220.8560 C   0  0  0  0  0  0  0  0  0  0  0  0
  140.7070   78.2300  221.8610 C   0  0  0  0  0  0  0  0  0  0  0  0
  140.2310   77.0160  222.3510 C   0  0  0  0  0  0  0  0  0  0  0  0
  140.7320   75.8480  221.8090 C   0  0  0  0  0  0  0  0  0  0  0  0
  140.3110   74.6430  222.2390 N   0  0  0  0  0  0  0  0  0  0  0  0
  138.8570   72.9060  223.4650 H   0  0  0  0  0  0  0  0  0  0  0  0
  137.8916   71.0335  224.1862 H   0  0  0  0  0  0  0  0  0  0  0  0
  138.7297   70.1900  222.6857 H   0  0  0  0  0  0  0  0  0  0  0  0
  142.4008   70.6883  225.9728 H   0  0  0  0  0  0  0  0  0  0  0  0
  141.5814   71.6853  224.7808 H   0  0  0  0  0  0  0  0  0  0  0  0
  141.4971   72.7581  227.0658 H   0  0  0  0  0  0  0  0  0  0  0  0
  139.8423   72.3106  226.5315 H   0  0  0  0  0  0  0  0  0  0  0  0
  141.2851   71.4543  228.8686 H   0  0  0  0  0  0  0  0  0  0  0  0
  139.6031   71.0361  228.3353 H   0  0  0  0  0  0  0  0  0  0  0  0
  142.1895   69.6089  227.6871 H   0  0  0  0  0  0  0  0  0  0  0  0
  140.7207   69.0267  228.6323 H   0  0  0  0  0  0  0  0  0  0  0  0
  141.1911   68.2287  226.1776 H   0  0  0  0  0  0  0  0  0  0  0  0
  139.3232   67.9254  227.8860 H   0  0  0  0  0  0  0  0  0  0  0  0
  138.4736   68.8188  226.5021 H   0  0  0  0  0  0  0  0  0  0  0  0
  139.5210   67.0900  225.1700 H   0  0  0  0  0  0  0  0  0  0  0  0
  142.1178   72.6432  220.3091 H   0  0  0  0  0  0  0  0  0  0  0  0
  142.9569   74.8107  219.4457 H   0  0  0  0  0  0  0  0  0  0  0  0
  142.9172   77.1444  219.5145 H   0  0  0  0  0  0  0  0  0  0  0  0
  142.0165   79.2648  220.4917 H   0  0  0  0  0  0  0  0  0  0  0  0
  140.3157   79.1673  222.2833 H   0  0  0  0  0  0  0  0  0  0  0  0
  139.4751   76.9879  223.1496 H   0  0  0  0  0  0  0  0  0  0  0  0
  1  2  2  0
  2  3  1  0
  3  4  1  0
  4  5  1  0
  5  6  2  0
  5  7  1  0
  7  8  1  0
  8  9  1  0
  9 10  1  0
 10 11  1  0
 11 12  1  0
 12 13  1  0
 13 14  1  0
  2 15  1  0
 15 16  2  0
 16 17  1  0
 17 18  2  0
 18 19  1  0
 19 20  2  0
 20 21  1  0
 21 22  2  0
 22 23  1  0
 23 24  2  0
 12  7  1  0
 24 15  1  0
 23 18  1  0
  3 25  1  0
  4 26  1  0
  4 27  1  0
  8 28  1  0
  8 29  1  0
  9 30  1  0
  9 31  1  0
 10 32  1  0
 10 33  1  0
 11 34  1  0
 11 35  1  0
 12 36  1  6
 13 37  1  0
 13 38  1  0
 14 39  1  0
 16 40  1  0
 17 41  1  0
 19 42  1  0
 20 43  1  0
 21 44  1  0
 22 45  1  0
M  END
>  <smiles>  (29) 
O=C(NCC(=O)N1CCCC[C@H]1CO)c1ccc2ccccc2n1

>  <score_type>  (29) 
oracle

>  <origin>  (29) 
autodockgpu

>  <m_score__min__energy>  (29) 
-7.9000000000000004

>  <m_primary>  (29) 
energy

>  <rmsd>  (29) 
8.459853384547523

>  <m_score__min__rmsd>  (29) 
8.459853384547523

>  <meeko>  (29) 
{"free_energy": -7.41, "intermolecular_energy": -9.2, "internal_energy": -1.82, "cluster_size": 20, "cluster_id": 1, "rank_in_cluster": 4}

>  <energy>  (29) 
-6.54

>  <cluster_rmsd>  (29) 
1.46

>  <cluster>  (29) 
2

$$$$

     RDKit          3D

 45 47  0  0  0  0  0  0  0  0999 V2000
  141.3960   72.5780  221.9750 O   0  0  0  0  0  0  0  0  0  0  0  0
  140.3500   72.5350  222.6770 C   0  0  0  0  0  0  0  0  0  0  0  0
  139.3020   73.4220  222.3080 N   0  0  0  0  0  0  0  0  0  0  0  0
  139.3150   74.3430  221.2350 C   0  0  0  0  0  0  0  0  0  0  0  0
  140.4230   75.2090  220.9260 C   0  0  0  0  0  0  0  0  0  0  0  0
  141.0470   75.5950  222.0400 O   0  0  0  0  0  0  0  0  0  0  0  0
  140.9880   75.7340  219.7780 N   0  0  0  0  0  0  0  0  0  0  0  0
  140.7390   77.0650  219.2050 C   0  0  0  0  0  0  0  0  0  0  0  0
  142.0150   77.8440  219.5180 C   0  0  0  0  0  0  0  0  0  0  0  0
  143.1970   77.1460  218.8870 C   0  0  0  0  0  0  0  0  0  0  0  0
  142.7860   75.8780  218.1780 C   0  0  0  0  0  0  0  0  0  0  0  0
  141.9310   74.9550  218.9710 C   0  0  1  0  0  0  0  0  0  0  0  0
  142.6790   73.8830  219.6370 C   0  0  0  0  0  0  0  0  0  0  0  0
  143.2870   74.2000  220.8440 O   0  0  0  0  0  0  0  0  0  0  0  0
  140.2290   71.6270  223.8050 C   0  0  0  0  0  0  0  0  0  0  0  0
  139.5870   70.4230  223.6210 C   0  0  0  0  0  0  0  0  0  0  0  0
  139.4180   69.4910  224.6240 C   0  0  0  0  0  0  0  0  0  0  0  0
  139.9330   69.8180  225.8670 C   0  0  0  0  0  0  0  0  0  0  0  0
  139.7610   68.8840  226.8670 C   0  0  0  0  0  0  0  0  0  0  0  0
  140.2650   69.1830  228.1190 C   0  0  0  0  0  0  0  0  0  0  0  0
  140.9150   70.3890  228.3310 C   0  0  0  0  0  0  0  0  0  0  0  0
  141.0810   71.3230  227.3110 C   0  0  0  0  0  0  0  0  0  0  0  0
  140.5780   71.0250  226.0590 C   0  0  0  0  0  0  0  0  0  0  0  0
  140.7070   71.8870  225.0330 N   0  0  0  0  0  0  0  0  0  0  0  0
  138.4350   73.3650  222.9150 H   0  0  0  0  0  0  0  0  0  0  0  0
  139.1430   73.7451  220.3279 H   0  0  0  0  0  0  0  0  0  0  0  0
  138.5702   75.0748  221.5810 H   0  0  0  0  0  0  0  0  0  0  0  0
  140.5769   76.9995  218.1190 H   0  0  0  0  0  0  0  0  0  0  0  0
  139.8382   77.5428  219.6176 H   0  0  0  0  0  0  0  0  0  0  0  0
  141.9315   78.8632  219.1127 H   0  0  0  0  0  0  0  0  0  0  0  0
  142.1568   77.8940  220.6077 H   0  0  0  0  0  0  0  0  0  0  0  0
  143.6648   77.8253  218.1592 H   0  0  0  0  0  0  0  0  0  0  0  0
  143.9026   76.8773  219.6870 H   0  0  0  0  0  0  0  0  0  0  0  0
  142.2312   76.1603  217.2711 H   0  0  0  0  0  0  0  0  0  0  0  0
  143.7168   75.3291  217.9723 H   0  0  0  0  0  0  0  0  0  0  0  0
  141.3016   74.3537  218.2985 H   0  0  0  0  0  0  0  0  0  0  0  0
  141.9788   73.0556  219.8244 H   0  0  0  0  0  0  0  0  0  0  0  0
  143.5060   73.6415  218.9530 H   0  0  0  0  0  0  0  0  0  0  0  0
  142.6580   74.2910  221.5890 H   0  0  0  0  0  0  0  0  0  0  0  0
  139.1881   70.1922  222.6222 H   0  0  0  0  0  0  0  0  0  0  0  0
  138.9006   68.5369  224.4454 H   0  0  0  0  0  0  0  0  0  0  0  0
  139.2408   67.9340  226.6750 H   0  0  0  0  0  0  0  0  0  0  0  0
  140.1506   68.4657  228.9451 H   0  0  0  0  0  0  0  0  0  0  0  0
  141.3106   70.6146  229.3323 H   0  0  0  0  0  0  0  0  0  0  0  0
  141.5999   72.2748  227.4977 H   0  0  0  0  0  0  0  0  0  0  0  0
  1  2  2  0
  2  3  1  0
  3  4  1  0
  4  5  1  0
  5  6  2  0
  5  7  1  0
  7  8  1  0
  8  9  1  0
  9 10  1  0
 10 11  1  0
 11 12  1  0
 12 13  1  0
 13 14  1  0
  2 15  1  0
 15 16  2  0
 16 17  1  0
 17 18  2  0
 18 19  1  0
 19 20  2  0
 20 21  1  0
 21 22  2  0
 22 23  1  0
 23 24  2  0
 12  7  1  0
 24 15  1  0
 23 18  1  0
  3 25  1  0
  4 26  1  0
  4 27  1  0
  8 28  1  0
  8 29  1  0
  9 30  1  0
  9 31  1  0
 10 32  1  0
 10 33  1  0
 11 34  1  0
 11 35  1  0
 12 36  1  6
 13 37  1  0
 13 38  1  0
 14 39  1  0
 16 40  1  0
 17 41  1  0
 19 42  1  0
 20 43  1  0
 21 44  1  0
 22 45  1  0
M  END
>  <smiles>  (30) 
O=C(NCC(=O)N1CCCC[C@H]1CO)c1ccc2ccccc2n1

>  <score_type>  (30) 
oracle

>  <origin>  (30) 
autodockgpu

>  <m_score__min__energy>  (30) 
-7.9000000000000004

>  <m_primary>  (30) 
energy

>  <rmsd>  (30) 
2.2887247894780725

>  <m_score__min__rmsd>  (30) 
2.2887247894780725

>  <meeko>  (30) 
{"free_energy": -6.25, "intermolecular_energy": -8.04, "internal_energy": -2.41, "cluster_size": 14, "cluster_id": 2, "rank_in_cluster": 13}

>  <energy>  (30) 
-6.41

>  <cluster_rmsd>  (30) 
1.71

>  <cluster>  (30) 
2

$$$$

     RDKit          3D

 45 47  0  0  0  0  0  0  0  0999 V2000
  139.9720   74.6530  222.2110 O   0  0  0  0  0  0  0  0  0  0  0  0
  140.2700   75.6640  221.5200 C   0  0  0  0  0  0  0  0  0  0  0  0
  140.5330   75.4340  220.1410 N   0  0  0  0  0  0  0  0  0  0  0  0
  140.4920   74.1890  219.4710 C   0  0  0  0  0  0  0  0  0  0  0  0
  141.5190   73.1850  219.5670 C   0  0  0  0  0  0  0  0  0  0  0  0
  141.2180   72.1260  218.8150 O   0  0  0  0  0  0  0  0  0  0  0  0
  142.7200   73.0490  220.2400 N   0  0  0  0  0  0  0  0  0  0  0  0
  143.2620   71.8160  220.8290 C   0  0  0  0  0  0  0  0  0  0  0  0
  144.3910   71.4210  219.8800 C   0  0  0  0  0  0  0  0  0  0  0  0
  145.4080   72.5370  219.8160 C   0  0  0  0  0  0  0  0  0  0  0  0
  144.9970   73.7180  220.6630 C   0  0  0  0  0  0  0  0  0  0  0  0
  143.6050   74.1970  220.4530 C   0  0  1  0  0  0  0  0  0  0  0  0
  143.5030   75.3230  219.5180 C   0  0  0  0  0  0  0  0  0  0  0  0
  142.9020   76.4790  219.9940 O   0  0  0  0  0  0  0  0  0  0  0  0
  140.3420   76.9910  222.1060 C   0  0  0  0  0  0  0  0  0  0  0  0
  139.1790   77.5900  222.5350 C   0  0  0  0  0  0  0  0  0  0  0  0
  139.1380   78.8460  223.1040 C   0  0  0  0  0  0  0  0  0  0  0  0
  140.3470   79.5080  223.2350 C   0  0  0  0  0  0  0  0  0  0  0  0
  140.3000   80.7640  223.8040 C   0  0  0  0  0  0  0  0  0  0  0  0
  141.4920   81.4490  223.9470 C   0  0  0  0  0  0  0  0  0  0  0  0
  142.6770   80.8680  223.5230 C   0  0  0  0  0  0  0  0  0  0  0  0
  142.7090   79.5990  222.9490 C   0  0  0  0  0  0  0  0  0  0  0  0
  141.5180   78.9130  222.8060 C   0  0  0  0  0  0  0  0  0  0  0  0
  141.4830   77.6830  222.2590 N   0  0  0  0  0  0  0  0  0  0  0  0
  140.7800   76.3000  219.5840 H   0  0  0  0  0  0  0  0  0  0  0  0
  139.5660   73.7003  219.8081 H   0  0  0  0  0  0  0  0  0  0  0  0
  140.6146   74.5116  218.4265 H   0  0  0  0  0  0  0  0  0  0  0  0
  143.6492   72.0033  221.8414 H   0  0  0  0  0  0  0  0  0  0  0  0
  142.5025   71.0276  220.9360 H   0  0  0  0  0  0  0  0  0  0  0  0
  144.8752   70.5042  220.2475 H   0  0  0  0  0  0  0  0  0  0  0  0
  143.9801   71.2410  218.8757 H   0  0  0  0  0  0  0  0  0  0  0  0
  146.3754   72.1586  220.1778 H   0  0  0  0  0  0  0  0  0  0  0  0
  145.4815   72.8738  218.7714 H   0  0  0  0  0  0  0  0  0  0  0  0
  145.1019   73.4312  221.7197 H   0  0  0  0  0  0  0  0  0  0  0  0
  145.6529   74.5492  220.3646 H   0  0  0  0  0  0  0  0  0  0  0  0
  143.2305   74.6794  221.3679 H   0  0  0  0  0  0  0  0  0  0  0  0
  144.5230   75.5849  219.2001 H   0  0  0  0  0  0  0  0  0  0  0  0
  142.8453   74.9681  218.7109 H   0  0  0  0  0  0  0  0  0  0  0  0
  142.7360   76.4670  220.9590 H   0  0  0  0  0  0  0  0  0  0  0  0
  138.2342   77.0389  222.4181 H   0  0  0  0  0  0  0  0  0  0  0  0
  138.1924   79.2988  223.4369 H   0  0  0  0  0  0  0  0  0  0  0  0
  139.3472   81.2049  224.1324 H   0  0  0  0  0  0  0  0  0  0  0  0
  141.5003   82.4530  224.3963 H   0  0  0  0  0  0  0  0  0  0  0  0
  143.6183   81.4244  223.6431 H   0  0  0  0  0  0  0  0  0  0  0  0
  143.6589   79.1541  222.6178 H   0  0  0  0  0  0  0  0  0  0  0  0
  1  2  2  0
  2  3  1  0
  3  4  1  0
  4  5  1  0
  5  6  2  0
  5  7  1  0
  7  8  1  0
  8  9  1  0
  9 10  1  0
 10 11  1  0
 11 12  1  0
 12 13  1  0
 13 14  1  0
  2 15  1  0
 15 16  2  0
 16 17  1  0
 17 18  2  0
 18 19  1  0
 19 20  2  0
 20 21  1  0
 21 22  2  0
 22 23  1  0
 23 24  2  0
 12  7  1  0
 24 15  1  0
 23 18  1  0
  3 25  1  0
  4 26  1  0
  4 27  1  0
  8 28  1  0
  8 29  1  0
  9 30  1  0
  9 31  1  0
 10 32  1  0
 10 33  1  0
 11 34  1  0
 11 35  1  0
 12 36  1  1
 13 37  1  0
 13 38  1  0
 14 39  1  0
 16 40  1  0
 17 41  1  0
 19 42  1  0
 20 43  1  0
 21 44  1  0
 22 45  1  0
M  END
>  <smiles>  (31) 
O=C(NCC(=O)N1CCCC[C@H]1CO)c1ccc2ccccc2n1

>  <score_type>  (31) 
oracle

>  <origin>  (31) 
autodockgpu

>  <m_score__min__energy>  (31) 
-7.9000000000000004

>  <m_primary>  (31) 
energy

>  <rmsd>  (31) 
7.551821963119656

>  <m_score__min__rmsd>  (31) 
7.551821963119656

>  <meeko>  (31) 
{"free_energy": -6.15, "intermolecular_energy": -7.94, "internal_energy": -2.48, "cluster_size": 4, "cluster_id": 6, "rank_in_cluster": 3}

>  <energy>  (31) 
-6.4

>  <cluster_rmsd>  (31) 
1.39

>  <cluster>  (31) 
2

$$$$

     RDKit          3D

 45 47  0  0  0  0  0  0  0  0999 V2000
  139.8290   71.2530  221.2840 O   0  0  0  0  0  0  0  0  0  0  0  0
  139.7990   71.8990  222.3660 C   0  0  0  0  0  0  0  0  0  0  0  0
  139.6330   73.3070  222.2590 N   0  0  0  0  0  0  0  0  0  0  0  0
  139.4960   74.0520  221.0650 C   0  0  0  0  0  0  0  0  0  0  0  0
  140.2870   73.8340  219.8820 C   0  0  0  0  0  0  0  0  0  0  0  0
  139.8930   72.7310  219.2450 O   0  0  0  0  0  0  0  0  0  0  0  0
  141.3410   74.4750  219.2560 N   0  0  0  0  0  0  0  0  0  0  0  0
  141.2710   75.7040  218.4520 C   0  0  0  0  0  0  0  0  0  0  0  0
  141.8910   76.7690  219.3540 C   0  0  0  0  0  0  0  0  0  0  0  0
  143.3080   76.3730  219.6980 C   0  0  0  0  0  0  0  0  0  0  0  0
  143.6800   75.0400  219.0930 C   0  0  0  0  0  0  0  0  0  0  0  0
  142.7050   73.9420  219.3280 C   0  0  1  0  0  0  0  0  0  0  0  0
  143.0440   73.0850  220.4700 C   0  0  0  0  0  0  0  0  0  0  0  0
  142.5070   71.8060  220.4730 O   0  0  0  0  0  0  0  0  0  0  0  0
  139.9300   71.2350  223.6520 C   0  0  0  0  0  0  0  0  0  0  0  0
  139.5480   69.9170  223.7600 C   0  0  0  0  0  0  0  0  0  0  0  0
  139.6320   69.1960  224.9330 C   0  0  0  0  0  0  0  0  0  0  0  0
  140.1300   69.8650  226.0380 C   0  0  0  0  0  0  0  0  0  0  0  0
  140.2100   69.1410  227.2090 C   0  0  0  0  0  0  0  0  0  0  0  0
  140.7040   69.7830  228.3290 C   0  0  0  0  0  0  0  0  0  0  0  0
  141.0960   71.1100  228.2470 C   0  0  0  0  0  0  0  0  0  0  0  0
  141.0080   71.8300  227.0580 C   0  0  0  0  0  0  0  0  0  0  0  0
  140.5150   71.1890  225.9380 C   0  0  0  0  0  0  0  0  0  0  0  0
  140.4060   71.8300  224.7580 N   0  0  0  0  0  0  0  0  0  0  0  0
  139.6100   73.8250  223.1830 H   0  0  0  0  0  0  0  0  0  0  0  0
  138.4497   73.9220  220.7515 H   0  0  0  0  0  0  0  0  0  0  0  0
  139.8719   75.0339  221.3884 H   0  0  0  0  0  0  0  0  0  0  0  0
  141.8470   75.5960  217.5211 H   0  0  0  0  0  0  0  0  0  0  0  0
  140.2441   75.9528  218.1460 H   0  0  0  0  0  0  0  0  0  0  0  0
  141.8973   77.7358  218.8294 H   0  0  0  0  0  0  0  0  0  0  0  0
  141.3000   76.8575  220.2775 H   0  0  0  0  0  0  0  0  0  0  0  0
  143.9955   77.1419  219.3157 H   0  0  0  0  0  0  0  0  0  0  0  0
  143.3826   76.2850  220.7919 H   0  0  0  0  0  0  0  0  0  0  0  0
  143.7828   75.1766  218.0064 H   0  0  0  0  0  0  0  0  0  0  0  0
  144.6123   74.7305  219.5880 H   0  0  0  0  0  0  0  0  0  0  0  0
  142.7672   73.2042  218.5145 H   0  0  0  0  0  0  0  0  0  0  0  0
  144.1392   72.9862  220.4985 H   0  0  0  0  0  0  0  0  0  0  0  0
  142.6034   73.5843  221.3455 H   0  0  0  0  0  0  0  0  0  0  0  0
  141.5660   71.7730  220.2020 H   0  0  0  0  0  0  0  0  0  0  0  0
  139.1555   69.4126  222.8647 H   0  0  0  0  0  0  0  0  0  0  0  0
  139.3191   68.1428  224.9876 H   0  0  0  0  0  0  0  0  0  0  0  0
  139.8917   68.0889  227.2503 H   0  0  0  0  0  0  0  0  0  0  0  0
  140.7859   69.2420  229.2833 H   0  0  0  0  0  0  0  0  0  0  0  0
  141.4875   71.6084  229.1461 H   0  0  0  0  0  0  0  0  0  0  0  0
  141.3232   72.8829  227.0119 H   0  0  0  0  0  0  0  0  0  0  0  0
  1  2  2  0
  2  3  1  0
  3  4  1  0
  4  5  1  0
  5  6  2  0
  5  7  1  0
  7  8  1  0
  8  9  1  0
  9 10  1  0
 10 11  1  0
 11 12  1  0
 12 13  1  0
 13 14  1  0
  2 15  1  0
 15 16  2  0
 16 17  1  0
 17 18  2  0
 18 19  1  0
 19 20  2  0
 20 21  1  0
 21 22  2  0
 22 23  1  0
 23 24  2  0
 12  7  1  0
 24 15  1  0
 23 18  1  0
  3 25  1  0
  4 26  1  0
  4 27  1  0
  8 28  1  0
  8 29  1  0
  9 30  1  0
  9 31  1  0
 10 32  1  0
 10 33  1  0
 11 34  1  0
 11 35  1  0
 12 36  1  6
 13 37  1  0
 13 38  1  0
 14 39  1  0
 16 40  1  0
 17 41  1  0
 19 42  1  0
 20 43  1  0
 21 44  1  0
 22 45  1  0
M  END
>  <smiles>  (32) 
O=C(NCC(=O)N1CCCC[C@H]1CO)c1ccc2ccccc2n1

>  <score_type>  (32) 
oracle

>  <origin>  (32) 
autodockgpu

>  <m_score__min__energy>  (32) 
-7.9000000000000004

>  <m_primary>  (32) 
energy

>  <rmsd>  (32) 
2.5055637383497804

>  <m_score__min__rmsd>  (32) 
2.5055637383497804

>  <meeko>  (32) 
{"free_energy": -5.75, "intermolecular_energy": -7.54, "internal_energy": -2.52, "cluster_size": 2, "cluster_id": 5, "rank_in_cluster": 2}

>  <energy>  (32) 
-6.34

>  <cluster_rmsd>  (32) 
1.95

>  <cluster>  (32) 
2

$$$$

     RDKit          3D

 45 47  0  0  0  0  0  0  0  0999 V2000
  141.2690   71.5260  221.4920 O   0  0  0  0  0  0  0  0  0  0  0  0
  140.6000   72.4920  221.9480 C   0  0  0  0  0  0  0  0  0  0  0  0
  139.5300   72.1630  222.8250 N   0  0  0  0  0  0  0  0  0  0  0  0
  139.1440   70.8660  223.2360 C   0  0  0  0  0  0  0  0  0  0  0  0
  139.1920   70.4020  224.5980 C   0  0  0  0  0  0  0  0  0  0  0  0
  138.0030   69.9350  224.9810 O   0  0  0  0  0  0  0  0  0  0  0  0
  140.1500   70.3270  225.5930 N   0  0  0  0  0  0  0  0  0  0  0  0
  140.9530   71.4380  226.1260 C   0  0  0  0  0  0  0  0  0  0  0  0
  140.3470   71.7010  227.5030 C   0  0  0  0  0  0  0  0  0  0  0  0
  140.4480   70.4490  228.3430 C   0  0  0  0  0  0  0  0  0  0  0  0
  141.0700   69.3070  227.5740 C   0  0  0  0  0  0  0  0  0  0  0  0
  140.4830   69.0520  226.2320 C   0  0  1  0  0  0  0  0  0  0  0  0
  139.4650   67.9950  226.2240 C   0  0  0  0  0  0  0  0  0  0  0  0
  139.1880   67.4030  225.0000 O   0  0  0  0  0  0  0  0  0  0  0  0
  140.9100   73.8670  221.5920 C   0  0  0  0  0  0  0  0  0  0  0  0
  141.8590   74.1040  220.6240 C   0  0  0  0  0  0  0  0  0  0  0  0
  142.2250   75.3680  220.2140 C   0  0  0  0  0  0  0  0  0  0  0  0
  141.5840   76.4300  220.8300 C   0  0  0  0  0  0  0  0  0  0  0  0
  141.9550   77.6930  220.4170 C   0  0  0  0  0  0  0  0  0  0  0  0
  141.3310   78.7730  221.0140 C   0  0  0  0  0  0  0  0  0  0  0  0
  140.3720   78.5610  221.9920 C   0  0  0  0  0  0  0  0  0  0  0  0
  140.0080   77.2800  222.4000 C   0  0  0  0  0  0  0  0  0  0  0  0
  140.6310   76.2000  221.8030 C   0  0  0  0  0  0  0  0  0  0  0  0
  140.3220   74.9360  222.1530 N   0  0  0  0  0  0  0  0  0  0  0  0
  138.9850   72.9940  223.1950 H   0  0  0  0  0  0  0  0  0  0  0  0
  138.0963   70.7534  222.9202 H   0  0  0  0  0  0  0  0  0  0  0  0
  139.9408   70.2587  222.7817 H   0  0  0  0  0  0  0  0  0  0  0  0
  142.0111   71.1500  226.2125 H   0  0  0  0  0  0  0  0  0  0  0  0
  140.9329   72.3258  225.4769 H   0  0  0  0  0  0  0  0  0  0  0  0
  140.8947   72.5183  227.9950 H   0  0  0  0  0  0  0  0  0  0  0  0
  139.2900   71.9844  227.3913 H   0  0  0  0  0  0  0  0  0  0  0  0
  141.0670   70.6621  229.2270 H   0  0  0  0  0  0  0  0  0  0  0  0
  139.4306   70.1504  228.6359 H   0  0  0  0  0  0  0  0  0  0  0  0
  142.1391   69.5290  227.4409 H   0  0  0  0  0  0  0  0  0  0  0  0
  140.8793   68.4005  228.1673 H   0  0  0  0  0  0  0  0  0  0  0  0
  141.2348   68.5922  225.5736 H   0  0  0  0  0  0  0  0  0  0  0  0
  139.8025   67.2026  226.9082 H   0  0  0  0  0  0  0  0  0  0  0  0
  138.5303   68.4930  226.5212 H   0  0  0  0  0  0  0  0  0  0  0  0
  138.7210   67.9940  224.3730 H   0  0  0  0  0  0  0  0  0  0  0  0
  142.3508   73.2401  220.1531 H   0  0  0  0  0  0  0  0  0  0  0  0
  142.9875   75.5253  219.4370 H   0  0  0  0  0  0  0  0  0  0  0  0
  142.7204   77.8359  219.6400 H   0  0  0  0  0  0  0  0  0  0  0  0
  141.5950   79.7977  220.7135 H   0  0  0  0  0  0  0  0  0  0  0  0
  139.8844   79.4293  222.4593 H   0  0  0  0  0  0  0  0  0  0  0  0
  139.2442   77.1315  223.1775 H   0  0  0  0  0  0  0  0  0  0  0  0
  1  2  2  0
  2  3  1  0
  3  4  1  0
  4  5  1  0
  5  6  2  0
  5  7  1  0
  7  8  1  0
  8  9  1  0
  9 10  1  0
 10 11  1  0
 11 12  1  0
 12 13  1  0
 13 14  1  0
  2 15  1  0
 15 16  2  0
 16 17  1  0
 17 18  2  0
 18 19  1  0
 19 20  2  0
 20 21  1  0
 21 22  2  0
 22 23  1  0
 23 24  2  0
 12  7  1  0
 24 15  1  0
 23 18  1  0
  3 25  1  0
  4 26  1  0
  4 27  1  0
  8 28  1  0
  8 29  1  0
  9 30  1  0
  9 31  1  0
 10 32  1  0
 10 33  1  0
 11 34  1  0
 11 35  1  0
 12 36  1  6
 13 37  1  0
 13 38  1  0
 14 39  1  0
 16 40  1  0
 17 41  1  0
 19 42  1  0
 20 43  1  0
 21 44  1  0
 22 45  1  0
M  END
>  <smiles>  (33) 
O=C(NCC(=O)N1CCCC[C@H]1CO)c1ccc2ccccc2n1

>  <score_type>  (33) 
oracle

>  <origin>  (33) 
autodockgpu

>  <m_score__min__energy>  (33) 
-7.9000000000000004

>  <m_primary>  (33) 
energy

>  <rmsd>  (33) 
8.617290151105607

>  <m_score__min__rmsd>  (33) 
8.617290151105607

>  <meeko>  (33) 
{"free_energy": -7.52, "intermolecular_energy": -9.31, "internal_energy": -1.73, "cluster_size": 20, "cluster_id": 1, "rank_in_cluster": 3}

>  <energy>  (33) 
-6.25

>  <cluster_rmsd>  (33) 
1.76

>  <cluster>  (33) 
2

$$$$

     RDKit          3D

 45 47  0  0  0  0  0  0  0  0999 V2000
  136.3790   69.2860  224.2430 O   0  0  0  0  0  0  0  0  0  0  0  0
  136.2210   70.4900  224.5820 C   0  0  0  0  0  0  0  0  0  0  0  0
  137.2780   71.3840  224.2560 N   0  0  0  0  0  0  0  0  0  0  0  0
  138.4830   71.0580  223.5920 C   0  0  0  0  0  0  0  0  0  0  0  0
  139.7950   71.2710  224.1470 C   0  0  0  0  0  0  0  0  0  0  0  0
  140.4790   72.1540  223.4190 O   0  0  0  0  0  0  0  0  0  0  0  0
  140.5090   70.7900  225.2290 N   0  0  0  0  0  0  0  0  0  0  0  0
  141.2500   71.5860  226.2180 C   0  0  0  0  0  0  0  0  0  0  0  0
  140.3820   71.5160  227.4720 C   0  0  0  0  0  0  0  0  0  0  0  0
  140.2150   70.0730  227.8870 C   0  0  0  0  0  0  0  0  0  0  0  0
  140.9100   69.1310  226.9330 C   0  0  0  0  0  0  0  0  0  0  0  0
  140.6110   69.3520  225.4930 C   0  0  1  0  0  0  0  0  0  0  0  0
  139.5500   68.4840  224.9710 C   0  0  0  0  0  0  0  0  0  0  0  0
  138.4950   68.2010  225.8260 O   0  0  0  0  0  0  0  0  0  0  0  0
  135.0200   70.9350  225.2700 C   0  0  0  0  0  0  0  0  0  0  0  0
  134.1240   69.9910  225.7180 C   0  0  0  0  0  0  0  0  0  0  0  0
  132.9570   70.3080  226.3810 C   0  0  0  0  0  0  0  0  0  0  0  0
  132.7060   71.6540  226.5880 C   0  0  0  0  0  0  0  0  0  0  0  0
  131.5370   71.9650  227.2500 C   0  0  0  0  0  0  0  0  0  0  0  0
  131.2600   73.3020  227.4710 C   0  0  0  0  0  0  0  0  0  0  0  0
  132.1470   74.2720  227.0290 C   0  0  0  0  0  0  0  0  0  0  0  0
  133.3230   73.9420  226.3600 C   0  0  0  0  0  0  0  0  0  0  0  0
  133.6010   72.6070  226.1400 C   0  0  0  0  0  0  0  0  0  0  0  0
  134.7230   72.2240  225.4990 N   0  0  0  0  0  0  0  0  0  0  0  0
  137.1190   72.3890  224.5520 H   0  0  0  0  0  0  0  0  0  0  0  0
  138.4222   69.9809  223.3771 H   0  0  0  0  0  0  0  0  0  0  0  0
  138.4789   71.7987  222.7788 H   0  0  0  0  0  0  0  0  0  0  0  0
  142.2432   71.1516  226.4049 H   0  0  0  0  0  0  0  0  0  0  0  0
  141.4284   72.6185  225.8832 H   0  0  0  0  0  0  0  0  0  0  0  0
  140.8654   72.0780  228.2847 H   0  0  0  0  0  0  0  0  0  0  0  0
  139.3953   71.9540  227.2607 H   0  0  0  0  0  0  0  0  0  0  0  0
  140.6411   69.9400  228.8923 H   0  0  0  0  0  0  0  0  0  0  0  0
  139.1406   69.8370  227.8786 H   0  0  0  0  0  0  0  0  0  0  0  0
  141.9951   69.2416  227.0759 H   0  0  0  0  0  0  0  0  0  0  0  0
  140.5352   68.1246  227.1712 H   0  0  0  0  0  0  0  0  0  0  0  0
  141.4549   69.0086  224.8767 H   0  0  0  0  0  0  0  0  0  0  0  0
  139.1324   68.9701  224.0770 H   0  0  0  0  0  0  0  0  0  0  0  0
  140.0368   67.5153  224.7848 H   0  0  0  0  0  0  0  0  0  0  0  0
  137.7840   68.8750  225.8100 H   0  0  0  0  0  0  0  0  0  0  0  0
  134.3503   68.9297  225.5380 H   0  0  0  0  0  0  0  0  0  0  0  0
  132.2605   69.5306  226.7280 H   0  0  0  0  0  0  0  0  0  0  0  0
  130.8488   71.1773  227.5905 H   0  0  0  0  0  0  0  0  0  0  0  0
  130.3387   73.5950  227.9958 H   0  0  0  0  0  0  0  0  0  0  0  0
  131.9153   75.3316  227.2119 H   0  0  0  0  0  0  0  0  0  0  0  0
  134.0138   74.7255  226.0151 H   0  0  0  0  0  0  0  0  0  0  0  0
  1  2  2  0
  2  3  1  0
  3  4  1  0
  4  5  1  0
  5  6  2  0
  5  7  1  0
  7  8  1  0
  8  9  1  0
  9 10  1  0
 10 11  1  0
 11 12  1  0
 12 13  1  0
 13 14  1  0
  2 15  1  0
 15 16  2  0
 16 17  1  0
 17 18  2  0
 18 19  1  0
 19 20  2  0
 20 21  1  0
 21 22  2  0
 22 23  1  0
 23 24  2  0
 12  7  1  0
 24 15  1  0
 23 18  1  0
  3 25  1  0
  4 26  1  0
  4 27  1  0
  8 28  1  0
  8 29  1  0
  9 30  1  0
  9 31  1  0
 10 32  1  0
 10 33  1  0
 11 34  1  0
 11 35  1  0
 12 36  1  6
 13 37  1  0
 13 38  1  0
 14 39  1  0
 16 40  1  0
 17 41  1  0
 19 42  1  0
 20 43  1  0
 21 44  1  0
 22 45  1  0
M  END
>  <smiles>  (34) 
O=C(NCC(=O)N1CCCC[C@H]1CO)c1ccc2ccccc2n1

>  <score_type>  (34) 
oracle

>  <origin>  (34) 
autodockgpu

>  <m_score__min__energy>  (34) 
-7.9000000000000004

>  <m_primary>  (34) 
energy

>  <rmsd>  (34) 
7.972955433571716

>  <m_score__min__rmsd>  (34) 
7.972955433571716

>  <meeko>  (34) 
{"free_energy": -6.45, "intermolecular_energy": -8.24, "internal_energy": -2.0, "cluster_size": 4, "cluster_id": 4, "rank_in_cluster": 3}

>  <energy>  (34) 
-6.13

>  <cluster_rmsd>  (34) 
1.57

>  <cluster>  (34) 
2

$$$$

     RDKit          3D

 45 47  0  0  0  0  0  0  0  0999 V2000
  141.6060   73.0040  221.5680 O   0  0  0  0  0  0  0  0  0  0  0  0
  140.6140   73.0240  222.3460 C   0  0  0  0  0  0  0  0  0  0  0  0
  139.8300   74.2110  222.3430 N   0  0  0  0  0  0  0  0  0  0  0  0
  140.0520   75.3660  221.5580 C   0  0  0  0  0  0  0  0  0  0  0  0
  139.5850   76.6820  221.9070 C   0  0  0  0  0  0  0  0  0  0  0  0
  138.3040   76.6470  222.2760 O   0  0  0  0  0  0  0  0  0  0  0  0
  140.1270   77.9540  221.9480 N   0  0  0  0  0  0  0  0  0  0  0  0
  140.0720   78.8970  223.0750 C   0  0  0  0  0  0  0  0  0  0  0  0
  141.4900   78.8790  223.6400 C   0  0  0  0  0  0  0  0  0  0  0  0
  142.4640   79.3050  222.5650 C   0  0  0  0  0  0  0  0  0  0  0  0
  141.7670   79.5800  221.2540 C   0  0  0  0  0  0  0  0  0  0  0  0
  140.8360   78.5150  220.7950 C   0  0  1  0  0  0  0  0  0  0  0  0
  141.4350   77.5790  219.8380 C   0  0  0  0  0  0  0  0  0  0  0  0
  142.5980   76.9350  220.2360 O   0  0  0  0  0  0  0  0  0  0  0  0
  140.2930   71.8910  223.1980 C   0  0  0  0  0  0  0  0  0  0  0  0
  139.5720   70.8460  222.6680 C   0  0  0  0  0  0  0  0  0  0  0  0
  139.2160   69.7260  223.3910 C   0  0  0  0  0  0  0  0  0  0  0  0
  139.6220   69.6870  224.7150 C   0  0  0  0  0  0  0  0  0  0  0  0
  139.2630   68.5660  225.4330 C   0  0  0  0  0  0  0  0  0  0  0  0
  139.6550   68.4990  226.7580 C   0  0  0  0  0  0  0  0  0  0  0  0
  140.3820   69.5400  227.3150 C   0  0  0  0  0  0  0  0  0  0  0  0
  140.7360   70.6660  226.5770 C   0  0  0  0  0  0  0  0  0  0  0  0
  140.3460   70.7340  225.2530 C   0  0  0  0  0  0  0  0  0  0  0  0
  140.6580   71.7960  224.4870 N   0  0  0  0  0  0  0  0  0  0  0  0
  139.0030   74.2000  223.0050 H   0  0  0  0  0  0  0  0  0  0  0  0
  141.1441   75.4540  221.4606 H   0  0  0  0  0  0  0  0  0  0  0  0
  139.4214   75.1471  220.6837 H   0  0  0  0  0  0  0  0  0  0  0  0
  139.8018   79.9054  222.7284 H   0  0  0  0  0  0  0  0  0  0  0  0
  139.3144   78.6198  223.8228 H   0  0  0  0  0  0  0  0  0  0  0  0
  141.5551   79.5736  224.4905 H   0  0  0  0  0  0  0  0  0  0  0  0
  141.7379   77.8622  223.9786 H   0  0  0  0  0  0  0  0  0  0  0  0
  142.9789   80.2199  222.8933 H   0  0  0  0  0  0  0  0  0  0  0  0
  143.1790   78.4842  222.4066 H   0  0  0  0  0  0  0  0  0  0  0  0
  141.1913   80.5109  221.3636 H   0  0  0  0  0  0  0  0  0  0  0  0
  142.5600   79.6399  220.4940 H   0  0  0  0  0  0  0  0  0  0  0  0
  140.0491   78.9509  220.1619 H   0  0  0  0  0  0  0  0  0  0  0  0
  140.6855   76.8051  219.6161 H   0  0  0  0  0  0  0  0  0  0  0  0
  141.7289   78.1971  218.9768 H   0  0  0  0  0  0  0  0  0  0  0  0
  143.3440   77.5460  220.4160 H   0  0  0  0  0  0  0  0  0  0  0  0
  139.2635   70.9064  221.6139 H   0  0  0  0  0  0  0  0  0  0  0  0
  138.6391   68.9057  222.9391 H   0  0  0  0  0  0  0  0  0  0  0  0
  138.6851   67.7534  224.9685 H   0  0  0  0  0  0  0  0  0  0  0  0
  139.3907   67.6225  227.3678 H   0  0  0  0  0  0  0  0  0  0  0  0
  140.6876   69.4743  228.3696 H   0  0  0  0  0  0  0  0  0  0  0  0
  141.3125   71.4822  227.0368 H   0  0  0  0  0  0  0  0  0  0  0  0
  1  2  2  0
  2  3  1  0
  3  4  1  0
  4  5  1  0
  5  6  2  0
  5  7  1  0
  7  8  1  0
  8  9  1  0
  9 10  1  0
 10 11  1  0
 11 12  1  0
 12 13  1  0
 13 14  1  0
  2 15  1  0
 15 16  2  0
 16 17  1  0
 17 18  2  0
 18 19  1  0
 19 20  2  0
 20 21  1  0
 21 22  2  0
 22 23  1  0
 23 24  2  0
 12  7  1  0
 24 15  1  0
 23 18  1  0
  3 25  1  0
  4 26  1  0
  4 27  1  0
  8 28  1  0
  8 29  1  0
  9 30  1  0
  9 31  1  0
 10 32  1  0
 10 33  1  0
 11 34  1  0
 11 35  1  0
 12 36  1  6
 13 37  1  0
 13 38  1  0
 14 39  1  0
 16 40  1  0
 17 41  1  0
 19 42  1  0
 20 43  1  0
 21 44  1  0
 22 45  1  0
M  END
>  <smiles>  (35) 
O=C(NCC(=O)N1CCCC[C@H]1CO)c1ccc2ccccc2n1

>  <score_type>  (35) 
oracle

>  <origin>  (35) 
autodockgpu

>  <m_score__min__energy>  (35) 
-7.9000000000000004

>  <m_primary>  (35) 
energy

>  <rmsd>  (35) 
3.442252585500571

>  <m_score__min__rmsd>  (35) 
3.442252585500571

>  <meeko>  (35) 
{"free_energy": -7.03, "intermolecular_energy": -8.82, "internal_energy": -1.06, "cluster_size": 14, "cluster_id": 2, "rank_in_cluster": 1}

>  <energy>  (35) 
-6.73

>  <cluster_rmsd>  (35) 
0.0

>  <cluster>  (35) 
3

$$$$

     RDKit          3D

 45 47  0  0  0  0  0  0  0  0999 V2000
  140.0390   71.0400  221.3470 O   0  0  0  0  0  0  0  0  0  0  0  0
  139.9080   71.6610  222.4370 C   0  0  0  0  0  0  0  0  0  0  0  0
  139.7210   73.0670  222.3460 N   0  0  0  0  0  0  0  0  0  0  0  0
  139.6660   73.8370  221.1610 C   0  0  0  0  0  0  0  0  0  0  0  0
  140.5070   74.9760  220.8980 C   0  0  0  0  0  0  0  0  0  0  0  0
  141.0440   75.4390  222.0270 O   0  0  0  0  0  0  0  0  0  0  0  0
  140.8850   75.6980  219.7810 N   0  0  0  0  0  0  0  0  0  0  0  0
  140.2590   76.9300  219.2770 C   0  0  0  0  0  0  0  0  0  0  0  0
  141.2610   78.0250  219.6350 C   0  0  0  0  0  0  0  0  0  0  0  0
  142.5870   77.7280  218.9730 C   0  0  0  0  0  0  0  0  0  0  0  0
  142.5480   76.4330  218.1970 C   0  0  0  0  0  0  0  0  0  0  0  0
  142.0020   75.2650  218.9380 C   0  0  1  0  0  0  0  0  0  0  0  0
  143.0330   74.4190  219.5500 C   0  0  0  0  0  0  0  0  0  0  0  0
  143.6180   74.8910  220.7160 O   0  0  0  0  0  0  0  0  0  0  0  0
  139.9480   70.9700  223.7150 C   0  0  0  0  0  0  0  0  0  0  0  0
  139.4620   69.6840  223.7890 C   0  0  0  0  0  0  0  0  0  0  0  0
  139.4540   68.9420  224.9510 C   0  0  0  0  0  0  0  0  0  0  0  0
  139.9680   69.5540  226.0820 C   0  0  0  0  0  0  0  0  0  0  0  0
  139.9560   68.8080  227.2420 C   0  0  0  0  0  0  0  0  0  0  0  0
  140.4630   69.3940  228.3870 C   0  0  0  0  0  0  0  0  0  0  0  0
  140.9580   70.6880  228.3390 C   0  0  0  0  0  0  0  0  0  0  0  0
  140.9620   71.4290  227.1600 C   0  0  0  0  0  0  0  0  0  0  0  0
  140.4560   70.8450  226.0150 C   0  0  0  0  0  0  0  0  0  0  0  0
  140.4330   71.5100  224.8440 N   0  0  0  0  0  0  0  0  0  0  0  0
  139.6120   73.5630  223.2760 H   0  0  0  0  0  0  0  0  0  0  0  0
  139.8550   73.1314  220.3386 H   0  0  0  0  0  0  0  0  0  0  0  0
  138.6863   74.3240  221.2749 H   0  0  0  0  0  0  0  0  0  0  0  0
  140.1105   76.8763  218.1884 H   0  0  0  0  0  0  0  0  0  0  0  0
  139.2638   77.1078  219.7106 H   0  0  0  0  0  0  0  0  0  0  0  0
  140.8844   78.9966  219.2826 H   0  0  0  0  0  0  0  0  0  0  0  0
  141.3945   78.0584  220.7264 H   0  0  0  0  0  0  0  0  0  0  0  0
  142.8328   78.5491  218.2835 H   0  0  0  0  0  0  0  0  0  0  0  0
  143.3489   77.6322  219.7606 H   0  0  0  0  0  0  0  0  0  0  0  0
  141.9253   76.5904  217.3040 H   0  0  0  0  0  0  0  0  0  0  0  0
  143.5945   76.1849  217.9660 H   0  0  0  0  0  0  0  0  0  0  0  0
  141.5632   74.5445  218.2321 H   0  0  0  0  0  0  0  0  0  0  0  0
  142.5729   73.4463  219.7786 H   0  0  0  0  0  0  0  0  0  0  0  0
  143.8490   74.3810  218.8133 H   0  0  0  0  0  0  0  0  0  0  0  0
  143.0010   75.3860  221.2940 H   0  0  0  0  0  0  0  0  0  0  0  0
  139.0594   69.2249  222.8740 H   0  0  0  0  0  0  0  0  0  0  0  0
  139.0592   67.9156  224.9784 H   0  0  0  0  0  0  0  0  0  0  0  0
  139.5571   67.7830  227.2557 H   0  0  0  0  0  0  0  0  0  0  0  0
  140.4736   68.8346  229.3341 H   0  0  0  0  0  0  0  0  0  0  0  0
  141.3586   71.1419  229.2574 H   0  0  0  0  0  0  0  0  0  0  0  0
  141.3586   72.4548  227.1409 H   0  0  0  0  0  0  0  0  0  0  0  0
  1  2  2  0
  2  3  1  0
  3  4  1  0
  4  5  1  0
  5  6  2  0
  5  7  1  0
  7  8  1  0
  8  9  1  0
  9 10  1  0
 10 11  1  0
 11 12  1  0
 12 13  1  0
 13 14  1  0
  2 15  1  0
 15 16  2  0
 16 17  1  0
 17 18  2  0
 18 19  1  0
 19 20  2  0
 20 21  1  0
 21 22  2  0
 22 23  1  0
 23 24  2  0
 12  7  1  0
 24 15  1  0
 23 18  1  0
  3 25  1  0
  4 26  1  0
  4 27  1  0
  8 28  1  0
  8 29  1  0
  9 30  1  0
  9 31  1  0
 10 32  1  0
 10 33  1  0
 11 34  1  0
 11 35  1  0
 12 36  1  6
 13 37  1  0
 13 38  1  0
 14 39  1  0
 16 40  1  0
 17 41  1  0
 19 42  1  0
 20 43  1  0
 21 44  1  0
 22 45  1  0
M  END
>  <smiles>  (36) 
O=C(NCC(=O)N1CCCC[C@H]1CO)c1ccc2ccccc2n1

>  <score_type>  (36) 
oracle

>  <origin>  (36) 
autodockgpu

>  <m_score__min__energy>  (36) 
-7.9000000000000004

>  <m_primary>  (36) 
energy

>  <rmsd>  (36) 
2.0728108365062234

>  <m_score__min__rmsd>  (36) 
2.0728108365062234

>  <meeko>  (36) 
{"free_energy": -6.55, "intermolecular_energy": -8.34, "internal_energy": -1.97, "cluster_size": 14, "cluster_id": 2, "rank_in_cluster": 7}

>  <energy>  (36) 
-6.24

>  <cluster_rmsd>  (36) 
1.24

>  <cluster>  (36) 
3

$$$$

     RDKit          3D

 45 47  0  0  0  0  0  0  0  0999 V2000
  141.4270   72.6180  221.9820 O   0  0  0  0  0  0  0  0  0  0  0  0
  140.3820   72.5840  222.6860 C   0  0  0  0  0  0  0  0  0  0  0  0
  139.3550   73.5050  222.3420 N   0  0  0  0  0  0  0  0  0  0  0  0
  139.3880   74.4510  221.2910 C   0  0  0  0  0  0  0  0  0  0  0  0
  140.2810   75.5800  221.2480 C   0  0  0  0  0  0  0  0  0  0  0  0
  141.0690   75.6010  222.3230 O   0  0  0  0  0  0  0  0  0  0  0  0
  140.5150   76.6330  220.3830 N   0  0  0  0  0  0  0  0  0  0  0  0
  139.6730   77.8240  220.1980 C   0  0  0  0  0  0  0  0  0  0  0  0
  140.4610   78.9400  220.8800 C   0  0  0  0  0  0  0  0  0  0  0  0
  141.8150   79.0730  220.2230 C   0  0  0  0  0  0  0  0  0  0  0  0
  142.0090   78.0500  219.1290 C   0  0  0  0  0  0  0  0  0  0  0  0
  141.6890   76.6480  219.5050 C   0  0  1  0  0  0  0  0  0  0  0  0
  142.8600   75.8650  219.9150 C   0  0  0  0  0  0  0  0  0  0  0  0
  142.6470   74.5230  220.1990 O   0  0  0  0  0  0  0  0  0  0  0  0
  140.2400   71.6510  223.7920 C   0  0  0  0  0  0  0  0  0  0  0  0
  139.6030   70.4510  223.5700 C   0  0  0  0  0  0  0  0  0  0  0  0
  139.4170   69.4980  224.5490 C   0  0  0  0  0  0  0  0  0  0  0  0
  139.9090   69.7980  225.8080 C   0  0  0  0  0  0  0  0  0  0  0  0
  139.7190   68.8430  226.7840 C   0  0  0  0  0  0  0  0  0  0  0  0
  140.2010   69.1140  228.0520 C   0  0  0  0  0  0  0  0  0  0  0  0
  140.8460   70.3150  228.3010 C   0  0  0  0  0  0  0  0  0  0  0  0
  141.0290   71.2720  227.3060 C   0  0  0  0  0  0  0  0  0  0  0  0
  140.5490   71.0010  226.0380 C   0  0  0  0  0  0  0  0  0  0  0  0
  140.6960   71.8850  225.0330 N   0  0  0  0  0  0  0  0  0  0  0  0
  138.4880   73.4540  222.9490 H   0  0  0  0  0  0  0  0  0  0  0  0
  139.5939   73.8738  220.3775 H   0  0  0  0  0  0  0  0  0  0  0  0
  138.4215   74.9560  221.4356 H   0  0  0  0  0  0  0  0  0  0  0  0
  139.5319   78.0414  219.1290 H   0  0  0  0  0  0  0  0  0  0  0  0
  138.6638   77.6995  220.6176 H   0  0  0  0  0  0  0  0  0  0  0  0
  139.9119   79.8883  220.7840 H   0  0  0  0  0  0  0  0  0  0  0  0
  140.5919   78.6989  221.9452 H   0  0  0  0  0  0  0  0  0  0  0  0
  141.9031   80.0799  219.7890 H   0  0  0  0  0  0  0  0  0  0  0  0
  142.5857   78.9049  220.9897 H   0  0  0  0  0  0  0  0  0  0  0  0
  141.3639   78.3306  218.2834 H   0  0  0  0  0  0  0  0  0  0  0  0
  143.0823   78.0625  218.8883 H   0  0  0  0  0  0  0  0  0  0  0  0
  141.3859   76.0790  218.6138 H   0  0  0  0  0  0  0  0  0  0  0  0
  143.5985   75.9199  219.1016 H   0  0  0  0  0  0  0  0  0  0  0  0
  143.1870   76.3121  220.8653 H   0  0  0  0  0  0  0  0  0  0  0  0
  142.3550   74.3570  221.1190 H   0  0  0  0  0  0  0  0  0  0  0  0
  139.2227   70.2416  222.5593 H   0  0  0  0  0  0  0  0  0  0  0  0
  138.9038   68.5477  224.3404 H   0  0  0  0  0  0  0  0  0  0  0  0
  139.2018   67.8979  226.5620 H   0  0  0  0  0  0  0  0  0  0  0  0
  140.0727   68.3786  228.8600 H   0  0  0  0  0  0  0  0  0  0  0  0
  141.2243   70.5183  229.3137 H   0  0  0  0  0  0  0  0  0  0  0  0
  141.5427   72.2200  227.5235 H   0  0  0  0  0  0  0  0  0  0  0  0
  1  2  2  0
  2  3  1  0
  3  4  1  0
  4  5  1  0
  5  6  2  0
  5  7  1  0
  7  8  1  0
  8  9  1  0
  9 10  1  0
 10 11  1  0
 11 12  1  0
 12 13  1  0
 13 14  1  0
  2 15  1  0
 15 16  2  0
 16 17  1  0
 17 18  2  0
 18 19  1  0
 19 20  2  0
 20 21  1  0
 21 22  2  0
 22 23  1  0
 23 24  2  0
 12  7  1  0
 24 15  1  0
 23 18  1  0
  3 25  1  0
  4 26  1  0
  4 27  1  0
  8 28  1  0
  8 29  1  0
  9 30  1  0
  9 31  1  0
 10 32  1  0
 10 33  1  0
 11 34  1  0
 11 35  1  0
 12 36  1  6
 13 37  1  0
 13 38  1  0
 14 39  1  0
 16 40  1  0
 17 41  1  0
 19 42  1  0
 20 43  1  0
 21 44  1  0
 22 45  1  0
M  END
>  <smiles>  (37) 
O=C(NCC(=O)N1CCCC[C@H]1CO)c1ccc2ccccc2n1

>  <score_type>  (37) 
oracle

>  <origin>  (37) 
autodockgpu

>  <m_score__min__energy>  (37) 
-7.9000000000000004

>  <m_primary>  (37) 
energy

>  <rmsd>  (37) 
2.347435175090586

>  <m_score__min__rmsd>  (37) 
2.347435175090586

>  <meeko>  (37) 
{"free_energy": -6.4, "intermolecular_energy": -8.19, "internal_energy": -2.25, "cluster_size": 14, "cluster_id": 2, "rank_in_cluster": 11}

>  <energy>  (37) 
-5.69

>  <cluster_rmsd>  (37) 
1.7

>  <cluster>  (37) 
3

$$$$

     RDKit          3D

 45 47  0  0  0  0  0  0  0  0999 V2000
  140.5670   71.1330  222.1070 O   0  0  0  0  0  0  0  0  0  0  0  0
  139.9360   72.1970  222.3510 C   0  0  0  0  0  0  0  0  0  0  0  0
  138.7290   72.0620  223.0910 N   0  0  0  0  0  0  0  0  0  0  0  0
  138.1680   70.8590  223.5780 C   0  0  0  0  0  0  0  0  0  0  0  0
  138.9270   69.8110  224.2100 C   0  0  0  0  0  0  0  0  0  0  0  0
  139.5270   69.0450  223.2980 O   0  0  0  0  0  0  0  0  0  0  0  0
  139.1790   69.4070  225.5090 N   0  0  0  0  0  0  0  0  0  0  0  0
  138.8270   68.1130  226.1110 C   0  0  0  0  0  0  0  0  0  0  0  0
  140.1630   67.3820  226.2170 C   0  0  0  0  0  0  0  0  0  0  0  0
  141.1110   68.1890  227.0740 C   0  0  0  0  0  0  0  0  0  0  0  0
  140.4850   69.4840  227.5340 C   0  0  0  0  0  0  0  0  0  0  0  0
  139.8460   70.2950  226.4640 C   0  0  1  0  0  0  0  0  0  0  0  0
  140.7120   71.3520  225.9280 C   0  0  0  0  0  0  0  0  0  0  0  0
  141.4350   71.0470  224.7840 O   0  0  0  0  0  0  0  0  0  0  0  0
  140.4220   73.4900  221.8980 C   0  0  0  0  0  0  0  0  0  0  0  0
  141.4490   73.5290  220.9830 C   0  0  0  0  0  0  0  0  0  0  0  0
  141.9820   74.7010  220.4900 C   0  0  0  0  0  0  0  0  0  0  0  0
  141.4300   75.8800  220.9620 C   0  0  0  0  0  0  0  0  0  0  0  0
  141.9660   77.0500  220.4670 C   0  0  0  0  0  0  0  0  0  0  0  0
  141.4350   78.2440  220.9200 C   0  0  0  0  0  0  0  0  0  0  0  0
  140.4000   78.2310  221.8420 C   0  0  0  0  0  0  0  0  0  0  0  0
  139.8680   77.0420  222.3350 C   0  0  0  0  0  0  0  0  0  0  0  0
  140.3980   75.8490  221.8810 C   0  0  0  0  0  0  0  0  0  0  0  0
  139.9270   74.6650  222.3190 N   0  0  0  0  0  0  0  0  0  0  0  0
  138.2200   72.9710  223.2830 H   0  0  0  0  0  0  0  0  0  0  0  0
  137.4085   71.1615  224.3140 H   0  0  0  0  0  0  0  0  0  0  0  0
  137.8802   70.3681  222.6366 H   0  0  0  0  0  0  0  0  0  0  0  0
  138.3776   68.2531  227.1052 H   0  0  0  0  0  0  0  0  0  0  0  0
  138.0851   67.5573  225.5187 H   0  0  0  0  0  0  0  0  0  0  0  0
  140.0054   66.3942  226.6745 H   0  0  0  0  0  0  0  0  0  0  0  0
  140.5932   67.2558  225.2125 H   0  0  0  0  0  0  0  0  0  0  0  0
  141.3877   67.5938  227.9567 H   0  0  0  0  0  0  0  0  0  0  0  0
  141.9966   68.4328  226.4688 H   0  0  0  0  0  0  0  0  0  0  0  0
  139.7162   69.2429  228.2829 H   0  0  0  0  0  0  0  0  0  0  0  0
  141.3084   70.0966  227.9299 H   0  0  0  0  0  0  0  0  0  0  0  0
  139.0400   70.9113  226.8889 H   0  0  0  0  0  0  0  0  0  0  0  0
  140.0756   72.2193  225.6983 H   0  0  0  0  0  0  0  0  0  0  0  0
  141.4674   71.5288  226.7078 H   0  0  0  0  0  0  0  0  0  0  0  0
  140.9400   70.5010  224.1380 H   0  0  0  0  0  0  0  0  0  0  0  0
  141.8663   72.5757  220.6265 H   0  0  0  0  0  0  0  0  0  0  0  0
  142.8039   74.6996  219.7589 H   0  0  0  0  0  0  0  0  0  0  0  0
  142.7882   77.0343  219.7364 H   0  0  0  0  0  0  0  0  0  0  0  0
  141.8326   79.2006  220.5500 H   0  0  0  0  0  0  0  0  0  0  0  0
  139.9868   79.1876  222.1945 H   0  0  0  0  0  0  0  0  0  0  0  0
  139.0470   77.0522  223.0670 H   0  0  0  0  0  0  0  0  0  0  0  0
  1  2  2  0
  2  3  1  0
  3  4  1  0
  4  5  1  0
  5  6  2  0
  5  7  1  0
  7  8  1  0
  8  9  1  0
  9 10  1  0
 10 11  1  0
 11 12  1  0
 12 13  1  0
 13 14  1  0
  2 15  1  0
 15 16  2  0
 16 17  1  0
 17 18  2  0
 18 19  1  0
 19 20  2  0
 20 21  1  0
 21 22  2  0
 22 23  1  0
 23 24  2  0
 12  7  1  0
 24 15  1  0
 23 18  1  0
  3 25  1  0
  4 26  1  0
  4 27  1  0
  8 28  1  0
  8 29  1  0
  9 30  1  0
  9 31  1  0
 10 32  1  0
 10 33  1  0
 11 34  1  0
 11 35  1  0
 12 36  1  1
 13 37  1  0
 13 38  1  0
 14 39  1  0
 16 40  1  0
 17 41  1  0
 19 42  1  0
 20 43  1  0
 21 44  1  0
 22 45  1  0
M  END
>  <smiles>  (38) 
O=C(NCC(=O)N1CCCC[C@H]1CO)c1ccc2ccccc2n1

>  <score_type>  (38) 
oracle

>  <origin>  (38) 
autodockgpu

>  <m_score__min__energy>  (38) 
-7.9000000000000004

>  <m_primary>  (38) 
energy

>  <rmsd>  (38) 
8.389681602595738

>  <m_score__min__rmsd>  (38) 
8.389681602595738

>  <meeko>  (38) 
{"free_energy": -6.35, "intermolecular_energy": -8.14, "internal_energy": -2.54, "cluster_size": 20, "cluster_id": 1, "rank_in_cluster": 20}

>  <energy>  (38) 
-5.35

>  <cluster_rmsd>  (38) 
1.59

>  <cluster>  (38) 
3

$$$$

     RDKit          3D

 45 47  0  0  0  0  0  0  0  0999 V2000
  140.4320   71.4610  221.3210 O   0  0  0  0  0  0  0  0  0  0  0  0
  140.0940   72.0300  222.3940 C   0  0  0  0  0  0  0  0  0  0  0  0
  139.7050   73.3940  222.2930 N   0  0  0  0  0  0  0  0  0  0  0  0
  139.6590   74.1730  221.1140 C   0  0  0  0  0  0  0  0  0  0  0  0
  140.6130   75.2010  220.7870 C   0  0  0  0  0  0  0  0  0  0  0  0
  141.3670   75.5000  221.8440 O   0  0  0  0  0  0  0  0  0  0  0  0
  140.9300   75.9450  219.6650 N   0  0  0  0  0  0  0  0  0  0  0  0
  140.2580   77.1680  219.2020 C   0  0  0  0  0  0  0  0  0  0  0  0
  141.2490   78.2810  219.5350 C   0  0  0  0  0  0  0  0  0  0  0  0
  142.5540   78.0220  218.8180 C   0  0  0  0  0  0  0  0  0  0  0  0
  142.5140   76.7360  218.0280 C   0  0  0  0  0  0  0  0  0  0  0  0
  142.0230   75.5470  218.7740 C   0  0  1  0  0  0  0  0  0  0  0  0
  143.0960   74.7180  219.3350 C   0  0  0  0  0  0  0  0  0  0  0  0
  143.7530   75.2150  220.4520 O   0  0  0  0  0  0  0  0  0  0  0  0
  140.1030   71.3240  223.6640 C   0  0  0  0  0  0  0  0  0  0  0  0
  139.5970   70.0450  223.7160 C   0  0  0  0  0  0  0  0  0  0  0  0
  139.5590   69.2900  224.8700 C   0  0  0  0  0  0  0  0  0  0  0  0
  140.0660   69.8810  226.0150 C   0  0  0  0  0  0  0  0  0  0  0  0
  140.0250   69.1230  227.1660 C   0  0  0  0  0  0  0  0  0  0  0  0
  140.5240   69.6870  228.3260 C   0  0  0  0  0  0  0  0  0  0  0  0
  141.0400   70.9730  228.3000 C   0  0  0  0  0  0  0  0  0  0  0  0
  141.0730   71.7280  227.1300 C   0  0  0  0  0  0  0  0  0  0  0  0
  140.5760   71.1650  225.9700 C   0  0  0  0  0  0  0  0  0  0  0  0
  140.5800   71.8430  224.8070 N   0  0  0  0  0  0  0  0  0  0  0  0
  139.4240   73.8460  223.2090 H   0  0  0  0  0  0  0  0  0  0  0  0
  139.6980   73.4552  220.2814 H   0  0  0  0  0  0  0  0  0  0  0  0
  138.7583   74.7768  221.2990 H   0  0  0  0  0  0  0  0  0  0  0  0
  140.0682   77.1242  218.1194 H   0  0  0  0  0  0  0  0  0  0  0  0
  139.2769   77.3181  219.6762 H   0  0  0  0  0  0  0  0  0  0  0  0
  140.8375   79.2481  219.2104 H   0  0  0  0  0  0  0  0  0  0  0  0
  141.4245   78.3042  220.6207 H   0  0  0  0  0  0  0  0  0  0  0  0
  142.7539   78.8566  218.1298 H   0  0  0  0  0  0  0  0  0  0  0  0
  143.3481   77.9342  219.5742 H   0  0  0  0  0  0  0  0  0  0  0  0
  141.8541   76.8899  217.1615 H   0  0  0  0  0  0  0  0  0  0  0  0
  143.5562   76.5145  217.7545 H   0  0  0  0  0  0  0  0  0  0  0  0
  141.5730   74.8248  218.0769 H   0  0  0  0  0  0  0  0  0  0  0  0
  142.6569   73.7481  219.6116 H   0  0  0  0  0  0  0  0  0  0  0  0
  143.8631   74.6698  218.5481 H   0  0  0  0  0  0  0  0  0  0  0  0
  143.1570   75.6500  221.0970 H   0  0  0  0  0  0  0  0  0  0  0  0
  139.2026   69.6020  222.7896 H   0  0  0  0  0  0  0  0  0  0  0  0
  139.1468   68.2702  224.8800 H   0  0  0  0  0  0  0  0  0  0  0  0
  139.6096   68.1045  227.1618 H   0  0  0  0  0  0  0  0  0  0  0  0
  140.5114   69.1166  229.2665 H   0  0  0  0  0  0  0  0  0  0  0  0
  141.4345   71.4097  229.2294 H   0  0  0  0  0  0  0  0  0  0  0  0
  141.4848   72.7480  227.1294 H   0  0  0  0  0  0  0  0  0  0  0  0
  1  2  2  0
  2  3  1  0
  3  4  1  0
  4  5  1  0
  5  6  2  0
  5  7  1  0
  7  8  1  0
  8  9  1  0
  9 10  1  0
 10 11  1  0
 11 12  1  0
 12 13  1  0
 13 14  1  0
  2 15  1  0
 15 16  2  0
 16 17  1  0
 17 18  2  0
 18 19  1  0
 19 20  2  0
 20 21  1  0
 21 22  2  0
 22 23  1  0
 23 24  2  0
 12  7  1  0
 24 15  1  0
 23 18  1  0
  3 25  1  0
  4 26  1  0
  4 27  1  0
  8 28  1  0
  8 29  1  0
  9 30  1  0
  9 31  1  0
 10 32  1  0
 10 33  1  0
 11 34  1  0
 11 35  1  0
 12 36  1  6
 13 37  1  0
 13 38  1  0
 14 39  1  0
 16 40  1  0
 17 41  1  0
 19 42  1  0
 20 43  1  0
 21 44  1  0
 22 45  1  0
M  END
>  <smiles>  (39) 
O=C(NCC(=O)N1CCCC[C@H]1CO)c1ccc2ccccc2n1

>  <score_type>  (39) 
oracle

>  <origin>  (39) 
autodockgpu

>  <m_score__min__energy>  (39) 
-7.9000000000000004

>  <m_primary>  (39) 
energy

>  <rmsd>  (39) 
2.1288202401590035

>  <m_score__min__rmsd>  (39) 
2.1288202401590035

>  <meeko>  (39) 
{"free_energy": -6.57, "intermolecular_energy": -8.36, "internal_energy": -1.86, "cluster_size": 14, "cluster_id": 2, "rank_in_cluster": 5}

>  <energy>  (39) 
-6.56

>  <cluster_rmsd>  (39) 
0.0

>  <cluster>  (39) 
4

$$$$

     RDKit          3D

 45 47  0  0  0  0  0  0  0  0999 V2000
  140.1690   71.2720  221.3470 O   0  0  0  0  0  0  0  0  0  0  0  0
  139.9690   71.8560  222.4460 C   0  0  0  0  0  0  0  0  0  0  0  0
  139.7410   73.2580  222.3870 N   0  0  0  0  0  0  0  0  0  0  0  0
  139.7140   74.0600  221.2220 C   0  0  0  0  0  0  0  0  0  0  0  0
  140.2520   75.3930  221.1460 C   0  0  0  0  0  0  0  0  0  0  0  0
  140.7110   75.7870  222.3350 O   0  0  0  0  0  0  0  0  0  0  0  0
  140.4040   76.3520  220.1620 N   0  0  0  0  0  0  0  0  0  0  0  0
  139.6820   77.6280  220.0580 C   0  0  0  0  0  0  0  0  0  0  0  0
  140.7230   78.6730  220.4540 C   0  0  0  0  0  0  0  0  0  0  0  0
  141.9020   78.5890  219.5120 C   0  0  0  0  0  0  0  0  0  0  0  0
  141.7300   77.4850  218.4960 C   0  0  0  0  0  0  0  0  0  0  0  0
  141.3460   76.1620  219.0550 C   0  0  1  0  0  0  0  0  0  0  0  0
  142.4830   75.2600  219.2720 C   0  0  0  0  0  0  0  0  0  0  0  0
  143.0400   75.2490  220.5430 O   0  0  0  0  0  0  0  0  0  0  0  0
  139.9750   71.1290  223.7050 C   0  0  0  0  0  0  0  0  0  0  0  0
  139.4770   69.8460  223.7320 C   0  0  0  0  0  0  0  0  0  0  0  0
  139.4370   69.0720  224.8730 C   0  0  0  0  0  0  0  0  0  0  0  0
  139.9310   69.6480  226.0310 C   0  0  0  0  0  0  0  0  0  0  0  0
  139.8870   68.8700  227.1700 C   0  0  0  0  0  0  0  0  0  0  0  0
  140.3740   69.4190  228.3420 C   0  0  0  0  0  0  0  0  0  0  0  0
  140.8800   70.7090  228.3400 C   0  0  0  0  0  0  0  0  0  0  0  0
  140.9170   71.4840  227.1830 C   0  0  0  0  0  0  0  0  0  0  0  0
  140.4310   70.9360  226.0110 C   0  0  0  0  0  0  0  0  0  0  0  0
  140.4400   71.6330  224.8590 N   0  0  0  0  0  0  0  0  0  0  0  0
  139.5750   73.7230  223.3250 H   0  0  0  0  0  0  0  0  0  0  0  0
  140.2428   73.4814  220.4503 H   0  0  0  0  0  0  0  0  0  0  0  0
  138.6368   74.2658  221.1367 H   0  0  0  0  0  0  0  0  0  0  0  0
  139.3306   77.7960  219.0293 H   0  0  0  0  0  0  0  0  0  0  0  0
  138.7851   77.6608  220.6940 H   0  0  0  0  0  0  0  0  0  0  0  0
  140.2766   79.6766  220.3947 H   0  0  0  0  0  0  0  0  0  0  0  0
  141.0609   78.4833  221.4835 H   0  0  0  0  0  0  0  0  0  0  0  0
  142.0037   79.5477  218.9824 H   0  0  0  0  0  0  0  0  0  0  0  0
  142.8005   78.3692  220.1073 H   0  0  0  0  0  0  0  0  0  0  0  0
  140.9480   77.7944  217.7869 H   0  0  0  0  0  0  0  0  0  0  0  0
  142.7163   77.3439  218.0299 H   0  0  0  0  0  0  0  0  0  0  0  0
  140.7887   75.5843  218.3029 H   0  0  0  0  0  0  0  0  0  0  0  0
  142.1440   74.2377  219.0485 H   0  0  0  0  0  0  0  0  0  0  0  0
  143.2788   75.6367  218.6126 H   0  0  0  0  0  0  0  0  0  0  0  0
  142.5520   75.7990  221.1910 H   0  0  0  0  0  0  0  0  0  0  0  0
  139.0913   69.4161  222.7959 H   0  0  0  0  0  0  0  0  0  0  0  0
  139.0330   68.0489  224.8634 H   0  0  0  0  0  0  0  0  0  0  0  0
  139.4788   67.8488  227.1464 H   0  0  0  0  0  0  0  0  0  0  0  0
  140.3598   68.8334  229.2731 H   0  0  0  0  0  0  0  0  0  0  0  0
  141.2637   71.1335  229.2795 H   0  0  0  0  0  0  0  0  0  0  0  0
  141.3228   72.5063  227.2017 H   0  0  0  0  0  0  0  0  0  0  0  0
  1  2  2  0
  2  3  1  0
  3  4  1  0
  4  5  1  0
  5  6  2  0
  5  7  1  0
  7  8  1  0
  8  9  1  0
  9 10  1  0
 10 11  1  0
 11 12  1  0
 12 13  1  0
 13 14  1  0
  2 15  1  0
 15 16  2  0
 16 17  1  0
 17 18  2  0
 18 19  1  0
 19 20  2  0
 20 21  1  0
 21 22  2  0
 22 23  1  0
 23 24  2  0
 12  7  1  0
 24 15  1  0
 23 18  1  0
  3 25  1  0
  4 26  1  0
  4 27  1  0
  8 28  1  0
  8 29  1  0
  9 30  1  0
  9 31  1  0
 10 32  1  0
 10 33  1  0
 11 34  1  0
 11 35  1  0
 12 36  1  6
 13 37  1  0
 13 38  1  0
 14 39  1  0
 16 40  1  0
 17 41  1  0
 19 42  1  0
 20 43  1  0
 21 44  1  0
 22 45  1  0
M  END
>  <smiles>  (40) 
O=C(NCC(=O)N1CCCC[C@H]1CO)c1ccc2ccccc2n1

>  <score_type>  (40) 
oracle

>  <origin>  (40) 
autodockgpu

>  <m_score__min__energy>  (40) 
-7.9000000000000004

>  <m_primary>  (40) 
energy

>  <rmsd>  (40) 
2.126475078371288

>  <m_score__min__rmsd>  (40) 
2.126475078371288

>  <meeko>  (40) 
{"free_energy": -6.54, "intermolecular_energy": -8.33, "internal_energy": -1.95, "cluster_size": 14, "cluster_id": 2, "rank_in_cluster": 9}

>  <energy>  (40) 
-6.53

>  <cluster_rmsd>  (40) 
1.01

>  <cluster>  (40) 
4

$$$$

     RDKit          3D

 45 47  0  0  0  0  0  0  0  0999 V2000
  140.9890   71.1640  221.6910 O   0  0  0  0  0  0  0  0  0  0  0  0
  140.7180   72.2790  222.2130 C   0  0  0  0  0  0  0  0  0  0  0  0
  140.0320   72.2450  223.4580 N   0  0  0  0  0  0  0  0  0  0  0  0
  139.6250   71.0910  224.1660 C   0  0  0  0  0  0  0  0  0  0  0  0
  140.1750   70.6830  225.4330 C   0  0  0  0  0  0  0  0  0  0  0  0
  141.1840   71.4790  225.7890 O   0  0  0  0  0  0  0  0  0  0  0  0
  139.9210   69.6840  226.3550 N   0  0  0  0  0  0  0  0  0  0  0  0
  139.9600   68.2340  226.1130 C   0  0  0  0  0  0  0  0  0  0  0  0
  141.2420   67.7800  226.8080 C   0  0  0  0  0  0  0  0  0  0  0  0
  141.1660   68.1270  228.2770 C   0  0  0  0  0  0  0  0  0  0  0  0
  139.8840   68.8490  228.6160 C   0  0  0  0  0  0  0  0  0  0  0  0
  139.5520   70.0010  227.7370 C   0  0  1  0  0  0  0  0  0  0  0  0
  139.9730   71.2980  228.2770 C   0  0  0  0  0  0  0  0  0  0  0  0
  141.3380   71.5440  228.3220 O   0  0  0  0  0  0  0  0  0  0  0  0
  141.0900   73.5290  221.5720 C   0  0  0  0  0  0  0  0  0  0  0  0
  141.8900   73.4880  220.4530 C   0  0  0  0  0  0  0  0  0  0  0  0
  142.2990   74.6150  219.7710 C   0  0  0  0  0  0  0  0  0  0  0  0
  141.8640   75.8330  220.2680 C   0  0  0  0  0  0  0  0  0  0  0  0
  142.2760   76.9570  219.5830 C   0  0  0  0  0  0  0  0  0  0  0  0
  141.8570   78.1870  220.0550 C   0  0  0  0  0  0  0  0  0  0  0  0
  141.0510   78.2540  221.1810 C   0  0  0  0  0  0  0  0  0  0  0  0
  140.6430   77.1110  221.8630 C   0  0  0  0  0  0  0  0  0  0  0  0
  141.0610   75.8810  221.3910 C   0  0  0  0  0  0  0  0  0  0  0  0
  140.7000   74.7390  222.0060 N   0  0  0  0  0  0  0  0  0  0  0  0
  139.8180   73.1960  223.8750 H   0  0  0  0  0  0  0  0  0  0  0  0
  138.5450   71.2120  224.3359 H   0  0  0  0  0  0  0  0  0  0  0  0
  140.0099   70.2979  223.5081 H   0  0  0  0  0  0  0  0  0  0  0  0
  139.0807   67.7401  226.5523 H   0  0  0  0  0  0  0  0  0  0  0  0
  139.9458   67.9821  225.0423 H   0  0  0  0  0  0  0  0  0  0  0  0
  141.3562   66.6920  226.6933 H   0  0  0  0  0  0  0  0  0  0  0  0
  142.1058   68.2881  226.3544 H   0  0  0  0  0  0  0  0  0  0  0  0
  141.2186   67.1991  228.8654 H   0  0  0  0  0  0  0  0  0  0  0  0
  142.0077   68.7939  228.5152 H   0  0  0  0  0  0  0  0  0  0  0  0
  139.0589   68.1243  228.5526 H   0  0  0  0  0  0  0  0  0  0  0  0
  140.0274   69.2666  229.6235 H   0  0  0  0  0  0  0  0  0  0  0  0
  138.4629   70.1538  227.7139 H   0  0  0  0  0  0  0  0  0  0  0  0
  139.5140   72.0816  227.6563 H   0  0  0  0  0  0  0  0  0  0  0  0
  139.6470   71.2918  229.3276 H   0  0  0  0  0  0  0  0  0  0  0  0
  141.8310   71.1680  227.5630 H   0  0  0  0  0  0  0  0  0  0  0  0
  142.2203   72.5060  220.0835 H   0  0  0  0  0  0  0  0  0  0  0  0
  142.9380   74.5501  218.8780 H   0  0  0  0  0  0  0  0  0  0  0  0
  142.9159   76.8775  218.6918 H   0  0  0  0  0  0  0  0  0  0  0  0
  142.1620   79.1093  219.5389 H   0  0  0  0  0  0  0  0  0  0  0  0
  140.7244   79.2389  221.5461 H   0  0  0  0  0  0  0  0  0  0  0  0
  140.0039   77.1849  222.7553 H   0  0  0  0  0  0  0  0  0  0  0  0
  1  2  2  0
  2  3  1  0
  3  4  1  0
  4  5  1  0
  5  6  2  0
  5  7  1  0
  7  8  1  0
  8  9  1  0
  9 10  1  0
 10 11  1  0
 11 12  1  0
 12 13  1  0
 13 14  1  0
  2 15  1  0
 15 16  2  0
 16 17  1  0
 17 18  2  0
 18 19  1  0
 19 20  2  0
 20 21  1  0
 21 22  2  0
 22 23  1  0
 23 24  2  0
 12  7  1  0
 24 15  1  0
 23 18  1  0
  3 25  1  0
  4 26  1  0
  4 27  1  0
  8 28  1  0
  8 29  1  0
  9 30  1  0
  9 31  1  0
 10 32  1  0
 10 33  1  0
 11 34  1  0
 11 35  1  0
 12 36  1  6
 13 37  1  0
 13 38  1  0
 14 39  1  0
 16 40  1  0
 17 41  1  0
 19 42  1  0
 20 43  1  0
 21 44  1  0
 22 45  1  0
M  END
>  <smiles>  (41) 
O=C(NCC(=O)N1CCCC[C@H]1CO)c1ccc2ccccc2n1

>  <score_type>  (41) 
oracle

>  <origin>  (41) 
autodockgpu

>  <m_score__min__energy>  (41) 
-7.9000000000000004

>  <m_primary>  (41) 
energy

>  <rmsd>  (41) 
8.922038173306653

>  <m_score__min__rmsd>  (41) 
8.922038173306653

>  <meeko>  (41) 
{"free_energy": -6.84, "intermolecular_energy": -8.63, "internal_energy": -1.78, "cluster_size": 20, "cluster_id": 1, "rank_in_cluster": 18}

>  <energy>  (41) 
-6.45

>  <cluster_rmsd>  (41) 
1.01

>  <cluster>  (41) 
4

$$$$

     RDKit          3D

 45 47  0  0  0  0  0  0  0  0999 V2000
  141.2630   71.5930  221.7280 O   0  0  0  0  0  0  0  0  0  0  0  0
  140.4940   71.8990  222.6790 C   0  0  0  0  0  0  0  0  0  0  0  0
  139.8430   73.1600  222.5860 N   0  0  0  0  0  0  0  0  0  0  0  0
  139.9710   74.1000  221.5370 C   0  0  0  0  0  0  0  0  0  0  0  0
  141.1390   74.9130  221.3180 C   0  0  0  0  0  0  0  0  0  0  0  0
  141.1490   75.9590  222.1440 O   0  0  0  0  0  0  0  0  0  0  0  0
  142.2330   74.8780  220.4730 N   0  0  0  0  0  0  0  0  0  0  0  0
  142.9850   73.6850  220.0560 C   0  0  0  0  0  0  0  0  0  0  0  0
  142.5600   73.4720  218.6050 C   0  0  0  0  0  0  0  0  0  0  0  0
  142.9110   74.6990  217.7940 C   0  0  0  0  0  0  0  0  0  0  0  0
  143.5300   75.7780  218.6500 C   0  0  0  0  0  0  0  0  0  0  0  0
  142.7860   76.1060  219.8950 C   0  0  1  0  0  0  0  0  0  0  0  0
  141.8920   77.2620  219.7610 C   0  0  0  0  0  0  0  0  0  0  0  0
  141.8240   78.1290  220.8430 O   0  0  0  0  0  0  0  0  0  0  0  0
  140.2880   71.0080  223.8080 C   0  0  0  0  0  0  0  0  0  0  0  0
  139.5710   69.8480  223.6150 C   0  0  0  0  0  0  0  0  0  0  0  0
  139.3200   68.9360  224.6190 C   0  0  0  0  0  0  0  0  0  0  0  0
  139.8290   69.2360  225.8710 C   0  0  0  0  0  0  0  0  0  0  0  0
  139.5740   68.3210  226.8720 C   0  0  0  0  0  0  0  0  0  0  0  0
  140.0710   68.5940  228.1330 C   0  0  0  0  0  0  0  0  0  0  0  0
  140.7950   69.7550  228.3530 C   0  0  0  0  0  0  0  0  0  0  0  0
  141.0440   70.6700  227.3330 C   0  0  0  0  0  0  0  0  0  0  0  0
  140.5490   70.3980  226.0720 C   0  0  0  0  0  0  0  0  0  0  0  0
  140.7560   71.2430  225.0440 N   0  0  0  0  0  0  0  0  0  0  0  0
  139.2020   73.3920  223.3970 H   0  0  0  0  0  0  0  0  0  0  0  0
  139.8271   73.5297  220.6075 H   0  0  0  0  0  0  0  0  0  0  0  0
  139.2436   74.8626  221.8520 H   0  0  0  0  0  0  0  0  0  0  0  0
  144.0686   73.8615  220.1246 H   0  0  0  0  0  0  0  0  0  0  0  0
  142.7797   72.8106  220.6910 H   0  0  0  0  0  0  0  0  0  0  0  0
  143.0850   72.5974  218.1933 H   0  0  0  0  0  0  0  0  0  0  0  0
  141.4743   73.3007  218.5613 H   0  0  0  0  0  0  0  0  0  0  0  0
  143.6259   74.4140  217.0081 H   0  0  0  0  0  0  0  0  0  0  0  0
  141.9832   75.0981  217.3583 H   0  0  0  0  0  0  0  0  0  0  0  0
  144.5402   75.4484  218.9345 H   0  0  0  0  0  0  0  0  0  0  0  0
  143.5207   76.6932  218.0399 H   0  0  0  0  0  0  0  0  0  0  0  0
  143.4793   76.4921  220.6568 H   0  0  0  0  0  0  0  0  0  0  0  0
  142.2277   77.8431  218.8894 H   0  0  0  0  0  0  0  0  0  0  0  0
  140.8820   76.8359  219.6695 H   0  0  0  0  0  0  0  0  0  0  0  0
  142.2220   77.7680  221.6620 H   0  0  0  0  0  0  0  0  0  0  0  0
  139.1785   69.6381  222.6091 H   0  0  0  0  0  0  0  0  0  0  0  0
  138.7446   68.0169  224.4342 H   0  0  0  0  0  0  0  0  0  0  0  0
  138.9957   67.4066  226.6737 H   0  0  0  0  0  0  0  0  0  0  0  0
  139.8921   67.8911  228.9600 H   0  0  0  0  0  0  0  0  0  0  0  0
  141.1839   69.9596  229.3614 H   0  0  0  0  0  0  0  0  0  0  0  0
  141.6205   71.5866  227.5265 H   0  0  0  0  0  0  0  0  0  0  0  0
  1  2  2  0
  2  3  1  0
  3  4  1  0
  4  5  1  0
  5  6  2  0
  5  7  1  0
  7  8  1  0
  8  9  1  0
  9 10  1  0
 10 11  1  0
 11 12  1  0
 12 13  1  0
 13 14  1  0
  2 15  1  0
 15 16  2  0
 16 17  1  0
 17 18  2  0
 18 19  1  0
 19 20  2  0
 20 21  1  0
 21 22  2  0
 22 23  1  0
 23 24  2  0
 12  7  1  0
 24 15  1  0
 23 18  1  0
  3 25  1  0
  4 26  1  0
  4 27  1  0
  8 28  1  0
  8 29  1  0
  9 30  1  0
  9 31  1  0
 10 32  1  0
 10 33  1  0
 11 34  1  0
 11 35  1  0
 12 36  1  1
 13 37  1  0
 13 38  1  0
 14 39  1  0
 16 40  1  0
 17 41  1  0
 19 42  1  0
 20 43  1  0
 21 44  1  0
 22 45  1  0
M  END
>  <smiles>  (42) 
O=C(NCC(=O)N1CCCC[C@H]1CO)c1ccc2ccccc2n1

>  <score_type>  (42) 
oracle

>  <origin>  (42) 
autodockgpu

>  <m_score__min__energy>  (42) 
-7.9000000000000004

>  <m_primary>  (42) 
energy

>  <rmsd>  (42) 
2.281172245541587

>  <m_score__min__rmsd>  (42) 
2.281172245541587

>  <meeko>  (42) 
{"free_energy": -6.56, "intermolecular_energy": -8.35, "internal_energy": -1.63, "cluster_size": 14, "cluster_id": 2, "rank_in_cluster": 6}

>  <energy>  (42) 
-6.28

>  <cluster_rmsd>  (42) 
0.33

>  <cluster>  (42) 
4

$$$$

     RDKit          3D

 45 47  0  0  0  0  0  0  0  0999 V2000
  139.6190   70.6370  221.4850 O   0  0  0  0  0  0  0  0  0  0  0  0
  139.6360   71.1910  222.6170 C   0  0  0  0  0  0  0  0  0  0  0  0
  139.5440   72.6100  222.6290 N   0  0  0  0  0  0  0  0  0  0  0  0
  139.4330   73.4580  221.5020 C   0  0  0  0  0  0  0  0  0  0  0  0
  140.3610   74.5140  221.1910 C   0  0  0  0  0  0  0  0  0  0  0  0
  140.3460   75.4510  222.1400 O   0  0  0  0  0  0  0  0  0  0  0  0
  141.2460   74.7940  220.1660 N   0  0  0  0  0  0  0  0  0  0  0  0
  141.2550   75.9910  219.3140 C   0  0  0  0  0  0  0  0  0  0  0  0
  142.4540   76.7920  219.8160 C   0  0  0  0  0  0  0  0  0  0  0  0
  143.7080   75.9610  219.6720 C   0  0  0  0  0  0  0  0  0  0  0  0
  143.4090   74.5870  219.1210 C   0  0  0  0  0  0  0  0  0  0  0  0
  142.3110   73.8540  219.8040 C   0  0  1  0  0  0  0  0  0  0  0  0
  142.7760   72.9180  220.8340 C   0  0  0  0  0  0  0  0  0  0  0  0
  142.2410   71.6380  220.8050 O   0  0  0  0  0  0  0  0  0  0  0  0
  139.7470   70.4160  223.8410 C   0  0  0  0  0  0  0  0  0  0  0  0
  139.2320   69.1400  223.8670 C   0  0  0  0  0  0  0  0  0  0  0  0
  139.2850   68.3230  224.9770 C   0  0  0  0  0  0  0  0  0  0  0  0
  139.8940   68.8470  226.1050 C   0  0  0  0  0  0  0  0  0  0  0  0
  139.9440   68.0270  227.2120 C   0  0  0  0  0  0  0  0  0  0  0  0
  140.5460   68.5230  228.3530 C   0  0  0  0  0  0  0  0  0  0  0  0
  141.0720   69.8060  228.3530 C   0  0  0  0  0  0  0  0  0  0  0  0
  141.0130   70.6240  227.2270 C   0  0  0  0  0  0  0  0  0  0  0  0
  140.4120   70.1280  226.0860 C   0  0  0  0  0  0  0  0  0  0  0  0
  140.3250   70.8700  224.9650 N   0  0  0  0  0  0  0  0  0  0  0  0
  139.5600   73.0500  223.5920 H   0  0  0  0  0  0  0  0  0  0  0  0
  139.4364   72.7916  220.6268 H   0  0  0  0  0  0  0  0  0  0  0  0
  138.5378   74.0396  221.7671 H   0  0  0  0  0  0  0  0  0  0  0  0
  141.3827   75.7172  218.2563 H   0  0  0  0  0  0  0  0  0  0  0  0
  140.3138   76.5576  219.3696 H   0  0  0  0  0  0  0  0  0  0  0  0
  142.5541   77.7133  219.2234 H   0  0  0  0  0  0  0  0  0  0  0  0
  142.3051   77.0525  220.8743 H   0  0  0  0  0  0  0  0  0  0  0  0
  144.4000   76.4758  218.9893 H   0  0  0  0  0  0  0  0  0  0  0  0
  144.1548   75.8399  220.6698 H   0  0  0  0  0  0  0  0  0  0  0  0
  143.1359   74.6979  218.0612 H   0  0  0  0  0  0  0  0  0  0  0  0
  144.3190   73.9902  219.2814 H   0  0  0  0  0  0  0  0  0  0  0  0
  141.8415   73.1455  219.1057 H   0  0  0  0  0  0  0  0  0  0  0  0
  143.8671   72.8248  220.7305 H   0  0  0  0  0  0  0  0  0  0  0  0
  142.4380   73.3492  221.7878 H   0  0  0  0  0  0  0  0  0  0  0  0
  141.2850   71.6170  220.5900 H   0  0  0  0  0  0  0  0  0  0  0  0
  138.7535   68.7518  222.9558 H   0  0  0  0  0  0  0  0  0  0  0  0
  138.8648   67.3065  224.9668 H   0  0  0  0  0  0  0  0  0  0  0  0
  139.5193   67.0126  227.1881 H   0  0  0  0  0  0  0  0  0  0  0  0
  140.6077   67.9017  229.2586 H   0  0  0  0  0  0  0  0  0  0  0  0
  141.5491   70.1884  229.2674 H   0  0  0  0  0  0  0  0  0  0  0  0
  141.4345   71.6399  227.2458 H   0  0  0  0  0  0  0  0  0  0  0  0
  1  2  2  0
  2  3  1  0
  3  4  1  0
  4  5  1  0
  5  6  2  0
  5  7  1  0
  7  8  1  0
  8  9  1  0
  9 10  1  0
 10 11  1  0
 11 12  1  0
 12 13  1  0
 13 14  1  0
  2 15  1  0
 15 16  2  0
 16 17  1  0
 17 18  2  0
 18 19  1  0
 19 20  2  0
 20 21  1  0
 21 22  2  0
 22 23  1  0
 23 24  2  0
 12  7  1  0
 24 15  1  0
 23 18  1  0
  3 25  1  0
  4 26  1  0
  4 27  1  0
  8 28  1  0
  8 29  1  0
  9 30  1  0
  9 31  1  0
 10 32  1  0
 10 33  1  0
 11 34  1  0
 11 35  1  0
 12 36  1  6
 13 37  1  0
 13 38  1  0
 14 39  1  0
 16 40  1  0
 17 41  1  0
 19 42  1  0
 20 43  1  0
 21 44  1  0
 22 45  1  0
M  END
>  <smiles>  (43) 
O=C(NCC(=O)N1CCCC[C@H]1CO)c1ccc2ccccc2n1

>  <score_type>  (43) 
oracle

>  <origin>  (43) 
autodockgpu

>  <m_score__min__energy>  (43) 
-7.9000000000000004

>  <m_primary>  (43) 
energy

>  <rmsd>  (43) 
2.458546841764607

>  <m_score__min__rmsd>  (43) 
2.458546841764607

>  <meeko>  (43) 
{"free_energy": -6.29, "intermolecular_energy": -8.08, "internal_energy": -1.95, "cluster_size": 2, "cluster_id": 5, "rank_in_cluster": 1}

>  <energy>  (43) 
-6.29

>  <cluster_rmsd>  (43) 
0.0

>  <cluster>  (43) 
5

$$$$

     RDKit          3D

 45 47  0  0  0  0  0  0  0  0999 V2000
  139.7110   74.6030  222.0450 O   0  0  0  0  0  0  0  0  0  0  0  0
  140.6140   75.4590  221.8440 C   0  0  0  0  0  0  0  0  0  0  0  0
  141.7990   74.9940  221.2090 N   0  0  0  0  0  0  0  0  0  0  0  0
  142.0630   73.6720  220.7810 C   0  0  0  0  0  0  0  0  0  0  0  0
  143.1620   73.3030  219.9280 C   0  0  0  0  0  0  0  0  0  0  0  0
  143.9000   74.3700  219.6190 O   0  0  0  0  0  0  0  0  0  0  0  0
  143.6320   72.1350  219.3560 N   0  0  0  0  0  0  0  0  0  0  0  0
  142.9380   71.3020  218.3620 C   0  0  0  0  0  0  0  0  0  0  0  0
  143.6870   71.5810  217.0610 C   0  0  0  0  0  0  0  0  0  0  0  0
  145.1410   71.2050  217.2290 C   0  0  0  0  0  0  0  0  0  0  0  0
  145.4350   70.7110  218.6250 C   0  0  0  0  0  0  0  0  0  0  0  0
  144.9370   71.5800  219.7240 C   0  0  1  0  0  0  0  0  0  0  0  0
  145.9480   72.5020  220.2530 C   0  0  0  0  0  0  0  0  0  0  0  0
  146.5240   73.3840  219.3500 O   0  0  0  0  0  0  0  0  0  0  0  0
  140.4490   76.8460  222.2440 C   0  0  0  0  0  0  0  0  0  0  0  0
  139.1940   77.2920  222.5900 C   0  0  0  0  0  0  0  0  0  0  0  0
  138.9300   78.5870  222.9830 C   0  0  0  0  0  0  0  0  0  0  0  0
  140.0080   79.4560  223.0200 C   0  0  0  0  0  0  0  0  0  0  0  0
  139.7390   80.7510  223.4120 C   0  0  0  0  0  0  0  0  0  0  0  0
  140.7960   81.6410  223.4580 C   0  0  0  0  0  0  0  0  0  0  0  0
  142.0700   81.2170  223.1150 C   0  0  0  0  0  0  0  0  0  0  0  0
  142.3260   79.9070  222.7190 C   0  0  0  0  0  0  0  0  0  0  0  0
  141.2710   79.0160  222.6730 C   0  0  0  0  0  0  0  0  0  0  0  0
  141.4550   77.7350  222.2990 N   0  0  0  0  0  0  0  0  0  0  0  0
  142.5400   75.7340  221.0520 H   0  0  0  0  0  0  0  0  0  0  0  0
  142.1888   73.0813  221.7004 H   0  0  0  0  0  0  0  0  0  0  0  0
  141.2105   73.4977  220.1080 H   0  0  0  0  0  0  0  0  0  0  0  0
  143.0028   70.2372  218.6301 H   0  0  0  0  0  0  0  0  0  0  0  0
  141.8647   71.5322  218.2911 H   0  0  0  0  0  0  0  0  0  0  0  0
  143.2454   70.9856  216.2483 H   0  0  0  0  0  0  0  0  0  0  0  0
  143.6099   72.6502  216.8144 H   0  0  0  0  0  0  0  0  0  0  0  0
  145.3884   70.4097  216.5105 H   0  0  0  0  0  0  0  0  0  0  0  0
  145.7494   72.1037  217.0493 H   0  0  0  0  0  0  0  0  0  0  0  0
  144.9723   69.7196  218.7393 H   0  0  0  0  0  0  0  0  0  0  0  0
  146.5309   70.6990  218.7192 H   0  0  0  0  0  0  0  0  0  0  0  0
  144.7465   70.9760  220.6234 H   0  0  0  0  0  0  0  0  0  0  0  0
  145.4718   73.0996  221.0443 H   0  0  0  0  0  0  0  0  0  0  0  0
  146.7732   71.8595  220.5940 H   0  0  0  0  0  0  0  0  0  0  0  0
  146.0110   74.2090  219.2240 H   0  0  0  0  0  0  0  0  0  0  0  0
  138.3579   76.5783  222.5510 H   0  0  0  0  0  0  0  0  0  0  0  0
  137.9149   78.9134  223.2534 H   0  0  0  0  0  0  0  0  0  0  0  0
  138.7189   81.0646  223.6787 H   0  0  0  0  0  0  0  0  0  0  0  0
  140.6261   82.6832  223.7661 H   0  0  0  0  0  0  0  0  0  0  0  0
  142.9020   81.9353  223.1568 H   0  0  0  0  0  0  0  0  0  0  0  0
  143.3439   79.5890  222.4492 H   0  0  0  0  0  0  0  0  0  0  0  0
  1  2  2  0
  2  3  1  0
  3  4  1  0
  4  5  1  0
  5  6  2  0
  5  7  1  0
  7  8  1  0
  8  9  1  0
  9 10  1  0
 10 11  1  0
 11 12  1  0
 12 13  1  0
 13 14  1  0
  2 15  1  0
 15 16  2  0
 16 17  1  0
 17 18  2  0
 18 19  1  0
 19 20  2  0
 20 21  1  0
 21 22  2  0
 22 23  1  0
 23 24  2  0
 12  7  1  0
 24 15  1  0
 23 18  1  0
  3 25  1  0
  4 26  1  0
  4 27  1  0
  8 28  1  0
  8 29  1  0
  9 30  1  0
  9 31  1  0
 10 32  1  0
 10 33  1  0
 11 34  1  0
 11 35  1  0
 12 36  1  1
 13 37  1  0
 13 38  1  0
 14 39  1  0
 16 40  1  0
 17 41  1  0
 19 42  1  0
 20 43  1  0
 21 44  1  0
 22 45  1  0
M  END
>  <smiles>  (44) 
O=C(NCC(=O)N1CCCC[C@H]1CO)c1ccc2ccccc2n1

>  <score_type>  (44) 
oracle

>  <origin>  (44) 
autodockgpu

>  <m_score__min__energy>  (44) 
-7.9000000000000004

>  <m_primary>  (44) 
energy

>  <rmsd>  (44) 
7.923052223731881

>  <m_score__min__rmsd>  (44) 
7.923052223731881

>  <meeko>  (44) 
{"free_energy": -6.22, "intermolecular_energy": -8.01, "internal_energy": -2.09, "cluster_size": 4, "cluster_id": 6, "rank_in_cluster": 1}

>  <energy>  (44) 
-5.75

>  <cluster_rmsd>  (44) 
1.01

>  <cluster>  (44) 
5

$$$$

     RDKit          3D

 45 47  0  0  0  0  0  0  0  0999 V2000
  141.0960   71.2250  221.7250 O   0  0  0  0  0  0  0  0  0  0  0  0
  140.7450   72.3400  222.1980 C   0  0  0  0  0  0  0  0  0  0  0  0
  139.9760   72.3080  223.3940 N   0  0  0  0  0  0  0  0  0  0  0  0
  139.5680   71.1550  224.1040 C   0  0  0  0  0  0  0  0  0  0  0  0
  140.2140   70.6680  225.2950 C   0  0  0  0  0  0  0  0  0  0  0  0
  141.3530   71.3250  225.5170 O   0  0  0  0  0  0  0  0  0  0  0  0
  139.9510   69.7000  226.2460 N   0  0  0  0  0  0  0  0  0  0  0  0
  139.9360   68.2440  226.0390 C   0  0  0  0  0  0  0  0  0  0  0  0
  141.2190   67.7640  226.7140 C   0  0  0  0  0  0  0  0  0  0  0  0
  141.1920   68.1480  228.1750 C   0  0  0  0  0  0  0  0  0  0  0  0
  139.9430   68.9210  228.5280 C   0  0  0  0  0  0  0  0  0  0  0  0
  139.6270   70.0620  227.6290 C   0  0  1  0  0  0  0  0  0  0  0  0
  140.1050   71.3560  228.1270 C   0  0  0  0  0  0  0  0  0  0  0  0
  141.4690   71.5960  228.0390 O   0  0  0  0  0  0  0  0  0  0  0  0
  141.1090   73.5890  221.5500 C   0  0  0  0  0  0  0  0  0  0  0  0
  141.9010   73.5460  220.4250 C   0  0  0  0  0  0  0  0  0  0  0  0
  142.3020   74.6720  219.7370 C   0  0  0  0  0  0  0  0  0  0  0  0
  141.8680   75.8900  220.2320 C   0  0  0  0  0  0  0  0  0  0  0  0
  142.2730   77.0130  219.5410 C   0  0  0  0  0  0  0  0  0  0  0  0
  141.8550   78.2430  220.0120 C   0  0  0  0  0  0  0  0  0  0  0  0
  141.0570   78.3130  221.1430 C   0  0  0  0  0  0  0  0  0  0  0  0
  140.6570   77.1710  221.8320 C   0  0  0  0  0  0  0  0  0  0  0  0
  141.0740   75.9400  221.3610 C   0  0  0  0  0  0  0  0  0  0  0  0
  140.7200   74.7990  221.9830 N   0  0  0  0  0  0  0  0  0  0  0  0
  139.6960   73.2580  223.7690 H   0  0  0  0  0  0  0  0  0  0  0  0
  138.5202   71.3350  224.3865 H   0  0  0  0  0  0  0  0  0  0  0  0
  139.8335   70.3648  223.3863 H   0  0  0  0  0  0  0  0  0  0  0  0
  139.0520   67.7906  226.5113 H   0  0  0  0  0  0  0  0  0  0  0  0
  139.8869   67.9671  224.9755 H   0  0  0  0  0  0  0  0  0  0  0  0
  141.2942   66.6703  226.6234 H   0  0  0  0  0  0  0  0  0  0  0  0
  142.0873   68.2322  226.2273 H   0  0  0  0  0  0  0  0  0  0  0  0
  141.2289   67.2331  228.7845 H   0  0  0  0  0  0  0  0  0  0  0  0
  142.0611   68.7916  228.3759 H   0  0  0  0  0  0  0  0  0  0  0  0
  139.0930   68.2232  228.5032 H   0  0  0  0  0  0  0  0  0  0  0  0
  140.1258   69.3575  229.5210 H   0  0  0  0  0  0  0  0  0  0  0  0
  138.5433   70.2506  227.6278 H   0  0  0  0  0  0  0  0  0  0  0  0
  139.5913   72.1428  227.5552 H   0  0  0  0  0  0  0  0  0  0  0  0
  139.8832   71.3491  229.2044 H   0  0  0  0  0  0  0  0  0  0  0  0
  141.8090   71.6030  227.1200 H   0  0  0  0  0  0  0  0  0  0  0  0
  142.2308   72.5636  220.0560 H   0  0  0  0  0  0  0  0  0  0  0  0
  142.9350   74.6057  218.8398 H   0  0  0  0  0  0  0  0  0  0  0  0
  142.9070   76.9322  218.6457 H   0  0  0  0  0  0  0  0  0  0  0  0
  142.1548   79.1641  219.4907 H   0  0  0  0  0  0  0  0  0  0  0  0
  140.7305   79.2985  221.5066 H   0  0  0  0  0  0  0  0  0  0  0  0
  140.0248   77.2465  222.7290 H   0  0  0  0  0  0  0  0  0  0  0  0
  1  2  2  0
  2  3  1  0
  3  4  1  0
  4  5  1  0
  5  6  2  0
  5  7  1  0
  7  8  1  0
  8  9  1  0
  9 10  1  0
 10 11  1  0
 11 12  1  0
 12 13  1  0
 13 14  1  0
  2 15  1  0
 15 16  2  0
 16 17  1  0
 17 18  2  0
 18 19  1  0
 19 20  2  0
 20 21  1  0
 21 22  2  0
 22 23  1  0
 23 24  2  0
 12  7  1  0
 24 15  1  0
 23 18  1  0
  3 25  1  0
  4 26  1  0
  4 27  1  0
  8 28  1  0
  8 29  1  0
  9 30  1  0
  9 31  1  0
 10 32  1  0
 10 33  1  0
 11 34  1  0
 11 35  1  0
 12 36  1  6
 13 37  1  0
 13 38  1  0
 14 39  1  0
 16 40  1  0
 17 41  1  0
 19 42  1  0
 20 43  1  0
 21 44  1  0
 22 45  1  0
M  END
>  <smiles>  (45) 
O=C(NCC(=O)N1CCCC[C@H]1CO)c1ccc2ccccc2n1

>  <score_type>  (45) 
oracle

>  <origin>  (45) 
autodockgpu

>  <m_score__min__energy>  (45) 
-7.9000000000000004

>  <m_primary>  (45) 
energy

>  <rmsd>  (45) 
8.895629910363837

>  <m_score__min__rmsd>  (45) 
8.895629910363837

>  <meeko>  (45) 
{"free_energy": -6.87, "intermolecular_energy": -8.66, "internal_energy": -1.85, "cluster_size": 20, "cluster_id": 1, "rank_in_cluster": 17}

>  <energy>  (45) 
-6.22

>  <cluster_rmsd>  (45) 
0.0

>  <cluster>  (45) 
6

$$$$

     RDKit          3D

 45 47  0  0  0  0  0  0  0  0999 V2000
  141.0500   71.3410  221.4790 O   0  0  0  0  0  0  0  0  0  0  0  0
  140.7500   72.4070  222.0820 C   0  0  0  0  0  0  0  0  0  0  0  0
  140.0500   72.2630  223.3110 N   0  0  0  0  0  0  0  0  0  0  0  0
  139.6600   71.0490  223.9230 C   0  0  0  0  0  0  0  0  0  0  0  0
  140.3430   70.4520  225.0410 C   0  0  0  0  0  0  0  0  0  0  0  0
  141.6360   70.7770  225.0340 O   0  0  0  0  0  0  0  0  0  0  0  0
  139.9950   69.6340  226.1000 N   0  0  0  0  0  0  0  0  0  0  0  0
  139.4870   68.2570  226.0170 C   0  0  0  0  0  0  0  0  0  0  0  0
  140.6680   67.4010  226.4710 C   0  0  0  0  0  0  0  0  0  0  0  0
  141.0640   67.7970  227.8750 C   0  0  0  0  0  0  0  0  0  0  0  0
  140.2180   68.9340  228.3970 C   0  0  0  0  0  0  0  0  0  0  0  0
  140.0920   70.1020  227.4850 C   0  0  1  0  0  0  0  0  0  0  0  0
  141.0400   71.1830  227.7780 C   0  0  0  0  0  0  0  0  0  0  0  0
  140.7950   72.4100  227.1770 O   0  0  0  0  0  0  0  0  0  0  0  0
  141.1010   73.7100  221.5430 C   0  0  0  0  0  0  0  0  0  0  0  0
  141.8970   73.7720  220.4220 C   0  0  0  0  0  0  0  0  0  0  0  0
  142.2880   74.9560  219.8330 C   0  0  0  0  0  0  0  0  0  0  0  0
  141.8370   76.1230  220.4270 C   0  0  0  0  0  0  0  0  0  0  0  0
  142.2310   77.3040  219.8350 C   0  0  0  0  0  0  0  0  0  0  0  0
  141.7960   78.4860  220.4060 C   0  0  0  0  0  0  0  0  0  0  0  0
  140.9930   78.4500  221.5360 C   0  0  0  0  0  0  0  0  0  0  0  0
  140.6040   77.2500  222.1240 C   0  0  0  0  0  0  0  0  0  0  0  0
  141.0380   76.0680  221.5530 C   0  0  0  0  0  0  0  0  0  0  0  0
  140.6950   74.8750  222.0740 N   0  0  0  0  0  0  0  0  0  0  0  0
  139.8100   73.1740  223.7970 H   0  0  0  0  0  0  0  0  0  0  0  0
  138.6230   71.2033  224.2558 H   0  0  0  0  0  0  0  0  0  0  0  0
  139.8975   70.3290  223.1260 H   0  0  0  0  0  0  0  0  0  0  0  0
  138.6235   68.1177  226.6840 H   0  0  0  0  0  0  0  0  0  0  0  0
  139.1363   67.9946  225.0080 H   0  0  0  0  0  0  0  0  0  0  0  0
  140.3791   66.3397  226.4566 H   0  0  0  0  0  0  0  0  0  0  0  0
  141.5184   67.5576  225.7911 H   0  0  0  0  0  0  0  0  0  0  0  0
  140.9408   66.9280  228.5381 H   0  0  0  0  0  0  0  0  0  0  0  0
  142.1114   68.1324  227.8530 H   0  0  0  0  0  0  0  0  0  0  0  0
  139.2080   68.5445  228.5922 H   0  0  0  0  0  0  0  0  0  0  0  0
  140.7286   69.3048  229.2980 H   0  0  0  0  0  0  0  0  0  0  0  0
  139.1440   70.6270  227.6739 H   0  0  0  0  0  0  0  0  0  0  0  0
  141.0399   71.3398  228.8668 H   0  0  0  0  0  0  0  0  0  0  0  0
  142.0001   70.8448  227.3612 H   0  0  0  0  0  0  0  0  0  0  0  0
  141.1470   72.4790  226.2660 H   0  0  0  0  0  0  0  0  0  0  0  0
  142.2391   72.8281  219.9725 H   0  0  0  0  0  0  0  0  0  0  0  0
  142.9257   74.9727  218.9369 H   0  0  0  0  0  0  0  0  0  0  0  0
  142.8694   77.3061  218.9392 H   0  0  0  0  0  0  0  0  0  0  0  0
  142.0859   79.4513  219.9654 H   0  0  0  0  0  0  0  0  0  0  0  0
  140.6536   79.3972  221.9805 H   0  0  0  0  0  0  0  0  0  0  0  0
  139.9671   77.2422  223.0208 H   0  0  0  0  0  0  0  0  0  0  0  0
  1  2  2  0
  2  3  1  0
  3  4  1  0
  4  5  1  0
  5  6  2  0
  5  7  1  0
  7  8  1  0
  8  9  1  0
  9 10  1  0
 10 11  1  0
 11 12  1  0
 12 13  1  0
 13 14  1  0
  2 15  1  0
 15 16  2  0
 16 17  1  0
 17 18  2  0
 18 19  1  0
 19 20  2  0
 20 21  1  0
 21 22  2  0
 22 23  1  0
 23 24  2  0
 12  7  1  0
 24 15  1  0
 23 18  1  0
  3 25  1  0
  4 26  1  0
  4 27  1  0
  8 28  1  0
  8 29  1  0
  9 30  1  0
  9 31  1  0
 10 32  1  0
 10 33  1  0
 11 34  1  0
 11 35  1  0
 12 36  1  1
 13 37  1  0
 13 38  1  0
 14 39  1  0
 16 40  1  0
 17 41  1  0
 19 42  1  0
 20 43  1  0
 21 44  1  0
 22 45  1  0
M  END
>  <smiles>  (46) 
O=C(NCC(=O)N1CCCC[C@H]1CO)c1ccc2ccccc2n1

>  <score_type>  (46) 
oracle

>  <origin>  (46) 
autodockgpu

>  <m_score__min__energy>  (46) 
-7.9000000000000004

>  <m_primary>  (46) 
energy

>  <rmsd>  (46) 
8.870719178565611

>  <m_score__min__rmsd>  (46) 
8.870719178565611

>  <meeko>  (46) 
{"free_energy": -7.07, "intermolecular_energy": -8.86, "internal_energy": -1.76, "cluster_size": 20, "cluster_id": 1, "rank_in_cluster": 8}

>  <energy>  (46) 
-6.19

>  <cluster_rmsd>  (46) 
1.38

>  <cluster>  (46) 
6

$$$$

     RDKit          3D

 45 47  0  0  0  0  0  0  0  0999 V2000
  141.3970   71.6300  221.4900 O   0  0  0  0  0  0  0  0  0  0  0  0
  140.6830   72.5670  221.9390 C   0  0  0  0  0  0  0  0  0  0  0  0
  139.6140   72.1920  222.7990 N   0  0  0  0  0  0  0  0  0  0  0  0
  139.2740   70.8800  223.2000 C   0  0  0  0  0  0  0  0  0  0  0  0
  139.2880   70.4220  224.5650 C   0  0  0  0  0  0  0  0  0  0  0  0
  138.0790   70.0020  224.9370 O   0  0  0  0  0  0  0  0  0  0  0  0
  140.2320   70.3160  225.5700 N   0  0  0  0  0  0  0  0  0  0  0  0
  141.0530   71.4030  226.1230 C   0  0  0  0  0  0  0  0  0  0  0  0
  140.4370   71.6680  227.4950 C   0  0  0  0  0  0  0  0  0  0  0  0
  140.4980   70.4060  228.3250 C   0  0  0  0  0  0  0  0  0  0  0  0
  141.1030   69.2570  227.5540 C   0  0  0  0  0  0  0  0  0  0  0  0
  140.5280   69.0270  226.2020 C   0  0  1  0  0  0  0  0  0  0  0  0
  139.4850   67.9950  226.1710 C   0  0  0  0  0  0  0  0  0  0  0  0
  139.2030   67.4270  224.9370 O   0  0  0  0  0  0  0  0  0  0  0  0
  140.9430   73.9540  221.5920 C   0  0  0  0  0  0  0  0  0  0  0  0
  141.8960   74.2320  220.6390 C   0  0  0  0  0  0  0  0  0  0  0  0
  142.2180   75.5110  220.2380 C   0  0  0  0  0  0  0  0  0  0  0  0
  141.5270   76.5450  220.8480 C   0  0  0  0  0  0  0  0  0  0  0  0
  141.8530   77.8230  220.4450 C   0  0  0  0  0  0  0  0  0  0  0  0
  141.1790   78.8750  221.0370 C   0  0  0  0  0  0  0  0  0  0  0  0
  140.2150   78.6210  222.0000 C   0  0  0  0  0  0  0  0  0  0  0  0
  139.8960   77.3250  222.3980 C   0  0  0  0  0  0  0  0  0  0  0  0
  140.5690   76.2730  221.8070 C   0  0  0  0  0  0  0  0  0  0  0  0
  140.3060   74.9970  222.1480 N   0  0  0  0  0  0  0  0  0  0  0  0
  139.0310   72.9990  223.1620 H   0  0  0  0  0  0  0  0  0  0  0  0
  138.2467   70.7166  222.8422 H   0  0  0  0  0  0  0  0  0  0  0  0
  140.1172   70.3106  222.7819 H   0  0  0  0  0  0  0  0  0  0  0  0
  142.1031   71.0900  226.2195 H   0  0  0  0  0  0  0  0  0  0  0  0
  141.0605   72.2968  225.4819 H   0  0  0  0  0  0  0  0  0  0  0  0
  140.9981   72.4675  228.0010 H   0  0  0  0  0  0  0  0  0  0  0  0
  139.3885   71.9775  227.3734 H   0  0  0  0  0  0  0  0  0  0  0  0
  141.1102   70.5968  229.2187 H   0  0  0  0  0  0  0  0  0  0  0  0
  139.4702   70.1286  228.6020 H   0  0  0  0  0  0  0  0  0  0  0  0
  142.1786   69.4552  227.4367 H   0  0  0  0  0  0  0  0  0  0  0  0
  140.8832   68.3502  228.1366 H   0  0  0  0  0  0  0  0  0  0  0  0
  141.2781   68.5551  225.5504 H   0  0  0  0  0  0  0  0  0  0  0  0
  139.7981   67.1851  226.8463 H   0  0  0  0  0  0  0  0  0  0  0  0
  138.5603   68.5115  226.4680 H   0  0  0  0  0  0  0  0  0  0  0  0
  138.6970   68.0160  224.3400 H   0  0  0  0  0  0  0  0  0  0  0  0
  142.4285   73.3898  220.1730 H   0  0  0  0  0  0  0  0  0  0  0  0
  142.9848   75.7008  219.4725 H   0  0  0  0  0  0  0  0  0  0  0  0
  142.6226   77.9992  219.6791 H   0  0  0  0  0  0  0  0  0  0  0  0
  141.4071   79.9106  220.7446 H   0  0  0  0  0  0  0  0  0  0  0  0
  139.6867   79.4674  222.4632 H   0  0  0  0  0  0  0  0  0  0  0  0
  139.1274   77.1435  223.1637 H   0  0  0  0  0  0  0  0  0  0  0  0
  1  2  2  0
  2  3  1  0
  3  4  1  0
  4  5  1  0
  5  6  2  0
  5  7  1  0
  7  8  1  0
  8  9  1  0
  9 10  1  0
 10 11  1  0
 11 12  1  0
 12 13  1  0
 13 14  1  0
  2 15  1  0
 15 16  2  0
 16 17  1  0
 17 18  2  0
 18 19  1  0
 19 20  2  0
 20 21  1  0
 21 22  2  0
 22 23  1  0
 23 24  2  0
 12  7  1  0
 24 15  1  0
 23 18  1  0
  3 25  1  0
  4 26  1  0
  4 27  1  0
  8 28  1  0
  8 29  1  0
  9 30  1  0
  9 31  1  0
 10 32  1  0
 10 33  1  0
 11 34  1  0
 11 35  1  0
 12 36  1  6
 13 37  1  0
 13 38  1  0
 14 39  1  0
 16 40  1  0
 17 41  1  0
 19 42  1  0
 20 43  1  0
 21 44  1  0
 22 45  1  0
M  END
>  <smiles>  (47) 
O=C(NCC(=O)N1CCCC[C@H]1CO)c1ccc2ccccc2n1

>  <score_type>  (47) 
oracle

>  <origin>  (47) 
autodockgpu

>  <m_score__min__energy>  (47) 
-7.9000000000000004

>  <m_primary>  (47) 
energy

>  <rmsd>  (47) 
8.64895565123543

>  <m_score__min__rmsd>  (47) 
8.64895565123543

>  <meeko>  (47) 
{"free_energy": -7.53, "intermolecular_energy": -9.32, "internal_energy": -1.74, "cluster_size": 20, "cluster_id": 1, "rank_in_cluster": 2}

>  <energy>  (47) 
-6.15

>  <cluster_rmsd>  (47) 
1.41

>  <cluster>  (47) 
6

$$$$

     RDKit          3D

 45 47  0  0  0  0  0  0  0  0999 V2000
  141.4080   71.6430  221.4350 O   0  0  0  0  0  0  0  0  0  0  0  0
  140.7130   72.5730  221.9270 C   0  0  0  0  0  0  0  0  0  0  0  0
  139.6820   72.1840  222.8270 N   0  0  0  0  0  0  0  0  0  0  0  0
  139.3610   70.8650  223.2230 C   0  0  0  0  0  0  0  0  0  0  0  0
  139.2780   70.4300  224.5930 C   0  0  0  0  0  0  0  0  0  0  0  0
  138.0140   70.1720  224.9320 O   0  0  0  0  0  0  0  0  0  0  0  0
  140.1710   70.2230  225.6280 N   0  0  0  0  0  0  0  0  0  0  0  0
  140.7690   71.2500  226.4930 C   0  0  0  0  0  0  0  0  0  0  0  0
  140.0450   71.0760  227.8260 C   0  0  0  0  0  0  0  0  0  0  0  0
  140.2700   69.6730  228.3410 C   0  0  0  0  0  0  0  0  0  0  0  0
  141.0980   68.8510  227.3810 C   0  0  0  0  0  0  0  0  0  0  0  0
  140.6420   68.8770  225.9660 C   0  0  1  0  0  0  0  0  0  0  0  0
  139.7890   67.7410  225.6000 C   0  0  0  0  0  0  0  0  0  0  0  0
  138.4710   67.7820  226.0340 O   0  0  0  0  0  0  0  0  0  0  0  0
  140.9560   73.9650  221.5890 C   0  0  0  0  0  0  0  0  0  0  0  0
  141.9060   74.2610  220.6390 C   0  0  0  0  0  0  0  0  0  0  0  0
  142.2120   75.5470  220.2470 C   0  0  0  0  0  0  0  0  0  0  0  0
  141.5080   76.5680  220.8620 C   0  0  0  0  0  0  0  0  0  0  0  0
  141.8190   77.8520  220.4670 C   0  0  0  0  0  0  0  0  0  0  0  0
  141.1310   78.8920  221.0650 C   0  0  0  0  0  0  0  0  0  0  0  0
  140.1690   78.6210  222.0250 C   0  0  0  0  0  0  0  0  0  0  0  0
  139.8660   77.3180  222.4150 C   0  0  0  0  0  0  0  0  0  0  0  0
  140.5530   76.2780  221.8180 C   0  0  0  0  0  0  0  0  0  0  0  0
  140.3050   74.9970  222.1510 N   0  0  0  0  0  0  0  0  0  0  0  0
  139.1140   72.9840  223.2260 H   0  0  0  0  0  0  0  0  0  0  0  0
  138.3747   70.6543  222.7838 H   0  0  0  0  0  0  0  0  0  0  0  0
  140.2577   70.3235  222.8874 H   0  0  0  0  0  0  0  0  0  0  0  0
  141.8498   71.0820  226.6100 H   0  0  0  0  0  0  0  0  0  0  0  0
  140.6623   72.2648  226.0821 H   0  0  0  0  0  0  0  0  0  0  0  0
  140.4374   71.8013  228.5540 H   0  0  0  0  0  0  0  0  0  0  0  0
  138.9676   71.2464  227.6836 H   0  0  0  0  0  0  0  0  0  0  0  0
  140.7936   69.7276  229.3068 H   0  0  0  0  0  0  0  0  0  0  0  0
  139.2894   69.1869  228.4509 H   0  0  0  0  0  0  0  0  0  0  0  0
  142.1304   69.2294  227.4124 H   0  0  0  0  0  0  0  0  0  0  0  0
  141.0013   67.8067  227.7128 H   0  0  0  0  0  0  0  0  0  0  0  0
  141.4930   68.6963  225.2929 H   0  0  0  0  0  0  0  0  0  0  0  0
  139.7758   67.6750  224.5021 H   0  0  0  0  0  0  0  0  0  0  0  0
  140.2325   66.8726  226.1090 H   0  0  0  0  0  0  0  0  0  0  0  0
  138.0470   68.6570  225.9210 H   0  0  0  0  0  0  0  0  0  0  0  0
  142.4495   73.4288  220.1679 H   0  0  0  0  0  0  0  0  0  0  0  0
  142.9773   75.7514  219.4837 H   0  0  0  0  0  0  0  0  0  0  0  0
  142.5873   78.0424  219.7031 H   0  0  0  0  0  0  0  0  0  0  0  0
  141.3469   79.9321  220.7793 H   0  0  0  0  0  0  0  0  0  0  0  0
  139.6295   79.4580  222.4923 H   0  0  0  0  0  0  0  0  0  0  0  0
  139.0992   77.1221  223.1789 H   0  0  0  0  0  0  0  0  0  0  0  0
  1  2  2  0
  2  3  1  0
  3  4  1  0
  4  5  1  0
  5  6  2  0
  5  7  1  0
  7  8  1  0
  8  9  1  0
  9 10  1  0
 10 11  1  0
 11 12  1  0
 12 13  1  0
 13 14  1  0
  2 15  1  0
 15 16  2  0
 16 17  1  0
 17 18  2  0
 18 19  1  0
 19 20  2  0
 20 21  1  0
 21 22  2  0
 22 23  1  0
 23 24  2  0
 12  7  1  0
 24 15  1  0
 23 18  1  0
  3 25  1  0
  4 26  1  0
  4 27  1  0
  8 28  1  0
  8 29  1  0
  9 30  1  0
  9 31  1  0
 10 32  1  0
 10 33  1  0
 11 34  1  0
 11 35  1  0
 12 36  1  6
 13 37  1  0
 13 38  1  0
 14 39  1  0
 16 40  1  0
 17 41  1  0
 19 42  1  0
 20 43  1  0
 21 44  1  0
 22 45  1  0
M  END
>  <smiles>  (48) 
O=C(NCC(=O)N1CCCC[C@H]1CO)c1ccc2ccccc2n1

>  <score_type>  (48) 
oracle

>  <origin>  (48) 
autodockgpu

>  <m_score__min__energy>  (48) 
-7.9000000000000004

>  <m_primary>  (48) 
energy

>  <rmsd>  (48) 
8.690514200064197

>  <m_score__min__rmsd>  (48) 
8.690514200064197

>  <meeko>  (48) 
{"free_energy": -6.98, "intermolecular_energy": -8.77, "internal_energy": -1.9, "cluster_size": 20, "cluster_id": 1, "rank_in_cluster": 15}

>  <energy>  (48) 
-5.83

>  <cluster_rmsd>  (48) 
0.72

>  <cluster>  (48) 
6

$$$$

     RDKit          3D

 45 47  0  0  0  0  0  0  0  0999 V2000
  138.5760   70.3680  221.5910 O   0  0  0  0  0  0  0  0  0  0  0  0
  138.9200   71.1780  222.4940 C   0  0  0  0  0  0  0  0  0  0  0  0
  138.8580   72.5600  222.1620 N   0  0  0  0  0  0  0  0  0  0  0  0
  138.4500   73.1130  220.9260 C   0  0  0  0  0  0  0  0  0  0  0  0
  137.6070   74.2740  220.7990 C   0  0  0  0  0  0  0  0  0  0  0  0
  137.7730   74.8510  219.6090 O   0  0  0  0  0  0  0  0  0  0  0  0
  136.6860   74.9280  221.5960 N   0  0  0  0  0  0  0  0  0  0  0  0
  135.3040   74.5080  221.8690 C   0  0  0  0  0  0  0  0  0  0  0  0
  135.3510   73.9990  223.3080 C   0  0  0  0  0  0  0  0  0  0  0  0
  135.8160   75.1120  224.2190 C   0  0  0  0  0  0  0  0  0  0  0  0
  136.1340   76.3710  223.4480 C   0  0  0  0  0  0  0  0  0  0  0  0
  137.0210   76.1860  222.2680 C   0  0  1  0  0  0  0  0  0  0  0  0
  138.4360   76.4580  222.5450 C   0  0  0  0  0  0  0  0  0  0  0  0
  139.2640   75.3580  222.7100 O   0  0  0  0  0  0  0  0  0  0  0  0
  139.3570   70.7200  223.8020 C   0  0  0  0  0  0  0  0  0  0  0  0
  139.2110   69.3890  224.1200 C   0  0  0  0  0  0  0  0  0  0  0  0
  139.5930   68.8520  225.3320 C   0  0  0  0  0  0  0  0  0  0  0  0
  140.1470   69.7270  226.2510 C   0  0  0  0  0  0  0  0  0  0  0  0
  140.5260   69.1860  227.4620 C   0  0  0  0  0  0  0  0  0  0  0  0
  141.0820   70.0370  228.4000 C   0  0  0  0  0  0  0  0  0  0  0  0
  141.2400   71.3820  228.1030 C   0  0  0  0  0  0  0  0  0  0  0  0
  140.8510   71.9140  226.8760 C   0  0  0  0  0  0  0  0  0  0  0  0
  140.2960   71.0650  225.9380 C   0  0  0  0  0  0  0  0  0  0  0  0
  139.9000   71.5190  224.7340 N   0  0  0  0  0  0  0  0  0  0  0  0
  139.1510   73.2180  222.9380 H   0  0  0  0  0  0  0  0  0  0  0  0
  139.3781   73.3591  220.3893 H   0  0  0  0  0  0  0  0  0  0  0  0
  137.7756   72.3255  220.5586 H   0  0  0  0  0  0  0  0  0  0  0  0
  134.6115   75.3577  221.7771 H   0  0  0  0  0  0  0  0  0  0  0  0
  134.9451   73.7460  221.1615 H   0  0  0  0  0  0  0  0  0  0  0  0
  134.3470   73.6697  223.6138 H   0  0  0  0  0  0  0  0  0  0  0  0
  136.0500   73.1523  223.3757 H   0  0  0  0  0  0  0  0  0  0  0  0
  135.0215   75.3315  224.9474 H   0  0  0  0  0  0  0  0  0  0  0  0
  136.7345   74.7792  224.7246 H   0  0  0  0  0  0  0  0  0  0  0  0
  135.1855   76.8028  223.0960 H   0  0  0  0  0  0  0  0  0  0  0  0
  136.6836   77.0230  224.1429 H   0  0  0  0  0  0  0  0  0  0  0  0
  136.8220   76.9691  221.5216 H   0  0  0  0  0  0  0  0  0  0  0  0
  138.8316   77.0492  221.7060 H   0  0  0  0  0  0  0  0  0  0  0  0
  138.4449   76.9730  223.5169 H   0  0  0  0  0  0  0  0  0  0  0  0
  138.8090   74.5760  223.0850 H   0  0  0  0  0  0  0  0  0  0  0  0
  138.7669   68.7189  223.3692 H   0  0  0  0  0  0  0  0  0  0  0  0
  139.4640   67.7830  225.5569 H   0  0  0  0  0  0  0  0  0  0  0  0
  140.3908   68.1152  227.6743 H   0  0  0  0  0  0  0  0  0  0  0  0
  141.3980   69.6477  229.3791 H   0  0  0  0  0  0  0  0  0  0  0  0
  141.6850   72.0475  228.8574 H   0  0  0  0  0  0  0  0  0  0  0  0
  140.9825   72.9843  226.6590 H   0  0  0  0  0  0  0  0  0  0  0  0
  1  2  2  0
  2  3  1  0
  3  4  1  0
  4  5  1  0
  5  6  2  0
  5  7  1  0
  7  8  1  0
  8  9  1  0
  9 10  1  0
 10 11  1  0
 11 12  1  0
 12 13  1  0
 13 14  1  0
  2 15  1  0
 15 16  2  0
 16 17  1  0
 17 18  2  0
 18 19  1  0
 19 20  2  0
 20 21  1  0
 21 22  2  0
 22 23  1  0
 23 24  2  0
 12  7  1  0
 24 15  1  0
 23 18  1  0
  3 25  1  0
  4 26  1  0
  4 27  1  0
  8 28  1  0
  8 29  1  0
  9 30  1  0
  9 31  1  0
 10 32  1  0
 10 33  1  0
 11 34  1  0
 11 35  1  0
 12 36  1  6
 13 37  1  0
 13 38  1  0
 14 39  1  0
 16 40  1  0
 17 41  1  0
 19 42  1  0
 20 43  1  0
 21 44  1  0
 22 45  1  0
M  END
>  <smiles>  (49) 
O=C(NCC(=O)N1CCCC[C@H]1CO)c1ccc2ccccc2n1

>  <score_type>  (49) 
oracle

>  <origin>  (49) 
autodockgpu

>  <m_score__min__energy>  (49) 
-7.9000000000000004

>  <m_primary>  (49) 
energy

>  <rmsd>  (49) 
3.7415269309821757

>  <m_score__min__rmsd>  (49) 
3.7415269309821757

>  <meeko>  (49) 
{"free_energy": -6.2, "intermolecular_energy": -7.99, "internal_energy": -1.93, "cluster_size": 1, "cluster_id": 7, "rank_in_cluster": 1}

>  <energy>  (49) 
-6.2

>  <cluster_rmsd>  (49) 
0.0

>  <cluster>  (49) 
7

$$$$

     RDKit          3D

 45 47  0  0  0  0  0  0  0  0999 V2000
  141.3880   71.5050  221.7370 O   0  0  0  0  0  0  0  0  0  0  0  0
  140.8280   72.5650  222.1260 C   0  0  0  0  0  0  0  0  0  0  0  0
  139.8610   72.4290  223.1600 N   0  0  0  0  0  0  0  0  0  0  0  0
  139.4670   71.2270  223.7930 C   0  0  0  0  0  0  0  0  0  0  0  0
  140.1610   70.6360  224.9070 C   0  0  0  0  0  0  0  0  0  0  0  0
  141.4440   71.0000  224.9130 O   0  0  0  0  0  0  0  0  0  0  0  0
  139.8320   69.7930  225.9530 N   0  0  0  0  0  0  0  0  0  0  0  0
  139.2450   68.4490  225.8480 C   0  0  0  0  0  0  0  0  0  0  0  0
  140.4020   67.5150  226.1970 C   0  0  0  0  0  0  0  0  0  0  0  0
  140.9000   67.8310  227.5880 C   0  0  0  0  0  0  0  0  0  0  0  0
  140.1490   68.9880  228.2040 C   0  0  0  0  0  0  0  0  0  0  0  0
  140.0350   70.1970  227.3470 C   0  0  1  0  0  0  0  0  0  0  0  0
  141.0560   71.2150  227.6230 C   0  0  0  0  0  0  0  0  0  0  0  0
  140.7930   72.5020  227.1760 O   0  0  0  0  0  0  0  0  0  0  0  0
  141.1560   73.8560  221.5440 C   0  0  0  0  0  0  0  0  0  0  0  0
  141.9980   73.8990  220.4570 C   0  0  0  0  0  0  0  0  0  0  0  0
  142.3720   75.0700  219.8310 C   0  0  0  0  0  0  0  0  0  0  0  0
  141.8550   76.2440  220.3520 C   0  0  0  0  0  0  0  0  0  0  0  0
  142.2320   77.4120  219.7250 C   0  0  0  0  0  0  0  0  0  0  0  0
  141.7300   78.6000  220.2230 C   0  0  0  0  0  0  0  0  0  0  0  0
  140.8800   78.5840  221.3180 C   0  0  0  0  0  0  0  0  0  0  0  0
  140.5080   77.3970  221.9420 C   0  0  0  0  0  0  0  0  0  0  0  0
  141.0090   76.2090  221.4450 C   0  0  0  0  0  0  0  0  0  0  0  0
  140.6860   75.0270  222.0040 N   0  0  0  0  0  0  0  0  0  0  0  0
  139.4070   73.3350  223.4680 H   0  0  0  0  0  0  0  0  0  0  0  0
  138.4373   71.3973  224.1404 H   0  0  0  0  0  0  0  0  0  0  0  0
  139.6833   70.4946  223.0012 H   0  0  0  0  0  0  0  0  0  0  0  0
  138.4154   68.3275  226.5600 H   0  0  0  0  0  0  0  0  0  0  0  0
  138.8220   68.2472  224.8528 H   0  0  0  0  0  0  0  0  0  0  0  0
  140.0555   66.4717  226.1594 H   0  0  0  0  0  0  0  0  0  0  0  0
  141.2187   67.6555  225.4736 H   0  0  0  0  0  0  0  0  0  0  0  0
  140.7687   66.9427  228.2234 H   0  0  0  0  0  0  0  0  0  0  0  0
  141.9610   68.1122  227.5154 H   0  0  0  0  0  0  0  0  0  0  0  0
  139.1321   68.6442  228.4443 H   0  0  0  0  0  0  0  0  0  0  0  0
  140.7299   69.2934  229.0867 H   0  0  0  0  0  0  0  0  0  0  0  0
  139.1297   70.7622  227.6136 H   0  0  0  0  0  0  0  0  0  0  0  0
  141.1921   71.2628  228.7135 H   0  0  0  0  0  0  0  0  0  0  0  0
  141.9446   70.8911  227.0614 H   0  0  0  0  0  0  0  0  0  0  0  0
  141.0210   72.6450  226.2340 H   0  0  0  0  0  0  0  0  0  0  0  0
  142.3938   72.9499  220.0665 H   0  0  0  0  0  0  0  0  0  0  0  0
  143.0466   75.0710  218.9621 H   0  0  0  0  0  0  0  0  0  0  0  0
  142.9090   77.3994  218.8581 H   0  0  0  0  0  0  0  0  0  0  0  0
  142.0043   79.5553  219.7517 H   0  0  0  0  0  0  0  0  0  0  0  0
  140.4885   79.5365  221.7046 H   0  0  0  0  0  0  0  0  0  0  0  0
  139.8317   77.4043  222.8095 H   0  0  0  0  0  0  0  0  0  0  0  0
  1  2  2  0
  2  3  1  0
  3  4  1  0
  4  5  1  0
  5  6  2  0
  5  7  1  0
  7  8  1  0
  8  9  1  0
  9 10  1  0
 10 11  1  0
 11 12  1  0
 12 13  1  0
 13 14  1  0
  2 15  1  0
 15 16  2  0
 16 17  1  0
 17 18  2  0
 18 19  1  0
 19 20  2  0
 20 21  1  0
 21 22  2  0
 22 23  1  0
 23 24  2  0
 12  7  1  0
 24 15  1  0
 23 18  1  0
  3 25  1  0
  4 26  1  0
  4 27  1  0
  8 28  1  0
  8 29  1  0
  9 30  1  0
  9 31  1  0
 10 32  1  0
 10 33  1  0
 11 34  1  0
 11 35  1  0
 12 36  1  1
 13 37  1  0
 13 38  1  0
 14 39  1  0
 16 40  1  0
 17 41  1  0
 19 42  1  0
 20 43  1  0
 21 44  1  0
 22 45  1  0
M  END
>  <smiles>  (50) 
O=C(NCC(=O)N1CCCC[C@H]1CO)c1ccc2ccccc2n1

>  <score_type>  (50) 
oracle

>  <origin>  (50) 
autodockgpu

>  <m_score__min__energy>  (50) 
-7.9000000000000004

>  <m_primary>  (50) 
energy

>  <rmsd>  (50) 
8.827709661621133

>  <m_score__min__rmsd>  (50) 
8.827709661621133

>  <meeko>  (50) 
{"free_energy": -7.04, "intermolecular_energy": -8.83, "internal_energy": -1.72, "cluster_size": 20, "cluster_id": 1, "rank_in_cluster": 10}

>  <energy>  (50) 
-6.15

>  <cluster_rmsd>  (50) 
0.0

>  <cluster>  (50) 
8

$$$$
