
     RDKit          3D

 51 54  0  0  0  0  0  0  0  0999 V2000
  143.2770   80.8870  223.8460 C   0  0  0  0  0  0  0  0  0  0  0  0
  142.0340   80.3740  223.3610 N   0  0  0  0  0  0  0  0  0  0  0  0
  141.7900   80.6080  221.9690 C   0  0  0  0  0  0  0  0  0  0  0  0
  140.4000   80.0280  221.6720 C   0  0  0  0  0  0  0  0  0  0  0  0
  140.5850   78.6230  221.6860 N   0  0  0  0  0  0  0  0  0  0  0  0
  140.8170   77.9610  220.4640 C   0  0  0  0  0  0  0  0  0  0  0  0
  141.4380   76.6290  220.5380 C   0  0  0  0  0  0  0  0  0  0  0  0
  142.6680   76.3100  220.0020 C   0  0  0  0  0  0  0  0  0  0  0  0
  143.1740   75.0090  220.1220 C   0  0  0  0  0  0  0  0  0  0  0  0
  142.4410   74.0370  220.7790 C   0  0  0  0  0  0  0  0  0  0  0  0
  142.8800   72.7380  220.9330 C   0  0  0  0  0  0  0  0  0  0  0  0
  144.1430   72.3730  220.3930 N   0  0  0  0  0  0  0  0  0  0  0  0
  142.1160   71.8430  221.5840 N   0  0  0  0  0  0  0  0  0  0  0  0
  140.9270   72.1620  222.1000 C   0  0  0  0  0  0  0  0  0  0  0  0
  140.1190   71.1820  222.7980 C   0  0  0  0  0  0  0  0  0  0  0  0
  139.5060   71.4970  223.9090 C   0  0  0  0  0  0  0  0  0  0  0  0
  139.9220   71.0690  225.2380 C   0  0  0  0  0  0  0  0  0  0  0  0
  140.7270   71.8860  226.0410 C   0  0  0  0  0  0  0  0  0  0  0  0
  141.1300   71.4940  227.3010 C   0  0  0  0  0  0  0  0  0  0  0  0
  140.7280   70.2680  227.7780 C   0  0  0  0  0  0  0  0  0  0  0  0
  139.9600   69.4710  227.0280 N   0  0  0  0  0  0  0  0  0  0  0  0
  139.5680   69.8600  225.7920 C   0  0  0  0  0  0  0  0  0  0  0  0
  140.4900   73.4380  221.9520 N   0  0  0  0  0  0  0  0  0  0  0  0
  141.2160   74.3650  221.3110 C   0  0  0  0  0  0  0  0  0  0  0  0
  140.7100   75.6360  221.2010 C   0  0  0  0  0  0  0  0  0  0  0  0
  141.2290   78.0990  222.8310 C   0  0  0  0  0  0  0  0  0  0  0  0
  141.6410   79.1040  223.8520 C   0  0  0  0  0  0  0  0  0  0  0  0
  143.2706   80.8843  224.9460 H   0  0  0  0  0  0  0  0  0  0  0  0
  144.1011   80.2555  223.4826 H   0  0  0  0  0  0  0  0  0  0  0  0
  143.4158   81.9159  223.4826 H   0  0  0  0  0  0  0  0  0  0  0  0
  141.8061   81.6870  221.7556 H   0  0  0  0  0  0  0  0  0  0  0  0
  142.5620   80.1368  221.3429 H   0  0  0  0  0  0  0  0  0  0  0  0
  139.6796   80.3320  222.4457 H   0  0  0  0  0  0  0  0  0  0  0  0
  139.9968   80.3848  220.7127 H   0  0  0  0  0  0  0  0  0  0  0  0
  139.8472   77.8482  219.9574 H   0  0  0  0  0  0  0  0  0  0  0  0
  141.5458   78.5889  219.9306 H   0  0  0  0  0  0  0  0  0  0  0  0
  143.2539   77.0798  219.4784 H   0  0  0  0  0  0  0  0  0  0  0  0
  144.1558   74.7600  219.6930 H   0  0  0  0  0  0  0  0  0  0  0  0
  144.8580   71.8810  220.9900 H   0  0  0  0  0  0  0  0  0  0  0  0
  144.3290   72.6110  219.3900 H   0  0  0  0  0  0  0  0  0  0  0  0
  140.0207   70.1653  222.3899 H   0  0  0  0  0  0  0  0  0  0  0  0
  138.6106   72.1316  223.8349 H   0  0  0  0  0  0  0  0  0  0  0  0
  141.0465   72.8661  225.6573 H   0  0  0  0  0  0  0  0  0  0  0  0
  141.7631   72.1518  227.9147 H   0  0  0  0  0  0  0  0  0  0  0  0
  141.0398   69.9418  228.7812 H   0  0  0  0  0  0  0  0  0  0  0  0
  138.9371   69.1780  225.2031 H   0  0  0  0  0  0  0  0  0  0  0  0
  139.7282   75.8745  221.6360 H   0  0  0  0  0  0  0  0  0  0  0  0
  140.5399   77.3896  223.3125 H   0  0  0  0  0  0  0  0  0  0  0  0
  142.1595   77.6371  222.4693 H   0  0  0  0  0  0  0  0  0  0  0  0
  140.7913   79.2567  224.5337 H   0  0  0  0  0  0  0  0  0  0  0  0
  142.5382   78.6845  224.3307 H   0  0  0  0  0  0  0  0  0  0  0  0
  1  2  1  0
  2  3  1  0
  3  4  1  0
  4  5  1  0
  5  6  1  0
  6  7  1  0
  7  8  2  0
  8  9  1  0
  9 10  2  0
 10 11  1  0
 11 12  1  0
 11 13  2  0
 13 14  1  0
 14 15  1  0
 15 16  2  0
 16 17  1  0
 17 18  2  0
 18 19  1  0
 19 20  2  0
 20 21  1  0
 21 22  2  0
 14 23  2  0
 23 24  1  0
 24 25  2  0
  5 26  1  0
 26 27  1  0
 27  2  1  0
 25  7  1  0
 24 10  1  0
 22 17  1  0
  1 28  1  0
  1 29  1  0
  1 30  1  0
  3 31  1  0
  3 32  1  0
  4 33  1  0
  4 34  1  0
  6 35  1  0
  6 36  1  0
  8 37  1  0
  9 38  1  0
 12 39  1  0
 12 40  1  0
 15 41  1  0
 16 42  1  0
 18 43  1  0
 19 44  1  0
 20 45  1  0
 22 46  1  0
 25 47  1  0
 26 48  1  0
 26 49  1  0
 27 50  1  0
 27 51  1  0
M  END
>  <smiles>  (1) 
CN1CCN(Cc2ccc3c(N)nc(/C=C/c4cccnc4)nc3c2)CC1

>  <score_type>  (1) 
oracle

>  <origin>  (1) 
autodockgpu

>  <m_score__min__energy>  (1) 
-8.3100000000000005

>  <m_primary>  (1) 
energy

>  <rmsd>  (1) 
7.200488705924623

>  <m_score__min__rmsd>  (1) 
7.200488705924623

>  <meeko>  (1) 
{"free_energy": -7.8, "intermolecular_energy": -9.59, "internal_energy": -0.64, "cluster_size": 35, "cluster_id": 1, "rank_in_cluster": 23}

>  <energy>  (1) 
-8.31

>  <cluster_rmsd>  (1) 
0.0

>  <cluster>  (1) 
1

$$$$

     RDKit          3D

 51 54  0  0  0  0  0  0  0  0999 V2000
  142.3180   81.4920  223.9430 C   0  0  0  0  0  0  0  0  0  0  0  0
  141.4010   80.5850  223.3260 N   0  0  0  0  0  0  0  0  0  0  0  0
  141.3590   80.6540  221.8960 C   0  0  0  0  0  0  0  0  0  0  0  0
  140.2900   79.6460  221.4480 C   0  0  0  0  0  0  0  0  0  0  0  0
  140.8870   78.3760  221.6440 N   0  0  0  0  0  0  0  0  0  0  0  0
  141.5310   77.7580  220.5530 C   0  0  0  0  0  0  0  0  0  0  0  0
  141.8060   76.3170  220.6740 C   0  0  0  0  0  0  0  0  0  0  0  0
  142.8760   75.6750  220.0880 C   0  0  0  0  0  0  0  0  0  0  0  0
  143.0510   74.2960  220.2590 C   0  0  0  0  0  0  0  0  0  0  0  0
  142.1490   73.5710  221.0150 C   0  0  0  0  0  0  0  0  0  0  0  0
  142.2620   72.2110  221.2230 C   0  0  0  0  0  0  0  0  0  0  0  0
  143.3530   71.5160  220.6350 N   0  0  0  0  0  0  0  0  0  0  0  0
  141.3480   71.5670  221.9720 N   0  0  0  0  0  0  0  0  0  0  0  0
  140.3150   72.1980  222.5340 C   0  0  0  0  0  0  0  0  0  0  0  0
  139.3410   71.4860  223.3370 C   0  0  0  0  0  0  0  0  0  0  0  0
  139.7230   70.5670  224.1840 C   0  0  0  0  0  0  0  0  0  0  0  0
  140.1760   70.8260  225.5440 C   0  0  0  0  0  0  0  0  0  0  0  0
  141.0160   71.9080  225.8310 C   0  0  0  0  0  0  0  0  0  0  0  0
  141.4550   72.1660  227.1140 C   0  0  0  0  0  0  0  0  0  0  0  0
  141.0540   71.3360  228.1350 C   0  0  0  0  0  0  0  0  0  0  0  0
  140.2520   70.2960  227.8830 N   0  0  0  0  0  0  0  0  0  0  0  0
  139.8250   70.0470  226.6230 C   0  0  0  0  0  0  0  0  0  0  0  0
  140.1990   73.5350  222.3340 N   0  0  0  0  0  0  0  0  0  0  0  0
  141.0850   74.2190  221.5960 C   0  0  0  0  0  0  0  0  0  0  0  0
  140.9030   75.5710  221.4370 C   0  0  0  0  0  0  0  0  0  0  0  0
  141.4380   78.1470  222.9260 C   0  0  0  0  0  0  0  0  0  0  0  0
  141.3300   79.2840  223.8840 C   0  0  0  0  0  0  0  0  0  0  0  0
  142.2350   81.4099  225.0368 H   0  0  0  0  0  0  0  0  0  0  0  0
  143.3439   81.2434  223.6334 H   0  0  0  0  0  0  0  0  0  0  0  0
  142.0807   82.5205  223.6334 H   0  0  0  0  0  0  0  0  0  0  0  0
  141.0857   81.6688  221.5713 H   0  0  0  0  0  0  0  0  0  0  0  0
  142.3393   80.4203  221.4551 H   0  0  0  0  0  0  0  0  0  0  0  0
  139.3818   79.7462  222.0605 H   0  0  0  0  0  0  0  0  0  0  0  0
  139.9815   79.8037  220.4040 H   0  0  0  0  0  0  0  0  0  0  0  0
  140.8960   77.9023  219.6665 H   0  0  0  0  0  0  0  0  0  0  0  0
  142.5201   78.2358  220.4943 H   0  0  0  0  0  0  0  0  0  0  0  0
  143.5950   76.2479  219.4839 H   0  0  0  0  0  0  0  0  0  0  0  0
  143.9077   73.7890  219.7909 H   0  0  0  0  0  0  0  0  0  0  0  0
  143.3740   71.3350  219.5970 H   0  0  0  0  0  0  0  0  0  0  0  0
  144.1240   71.1980  221.2680 H   0  0  0  0  0  0  0  0  0  0  0  0
  138.2715   71.7210  223.2327 H   0  0  0  0  0  0  0  0  0  0  0  0
  139.7008   69.5208  223.8449 H   0  0  0  0  0  0  0  0  0  0  0  0
  141.3348   72.5703  225.0126 H   0  0  0  0  0  0  0  0  0  0  0  0
  142.1153   73.0221  227.3168 H   0  0  0  0  0  0  0  0  0  0  0  0
  141.3945   71.5285  229.1631 H   0  0  0  0  0  0  0  0  0  0  0  0
  139.1670   69.1820  226.4535 H   0  0  0  0  0  0  0  0  0  0  0  0
  140.0441   76.0683  221.9114 H   0  0  0  0  0  0  0  0  0  0  0  0
  140.9213   77.2820  223.3672 H   0  0  0  0  0  0  0  0  0  0  0  0
  142.5147   77.9872  222.7675 H   0  0  0  0  0  0  0  0  0  0  0  0
  140.3642   79.1943  224.4029 H   0  0  0  0  0  0  0  0  0  0  0  0
  142.2084   79.1984  224.5405 H   0  0  0  0  0  0  0  0  0  0  0  0
  1  2  1  0
  2  3  1  0
  3  4  1  0
  4  5  1  0
  5  6  1  0
  6  7  1  0
  7  8  2  0
  8  9  1  0
  9 10  2  0
 10 11  1  0
 11 12  1  0
 11 13  2  0
 13 14  1  0
 14 15  1  0
 15 16  2  0
 16 17  1  0
 17 18  2  0
 18 19  1  0
 19 20  2  0
 20 21  1  0
 21 22  2  0
 14 23  2  0
 23 24  1  0
 24 25  2  0
  5 26  1  0
 26 27  1  0
 27  2  1  0
 25  7  1  0
 24 10  1  0
 22 17  1  0
  1 28  1  0
  1 29  1  0
  1 30  1  0
  3 31  1  0
  3 32  1  0
  4 33  1  0
  4 34  1  0
  6 35  1  0
  6 36  1  0
  8 37  1  0
  9 38  1  0
 12 39  1  0
 12 40  1  0
 15 41  1  0
 16 42  1  0
 18 43  1  0
 19 44  1  0
 20 45  1  0
 22 46  1  0
 25 47  1  0
 26 48  1  0
 26 49  1  0
 27 50  1  0
 27 51  1  0
M  END
>  <smiles>  (2) 
CN1CCN(Cc2ccc3c(N)nc(/C=C/c4cccnc4)nc3c2)CC1

>  <score_type>  (2) 
oracle

>  <origin>  (2) 
autodockgpu

>  <m_score__min__energy>  (2) 
-8.3100000000000005

>  <m_primary>  (2) 
energy

>  <rmsd>  (2) 
6.967184950580142

>  <m_score__min__rmsd>  (2) 
6.967184950580142

>  <meeko>  (2) 
{"free_energy": -8.1, "intermolecular_energy": -9.89, "internal_energy": -0.66, "cluster_size": 35, "cluster_id": 1, "rank_in_cluster": 7}

>  <energy>  (2) 
-8.29

>  <cluster_rmsd>  (2) 
0.17

>  <cluster>  (2) 
1

$$$$

     RDKit          3D

 51 54  0  0  0  0  0  0  0  0999 V2000
  138.8670   80.9390  223.8240 C   0  0  0  0  0  0  0  0  0  0  0  0
  140.1740   80.4450  223.5210 N   0  0  0  0  0  0  0  0  0  0  0  0
  140.2780   79.0170  223.4700 C   0  0  0  0  0  0  0  0  0  0  0  0
  141.7530   78.7040  223.1810 C   0  0  0  0  0  0  0  0  0  0  0  0
  141.9340   79.0410  221.8160 N   0  0  0  0  0  0  0  0  0  0  0  0
  141.8150   78.0230  220.8490 C   0  0  0  0  0  0  0  0  0  0  0  0
  140.7630   77.0180  221.0680 C   0  0  0  0  0  0  0  0  0  0  0  0
  139.4260   77.2150  220.7920 C   0  0  0  0  0  0  0  0  0  0  0  0
  138.4970   76.1970  221.0390 C   0  0  0  0  0  0  0  0  0  0  0  0
  138.9160   74.9870  221.5620 C   0  0  0  0  0  0  0  0  0  0  0  0
  138.0550   73.9430  221.8290 C   0  0  0  0  0  0  0  0  0  0  0  0
  136.6700   74.1100  221.5570 N   0  0  0  0  0  0  0  0  0  0  0  0
  138.5310   72.7920  222.3380 N   0  0  0  0  0  0  0  0  0  0  0  0
  139.8260   72.6120  222.6020 C   0  0  0  0  0  0  0  0  0  0  0  0
  140.3190   71.3640  223.1520 C   0  0  0  0  0  0  0  0  0  0  0  0
  139.6720   70.7610  224.1140 C   0  0  0  0  0  0  0  0  0  0  0  0
  140.0460   70.8030  225.5220 C   0  0  0  0  0  0  0  0  0  0  0  0
  140.7560   71.8900  226.0480 C   0  0  0  0  0  0  0  0  0  0  0  0
  141.1180   71.9440  227.3790 C   0  0  0  0  0  0  0  0  0  0  0  0
  140.7710   70.9020  228.2070 C   0  0  0  0  0  0  0  0  0  0  0  0
  140.0940   69.8540  227.7250 N   0  0  0  0  0  0  0  0  0  0  0  0
  139.7420   69.8060  226.4190 C   0  0  0  0  0  0  0  0  0  0  0  0
  140.6780   73.6340  222.3420 N   0  0  0  0  0  0  0  0  0  0  0  0
  140.2510   74.8000  221.8350 C   0  0  0  0  0  0  0  0  0  0  0  0
  141.1720   75.7900  221.5960 C   0  0  0  0  0  0  0  0  0  0  0  0
  141.5040   80.3350  221.4410 C   0  0  0  0  0  0  0  0  0  0  0  0
  140.9020   81.1530  222.5320 C   0  0  0  0  0  0  0  0  0  0  0  0
  138.7374   80.9880  224.9152 H   0  0  0  0  0  0  0  0  0  0  0  0
  138.7466   81.9447  223.3949 H   0  0  0  0  0  0  0  0  0  0  0  0
  138.1115   80.2644  223.3949 H   0  0  0  0  0  0  0  0  0  0  0  0
  139.9768   78.5783  224.4327 H   0  0  0  0  0  0  0  0  0  0  0  0
  139.6200   78.5950  222.6961 H   0  0  0  0  0  0  0  0  0  0  0  0
  142.4105   79.3112  223.8205 H   0  0  0  0  0  0  0  0  0  0  0  0
  142.0021   77.6523  223.3856 H   0  0  0  0  0  0  0  0  0  0  0  0
  141.6173   78.5058  219.8806 H   0  0  0  0  0  0  0  0  0  0  0  0
  142.7612   77.4646  220.9019 H   0  0  0  0  0  0  0  0  0  0  0  0
  139.0883   78.1757  220.3762 H   0  0  0  0  0  0  0  0  0  0  0  0
  137.4321   76.3598  220.8167 H   0  0  0  0  0  0  0  0  0  0  0  0
  136.3330   74.2530  220.5690 H   0  0  0  0  0  0  0  0  0  0  0  0
  136.0090   74.0840  222.3690 H   0  0  0  0  0  0  0  0  0  0  0  0
  141.2450   70.9214  222.7562 H   0  0  0  0  0  0  0  0  0  0  0  0
  138.7794   70.1789  223.8410 H   0  0  0  0  0  0  0  0  0  0  0  0
  141.0321   72.7219  225.3834 H   0  0  0  0  0  0  0  0  0  0  0  0
  141.6755   72.8072  227.7714 H   0  0  0  0  0  0  0  0  0  0  0  0
  141.0515   70.9307  229.2703 H   0  0  0  0  0  0  0  0  0  0  0  0
  139.1865   68.9279  226.0580 H   0  0  0  0  0  0  0  0  0  0  0  0
  142.2347   75.6163  221.8207 H   0  0  0  0  0  0  0  0  0  0  0  0
  142.3748   80.8811  221.0492 H   0  0  0  0  0  0  0  0  0  0  0  0
  140.7046   80.1845  220.7005 H   0  0  0  0  0  0  0  0  0  0  0  0
  141.7183   81.6900  223.0373 H   0  0  0  0  0  0  0  0  0  0  0  0
  140.1664   81.8045  222.0375 H   0  0  0  0  0  0  0  0  0  0  0  0
  1  2  1  0
  2  3  1  0
  3  4  1  0
  4  5  1  0
  5  6  1  0
  6  7  1  0
  7  8  2  0
  8  9  1  0
  9 10  2  0
 10 11  1  0
 11 12  1  0
 11 13  2  0
 13 14  1  0
 14 15  1  0
 15 16  2  0
 16 17  1  0
 17 18  2  0
 18 19  1  0
 19 20  2  0
 20 21  1  0
 21 22  2  0
 14 23  2  0
 23 24  1  0
 24 25  2  0
  5 26  1  0
 26 27  1  0
 27  2  1  0
 25  7  1  0
 24 10  1  0
 22 17  1  0
  1 28  1  0
  1 29  1  0
  1 30  1  0
  3 31  1  0
  3 32  1  0
  4 33  1  0
  4 34  1  0
  6 35  1  0
  6 36  1  0
  8 37  1  0
  9 38  1  0
 12 39  1  0
 12 40  1  0
 15 41  1  0
 16 42  1  0
 18 43  1  0
 19 44  1  0
 20 45  1  0
 22 46  1  0
 25 47  1  0
 26 48  1  0
 26 49  1  0
 27 50  1  0
 27 51  1  0
M  END
>  <smiles>  (3) 
CN1CCN(Cc2ccc3c(N)nc(/C=C/c4cccnc4)nc3c2)CC1

>  <score_type>  (3) 
oracle

>  <origin>  (3) 
autodockgpu

>  <m_score__min__energy>  (3) 
-8.3100000000000005

>  <m_primary>  (3) 
energy

>  <rmsd>  (3) 
6.990128644325039

>  <m_score__min__rmsd>  (3) 
6.990128644325039

>  <meeko>  (3) 
{"free_energy": -7.24, "intermolecular_energy": -9.03, "internal_energy": -0.82, "cluster_size": 9, "cluster_id": 3, "rank_in_cluster": 2}

>  <energy>  (3) 
-8.28

>  <cluster_rmsd>  (3) 
1.16

>  <cluster>  (3) 
1

$$$$

     RDKit          3D

 51 54  0  0  0  0  0  0  0  0999 V2000
  138.8220   80.8710  223.8170 C   0  0  0  0  0  0  0  0  0  0  0  0
  140.1450   80.4430  223.4850 N   0  0  0  0  0  0  0  0  0  0  0  0
  140.3370   79.0230  223.4960 C   0  0  0  0  0  0  0  0  0  0  0  0
  141.8170   78.7860  223.1650 C   0  0  0  0  0  0  0  0  0  0  0  0
  141.9270   79.0670  221.7800 N   0  0  0  0  0  0  0  0  0  0  0  0
  141.8370   77.9980  220.8660 C   0  0  0  0  0  0  0  0  0  0  0  0
  140.7430   77.0350  221.0760 C   0  0  0  0  0  0  0  0  0  0  0  0
  139.4160   77.2900  220.8010 C   0  0  0  0  0  0  0  0  0  0  0  0
  138.4460   76.3080  221.0390 C   0  0  0  0  0  0  0  0  0  0  0  0
  138.8140   75.0780  221.5510 C   0  0  0  0  0  0  0  0  0  0  0  0
  137.9100   74.0670  221.8080 C   0  0  0  0  0  0  0  0  0  0  0  0
  136.5340   74.2940  221.5370 N   0  0  0  0  0  0  0  0  0  0  0  0
  138.3380   72.8930  222.3060 N   0  0  0  0  0  0  0  0  0  0  0  0
  139.6250   72.6570  222.5690 C   0  0  0  0  0  0  0  0  0  0  0  0
  140.0650   71.3850  223.1060 C   0  0  0  0  0  0  0  0  0  0  0  0
  140.2330   71.2300  224.3930 C   0  0  0  0  0  0  0  0  0  0  0  0
  140.1310   69.9590  225.0980 C   0  0  0  0  0  0  0  0  0  0  0  0
  140.8800   69.7120  226.2550 C   0  0  0  0  0  0  0  0  0  0  0  0
  140.7940   68.5130  226.9330 C   0  0  0  0  0  0  0  0  0  0  0  0
  139.9500   67.5360  226.4560 C   0  0  0  0  0  0  0  0  0  0  0  0
  139.2260   67.7510  225.3520 N   0  0  0  0  0  0  0  0  0  0  0  0
  139.3140   68.9280  224.6910 C   0  0  0  0  0  0  0  0  0  0  0  0
  140.5190   73.6460  222.3180 N   0  0  0  0  0  0  0  0  0  0  0  0
  140.1400   74.8320  221.8210 C   0  0  0  0  0  0  0  0  0  0  0  0
  141.1010   75.7860  221.5920 C   0  0  0  0  0  0  0  0  0  0  0  0
  141.4040   80.3120  221.3620 C   0  0  0  0  0  0  0  0  0  0  0  0
  140.7920   81.1450  222.4370 C   0  0  0  0  0  0  0  0  0  0  0  0
  138.7118   80.9066  224.9109 H   0  0  0  0  0  0  0  0  0  0  0  0
  138.6446   81.8724  223.3978 H   0  0  0  0  0  0  0  0  0  0  0  0
  138.0916   80.1633  223.3978 H   0  0  0  0  0  0  0  0  0  0  0  0
  140.0985   78.6141  224.4889 H   0  0  0  0  0  0  0  0  0  0  0  0
  139.6797   78.5250  222.7681 H   0  0  0  0  0  0  0  0  0  0  0  0
  142.4581   79.4620  223.7498 H   0  0  0  0  0  0  0  0  0  0  0  0
  142.1385   77.7625  223.4082 H   0  0  0  0  0  0  0  0  0  0  0  0
  141.7129   78.4287  219.8614 H   0  0  0  0  0  0  0  0  0  0  0  0
  142.7614   77.4190  221.0085 H   0  0  0  0  0  0  0  0  0  0  0  0
  139.1184   78.2674  220.3935 H   0  0  0  0  0  0  0  0  0  0  0  0
  137.3887   76.5162  220.8179 H   0  0  0  0  0  0  0  0  0  0  0  0
  135.8060   74.1060  222.2750 H   0  0  0  0  0  0  0  0  0  0  0  0
  136.2790   74.6530  220.5870 H   0  0  0  0  0  0  0  0  0  0  0  0
  140.2592   70.5432  222.4251 H   0  0  0  0  0  0  0  0  0  0  0  0
  140.4687   72.1250  224.9875 H   0  0  0  0  0  0  0  0  0  0  0  0
  141.5546   70.4941  226.6334 H   0  0  0  0  0  0  0  0  0  0  0  0
  141.3909   68.3408  227.8408 H   0  0  0  0  0  0  0  0  0  0  0  0
  139.8705   66.5747  226.9847 H   0  0  0  0  0  0  0  0  0  0  0  0
  138.7044   69.0680  223.7861 H   0  0  0  0  0  0  0  0  0  0  0  0
  142.1555   75.5667  221.8152 H   0  0  0  0  0  0  0  0  0  0  0  0
  142.2242   80.8899  220.9110 H   0  0  0  0  0  0  0  0  0  0  0  0
  140.5893   80.0773  220.6612 H   0  0  0  0  0  0  0  0  0  0  0  0
  141.5912   81.7537  222.8850 H   0  0  0  0  0  0  0  0  0  0  0  0
  140.0006   81.7269  221.9419 H   0  0  0  0  0  0  0  0  0  0  0  0
  1  2  1  0
  2  3  1  0
  3  4  1  0
  4  5  1  0
  5  6  1  0
  6  7  1  0
  7  8  2  0
  8  9  1  0
  9 10  2  0
 10 11  1  0
 11 12  1  0
 11 13  2  0
 13 14  1  0
 14 15  1  0
 15 16  2  0
 16 17  1  0
 17 18  2  0
 18 19  1  0
 19 20  2  0
 20 21  1  0
 21 22  2  0
 14 23  2  0
 23 24  1  0
 24 25  2  0
  5 26  1  0
 26 27  1  0
 27  2  1  0
 25  7  1  0
 24 10  1  0
 22 17  1  0
  1 28  1  0
  1 29  1  0
  1 30  1  0
  3 31  1  0
  3 32  1  0
  4 33  1  0
  4 34  1  0
  6 35  1  0
  6 36  1  0
  8 37  1  0
  9 38  1  0
 12 39  1  0
 12 40  1  0
 15 41  1  0
 16 42  1  0
 18 43  1  0
 19 44  1  0
 20 45  1  0
 22 46  1  0
 25 47  1  0
 26 48  1  0
 26 49  1  0
 27 50  1  0
 27 51  1  0
M  END
>  <smiles>  (4) 
CN1CCN(Cc2ccc3c(N)nc(/C=C/c4cccnc4)nc3c2)CC1

>  <score_type>  (4) 
oracle

>  <origin>  (4) 
autodockgpu

>  <m_score__min__energy>  (4) 
-8.3100000000000005

>  <m_primary>  (4) 
energy

>  <rmsd>  (4) 
7.016417712835946

>  <m_score__min__rmsd>  (4) 
7.016417712835946

>  <meeko>  (4) 
{"free_energy": -7.42, "intermolecular_energy": -9.21, "internal_energy": -0.73, "cluster_size": 9, "cluster_id": 3, "rank_in_cluster": 1}

>  <energy>  (4) 
-8.26

>  <cluster_rmsd>  (4) 
1.14

>  <cluster>  (4) 
1

$$$$

     RDKit          3D

 51 54  0  0  0  0  0  0  0  0999 V2000
  145.6280   66.3030  218.9740 C   0  0  0  0  0  0  0  0  0  0  0  0
  145.1540   67.5540  218.4710 N   0  0  0  0  0  0  0  0  0  0  0  0
  144.5050   68.3840  219.4420 C   0  0  0  0  0  0  0  0  0  0  0  0
  144.0370   69.6390  218.6910 C   0  0  0  0  0  0  0  0  0  0  0  0
  145.2220   70.3770  218.4470 N   0  0  0  0  0  0  0  0  0  0  0  0
  145.5830   71.3920  219.3550 C   0  0  0  0  0  0  0  0  0  0  0  0
  144.4960   72.2410  219.8690 C   0  0  0  0  0  0  0  0  0  0  0  0
  144.3600   73.5850  219.5960 C   0  0  0  0  0  0  0  0  0  0  0  0
  143.2900   74.3100  220.1350 C   0  0  0  0  0  0  0  0  0  0  0  0
  142.3640   73.6800  220.9460 C   0  0  0  0  0  0  0  0  0  0  0  0
  141.2870   74.3340  221.5100 C   0  0  0  0  0  0  0  0  0  0  0  0
  141.1150   75.7210  221.2500 N   0  0  0  0  0  0  0  0  0  0  0  0
  140.4240   73.6590  222.2890 N   0  0  0  0  0  0  0  0  0  0  0  0
  140.5640   72.3580  222.5480 C   0  0  0  0  0  0  0  0  0  0  0  0
  139.6230   71.6490  223.3920 C   0  0  0  0  0  0  0  0  0  0  0  0
  139.9180   71.3790  224.6360 C   0  0  0  0  0  0  0  0  0  0  0  0
  139.9580   70.0410  225.2100 C   0  0  0  0  0  0  0  0  0  0  0  0
  140.8080   69.7400  226.2820 C   0  0  0  0  0  0  0  0  0  0  0  0
  140.8570   68.4770  226.8360 C   0  0  0  0  0  0  0  0  0  0  0  0
  140.0500   67.4900  226.3190 C   0  0  0  0  0  0  0  0  0  0  0  0
  139.2310   67.7560  225.2950 N   0  0  0  0  0  0  0  0  0  0  0  0
  139.1870   68.9960  224.7560 C   0  0  0  0  0  0  0  0  0  0  0  0
  141.6200   71.7090  221.9970 N   0  0  0  0  0  0  0  0  0  0  0  0
  142.5070   72.3390  221.2130 C   0  0  0  0  0  0  0  0  0  0  0  0
  143.5510   71.6170  220.6900 C   0  0  0  0  0  0  0  0  0  0  0  0
  146.2770   69.6610  217.8340 C   0  0  0  0  0  0  0  0  0  0  0  0
  145.9980   68.2250  217.5510 C   0  0  0  0  0  0  0  0  0  0  0  0
  145.6203   66.3234  220.0738 H   0  0  0  0  0  0  0  0  0  0  0  0
  144.9744   65.4932  218.6177 H   0  0  0  0  0  0  0  0  0  0  0  0
  146.6542   66.1296  218.6177 H   0  0  0  0  0  0  0  0  0  0  0  0
  143.6433   67.8576  219.8783 H   0  0  0  0  0  0  0  0  0  0  0  0
  145.1854   68.6418  220.2670 H   0  0  0  0  0  0  0  0  0  0  0  0
  143.5493   69.3647  217.7440 H   0  0  0  0  0  0  0  0  0  0  0  0
  143.2989   70.2167  219.2667 H   0  0  0  0  0  0  0  0  0  0  0  0
  146.0651   70.9100  220.2182 H   0  0  0  0  0  0  0  0  0  0  0  0
  146.2326   72.0713  218.7835 H   0  0  0  0  0  0  0  0  0  0  0  0
  145.0949   74.0903  218.9521 H   0  0  0  0  0  0  0  0  0  0  0  0
  143.1860   75.3823  219.9129 H   0  0  0  0  0  0  0  0  0  0  0  0
  140.2970   76.0600  220.6800 H   0  0  0  0  0  0  0  0  0  0  0  0
  141.8270   76.3800  221.6440 H   0  0  0  0  0  0  0  0  0  0  0  0
  138.6518   71.3354  222.9817 H   0  0  0  0  0  0  0  0  0  0  0  0
  140.1535   72.2248  225.2987 H   0  0  0  0  0  0  0  0  0  0  0  0
  141.4530   70.5307  226.6928 H   0  0  0  0  0  0  0  0  0  0  0  0
  141.5312   68.2627  227.6783 H   0  0  0  0  0  0  0  0  0  0  0  0
  140.0782   66.4780  226.7493 H   0  0  0  0  0  0  0  0  0  0  0  0
  138.5021   69.1774  223.9146 H   0  0  0  0  0  0  0  0  0  0  0  0
  143.6446   70.5448  220.9172 H   0  0  0  0  0  0  0  0  0  0  0  0
  146.5123   70.1550  216.8797 H   0  0  0  0  0  0  0  0  0  0  0  0
  147.1077   69.6709  218.5550 H   0  0  0  0  0  0  0  0  0  0  0  0
  145.5266   68.1648  216.5590 H   0  0  0  0  0  0  0  0  0  0  0  0
  146.9715   67.7182  217.6241 H   0  0  0  0  0  0  0  0  0  0  0  0
  1  2  1  0
  2  3  1  0
  3  4  1  0
  4  5  1  0
  5  6  1  0
  6  7  1  0
  7  8  2  0
  8  9  1  0
  9 10  2  0
 10 11  1  0
 11 12  1  0
 11 13  2  0
 13 14  1  0
 14 15  1  0
 15 16  2  0
 16 17  1  0
 17 18  2  0
 18 19  1  0
 19 20  2  0
 20 21  1  0
 21 22  2  0
 14 23  2  0
 23 24  1  0
 24 25  2  0
  5 26  1  0
 26 27  1  0
 27  2  1  0
 25  7  1  0
 24 10  1  0
 22 17  1  0
  1 28  1  0
  1 29  1  0
  1 30  1  0
  3 31  1  0
  3 32  1  0
  4 33  1  0
  4 34  1  0
  6 35  1  0
  6 36  1  0
  8 37  1  0
  9 38  1  0
 12 39  1  0
 12 40  1  0
 15 41  1  0
 16 42  1  0
 18 43  1  0
 19 44  1  0
 20 45  1  0
 22 46  1  0
 25 47  1  0
 26 48  1  0
 26 49  1  0
 27 50  1  0
 27 51  1  0
M  END
>  <smiles>  (5) 
CN1CCN(Cc2ccc3c(N)nc(/C=C/c4cccnc4)nc3c2)CC1

>  <score_type>  (5) 
oracle

>  <origin>  (5) 
autodockgpu

>  <m_score__min__energy>  (5) 
-8.3100000000000005

>  <m_primary>  (5) 
energy

>  <rmsd>  (5) 
8.38042445899776

>  <m_score__min__rmsd>  (5) 
8.38042445899776

>  <meeko>  (5) 
{"free_energy": -7.6, "intermolecular_energy": -9.39, "internal_energy": -0.4, "cluster_size": 3, "cluster_id": 2, "rank_in_cluster": 1}

>  <energy>  (5) 
-8.18

>  <cluster_rmsd>  (5) 
1.26

>  <cluster>  (5) 
1

$$$$

     RDKit          3D

 51 54  0  0  0  0  0  0  0  0999 V2000
  141.3980   82.6440  221.9440 C   0  0  0  0  0  0  0  0  0  0  0  0
  141.0010   81.2940  222.1950 N   0  0  0  0  0  0  0  0  0  0  0  0
  140.1910   80.7070  221.1700 C   0  0  0  0  0  0  0  0  0  0  0  0
  139.8410   79.2930  221.6560 C   0  0  0  0  0  0  0  0  0  0  0  0
  141.0420   78.5540  221.5130 N   0  0  0  0  0  0  0  0  0  0  0  0
  141.2360   77.8030  220.3360 C   0  0  0  0  0  0  0  0  0  0  0  0
  141.6400   76.3980  220.5040 C   0  0  0  0  0  0  0  0  0  0  0  0
  142.7590   75.8340  219.9290 C   0  0  0  0  0  0  0  0  0  0  0  0
  143.0590   74.4840  220.1460 C   0  0  0  0  0  0  0  0  0  0  0  0
  142.2340   73.7080  220.9390 C   0  0  0  0  0  0  0  0  0  0  0  0
  142.4710   72.3730  221.1940 C   0  0  0  0  0  0  0  0  0  0  0  0
  143.6150   71.7580  220.6170 N   0  0  0  0  0  0  0  0  0  0  0  0
  141.6260   71.6780  221.9770 N   0  0  0  0  0  0  0  0  0  0  0  0
  140.5460   72.2330  222.5300 C   0  0  0  0  0  0  0  0  0  0  0  0
  139.6470   71.4660  223.3690 C   0  0  0  0  0  0  0  0  0  0  0  0
  140.1160   70.5860  224.2140 C   0  0  0  0  0  0  0  0  0  0  0  0
  140.3910   70.8480  225.6210 C   0  0  0  0  0  0  0  0  0  0  0  0
  139.8420   70.0420  226.6260 C   0  0  0  0  0  0  0  0  0  0  0  0
  140.0930   70.2770  227.9630 C   0  0  0  0  0  0  0  0  0  0  0  0
  140.9040   71.3330  228.3130 C   0  0  0  0  0  0  0  0  0  0  0  0
  141.4380   72.1150  227.3690 N   0  0  0  0  0  0  0  0  0  0  0  0
  141.1890   71.8800  226.0600 C   0  0  0  0  0  0  0  0  0  0  0  0
  140.3070   73.5460  222.2830 N   0  0  0  0  0  0  0  0  0  0  0  0
  141.1200   74.2790  221.5100 C   0  0  0  0  0  0  0  0  0  0  0  0
  140.8160   75.6020  221.3050 C   0  0  0  0  0  0  0  0  0  0  0  0
  142.1920   79.1310  222.1010 C   0  0  0  0  0  0  0  0  0  0  0  0
  141.9800   80.4460  222.7710 C   0  0  0  0  0  0  0  0  0  0  0  0
  141.5512   83.1650  222.9006 H   0  0  0  0  0  0  0  0  0  0  0  0
  142.3358   82.6496  221.3691 H   0  0  0  0  0  0  0  0  0  0  0  0
  140.6125   83.1563  221.3691 H   0  0  0  0  0  0  0  0  0  0  0  0
  139.2745   81.2974  221.0236 H   0  0  0  0  0  0  0  0  0  0  0  0
  140.7218   80.6794  220.2069 H   0  0  0  0  0  0  0  0  0  0  0  0
  139.5211   79.3129  222.7083 H   0  0  0  0  0  0  0  0  0  0  0  0
  139.0109   78.8511  221.0854 H   0  0  0  0  0  0  0  0  0  0  0  0
  140.2895   77.8123  219.7756 H   0  0  0  0  0  0  0  0  0  0  0  0
  142.0806   78.2858  219.8227 H   0  0  0  0  0  0  0  0  0  0  0  0
  143.4186   76.4472  219.2973 H   0  0  0  0  0  0  0  0  0  0  0  0
  143.9532   74.0395  219.6846 H   0  0  0  0  0  0  0  0  0  0  0  0
  144.4460   71.5080  221.2140 H   0  0  0  0  0  0  0  0  0  0  0  0
  143.5950   71.5650  219.5880 H   0  0  0  0  0  0  0  0  0  0  0  0
  138.5612   71.6257  223.2941 H   0  0  0  0  0  0  0  0  0  0  0  0
  140.3180   69.5732  223.8353 H   0  0  0  0  0  0  0  0  0  0  0  0
  139.1938   69.1996  226.3427 H   0  0  0  0  0  0  0  0  0  0  0  0
  139.6521   69.6308  228.7363 H   0  0  0  0  0  0  0  0  0  0  0  0
  141.1136   71.5343  229.3739 H   0  0  0  0  0  0  0  0  0  0  0  0
  141.6455   72.5446  225.3118 H   0  0  0  0  0  0  0  0  0  0  0  0
  139.9206   76.0373  221.7728 H   0  0  0  0  0  0  0  0  0  0  0  0
  142.5781   78.4264  222.8523 H   0  0  0  0  0  0  0  0  0  0  0  0
  142.8900   79.3234  221.2729 H   0  0  0  0  0  0  0  0  0  0  0  0
  141.6817   80.2479  223.8111 H   0  0  0  0  0  0  0  0  0  0  0  0
  142.9330   80.9853  222.6666 H   0  0  0  0  0  0  0  0  0  0  0  0
  1  2  1  0
  2  3  1  0
  3  4  1  0
  4  5  1  0
  5  6  1  0
  6  7  1  0
  7  8  2  0
  8  9  1  0
  9 10  2  0
 10 11  1  0
 11 12  1  0
 11 13  2  0
 13 14  1  0
 14 15  1  0
 15 16  2  0
 16 17  1  0
 17 18  2  0
 18 19  1  0
 19 20  2  0
 20 21  1  0
 21 22  2  0
 14 23  2  0
 23 24  1  0
 24 25  2  0
  5 26  1  0
 26 27  1  0
 27  2  1  0
 25  7  1  0
 24 10  1  0
 22 17  1  0
  1 28  1  0
  1 29  1  0
  1 30  1  0
  3 31  1  0
  3 32  1  0
  4 33  1  0
  4 34  1  0
  6 35  1  0
  6 36  1  0
  8 37  1  0
  9 38  1  0
 12 39  1  0
 12 40  1  0
 15 41  1  0
 16 42  1  0
 18 43  1  0
 19 44  1  0
 20 45  1  0
 22 46  1  0
 25 47  1  0
 26 48  1  0
 26 49  1  0
 27 50  1  0
 27 51  1  0
M  END
>  <smiles>  (6) 
CN1CCN(Cc2ccc3c(N)nc(/C=C/c4cccnc4)nc3c2)CC1

>  <score_type>  (6) 
oracle

>  <origin>  (6) 
autodockgpu

>  <m_score__min__energy>  (6) 
-8.3100000000000005

>  <m_primary>  (6) 
energy

>  <rmsd>  (6) 
6.920248109013154

>  <m_score__min__rmsd>  (6) 
6.920248109013154

>  <meeko>  (6) 
{"free_energy": -7.71, "intermolecular_energy": -9.5, "internal_energy": -0.66, "cluster_size": 35, "cluster_id": 1, "rank_in_cluster": 26}

>  <energy>  (6) 
-8.16

>  <cluster_rmsd>  (6) 
1.17

>  <cluster>  (6) 
1

$$$$

     RDKit          3D

 51 54  0  0  0  0  0  0  0  0999 V2000
  142.5670   81.2700  224.2250 C   0  0  0  0  0  0  0  0  0  0  0  0
  141.7130   80.7150  223.2220 N   0  0  0  0  0  0  0  0  0  0  0  0
  142.3380   80.5020  221.9510 C   0  0  0  0  0  0  0  0  0  0  0  0
  141.2470   79.9550  221.0210 C   0  0  0  0  0  0  0  0  0  0  0  0
  141.0410   78.6200  221.4520 N   0  0  0  0  0  0  0  0  0  0  0  0
  141.7340   77.5850  220.7940 C   0  0  0  0  0  0  0  0  0  0  0  0
  140.9980   76.3290  220.5750 C   0  0  0  0  0  0  0  0  0  0  0  0
  140.3200   76.0130  219.4160 C   0  0  0  0  0  0  0  0  0  0  0  0
  139.6460   74.7910  219.3040 C   0  0  0  0  0  0  0  0  0  0  0  0
  139.6570   73.8930  220.3550 C   0  0  0  0  0  0  0  0  0  0  0  0
  139.0130   72.6730  220.3110 C   0  0  0  0  0  0  0  0  0  0  0  0
  138.3040   72.3150  219.1330 N   0  0  0  0  0  0  0  0  0  0  0  0
  139.0650   71.8470  221.3710 N   0  0  0  0  0  0  0  0  0  0  0  0
  139.7250   72.1620  222.4880 C   0  0  0  0  0  0  0  0  0  0  0  0
  139.7680   71.2580  223.6200 C   0  0  0  0  0  0  0  0  0  0  0  0
  140.6540   71.4200  224.5670 C   0  0  0  0  0  0  0  0  0  0  0  0
  140.6160   70.7580  225.8640 C   0  0  0  0  0  0  0  0  0  0  0  0
  140.4570   69.3700  225.9620 C   0  0  0  0  0  0  0  0  0  0  0  0
  140.4190   68.7280  227.1830 C   0  0  0  0  0  0  0  0  0  0  0  0
  140.5410   69.4750  228.3330 C   0  0  0  0  0  0  0  0  0  0  0  0
  140.6940   70.8010  228.2620 N   0  0  0  0  0  0  0  0  0  0  0  0
  140.7300   71.4260  227.0620 C   0  0  0  0  0  0  0  0  0  0  0  0
  140.3590   73.3590  222.5380 N   0  0  0  0  0  0  0  0  0  0  0  0
  140.3360   74.2160  221.5070 C   0  0  0  0  0  0  0  0  0  0  0  0
  141.0020   75.4100  221.6290 C   0  0  0  0  0  0  0  0  0  0  0  0
  140.7990   78.4520  222.8350 C   0  0  0  0  0  0  0  0  0  0  0  0
  140.8160   79.7020  223.6470 C   0  0  0  0  0  0  0  0  0  0  0  0
  142.1759   81.0158  225.2212 H   0  0  0  0  0  0  0  0  0  0  0  0
  143.5806   80.8575  224.1128 H   0  0  0  0  0  0  0  0  0  0  0  0
  142.6017   82.3637  224.1128 H   0  0  0  0  0  0  0  0  0  0  0  0
  142.7338   81.4499  221.5576 H   0  0  0  0  0  0  0  0  0  0  0  0
  143.1819   79.8012  222.0329 H   0  0  0  0  0  0  0  0  0  0  0  0
  140.3220   80.5419  221.1213 H   0  0  0  0  0  0  0  0  0  0  0  0
  141.5381   80.0095  219.9616 H   0  0  0  0  0  0  0  0  0  0  0  0
  142.0439   77.9653  219.8095 H   0  0  0  0  0  0  0  0  0  0  0  0
  142.5627   77.3198  221.4670 H   0  0  0  0  0  0  0  0  0  0  0  0
  140.3089   76.7238  218.5766 H   0  0  0  0  0  0  0  0  0  0  0  0
  139.1064   74.5449  218.3776 H   0  0  0  0  0  0  0  0  0  0  0  0
  137.3180   71.9490  219.1930 H   0  0  0  0  0  0  0  0  0  0  0  0
  138.7970   72.4300  218.2160 H   0  0  0  0  0  0  0  0  0  0  0  0
  139.0486   70.4282  223.6826 H   0  0  0  0  0  0  0  0  0  0  0  0
  141.4902   72.1070  224.3701 H   0  0  0  0  0  0  0  0  0  0  0  0
  140.3598   68.7759  225.0414 H   0  0  0  0  0  0  0  0  0  0  0  0
  140.2932   67.6365  227.2366 H   0  0  0  0  0  0  0  0  0  0  0  0
  140.5124   68.9786  229.3142 H   0  0  0  0  0  0  0  0  0  0  0  0
  140.8562   72.5186  227.0433 H   0  0  0  0  0  0  0  0  0  0  0  0
  141.5406   75.6447  222.5589 H   0  0  0  0  0  0  0  0  0  0  0  0
  139.8095   77.9859  222.9515 H   0  0  0  0  0  0  0  0  0  0  0  0
  141.6276   77.8354  223.2134 H   0  0  0  0  0  0  0  0  0  0  0  0
  139.8008   80.1253  223.6319 H   0  0  0  0  0  0  0  0  0  0  0  0
  141.1668   79.3991  224.6446 H   0  0  0  0  0  0  0  0  0  0  0  0
  1  2  1  0
  2  3  1  0
  3  4  1  0
  4  5  1  0
  5  6  1  0
  6  7  1  0
  7  8  2  0
  8  9  1  0
  9 10  2  0
 10 11  1  0
 11 12  1  0
 11 13  2  0
 13 14  1  0
 14 15  1  0
 15 16  2  0
 16 17  1  0
 17 18  2  0
 18 19  1  0
 19 20  2  0
 20 21  1  0
 21 22  2  0
 14 23  2  0
 23 24  1  0
 24 25  2  0
  5 26  1  0
 26 27  1  0
 27  2  1  0
 25  7  1  0
 24 10  1  0
 22 17  1  0
  1 28  1  0
  1 29  1  0
  1 30  1  0
  3 31  1  0
  3 32  1  0
  4 33  1  0
  4 34  1  0
  6 35  1  0
  6 36  1  0
  8 37  1  0
  9 38  1  0
 12 39  1  0
 12 40  1  0
 15 41  1  0
 16 42  1  0
 18 43  1  0
 19 44  1  0
 20 45  1  0
 22 46  1  0
 25 47  1  0
 26 48  1  0
 26 49  1  0
 27 50  1  0
 27 51  1  0
M  END
>  <smiles>  (7) 
CN1CCN(Cc2ccc3c(N)nc(/C=C/c4cccnc4)nc3c2)CC1

>  <score_type>  (7) 
oracle

>  <origin>  (7) 
autodockgpu

>  <m_score__min__energy>  (7) 
-8.3100000000000005

>  <m_primary>  (7) 
energy

>  <rmsd>  (7) 
7.031111657503294

>  <m_score__min__rmsd>  (7) 
7.031111657503294

>  <meeko>  (7) 
{"free_energy": -7.15, "intermolecular_energy": -8.94, "internal_energy": -0.56, "cluster_size": 9, "cluster_id": 3, "rank_in_cluster": 8}

>  <energy>  (7) 
-8.1

>  <cluster_rmsd>  (7) 
1.14

>  <cluster>  (7) 
1

$$$$

     RDKit          3D

 51 54  0  0  0  0  0  0  0  0999 V2000
  138.9640   80.9190  223.7410 C   0  0  0  0  0  0  0  0  0  0  0  0
  140.1650   80.2610  223.3300 N   0  0  0  0  0  0  0  0  0  0  0  0
  140.0320   78.8520  223.1080 C   0  0  0  0  0  0  0  0  0  0  0  0
  141.4290   78.3420  222.7260 C   0  0  0  0  0  0  0  0  0  0  0  0
  141.6350   78.8090  221.4040 N   0  0  0  0  0  0  0  0  0  0  0  0
  141.3300   77.9490  220.3300 C   0  0  0  0  0  0  0  0  0  0  0  0
  141.7370   76.5420  220.4710 C   0  0  0  0  0  0  0  0  0  0  0  0
  142.8640   75.9940  219.8950 C   0  0  0  0  0  0  0  0  0  0  0  0
  143.1660   74.6400  220.0850 C   0  0  0  0  0  0  0  0  0  0  0  0
  142.3340   73.8440  220.8520 C   0  0  0  0  0  0  0  0  0  0  0  0
  142.5730   72.5040  221.0790 C   0  0  0  0  0  0  0  0  0  0  0  0
  143.7250   71.9060  220.5010 N   0  0  0  0  0  0  0  0  0  0  0  0
  141.7220   71.7890  221.8360 N   0  0  0  0  0  0  0  0  0  0  0  0
  140.6340   72.3290  222.3900 C   0  0  0  0  0  0  0  0  0  0  0  0
  139.7290   71.5400  223.2020 C   0  0  0  0  0  0  0  0  0  0  0  0
  139.9700   71.3520  224.4730 C   0  0  0  0  0  0  0  0  0  0  0  0
  139.9630   70.0550  225.1370 C   0  0  0  0  0  0  0  0  0  0  0  0
  140.7420   69.8240  226.2770 C   0  0  0  0  0  0  0  0  0  0  0  0
  140.7470   68.6010  226.9170 C   0  0  0  0  0  0  0  0  0  0  0  0
  139.9660   67.5840  226.4180 C   0  0  0  0  0  0  0  0  0  0  0  0
  139.2150   67.7830  225.3290 N   0  0  0  0  0  0  0  0  0  0  0  0
  139.2140   68.9840  224.7060 C   0  0  0  0  0  0  0  0  0  0  0  0
  140.3940   73.6460  222.1710 N   0  0  0  0  0  0  0  0  0  0  0  0
  141.2130   74.3990  221.4230 C   0  0  0  0  0  0  0  0  0  0  0  0
  140.9070   75.7250  221.2450 C   0  0  0  0  0  0  0  0  0  0  0  0
  141.4160   80.1910  221.2000 C   0  0  0  0  0  0  0  0  0  0  0  0
  140.9790   80.9580  222.4020 C   0  0  0  0  0  0  0  0  0  0  0  0
  138.9175   80.9445  224.8397 H   0  0  0  0  0  0  0  0  0  0  0  0
  138.9568   81.9470  223.3497 H   0  0  0  0  0  0  0  0  0  0  0  0
  138.0937   80.3717  223.3497 H   0  0  0  0  0  0  0  0  0  0  0  0
  139.6819   78.3535  224.0239 H   0  0  0  0  0  0  0  0  0  0  0  0
  139.2986   78.6396  222.3162 H   0  0  0  0  0  0  0  0  0  0  0  0
  142.1907   78.7525  223.4052 H   0  0  0  0  0  0  0  0  0  0  0  0
  141.5052   77.2469  222.7965 H   0  0  0  0  0  0  0  0  0  0  0  0
  140.2393   77.9674  220.1882 H   0  0  0  0  0  0  0  0  0  0  0  0
  141.9118   78.3332  219.4792 H   0  0  0  0  0  0  0  0  0  0  0  0
  143.5281   76.6230  219.2840 H   0  0  0  0  0  0  0  0  0  0  0  0
  144.0664   74.2084  219.6236 H   0  0  0  0  0  0  0  0  0  0  0  0
  143.8250   71.8400  219.4540 H   0  0  0  0  0  0  0  0  0  0  0  0
  144.4590   71.5390  221.1510 H   0  0  0  0  0  0  0  0  0  0  0  0
  138.8323   71.0959  222.7451 H   0  0  0  0  0  0  0  0  0  0  0  0
  140.1944   72.2374  225.0859 H   0  0  0  0  0  0  0  0  0  0  0  0
  141.3664   70.6384  226.6731 H   0  0  0  0  0  0  0  0  0  0  0  0
  141.3659   68.4419  227.8123 H   0  0  0  0  0  0  0  0  0  0  0  0
  139.9592   66.6035  226.9165 H   0  0  0  0  0  0  0  0  0  0  0  0
  138.5847   69.1103  223.8127 H   0  0  0  0  0  0  0  0  0  0  0  0
  140.0053   76.1468  221.7130 H   0  0  0  0  0  0  0  0  0  0  0  0
  142.3566   80.6332  220.8397 H   0  0  0  0  0  0  0  0  0  0  0  0
  140.5873   80.2615  220.4801 H   0  0  0  0  0  0  0  0  0  0  0  0
  141.8825   81.2918  222.9333 H   0  0  0  0  0  0  0  0  0  0  0  0
  140.3510   81.7747  222.0165 H   0  0  0  0  0  0  0  0  0  0  0  0
  1  2  1  0
  2  3  1  0
  3  4  1  0
  4  5  1  0
  5  6  1  0
  6  7  1  0
  7  8  2  0
  8  9  1  0
  9 10  2  0
 10 11  1  0
 11 12  1  0
 11 13  2  0
 13 14  1  0
 14 15  1  0
 15 16  2  0
 16 17  1  0
 17 18  2  0
 18 19  1  0
 19 20  2  0
 20 21  1  0
 21 22  2  0
 14 23  2  0
 23 24  1  0
 24 25  2  0
  5 26  1  0
 26 27  1  0
 27  2  1  0
 25  7  1  0
 24 10  1  0
 22 17  1  0
  1 28  1  0
  1 29  1  0
  1 30  1  0
  3 31  1  0
  3 32  1  0
  4 33  1  0
  4 34  1  0
  6 35  1  0
  6 36  1  0
  8 37  1  0
  9 38  1  0
 12 39  1  0
 12 40  1  0
 15 41  1  0
 16 42  1  0
 18 43  1  0
 19 44  1  0
 20 45  1  0
 22 46  1  0
 25 47  1  0
 26 48  1  0
 26 49  1  0
 27 50  1  0
 27 51  1  0
M  END
>  <smiles>  (8) 
CN1CCN(Cc2ccc3c(N)nc(/C=C/c4cccnc4)nc3c2)CC1

>  <score_type>  (8) 
oracle

>  <origin>  (8) 
autodockgpu

>  <m_score__min__energy>  (8) 
-8.3100000000000005

>  <m_primary>  (8) 
energy

>  <rmsd>  (8) 
6.879757101130864

>  <m_score__min__rmsd>  (8) 
6.879757101130864

>  <meeko>  (8) 
{"free_energy": -8.07, "intermolecular_energy": -9.86, "internal_energy": -0.55, "cluster_size": 35, "cluster_id": 1, "rank_in_cluster": 8}

>  <energy>  (8) 
-8.07

>  <cluster_rmsd>  (8) 
0.75

>  <cluster>  (8) 
1

$$$$

     RDKit          3D

 51 54  0  0  0  0  0  0  0  0999 V2000
  139.0250   80.8970  223.8460 C   0  0  0  0  0  0  0  0  0  0  0  0
  140.2000   80.1910  223.4410 N   0  0  0  0  0  0  0  0  0  0  0  0
  140.0160   78.7850  223.2380 C   0  0  0  0  0  0  0  0  0  0  0  0
  141.3920   78.2200  222.8600 C   0  0  0  0  0  0  0  0  0  0  0  0
  141.6140   78.6630  221.5330 N   0  0  0  0  0  0  0  0  0  0  0  0
  141.2760   77.8010  220.4700 C   0  0  0  0  0  0  0  0  0  0  0  0
  141.6660   76.3890  220.6100 C   0  0  0  0  0  0  0  0  0  0  0  0
  142.7810   75.8250  220.0270 C   0  0  0  0  0  0  0  0  0  0  0  0
  143.0670   74.4680  220.2180 C   0  0  0  0  0  0  0  0  0  0  0  0
  142.2300   73.6850  220.9920 C   0  0  0  0  0  0  0  0  0  0  0  0
  142.4530   72.3420  221.2210 C   0  0  0  0  0  0  0  0  0  0  0  0
  143.5930   71.7270  220.6350 N   0  0  0  0  0  0  0  0  0  0  0  0
  141.5980   71.6400  221.9860 N   0  0  0  0  0  0  0  0  0  0  0  0
  140.5220   72.1950  222.5460 C   0  0  0  0  0  0  0  0  0  0  0  0
  139.6130   71.4200  223.3670 C   0  0  0  0  0  0  0  0  0  0  0  0
  140.0720   70.5470  224.2250 C   0  0  0  0  0  0  0  0  0  0  0  0
  140.2880   70.8080  225.6410 C   0  0  0  0  0  0  0  0  0  0  0  0
  141.0880   71.8770  226.0650 C   0  0  0  0  0  0  0  0  0  0  0  0
  141.3020   72.1370  227.4030 C   0  0  0  0  0  0  0  0  0  0  0  0
  140.7140   71.3220  228.3430 C   0  0  0  0  0  0  0  0  0  0  0  0
  139.9470   70.2960  227.9610 N   0  0  0  0  0  0  0  0  0  0  0  0
  139.7400   70.0450  226.6470 C   0  0  0  0  0  0  0  0  0  0  0  0
  140.2980   73.5140  222.3260 N   0  0  0  0  0  0  0  0  0  0  0  0
  141.1210   74.2560  221.5710 C   0  0  0  0  0  0  0  0  0  0  0  0
  140.8300   75.5850  221.3920 C   0  0  0  0  0  0  0  0  0  0  0  0
  141.4460   80.0490  221.3110 C   0  0  0  0  0  0  0  0  0  0  0  0
  141.0390   80.8460  222.5040 C   0  0  0  0  0  0  0  0  0  0  0  0
  138.9755   80.9268  224.9445 H   0  0  0  0  0  0  0  0  0  0  0  0
  139.0602   81.9236  223.4526 H   0  0  0  0  0  0  0  0  0  0  0  0
  138.1351   80.3839  223.4526 H   0  0  0  0  0  0  0  0  0  0  0  0
  139.6506   78.3116  224.1612 H   0  0  0  0  0  0  0  0  0  0  0  0
  139.2735   78.5888  222.4505 H   0  0  0  0  0  0  0  0  0  0  0  0
  142.1692   78.6100  223.5337 H   0  0  0  0  0  0  0  0  0  0  0  0
  141.4272   77.1237  222.9427 H   0  0  0  0  0  0  0  0  0  0  0  0
  140.1831   77.8338  220.3498 H   0  0  0  0  0  0  0  0  0  0  0  0
  141.8467   78.1725  219.6061 H   0  0  0  0  0  0  0  0  0  0  0  0
  143.4485   76.4438  219.4093 H   0  0  0  0  0  0  0  0  0  0  0  0
  143.9588   74.0238  219.7518 H   0  0  0  0  0  0  0  0  0  0  0  0
  144.4210   71.4600  221.2300 H   0  0  0  0  0  0  0  0  0  0  0  0
  143.5740   71.5530  219.6030 H   0  0  0  0  0  0  0  0  0  0  0  0
  138.5275   71.5677  223.2672 H   0  0  0  0  0  0  0  0  0  0  0  0
  140.3127   69.5414  223.8496 H   0  0  0  0  0  0  0  0  0  0  0  0
  141.5579   72.5261  225.3114 H   0  0  0  0  0  0  0  0  0  0  0  0
  141.9330   72.9828  227.7136 H   0  0  0  0  0  0  0  0  0  0  0  0
  140.8759   71.5157  229.4137 H   0  0  0  0  0  0  0  0  0  0  0  0
  139.1040   69.1912  226.3702 H   0  0  0  0  0  0  0  0  0  0  0  0
  139.9368   76.0194  221.8648 H   0  0  0  0  0  0  0  0  0  0  0  0
  142.4018   80.4517  220.9445 H   0  0  0  0  0  0  0  0  0  0  0  0
  140.6201   80.1413  220.5903 H   0  0  0  0  0  0  0  0  0  0  0  0
  141.9548   81.1521  223.0309 H   0  0  0  0  0  0  0  0  0  0  0  0
  140.4416   81.6809  222.1089 H   0  0  0  0  0  0  0  0  0  0  0  0
  1  2  1  0
  2  3  1  0
  3  4  1  0
  4  5  1  0
  5  6  1  0
  6  7  1  0
  7  8  2  0
  8  9  1  0
  9 10  2  0
 10 11  1  0
 11 12  1  0
 11 13  2  0
 13 14  1  0
 14 15  1  0
 15 16  2  0
 16 17  1  0
 17 18  2  0
 18 19  1  0
 19 20  2  0
 20 21  1  0
 21 22  2  0
 14 23  2  0
 23 24  1  0
 24 25  2  0
  5 26  1  0
 26 27  1  0
 27  2  1  0
 25  7  1  0
 24 10  1  0
 22 17  1  0
  1 28  1  0
  1 29  1  0
  1 30  1  0
  3 31  1  0
  3 32  1  0
  4 33  1  0
  4 34  1  0
  6 35  1  0
  6 36  1  0
  8 37  1  0
  9 38  1  0
 12 39  1  0
 12 40  1  0
 15 41  1  0
 16 42  1  0
 18 43  1  0
 19 44  1  0
 20 45  1  0
 22 46  1  0
 25 47  1  0
 26 48  1  0
 26 49  1  0
 27 50  1  0
 27 51  1  0
M  END
>  <smiles>  (9) 
CN1CCN(Cc2ccc3c(N)nc(/C=C/c4cccnc4)nc3c2)CC1

>  <score_type>  (9) 
oracle

>  <origin>  (9) 
autodockgpu

>  <m_score__min__energy>  (9) 
-8.3100000000000005

>  <m_primary>  (9) 
energy

>  <rmsd>  (9) 
6.76182521800438

>  <m_score__min__rmsd>  (9) 
6.76182521800438

>  <meeko>  (9) 
{"free_energy": -7.96, "intermolecular_energy": -9.75, "internal_energy": -0.66, "cluster_size": 35, "cluster_id": 1, "rank_in_cluster": 17}

>  <energy>  (9) 
-8.06

>  <cluster_rmsd>  (9) 
1.26

>  <cluster>  (9) 
1

$$$$

     RDKit          3D

 51 54  0  0  0  0  0  0  0  0999 V2000
  143.3050   80.6140  223.8450 C   0  0  0  0  0  0  0  0  0  0  0  0
  142.0760   80.4710  223.1280 N   0  0  0  0  0  0  0  0  0  0  0  0
  142.2250   80.2420  221.7220 C   0  0  0  0  0  0  0  0  0  0  0  0
  140.8040   80.1680  221.1450 C   0  0  0  0  0  0  0  0  0  0  0  0
  140.3040   78.9130  221.5760 N   0  0  0  0  0  0  0  0  0  0  0  0
  140.4170   77.8090  220.7090 C   0  0  0  0  0  0  0  0  0  0  0  0
  139.6010   76.6260  221.0300 C   0  0  0  0  0  0  0  0  0  0  0  0
  138.2420   76.5350  220.8180 C   0  0  0  0  0  0  0  0  0  0  0  0
  137.5520   75.3660  221.1610 C   0  0  0  0  0  0  0  0  0  0  0  0
  138.2310   74.2960  221.7140 C   0  0  0  0  0  0  0  0  0  0  0  0
  137.6130   73.1160  222.0750 C   0  0  0  0  0  0  0  0  0  0  0  0
  136.2120   72.9860  221.8710 N   0  0  0  0  0  0  0  0  0  0  0  0
  138.3350   72.1140  222.6080 N   0  0  0  0  0  0  0  0  0  0  0  0
  139.6510   72.2120  222.8090 C   0  0  0  0  0  0  0  0  0  0  0  0
  140.4110   71.1210  223.3860 C   0  0  0  0  0  0  0  0  0  0  0  0
  140.5050   70.9900  224.6830 C   0  0  0  0  0  0  0  0  0  0  0  0
  140.2500   69.7560  225.4140 C   0  0  0  0  0  0  0  0  0  0  0  0
  140.8270   69.5280  226.6690 C   0  0  0  0  0  0  0  0  0  0  0  0
  140.5960   68.3640  227.3740 C   0  0  0  0  0  0  0  0  0  0  0  0
  139.7760   67.4050  226.8250 C   0  0  0  0  0  0  0  0  0  0  0  0
  139.2140   67.6020  225.6280 N   0  0  0  0  0  0  0  0  0  0  0  0
  139.4450   68.7450  224.9410 C   0  0  0  0  0  0  0  0  0  0  0  0
  140.2640   73.3690  222.4560 N   0  0  0  0  0  0  0  0  0  0  0  0
  139.5870   74.3950  221.9220 C   0  0  0  0  0  0  0  0  0  0  0  0
  140.2750   75.5360  221.5890 C   0  0  0  0  0  0  0  0  0  0  0  0
  140.4110   78.6520  222.9620 C   0  0  0  0  0  0  0  0  0  0  0  0
  141.0540   79.7280  223.7710 C   0  0  0  0  0  0  0  0  0  0  0  0
  143.1036   80.5906  224.9262 H   0  0  0  0  0  0  0  0  0  0  0  0
  143.9822   79.7886  223.5802 H   0  0  0  0  0  0  0  0  0  0  0  0
  143.7746   81.5728  223.5802 H   0  0  0  0  0  0  0  0  0  0  0  0
  142.7819   81.0695  221.2582 H   0  0  0  0  0  0  0  0  0  0  0  0
  142.7856   79.3164  221.5247 H   0  0  0  0  0  0  0  0  0  0  0  0
  140.1835   80.9876  221.5364 H   0  0  0  0  0  0  0  0  0  0  0  0
  140.7947   80.2650  220.0493 H   0  0  0  0  0  0  0  0  0  0  0  0
  140.1318   78.1465  219.7016 H   0  0  0  0  0  0  0  0  0  0  0  0
  141.4602   77.4735  220.8049 H   0  0  0  0  0  0  0  0  0  0  0  0
  137.6978   77.3836  220.3779 H   0  0  0  0  0  0  0  0  0  0  0  0
  136.4674   75.2987  220.9902 H   0  0  0  0  0  0  0  0  0  0  0  0
  135.6330   72.3810  222.5100 H   0  0  0  0  0  0  0  0  0  0  0  0
  135.7880   73.5100  221.0700 H   0  0  0  0  0  0  0  0  0  0  0  0
  140.9128   70.3973  222.7269 H   0  0  0  0  0  0  0  0  0  0  0  0
  140.7981   71.8762  225.2651 H   0  0  0  0  0  0  0  0  0  0  0  0
  141.4818   70.2969  227.1049 H   0  0  0  0  0  0  0  0  0  0  0  0
  141.0599   68.2056  228.3587 H   0  0  0  0  0  0  0  0  0  0  0  0
  139.5819   66.4716  227.3737 H   0  0  0  0  0  0  0  0  0  0  0  0
  138.9669   68.8718  223.9585 H   0  0  0  0  0  0  0  0  0  0  0  0
  141.3597   75.5925  221.7626 H   0  0  0  0  0  0  0  0  0  0  0  0
  139.3965   78.4923  223.3560 H   0  0  0  0  0  0  0  0  0  0  0  0
  141.0661   77.7731  223.0538 H   0  0  0  0  0  0  0  0  0  0  0  0
  140.2673   80.4340  224.0755 H   0  0  0  0  0  0  0  0  0  0  0  0
  141.5484   79.2112  224.6067 H   0  0  0  0  0  0  0  0  0  0  0  0
  1  2  1  0
  2  3  1  0
  3  4  1  0
  4  5  1  0
  5  6  1  0
  6  7  1  0
  7  8  2  0
  8  9  1  0
  9 10  2  0
 10 11  1  0
 11 12  1  0
 11 13  2  0
 13 14  1  0
 14 15  1  0
 15 16  2  0
 16 17  1  0
 17 18  2  0
 18 19  1  0
 19 20  2  0
 20 21  1  0
 21 22  2  0
 14 23  2  0
 23 24  1  0
 24 25  2  0
  5 26  1  0
 26 27  1  0
 27  2  1  0
 25  7  1  0
 24 10  1  0
 22 17  1  0
  1 28  1  0
  1 29  1  0
  1 30  1  0
  3 31  1  0
  3 32  1  0
  4 33  1  0
  4 34  1  0
  6 35  1  0
  6 36  1  0
  8 37  1  0
  9 38  1  0
 12 39  1  0
 12 40  1  0
 15 41  1  0
 16 42  1  0
 18 43  1  0
 19 44  1  0
 20 45  1  0
 22 46  1  0
 25 47  1  0
 26 48  1  0
 26 49  1  0
 27 50  1  0
 27 51  1  0
M  END
>  <smiles>  (10) 
CN1CCN(Cc2ccc3c(N)nc(/C=C/c4cccnc4)nc3c2)CC1

>  <score_type>  (10) 
oracle

>  <origin>  (10) 
autodockgpu

>  <m_score__min__energy>  (10) 
-8.3100000000000005

>  <m_primary>  (10) 
energy

>  <rmsd>  (10) 
6.901547844439879

>  <m_score__min__rmsd>  (10) 
6.901547844439879

>  <meeko>  (10) 
{"free_energy": -7.22, "intermolecular_energy": -9.01, "internal_energy": -0.61, "cluster_size": 9, "cluster_id": 3, "rank_in_cluster": 6}

>  <energy>  (10) 
-8.01

>  <cluster_rmsd>  (10) 
0.83

>  <cluster>  (10) 
1

$$$$

     RDKit          3D

 51 54  0  0  0  0  0  0  0  0999 V2000
  143.3190   80.7340  223.8390 C   0  0  0  0  0  0  0  0  0  0  0  0
  142.0500   80.3070  223.3390 N   0  0  0  0  0  0  0  0  0  0  0  0
  141.8510   80.5300  221.9380 C   0  0  0  0  0  0  0  0  0  0  0  0
  140.4270   80.0500  221.6230 C   0  0  0  0  0  0  0  0  0  0  0  0
  140.5050   78.6350  221.6670 N   0  0  0  0  0  0  0  0  0  0  0  0
  140.7110   77.9340  220.4620 C   0  0  0  0  0  0  0  0  0  0  0  0
  141.3490   76.6120  220.5650 C   0  0  0  0  0  0  0  0  0  0  0  0
  142.6000   76.3080  220.0700 C   0  0  0  0  0  0  0  0  0  0  0  0
  143.1210   75.0160  220.2140 C   0  0  0  0  0  0  0  0  0  0  0  0
  142.3830   74.0370  220.8540 C   0  0  0  0  0  0  0  0  0  0  0  0
  142.8360   72.7460  221.0300 C   0  0  0  0  0  0  0  0  0  0  0  0
  144.1210   72.3970  220.5320 N   0  0  0  0  0  0  0  0  0  0  0  0
  142.0650   71.8430  221.6630 N   0  0  0  0  0  0  0  0  0  0  0  0
  140.8560   72.1480  222.1390 C   0  0  0  0  0  0  0  0  0  0  0  0
  140.0410   71.1600  222.8180 C   0  0  0  0  0  0  0  0  0  0  0  0
  139.4600   71.4450  223.9540 C   0  0  0  0  0  0  0  0  0  0  0  0
  139.9930   71.1070  225.2670 C   0  0  0  0  0  0  0  0  0  0  0  0
  139.5950   69.9400  225.9290 C   0  0  0  0  0  0  0  0  0  0  0  0
  140.0910   69.6070  227.1740 C   0  0  0  0  0  0  0  0  0  0  0  0
  140.9980   70.4470  227.7770 C   0  0  0  0  0  0  0  0  0  0  0  0
  141.3910   71.5670  227.1620 N   0  0  0  0  0  0  0  0  0  0  0  0
  140.9020   71.8890  225.9420 C   0  0  0  0  0  0  0  0  0  0  0  0
  140.4050   73.4150  221.9700 N   0  0  0  0  0  0  0  0  0  0  0  0
  141.1360   74.3490  221.3450 C   0  0  0  0  0  0  0  0  0  0  0  0
  140.6150   75.6120  221.2110 C   0  0  0  0  0  0  0  0  0  0  0  0
  141.0860   78.0880  222.8340 C   0  0  0  0  0  0  0  0  0  0  0  0
  141.5530   79.0790  223.8450 C   0  0  0  0  0  0  0  0  0  0  0  0
  143.3007   80.7278  224.9388 H   0  0  0  0  0  0  0  0  0  0  0  0
  144.1029   80.0502  223.4815 H   0  0  0  0  0  0  0  0  0  0  0  0
  143.5301   81.7526  223.4815 H   0  0  0  0  0  0  0  0  0  0  0  0
  141.9526   81.6001  221.7045 H   0  0  0  0  0  0  0  0  0  0  0  0
  142.5971   79.9893  221.3372 H   0  0  0  0  0  0  0  0  0  0  0  0
  139.7168   80.4228  222.3758 H   0  0  0  0  0  0  0  0  0  0  0  0
  140.0706   80.4166  220.6490 H   0  0  0  0  0  0  0  0  0  0  0  0
  139.7291   77.7936  219.9865 H   0  0  0  0  0  0  0  0  0  0  0  0
  141.4173   78.5508  219.8870 H   0  0  0  0  0  0  0  0  0  0  0  0
  143.1908   77.0833  219.5602 H   0  0  0  0  0  0  0  0  0  0  0  0
  144.1193   74.7794  219.8172 H   0  0  0  0  0  0  0  0  0  0  0  0
  144.8170   71.9030  221.1500 H   0  0  0  0  0  0  0  0  0  0  0  0
  144.3410   72.6480  219.5400 H   0  0  0  0  0  0  0  0  0  0  0  0
  139.9103   70.1622  222.3737 H   0  0  0  0  0  0  0  0  0  0  0  0
  138.4989   71.9788  223.9156 H   0  0  0  0  0  0  0  0  0  0  0  0
  138.8684   69.2708  225.4452 H   0  0  0  0  0  0  0  0  0  0  0  0
  139.7656   68.6839  227.6759 H   0  0  0  0  0  0  0  0  0  0  0  0
  141.4015   70.1962  228.7691 H   0  0  0  0  0  0  0  0  0  0  0  0
  141.2473   72.8195  225.4677 H   0  0  0  0  0  0  0  0  0  0  0  0
  139.6165   75.8384  221.6132 H   0  0  0  0  0  0  0  0  0  0  0  0
  140.3367   77.4417  223.3143 H   0  0  0  0  0  0  0  0  0  0  0  0
  141.9862   77.5516  222.4995 H   0  0  0  0  0  0  0  0  0  0  0  0
  140.7044   79.3081  224.5064 H   0  0  0  0  0  0  0  0  0  0  0  0
  142.4068   78.6029  224.3494 H   0  0  0  0  0  0  0  0  0  0  0  0
  1  2  1  0
  2  3  1  0
  3  4  1  0
  4  5  1  0
  5  6  1  0
  6  7  1  0
  7  8  2  0
  8  9  1  0
  9 10  2  0
 10 11  1  0
 11 12  1  0
 11 13  2  0
 13 14  1  0
 14 15  1  0
 15 16  2  0
 16 17  1  0
 17 18  2  0
 18 19  1  0
 19 20  2  0
 20 21  1  0
 21 22  2  0
 14 23  2  0
 23 24  1  0
 24 25  2  0
  5 26  1  0
 26 27  1  0
 27  2  1  0
 25  7  1  0
 24 10  1  0
 22 17  1  0
  1 28  1  0
  1 29  1  0
  1 30  1  0
  3 31  1  0
  3 32  1  0
  4 33  1  0
  4 34  1  0
  6 35  1  0
  6 36  1  0
  8 37  1  0
  9 38  1  0
 12 39  1  0
 12 40  1  0
 15 41  1  0
 16 42  1  0
 18 43  1  0
 19 44  1  0
 20 45  1  0
 22 46  1  0
 25 47  1  0
 26 48  1  0
 26 49  1  0
 27 50  1  0
 27 51  1  0
M  END
>  <smiles>  (11) 
CN1CCN(Cc2ccc3c(N)nc(/C=C/c4cccnc4)nc3c2)CC1

>  <score_type>  (11) 
oracle

>  <origin>  (11) 
autodockgpu

>  <m_score__min__energy>  (11) 
-8.3100000000000005

>  <m_primary>  (11) 
energy

>  <rmsd>  (11) 
7.162134831278356

>  <m_score__min__rmsd>  (11) 
7.162134831278356

>  <meeko>  (11) 
{"free_energy": -7.71, "intermolecular_energy": -9.5, "internal_energy": -0.66, "cluster_size": 35, "cluster_id": 1, "rank_in_cluster": 25}

>  <energy>  (11) 
-8.0

>  <cluster_rmsd>  (11) 
1.45

>  <cluster>  (11) 
1

$$$$

     RDKit          3D

 51 54  0  0  0  0  0  0  0  0999 V2000
  138.9500   80.8740  223.7550 C   0  0  0  0  0  0  0  0  0  0  0  0
  140.1680   80.2440  223.3510 N   0  0  0  0  0  0  0  0  0  0  0  0
  140.0620   78.8380  223.0990 C   0  0  0  0  0  0  0  0  0  0  0  0
  141.4730   78.3590  222.7310 C   0  0  0  0  0  0  0  0  0  0  0  0
  141.6930   78.8560  221.4220 N   0  0  0  0  0  0  0  0  0  0  0  0
  141.4210   78.0130  220.3260 C   0  0  0  0  0  0  0  0  0  0  0  0
  141.8040   76.5990  220.4640 C   0  0  0  0  0  0  0  0  0  0  0  0
  142.9150   76.0300  219.8770 C   0  0  0  0  0  0  0  0  0  0  0  0
  143.1950   74.6720  220.0650 C   0  0  0  0  0  0  0  0  0  0  0  0
  142.3580   73.8920  220.8430 C   0  0  0  0  0  0  0  0  0  0  0  0
  142.5760   72.5480  221.0700 C   0  0  0  0  0  0  0  0  0  0  0  0
  143.7100   71.9280  220.4790 N   0  0  0  0  0  0  0  0  0  0  0  0
  141.7210   71.8490  221.8380 N   0  0  0  0  0  0  0  0  0  0  0  0
  140.6500   72.4090  222.4030 C   0  0  0  0  0  0  0  0  0  0  0  0
  139.7400   71.6380  223.2270 C   0  0  0  0  0  0  0  0  0  0  0  0
  140.1940   70.7090  224.0270 C   0  0  0  0  0  0  0  0  0  0  0  0
  140.3120   70.8420  225.4730 C   0  0  0  0  0  0  0  0  0  0  0  0
  141.0700   71.8720  226.0440 C   0  0  0  0  0  0  0  0  0  0  0  0
  141.1920   72.0100  227.4120 C   0  0  0  0  0  0  0  0  0  0  0  0
  140.5510   71.1110  228.2330 C   0  0  0  0  0  0  0  0  0  0  0  0
  139.8230   70.1200  227.7080 N   0  0  0  0  0  0  0  0  0  0  0  0
  139.7070   69.9880  226.3670 C   0  0  0  0  0  0  0  0  0  0  0  0
  140.4300   73.7290  222.1840 N   0  0  0  0  0  0  0  0  0  0  0  0
  141.2540   74.4670  221.4260 C   0  0  0  0  0  0  0  0  0  0  0  0
  140.9690   75.7980  221.2490 C   0  0  0  0  0  0  0  0  0  0  0  0
  141.4560   80.2380  221.2420 C   0  0  0  0  0  0  0  0  0  0  0  0
  140.9870   80.9720  222.4510 C   0  0  0  0  0  0  0  0  0  0  0  0
  138.8979   80.9009  224.8534 H   0  0  0  0  0  0  0  0  0  0  0  0
  138.9201   81.9007  223.3612 H   0  0  0  0  0  0  0  0  0  0  0  0
  138.0948   80.3052  223.3612 H   0  0  0  0  0  0  0  0  0  0  0  0
  139.7050   78.3156  223.9988 H   0  0  0  0  0  0  0  0  0  0  0  0
  139.3454   78.6295  222.2909 H   0  0  0  0  0  0  0  0  0  0  0  0
  142.2162   78.7683  223.4311 H   0  0  0  0  0  0  0  0  0  0  0  0
  141.5666   77.2641  222.7811 H   0  0  0  0  0  0  0  0  0  0  0  0
  140.3372   78.0474  220.1409 H   0  0  0  0  0  0  0  0  0  0  0  0
  142.0422   78.4000  219.5048 H   0  0  0  0  0  0  0  0  0  0  0  0
  143.5838   76.6465  219.2584 H   0  0  0  0  0  0  0  0  0  0  0  0
  144.0820   74.2238  219.5935 H   0  0  0  0  0  0  0  0  0  0  0  0
  143.8160   71.8940  219.4310 H   0  0  0  0  0  0  0  0  0  0  0  0
  144.4270   71.5150  221.1220 H   0  0  0  0  0  0  0  0  0  0  0  0
  138.6591   71.8362  223.1788 H   0  0  0  0  0  0  0  0  0  0  0  0
  140.5101   69.7572  223.5752 H   0  0  0  0  0  0  0  0  0  0  0  0
  141.5813   72.5895  225.3854 H   0  0  0  0  0  0  0  0  0  0  0  0
  141.7927   72.8264  227.8394 H   0  0  0  0  0  0  0  0  0  0  0  0
  140.6378   71.2079  229.3253 H   0  0  0  0  0  0  0  0  0  0  0  0
  139.1008   69.1593  225.9723 H   0  0  0  0  0  0  0  0  0  0  0  0
  140.0802   76.2362  221.7266 H   0  0  0  0  0  0  0  0  0  0  0  0
  142.3955   80.7020  220.9072 H   0  0  0  0  0  0  0  0  0  0  0  0
  140.6391   80.3110  220.5090 H   0  0  0  0  0  0  0  0  0  0  0  0
  141.8761   81.3083  223.0045 H   0  0  0  0  0  0  0  0  0  0  0  0
  140.3526   81.7864  222.0712 H   0  0  0  0  0  0  0  0  0  0  0  0
  1  2  1  0
  2  3  1  0
  3  4  1  0
  4  5  1  0
  5  6  1  0
  6  7  1  0
  7  8  2  0
  8  9  1  0
  9 10  2  0
 10 11  1  0
 11 12  1  0
 11 13  2  0
 13 14  1  0
 14 15  1  0
 15 16  2  0
 16 17  1  0
 17 18  2  0
 18 19  1  0
 19 20  2  0
 20 21  1  0
 21 22  2  0
 14 23  2  0
 23 24  1  0
 24 25  2  0
  5 26  1  0
 26 27  1  0
 27  2  1  0
 25  7  1  0
 24 10  1  0
 22 17  1  0
  1 28  1  0
  1 29  1  0
  1 30  1  0
  3 31  1  0
  3 32  1  0
  4 33  1  0
  4 34  1  0
  6 35  1  0
  6 36  1  0
  8 37  1  0
  9 38  1  0
 12 39  1  0
 12 40  1  0
 15 41  1  0
 16 42  1  0
 18 43  1  0
 19 44  1  0
 20 45  1  0
 22 46  1  0
 25 47  1  0
 26 48  1  0
 26 49  1  0
 27 50  1  0
 27 51  1  0
M  END
>  <smiles>  (12) 
CN1CCN(Cc2ccc3c(N)nc(/C=C/c4cccnc4)nc3c2)CC1

>  <score_type>  (12) 
oracle

>  <origin>  (12) 
autodockgpu

>  <m_score__min__energy>  (12) 
-8.3100000000000005

>  <m_primary>  (12) 
energy

>  <rmsd>  (12) 
6.915752613933822

>  <m_score__min__rmsd>  (12) 
6.915752613933822

>  <meeko>  (12) 
{"free_energy": -7.99, "intermolecular_energy": -9.78, "internal_energy": -0.6, "cluster_size": 35, "cluster_id": 1, "rank_in_cluster": 12}

>  <energy>  (12) 
-7.99

>  <cluster_rmsd>  (12) 
1.31

>  <cluster>  (12) 
1

$$$$

     RDKit          3D

 51 54  0  0  0  0  0  0  0  0999 V2000
  138.5030   80.7310  224.1210 C   0  0  0  0  0  0  0  0  0  0  0  0
  139.8440   80.6010  223.6430 N   0  0  0  0  0  0  0  0  0  0  0  0
  140.4130   79.2960  223.7970 C   0  0  0  0  0  0  0  0  0  0  0  0
  141.8520   79.3880  223.2700 C   0  0  0  0  0  0  0  0  0  0  0  0
  141.7180   79.4650  221.8620 N   0  0  0  0  0  0  0  0  0  0  0  0
  141.8140   78.2760  221.1100 C   0  0  0  0  0  0  0  0  0  0  0  0
  140.7460   77.2820  221.3010 C   0  0  0  0  0  0  0  0  0  0  0  0
  139.4030   77.5330  221.1130 C   0  0  0  0  0  0  0  0  0  0  0  0
  138.4600   76.5200  221.3240 C   0  0  0  0  0  0  0  0  0  0  0  0
  138.8710   75.2610  221.7240 C   0  0  0  0  0  0  0  0  0  0  0  0
  137.9950   74.2190  221.9490 C   0  0  0  0  0  0  0  0  0  0  0  0
  136.6030   74.4410  221.7650 N   0  0  0  0  0  0  0  0  0  0  0  0
  138.4640   73.0190  222.3360 N   0  0  0  0  0  0  0  0  0  0  0  0
  139.7650   72.7860  222.5150 C   0  0  0  0  0  0  0  0  0  0  0  0
  140.2500   71.4860  222.9340 C   0  0  0  0  0  0  0  0  0  0  0  0
  139.6850   70.8550  223.9290 C   0  0  0  0  0  0  0  0  0  0  0  0
  140.1160   70.9370  225.3180 C   0  0  0  0  0  0  0  0  0  0  0  0
  139.6450   70.0300  226.2760 C   0  0  0  0  0  0  0  0  0  0  0  0
  140.0440   70.0960  227.5950 C   0  0  0  0  0  0  0  0  0  0  0  0
  140.9270   71.0800  227.9770 C   0  0  0  0  0  0  0  0  0  0  0  0
  141.3880   71.9570  227.0790 N   0  0  0  0  0  0  0  0  0  0  0  0
  140.9940   71.8880  225.7860 C   0  0  0  0  0  0  0  0  0  0  0  0
  140.6310   73.8060  222.2950 N   0  0  0  0  0  0  0  0  0  0  0  0
  140.2120   75.0200  221.9090 C   0  0  0  0  0  0  0  0  0  0  0  0
  141.1460   76.0040  221.7040 C   0  0  0  0  0  0  0  0  0  0  0  0
  140.8320   80.4560  221.3820 C   0  0  0  0  0  0  0  0  0  0  0  0
  140.1480   81.2680  222.4290 C   0  0  0  0  0  0  0  0  0  0  0  0
  138.5042   80.7309  225.2210 H   0  0  0  0  0  0  0  0  0  0  0  0
  138.0731   81.6750  223.7549 H   0  0  0  0  0  0  0  0  0  0  0  0
  137.8998   79.8871  223.7549 H   0  0  0  0  0  0  0  0  0  0  0  0
  140.4138   79.0036  224.8574 H   0  0  0  0  0  0  0  0  0  0  0  0
  139.8335   78.5399  223.2469 H   0  0  0  0  0  0  0  0  0  0  0  0
  142.3512   80.2867  223.6614 H   0  0  0  0  0  0  0  0  0  0  0  0
  142.4640   78.5290  223.5823 H   0  0  0  0  0  0  0  0  0  0  0  0
  141.8225   78.5550  220.0460 H   0  0  0  0  0  0  0  0  0  0  0  0
  142.7317   77.7842  221.4651 H   0  0  0  0  0  0  0  0  0  0  0  0
  139.0715   78.5328  220.7961 H   0  0  0  0  0  0  0  0  0  0  0  0
  137.3902   76.7255  221.1715 H   0  0  0  0  0  0  0  0  0  0  0  0
  135.8950   73.8420  222.2650 H   0  0  0  0  0  0  0  0  0  0  0  0
  136.3170   75.2150  221.1200 H   0  0  0  0  0  0  0  0  0  0  0  0
  141.1010   71.0266  222.4099 H   0  0  0  0  0  0  0  0  0  0  0  0
  138.8201   70.2147  223.7009 H   0  0  0  0  0  0  0  0  0  0  0  0
  138.9387   69.2447  225.9686 H   0  0  0  0  0  0  0  0  0  0  0  0
  139.6620   69.3728  228.3305 H   0  0  0  0  0  0  0  0  0  0  0  0
  141.2548   71.1453  229.0250 H   0  0  0  0  0  0  0  0  0  0  0  0
  141.3943   72.6266  225.0759 H   0  0  0  0  0  0  0  0  0  0  0  0
  142.2134   75.7868  221.8572 H   0  0  0  0  0  0  0  0  0  0  0  0
  141.4060   81.1424  220.7422 H   0  0  0  0  0  0  0  0  0  0  0  0
  140.0347   79.9159  220.8503 H   0  0  0  0  0  0  0  0  0  0  0  0
  140.7989   82.1215  222.6695 H   0  0  0  0  0  0  0  0  0  0  0  0
  139.1758   81.5459  221.9958 H   0  0  0  0  0  0  0  0  0  0  0  0
  1  2  1  0
  2  3  1  0
  3  4  1  0
  4  5  1  0
  5  6  1  0
  6  7  1  0
  7  8  2  0
  8  9  1  0
  9 10  2  0
 10 11  1  0
 11 12  1  0
 11 13  2  0
 13 14  1  0
 14 15  1  0
 15 16  2  0
 16 17  1  0
 17 18  2  0
 18 19  1  0
 19 20  2  0
 20 21  1  0
 21 22  2  0
 14 23  2  0
 23 24  1  0
 24 25  2  0
  5 26  1  0
 26 27  1  0
 27  2  1  0
 25  7  1  0
 24 10  1  0
 22 17  1  0
  1 28  1  0
  1 29  1  0
  1 30  1  0
  3 31  1  0
  3 32  1  0
  4 33  1  0
  4 34  1  0
  6 35  1  0
  6 36  1  0
  8 37  1  0
  9 38  1  0
 12 39  1  0
 12 40  1  0
 15 41  1  0
 16 42  1  0
 18 43  1  0
 19 44  1  0
 20 45  1  0
 22 46  1  0
 25 47  1  0
 26 48  1  0
 26 49  1  0
 27 50  1  0
 27 51  1  0
M  END
>  <smiles>  (13) 
CN1CCN(Cc2ccc3c(N)nc(/C=C/c4cccnc4)nc3c2)CC1

>  <score_type>  (13) 
oracle

>  <origin>  (13) 
autodockgpu

>  <m_score__min__energy>  (13) 
-8.3100000000000005

>  <m_primary>  (13) 
energy

>  <rmsd>  (13) 
7.201398803792499

>  <m_score__min__rmsd>  (13) 
7.201398803792499

>  <meeko>  (13) 
{"free_energy": -7.18, "intermolecular_energy": -8.97, "internal_energy": -0.84, "cluster_size": 9, "cluster_id": 3, "rank_in_cluster": 7}

>  <energy>  (13) 
-7.99

>  <cluster_rmsd>  (13) 
1.28

>  <cluster>  (13) 
1

$$$$

     RDKit          3D

 51 54  0  0  0  0  0  0  0  0999 V2000
  138.9910   80.9020  223.8210 C   0  0  0  0  0  0  0  0  0  0  0  0
  140.1870   80.2280  223.4240 N   0  0  0  0  0  0  0  0  0  0  0  0
  140.0250   78.8320  223.1470 C   0  0  0  0  0  0  0  0  0  0  0  0
  141.4210   78.2990  222.7900 C   0  0  0  0  0  0  0  0  0  0  0  0
  141.6810   78.8080  221.4940 N   0  0  0  0  0  0  0  0  0  0  0  0
  141.3900   77.9950  220.3800 C   0  0  0  0  0  0  0  0  0  0  0  0
  141.8310   76.5920  220.4480 C   0  0  0  0  0  0  0  0  0  0  0  0
  142.9680   76.1010  219.8420 C   0  0  0  0  0  0  0  0  0  0  0  0
  143.3020   74.7470  219.9620 C   0  0  0  0  0  0  0  0  0  0  0  0
  142.4930   73.8940  220.6900 C   0  0  0  0  0  0  0  0  0  0  0  0
  142.7640   72.5500  220.8480 C   0  0  0  0  0  0  0  0  0  0  0  0
  143.9270   72.0090  220.2370 N   0  0  0  0  0  0  0  0  0  0  0  0
  141.9330   71.7770  221.5710 N   0  0  0  0  0  0  0  0  0  0  0  0
  140.8350   72.2630  222.1540 C   0  0  0  0  0  0  0  0  0  0  0  0
  139.9520   71.4130  222.9280 C   0  0  0  0  0  0  0  0  0  0  0  0
  140.1080   71.2960  224.2210 C   0  0  0  0  0  0  0  0  0  0  0  0
  140.0060   70.0450  224.9600 C   0  0  0  0  0  0  0  0  0  0  0  0
  140.6870   69.8630  226.1700 C   0  0  0  0  0  0  0  0  0  0  0  0
  140.6010   68.6840  226.8820 C   0  0  0  0  0  0  0  0  0  0  0  0
  139.8250   67.6620  226.3870 C   0  0  0  0  0  0  0  0  0  0  0  0
  139.1660   67.8140  225.2330 N   0  0  0  0  0  0  0  0  0  0  0  0
  139.2540   68.9720  224.5390 C   0  0  0  0  0  0  0  0  0  0  0  0
  140.5630   73.5830  222.0020 N   0  0  0  0  0  0  0  0  0  0  0  0
  141.3610   74.3930  221.2920 C   0  0  0  0  0  0  0  0  0  0  0  0
  141.0230   75.7180  221.1820 C   0  0  0  0  0  0  0  0  0  0  0  0
  141.5050   80.2010  221.3330 C   0  0  0  0  0  0  0  0  0  0  0  0
  141.0490   80.9350  222.5480 C   0  0  0  0  0  0  0  0  0  0  0  0
  138.9351   80.9335  224.9191 H   0  0  0  0  0  0  0  0  0  0  0  0
  138.9996   81.9281  223.4247 H   0  0  0  0  0  0  0  0  0  0  0  0
  138.1177   80.3632  223.4247 H   0  0  0  0  0  0  0  0  0  0  0  0
  139.6333   78.3108  224.0329 H   0  0  0  0  0  0  0  0  0  0  0  0
  139.3118   78.6672  222.3259 H   0  0  0  0  0  0  0  0  0  0  0  0
  142.1706   78.6642  223.5075 H   0  0  0  0  0  0  0  0  0  0  0  0
  141.4672   77.2004  222.8221 H   0  0  0  0  0  0  0  0  0  0  0  0
  140.2983   77.9944  220.2448 H   0  0  0  0  0  0  0  0  0  0  0  0
  141.9579   78.4348  219.5469 H   0  0  0  0  0  0  0  0  0  0  0  0
  143.6149   76.7757  219.2622 H   0  0  0  0  0  0  0  0  0  0  0  0
  144.2101   74.3606  219.4761 H   0  0  0  0  0  0  0  0  0  0  0  0
  144.1270   72.1850  219.2170 H   0  0  0  0  0  0  0  0  0  0  0  0
  144.5690   71.4370  220.8360 H   0  0  0  0  0  0  0  0  0  0  0  0
  139.1444   70.8621  222.4237 H   0  0  0  0  0  0  0  0  0  0  0  0
  140.3326   72.2088  224.7922 H   0  0  0  0  0  0  0  0  0  0  0  0
  141.3072   70.6819  226.5635 H   0  0  0  0  0  0  0  0  0  0  0  0
  141.1446   68.5635  227.8307 H   0  0  0  0  0  0  0  0  0  0  0  0
  139.7460   66.7158  226.9424 H   0  0  0  0  0  0  0  0  0  0  0  0
  138.6983   69.0601  223.5938 H   0  0  0  0  0  0  0  0  0  0  0  0
  140.1133   76.0942  221.6729 H   0  0  0  0  0  0  0  0  0  0  0  0
  142.4680   80.6302  221.0192 H   0  0  0  0  0  0  0  0  0  0  0  0
  140.7031   80.3201  220.5895 H   0  0  0  0  0  0  0  0  0  0  0  0
  141.9431   81.2246  223.1196 H   0  0  0  0  0  0  0  0  0  0  0  0
  140.4550   81.7814  222.1729 H   0  0  0  0  0  0  0  0  0  0  0  0
  1  2  1  0
  2  3  1  0
  3  4  1  0
  4  5  1  0
  5  6  1  0
  6  7  1  0
  7  8  2  0
  8  9  1  0
  9 10  2  0
 10 11  1  0
 11 12  1  0
 11 13  2  0
 13 14  1  0
 14 15  1  0
 15 16  2  0
 16 17  1  0
 17 18  2  0
 18 19  1  0
 19 20  2  0
 20 21  1  0
 21 22  2  0
 14 23  2  0
 23 24  1  0
 24 25  2  0
  5 26  1  0
 26 27  1  0
 27  2  1  0
 25  7  1  0
 24 10  1  0
 22 17  1  0
  1 28  1  0
  1 29  1  0
  1 30  1  0
  3 31  1  0
  3 32  1  0
  4 33  1  0
  4 34  1  0
  6 35  1  0
  6 36  1  0
  8 37  1  0
  9 38  1  0
 12 39  1  0
 12 40  1  0
 15 41  1  0
 16 42  1  0
 18 43  1  0
 19 44  1  0
 20 45  1  0
 22 46  1  0
 25 47  1  0
 26 48  1  0
 26 49  1  0
 27 50  1  0
 27 51  1  0
M  END
>  <smiles>  (14) 
CN1CCN(Cc2ccc3c(N)nc(/C=C/c4cccnc4)nc3c2)CC1

>  <score_type>  (14) 
oracle

>  <origin>  (14) 
autodockgpu

>  <m_score__min__energy>  (14) 
-8.3100000000000005

>  <m_primary>  (14) 
energy

>  <rmsd>  (14) 
6.966730468799434

>  <m_score__min__rmsd>  (14) 
6.966730468799434

>  <meeko>  (14) 
{"free_energy": -8.01, "intermolecular_energy": -9.8, "internal_energy": -0.54, "cluster_size": 35, "cluster_id": 1, "rank_in_cluster": 10}

>  <energy>  (14) 
-7.99

>  <cluster_rmsd>  (14) 
1.31

>  <cluster>  (14) 
1

$$$$

     RDKit          3D

 51 54  0  0  0  0  0  0  0  0999 V2000
  142.6110   81.3400  223.9370 C   0  0  0  0  0  0  0  0  0  0  0  0
  141.5990   80.5380  223.3260 N   0  0  0  0  0  0  0  0  0  0  0  0
  141.5160   80.6570  221.9010 C   0  0  0  0  0  0  0  0  0  0  0  0
  140.3490   79.7610  221.4610 C   0  0  0  0  0  0  0  0  0  0  0  0
  140.8390   78.4380  221.5970 N   0  0  0  0  0  0  0  0  0  0  0  0
  141.3900   77.8040  220.4660 C   0  0  0  0  0  0  0  0  0  0  0  0
  141.7360   76.3800  220.6060 C   0  0  0  0  0  0  0  0  0  0  0  0
  142.8290   75.7810  220.0160 C   0  0  0  0  0  0  0  0  0  0  0  0
  143.0730   74.4150  220.2060 C   0  0  0  0  0  0  0  0  0  0  0  0
  142.2190   73.6600  220.9890 C   0  0  0  0  0  0  0  0  0  0  0  0
  142.4010   72.3110  221.2180 C   0  0  0  0  0  0  0  0  0  0  0  0
  143.5160   71.6600  220.6250 N   0  0  0  0  0  0  0  0  0  0  0  0
  141.5310   71.6370  221.9910 N   0  0  0  0  0  0  0  0  0  0  0  0
  140.4770   72.2270  222.5590 C   0  0  0  0  0  0  0  0  0  0  0  0
  139.5500   71.4820  223.3880 C   0  0  0  0  0  0  0  0  0  0  0  0
  139.9870   70.5820  224.2300 C   0  0  0  0  0  0  0  0  0  0  0  0
  140.2690   70.8280  225.6380 C   0  0  0  0  0  0  0  0  0  0  0  0
  141.0880   71.8920  226.0350 C   0  0  0  0  0  0  0  0  0  0  0  0
  141.3650   72.1370  227.3650 C   0  0  0  0  0  0  0  0  0  0  0  0
  140.8200   71.3130  228.3220 C   0  0  0  0  0  0  0  0  0  0  0  0
  140.0350   70.2910  227.9650 N   0  0  0  0  0  0  0  0  0  0  0  0
  139.7670   70.0550  226.6590 C   0  0  0  0  0  0  0  0  0  0  0  0
  140.2920   73.5520  222.3380 N   0  0  0  0  0  0  0  0  0  0  0  0
  141.1320   74.2660  221.5750 C   0  0  0  0  0  0  0  0  0  0  0  0
  140.8820   75.6040  221.3960 C   0  0  0  0  0  0  0  0  0  0  0  0
  141.4080   78.1200  222.8510 C   0  0  0  0  0  0  0  0  0  0  0  0
  141.4320   79.2290  223.8470 C   0  0  0  0  0  0  0  0  0  0  0  0
  142.5231   81.2703  225.0313 H   0  0  0  0  0  0  0  0  0  0  0  0
  143.6024   80.9797  223.6251 H   0  0  0  0  0  0  0  0  0  0  0  0
  142.4867   82.3875  223.6251 H   0  0  0  0  0  0  0  0  0  0  0  0
  141.3223   81.7018  221.6167 H   0  0  0  0  0  0  0  0  0  0  0  0
  142.4570   80.3534  221.4189 H   0  0  0  0  0  0  0  0  0  0  0  0
  139.4736   79.9187  222.1082 H   0  0  0  0  0  0  0  0  0  0  0  0
  140.0212   79.9795  220.4340 H   0  0  0  0  0  0  0  0  0  0  0  0
  140.6601   77.8902  219.6476 H   0  0  0  0  0  0  0  0  0  0  0  0
  142.3467   78.3163  220.2864 H   0  0  0  0  0  0  0  0  0  0  0  0
  143.5118   76.3782  219.3938 H   0  0  0  0  0  0  0  0  0  0  0  0
  143.9454   73.9419  219.7316 H   0  0  0  0  0  0  0  0  0  0  0  0
  143.4870   71.3630  219.6140 H   0  0  0  0  0  0  0  0  0  0  0  0
  144.3570   71.4920  221.2270 H   0  0  0  0  0  0  0  0  0  0  0  0
  138.4701   71.6754  223.3081 H   0  0  0  0  0  0  0  0  0  0  0  0
  140.1540   69.5644  223.8471 H   0  0  0  0  0  0  0  0  0  0  0  0
  141.5219   72.5496  225.2673 H   0  0  0  0  0  0  0  0  0  0  0  0
  142.0117   72.9783  227.6550 H   0  0  0  0  0  0  0  0  0  0  0  0
  141.0309   71.4956  229.3861 H   0  0  0  0  0  0  0  0  0  0  0  0
  139.1173   69.2052  226.4024 H   0  0  0  0  0  0  0  0  0  0  0  0
  140.0071   76.0672  221.8756 H   0  0  0  0  0  0  0  0  0  0  0  0
  140.8313   77.2891  223.2834 H   0  0  0  0  0  0  0  0  0  0  0  0
  142.4609   77.8731  222.6499 H   0  0  0  0  0  0  0  0  0  0  0  0
  140.4797   79.2061  224.3971 H   0  0  0  0  0  0  0  0  0  0  0  0
  142.3203   79.0453  224.4692 H   0  0  0  0  0  0  0  0  0  0  0  0
  1  2  1  0
  2  3  1  0
  3  4  1  0
  4  5  1  0
  5  6  1  0
  6  7  1  0
  7  8  2  0
  8  9  1  0
  9 10  2  0
 10 11  1  0
 11 12  1  0
 11 13  2  0
 13 14  1  0
 14 15  1  0
 15 16  2  0
 16 17  1  0
 17 18  2  0
 18 19  1  0
 19 20  2  0
 20 21  1  0
 21 22  2  0
 14 23  2  0
 23 24  1  0
 24 25  2  0
  5 26  1  0
 26 27  1  0
 27  2  1  0
 25  7  1  0
 24 10  1  0
 22 17  1  0
  1 28  1  0
  1 29  1  0
  1 30  1  0
  3 31  1  0
  3 32  1  0
  4 33  1  0
  4 34  1  0
  6 35  1  0
  6 36  1  0
  8 37  1  0
  9 38  1  0
 12 39  1  0
 12 40  1  0
 15 41  1  0
 16 42  1  0
 18 43  1  0
 19 44  1  0
 20 45  1  0
 22 46  1  0
 25 47  1  0
 26 48  1  0
 26 49  1  0
 27 50  1  0
 27 51  1  0
M  END
>  <smiles>  (15) 
CN1CCN(Cc2ccc3c(N)nc(/C=C/c4cccnc4)nc3c2)CC1

>  <score_type>  (15) 
oracle

>  <origin>  (15) 
autodockgpu

>  <m_score__min__energy>  (15) 
-8.3100000000000005

>  <m_primary>  (15) 
energy

>  <rmsd>  (15) 
7.011183993236457

>  <m_score__min__rmsd>  (15) 
7.011183993236457

>  <meeko>  (15) 
{"free_energy": -8.26, "intermolecular_energy": -10.05, "internal_energy": -0.58, "cluster_size": 35, "cluster_id": 1, "rank_in_cluster": 4}

>  <energy>  (15) 
-7.99

>  <cluster_rmsd>  (15) 
1.33

>  <cluster>  (15) 
1

$$$$

     RDKit          3D

 51 54  0  0  0  0  0  0  0  0999 V2000
  142.6880   81.2930  223.9900 C   0  0  0  0  0  0  0  0  0  0  0  0
  141.6040   80.4740  223.5470 N   0  0  0  0  0  0  0  0  0  0  0  0
  141.2830   80.6030  222.1570 C   0  0  0  0  0  0  0  0  0  0  0  0
  140.0770   79.6860  221.9060 C   0  0  0  0  0  0  0  0  0  0  0  0
  140.6090   78.3730  221.9440 N   0  0  0  0  0  0  0  0  0  0  0  0
  140.9770   77.7590  220.7300 C   0  0  0  0  0  0  0  0  0  0  0  0
  141.4090   76.3540  220.8000 C   0  0  0  0  0  0  0  0  0  0  0  0
  142.5440   75.8560  220.1960 C   0  0  0  0  0  0  0  0  0  0  0  0
  142.8700   74.5000  220.3180 C   0  0  0  0  0  0  0  0  0  0  0  0
  142.0540   73.6520  221.0460 C   0  0  0  0  0  0  0  0  0  0  0  0
  142.3170   72.3070  221.2060 C   0  0  0  0  0  0  0  0  0  0  0  0
  143.4780   71.7580  220.5970 N   0  0  0  0  0  0  0  0  0  0  0  0
  141.4800   71.5400  221.9280 N   0  0  0  0  0  0  0  0  0  0  0  0
  140.3840   72.0320  222.5090 C   0  0  0  0  0  0  0  0  0  0  0  0
  139.4940   71.1890  223.2820 C   0  0  0  0  0  0  0  0  0  0  0  0
  139.9690   70.3860  224.1970 C   0  0  0  0  0  0  0  0  0  0  0  0
  140.3430   70.7910  225.5460 C   0  0  0  0  0  0  0  0  0  0  0  0
  139.9040   70.0710  226.6640 C   0  0  0  0  0  0  0  0  0  0  0  0
  140.2490   70.4420  227.9480 C   0  0  0  0  0  0  0  0  0  0  0  0
  141.0440   71.5500  228.1300 C   0  0  0  0  0  0  0  0  0  0  0  0
  141.4740   72.2520  227.0760 N   0  0  0  0  0  0  0  0  0  0  0  0
  141.1330   71.8840  225.8200 C   0  0  0  0  0  0  0  0  0  0  0  0
  140.1200   73.3540  222.3550 N   0  0  0  0  0  0  0  0  0  0  0  0
  140.9240   74.1580  221.6450 C   0  0  0  0  0  0  0  0  0  0  0  0
  140.5940   75.4860  221.5340 C   0  0  0  0  0  0  0  0  0  0  0  0
  141.3850   78.0560  223.0820 C   0  0  0  0  0  0  0  0  0  0  0  0
  141.5520   79.1580  224.0730 C   0  0  0  0  0  0  0  0  0  0  0  0
  142.7096   81.3093  225.0897 H   0  0  0  0  0  0  0  0  0  0  0  0
  143.6358   80.8834  223.6107 H   0  0  0  0  0  0  0  0  0  0  0  0
  142.5530   82.3167  223.6107 H   0  0  0  0  0  0  0  0  0  0  0  0
  141.0242   81.6458  221.9211 H   0  0  0  0  0  0  0  0  0  0  0  0
  142.1366   80.3235  221.5220 H   0  0  0  0  0  0  0  0  0  0  0  0
  139.3180   79.8198  222.6909 H   0  0  0  0  0  0  0  0  0  0  0  0
  139.5791   79.9057  220.9501 H   0  0  0  0  0  0  0  0  0  0  0  0
  140.1086   77.8067  220.0565 H   0  0  0  0  0  0  0  0  0  0  0  0
  141.8610   78.3145  220.3835 H   0  0  0  0  0  0  0  0  0  0  0  0
  143.1956   76.5264  219.6163 H   0  0  0  0  0  0  0  0  0  0  0  0
  143.7767   74.1078  219.8341 H   0  0  0  0  0  0  0  0  0  0  0  0
  143.5650   71.7210  219.5480 H   0  0  0  0  0  0  0  0  0  0  0  0
  144.2330   71.3990  221.2280 H   0  0  0  0  0  0  0  0  0  0  0  0
  138.4103   71.2254  223.0971 H   0  0  0  0  0  0  0  0  0  0  0  0
  140.0958   69.3266  223.9293 H   0  0  0  0  0  0  0  0  0  0  0  0
  139.2674   69.1864  226.5150 H   0  0  0  0  0  0  0  0  0  0  0  0
  139.8939   69.8610  228.8119 H   0  0  0  0  0  0  0  0  0  0  0  0
  141.3272   71.8598  229.1468 H   0  0  0  0  0  0  0  0  0  0  0  0
  141.5045   72.4866  224.9781 H   0  0  0  0  0  0  0  0  0  0  0  0
  139.6862   75.8684  222.0236 H   0  0  0  0  0  0  0  0  0  0  0  0
  140.9048   77.2094  223.5945 H   0  0  0  0  0  0  0  0  0  0  0  0
  142.3944   77.8324  222.7063 H   0  0  0  0  0  0  0  0  0  0  0  0
  140.7049   79.1102  224.7731 H   0  0  0  0  0  0  0  0  0  0  0  0
  142.5350   78.9887  224.5368 H   0  0  0  0  0  0  0  0  0  0  0  0
  1  2  1  0
  2  3  1  0
  3  4  1  0
  4  5  1  0
  5  6  1  0
  6  7  1  0
  7  8  2  0
  8  9  1  0
  9 10  2  0
 10 11  1  0
 11 12  1  0
 11 13  2  0
 13 14  1  0
 14 15  1  0
 15 16  2  0
 16 17  1  0
 17 18  2  0
 18 19  1  0
 19 20  2  0
 20 21  1  0
 21 22  2  0
 14 23  2  0
 23 24  1  0
 24 25  2  0
  5 26  1  0
 26 27  1  0
 27  2  1  0
 25  7  1  0
 24 10  1  0
 22 17  1  0
  1 28  1  0
  1 29  1  0
  1 30  1  0
  3 31  1  0
  3 32  1  0
  4 33  1  0
  4 34  1  0
  6 35  1  0
  6 36  1  0
  8 37  1  0
  9 38  1  0
 12 39  1  0
 12 40  1  0
 15 41  1  0
 16 42  1  0
 18 43  1  0
 19 44  1  0
 20 45  1  0
 22 46  1  0
 25 47  1  0
 26 48  1  0
 26 49  1  0
 27 50  1  0
 27 51  1  0
M  END
>  <smiles>  (16) 
CN1CCN(Cc2ccc3c(N)nc(/C=C/c4cccnc4)nc3c2)CC1

>  <score_type>  (16) 
oracle

>  <origin>  (16) 
autodockgpu

>  <m_score__min__energy>  (16) 
-8.3100000000000005

>  <m_primary>  (16) 
energy

>  <rmsd>  (16) 
6.968668226735279

>  <m_score__min__rmsd>  (16) 
6.968668226735279

>  <meeko>  (16) 
{"free_energy": -8.06, "intermolecular_energy": -9.85, "internal_energy": -0.7, "cluster_size": 35, "cluster_id": 1, "rank_in_cluster": 9}

>  <energy>  (16) 
-7.98

>  <cluster_rmsd>  (16) 
1.45

>  <cluster>  (16) 
1

$$$$

     RDKit          3D

 51 54  0  0  0  0  0  0  0  0999 V2000
  142.2480   81.6250  223.8290 C   0  0  0  0  0  0  0  0  0  0  0  0
  141.3380   80.6880  223.2480 N   0  0  0  0  0  0  0  0  0  0  0  0
  141.2540   80.7400  221.8190 C   0  0  0  0  0  0  0  0  0  0  0  0
  140.2000   79.7000  221.4120 C   0  0  0  0  0  0  0  0  0  0  0  0
  140.8350   78.4480  221.6050 N   0  0  0  0  0  0  0  0  0  0  0  0
  141.4640   77.8340  220.5030 C   0  0  0  0  0  0  0  0  0  0  0  0
  141.7830   76.4040  220.6330 C   0  0  0  0  0  0  0  0  0  0  0  0
  142.8680   75.7890  220.0440 C   0  0  0  0  0  0  0  0  0  0  0  0
  143.0870   74.4180  220.2240 C   0  0  0  0  0  0  0  0  0  0  0  0
  142.2140   73.6720  220.9950 C   0  0  0  0  0  0  0  0  0  0  0  0
  142.3710   72.3180  221.2130 C   0  0  0  0  0  0  0  0  0  0  0  0
  143.4770   71.6520  220.6210 N   0  0  0  0  0  0  0  0  0  0  0  0
  141.4840   71.6540  221.9760 N   0  0  0  0  0  0  0  0  0  0  0  0
  140.4370   72.2570  222.5420 C   0  0  0  0  0  0  0  0  0  0  0  0
  139.4920   71.5230  223.3600 C   0  0  0  0  0  0  0  0  0  0  0  0
  139.9050   70.5910  224.1780 C   0  0  0  0  0  0  0  0  0  0  0  0
  140.3070   70.8160  225.5600 C   0  0  0  0  0  0  0  0  0  0  0  0
  139.9600   69.9100  226.5700 C   0  0  0  0  0  0  0  0  0  0  0  0
  140.3320   70.1100  227.8840 C   0  0  0  0  0  0  0  0  0  0  0  0
  141.0630   71.2300  228.2060 C   0  0  0  0  0  0  0  0  0  0  0  0
  141.4050   72.1080  227.2580 N   0  0  0  0  0  0  0  0  0  0  0  0
  141.0370   71.9080  225.9710 C   0  0  0  0  0  0  0  0  0  0  0  0
  140.2780   73.5880  222.3320 N   0  0  0  0  0  0  0  0  0  0  0  0
  141.1350   74.2930  221.5800 C   0  0  0  0  0  0  0  0  0  0  0  0
  140.9110   75.6370  221.4110 C   0  0  0  0  0  0  0  0  0  0  0  0
  141.4260   78.2470  222.8730 C   0  0  0  0  0  0  0  0  0  0  0  0
  141.3160   79.3920  223.8220 C   0  0  0  0  0  0  0  0  0  0  0  0
  142.1878   81.5630  224.9256 H   0  0  0  0  0  0  0  0  0  0  0  0
  143.2725   81.3908  223.5042 H   0  0  0  0  0  0  0  0  0  0  0  0
  141.9839   82.6422  223.5042 H   0  0  0  0  0  0  0  0  0  0  0  0
  140.9451   81.7437  221.4917 H   0  0  0  0  0  0  0  0  0  0  0  0
  142.2273   80.5269  221.3529 H   0  0  0  0  0  0  0  0  0  0  0  0
  139.3067   79.7838  222.0484 H   0  0  0  0  0  0  0  0  0  0  0  0
  139.8589   79.8376  220.3753 H   0  0  0  0  0  0  0  0  0  0  0  0
  140.7994   77.9490  219.6340 H   0  0  0  0  0  0  0  0  0  0  0  0
  142.4370   78.3384  220.4094 H   0  0  0  0  0  0  0  0  0  0  0  0
  143.5646   76.3786  219.4299 H   0  0  0  0  0  0  0  0  0  0  0  0
  143.9543   73.9335  219.7517 H   0  0  0  0  0  0  0  0  0  0  0  0
  144.3710   71.5150  221.1620 H   0  0  0  0  0  0  0  0  0  0  0  0
  143.3670   71.3070  219.6380 H   0  0  0  0  0  0  0  0  0  0  0  0
  138.4183   71.7522  223.2918 H   0  0  0  0  0  0  0  0  0  0  0  0
  139.9525   69.5610  223.7947 H   0  0  0  0  0  0  0  0  0  0  0  0
  139.3755   69.0154  226.3092 H   0  0  0  0  0  0  0  0  0  0  0  0
  140.0484   69.3853  228.6614 H   0  0  0  0  0  0  0  0  0  0  0  0
  141.3675   71.4038  229.2486 H   0  0  0  0  0  0  0  0  0  0  0  0
  141.3352   72.6528  225.2185 H   0  0  0  0  0  0  0  0  0  0  0  0
  140.0420   76.1120  221.8897 H   0  0  0  0  0  0  0  0  0  0  0  0
  140.9431   77.3745  223.3374 H   0  0  0  0  0  0  0  0  0  0  0  0
  142.5016   78.1119  222.6865 H   0  0  0  0  0  0  0  0  0  0  0  0
  140.3679   79.2839  224.3691 H   0  0  0  0  0  0  0  0  0  0  0  0
  142.2143   79.3361  224.4544 H   0  0  0  0  0  0  0  0  0  0  0  0
  1  2  1  0
  2  3  1  0
  3  4  1  0
  4  5  1  0
  5  6  1  0
  6  7  1  0
  7  8  2  0
  8  9  1  0
  9 10  2  0
 10 11  1  0
 11 12  1  0
 11 13  2  0
 13 14  1  0
 14 15  1  0
 15 16  2  0
 16 17  1  0
 17 18  2  0
 18 19  1  0
 19 20  2  0
 20 21  1  0
 21 22  2  0
 14 23  2  0
 23 24  1  0
 24 25  2  0
  5 26  1  0
 26 27  1  0
 27  2  1  0
 25  7  1  0
 24 10  1  0
 22 17  1  0
  1 28  1  0
  1 29  1  0
  1 30  1  0
  3 31  1  0
  3 32  1  0
  4 33  1  0
  4 34  1  0
  6 35  1  0
  6 36  1  0
  8 37  1  0
  9 38  1  0
 12 39  1  0
 12 40  1  0
 15 41  1  0
 16 42  1  0
 18 43  1  0
 19 44  1  0
 20 45  1  0
 22 46  1  0
 25 47  1  0
 26 48  1  0
 26 49  1  0
 27 50  1  0
 27 51  1  0
M  END
>  <smiles>  (17) 
CN1CCN(Cc2ccc3c(N)nc(/C=C/c4cccnc4)nc3c2)CC1

>  <score_type>  (17) 
oracle

>  <origin>  (17) 
autodockgpu

>  <m_score__min__energy>  (17) 
-8.3100000000000005

>  <m_primary>  (17) 
energy

>  <rmsd>  (17) 
7.0145157827033495

>  <m_score__min__rmsd>  (17) 
7.0145157827033495

>  <meeko>  (17) 
{"free_energy": -8.18, "intermolecular_energy": -9.97, "internal_energy": -0.62, "cluster_size": 35, "cluster_id": 1, "rank_in_cluster": 5}

>  <energy>  (17) 
-7.96

>  <cluster_rmsd>  (17) 
1.34

>  <cluster>  (17) 
1

$$$$

     RDKit          3D

 51 54  0  0  0  0  0  0  0  0999 V2000
  143.4350   80.4020  223.2450 C   0  0  0  0  0  0  0  0  0  0  0  0
  142.0660   80.6570  222.9200 N   0  0  0  0  0  0  0  0  0  0  0  0
  141.7450   80.5250  221.5300 C   0  0  0  0  0  0  0  0  0  0  0  0
  140.2580   80.8840  221.3970 C   0  0  0  0  0  0  0  0  0  0  0  0
  139.5680   79.7730  221.9440 N   0  0  0  0  0  0  0  0  0  0  0  0
  139.1180   78.7620  221.0720 C   0  0  0  0  0  0  0  0  0  0  0  0
  139.9460   77.5480  220.9790 C   0  0  0  0  0  0  0  0  0  0  0  0
  141.1120   77.4520  220.2490 C   0  0  0  0  0  0  0  0  0  0  0  0
  141.8290   76.2510  220.2200 C   0  0  0  0  0  0  0  0  0  0  0  0
  141.3720   75.1520  220.9250 C   0  0  0  0  0  0  0  0  0  0  0  0
  142.0300   73.9390  220.9400 C   0  0  0  0  0  0  0  0  0  0  0  0
  143.2340   73.8040  220.1980 N   0  0  0  0  0  0  0  0  0  0  0  0
  141.5280   72.9110  221.6490 N   0  0  0  0  0  0  0  0  0  0  0  0
  140.3990   73.0150  222.3530 C   0  0  0  0  0  0  0  0  0  0  0  0
  139.8760   71.8950  223.1090 C   0  0  0  0  0  0  0  0  0  0  0  0
  140.6640   71.1770  223.8650 C   0  0  0  0  0  0  0  0  0  0  0  0
  140.5390   71.0480  225.3110 C   0  0  0  0  0  0  0  0  0  0  0  0
  139.7910   70.0110  225.8820 C   0  0  0  0  0  0  0  0  0  0  0  0
  139.6630   69.8760  227.2500 C   0  0  0  0  0  0  0  0  0  0  0  0
  140.2870   70.7870  228.0710 C   0  0  0  0  0  0  0  0  0  0  0  0
  141.0060   71.7850  227.5460 N   0  0  0  0  0  0  0  0  0  0  0  0
  141.1280   71.9130  226.2050 C   0  0  0  0  0  0  0  0  0  0  0  0
  139.7480   74.2040  222.3430 N   0  0  0  0  0  0  0  0  0  0  0  0
  140.2090   75.2570  221.6520 C   0  0  0  0  0  0  0  0  0  0  0  0
  139.4970   76.4300  221.6880 C   0  0  0  0  0  0  0  0  0  0  0  0
  139.9810   79.3680  223.2350 C   0  0  0  0  0  0  0  0  0  0  0  0
  141.0990   80.1560  223.8280 C   0  0  0  0  0  0  0  0  0  0  0  0
  143.5543   80.3798  224.3383 H   0  0  0  0  0  0  0  0  0  0  0  0
  143.7374   79.4321  222.8234 H   0  0  0  0  0  0  0  0  0  0  0  0
  144.0664   81.1980  222.8234 H   0  0  0  0  0  0  0  0  0  0  0  0
  142.3584   81.2133  220.9301 H   0  0  0  0  0  0  0  0  0  0  0  0
  141.9449   79.5058  221.1678 H   0  0  0  0  0  0  0  0  0  0  0  0
  140.0282   81.7995  221.9618 H   0  0  0  0  0  0  0  0  0  0  0  0
  139.9694   81.0800  220.3538 H   0  0  0  0  0  0  0  0  0  0  0  0
  138.1156   78.4562  221.4062 H   0  0  0  0  0  0  0  0  0  0  0  0
  139.1525   79.2113  220.0685 H   0  0  0  0  0  0  0  0  0  0  0  0
  141.4798   78.3233  219.6872 H   0  0  0  0  0  0  0  0  0  0  0  0
  142.7581   76.1804  219.6354 H   0  0  0  0  0  0  0  0  0  0  0  0
  144.0570   74.4310  220.3960 H   0  0  0  0  0  0  0  0  0  0  0  0
  143.2680   73.0630  219.4590 H   0  0  0  0  0  0  0  0  0  0  0  0
  138.8062   71.6468  223.0460 H   0  0  0  0  0  0  0  0  0  0  0  0
  141.4819   70.6297  223.3735 H   0  0  0  0  0  0  0  0  0  0  0  0
  139.2923   69.2849  225.2232 H   0  0  0  0  0  0  0  0  0  0  0  0
  139.0713   69.0529  227.6770 H   0  0  0  0  0  0  0  0  0  0  0  0
  140.1941   70.6941  229.1631 H   0  0  0  0  0  0  0  0  0  0  0  0
  141.7261   72.7476  225.8104 H   0  0  0  0  0  0  0  0  0  0  0  0
  138.5698   76.4905  222.2768 H   0  0  0  0  0  0  0  0  0  0  0  0
  139.1151   79.4485  223.9086 H   0  0  0  0  0  0  0  0  0  0  0  0
  140.3613   78.3420  223.1223 H   0  0  0  0  0  0  0  0  0  0  0  0
  140.6599   81.0145  224.3572 H   0  0  0  0  0  0  0  0  0  0  0  0
  141.6422   79.4522  224.4757 H   0  0  0  0  0  0  0  0  0  0  0  0
  1  2  1  0
  2  3  1  0
  3  4  1  0
  4  5  1  0
  5  6  1  0
  6  7  1  0
  7  8  2  0
  8  9  1  0
  9 10  2  0
 10 11  1  0
 11 12  1  0
 11 13  2  0
 13 14  1  0
 14 15  1  0
 15 16  2  0
 16 17  1  0
 17 18  2  0
 18 19  1  0
 19 20  2  0
 20 21  1  0
 21 22  2  0
 14 23  2  0
 23 24  1  0
 24 25  2  0
  5 26  1  0
 26 27  1  0
 27  2  1  0
 25  7  1  0
 24 10  1  0
 22 17  1  0
  1 28  1  0
  1 29  1  0
  1 30  1  0
  3 31  1  0
  3 32  1  0
  4 33  1  0
  4 34  1  0
  6 35  1  0
  6 36  1  0
  8 37  1  0
  9 38  1  0
 12 39  1  0
 12 40  1  0
 15 41  1  0
 16 42  1  0
 18 43  1  0
 19 44  1  0
 20 45  1  0
 22 46  1  0
 25 47  1  0
 26 48  1  0
 26 49  1  0
 27 50  1  0
 27 51  1  0
M  END
>  <smiles>  (18) 
CN1CCN(Cc2ccc3c(N)nc(/C=C/c4cccnc4)nc3c2)CC1

>  <score_type>  (18) 
oracle

>  <origin>  (18) 
autodockgpu

>  <m_score__min__energy>  (18) 
-8.3100000000000005

>  <m_primary>  (18) 
energy

>  <rmsd>  (18) 
7.530991055690904

>  <m_score__min__rmsd>  (18) 
7.530991055690904

>  <meeko>  (18) 
{"free_energy": -7.29, "intermolecular_energy": -9.08, "internal_energy": -0.81, "cluster_size": 35, "cluster_id": 1, "rank_in_cluster": 31}

>  <energy>  (18) 
-7.96

>  <cluster_rmsd>  (18) 
1.27

>  <cluster>  (18) 
1

$$$$

     RDKit          3D

 51 54  0  0  0  0  0  0  0  0999 V2000
  138.5910   80.8740  224.1430 C   0  0  0  0  0  0  0  0  0  0  0  0
  139.9440   80.5610  223.8030 N   0  0  0  0  0  0  0  0  0  0  0  0
  140.2600   79.1650  223.8220 C   0  0  0  0  0  0  0  0  0  0  0  0
  141.7530   79.0570  223.4800 C   0  0  0  0  0  0  0  0  0  0  0  0
  141.8260   79.3350  222.0920 N   0  0  0  0  0  0  0  0  0  0  0  0
  141.8240   78.2560  221.1860 C   0  0  0  0  0  0  0  0  0  0  0  0
  140.7690   77.2450  221.3620 C   0  0  0  0  0  0  0  0  0  0  0  0
  139.4240   77.4770  221.1640 C   0  0  0  0  0  0  0  0  0  0  0  0
  138.4940   76.4500  221.3600 C   0  0  0  0  0  0  0  0  0  0  0  0
  138.9200   75.1940  221.7540 C   0  0  0  0  0  0  0  0  0  0  0  0
  138.0570   74.1380  221.9640 C   0  0  0  0  0  0  0  0  0  0  0  0
  136.6640   74.3410  221.7700 N   0  0  0  0  0  0  0  0  0  0  0  0
  138.5400   72.9410  222.3460 N   0  0  0  0  0  0  0  0  0  0  0  0
  139.8430   72.7260  222.5340 C   0  0  0  0  0  0  0  0  0  0  0  0
  140.3440   71.4300  222.9470 C   0  0  0  0  0  0  0  0  0  0  0  0
  139.7520   70.7630  223.9030 C   0  0  0  0  0  0  0  0  0  0  0  0
  140.0990   70.8500  225.3150 C   0  0  0  0  0  0  0  0  0  0  0  0
  140.9240   71.8740  225.7940 C   0  0  0  0  0  0  0  0  0  0  0  0
  141.2620   71.9690  227.1290 C   0  0  0  0  0  0  0  0  0  0  0  0
  140.7730   71.0310  228.0090 C   0  0  0  0  0  0  0  0  0  0  0  0
  139.9830   70.0450  227.5720 N   0  0  0  0  0  0  0  0  0  0  0  0
  139.6550   69.9560  226.2630 C   0  0  0  0  0  0  0  0  0  0  0  0
  140.6960   73.7600  222.3290 N   0  0  0  0  0  0  0  0  0  0  0  0
  140.2630   74.9700  221.9480 C   0  0  0  0  0  0  0  0  0  0  0  0
  141.1850   75.9700  221.7580 C   0  0  0  0  0  0  0  0  0  0  0  0
  141.1920   80.5270  221.6700 C   0  0  0  0  0  0  0  0  0  0  0  0
  140.5170   81.3100  222.7440 C   0  0  0  0  0  0  0  0  0  0  0  0
  138.4843   80.8987  225.2375 H   0  0  0  0  0  0  0  0  0  0  0  0
  138.3263   81.8571  223.7265 H   0  0  0  0  0  0  0  0  0  0  0  0
  137.9214   80.1070  223.7265 H   0  0  0  0  0  0  0  0  0  0  0  0
  140.0663   78.7441  224.8197 H   0  0  0  0  0  0  0  0  0  0  0  0
  139.6434   78.6054  223.1032 H   0  0  0  0  0  0  0  0  0  0  0  0
  142.3364   79.7920  224.0539 H   0  0  0  0  0  0  0  0  0  0  0  0
  142.1661   78.0682  223.7284 H   0  0  0  0  0  0  0  0  0  0  0  0
  141.7209   78.6720  220.1729 H   0  0  0  0  0  0  0  0  0  0  0  0
  142.7681   77.7226  221.3708 H   0  0  0  0  0  0  0  0  0  0  0  0
  139.0807   78.4740  220.8506 H   0  0  0  0  0  0  0  0  0  0  0  0
  137.4226   76.6415  221.2006 H   0  0  0  0  0  0  0  0  0  0  0  0
  136.3030   74.7390  220.8640 H   0  0  0  0  0  0  0  0  0  0  0  0
  136.0220   74.0810  222.5560 H   0  0  0  0  0  0  0  0  0  0  0  0
  141.2294   71.0043  222.4521 H   0  0  0  0  0  0  0  0  0  0  0  0
  138.9319   70.0866  223.6204 H   0  0  0  0  0  0  0  0  0  0  0  0
  141.3132   72.6226  225.0883 H   0  0  0  0  0  0  0  0  0  0  0  0
  141.9123   72.7821  227.4839 H   0  0  0  0  0  0  0  0  0  0  0  0
  141.0331   71.0927  229.0760 H   0  0  0  0  0  0  0  0  0  0  0  0
  139.0030   69.1307  225.9408 H   0  0  0  0  0  0  0  0  0  0  0  0
  142.2543   75.7673  221.9178 H   0  0  0  0  0  0  0  0  0  0  0  0
  141.9549   81.1717  221.2091 H   0  0  0  0  0  0  0  0  0  0  0  0
  140.3961   80.2166  220.9770 H   0  0  0  0  0  0  0  0  0  0  0  0
  141.2621   81.9913  223.1805 H   0  0  0  0  0  0  0  0  0  0  0  0
  139.6726   81.8148  222.2519 H   0  0  0  0  0  0  0  0  0  0  0  0
  1  2  1  0
  2  3  1  0
  3  4  1  0
  4  5  1  0
  5  6  1  0
  6  7  1  0
  7  8  2  0
  8  9  1  0
  9 10  2  0
 10 11  1  0
 11 12  1  0
 11 13  2  0
 13 14  1  0
 14 15  1  0
 15 16  2  0
 16 17  1  0
 17 18  2  0
 18 19  1  0
 19 20  2  0
 20 21  1  0
 21 22  2  0
 14 23  2  0
 23 24  1  0
 24 25  2  0
  5 26  1  0
 26 27  1  0
 27  2  1  0
 25  7  1  0
 24 10  1  0
 22 17  1  0
  1 28  1  0
  1 29  1  0
  1 30  1  0
  3 31  1  0
  3 32  1  0
  4 33  1  0
  4 34  1  0
  6 35  1  0
  6 36  1  0
  8 37  1  0
  9 38  1  0
 12 39  1  0
 12 40  1  0
 15 41  1  0
 16 42  1  0
 18 43  1  0
 19 44  1  0
 20 45  1  0
 22 46  1  0
 25 47  1  0
 26 48  1  0
 26 49  1  0
 27 50  1  0
 27 51  1  0
M  END
>  <smiles>  (19) 
CN1CCN(Cc2ccc3c(N)nc(/C=C/c4cccnc4)nc3c2)CC1

>  <score_type>  (19) 
oracle

>  <origin>  (19) 
autodockgpu

>  <m_score__min__energy>  (19) 
-8.3100000000000005

>  <m_primary>  (19) 
energy

>  <rmsd>  (19) 
7.176371333311563

>  <m_score__min__rmsd>  (19) 
7.176371333311563

>  <meeko>  (19) 
{"free_energy": -7.23, "intermolecular_energy": -9.02, "internal_energy": -0.86, "cluster_size": 9, "cluster_id": 3, "rank_in_cluster": 4}

>  <energy>  (19) 
-7.93

>  <cluster_rmsd>  (19) 
1.25

>  <cluster>  (19) 
1

$$$$

     RDKit          3D

 51 54  0  0  0  0  0  0  0  0999 V2000
  143.3490   80.2860  223.0350 C   0  0  0  0  0  0  0  0  0  0  0  0
  141.9420   80.4390  222.8330 N   0  0  0  0  0  0  0  0  0  0  0  0
  141.5040   80.2400  221.4830 C   0  0  0  0  0  0  0  0  0  0  0  0
  139.9900   80.4950  221.4790 C   0  0  0  0  0  0  0  0  0  0  0  0
  139.4320   79.3600  222.1180 N   0  0  0  0  0  0  0  0  0  0  0  0
  138.9750   78.2930  221.3190 C   0  0  0  0  0  0  0  0  0  0  0  0
  139.8880   77.1510  221.1500 C   0  0  0  0  0  0  0  0  0  0  0  0
  141.0440   77.1800  220.3980 C   0  0  0  0  0  0  0  0  0  0  0  0
  141.8480   76.0390  220.2960 C   0  0  0  0  0  0  0  0  0  0  0  0
  141.4870   74.8740  220.9500 C   0  0  0  0  0  0  0  0  0  0  0  0
  142.2330   73.7150  220.8910 C   0  0  0  0  0  0  0  0  0  0  0  0
  143.4300   73.7090  220.1250 N   0  0  0  0  0  0  0  0  0  0  0  0
  141.8230   72.6180  221.5520 N   0  0  0  0  0  0  0  0  0  0  0  0
  140.7030   72.6000  222.2780 C   0  0  0  0  0  0  0  0  0  0  0  0
  140.2780   71.4070  222.9830 C   0  0  0  0  0  0  0  0  0  0  0  0
  139.5470   71.4980  224.0620 C   0  0  0  0  0  0  0  0  0  0  0  0
  139.9590   71.0500  225.3860 C   0  0  0  0  0  0  0  0  0  0  0  0
  140.6740   71.8950  226.2440 C   0  0  0  0  0  0  0  0  0  0  0  0
  141.0710   71.4860  227.5000 C   0  0  0  0  0  0  0  0  0  0  0  0
  140.7550   70.2130  227.9180 C   0  0  0  0  0  0  0  0  0  0  0  0
  140.0730   69.3900  227.1150 N   0  0  0  0  0  0  0  0  0  0  0  0
  139.6860   69.7970  225.8830 C   0  0  0  0  0  0  0  0  0  0  0  0
  139.9660   73.7360  222.3400 N   0  0  0  0  0  0  0  0  0  0  0  0
  140.3330   74.8540  221.6980 C   0  0  0  0  0  0  0  0  0  0  0  0
  139.5370   75.9670  221.8070 C   0  0  0  0  0  0  0  0  0  0  0  0
  139.9880   79.0260  223.3750 C   0  0  0  0  0  0  0  0  0  0  0  0
  141.0980   79.9050  223.8400 C   0  0  0  0  0  0  0  0  0  0  0  0
  143.5642   80.2626  224.1135 H   0  0  0  0  0  0  0  0  0  0  0  0
  143.6856   79.3460  222.5735 H   0  0  0  0  0  0  0  0  0  0  0  0
  143.8798   81.1317  222.5735 H   0  0  0  0  0  0  0  0  0  0  0  0
  142.0111   80.9470  220.8099 H   0  0  0  0  0  0  0  0  0  0  0  0
  141.7392   79.2244  221.1320 H   0  0  0  0  0  0  0  0  0  0  0  0
  139.7496   81.4117  222.0374 H   0  0  0  0  0  0  0  0  0  0  0  0
  139.5946   80.6364  220.4623 H   0  0  0  0  0  0  0  0  0  0  0  0
  138.0470   77.9128  221.7709 H   0  0  0  0  0  0  0  0  0  0  0  0
  138.8572   78.7184  220.3114 H   0  0  0  0  0  0  0  0  0  0  0  0
  141.3351   78.1037  219.8764 H   0  0  0  0  0  0  0  0  0  0  0  0
  142.7687   76.0683  219.6948 H   0  0  0  0  0  0  0  0  0  0  0  0
  144.1630   74.4510  220.2720 H   0  0  0  0  0  0  0  0  0  0  0  0
  143.5500   72.9440  219.4190 H   0  0  0  0  0  0  0  0  0  0  0  0
  140.5734   70.4166  222.6064 H   0  0  0  0  0  0  0  0  0  0  0  0
  138.5470   71.9457  223.9638 H   0  0  0  0  0  0  0  0  0  0  0  0
  140.9256   72.9116  225.9074 H   0  0  0  0  0  0  0  0  0  0  0  0
  141.6316   72.1666  228.1576 H   0  0  0  0  0  0  0  0  0  0  0  0
  141.0649   69.8716  228.9167 H   0  0  0  0  0  0  0  0  0  0  0  0
  139.1270   69.0923  225.2498 H   0  0  0  0  0  0  0  0  0  0  0  0
  138.6199   75.9277  222.4131 H   0  0  0  0  0  0  0  0  0  0  0  0
  139.1837   79.0711  224.1240 H   0  0  0  0  0  0  0  0  0  0  0  0
  140.4264   78.0244  223.2545 H   0  0  0  0  0  0  0  0  0  0  0  0
  140.6507   80.7495  224.3847 H   0  0  0  0  0  0  0  0  0  0  0  0
  141.7451   79.2601  224.4528 H   0  0  0  0  0  0  0  0  0  0  0  0
  1  2  1  0
  2  3  1  0
  3  4  1  0
  4  5  1  0
  5  6  1  0
  6  7  1  0
  7  8  2  0
  8  9  1  0
  9 10  2  0
 10 11  1  0
 11 12  1  0
 11 13  2  0
 13 14  1  0
 14 15  1  0
 15 16  2  0
 16 17  1  0
 17 18  2  0
 18 19  1  0
 19 20  2  0
 20 21  1  0
 21 22  2  0
 14 23  2  0
 23 24  1  0
 24 25  2  0
  5 26  1  0
 26 27  1  0
 27  2  1  0
 25  7  1  0
 24 10  1  0
 22 17  1  0
  1 28  1  0
  1 29  1  0
  1 30  1  0
  3 31  1  0
  3 32  1  0
  4 33  1  0
  4 34  1  0
  6 35  1  0
  6 36  1  0
  8 37  1  0
  9 38  1  0
 12 39  1  0
 12 40  1  0
 15 41  1  0
 16 42  1  0
 18 43  1  0
 19 44  1  0
 20 45  1  0
 22 46  1  0
 25 47  1  0
 26 48  1  0
 26 49  1  0
 27 50  1  0
 27 51  1  0
M  END
>  <smiles>  (20) 
CN1CCN(Cc2ccc3c(N)nc(/C=C/c4cccnc4)nc3c2)CC1

>  <score_type>  (20) 
oracle

>  <origin>  (20) 
autodockgpu

>  <m_score__min__energy>  (20) 
-8.3100000000000005

>  <m_primary>  (20) 
energy

>  <rmsd>  (20) 
7.2681724443779565

>  <m_score__min__rmsd>  (20) 
7.2681724443779565

>  <meeko>  (20) 
{"free_energy": -7.27, "intermolecular_energy": -9.06, "internal_energy": -0.84, "cluster_size": 35, "cluster_id": 1, "rank_in_cluster": 33}

>  <energy>  (20) 
-7.9

>  <cluster_rmsd>  (20) 
1.3

>  <cluster>  (20) 
1

$$$$

     RDKit          3D

 51 54  0  0  0  0  0  0  0  0999 V2000
  143.3290   80.8740  223.8460 C   0  0  0  0  0  0  0  0  0  0  0  0
  142.1060   80.3400  223.3340 N   0  0  0  0  0  0  0  0  0  0  0  0
  141.9130   80.5250  221.9270 C   0  0  0  0  0  0  0  0  0  0  0  0
  140.5370   79.9290  221.5990 C   0  0  0  0  0  0  0  0  0  0  0  0
  140.7240   78.5260  221.6680 N   0  0  0  0  0  0  0  0  0  0  0  0
  141.0040   77.8230  220.4790 C   0  0  0  0  0  0  0  0  0  0  0  0
  141.4330   76.4230  220.6200 C   0  0  0  0  0  0  0  0  0  0  0  0
  142.5640   75.8900  220.0390 C   0  0  0  0  0  0  0  0  0  0  0  0
  142.8870   74.5410  220.2300 C   0  0  0  0  0  0  0  0  0  0  0  0
  142.0730   73.7350  221.0040 C   0  0  0  0  0  0  0  0  0  0  0  0
  142.3330   72.3990  221.2320 C   0  0  0  0  0  0  0  0  0  0  0  0
  143.4900   71.8170  220.6480 N   0  0  0  0  0  0  0  0  0  0  0  0
  141.4970   71.6730  221.9970 N   0  0  0  0  0  0  0  0  0  0  0  0
  140.4050   72.1980  222.5560 C   0  0  0  0  0  0  0  0  0  0  0  0
  139.5160   71.3980  223.3750 C   0  0  0  0  0  0  0  0  0  0  0  0
  139.9990   70.5320  224.2270 C   0  0  0  0  0  0  0  0  0  0  0  0
  140.2840   70.8140  225.6280 C   0  0  0  0  0  0  0  0  0  0  0  0
  141.0770   71.9080  225.9980 C   0  0  0  0  0  0  0  0  0  0  0  0
  141.3560   72.1870  227.3200 C   0  0  0  0  0  0  0  0  0  0  0  0
  140.8420   71.3680  228.2980 C   0  0  0  0  0  0  0  0  0  0  0  0
  140.0830   70.3180  227.9670 N   0  0  0  0  0  0  0  0  0  0  0  0
  139.8120   70.0480  226.6690 C   0  0  0  0  0  0  0  0  0  0  0  0
  140.1440   73.5110  222.3350 N   0  0  0  0  0  0  0  0  0  0  0  0
  140.9470   74.2750  221.5810 C   0  0  0  0  0  0  0  0  0  0  0  0
  140.6200   75.5960  221.4020 C   0  0  0  0  0  0  0  0  0  0  0  0
  141.3270   78.0440  222.8530 C   0  0  0  0  0  0  0  0  0  0  0  0
  141.6990   79.0850  223.8540 C   0  0  0  0  0  0  0  0  0  0  0  0
  143.3023   80.8623  224.9456 H   0  0  0  0  0  0  0  0  0  0  0  0
  144.1724   80.2622  223.4932 H   0  0  0  0  0  0  0  0  0  0  0  0
  143.4536   81.9084  223.4932 H   0  0  0  0  0  0  0  0  0  0  0  0
  141.9335   81.5961  221.6773 H   0  0  0  0  0  0  0  0  0  0  0  0
  142.7092   80.0361  221.3465 H   0  0  0  0  0  0  0  0  0  0  0  0
  139.7876   80.2566  222.3346 H   0  0  0  0  0  0  0  0  0  0  0  0
  140.1696   80.2508  220.6134 H   0  0  0  0  0  0  0  0  0  0  0  0
  140.0912   77.8308  219.8653 H   0  0  0  0  0  0  0  0  0  0  0  0
  141.8645   78.3436  220.0334 H   0  0  0  0  0  0  0  0  0  0  0  0
  143.2154   76.5272  219.4228 H   0  0  0  0  0  0  0  0  0  0  0  0
  143.7904   74.1216  219.7632 H   0  0  0  0  0  0  0  0  0  0  0  0
  143.5590   71.6960  219.6040 H   0  0  0  0  0  0  0  0  0  0  0  0
  144.2600   71.5170  221.2920 H   0  0  0  0  0  0  0  0  0  0  0  0
  138.4271   71.5204  223.2789 H   0  0  0  0  0  0  0  0  0  0  0  0
  140.2054   69.5160  223.8594 H   0  0  0  0  0  0  0  0  0  0  0  0
  141.4878   72.5614  225.2142 H   0  0  0  0  0  0  0  0  0  0  0  0
  141.9805   73.0520  227.5879 H   0  0  0  0  0  0  0  0  0  0  0  0
  141.0560   71.5774  229.3565 H   0  0  0  0  0  0  0  0  0  0  0  0
  139.1849   69.1751  226.4351 H   0  0  0  0  0  0  0  0  0  0  0  0
  139.7154   76.0057  221.8752 H   0  0  0  0  0  0  0  0  0  0  0  0
  140.6225   77.3488  223.3330 H   0  0  0  0  0  0  0  0  0  0  0  0
  142.2714   77.5739  222.5413 H   0  0  0  0  0  0  0  0  0  0  0  0
  140.8248   79.2571  224.4991 H   0  0  0  0  0  0  0  0  0  0  0  0
  142.5794   78.6857  224.3789 H   0  0  0  0  0  0  0  0  0  0  0  0
  1  2  1  0
  2  3  1  0
  3  4  1  0
  4  5  1  0
  5  6  1  0
  6  7  1  0
  7  8  2  0
  8  9  1  0
  9 10  2  0
 10 11  1  0
 11 12  1  0
 11 13  2  0
 13 14  1  0
 14 15  1  0
 15 16  2  0
 16 17  1  0
 17 18  2  0
 18 19  1  0
 19 20  2  0
 20 21  1  0
 21 22  2  0
 14 23  2  0
 23 24  1  0
 24 25  2  0
  5 26  1  0
 26 27  1  0
 27  2  1  0
 25  7  1  0
 24 10  1  0
 22 17  1  0
  1 28  1  0
  1 29  1  0
  1 30  1  0
  3 31  1  0
  3 32  1  0
  4 33  1  0
  4 34  1  0
  6 35  1  0
  6 36  1  0
  8 37  1  0
  9 38  1  0
 12 39  1  0
 12 40  1  0
 15 41  1  0
 16 42  1  0
 18 43  1  0
 19 44  1  0
 20 45  1  0
 22 46  1  0
 25 47  1  0
 26 48  1  0
 26 49  1  0
 27 50  1  0
 27 51  1  0
M  END
>  <smiles>  (21) 
CN1CCN(Cc2ccc3c(N)nc(/C=C/c4cccnc4)nc3c2)CC1

>  <score_type>  (21) 
oracle

>  <origin>  (21) 
autodockgpu

>  <m_score__min__energy>  (21) 
-8.3100000000000005

>  <m_primary>  (21) 
energy

>  <rmsd>  (21) 
7.015447145442265

>  <m_score__min__rmsd>  (21) 
7.015447145442265

>  <meeko>  (21) 
{"free_energy": -8.28, "intermolecular_energy": -10.07, "internal_energy": -0.6, "cluster_size": 35, "cluster_id": 1, "rank_in_cluster": 3}

>  <energy>  (21) 
-7.89

>  <cluster_rmsd>  (21) 
1.4

>  <cluster>  (21) 
1

$$$$

     RDKit          3D

 51 54  0  0  0  0  0  0  0  0999 V2000
  139.0440   80.8990  223.7790 C   0  0  0  0  0  0  0  0  0  0  0  0
  140.2320   80.2000  223.4000 N   0  0  0  0  0  0  0  0  0  0  0  0
  140.0560   78.7970  223.1720 C   0  0  0  0  0  0  0  0  0  0  0  0
  141.4450   78.2390  222.8280 C   0  0  0  0  0  0  0  0  0  0  0  0
  141.7030   78.7000  221.5130 N   0  0  0  0  0  0  0  0  0  0  0  0
  141.3980   77.8520  220.4290 C   0  0  0  0  0  0  0  0  0  0  0  0
  141.7570   76.4320  220.5760 C   0  0  0  0  0  0  0  0  0  0  0  0
  142.8770   75.8490  220.0220 C   0  0  0  0  0  0  0  0  0  0  0  0
  143.1310   74.4860  220.2160 C   0  0  0  0  0  0  0  0  0  0  0  0
  142.2600   73.7170  220.9650 C   0  0  0  0  0  0  0  0  0  0  0  0
  142.4510   72.3690  221.1960 C   0  0  0  0  0  0  0  0  0  0  0  0
  143.5940   71.7350  220.6390 N   0  0  0  0  0  0  0  0  0  0  0  0
  141.5630   71.6810  221.9360 N   0  0  0  0  0  0  0  0  0  0  0  0
  140.4820   72.2560  222.4680 C   0  0  0  0  0  0  0  0  0  0  0  0
  139.5370   71.4960  223.2620 C   0  0  0  0  0  0  0  0  0  0  0  0
  139.9540   70.5810  224.0960 C   0  0  0  0  0  0  0  0  0  0  0  0
  140.2550   70.8120  225.5030 C   0  0  0  0  0  0  0  0  0  0  0  0
  141.0780   71.8730  225.9000 C   0  0  0  0  0  0  0  0  0  0  0  0
  141.3730   72.1050  227.2280 C   0  0  0  0  0  0  0  0  0  0  0  0
  140.8430   71.2700  228.1840 C   0  0  0  0  0  0  0  0  0  0  0  0
  140.0550   70.2500  227.8270 N   0  0  0  0  0  0  0  0  0  0  0  0
  139.7690   70.0270  226.5230 C   0  0  0  0  0  0  0  0  0  0  0  0
  140.2890   73.5800  222.2460 N   0  0  0  0  0  0  0  0  0  0  0  0
  141.1460   74.3070  221.5150 C   0  0  0  0  0  0  0  0  0  0  0  0
  140.8860   75.6420  221.3330 C   0  0  0  0  0  0  0  0  0  0  0  0
  141.5390   80.0890  221.3050 C   0  0  0  0  0  0  0  0  0  0  0  0
  141.0960   80.8690  222.4960 C   0  0  0  0  0  0  0  0  0  0  0  0
  138.9763   80.9389  224.8762 H   0  0  0  0  0  0  0  0  0  0  0  0
  139.0763   81.9221  223.3762 H   0  0  0  0  0  0  0  0  0  0  0  0
  138.1653   80.3739  223.3762 H   0  0  0  0  0  0  0  0  0  0  0  0
  139.6634   78.3103  224.0770 H   0  0  0  0  0  0  0  0  0  0  0  0
  139.3378   78.6108  222.3599 H   0  0  0  0  0  0  0  0  0  0  0  0
  142.2014   78.6223  223.5287 H   0  0  0  0  0  0  0  0  0  0  0  0
  141.4817   77.1419  222.8988 H   0  0  0  0  0  0  0  0  0  0  0  0
  140.3123   77.9051  220.2602 H   0  0  0  0  0  0  0  0  0  0  0  0
  142.0127   78.2195  219.5941 H   0  0  0  0  0  0  0  0  0  0  0  0
  143.5733   76.4569  219.4256 H   0  0  0  0  0  0  0  0  0  0  0  0
  144.0258   74.0259  219.7714 H   0  0  0  0  0  0  0  0  0  0  0  0
  144.4290   71.5140  221.2420 H   0  0  0  0  0  0  0  0  0  0  0  0
  143.5690   71.4980  219.6190 H   0  0  0  0  0  0  0  0  0  0  0  0
  138.4592   71.6914  223.1614 H   0  0  0  0  0  0  0  0  0  0  0  0
  140.0878   69.5607  223.7074 H   0  0  0  0  0  0  0  0  0  0  0  0
  141.5005   72.5390  225.1332 H   0  0  0  0  0  0  0  0  0  0  0  0
  142.0219   72.9447  227.5175 H   0  0  0  0  0  0  0  0  0  0  0  0
  141.0683   71.4419  229.2469 H   0  0  0  0  0  0  0  0  0  0  0  0
  139.1176   69.1785  226.2668 H   0  0  0  0  0  0  0  0  0  0  0  0
  139.9895   76.0923  221.7840 H   0  0  0  0  0  0  0  0  0  0  0  0
  142.5043   80.4980  220.9720 H   0  0  0  0  0  0  0  0  0  0  0  0
  140.7343   80.1899  220.5618 H   0  0  0  0  0  0  0  0  0  0  0  0
  141.9956   81.1700  223.0529 H   0  0  0  0  0  0  0  0  0  0  0  0
  140.5080   81.7077  222.0949 H   0  0  0  0  0  0  0  0  0  0  0  0
  1  2  1  0
  2  3  1  0
  3  4  1  0
  4  5  1  0
  5  6  1  0
  6  7  1  0
  7  8  2  0
  8  9  1  0
  9 10  2  0
 10 11  1  0
 11 12  1  0
 11 13  2  0
 13 14  1  0
 14 15  1  0
 15 16  2  0
 16 17  1  0
 17 18  2  0
 18 19  1  0
 19 20  2  0
 20 21  1  0
 21 22  2  0
 14 23  2  0
 23 24  1  0
 24 25  2  0
  5 26  1  0
 26 27  1  0
 27  2  1  0
 25  7  1  0
 24 10  1  0
 22 17  1  0
  1 28  1  0
  1 29  1  0
  1 30  1  0
  3 31  1  0
  3 32  1  0
  4 33  1  0
  4 34  1  0
  6 35  1  0
  6 36  1  0
  8 37  1  0
  9 38  1  0
 12 39  1  0
 12 40  1  0
 15 41  1  0
 16 42  1  0
 18 43  1  0
 19 44  1  0
 20 45  1  0
 22 46  1  0
 25 47  1  0
 26 48  1  0
 26 49  1  0
 27 50  1  0
 27 51  1  0
M  END
>  <smiles>  (22) 
CN1CCN(Cc2ccc3c(N)nc(/C=C/c4cccnc4)nc3c2)CC1

>  <score_type>  (22) 
oracle

>  <origin>  (22) 
autodockgpu

>  <m_score__min__energy>  (22) 
-8.3100000000000005

>  <m_primary>  (22) 
energy

>  <rmsd>  (22) 
6.797152308442097

>  <m_score__min__rmsd>  (22) 
6.797152308442097

>  <meeko>  (22) 
{"free_energy": -7.99, "intermolecular_energy": -9.78, "internal_energy": -0.67, "cluster_size": 35, "cluster_id": 1, "rank_in_cluster": 14}

>  <energy>  (22) 
-7.87

>  <cluster_rmsd>  (22) 
1.46

>  <cluster>  (22) 
1

$$$$

     RDKit          3D

 51 54  0  0  0  0  0  0  0  0999 V2000
  139.1880   80.8960  223.8250 C   0  0  0  0  0  0  0  0  0  0  0  0
  140.4010   80.3740  223.2770 N   0  0  0  0  0  0  0  0  0  0  0  0
  140.4020   78.9570  223.0640 C   0  0  0  0  0  0  0  0  0  0  0  0
  141.7960   78.6040  222.5250 C   0  0  0  0  0  0  0  0  0  0  0  0
  141.7980   79.0820  221.1900 N   0  0  0  0  0  0  0  0  0  0  0  0
  141.4720   78.1850  220.1530 C   0  0  0  0  0  0  0  0  0  0  0  0
  141.8650   76.7790  220.3430 C   0  0  0  0  0  0  0  0  0  0  0  0
  143.0080   76.2110  219.8220 C   0  0  0  0  0  0  0  0  0  0  0  0
  143.2940   74.8610  220.0560 C   0  0  0  0  0  0  0  0  0  0  0  0
  142.4300   74.0890  220.8110 C   0  0  0  0  0  0  0  0  0  0  0  0
  142.6520   72.7530  221.0800 C   0  0  0  0  0  0  0  0  0  0  0  0
  143.8200   72.1340  220.5590 N   0  0  0  0  0  0  0  0  0  0  0  0
  141.7690   72.0620  221.8230 N   0  0  0  0  0  0  0  0  0  0  0  0
  140.6660   72.6210  222.3230 C   0  0  0  0  0  0  0  0  0  0  0  0
  139.7260   71.8580  223.1210 C   0  0  0  0  0  0  0  0  0  0  0  0
  140.1380   70.8610  223.8590 C   0  0  0  0  0  0  0  0  0  0  0  0
  140.3360   70.9200  225.3010 C   0  0  0  0  0  0  0  0  0  0  0  0
  139.7770   69.9550  226.1470 C   0  0  0  0  0  0  0  0  0  0  0  0
  139.9560   69.9980  227.5150 C   0  0  0  0  0  0  0  0  0  0  0  0
  140.7030   71.0180  228.0580 C   0  0  0  0  0  0  0  0  0  0  0  0
  141.2460   71.9500  227.2680 N   0  0  0  0  0  0  0  0  0  0  0  0
  141.0680   71.9030  225.9280 C   0  0  0  0  0  0  0  0  0  0  0  0
  140.4420   73.9330  222.0630 N   0  0  0  0  0  0  0  0  0  0  0  0
  141.2930   74.6640  221.3270 C   0  0  0  0  0  0  0  0  0  0  0  0
  141.0010   75.9870  221.1060 C   0  0  0  0  0  0  0  0  0  0  0  0
  141.4040   80.4290  221.0190 C   0  0  0  0  0  0  0  0  0  0  0  0
  141.0230   81.1500  222.2670 C   0  0  0  0  0  0  0  0  0  0  0  0
  139.2421   80.8727  224.9234 H   0  0  0  0  0  0  0  0  0  0  0  0
  139.0494   81.9334  223.4866 H   0  0  0  0  0  0  0  0  0  0  0  0
  138.3393   80.2834  223.4866 H   0  0  0  0  0  0  0  0  0  0  0  0
  140.2147   78.4293  224.0108 H   0  0  0  0  0  0  0  0  0  0  0  0
  139.6127   78.6578  222.3587 H   0  0  0  0  0  0  0  0  0  0  0  0
  142.5781   79.1023  223.1165 H   0  0  0  0  0  0  0  0  0  0  0  0
  142.0026   77.5250  222.5808 H   0  0  0  0  0  0  0  0  0  0  0  0
  140.3801   78.2105  220.0221 H   0  0  0  0  0  0  0  0  0  0  0  0
  142.0491   78.5298  219.2823 H   0  0  0  0  0  0  0  0  0  0  0  0
  143.6978   76.8210  219.2202 H   0  0  0  0  0  0  0  0  0  0  0  0
  144.2079   74.4132  219.6385 H   0  0  0  0  0  0  0  0  0  0  0  0
  144.0670   72.2300  219.5390 H   0  0  0  0  0  0  0  0  0  0  0  0
  144.4170   71.5880  221.2240 H   0  0  0  0  0  0  0  0  0  0  0  0
  138.6578   72.1203  223.1052 H   0  0  0  0  0  0  0  0  0  0  0  0
  140.3509   69.9072  223.3540 H   0  0  0  0  0  0  0  0  0  0  0  0
  139.1795   69.1412  225.7103 H   0  0  0  0  0  0  0  0  0  0  0  0
  139.5083   69.2286  228.1612 H   0  0  0  0  0  0  0  0  0  0  0  0
  140.8541   71.0668  229.1465 H   0  0  0  0  0  0  0  0  0  0  0  0
  141.5299   72.6872  225.3101 H   0  0  0  0  0  0  0  0  0  0  0  0
  140.0854   76.4252  221.5300 H   0  0  0  0  0  0  0  0  0  0  0  0
  142.2422   80.9711  220.5569 H   0  0  0  0  0  0  0  0  0  0  0  0
  140.4969   80.4016  220.3974 H   0  0  0  0  0  0  0  0  0  0  0  0
  141.9381   81.5853  222.6950 H   0  0  0  0  0  0  0  0  0  0  0  0
  140.2685   81.8890  221.9594 H   0  0  0  0  0  0  0  0  0  0  0  0
  1  2  1  0
  2  3  1  0
  3  4  1  0
  4  5  1  0
  5  6  1  0
  6  7  1  0
  7  8  2  0
  8  9  1  0
  9 10  2  0
 10 11  1  0
 11 12  1  0
 11 13  2  0
 13 14  1  0
 14 15  1  0
 15 16  2  0
 16 17  1  0
 17 18  2  0
 18 19  1  0
 19 20  2  0
 20 21  1  0
 21 22  2  0
 14 23  2  0
 23 24  1  0
 24 25  2  0
  5 26  1  0
 26 27  1  0
 27  2  1  0
 25  7  1  0
 24 10  1  0
 22 17  1  0
  1 28  1  0
  1 29  1  0
  1 30  1  0
  3 31  1  0
  3 32  1  0
  4 33  1  0
  4 34  1  0
  6 35  1  0
  6 36  1  0
  8 37  1  0
  9 38  1  0
 12 39  1  0
 12 40  1  0
 15 41  1  0
 16 42  1  0
 18 43  1  0
 19 44  1  0
 20 45  1  0
 22 46  1  0
 25 47  1  0
 26 48  1  0
 26 49  1  0
 27 50  1  0
 27 51  1  0
M  END
>  <smiles>  (23) 
CN1CCN(Cc2ccc3c(N)nc(/C=C/c4cccnc4)nc3c2)CC1

>  <score_type>  (23) 
oracle

>  <origin>  (23) 
autodockgpu

>  <m_score__min__energy>  (23) 
-8.3100000000000005

>  <m_primary>  (23) 
energy

>  <rmsd>  (23) 
7.080495233106293

>  <m_score__min__rmsd>  (23) 
7.080495233106293

>  <meeko>  (23) 
{"free_energy": -7.87, "intermolecular_energy": -9.66, "internal_energy": -0.64, "cluster_size": 35, "cluster_id": 1, "rank_in_cluster": 22}

>  <energy>  (23) 
-7.8

>  <cluster_rmsd>  (23) 
1.0

>  <cluster>  (23) 
1

$$$$

     RDKit          3D

 51 54  0  0  0  0  0  0  0  0999 V2000
  139.0160   80.9130  223.7870 C   0  0  0  0  0  0  0  0  0  0  0  0
  140.1990   80.2090  223.4010 N   0  0  0  0  0  0  0  0  0  0  0  0
  140.0170   78.8060  223.1800 C   0  0  0  0  0  0  0  0  0  0  0  0
  141.4000   78.2420  222.8270 C   0  0  0  0  0  0  0  0  0  0  0  0
  141.6500   78.6970  221.5090 N   0  0  0  0  0  0  0  0  0  0  0  0
  141.3340   77.8460  220.4310 C   0  0  0  0  0  0  0  0  0  0  0  0
  141.6970   76.4280  220.5760 C   0  0  0  0  0  0  0  0  0  0  0  0
  142.7990   75.8390  219.9910 C   0  0  0  0  0  0  0  0  0  0  0  0
  143.0590   74.4780  220.1870 C   0  0  0  0  0  0  0  0  0  0  0  0
  142.2110   73.7140  220.9690 C   0  0  0  0  0  0  0  0  0  0  0  0
  142.4090   72.3690  221.2030 C   0  0  0  0  0  0  0  0  0  0  0  0
  143.5340   71.7290  220.6150 N   0  0  0  0  0  0  0  0  0  0  0  0
  141.5440   71.6870  221.9750 N   0  0  0  0  0  0  0  0  0  0  0  0
  140.4810   72.2650  222.5370 C   0  0  0  0  0  0  0  0  0  0  0  0
  139.5610   71.5120  223.3660 C   0  0  0  0  0  0  0  0  0  0  0  0
  140.0040   70.6070  224.1980 C   0  0  0  0  0  0  0  0  0  0  0  0
  140.2560   70.8320  225.6150 C   0  0  0  0  0  0  0  0  0  0  0  0
  141.0480   71.9040  226.0460 C   0  0  0  0  0  0  0  0  0  0  0  0
  141.2960   72.1300  227.3850 C   0  0  0  0  0  0  0  0  0  0  0  0
  140.7510   71.2780  228.3170 C   0  0  0  0  0  0  0  0  0  0  0  0
  139.9920   70.2490  227.9270 N   0  0  0  0  0  0  0  0  0  0  0  0
  139.7510   70.0310  226.6140 C   0  0  0  0  0  0  0  0  0  0  0  0
  140.2810   73.5880  222.3120 N   0  0  0  0  0  0  0  0  0  0  0  0
  141.1150   74.3090  221.5490 C   0  0  0  0  0  0  0  0  0  0  0  0
  140.8500   75.6440  221.3660 C   0  0  0  0  0  0  0  0  0  0  0  0
  141.4890   80.0860  221.2970 C   0  0  0  0  0  0  0  0  0  0  0  0
  141.0580   80.8720  222.4880 C   0  0  0  0  0  0  0  0  0  0  0  0
  138.9532   80.9504  224.8846 H   0  0  0  0  0  0  0  0  0  0  0  0
  139.0516   81.9370  223.3867 H   0  0  0  0  0  0  0  0  0  0  0  0
  138.1330   80.3933  223.3867 H   0  0  0  0  0  0  0  0  0  0  0  0
  139.6302   78.3242  224.0901 H   0  0  0  0  0  0  0  0  0  0  0  0
  139.2918   78.6192  222.3743 H   0  0  0  0  0  0  0  0  0  0  0  0
  142.1632   78.6248  223.5205 H   0  0  0  0  0  0  0  0  0  0  0  0
  141.4326   77.1450  222.9010 H   0  0  0  0  0  0  0  0  0  0  0  0
  140.2463   77.8966  220.2750 H   0  0  0  0  0  0  0  0  0  0  0  0
  141.9386   78.2128  219.5884 H   0  0  0  0  0  0  0  0  0  0  0  0
  143.4761   76.4417  219.3679 H   0  0  0  0  0  0  0  0  0  0  0  0
  143.9396   74.0145  219.7183 H   0  0  0  0  0  0  0  0  0  0  0  0
  143.5410   71.4980  219.5870 H   0  0  0  0  0  0  0  0  0  0  0  0
  144.3440   71.5020  221.2390 H   0  0  0  0  0  0  0  0  0  0  0  0
  138.4803   71.7040  223.2941 H   0  0  0  0  0  0  0  0  0  0  0  0
  140.2012   69.6011  223.7989 H   0  0  0  0  0  0  0  0  0  0  0  0
  141.4835   72.5831  225.2983 H   0  0  0  0  0  0  0  0  0  0  0  0
  141.9201   72.9786  227.7018 H   0  0  0  0  0  0  0  0  0  0  0  0
  140.9405   71.4440  229.3878 H   0  0  0  0  0  0  0  0  0  0  0  0
  139.1223   69.1738  226.3314 H   0  0  0  0  0  0  0  0  0  0  0  0
  139.9687   76.0982  221.8423 H   0  0  0  0  0  0  0  0  0  0  0  0
  142.4531   80.4905  220.9550 H   0  0  0  0  0  0  0  0  0  0  0  0
  140.6788   80.1867  220.5598 H   0  0  0  0  0  0  0  0  0  0  0  0
  141.9628   81.1722  223.0368 H   0  0  0  0  0  0  0  0  0  0  0  0
  140.4698   81.7112  222.0884 H   0  0  0  0  0  0  0  0  0  0  0  0
  1  2  1  0
  2  3  1  0
  3  4  1  0
  4  5  1  0
  5  6  1  0
  6  7  1  0
  7  8  2  0
  8  9  1  0
  9 10  2  0
 10 11  1  0
 11 12  1  0
 11 13  2  0
 13 14  1  0
 14 15  1  0
 15 16  2  0
 16 17  1  0
 17 18  2  0
 18 19  1  0
 19 20  2  0
 20 21  1  0
 21 22  2  0
 14 23  2  0
 23 24  1  0
 24 25  2  0
  5 26  1  0
 26 27  1  0
 27  2  1  0
 25  7  1  0
 24 10  1  0
 22 17  1  0
  1 28  1  0
  1 29  1  0
  1 30  1  0
  3 31  1  0
  3 32  1  0
  4 33  1  0
  4 34  1  0
  6 35  1  0
  6 36  1  0
  8 37  1  0
  9 38  1  0
 12 39  1  0
 12 40  1  0
 15 41  1  0
 16 42  1  0
 18 43  1  0
 19 44  1  0
 20 45  1  0
 22 46  1  0
 25 47  1  0
 26 48  1  0
 26 49  1  0
 27 50  1  0
 27 51  1  0
M  END
>  <smiles>  (24) 
CN1CCN(Cc2ccc3c(N)nc(/C=C/c4cccnc4)nc3c2)CC1

>  <score_type>  (24) 
oracle

>  <origin>  (24) 
autodockgpu

>  <m_score__min__energy>  (24) 
-8.3100000000000005

>  <m_primary>  (24) 
energy

>  <rmsd>  (24) 
6.780460055768525

>  <m_score__min__rmsd>  (24) 
6.780460055768525

>  <meeko>  (24) 
{"free_energy": -7.99, "intermolecular_energy": -9.78, "internal_energy": -0.64, "cluster_size": 35, "cluster_id": 1, "rank_in_cluster": 15}

>  <energy>  (24) 
-7.73

>  <cluster_rmsd>  (24) 
0.92

>  <cluster>  (24) 
1

$$$$

     RDKit          3D

 51 54  0  0  0  0  0  0  0  0999 V2000
  138.6790   80.8840  224.1310 C   0  0  0  0  0  0  0  0  0  0  0  0
  140.0200   80.5350  223.7800 N   0  0  0  0  0  0  0  0  0  0  0  0
  140.2910   79.1290  223.7670 C   0  0  0  0  0  0  0  0  0  0  0  0
  141.7790   78.9800  223.4190 C   0  0  0  0  0  0  0  0  0  0  0  0
  141.8590   79.2880  222.0370 N   0  0  0  0  0  0  0  0  0  0  0  0
  141.8190   78.2300  221.1070 C   0  0  0  0  0  0  0  0  0  0  0  0
  140.7630   77.2210  221.2930 C   0  0  0  0  0  0  0  0  0  0  0  0
  139.4200   77.4500  221.0820 C   0  0  0  0  0  0  0  0  0  0  0  0
  138.4890   76.4250  221.2900 C   0  0  0  0  0  0  0  0  0  0  0  0
  138.9120   75.1770  221.7090 C   0  0  0  0  0  0  0  0  0  0  0  0
  138.0480   74.1240  221.9320 C   0  0  0  0  0  0  0  0  0  0  0  0
  136.6570   74.3240  221.7250 N   0  0  0  0  0  0  0  0  0  0  0  0
  138.5290   72.9360  222.3390 N   0  0  0  0  0  0  0  0  0  0  0  0
  139.8310   72.7240  222.5400 C   0  0  0  0  0  0  0  0  0  0  0  0
  140.3280   71.4360  222.9790 C   0  0  0  0  0  0  0  0  0  0  0  0
  139.7090   70.7690  223.9170 C   0  0  0  0  0  0  0  0  0  0  0  0
  140.0480   70.8150  225.3330 C   0  0  0  0  0  0  0  0  0  0  0  0
  140.7970   71.8730  225.8620 C   0  0  0  0  0  0  0  0  0  0  0  0
  141.1270   71.9300  227.2010 C   0  0  0  0  0  0  0  0  0  0  0  0
  140.7070   70.9200  228.0350 C   0  0  0  0  0  0  0  0  0  0  0  0
  139.9910   69.9000  227.5510 N   0  0  0  0  0  0  0  0  0  0  0  0
  139.6700   69.8480  226.2370 C   0  0  0  0  0  0  0  0  0  0  0  0
  140.6850   73.7550  222.3220 N   0  0  0  0  0  0  0  0  0  0  0  0
  140.2540   74.9580  221.9170 C   0  0  0  0  0  0  0  0  0  0  0  0
  141.1770   75.9540  221.7160 C   0  0  0  0  0  0  0  0  0  0  0  0
  141.2630   80.5080  221.6440 C   0  0  0  0  0  0  0  0  0  0  0  0
  140.6160   81.2890  222.7380 C   0  0  0  0  0  0  0  0  0  0  0  0
  138.5815   80.9094  225.2264 H   0  0  0  0  0  0  0  0  0  0  0  0
  138.4380   81.8748  223.7184 H   0  0  0  0  0  0  0  0  0  0  0  0
  137.9856   80.1364  223.7184 H   0  0  0  0  0  0  0  0  0  0  0  0
  140.0855   78.6924  224.7555 H   0  0  0  0  0  0  0  0  0  0  0  0
  139.6555   78.6061  223.0371 H   0  0  0  0  0  0  0  0  0  0  0  0
  142.3872   79.6818  224.0085 H   0  0  0  0  0  0  0  0  0  0  0  0
  142.1596   77.9726  223.6432 H   0  0  0  0  0  0  0  0  0  0  0  0
  141.6860   78.6704  220.1078 H   0  0  0  0  0  0  0  0  0  0  0  0
  142.7645   77.6862  221.2495 H   0  0  0  0  0  0  0  0  0  0  0  0
  139.0786   78.4413  220.7491 H   0  0  0  0  0  0  0  0  0  0  0  0
  137.4187   76.6130  221.1197 H   0  0  0  0  0  0  0  0  0  0  0  0
  136.0220   74.5460  222.5350 H   0  0  0  0  0  0  0  0  0  0  0  0
  136.2960   74.2430  220.7450 H   0  0  0  0  0  0  0  0  0  0  0  0
  141.2344   71.0157  222.5188 H   0  0  0  0  0  0  0  0  0  0  0  0
  138.8698   70.1251  223.6149 H   0  0  0  0  0  0  0  0  0  0  0  0
  141.1312   72.6798  225.1931 H   0  0  0  0  0  0  0  0  0  0  0  0
  141.7170   72.7705  227.5953 H   0  0  0  0  0  0  0  0  0  0  0  0
  140.9613   70.9517  229.1047 H   0  0  0  0  0  0  0  0  0  0  0  0
  139.0797   68.9934  225.8747 H   0  0  0  0  0  0  0  0  0  0  0  0
  142.2451   75.7550  221.8881 H   0  0  0  0  0  0  0  0  0  0  0  0
  142.0450   81.1379  221.1948 H   0  0  0  0  0  0  0  0  0  0  0  0
  140.4556   80.2387  220.9472 H   0  0  0  0  0  0  0  0  0  0  0  0
  141.3843   81.9345  223.1886 H   0  0  0  0  0  0  0  0  0  0  0  0
  139.7886   81.8338  222.2598 H   0  0  0  0  0  0  0  0  0  0  0  0
  1  2  1  0
  2  3  1  0
  3  4  1  0
  4  5  1  0
  5  6  1  0
  6  7  1  0
  7  8  2  0
  8  9  1  0
  9 10  2  0
 10 11  1  0
 11 12  1  0
 11 13  2  0
 13 14  1  0
 14 15  1  0
 15 16  2  0
 16 17  1  0
 17 18  2  0
 18 19  1  0
 19 20  2  0
 20 21  1  0
 21 22  2  0
 14 23  2  0
 23 24  1  0
 24 25  2  0
  5 26  1  0
 26 27  1  0
 27  2  1  0
 25  7  1  0
 24 10  1  0
 22 17  1  0
  1 28  1  0
  1 29  1  0
  1 30  1  0
  3 31  1  0
  3 32  1  0
  4 33  1  0
  4 34  1  0
  6 35  1  0
  6 36  1  0
  8 37  1  0
  9 38  1  0
 12 39  1  0
 12 40  1  0
 15 41  1  0
 16 42  1  0
 18 43  1  0
 19 44  1  0
 20 45  1  0
 22 46  1  0
 25 47  1  0
 26 48  1  0
 26 49  1  0
 27 50  1  0
 27 51  1  0
M  END
>  <smiles>  (25) 
CN1CCN(Cc2ccc3c(N)nc(/C=C/c4cccnc4)nc3c2)CC1

>  <score_type>  (25) 
oracle

>  <origin>  (25) 
autodockgpu

>  <m_score__min__energy>  (25) 
-8.3100000000000005

>  <m_primary>  (25) 
energy

>  <rmsd>  (25) 
7.1589455345332444

>  <m_score__min__rmsd>  (25) 
7.1589455345332444

>  <meeko>  (25) 
{"free_energy": -7.22, "intermolecular_energy": -9.01, "internal_energy": -0.85, "cluster_size": 9, "cluster_id": 3, "rank_in_cluster": 5}

>  <energy>  (25) 
-7.71

>  <cluster_rmsd>  (25) 
1.22

>  <cluster>  (25) 
1

$$$$

     RDKit          3D

 51 54  0  0  0  0  0  0  0  0999 V2000
  143.3420   80.3830  222.7990 C   0  0  0  0  0  0  0  0  0  0  0  0
  141.9170   80.4890  222.7510 N   0  0  0  0  0  0  0  0  0  0  0  0
  141.3430   80.2870  221.4540 C   0  0  0  0  0  0  0  0  0  0  0  0
  139.8300   80.4900  221.6170 C   0  0  0  0  0  0  0  0  0  0  0  0
  139.3810   79.3320  222.2990 N   0  0  0  0  0  0  0  0  0  0  0  0
  138.8760   78.2560  221.5420 C   0  0  0  0  0  0  0  0  0  0  0  0
  139.7970   77.1380  221.2800 C   0  0  0  0  0  0  0  0  0  0  0  0
  140.9190   77.2210  220.4830 C   0  0  0  0  0  0  0  0  0  0  0  0
  141.7330   76.0990  220.2920 C   0  0  0  0  0  0  0  0  0  0  0  0
  141.4160   74.8990  220.9020 C   0  0  0  0  0  0  0  0  0  0  0  0
  142.1740   73.7550  220.7560 C   0  0  0  0  0  0  0  0  0  0  0  0
  143.3380   73.8040  219.9420 N   0  0  0  0  0  0  0  0  0  0  0  0
  141.8070   72.6210  221.3790 N   0  0  0  0  0  0  0  0  0  0  0  0
  140.7190   72.5510  222.1490 C   0  0  0  0  0  0  0  0  0  0  0  0
  140.3400   71.3190  222.8110 C   0  0  0  0  0  0  0  0  0  0  0  0
  139.8220   71.3420  224.0120 C   0  0  0  0  0  0  0  0  0  0  0  0
  139.7470   70.1950  224.9060 C   0  0  0  0  0  0  0  0  0  0  0  0
  140.5410   70.1230  226.0580 C   0  0  0  0  0  0  0  0  0  0  0  0
  140.4810   69.0430  226.9150 C   0  0  0  0  0  0  0  0  0  0  0  0
  139.6180   68.0110  226.6270 C   0  0  0  0  0  0  0  0  0  0  0  0
  138.8510   68.0590  225.5330 N   0  0  0  0  0  0  0  0  0  0  0  0
  138.9130   69.1200  224.6960 C   0  0  0  0  0  0  0  0  0  0  0  0
  139.9690   73.6720  222.2970 N   0  0  0  0  0  0  0  0  0  0  0  0
  140.2950   74.8250  221.6960 C   0  0  0  0  0  0  0  0  0  0  0  0
  139.4890   75.9190  221.8920 C   0  0  0  0  0  0  0  0  0  0  0  0
  140.0800   79.0080  223.4850 C   0  0  0  0  0  0  0  0  0  0  0  0
  141.2050   79.9200  223.8370 C   0  0  0  0  0  0  0  0  0  0  0  0
  143.6727   80.3584  223.8478 H   0  0  0  0  0  0  0  0  0  0  0  0
  143.6582   79.4589  222.2930 H   0  0  0  0  0  0  0  0  0  0  0  0
  143.7914   81.2502  222.2930 H   0  0  0  0  0  0  0  0  0  0  0  0
  141.7505   81.0169  220.7391 H   0  0  0  0  0  0  0  0  0  0  0  0
  141.5727   79.2834  221.0666 H   0  0  0  0  0  0  0  0  0  0  0  0
  139.6218   81.3935  222.2089 H   0  0  0  0  0  0  0  0  0  0  0  0
  139.3227   80.6256  220.6504 H   0  0  0  0  0  0  0  0  0  0  0  0
  138.0056   77.8511  222.0790 H   0  0  0  0  0  0  0  0  0  0  0  0
  138.6510   78.6810  220.5527 H   0  0  0  0  0  0  0  0  0  0  0  0
  141.1753   78.1731  219.9953 H   0  0  0  0  0  0  0  0  0  0  0  0
  142.6270   76.1716  219.6553 H   0  0  0  0  0  0  0  0  0  0  0  0
  143.4210   73.1880  219.0920 H   0  0  0  0  0  0  0  0  0  0  0  0
  144.0960   74.4710  220.2190 H   0  0  0  0  0  0  0  0  0  0  0  0
  140.4891   70.3566  222.2995 H   0  0  0  0  0  0  0  0  0  0  0  0
  139.4133   72.2974  224.3729 H   0  0  0  0  0  0  0  0  0  0  0  0
  141.2306   70.9493  226.2854 H   0  0  0  0  0  0  0  0  0  0  0  0
  141.1134   69.0078  227.8144 H   0  0  0  0  0  0  0  0  0  0  0  0
  139.5588   67.1427  227.2997 H   0  0  0  0  0  0  0  0  0  0  0  0
  138.2667   69.1240  223.8059 H   0  0  0  0  0  0  0  0  0  0  0  0
  138.5984   75.8364  222.5323 H   0  0  0  0  0  0  0  0  0  0  0  0
  139.3603   79.0212  224.3168 H   0  0  0  0  0  0  0  0  0  0  0  0
  140.5349   78.0224  223.3074 H   0  0  0  0  0  0  0  0  0  0  0  0
  140.7924   80.7451  224.4361 H   0  0  0  0  0  0  0  0  0  0  0  0
  141.9351   79.2925  224.3692 H   0  0  0  0  0  0  0  0  0  0  0  0
  1  2  1  0
  2  3  1  0
  3  4  1  0
  4  5  1  0
  5  6  1  0
  6  7  1  0
  7  8  2  0
  8  9  1  0
  9 10  2  0
 10 11  1  0
 11 12  1  0
 11 13  2  0
 13 14  1  0
 14 15  1  0
 15 16  2  0
 16 17  1  0
 17 18  2  0
 18 19  1  0
 19 20  2  0
 20 21  1  0
 21 22  2  0
 14 23  2  0
 23 24  1  0
 24 25  2  0
  5 26  1  0
 26 27  1  0
 27  2  1  0
 25  7  1  0
 24 10  1  0
 22 17  1  0
  1 28  1  0
  1 29  1  0
  1 30  1  0
  3 31  1  0
  3 32  1  0
  4 33  1  0
  4 34  1  0
  6 35  1  0
  6 36  1  0
  8 37  1  0
  9 38  1  0
 12 39  1  0
 12 40  1  0
 15 41  1  0
 16 42  1  0
 18 43  1  0
 19 44  1  0
 20 45  1  0
 22 46  1  0
 25 47  1  0
 26 48  1  0
 26 49  1  0
 27 50  1  0
 27 51  1  0
M  END
>  <smiles>  (26) 
CN1CCN(Cc2ccc3c(N)nc(/C=C/c4cccnc4)nc3c2)CC1

>  <score_type>  (26) 
oracle

>  <origin>  (26) 
autodockgpu

>  <m_score__min__energy>  (26) 
-8.3100000000000005

>  <m_primary>  (26) 
energy

>  <rmsd>  (26) 
7.257568273577231

>  <m_score__min__rmsd>  (26) 
7.257568273577231

>  <meeko>  (26) 
{"free_energy": -7.25, "intermolecular_energy": -9.04, "internal_energy": -0.76, "cluster_size": 35, "cluster_id": 1, "rank_in_cluster": 34}

>  <energy>  (26) 
-7.71

>  <cluster_rmsd>  (26) 
1.44

>  <cluster>  (26) 
1

$$$$

     RDKit          3D

 51 54  0  0  0  0  0  0  0  0999 V2000
  143.4900   80.2450  223.0790 C   0  0  0  0  0  0  0  0  0  0  0  0
  142.0750   80.3940  222.9450 N   0  0  0  0  0  0  0  0  0  0  0  0
  141.5820   80.2670  221.6050 C   0  0  0  0  0  0  0  0  0  0  0  0
  140.0670   80.5060  221.6790 C   0  0  0  0  0  0  0  0  0  0  0  0
  139.5450   79.3310  222.2770 N   0  0  0  0  0  0  0  0  0  0  0  0
  139.0630   78.3060  221.4390 C   0  0  0  0  0  0  0  0  0  0  0  0
  139.9440   77.1430  221.2390 C   0  0  0  0  0  0  0  0  0  0  0  0
  141.0800   77.1500  220.4590 C   0  0  0  0  0  0  0  0  0  0  0  0
  141.8530   75.9890  220.3280 C   0  0  0  0  0  0  0  0  0  0  0  0
  141.4790   74.8290  220.9810 C   0  0  0  0  0  0  0  0  0  0  0  0
  142.1940   73.6520  220.8960 C   0  0  0  0  0  0  0  0  0  0  0  0
  143.3710   73.6220  220.1000 N   0  0  0  0  0  0  0  0  0  0  0  0
  141.7740   72.5600  221.5590 N   0  0  0  0  0  0  0  0  0  0  0  0
  140.6720   72.5650  222.3130 C   0  0  0  0  0  0  0  0  0  0  0  0
  140.2360   71.3770  223.0190 C   0  0  0  0  0  0  0  0  0  0  0  0
  140.3380   71.3020  224.3200 C   0  0  0  0  0  0  0  0  0  0  0  0
  140.1120   70.0950  225.1040 C   0  0  0  0  0  0  0  0  0  0  0  0
  140.6340   69.9650  226.3970 C   0  0  0  0  0  0  0  0  0  0  0  0
  140.4280   68.8280  227.1520 C   0  0  0  0  0  0  0  0  0  0  0  0
  139.6910   67.7970  226.6170 C   0  0  0  0  0  0  0  0  0  0  0  0
  139.1840   67.9000  225.3840 N   0  0  0  0  0  0  0  0  0  0  0  0
  139.3880   69.0170  224.6480 C   0  0  0  0  0  0  0  0  0  0  0  0
  139.9650   73.7180  222.4020 N   0  0  0  0  0  0  0  0  0  0  0  0
  140.3450   74.8320  221.7590 C   0  0  0  0  0  0  0  0  0  0  0  0
  139.5790   75.9630  221.8960 C   0  0  0  0  0  0  0  0  0  0  0  0
  140.1560   78.9340  223.4880 C   0  0  0  0  0  0  0  0  0  0  0  0
  141.2790   79.7970  223.9550 C   0  0  0  0  0  0  0  0  0  0  0  0
  143.7563   80.2170  224.1459 H   0  0  0  0  0  0  0  0  0  0  0  0
  143.8073   79.3085  222.5971 H   0  0  0  0  0  0  0  0  0  0  0  0
  143.9955   81.0949  222.5971 H   0  0  0  0  0  0  0  0  0  0  0  0
  142.0544   81.0162  220.9527 H   0  0  0  0  0  0  0  0  0  0  0  0
  141.8105   79.2755  221.1871 H   0  0  0  0  0  0  0  0  0  0  0  0
  139.8433   81.3879  222.2972 H   0  0  0  0  0  0  0  0  0  0  0  0
  139.6277   80.6991  220.6892 H   0  0  0  0  0  0  0  0  0  0  0  0
  138.1201   77.9390  221.8706 H   0  0  0  0  0  0  0  0  0  0  0  0
  138.9660   78.7680  220.4455 H   0  0  0  0  0  0  0  0  0  0  0  0
  141.3809   78.0705  219.9374 H   0  0  0  0  0  0  0  0  0  0  0  0
  142.7592   76.0002  219.7045 H   0  0  0  0  0  0  0  0  0  0  0  0
  143.4920   72.8900  219.3520 H   0  0  0  0  0  0  0  0  0  0  0  0
  144.1010   74.3500  220.2850 H   0  0  0  0  0  0  0  0  0  0  0  0
  139.8156   70.5311  222.4553 H   0  0  0  0  0  0  0  0  0  0  0  0
  140.6149   72.2177  224.8629 H   0  0  0  0  0  0  0  0  0  0  0  0
  141.2236   70.7906  226.8221 H   0  0  0  0  0  0  0  0  0  0  0  0
  140.8468   68.7476  228.1660 H   0  0  0  0  0  0  0  0  0  0  0  0
  139.5180   66.8842  227.2059 H   0  0  0  0  0  0  0  0  0  0  0  0
  138.9549   69.0657  223.6380 H   0  0  0  0  0  0  0  0  0  0  0  0
  138.6760   75.9414  222.5239 H   0  0  0  0  0  0  0  0  0  0  0  0
  139.3838   78.9297  224.2714 H   0  0  0  0  0  0  0  0  0  0  0  0
  140.5966   77.9451  223.2933 H   0  0  0  0  0  0  0  0  0  0  0  0
  140.8491   80.6056  224.5645 H   0  0  0  0  0  0  0  0  0  0  0  0
  141.9562   79.1255  224.5032 H   0  0  0  0  0  0  0  0  0  0  0  0
  1  2  1  0
  2  3  1  0
  3  4  1  0
  4  5  1  0
  5  6  1  0
  6  7  1  0
  7  8  2  0
  8  9  1  0
  9 10  2  0
 10 11  1  0
 11 12  1  0
 11 13  2  0
 13 14  1  0
 14 15  1  0
 15 16  2  0
 16 17  1  0
 17 18  2  0
 18 19  1  0
 19 20  2  0
 20 21  1  0
 21 22  2  0
 14 23  2  0
 23 24  1  0
 24 25  2  0
  5 26  1  0
 26 27  1  0
 27  2  1  0
 25  7  1  0
 24 10  1  0
 22 17  1  0
  1 28  1  0
  1 29  1  0
  1 30  1  0
  3 31  1  0
  3 32  1  0
  4 33  1  0
  4 34  1  0
  6 35  1  0
  6 36  1  0
  8 37  1  0
  9 38  1  0
 12 39  1  0
 12 40  1  0
 15 41  1  0
 16 42  1  0
 18 43  1  0
 19 44  1  0
 20 45  1  0
 22 46  1  0
 25 47  1  0
 26 48  1  0
 26 49  1  0
 27 50  1  0
 27 51  1  0
M  END
>  <smiles>  (27) 
CN1CCN(Cc2ccc3c(N)nc(/C=C/c4cccnc4)nc3c2)CC1

>  <score_type>  (27) 
oracle

>  <origin>  (27) 
autodockgpu

>  <m_score__min__energy>  (27) 
-8.3100000000000005

>  <m_primary>  (27) 
energy

>  <rmsd>  (27) 
7.26893206077563

>  <m_score__min__rmsd>  (27) 
7.26893206077563

>  <meeko>  (27) 
{"free_energy": -7.43, "intermolecular_energy": -9.22, "internal_energy": -0.76, "cluster_size": 35, "cluster_id": 1, "rank_in_cluster": 29}

>  <energy>  (27) 
-7.59

>  <cluster_rmsd>  (27) 
1.17

>  <cluster>  (27) 
1

$$$$

     RDKit          3D

 51 54  0  0  0  0  0  0  0  0999 V2000
  143.5690   80.1890  223.0850 C   0  0  0  0  0  0  0  0  0  0  0  0
  142.1670   80.3400  222.8530 N   0  0  0  0  0  0  0  0  0  0  0  0
  141.7720   80.2480  221.4790 C   0  0  0  0  0  0  0  0  0  0  0  0
  140.2550   80.4830  221.4500 C   0  0  0  0  0  0  0  0  0  0  0  0
  139.6950   79.2920  221.9760 N   0  0  0  0  0  0  0  0  0  0  0  0
  139.2790   78.2890  221.0780 C   0  0  0  0  0  0  0  0  0  0  0  0
  140.0640   77.0440  221.0620 C   0  0  0  0  0  0  0  0  0  0  0  0
  141.2920   76.9040  220.4510 C   0  0  0  0  0  0  0  0  0  0  0  0
  141.9620   75.6750  220.4880 C   0  0  0  0  0  0  0  0  0  0  0  0
  141.3940   74.5940  221.1380 C   0  0  0  0  0  0  0  0  0  0  0  0
  142.0000   73.3560  221.2120 C   0  0  0  0  0  0  0  0  0  0  0  0
  143.2660   73.1750  220.5940 N   0  0  0  0  0  0  0  0  0  0  0  0
  141.3910   72.3480  221.8620 N   0  0  0  0  0  0  0  0  0  0  0  0
  140.2020   72.4940  222.4500 C   0  0  0  0  0  0  0  0  0  0  0  0
  139.5620   71.3950  223.1440 C   0  0  0  0  0  0  0  0  0  0  0  0
  140.2520   70.6170  223.9370 C   0  0  0  0  0  0  0  0  0  0  0  0
  140.4060   70.8180  225.3710 C   0  0  0  0  0  0  0  0  0  0  0  0
  139.8330   69.9310  226.2900 C   0  0  0  0  0  0  0  0  0  0  0  0
  139.9690   70.1080  227.6520 C   0  0  0  0  0  0  0  0  0  0  0  0
  140.6880   71.1860  228.1150 C   0  0  0  0  0  0  0  0  0  0  0  0
  141.2430   72.0460  227.2550 N   0  0  0  0  0  0  0  0  0  0  0  0
  141.1060   71.8680  225.9210 C   0  0  0  0  0  0  0  0  0  0  0  0
  139.6020   73.7080  222.3810 N   0  0  0  0  0  0  0  0  0  0  0  0
  140.1690   74.7430  221.7450 C   0  0  0  0  0  0  0  0  0  0  0  0
  139.5030   75.9430  221.7170 C   0  0  0  0  0  0  0  0  0  0  0  0
  140.2190   78.8630  223.2170 C   0  0  0  0  0  0  0  0  0  0  0  0
  141.3020   79.7150  223.7870 C   0  0  0  0  0  0  0  0  0  0  0  0
  143.7613   80.1683  224.1679 H   0  0  0  0  0  0  0  0  0  0  0  0
  143.9163   79.2483  222.6329 H   0  0  0  0  0  0  0  0  0  0  0  0
  144.1086   81.0342  222.6329 H   0  0  0  0  0  0  0  0  0  0  0  0
  142.2877   81.0148  220.8823 H   0  0  0  0  0  0  0  0  0  0  0  0
  142.0330   79.2681  221.0528 H   0  0  0  0  0  0  0  0  0  0  0  0
  139.9846   81.3473  222.0744 H   0  0  0  0  0  0  0  0  0  0  0  0
  139.8878   80.7028  220.4367 H   0  0  0  0  0  0  0  0  0  0  0  0
  138.2417   78.0249  221.3317 H   0  0  0  0  0  0  0  0  0  0  0  0
  139.4126   78.7258  220.0773 H   0  0  0  0  0  0  0  0  0  0  0  0
  141.7471   77.7609  219.9326 H   0  0  0  0  0  0  0  0  0  0  0  0
  142.9418   75.5689  219.9993 H   0  0  0  0  0  0  0  0  0  0  0  0
  143.9700   72.5070  221.0030 H   0  0  0  0  0  0  0  0  0  0  0  0
  143.4660   73.7260  219.7260 H   0  0  0  0  0  0  0  0  0  0  0  0
  138.4863   71.2134  223.0027 H   0  0  0  0  0  0  0  0  0  0  0  0
  140.7529   69.7468  223.4877 H   0  0  0  0  0  0  0  0  0  0  0  0
  139.2591   69.0700  225.9167 H   0  0  0  0  0  0  0  0  0  0  0  0
  139.5099   69.3986  228.3562 H   0  0  0  0  0  0  0  0  0  0  0  0
  140.8067   71.3408  229.1976 H   0  0  0  0  0  0  0  0  0  0  0  0
  141.5760   72.5965  225.2440 H   0  0  0  0  0  0  0  0  0  0  0  0
  138.5250   76.0389  222.2113 H   0  0  0  0  0  0  0  0  0  0  0  0
  139.3925   78.8357  223.9423 H   0  0  0  0  0  0  0  0  0  0  0  0
  140.6764   77.8807  223.0277 H   0  0  0  0  0  0  0  0  0  0  0  0
  140.8263   80.5064  224.3848 H   0  0  0  0  0  0  0  0  0  0  0  0
  141.9400   79.0305  224.3652 H   0  0  0  0  0  0  0  0  0  0  0  0
  1  2  1  0
  2  3  1  0
  3  4  1  0
  4  5  1  0
  5  6  1  0
  6  7  1  0
  7  8  2  0
  8  9  1  0
  9 10  2  0
 10 11  1  0
 11 12  1  0
 11 13  2  0
 13 14  1  0
 14 15  1  0
 15 16  2  0
 16 17  1  0
 17 18  2  0
 18 19  1  0
 19 20  2  0
 20 21  1  0
 21 22  2  0
 14 23  2  0
 23 24  1  0
 24 25  2  0
  5 26  1  0
 26 27  1  0
 27  2  1  0
 25  7  1  0
 24 10  1  0
 22 17  1  0
  1 28  1  0
  1 29  1  0
  1 30  1  0
  3 31  1  0
  3 32  1  0
  4 33  1  0
  4 34  1  0
  6 35  1  0
  6 36  1  0
  8 37  1  0
  9 38  1  0
 12 39  1  0
 12 40  1  0
 15 41  1  0
 16 42  1  0
 18 43  1  0
 19 44  1  0
 20 45  1  0
 22 46  1  0
 25 47  1  0
 26 48  1  0
 26 49  1  0
 27 50  1  0
 27 51  1  0
M  END
>  <smiles>  (28) 
CN1CCN(Cc2ccc3c(N)nc(/C=C/c4cccnc4)nc3c2)CC1

>  <score_type>  (28) 
oracle

>  <origin>  (28) 
autodockgpu

>  <m_score__min__energy>  (28) 
-8.3100000000000005

>  <m_primary>  (28) 
energy

>  <rmsd>  (28) 
7.1623810643108685

>  <m_score__min__rmsd>  (28) 
7.1623810643108685

>  <meeko>  (28) 
{"free_energy": -7.28, "intermolecular_energy": -9.07, "internal_energy": -0.87, "cluster_size": 35, "cluster_id": 1, "rank_in_cluster": 32}

>  <energy>  (28) 
-7.47

>  <cluster_rmsd>  (28) 
1.42

>  <cluster>  (28) 
1

$$$$

     RDKit          3D

 51 54  0  0  0  0  0  0  0  0999 V2000
  138.9540   80.8340  223.8250 C   0  0  0  0  0  0  0  0  0  0  0  0
  140.1610   80.1770  223.4290 N   0  0  0  0  0  0  0  0  0  0  0  0
  140.0210   78.7780  223.1570 C   0  0  0  0  0  0  0  0  0  0  0  0
  141.4240   78.2660  222.8010 C   0  0  0  0  0  0  0  0  0  0  0  0
  141.6750   78.7740  221.5020 N   0  0  0  0  0  0  0  0  0  0  0  0
  141.3960   77.9540  220.3910 C   0  0  0  0  0  0  0  0  0  0  0  0
  141.8780   76.5650  220.4540 C   0  0  0  0  0  0  0  0  0  0  0  0
  143.0310   76.1100  219.8490 C   0  0  0  0  0  0  0  0  0  0  0  0
  143.4050   74.7660  219.9630 C   0  0  0  0  0  0  0  0  0  0  0  0
  142.6190   73.8860  220.6840 C   0  0  0  0  0  0  0  0  0  0  0  0
  142.9290   72.5500  220.8370 C   0  0  0  0  0  0  0  0  0  0  0  0
  144.1100   72.0470  220.2270 N   0  0  0  0  0  0  0  0  0  0  0  0
  142.1200   71.7490  221.5530 N   0  0  0  0  0  0  0  0  0  0  0  0
  141.0060   72.1990  222.1350 C   0  0  0  0  0  0  0  0  0  0  0  0
  140.1460   71.3190  222.9020 C   0  0  0  0  0  0  0  0  0  0  0  0
  139.8910   71.5700  224.1600 C   0  0  0  0  0  0  0  0  0  0  0  0
  140.1890   70.6690  225.2640 C   0  0  0  0  0  0  0  0  0  0  0  0
  139.9120   69.2990  225.1730 C   0  0  0  0  0  0  0  0  0  0  0  0
  140.1880   68.4320  226.2120 C   0  0  0  0  0  0  0  0  0  0  0  0
  140.7480   68.9310  227.3650 C   0  0  0  0  0  0  0  0  0  0  0  0
  141.0200   70.2350  227.4730 N   0  0  0  0  0  0  0  0  0  0  0  0
  140.7480   71.0810  226.4520 C   0  0  0  0  0  0  0  0  0  0  0  0
  140.6960   73.5110  221.9900 N   0  0  0  0  0  0  0  0  0  0  0  0
  141.4710   74.3480  221.2850 C   0  0  0  0  0  0  0  0  0  0  0  0
  141.0940   75.6630  221.1810 C   0  0  0  0  0  0  0  0  0  0  0  0
  141.4770   80.1650  221.3380 C   0  0  0  0  0  0  0  0  0  0  0  0
  141.0110   80.8950  222.5510 C   0  0  0  0  0  0  0  0  0  0  0  0
  138.8968   80.8652  224.9231 H   0  0  0  0  0  0  0  0  0  0  0  0
  138.9478   81.8599  223.4283 H   0  0  0  0  0  0  0  0  0  0  0  0
  138.0890   80.2822  223.4283 H   0  0  0  0  0  0  0  0  0  0  0  0
  139.6381   78.2537  224.0450 H   0  0  0  0  0  0  0  0  0  0  0  0
  139.3100   78.5992  222.3369 H   0  0  0  0  0  0  0  0  0  0  0  0
  142.1683   78.6458  223.5163 H   0  0  0  0  0  0  0  0  0  0  0  0
  141.4875   77.1684  222.8374 H   0  0  0  0  0  0  0  0  0  0  0  0
  140.3035   77.9219  220.2671 H   0  0  0  0  0  0  0  0  0  0  0  0
  141.9418   78.4104  219.5520 H   0  0  0  0  0  0  0  0  0  0  0  0
  143.6594   76.8064  219.2744 H   0  0  0  0  0  0  0  0  0  0  0  0
  144.3257   74.4092  219.4782 H   0  0  0  0  0  0  0  0  0  0  0  0
  144.8200   71.5150  220.7940 H   0  0  0  0  0  0  0  0  0  0  0  0
  144.2400   72.2240  219.2030 H   0  0  0  0  0  0  0  0  0  0  0  0
  139.7045   70.4332  222.4220 H   0  0  0  0  0  0  0  0  0  0  0  0
  139.4166   72.5326  224.4016 H   0  0  0  0  0  0  0  0  0  0  0  0
  139.4630   68.9034  224.2500 H   0  0  0  0  0  0  0  0  0  0  0  0
  139.9635   67.3592  226.1189 H   0  0  0  0  0  0  0  0  0  0  0  0
  140.9730   68.2536  228.2020 H   0  0  0  0  0  0  0  0  0  0  0  0
  140.9849   72.1478  226.5778 H   0  0  0  0  0  0  0  0  0  0  0  0
  140.1720   76.0093  221.6710 H   0  0  0  0  0  0  0  0  0  0  0  0
  142.4329   80.6083  221.0222 H   0  0  0  0  0  0  0  0  0  0  0  0
  140.6724   80.2696  220.5953 H   0  0  0  0  0  0  0  0  0  0  0  0
  141.9010   81.1998  223.1211 H   0  0  0  0  0  0  0  0  0  0  0  0
  140.4039   81.7314  222.1744 H   0  0  0  0  0  0  0  0  0  0  0  0
  1  2  1  0
  2  3  1  0
  3  4  1  0
  4  5  1  0
  5  6  1  0
  6  7  1  0
  7  8  2  0
  8  9  1  0
  9 10  2  0
 10 11  1  0
 11 12  1  0
 11 13  2  0
 13 14  1  0
 14 15  1  0
 15 16  2  0
 16 17  1  0
 17 18  2  0
 18 19  1  0
 19 20  2  0
 20 21  1  0
 21 22  2  0
 14 23  2  0
 23 24  1  0
 24 25  2  0
  5 26  1  0
 26 27  1  0
 27  2  1  0
 25  7  1  0
 24 10  1  0
 22 17  1  0
  1 28  1  0
  1 29  1  0
  1 30  1  0
  3 31  1  0
  3 32  1  0
  4 33  1  0
  4 34  1  0
  6 35  1  0
  6 36  1  0
  8 37  1  0
  9 38  1  0
 12 39  1  0
 12 40  1  0
 15 41  1  0
 16 42  1  0
 18 43  1  0
 19 44  1  0
 20 45  1  0
 22 46  1  0
 25 47  1  0
 26 48  1  0
 26 49  1  0
 27 50  1  0
 27 51  1  0
M  END
>  <smiles>  (29) 
CN1CCN(Cc2ccc3c(N)nc(/C=C/c4cccnc4)nc3c2)CC1

>  <score_type>  (29) 
oracle

>  <origin>  (29) 
autodockgpu

>  <m_score__min__energy>  (29) 
-8.3100000000000005

>  <m_primary>  (29) 
energy

>  <rmsd>  (29) 
6.963569650086863

>  <m_score__min__rmsd>  (29) 
6.963569650086863

>  <meeko>  (29) 
{"free_energy": -7.59, "intermolecular_energy": -9.38, "internal_energy": -0.57, "cluster_size": 35, "cluster_id": 1, "rank_in_cluster": 27}

>  <energy>  (29) 
-7.43

>  <cluster_rmsd>  (29) 
1.16

>  <cluster>  (29) 
1

$$$$

     RDKit          3D

 51 54  0  0  0  0  0  0  0  0999 V2000
  145.5730   66.3520  218.9980 C   0  0  0  0  0  0  0  0  0  0  0  0
  145.1150   67.6120  218.5020 N   0  0  0  0  0  0  0  0  0  0  0  0
  144.4490   68.4320  219.4690 C   0  0  0  0  0  0  0  0  0  0  0  0
  144.0030   69.7000  218.7260 C   0  0  0  0  0  0  0  0  0  0  0  0
  145.1970   70.4350  218.5180 N   0  0  0  0  0  0  0  0  0  0  0  0
  145.5420   71.4360  219.4470 C   0  0  0  0  0  0  0  0  0  0  0  0
  144.4520   72.2990  219.9300 C   0  0  0  0  0  0  0  0  0  0  0  0
  144.3550   73.6500  219.6730 C   0  0  0  0  0  0  0  0  0  0  0  0
  143.2780   74.3890  220.1800 C   0  0  0  0  0  0  0  0  0  0  0  0
  142.3070   73.7660  220.9410 C   0  0  0  0  0  0  0  0  0  0  0  0
  141.2210   74.4340  221.4710 C   0  0  0  0  0  0  0  0  0  0  0  0
  141.0880   75.8280  221.2270 N   0  0  0  0  0  0  0  0  0  0  0  0
  140.3120   73.7650  222.2030 N   0  0  0  0  0  0  0  0  0  0  0  0
  140.4150   72.4570  222.4450 C   0  0  0  0  0  0  0  0  0  0  0  0
  139.4250   71.7550  223.2370 C   0  0  0  0  0  0  0  0  0  0  0  0
  139.7760   70.7590  224.0090 C   0  0  0  0  0  0  0  0  0  0  0  0
  140.1400   70.8850  225.4140 C   0  0  0  0  0  0  0  0  0  0  0  0
  141.0160   71.8880  225.8460 C   0  0  0  0  0  0  0  0  0  0  0  0
  141.3710   72.0200  227.1730 C   0  0  0  0  0  0  0  0  0  0  0  0
  140.8480   71.1400  228.0930 C   0  0  0  0  0  0  0  0  0  0  0  0
  140.0100   70.1750  227.7020 N   0  0  0  0  0  0  0  0  0  0  0  0
  139.6660   70.0500  226.3990 C   0  0  0  0  0  0  0  0  0  0  0  0
  141.4800   71.7950  221.9270 N   0  0  0  0  0  0  0  0  0  0  0  0
  142.4110   72.4180  221.1920 C   0  0  0  0  0  0  0  0  0  0  0  0
  143.4610   71.6830  220.7000 C   0  0  0  0  0  0  0  0  0  0  0  0
  146.2610   69.7230  217.9180 C   0  0  0  0  0  0  0  0  0  0  0  0
  145.9820   68.2910  217.6090 C   0  0  0  0  0  0  0  0  0  0  0  0
  145.5675   66.3670  220.0979 H   0  0  0  0  0  0  0  0  0  0  0  0
  144.9078   65.5529  218.6389 H   0  0  0  0  0  0  0  0  0  0  0  0
  146.5961   66.1665  218.6389 H   0  0  0  0  0  0  0  0  0  0  0  0
  143.5756   67.9039  219.8791 H   0  0  0  0  0  0  0  0  0  0  0  0
  145.1129   68.6753  220.3116 H   0  0  0  0  0  0  0  0  0  0  0  0
  143.5343   69.4417  217.7650 H   0  0  0  0  0  0  0  0  0  0  0  0
  143.2554   70.2733  219.2937 H   0  0  0  0  0  0  0  0  0  0  0  0
  145.9852   70.9387  220.3224 H   0  0  0  0  0  0  0  0  0  0  0  0
  146.2224   72.1090  218.9047 H   0  0  0  0  0  0  0  0  0  0  0  0
  145.1259   74.1495  219.0678 H   0  0  0  0  0  0  0  0  0  0  0  0
  143.2052   75.4667  219.9720 H   0  0  0  0  0  0  0  0  0  0  0  0
  140.2660   76.1990  220.6820 H   0  0  0  0  0  0  0  0  0  0  0  0
  141.8320   76.4600  221.6070 H   0  0  0  0  0  0  0  0  0  0  0  0
  138.3699   72.0622  223.1886 H   0  0  0  0  0  0  0  0  0  0  0  0
  139.7979   69.7529  223.5649 H   0  0  0  0  0  0  0  0  0  0  0  0
  141.4324   72.5895  225.1081 H   0  0  0  0  0  0  0  0  0  0  0  0
  142.0609   72.8158  227.4904 H   0  0  0  0  0  0  0  0  0  0  0  0
  141.1209   71.2313  229.1547 H   0  0  0  0  0  0  0  0  0  0  0  0
  138.9750   69.2429  226.1143 H   0  0  0  0  0  0  0  0  0  0  0  0
  143.5228   70.6055  220.9124 H   0  0  0  0  0  0  0  0  0  0  0  0
  146.5186   70.2290  216.9759 H   0  0  0  0  0  0  0  0  0  0  0  0
  147.0761   69.7192  218.6567 H   0  0  0  0  0  0  0  0  0  0  0  0
  145.5319   68.2463  216.6063 H   0  0  0  0  0  0  0  0  0  0  0  0
  146.9514   67.7785  217.6956 H   0  0  0  0  0  0  0  0  0  0  0  0
  1  2  1  0
  2  3  1  0
  3  4  1  0
  4  5  1  0
  5  6  1  0
  6  7  1  0
  7  8  2  0
  8  9  1  0
  9 10  2  0
 10 11  1  0
 11 12  1  0
 11 13  2  0
 13 14  1  0
 14 15  1  0
 15 16  2  0
 16 17  1  0
 17 18  2  0
 18 19  1  0
 19 20  2  0
 20 21  1  0
 21 22  2  0
 14 23  2  0
 23 24  1  0
 24 25  2  0
  5 26  1  0
 26 27  1  0
 27  2  1  0
 25  7  1  0
 24 10  1  0
 22 17  1  0
  1 28  1  0
  1 29  1  0
  1 30  1  0
  3 31  1  0
  3 32  1  0
  4 33  1  0
  4 34  1  0
  6 35  1  0
  6 36  1  0
  8 37  1  0
  9 38  1  0
 12 39  1  0
 12 40  1  0
 15 41  1  0
 16 42  1  0
 18 43  1  0
 19 44  1  0
 20 45  1  0
 22 46  1  0
 25 47  1  0
 26 48  1  0
 26 49  1  0
 27 50  1  0
 27 51  1  0
M  END
>  <smiles>  (30) 
CN1CCN(Cc2ccc3c(N)nc(/C=C/c4cccnc4)nc3c2)CC1

>  <score_type>  (30) 
oracle

>  <origin>  (30) 
autodockgpu

>  <m_score__min__energy>  (30) 
-8.3100000000000005

>  <m_primary>  (30) 
energy

>  <rmsd>  (30) 
8.340093644672589

>  <m_score__min__rmsd>  (30) 
8.340093644672589

>  <meeko>  (30) 
{"free_energy": -7.56, "intermolecular_energy": -9.35, "internal_energy": -0.5, "cluster_size": 3, "cluster_id": 2, "rank_in_cluster": 2}

>  <energy>  (30) 
-7.29

>  <cluster_rmsd>  (30) 
1.72

>  <cluster>  (30) 
1

$$$$

     RDKit          3D

 51 54  0  0  0  0  0  0  0  0999 V2000
  142.2740   75.2900  218.6330 C   0  0  0  0  0  0  0  0  0  0  0  0
  141.8270   75.2050  219.9870 N   0  0  0  0  0  0  0  0  0  0  0  0
  140.4540   75.5610  220.1900 C   0  0  0  0  0  0  0  0  0  0  0  0
  140.1990   75.4480  221.7000 C   0  0  0  0  0  0  0  0  0  0  0  0
  140.1610   74.0540  221.9570 N   0  0  0  0  0  0  0  0  0  0  0  0
  138.9100   73.4060  221.9760 C   0  0  0  0  0  0  0  0  0  0  0  0
  138.9250   71.9390  222.0910 C   0  0  0  0  0  0  0  0  0  0  0  0
  138.8240   71.0720  221.0230 C   0  0  0  0  0  0  0  0  0  0  0  0
  138.8440   69.6880  221.2340 C   0  0  0  0  0  0  0  0  0  0  0  0
  138.9660   69.1830  222.5160 C   0  0  0  0  0  0  0  0  0  0  0  0
  138.9930   67.8310  222.7940 C   0  0  0  0  0  0  0  0  0  0  0  0
  138.8900   66.9080  221.7180 N   0  0  0  0  0  0  0  0  0  0  0  0
  139.1140   67.4090  224.0650 N   0  0  0  0  0  0  0  0  0  0  0  0
  139.2120   68.2560  225.0910 C   0  0  0  0  0  0  0  0  0  0  0  0
  139.3410   67.7800  226.4540 C   0  0  0  0  0  0  0  0  0  0  0  0
  140.2100   68.3210  227.2670 C   0  0  0  0  0  0  0  0  0  0  0  0
  140.5130   69.7450  227.3330 C   0  0  0  0  0  0  0  0  0  0  0  0
  141.3840   70.3410  226.4130 C   0  0  0  0  0  0  0  0  0  0  0  0
  141.6810   71.6880  226.4620 C   0  0  0  0  0  0  0  0  0  0  0  0
  141.1050   72.4620  227.4430 C   0  0  0  0  0  0  0  0  0  0  0  0
  140.2710   71.9130  228.3320 N   0  0  0  0  0  0  0  0  0  0  0  0
  139.9830   70.5920  228.2790 C   0  0  0  0  0  0  0  0  0  0  0  0
  139.1860   69.5860  224.8250 N   0  0  0  0  0  0  0  0  0  0  0  0
  139.0670   70.0550  223.5740 C   0  0  0  0  0  0  0  0  0  0  0  0
  139.0490   71.4130  223.3810 C   0  0  0  0  0  0  0  0  0  0  0  0
  141.2610   73.3100  221.4700 C   0  0  0  0  0  0  0  0  0  0  0  0
  142.2940   74.0960  220.7370 C   0  0  0  0  0  0  0  0  0  0  0  0
  143.3545   75.4955  218.6158 H   0  0  0  0  0  0  0  0  0  0  0  0
  142.0736   74.3377  218.1202 H   0  0  0  0  0  0  0  0  0  0  0  0
  141.7381   76.1023  218.1202 H   0  0  0  0  0  0  0  0  0  0  0  0
  140.2730   76.5911  219.8491 H   0  0  0  0  0  0  0  0  0  0  0  0
  139.7815   74.9028  219.6203 H   0  0  0  0  0  0  0  0  0  0  0  0
  141.0121   75.9247  222.2671 H   0  0  0  0  0  0  0  0  0  0  0  0
  139.2694   75.9519  222.0032 H   0  0  0  0  0  0  0  0  0  0  0  0
  138.3433   73.8012  222.8320 H   0  0  0  0  0  0  0  0  0  0  0  0
  138.4632   73.6133  220.9925 H   0  0  0  0  0  0  0  0  0  0  0  0
  138.7274   71.4693  220.0018 H   0  0  0  0  0  0  0  0  0  0  0  0
  138.7625   69.0010  220.3788 H   0  0  0  0  0  0  0  0  0  0  0  0
  137.9930   66.8190  221.1740 H   0  0  0  0  0  0  0  0  0  0  0  0
  139.7340   66.3300  221.4920 H   0  0  0  0  0  0  0  0  0  0  0  0
  138.7025   66.9568  226.8071 H   0  0  0  0  0  0  0  0  0  0  0  0
  140.7524   67.6523  227.9516 H   0  0  0  0  0  0  0  0  0  0  0  0
  141.8437   69.7194  225.6305 H   0  0  0  0  0  0  0  0  0  0  0  0
  142.3674   72.1357  225.7283 H   0  0  0  0  0  0  0  0  0  0  0  0
  141.3317   73.5371  227.4960 H   0  0  0  0  0  0  0  0  0  0  0  0
  139.2927   70.1756  229.0274 H   0  0  0  0  0  0  0  0  0  0  0  0
  139.1323   72.0905  224.2436 H   0  0  0  0  0  0  0  0  0  0  0  0
  141.7495   72.8262  222.3286 H   0  0  0  0  0  0  0  0  0  0  0  0
  140.8457   72.6012  220.7384 H   0  0  0  0  0  0  0  0  0  0  0  0
  143.0158   74.4723  221.4769 H   0  0  0  0  0  0  0  0  0  0  0  0
  142.7200   73.4016  219.9979 H   0  0  0  0  0  0  0  0  0  0  0  0
  1  2  1  0
  2  3  1  0
  3  4  1  0
  4  5  1  0
  5  6  1  0
  6  7  1  0
  7  8  2  0
  8  9  1  0
  9 10  2  0
 10 11  1  0
 11 12  1  0
 11 13  2  0
 13 14  1  0
 14 15  1  0
 15 16  2  0
 16 17  1  0
 17 18  2  0
 18 19  1  0
 19 20  2  0
 20 21  1  0
 21 22  2  0
 14 23  2  0
 23 24  1  0
 24 25  2  0
  5 26  1  0
 26 27  1  0
 27  2  1  0
 25  7  1  0
 24 10  1  0
 22 17  1  0
  1 28  1  0
  1 29  1  0
  1 30  1  0
  3 31  1  0
  3 32  1  0
  4 33  1  0
  4 34  1  0
  6 35  1  0
  6 36  1  0
  8 37  1  0
  9 38  1  0
 12 39  1  0
 12 40  1  0
 15 41  1  0
 16 42  1  0
 18 43  1  0
 19 44  1  0
 20 45  1  0
 22 46  1  0
 25 47  1  0
 26 48  1  0
 26 49  1  0
 27 50  1  0
 27 51  1  0
M  END
>  <smiles>  (31) 
CN1CCN(Cc2ccc3c(N)nc(/C=C/c4cccnc4)nc3c2)CC1

>  <score_type>  (31) 
oracle

>  <origin>  (31) 
autodockgpu

>  <m_score__min__energy>  (31) 
-8.3100000000000005

>  <m_primary>  (31) 
energy

>  <rmsd>  (31) 
3.442019002272348

>  <m_score__min__rmsd>  (31) 
3.442019002272348

>  <meeko>  (31) 
{"free_energy": -7.15, "intermolecular_energy": -8.94, "internal_energy": -0.92, "cluster_size": 2, "cluster_id": 4, "rank_in_cluster": 2}

>  <energy>  (31) 
-7.29

>  <cluster_rmsd>  (31) 
1.71

>  <cluster>  (31) 
1

$$$$

     RDKit          3D

 51 54  0  0  0  0  0  0  0  0999 V2000
  138.5960   80.8900  224.1130 C   0  0  0  0  0  0  0  0  0  0  0  0
  139.9420   80.5610  223.7650 N   0  0  0  0  0  0  0  0  0  0  0  0
  140.2380   79.1590  223.7700 C   0  0  0  0  0  0  0  0  0  0  0  0
  141.7280   79.0330  223.4210 C   0  0  0  0  0  0  0  0  0  0  0  0
  141.8010   79.3240  222.0360 N   0  0  0  0  0  0  0  0  0  0  0  0
  141.7800   78.2530  221.1200 C   0  0  0  0  0  0  0  0  0  0  0  0
  140.7280   77.2400  221.3080 C   0  0  0  0  0  0  0  0  0  0  0  0
  139.3820   77.4670  221.1100 C   0  0  0  0  0  0  0  0  0  0  0  0
  138.4560   76.4370  221.3180 C   0  0  0  0  0  0  0  0  0  0  0  0
  138.8870   75.1870  221.7230 C   0  0  0  0  0  0  0  0  0  0  0  0
  138.0280   74.1300  221.9460 C   0  0  0  0  0  0  0  0  0  0  0  0
  136.6340   74.3270  221.7520 N   0  0  0  0  0  0  0  0  0  0  0  0
  138.5160   72.9390  222.3390 N   0  0  0  0  0  0  0  0  0  0  0  0
  139.8210   72.7310  222.5260 C   0  0  0  0  0  0  0  0  0  0  0  0
  140.3260   71.4400  222.9510 C   0  0  0  0  0  0  0  0  0  0  0  0
  139.7300   70.7750  223.9060 C   0  0  0  0  0  0  0  0  0  0  0  0
  140.0830   70.8510  225.3170 C   0  0  0  0  0  0  0  0  0  0  0  0
  140.8900   71.8860  225.8050 C   0  0  0  0  0  0  0  0  0  0  0  0
  141.2320   71.9720  227.1390 C   0  0  0  0  0  0  0  0  0  0  0  0
  140.7670   71.0130  228.0100 C   0  0  0  0  0  0  0  0  0  0  0  0
  139.9950   70.0160  227.5650 N   0  0  0  0  0  0  0  0  0  0  0  0
  139.6620   69.9370  226.2560 C   0  0  0  0  0  0  0  0  0  0  0  0
  140.6700   73.7650  222.3090 N   0  0  0  0  0  0  0  0  0  0  0  0
  140.2310   74.9700  221.9170 C   0  0  0  0  0  0  0  0  0  0  0  0
  141.1490   75.9710  221.7160 C   0  0  0  0  0  0  0  0  0  0  0  0
  141.1830   80.5280  221.6280 C   0  0  0  0  0  0  0  0  0  0  0  0
  140.5230   81.3110  222.7120 C   0  0  0  0  0  0  0  0  0  0  0  0
  138.4959   80.9145  225.2082 H   0  0  0  0  0  0  0  0  0  0  0  0
  138.3411   81.8769  223.6994 H   0  0  0  0  0  0  0  0  0  0  0  0
  137.9146   80.1320  223.6994 H   0  0  0  0  0  0  0  0  0  0  0  0
  140.0421   78.7317  224.7645 H   0  0  0  0  0  0  0  0  0  0  0  0
  139.6106   78.6149  223.0487 H   0  0  0  0  0  0  0  0  0  0  0  0
  142.3240   79.7535  224.0003 H   0  0  0  0  0  0  0  0  0  0  0  0
  142.1270   78.0356  223.6574 H   0  0  0  0  0  0  0  0  0  0  0  0
  141.6564   78.6784  220.1132 H   0  0  0  0  0  0  0  0  0  0  0  0
  142.7275   77.7177  221.2807 H   0  0  0  0  0  0  0  0  0  0  0  0
  139.0348   78.4598  220.7878 H   0  0  0  0  0  0  0  0  0  0  0  0
  137.3835   76.6228  221.1588 H   0  0  0  0  0  0  0  0  0  0  0  0
  136.2410   74.4460  220.7830 H   0  0  0  0  0  0  0  0  0  0  0  0
  136.0250   74.3470  222.6040 H   0  0  0  0  0  0  0  0  0  0  0  0
  141.2179   71.0166  222.4660 H   0  0  0  0  0  0  0  0  0  0  0  0
  138.9012   70.1093  223.6231 H   0  0  0  0  0  0  0  0  0  0  0  0
  141.2611   72.6506  225.1066 H   0  0  0  0  0  0  0  0  0  0  0  0
  141.8666   72.7944  227.5009 H   0  0  0  0  0  0  0  0  0  0  0  0
  141.0315   71.0670  229.0764 H   0  0  0  0  0  0  0  0  0  0  0  0
  139.0248   69.1030  225.9267 H   0  0  0  0  0  0  0  0  0  0  0  0
  142.2192   75.7738  221.8765 H   0  0  0  0  0  0  0  0  0  0  0  0
  141.9533   81.1660  221.1702 H   0  0  0  0  0  0  0  0  0  0  0  0
  140.3800   80.2354  220.9355 H   0  0  0  0  0  0  0  0  0  0  0  0
  141.2798   81.9766  223.1528 H   0  0  0  0  0  0  0  0  0  0  0  0
  139.6849   81.8333  222.2274 H   0  0  0  0  0  0  0  0  0  0  0  0
  1  2  1  0
  2  3  1  0
  3  4  1  0
  4  5  1  0
  5  6  1  0
  6  7  1  0
  7  8  2  0
  8  9  1  0
  9 10  2  0
 10 11  1  0
 11 12  1  0
 11 13  2  0
 13 14  1  0
 14 15  1  0
 15 16  2  0
 16 17  1  0
 17 18  2  0
 18 19  1  0
 19 20  2  0
 20 21  1  0
 21 22  2  0
 14 23  2  0
 23 24  1  0
 24 25  2  0
  5 26  1  0
 26 27  1  0
 27  2  1  0
 25  7  1  0
 24 10  1  0
 22 17  1  0
  1 28  1  0
  1 29  1  0
  1 30  1  0
  3 31  1  0
  3 32  1  0
  4 33  1  0
  4 34  1  0
  6 35  1  0
  6 36  1  0
  8 37  1  0
  9 38  1  0
 12 39  1  0
 12 40  1  0
 15 41  1  0
 16 42  1  0
 18 43  1  0
 19 44  1  0
 20 45  1  0
 22 46  1  0
 25 47  1  0
 26 48  1  0
 26 49  1  0
 27 50  1  0
 27 51  1  0
M  END
>  <smiles>  (32) 
CN1CCN(Cc2ccc3c(N)nc(/C=C/c4cccnc4)nc3c2)CC1

>  <score_type>  (32) 
oracle

>  <origin>  (32) 
autodockgpu

>  <m_score__min__energy>  (32) 
-8.3100000000000005

>  <m_primary>  (32) 
energy

>  <rmsd>  (32) 
7.165629877515804

>  <m_score__min__rmsd>  (32) 
7.165629877515804

>  <meeko>  (32) 
{"free_energy": -7.23, "intermolecular_energy": -9.02, "internal_energy": -0.86, "cluster_size": 9, "cluster_id": 3, "rank_in_cluster": 3}

>  <energy>  (32) 
-7.28

>  <cluster_rmsd>  (32) 
1.59

>  <cluster>  (32) 
1

$$$$

     RDKit          3D

 51 54  0  0  0  0  0  0  0  0999 V2000
  143.6540   80.5000  223.5000 C   0  0  0  0  0  0  0  0  0  0  0  0
  142.2870   80.2830  223.1440 N   0  0  0  0  0  0  0  0  0  0  0  0
  141.9940   80.4540  221.7520 C   0  0  0  0  0  0  0  0  0  0  0  0
  140.4840   80.2260  221.5990 C   0  0  0  0  0  0  0  0  0  0  0  0
  140.3130   78.8270  221.7450 N   0  0  0  0  0  0  0  0  0  0  0  0
  140.2720   78.0280  220.5850 C   0  0  0  0  0  0  0  0  0  0  0  0
  140.8550   76.6800  220.6860 C   0  0  0  0  0  0  0  0  0  0  0  0
  142.0290   76.2900  220.0770 C   0  0  0  0  0  0  0  0  0  0  0  0
  142.5020   74.9820  220.2300 C   0  0  0  0  0  0  0  0  0  0  0  0
  141.7940   74.0720  220.9940 C   0  0  0  0  0  0  0  0  0  0  0  0
  142.2040   72.7690  221.1860 C   0  0  0  0  0  0  0  0  0  0  0  0
  143.4090   72.3320  220.5720 N   0  0  0  0  0  0  0  0  0  0  0  0
  141.4660   71.9370  221.9440 N   0  0  0  0  0  0  0  0  0  0  0  0
  140.3320   72.3240  222.5300 C   0  0  0  0  0  0  0  0  0  0  0  0
  139.5510   71.4120  223.3420 C   0  0  0  0  0  0  0  0  0  0  0  0
  140.1410   70.5700  224.1500 C   0  0  0  0  0  0  0  0  0  0  0  0
  140.3560   70.7960  225.5730 C   0  0  0  0  0  0  0  0  0  0  0  0
  139.8080   69.9350  226.5310 C   0  0  0  0  0  0  0  0  0  0  0  0
  140.0030   70.1360  227.8830 C   0  0  0  0  0  0  0  0  0  0  0  0
  140.7550   71.2110  228.2950 C   0  0  0  0  0  0  0  0  0  0  0  0
  141.2870   72.0460  227.3970 N   0  0  0  0  0  0  0  0  0  0  0  0
  141.0930   71.8450  226.0730 C   0  0  0  0  0  0  0  0  0  0  0  0
  139.9240   73.6040  222.3450 N   0  0  0  0  0  0  0  0  0  0  0  0
  140.6250   74.4700  221.5990 C   0  0  0  0  0  0  0  0  0  0  0  0
  140.1510   75.7500  221.4580 C   0  0  0  0  0  0  0  0  0  0  0  0
  140.8990   78.2530  222.8970 C   0  0  0  0  0  0  0  0  0  0  0  0
  141.6320   79.2010  223.7850 C   0  0  0  0  0  0  0  0  0  0  0  0
  143.7496   80.5152  224.5957 H   0  0  0  0  0  0  0  0  0  0  0  0
  144.2731   79.6889  223.0891 H   0  0  0  0  0  0  0  0  0  0  0  0
  143.9915   81.4630  223.0891 H   0  0  0  0  0  0  0  0  0  0  0  0
  142.2604   81.4711  221.4288 H   0  0  0  0  0  0  0  0  0  0  0  0
  142.5696   79.7503  221.1327 H   0  0  0  0  0  0  0  0  0  0  0  0
  139.9292   80.7678  222.3792 H   0  0  0  0  0  0  0  0  0  0  0  0
  140.1042   80.5924  220.6339 H   0  0  0  0  0  0  0  0  0  0  0  0
  139.2165   77.9133  220.2972 H   0  0  0  0  0  0  0  0  0  0  0  0
  140.8959   78.5568  219.8494 H   0  0  0  0  0  0  0  0  0  0  0  0
  142.5960   77.0099  219.4685 H   0  0  0  0  0  0  0  0  0  0  0  0
  143.4391   74.6768  219.7415 H   0  0  0  0  0  0  0  0  0  0  0  0
  143.8290   72.8740  219.7730 H   0  0  0  0  0  0  0  0  0  0  0  0
  143.8550   71.4600  220.9440 H   0  0  0  0  0  0  0  0  0  0  0  0
  138.4530   71.4283  223.2780 H   0  0  0  0  0  0  0  0  0  0  0  0
  140.5013   69.6219  223.7241 H   0  0  0  0  0  0  0  0  0  0  0  0
  139.2066   69.0762  226.1982 H   0  0  0  0  0  0  0  0  0  0  0  0
  139.5636   69.4468  228.6192 H   0  0  0  0  0  0  0  0  0  0  0  0
  140.9195   71.3846  229.3687 H   0  0  0  0  0  0  0  0  0  0  0  0
  141.5455   72.5532  225.3633 H   0  0  0  0  0  0  0  0  0  0  0  0
  139.2145   76.0456  221.9536 H   0  0  0  0  0  0  0  0  0  0  0  0
  140.0974   77.7860  223.4881 H   0  0  0  0  0  0  0  0  0  0  0  0
  141.6519   77.5402  222.5295 H   0  0  0  0  0  0  0  0  0  0  0  0
  140.9068   79.6224  224.4967 H   0  0  0  0  0  0  0  0  0  0  0  0
  142.4327   78.6075  224.2505 H   0  0  0  0  0  0  0  0  0  0  0  0
  1  2  1  0
  2  3  1  0
  3  4  1  0
  4  5  1  0
  5  6  1  0
  6  7  1  0
  7  8  2  0
  8  9  1  0
  9 10  2  0
 10 11  1  0
 11 12  1  0
 11 13  2  0
 13 14  1  0
 14 15  1  0
 15 16  2  0
 16 17  1  0
 17 18  2  0
 18 19  1  0
 19 20  2  0
 20 21  1  0
 21 22  2  0
 14 23  2  0
 23 24  1  0
 24 25  2  0
  5 26  1  0
 26 27  1  0
 27  2  1  0
 25  7  1  0
 24 10  1  0
 22 17  1  0
  1 28  1  0
  1 29  1  0
  1 30  1  0
  3 31  1  0
  3 32  1  0
  4 33  1  0
  4 34  1  0
  6 35  1  0
  6 36  1  0
  8 37  1  0
  9 38  1  0
 12 39  1  0
 12 40  1  0
 15 41  1  0
 16 42  1  0
 18 43  1  0
 19 44  1  0
 20 45  1  0
 22 46  1  0
 25 47  1  0
 26 48  1  0
 26 49  1  0
 27 50  1  0
 27 51  1  0
M  END
>  <smiles>  (33) 
CN1CCN(Cc2ccc3c(N)nc(/C=C/c4cccnc4)nc3c2)CC1

>  <score_type>  (33) 
oracle

>  <origin>  (33) 
autodockgpu

>  <m_score__min__energy>  (33) 
-8.3100000000000005

>  <m_primary>  (33) 
energy

>  <rmsd>  (33) 
7.068711543896466

>  <m_score__min__rmsd>  (33) 
7.068711543896466

>  <meeko>  (33) 
{"free_energy": -7.89, "intermolecular_energy": -9.68, "internal_energy": -0.64, "cluster_size": 35, "cluster_id": 1, "rank_in_cluster": 21}

>  <energy>  (33) 
-7.27

>  <cluster_rmsd>  (33) 
1.46

>  <cluster>  (33) 
1

$$$$

     RDKit          3D

 51 54  0  0  0  0  0  0  0  0999 V2000
  139.1600   80.9440  223.7440 C   0  0  0  0  0  0  0  0  0  0  0  0
  140.3140   80.1740  223.4000 N   0  0  0  0  0  0  0  0  0  0  0  0
  140.0600   78.7850  223.1620 C   0  0  0  0  0  0  0  0  0  0  0  0
  141.4220   78.1430  222.8590 C   0  0  0  0  0  0  0  0  0  0  0  0
  141.7490   78.5900  221.5540 N   0  0  0  0  0  0  0  0  0  0  0  0
  141.4280   77.7640  220.4580 C   0  0  0  0  0  0  0  0  0  0  0  0
  141.7500   76.3340  220.5880 C   0  0  0  0  0  0  0  0  0  0  0  0
  142.8270   75.7190  219.9850 C   0  0  0  0  0  0  0  0  0  0  0  0
  143.0490   74.3490  220.1660 C   0  0  0  0  0  0  0  0  0  0  0  0
  142.1880   73.6040  220.9510 C   0  0  0  0  0  0  0  0  0  0  0  0
  142.3480   72.2510  221.1700 C   0  0  0  0  0  0  0  0  0  0  0  0
  143.4470   71.5840  220.5650 N   0  0  0  0  0  0  0  0  0  0  0  0
  141.4720   71.5870  221.9470 N   0  0  0  0  0  0  0  0  0  0  0  0
  140.4330   72.1920  222.5260 C   0  0  0  0  0  0  0  0  0  0  0  0
  139.5000   71.4590  223.3590 C   0  0  0  0  0  0  0  0  0  0  0  0
  139.9300   70.5700  224.2150 C   0  0  0  0  0  0  0  0  0  0  0  0
  140.2810   70.8530  225.6010 C   0  0  0  0  0  0  0  0  0  0  0  0
  139.7740   70.0740  226.6480 C   0  0  0  0  0  0  0  0  0  0  0  0
  140.0960   70.3290  227.9650 C   0  0  0  0  0  0  0  0  0  0  0  0
  140.9390   71.3780  228.2540 C   0  0  0  0  0  0  0  0  0  0  0  0
  141.4350   72.1350  227.2690 N   0  0  0  0  0  0  0  0  0  0  0  0
  141.1150   71.8800  225.9790 C   0  0  0  0  0  0  0  0  0  0  0  0
  140.2700   73.5220  222.3150 N   0  0  0  0  0  0  0  0  0  0  0  0
  141.1160   74.2250  221.5490 C   0  0  0  0  0  0  0  0  0  0  0  0
  140.8890   75.5690  221.3800 C   0  0  0  0  0  0  0  0  0  0  0  0
  141.6770   79.9870  221.3470 C   0  0  0  0  0  0  0  0  0  0  0  0
  141.2450   80.7900  222.5260 C   0  0  0  0  0  0  0  0  0  0  0  0
  139.0716   81.0030  224.8389 H   0  0  0  0  0  0  0  0  0  0  0  0
  139.2586   81.9579  223.3290 H   0  0  0  0  0  0  0  0  0  0  0  0
  138.2616   80.4637  223.3290 H   0  0  0  0  0  0  0  0  0  0  0  0
  139.6105   78.3220  224.0528 H   0  0  0  0  0  0  0  0  0  0  0  0
  139.3574   78.6445  222.3273 H   0  0  0  0  0  0  0  0  0  0  0  0
  142.1783   78.4775  223.5843 H   0  0  0  0  0  0  0  0  0  0  0  0
  141.3887   77.0456  222.9265 H   0  0  0  0  0  0  0  0  0  0  0  0
  140.3449   77.8468  220.2849 H   0  0  0  0  0  0  0  0  0  0  0  0
  142.0561   78.1264  219.6309 H   0  0  0  0  0  0  0  0  0  0  0  0
  143.5142   76.3074  219.3594 H   0  0  0  0  0  0  0  0  0  0  0  0
  143.9100   73.8639  219.6829 H   0  0  0  0  0  0  0  0  0  0  0  0
  143.5110   71.5040  219.5160 H   0  0  0  0  0  0  0  0  0  0  0  0
  144.1790   71.1820  221.1970 H   0  0  0  0  0  0  0  0  0  0  0  0
  138.4209   71.6527  223.2698 H   0  0  0  0  0  0  0  0  0  0  0  0
  140.0346   69.5328  223.8639 H   0  0  0  0  0  0  0  0  0  0  0  0
  139.1008   69.2361  226.4142 H   0  0  0  0  0  0  0  0  0  0  0  0
  139.6854   69.7038  228.7716 H   0  0  0  0  0  0  0  0  0  0  0  0
  141.2058   71.5946  229.2989 H   0  0  0  0  0  0  0  0  0  0  0  0
  141.5417   72.5240  225.1959 H   0  0  0  0  0  0  0  0  0  0  0  0
  140.0267   76.0450  221.8696 H   0  0  0  0  0  0  0  0  0  0  0  0
  142.6757   80.3368  221.0466 H   0  0  0  0  0  0  0  0  0  0  0  0
  140.9039   80.1386  220.5793 H   0  0  0  0  0  0  0  0  0  0  0  0
  142.1433   81.0345  223.1119 H   0  0  0  0  0  0  0  0  0  0  0  0
  140.7219   81.6634  222.1095 H   0  0  0  0  0  0  0  0  0  0  0  0
  1  2  1  0
  2  3  1  0
  3  4  1  0
  4  5  1  0
  5  6  1  0
  6  7  1  0
  7  8  2  0
  8  9  1  0
  9 10  2  0
 10 11  1  0
 11 12  1  0
 11 13  2  0
 13 14  1  0
 14 15  1  0
 15 16  2  0
 16 17  1  0
 17 18  2  0
 18 19  1  0
 19 20  2  0
 20 21  1  0
 21 22  2  0
 14 23  2  0
 23 24  1  0
 24 25  2  0
  5 26  1  0
 26 27  1  0
 27  2  1  0
 25  7  1  0
 24 10  1  0
 22 17  1  0
  1 28  1  0
  1 29  1  0
  1 30  1  0
  3 31  1  0
  3 32  1  0
  4 33  1  0
  4 34  1  0
  6 35  1  0
  6 36  1  0
  8 37  1  0
  9 38  1  0
 12 39  1  0
 12 40  1  0
 15 41  1  0
 16 42  1  0
 18 43  1  0
 19 44  1  0
 20 45  1  0
 22 46  1  0
 25 47  1  0
 26 48  1  0
 26 49  1  0
 27 50  1  0
 27 51  1  0
M  END
>  <smiles>  (34) 
CN1CCN(Cc2ccc3c(N)nc(/C=C/c4cccnc4)nc3c2)CC1

>  <score_type>  (34) 
oracle

>  <origin>  (34) 
autodockgpu

>  <m_score__min__energy>  (34) 
-8.3100000000000005

>  <m_primary>  (34) 
energy

>  <rmsd>  (34) 
6.732408759717448

>  <m_score__min__rmsd>  (34) 
6.732408759717448

>  <meeko>  (34) 
{"free_energy": -7.98, "intermolecular_energy": -9.77, "internal_energy": -0.62, "cluster_size": 35, "cluster_id": 1, "rank_in_cluster": 16}

>  <energy>  (34) 
-7.25

>  <cluster_rmsd>  (34) 
1.26

>  <cluster>  (34) 
1

$$$$

     RDKit          3D

 51 54  0  0  0  0  0  0  0  0999 V2000
  143.2850   80.8320  223.7400 C   0  0  0  0  0  0  0  0  0  0  0  0
  142.0320   80.2920  223.3140 N   0  0  0  0  0  0  0  0  0  0  0  0
  141.7470   80.4650  221.9200 C   0  0  0  0  0  0  0  0  0  0  0  0
  140.3530   79.8650  221.6880 C   0  0  0  0  0  0  0  0  0  0  0  0
  140.5480   78.4630  221.7560 N   0  0  0  0  0  0  0  0  0  0  0  0
  140.7500   77.7510  220.5570 C   0  0  0  0  0  0  0  0  0  0  0  0
  141.2210   76.3620  220.6810 C   0  0  0  0  0  0  0  0  0  0  0  0
  142.3740   75.8740  220.1030 C   0  0  0  0  0  0  0  0  0  0  0  0
  142.7370   74.5330  220.2760 C   0  0  0  0  0  0  0  0  0  0  0  0
  141.9400   73.6900  221.0290 C   0  0  0  0  0  0  0  0  0  0  0  0
  142.2390   72.3590  221.2390 C   0  0  0  0  0  0  0  0  0  0  0  0
  143.4190   71.8220  220.6580 N   0  0  0  0  0  0  0  0  0  0  0  0
  141.4190   71.5960  221.9830 N   0  0  0  0  0  0  0  0  0  0  0  0
  140.3060   72.0780  222.5390 C   0  0  0  0  0  0  0  0  0  0  0  0
  139.4350   71.2380  223.3370 C   0  0  0  0  0  0  0  0  0  0  0  0
  139.9340   70.4050  224.2130 C   0  0  0  0  0  0  0  0  0  0  0  0
  140.2710   70.7470  225.5880 C   0  0  0  0  0  0  0  0  0  0  0  0
  141.0760   71.8540  225.8800 C   0  0  0  0  0  0  0  0  0  0  0  0
  141.4040   72.1910  227.1780 C   0  0  0  0  0  0  0  0  0  0  0  0
  140.9250   71.4160  228.2090 C   0  0  0  0  0  0  0  0  0  0  0  0
  140.1540   70.3540  227.9520 N   0  0  0  0  0  0  0  0  0  0  0  0
  139.8360   70.0280  226.6780 C   0  0  0  0  0  0  0  0  0  0  0  0
  140.0060   73.3850  222.3370 N   0  0  0  0  0  0  0  0  0  0  0  0
  140.7920   74.1850  221.6020 C   0  0  0  0  0  0  0  0  0  0  0  0
  140.4260   75.4980  221.4410 C   0  0  0  0  0  0  0  0  0  0  0  0
  141.2270   77.9920  222.9030 C   0  0  0  0  0  0  0  0  0  0  0  0
  141.6620   79.0410  223.8690 C   0  0  0  0  0  0  0  0  0  0  0  0
  143.3226   80.8482  224.8392 H   0  0  0  0  0  0  0  0  0  0  0  0
  144.1038   80.2069  223.3543 H   0  0  0  0  0  0  0  0  0  0  0  0
  143.3929   81.8565  223.3543 H   0  0  0  0  0  0  0  0  0  0  0  0
  141.7497   81.5339  221.6604 H   0  0  0  0  0  0  0  0  0  0  0  0
  142.5042   79.9719  221.2927 H   0  0  0  0  0  0  0  0  0  0  0  0
  139.6529   80.1974  222.4687 H   0  0  0  0  0  0  0  0  0  0  0  0
  139.9201   80.1785  220.7266 H   0  0  0  0  0  0  0  0  0  0  0  0
  139.7920   77.7305  220.0168 H   0  0  0  0  0  0  0  0  0  0  0  0
  141.5604   78.2844  220.0387 H   0  0  0  0  0  0  0  0  0  0  0  0
  143.0110   76.5410  219.5036 H   0  0  0  0  0  0  0  0  0  0  0  0
  143.6577   74.1492  219.8123 H   0  0  0  0  0  0  0  0  0  0  0  0
  144.2070   71.4780  221.2670 H   0  0  0  0  0  0  0  0  0  0  0  0
  143.4710   71.7830  219.6120 H   0  0  0  0  0  0  0  0  0  0  0  0
  138.3449   71.3017  223.2046 H   0  0  0  0  0  0  0  0  0  0  0  0
  140.1124   69.3696  223.8873 H   0  0  0  0  0  0  0  0  0  0  0  0
  141.4574   72.4718  225.0536 H   0  0  0  0  0  0  0  0  0  0  0  0
  142.0384   73.0655  227.3847 H   0  0  0  0  0  0  0  0  0  0  0  0
  141.1773   71.6710  229.2489 H   0  0  0  0  0  0  0  0  0  0  0  0
  139.2001   69.1472  226.5053 H   0  0  0  0  0  0  0  0  0  0  0  0
  139.5045   75.8719  221.9112 H   0  0  0  0  0  0  0  0  0  0  0  0
  140.5560   77.3004  223.4336 H   0  0  0  0  0  0  0  0  0  0  0  0
  142.1499   77.5204  222.5344 H   0  0  0  0  0  0  0  0  0  0  0  0
  140.8317   79.2173  224.5686 H   0  0  0  0  0  0  0  0  0  0  0  0
  142.5755   78.6468  224.3381 H   0  0  0  0  0  0  0  0  0  0  0  0
  1  2  1  0
  2  3  1  0
  3  4  1  0
  4  5  1  0
  5  6  1  0
  6  7  1  0
  7  8  2  0
  8  9  1  0
  9 10  2  0
 10 11  1  0
 11 12  1  0
 11 13  2  0
 13 14  1  0
 14 15  1  0
 15 16  2  0
 16 17  1  0
 17 18  2  0
 18 19  1  0
 19 20  2  0
 20 21  1  0
 21 22  2  0
 14 23  2  0
 23 24  1  0
 24 25  2  0
  5 26  1  0
 26 27  1  0
 27  2  1  0
 25  7  1  0
 24 10  1  0
 22 17  1  0
  1 28  1  0
  1 29  1  0
  1 30  1  0
  3 31  1  0
  3 32  1  0
  4 33  1  0
  4 34  1  0
  6 35  1  0
  6 36  1  0
  8 37  1  0
  9 38  1  0
 12 39  1  0
 12 40  1  0
 15 41  1  0
 16 42  1  0
 18 43  1  0
 19 44  1  0
 20 45  1  0
 22 46  1  0
 25 47  1  0
 26 48  1  0
 26 49  1  0
 27 50  1  0
 27 51  1  0
M  END
>  <smiles>  (35) 
CN1CCN(Cc2ccc3c(N)nc(/C=C/c4cccnc4)nc3c2)CC1

>  <score_type>  (35) 
oracle

>  <origin>  (35) 
autodockgpu

>  <m_score__min__energy>  (35) 
-8.3100000000000005

>  <m_primary>  (35) 
energy

>  <rmsd>  (35) 
6.932990012699538

>  <m_score__min__rmsd>  (35) 
6.932990012699538

>  <meeko>  (35) 
{"free_energy": -8.16, "intermolecular_energy": -9.95, "internal_energy": -0.68, "cluster_size": 35, "cluster_id": 1, "rank_in_cluster": 6}

>  <energy>  (35) 
-6.9

>  <cluster_rmsd>  (35) 
1.37

>  <cluster>  (35) 
1

$$$$

     RDKit          3D

 51 54  0  0  0  0  0  0  0  0999 V2000
  139.1040   80.8830  223.8330 C   0  0  0  0  0  0  0  0  0  0  0  0
  140.2750   80.1450  223.4760 N   0  0  0  0  0  0  0  0  0  0  0  0
  140.0550   78.7500  223.2340 C   0  0  0  0  0  0  0  0  0  0  0  0
  141.4310   78.1460  222.9170 C   0  0  0  0  0  0  0  0  0  0  0  0
  141.7360   78.6060  221.6120 N   0  0  0  0  0  0  0  0  0  0  0  0
  141.4270   77.7770  220.5150 C   0  0  0  0  0  0  0  0  0  0  0  0
  141.7740   76.3520  220.6410 C   0  0  0  0  0  0  0  0  0  0  0  0
  142.8700   75.7610  220.0500 C   0  0  0  0  0  0  0  0  0  0  0  0
  143.1150   74.3930  220.2260 C   0  0  0  0  0  0  0  0  0  0  0  0
  142.2580   73.6280  220.9960 C   0  0  0  0  0  0  0  0  0  0  0  0
  142.4410   72.2780  221.2110 C   0  0  0  0  0  0  0  0  0  0  0  0
  143.5590   71.6340  220.6160 N   0  0  0  0  0  0  0  0  0  0  0  0
  141.5670   71.5940  221.9720 N   0  0  0  0  0  0  0  0  0  0  0  0
  140.5100   72.1760  222.5410 C   0  0  0  0  0  0  0  0  0  0  0  0
  139.5800   71.4210  223.3580 C   0  0  0  0  0  0  0  0  0  0  0  0
  140.0150   70.5350  224.2140 C   0  0  0  0  0  0  0  0  0  0  0  0
  140.3170   70.8080  225.6130 C   0  0  0  0  0  0  0  0  0  0  0  0
  139.8000   70.0010  226.6340 C   0  0  0  0  0  0  0  0  0  0  0  0
  140.0770   70.2480  227.9630 C   0  0  0  0  0  0  0  0  0  0  0  0
  140.8810   71.3150  228.2900 C   0  0  0  0  0  0  0  0  0  0  0  0
  141.3840   72.0990  227.3310 N   0  0  0  0  0  0  0  0  0  0  0  0
  141.1100   71.8530  226.0290 C   0  0  0  0  0  0  0  0  0  0  0  0
  140.3250   73.5040  222.3340 N   0  0  0  0  0  0  0  0  0  0  0  0
  141.1680   74.2270  221.5830 C   0  0  0  0  0  0  0  0  0  0  0  0
  140.9170   75.5660  221.4180 C   0  0  0  0  0  0  0  0  0  0  0  0
  141.6260   80.0010  221.4110 C   0  0  0  0  0  0  0  0  0  0  0  0
  141.1830   80.7880  222.5970 C   0  0  0  0  0  0  0  0  0  0  0  0
  139.0228   80.9342  224.9288 H   0  0  0  0  0  0  0  0  0  0  0  0
  139.1729   81.9012  223.4225 H   0  0  0  0  0  0  0  0  0  0  0  0
  138.2152   80.3815  223.4225 H   0  0  0  0  0  0  0  0  0  0  0  0
  139.6253   78.2716  224.1265 H   0  0  0  0  0  0  0  0  0  0  0  0
  139.3491   78.5942  222.4049 H   0  0  0  0  0  0  0  0  0  0  0  0
  142.1839   78.4977  223.6377 H   0  0  0  0  0  0  0  0  0  0  0  0
  141.4270   77.0478  222.9799 H   0  0  0  0  0  0  0  0  0  0  0  0
  140.3422   77.8414  220.3444 H   0  0  0  0  0  0  0  0  0  0  0  0
  142.0471   78.1520  219.6874 H   0  0  0  0  0  0  0  0  0  0  0  0
  143.5550   76.3659  219.4377 H   0  0  0  0  0  0  0  0  0  0  0  0
  143.9906   73.9265  219.7509 H   0  0  0  0  0  0  0  0  0  0  0  0
  144.4340   71.4570  221.1760 H   0  0  0  0  0  0  0  0  0  0  0  0
  143.4770   71.3470  219.6120 H   0  0  0  0  0  0  0  0  0  0  0  0
  138.4987   71.5957  223.2562 H   0  0  0  0  0  0  0  0  0  0  0  0
  140.1643   69.5071  223.8518 H   0  0  0  0  0  0  0  0  0  0  0  0
  139.1568   69.1486  226.3699 H   0  0  0  0  0  0  0  0  0  0  0  0
  139.6609   69.6011  228.7494 H   0  0  0  0  0  0  0  0  0  0  0  0
  141.1111   71.5242  229.3451 H   0  0  0  0  0  0  0  0  0  0  0  0
  141.5412   72.5194  225.2675 H   0  0  0  0  0  0  0  0  0  0  0  0
  140.0390   76.0225  221.8984 H   0  0  0  0  0  0  0  0  0  0  0  0
  142.6127   80.3778  221.1037 H   0  0  0  0  0  0  0  0  0  0  0  0
  140.8430   80.1354  220.6502 H   0  0  0  0  0  0  0  0  0  0  0  0
  142.0794   81.0531  223.1768 H   0  0  0  0  0  0  0  0  0  0  0  0
  140.6343   81.6493  222.1882 H   0  0  0  0  0  0  0  0  0  0  0  0
  1  2  1  0
  2  3  1  0
  3  4  1  0
  4  5  1  0
  5  6  1  0
  6  7  1  0
  7  8  2  0
  8  9  1  0
  9 10  2  0
 10 11  1  0
 11 12  1  0
 11 13  2  0
 13 14  1  0
 14 15  1  0
 15 16  2  0
 16 17  1  0
 17 18  2  0
 18 19  1  0
 19 20  2  0
 20 21  1  0
 21 22  2  0
 14 23  2  0
 23 24  1  0
 24 25  2  0
  5 26  1  0
 26 27  1  0
 27  2  1  0
 25  7  1  0
 24 10  1  0
 22 17  1  0
  1 28  1  0
  1 29  1  0
  1 30  1  0
  3 31  1  0
  3 32  1  0
  4 33  1  0
  4 34  1  0
  6 35  1  0
  6 36  1  0
  8 37  1  0
  9 38  1  0
 12 39  1  0
 12 40  1  0
 15 41  1  0
 16 42  1  0
 18 43  1  0
 19 44  1  0
 20 45  1  0
 22 46  1  0
 25 47  1  0
 26 48  1  0
 26 49  1  0
 27 50  1  0
 27 51  1  0
M  END
>  <smiles>  (36) 
CN1CCN(Cc2ccc3c(N)nc(/C=C/c4cccnc4)nc3c2)CC1

>  <score_type>  (36) 
oracle

>  <origin>  (36) 
autodockgpu

>  <m_score__min__energy>  (36) 
-8.3100000000000005

>  <m_primary>  (36) 
energy

>  <rmsd>  (36) 
6.7501275222685795

>  <m_score__min__rmsd>  (36) 
6.7501275222685795

>  <meeko>  (36) 
{"free_energy": -8.0, "intermolecular_energy": -9.79, "internal_energy": -0.62, "cluster_size": 35, "cluster_id": 1, "rank_in_cluster": 11}

>  <energy>  (36) 
-7.6

>  <cluster_rmsd>  (36) 
0.0

>  <cluster>  (36) 
2

$$$$

     RDKit          3D

 51 54  0  0  0  0  0  0  0  0999 V2000
  138.5320   80.8680  224.0890 C   0  0  0  0  0  0  0  0  0  0  0  0
  139.8830   80.6080  223.7020 N   0  0  0  0  0  0  0  0  0  0  0  0
  140.2980   79.2440  223.8480 C   0  0  0  0  0  0  0  0  0  0  0  0
  141.7740   79.1950  223.4280 C   0  0  0  0  0  0  0  0  0  0  0  0
  141.7520   79.3260  222.0170 N   0  0  0  0  0  0  0  0  0  0  0  0
  141.7770   78.1560  221.2320 C   0  0  0  0  0  0  0  0  0  0  0  0
  140.6500   77.2230  221.3940 C   0  0  0  0  0  0  0  0  0  0  0  0
  139.3260   77.5570  221.1990 C   0  0  0  0  0  0  0  0  0  0  0  0
  138.3220   76.5990  221.3820 C   0  0  0  0  0  0  0  0  0  0  0  0
  138.6530   75.3100  221.7610 C   0  0  0  0  0  0  0  0  0  0  0  0
  137.7150   74.3180  221.9580 C   0  0  0  0  0  0  0  0  0  0  0  0
  136.3410   74.6270  221.7660 N   0  0  0  0  0  0  0  0  0  0  0  0
  138.1070   73.0850  222.3260 N   0  0  0  0  0  0  0  0  0  0  0  0
  139.3910   72.7720  222.5120 C   0  0  0  0  0  0  0  0  0  0  0  0
  139.7940   71.4370  222.9090 C   0  0  0  0  0  0  0  0  0  0  0  0
  140.7410   71.2650  223.7930 C   0  0  0  0  0  0  0  0  0  0  0  0
  140.5220   71.0400  225.2150 C   0  0  0  0  0  0  0  0  0  0  0  0
  141.0950   71.8800  226.1770 C   0  0  0  0  0  0  0  0  0  0  0  0
  140.8970   71.6800  227.5280 C   0  0  0  0  0  0  0  0  0  0  0  0
  140.1140   70.6250  227.9370 C   0  0  0  0  0  0  0  0  0  0  0  0
  139.5560   69.8100  227.0360 N   0  0  0  0  0  0  0  0  0  0  0  0
  139.7550   70.0110  225.7120 C   0  0  0  0  0  0  0  0  0  0  0  0
  140.3190   73.7430  222.3190 N   0  0  0  0  0  0  0  0  0  0  0  0
  139.9760   74.9860  221.9530 C   0  0  0  0  0  0  0  0  0  0  0  0
  140.9700   75.9170  221.7760 C   0  0  0  0  0  0  0  0  0  0  0  0
  141.0140   80.4210  221.5120 C   0  0  0  0  0  0  0  0  0  0  0  0
  140.3450   81.2720  222.5370 C   0  0  0  0  0  0  0  0  0  0  0  0
  138.4612   80.8816  225.1866 H   0  0  0  0  0  0  0  0  0  0  0  0
  138.2172   81.8432  223.6891 H   0  0  0  0  0  0  0  0  0  0  0  0
  137.8778   80.0793  223.6891 H   0  0  0  0  0  0  0  0  0  0  0  0
  140.1890   78.9227  224.8944 H   0  0  0  0  0  0  0  0  0  0  0  0
  139.6843   78.5713  223.2309 H   0  0  0  0  0  0  0  0  0  0  0  0
  142.3351   80.0231  223.8856 H   0  0  0  0  0  0  0  0  0  0  0  0
  142.2679   78.2670  223.7518 H   0  0  0  0  0  0  0  0  0  0  0  0
  141.8046   78.4642  220.1764 H   0  0  0  0  0  0  0  0  0  0  0  0
  142.6623   77.5995  221.5735 H   0  0  0  0  0  0  0  0  0  0  0  0
  139.0580   78.5806  220.8984 H   0  0  0  0  0  0  0  0  0  0  0  0
  137.2680   76.8713  221.2242 H   0  0  0  0  0  0  0  0  0  0  0  0
  135.9960   74.9720  220.8320 H   0  0  0  0  0  0  0  0  0  0  0  0
  135.6960   74.4960  222.5800 H   0  0  0  0  0  0  0  0  0  0  0  0
  139.2988   70.5621  222.4626 H   0  0  0  0  0  0  0  0  0  0  0  0
  141.7812   71.2922  223.4363 H   0  0  0  0  0  0  0  0  0  0  0  0
  141.7203   72.7227  225.8470 H   0  0  0  0  0  0  0  0  0  0  0  0
  141.3577   72.3531  228.2660 H   0  0  0  0  0  0  0  0  0  0  0  0
  139.9464   70.4514  229.0102 H   0  0  0  0  0  0  0  0  0  0  0  0
  139.2813   69.3192  224.9999 H   0  0  0  0  0  0  0  0  0  0  0  0
  142.0210   75.6341  221.9353 H   0  0  0  0  0  0  0  0  0  0  0  0
  141.7034   81.0590  220.9395 H   0  0  0  0  0  0  0  0  0  0  0  0
  140.2053   79.9862  220.9062 H   0  0  0  0  0  0  0  0  0  0  0  0
  141.0635   82.0425  222.8533 H   0  0  0  0  0  0  0  0  0  0  0  0
  139.4423   81.6657  222.0469 H   0  0  0  0  0  0  0  0  0  0  0  0
  1  2  1  0
  2  3  1  0
  3  4  1  0
  4  5  1  0
  5  6  1  0
  6  7  1  0
  7  8  2  0
  8  9  1  0
  9 10  2  0
 10 11  1  0
 11 12  1  0
 11 13  2  0
 13 14  1  0
 14 15  1  0
 15 16  2  0
 16 17  1  0
 17 18  2  0
 18 19  1  0
 19 20  2  0
 20 21  1  0
 21 22  2  0
 14 23  2  0
 23 24  1  0
 24 25  2  0
  5 26  1  0
 26 27  1  0
 27  2  1  0
 25  7  1  0
 24 10  1  0
 22 17  1  0
  1 28  1  0
  1 29  1  0
  1 30  1  0
  3 31  1  0
  3 32  1  0
  4 33  1  0
  4 34  1  0
  6 35  1  0
  6 36  1  0
  8 37  1  0
  9 38  1  0
 12 39  1  0
 12 40  1  0
 15 41  1  0
 16 42  1  0
 18 43  1  0
 19 44  1  0
 20 45  1  0
 22 46  1  0
 25 47  1  0
 26 48  1  0
 26 49  1  0
 27 50  1  0
 27 51  1  0
M  END
>  <smiles>  (37) 
CN1CCN(Cc2ccc3c(N)nc(/C=C/c4cccnc4)nc3c2)CC1

>  <score_type>  (37) 
oracle

>  <origin>  (37) 
autodockgpu

>  <m_score__min__energy>  (37) 
-8.3100000000000005

>  <m_primary>  (37) 
energy

>  <rmsd>  (37) 
7.190792401876104

>  <m_score__min__rmsd>  (37) 
7.190792401876104

>  <meeko>  (37) 
{"free_energy": -7.12, "intermolecular_energy": -8.91, "internal_energy": -0.85, "cluster_size": 9, "cluster_id": 3, "rank_in_cluster": 9}

>  <energy>  (37) 
-7.56

>  <cluster_rmsd>  (37) 
1.05

>  <cluster>  (37) 
2

$$$$

     RDKit          3D

 51 54  0  0  0  0  0  0  0  0999 V2000
  142.6140   69.5560  217.9270 C   0  0  0  0  0  0  0  0  0  0  0  0
  143.7950   70.3410  217.7500 N   0  0  0  0  0  0  0  0  0  0  0  0
  143.5730   71.7550  217.6940 C   0  0  0  0  0  0  0  0  0  0  0  0
  144.9470   72.3970  217.4560 C   0  0  0  0  0  0  0  0  0  0  0  0
  145.6230   72.2750  218.6950 N   0  0  0  0  0  0  0  0  0  0  0  0
  145.5810   73.3580  219.5960 C   0  0  0  0  0  0  0  0  0  0  0  0
  144.2540   73.7620  220.0860 C   0  0  0  0  0  0  0  0  0  0  0  0
  143.7180   75.0240  219.9390 C   0  0  0  0  0  0  0  0  0  0  0  0
  142.4450   75.3140  220.4440 C   0  0  0  0  0  0  0  0  0  0  0  0
  141.7170   74.3340  221.0940 C   0  0  0  0  0  0  0  0  0  0  0  0
  140.4570   74.5520  221.6150 C   0  0  0  0  0  0  0  0  0  0  0  0
  139.8740   75.8410  221.4820 N   0  0  0  0  0  0  0  0  0  0  0  0
  139.8050   73.5520  222.2350 N   0  0  0  0  0  0  0  0  0  0  0  0
  140.3320   72.3340  222.3720 C   0  0  0  0  0  0  0  0  0  0  0  0
  139.6120   71.2700  223.0450 C   0  0  0  0  0  0  0  0  0  0  0  0
  139.6710   71.1470  224.3450 C   0  0  0  0  0  0  0  0  0  0  0  0
  139.8420   69.8860  225.0540 C   0  0  0  0  0  0  0  0  0  0  0  0
  140.8290   69.7380  226.0360 C   0  0  0  0  0  0  0  0  0  0  0  0
  141.0040   68.5500  226.7160 C   0  0  0  0  0  0  0  0  0  0  0  0
  140.1860   67.4850  226.4180 C   0  0  0  0  0  0  0  0  0  0  0  0
  139.2370   67.6040  225.4830 N   0  0  0  0  0  0  0  0  0  0  0  0
  139.0700   68.7720  224.8190 C   0  0  0  0  0  0  0  0  0  0  0  0
  141.5690   72.1130  221.8620 N   0  0  0  0  0  0  0  0  0  0  0  0
  142.2580   73.0780  221.2360 C   0  0  0  0  0  0  0  0  0  0  0  0
  143.5050   72.7810  220.7440 C   0  0  0  0  0  0  0  0  0  0  0  0
  145.6490   70.9770  219.2550 C   0  0  0  0  0  0  0  0  0  0  0  0
  144.9430   69.9240  218.4710 C   0  0  0  0  0  0  0  0  0  0  0  0
  142.4180   69.4257  219.0015 H   0  0  0  0  0  0  0  0  0  0  0  0
  141.7603   70.0670  217.4579 H   0  0  0  0  0  0  0  0  0  0  0  0
  142.7547   68.5711  217.4579 H   0  0  0  0  0  0  0  0  0  0  0  0
  142.8893   72.0009  216.8681 H   0  0  0  0  0  0  0  0  0  0  0  0
  143.1139   72.1250  218.6226 H   0  0  0  0  0  0  0  0  0  0  0  0
  145.4919   71.8636  216.6632 H   0  0  0  0  0  0  0  0  0  0  0  0
  144.8650   73.4441  217.1291 H   0  0  0  0  0  0  0  0  0  0  0  0
  146.1904   73.0870  220.4707 H   0  0  0  0  0  0  0  0  0  0  0  0
  145.9524   74.2219  219.0252 H   0  0  0  0  0  0  0  0  0  0  0  0
  144.2934   75.8064  219.4225 H   0  0  0  0  0  0  0  0  0  0  0  0
  142.0231   76.3227  220.3237 H   0  0  0  0  0  0  0  0  0  0  0  0
  140.0340   76.4120  220.6120 H   0  0  0  0  0  0  0  0  0  0  0  0
  139.2870   76.1920  222.2750 H   0  0  0  0  0  0  0  0  0  0  0  0
  139.0114   70.5607  222.4566 H   0  0  0  0  0  0  0  0  0  0  0  0
  139.5852   72.0630  224.9479 H   0  0  0  0  0  0  0  0  0  0  0  0
  141.4821   70.5912  226.2717 H   0  0  0  0  0  0  0  0  0  0  0  0
  141.7855   68.4562  227.4844 H   0  0  0  0  0  0  0  0  0  0  0  0
  140.3129   66.5312  226.9510 H   0  0  0  0  0  0  0  0  0  0  0  0
  138.2801   68.8330  224.0559 H   0  0  0  0  0  0  0  0  0  0  0  0
  143.9163   71.7683  220.8677 H   0  0  0  0  0  0  0  0  0  0  0  0
  146.7013   70.6738  219.3583 H   0  0  0  0  0  0  0  0  0  0  0  0
  145.1120   71.0510  220.2121 H   0  0  0  0  0  0  0  0  0  0  0  0
  145.6597   69.5073  217.7480 H   0  0  0  0  0  0  0  0  0  0  0  0
  144.5758   69.2013  219.2146 H   0  0  0  0  0  0  0  0  0  0  0  0
  1  2  1  0
  2  3  1  0
  3  4  1  0
  4  5  1  0
  5  6  1  0
  6  7  1  0
  7  8  2  0
  8  9  1  0
  9 10  2  0
 10 11  1  0
 11 12  1  0
 11 13  2  0
 13 14  1  0
 14 15  1  0
 15 16  2  0
 16 17  1  0
 17 18  2  0
 18 19  1  0
 19 20  2  0
 20 21  1  0
 21 22  2  0
 14 23  2  0
 23 24  1  0
 24 25  2  0
  5 26  1  0
 26 27  1  0
 27  2  1  0
 25  7  1  0
 24 10  1  0
 22 17  1  0
  1 28  1  0
  1 29  1  0
  1 30  1  0
  3 31  1  0
  3 32  1  0
  4 33  1  0
  4 34  1  0
  6 35  1  0
  6 36  1  0
  8 37  1  0
  9 38  1  0
 12 39  1  0
 12 40  1  0
 15 41  1  0
 16 42  1  0
 18 43  1  0
 19 44  1  0
 20 45  1  0
 22 46  1  0
 25 47  1  0
 26 48  1  0
 26 49  1  0
 27 50  1  0
 27 51  1  0
M  END
>  <smiles>  (38) 
CN1CCN(Cc2ccc3c(N)nc(/C=C/c4cccnc4)nc3c2)CC1

>  <score_type>  (38) 
oracle

>  <origin>  (38) 
autodockgpu

>  <m_score__min__energy>  (38) 
-8.3100000000000005

>  <m_primary>  (38) 
energy

>  <rmsd>  (38) 
7.474959544167492

>  <m_score__min__rmsd>  (38) 
7.474959544167492

>  <meeko>  (38) 
{"free_energy": -7.18, "intermolecular_energy": -8.97, "internal_energy": -0.81, "cluster_size": 3, "cluster_id": 2, "rank_in_cluster": 3}

>  <energy>  (38) 
-7.18

>  <cluster_rmsd>  (38) 
1.13

>  <cluster>  (38) 
2

$$$$

     RDKit          3D

 51 54  0  0  0  0  0  0  0  0999 V2000
  139.1680   80.8680  223.8430 C   0  0  0  0  0  0  0  0  0  0  0  0
  140.3840   80.3560  223.2930 N   0  0  0  0  0  0  0  0  0  0  0  0
  140.3960   78.9400  223.0780 C   0  0  0  0  0  0  0  0  0  0  0  0
  141.7910   78.5980  222.5350 C   0  0  0  0  0  0  0  0  0  0  0  0
  141.7870   79.0780  221.2010 N   0  0  0  0  0  0  0  0  0  0  0  0
  141.4660   78.1810  220.1630 C   0  0  0  0  0  0  0  0  0  0  0  0
  141.8600   76.7760  220.3550 C   0  0  0  0  0  0  0  0  0  0  0  0
  143.0100   76.2110  219.8470 C   0  0  0  0  0  0  0  0  0  0  0  0
  143.2960   74.8610  220.0810 C   0  0  0  0  0  0  0  0  0  0  0  0
  142.4250   74.0850  220.8250 C   0  0  0  0  0  0  0  0  0  0  0  0
  142.6460   72.7500  221.0930 C   0  0  0  0  0  0  0  0  0  0  0  0
  143.8220   72.1340  220.5850 N   0  0  0  0  0  0  0  0  0  0  0  0
  141.7560   72.0550  221.8240 N   0  0  0  0  0  0  0  0  0  0  0  0
  140.6450   72.6110  222.3120 C   0  0  0  0  0  0  0  0  0  0  0  0
  139.6980   71.8450  223.0970 C   0  0  0  0  0  0  0  0  0  0  0  0
  140.1020   70.8420  223.8310 C   0  0  0  0  0  0  0  0  0  0  0  0
  140.2820   70.8880  225.2760 C   0  0  0  0  0  0  0  0  0  0  0  0
  141.0580   71.8870  225.8750 C   0  0  0  0  0  0  0  0  0  0  0  0
  141.2390   71.9440  227.2430 C   0  0  0  0  0  0  0  0  0  0  0  0
  140.6390   70.9920  228.0340 C   0  0  0  0  0  0  0  0  0  0  0  0
  139.8930   70.0290  227.4830 N   0  0  0  0  0  0  0  0  0  0  0  0
  139.7200   69.9780  226.1410 C   0  0  0  0  0  0  0  0  0  0  0  0
  140.4220   73.9240  222.0520 N   0  0  0  0  0  0  0  0  0  0  0  0
  141.2800   74.6570  221.3280 C   0  0  0  0  0  0  0  0  0  0  0  0
  140.9890   75.9800  221.1060 C   0  0  0  0  0  0  0  0  0  0  0  0
  141.3830   80.4230  221.0330 C   0  0  0  0  0  0  0  0  0  0  0  0
  140.9980   81.1390  222.2830 C   0  0  0  0  0  0  0  0  0  0  0  0
  139.2239   80.8445  224.9413 H   0  0  0  0  0  0  0  0  0  0  0  0
  139.0207   81.9045  223.5055 H   0  0  0  0  0  0  0  0  0  0  0  0
  138.3237   80.2490  223.5055 H   0  0  0  0  0  0  0  0  0  0  0  0
  140.2152   78.4096  224.0245 H   0  0  0  0  0  0  0  0  0  0  0  0
  139.6075   78.6360  222.3739 H   0  0  0  0  0  0  0  0  0  0  0  0
  142.5709   79.1009  223.1256 H   0  0  0  0  0  0  0  0  0  0  0  0
  142.0050   77.5203  222.5883 H   0  0  0  0  0  0  0  0  0  0  0  0
  140.3746   78.2051  220.0279 H   0  0  0  0  0  0  0  0  0  0  0  0
  142.0456   78.5265  219.2943 H   0  0  0  0  0  0  0  0  0  0  0  0
  143.7060   76.8237  219.2552 H   0  0  0  0  0  0  0  0  0  0  0  0
  144.2153   74.4160  219.6725 H   0  0  0  0  0  0  0  0  0  0  0  0
  144.4500   71.5760  221.2200 H   0  0  0  0  0  0  0  0  0  0  0  0
  144.0320   72.2580  219.5660 H   0  0  0  0  0  0  0  0  0  0  0  0
  138.6306   72.1098  223.0749 H   0  0  0  0  0  0  0  0  0  0  0  0
  140.3224   69.8931  223.3201 H   0  0  0  0  0  0  0  0  0  0  0  0
  141.5363   72.6468  225.2394 H   0  0  0  0  0  0  0  0  0  0  0  0
  141.8532   72.7380  227.6928 H   0  0  0  0  0  0  0  0  0  0  0  0
  140.7736   71.0231  229.1253 H   0  0  0  0  0  0  0  0  0  0  0  0
  139.1008   69.1707  225.7228 H   0  0  0  0  0  0  0  0  0  0  0  0
  140.0677   76.4156  221.5201 H   0  0  0  0  0  0  0  0  0  0  0  0
  142.2168   80.9720  220.5712 H   0  0  0  0  0  0  0  0  0  0  0  0
  140.4755   80.3902  220.4123 H   0  0  0  0  0  0  0  0  0  0  0  0
  141.9101   81.5812  222.7102 H   0  0  0  0  0  0  0  0  0  0  0  0
  140.2370   81.8723  221.9778 H   0  0  0  0  0  0  0  0  0  0  0  0
  1  2  1  0
  2  3  1  0
  3  4  1  0
  4  5  1  0
  5  6  1  0
  6  7  1  0
  7  8  2  0
  8  9  1  0
  9 10  2  0
 10 11  1  0
 11 12  1  0
 11 13  2  0
 13 14  1  0
 14 15  1  0
 15 16  2  0
 16 17  1  0
 17 18  2  0
 18 19  1  0
 19 20  2  0
 20 21  1  0
 21 22  2  0
 14 23  2  0
 23 24  1  0
 24 25  2  0
  5 26  1  0
 26 27  1  0
 27  2  1  0
 25  7  1  0
 24 10  1  0
 22 17  1  0
  1 28  1  0
  1 29  1  0
  1 30  1  0
  3 31  1  0
  3 32  1  0
  4 33  1  0
  4 34  1  0
  6 35  1  0
  6 36  1  0
  8 37  1  0
  9 38  1  0
 12 39  1  0
 12 40  1  0
 15 41  1  0
 16 42  1  0
 18 43  1  0
 19 44  1  0
 20 45  1  0
 22 46  1  0
 25 47  1  0
 26 48  1  0
 26 49  1  0
 27 50  1  0
 27 51  1  0
M  END
>  <smiles>  (39) 
CN1CCN(Cc2ccc3c(N)nc(/C=C/c4cccnc4)nc3c2)CC1

>  <score_type>  (39) 
oracle

>  <origin>  (39) 
autodockgpu

>  <m_score__min__energy>  (39) 
-8.3100000000000005

>  <m_primary>  (39) 
energy

>  <rmsd>  (39) 
7.074089068383974

>  <m_score__min__rmsd>  (39) 
7.074089068383974

>  <meeko>  (39) 
{"free_energy": -7.9, "intermolecular_energy": -9.69, "internal_energy": -0.67, "cluster_size": 35, "cluster_id": 1, "rank_in_cluster": 20}

>  <energy>  (39) 
-7.42

>  <cluster_rmsd>  (39) 
0.0

>  <cluster>  (39) 
3

$$$$

     RDKit          3D

 51 54  0  0  0  0  0  0  0  0999 V2000
  142.4920   75.6750  218.9900 C   0  0  0  0  0  0  0  0  0  0  0  0
  141.9960   75.3530  220.2910 N   0  0  0  0  0  0  0  0  0  0  0  0
  140.6250   75.7030  220.5150 C   0  0  0  0  0  0  0  0  0  0  0  0
  140.3150   75.3200  221.9690 C   0  0  0  0  0  0  0  0  0  0  0  0
  140.2380   73.9040  221.9610 N   0  0  0  0  0  0  0  0  0  0  0  0
  138.9740   73.2980  221.8220 C   0  0  0  0  0  0  0  0  0  0  0  0
  138.9170   71.8360  221.9820 C   0  0  0  0  0  0  0  0  0  0  0  0
  138.7060   70.9460  220.9500 C   0  0  0  0  0  0  0  0  0  0  0  0
  138.6650   69.5700  221.2030 C   0  0  0  0  0  0  0  0  0  0  0  0
  138.8380   69.0950  222.4910 C   0  0  0  0  0  0  0  0  0  0  0  0
  138.8090   67.7530  222.8100 C   0  0  0  0  0  0  0  0  0  0  0  0
  138.5930   66.8070  221.7720 N   0  0  0  0  0  0  0  0  0  0  0  0
  138.9850   67.3610  224.0850 N   0  0  0  0  0  0  0  0  0  0  0  0
  139.1900   68.2310  225.0760 C   0  0  0  0  0  0  0  0  0  0  0  0
  139.3760   67.7880  226.4440 C   0  0  0  0  0  0  0  0  0  0  0  0
  140.3170   68.3060  227.1870 C   0  0  0  0  0  0  0  0  0  0  0  0
  140.6170   69.7290  227.2780 C   0  0  0  0  0  0  0  0  0  0  0  0
  140.0730   70.5180  228.2990 C   0  0  0  0  0  0  0  0  0  0  0  0
  140.3470   71.8670  228.3980 C   0  0  0  0  0  0  0  0  0  0  0  0
  141.1760   72.4480  227.4670 C   0  0  0  0  0  0  0  0  0  0  0  0
  141.7060   71.7140  226.4840 N   0  0  0  0  0  0  0  0  0  0  0  0
  141.4340   70.3910  226.3910 C   0  0  0  0  0  0  0  0  0  0  0  0
  139.2190   69.5510  224.7690 N   0  0  0  0  0  0  0  0  0  0  0  0
  139.0490   69.9900  223.5140 C   0  0  0  0  0  0  0  0  0  0  0  0
  139.0910   71.3420  223.2780 C   0  0  0  0  0  0  0  0  0  0  0  0
  141.3380   73.2330  221.3780 C   0  0  0  0  0  0  0  0  0  0  0  0
  142.4130   74.1120  220.8350 C   0  0  0  0  0  0  0  0  0  0  0  0
  143.4112   76.2717  219.0854 H   0  0  0  0  0  0  0  0  0  0  0  0
  142.7124   74.7473  218.4416 H   0  0  0  0  0  0  0  0  0  0  0  0
  141.7343   76.2539  218.4416 H   0  0  0  0  0  0  0  0  0  0  0  0
  140.4783   76.7829  220.3660 H   0  0  0  0  0  0  0  0  0  0  0  0
  139.9589   75.1802  219.8129 H   0  0  0  0  0  0  0  0  0  0  0  0
  141.1178   75.6608  222.6393 H   0  0  0  0  0  0  0  0  0  0  0  0
  139.3865   75.7847  222.3323 H   0  0  0  0  0  0  0  0  0  0  0  0
  138.3077   73.7414  222.5766 H   0  0  0  0  0  0  0  0  0  0  0  0
  138.6787   73.4848  220.7790 H   0  0  0  0  0  0  0  0  0  0  0  0
  138.5694   71.3188  219.9242 H   0  0  0  0  0  0  0  0  0  0  0  0
  138.4949   68.8647  220.3762 H   0  0  0  0  0  0  0  0  0  0  0  0
  139.3340   66.6340  221.0430 H   0  0  0  0  0  0  0  0  0  0  0  0
  137.6800   66.2950  221.7650 H   0  0  0  0  0  0  0  0  0  0  0  0
  138.7193   67.0094  226.8594 H   0  0  0  0  0  0  0  0  0  0  0  0
  140.9282   67.6171  227.7885 H   0  0  0  0  0  0  0  0  0  0  0  0
  139.4099   70.0503  229.0416 H   0  0  0  0  0  0  0  0  0  0  0  0
  139.9093   72.4680  229.2087 H   0  0  0  0  0  0  0  0  0  0  0  0
  141.4039   73.5222  227.5318 H   0  0  0  0  0  0  0  0  0  0  0  0
  141.8873   69.8189  225.5681 H   0  0  0  0  0  0  0  0  0  0  0  0
  139.2622   72.0388  224.1117 H   0  0  0  0  0  0  0  0  0  0  0  0
  141.7857   72.5856  222.1464 H   0  0  0  0  0  0  0  0  0  0  0  0
  140.9333   72.6836  220.5153 H   0  0  0  0  0  0  0  0  0  0  0  0
  143.1170   74.3245  221.6531 H   0  0  0  0  0  0  0  0  0  0  0  0
  142.8493   73.5549  219.9928 H   0  0  0  0  0  0  0  0  0  0  0  0
  1  2  1  0
  2  3  1  0
  3  4  1  0
  4  5  1  0
  5  6  1  0
  6  7  1  0
  7  8  2  0
  8  9  1  0
  9 10  2  0
 10 11  1  0
 11 12  1  0
 11 13  2  0
 13 14  1  0
 14 15  1  0
 15 16  2  0
 16 17  1  0
 17 18  2  0
 18 19  1  0
 19 20  2  0
 20 21  1  0
 21 22  2  0
 14 23  2  0
 23 24  1  0
 24 25  2  0
  5 26  1  0
 26 27  1  0
 27  2  1  0
 25  7  1  0
 24 10  1  0
 22 17  1  0
  1 28  1  0
  1 29  1  0
  1 30  1  0
  3 31  1  0
  3 32  1  0
  4 33  1  0
  4 34  1  0
  6 35  1  0
  6 36  1  0
  8 37  1  0
  9 38  1  0
 12 39  1  0
 12 40  1  0
 15 41  1  0
 16 42  1  0
 18 43  1  0
 19 44  1  0
 20 45  1  0
 22 46  1  0
 25 47  1  0
 26 48  1  0
 26 49  1  0
 27 50  1  0
 27 51  1  0
M  END
>  <smiles>  (40) 
CN1CCN(Cc2ccc3c(N)nc(/C=C/c4cccnc4)nc3c2)CC1

>  <score_type>  (40) 
oracle

>  <origin>  (40) 
autodockgpu

>  <m_score__min__energy>  (40) 
-8.3100000000000005

>  <m_primary>  (40) 
energy

>  <rmsd>  (40) 
3.5214731719759005

>  <m_score__min__rmsd>  (40) 
3.5214731719759005

>  <meeko>  (40) 
{"free_energy": -7.35, "intermolecular_energy": -9.14, "internal_energy": -0.92, "cluster_size": 2, "cluster_id": 4, "rank_in_cluster": 1}

>  <energy>  (40) 
-7.24

>  <cluster_rmsd>  (40) 
1.03

>  <cluster>  (40) 
3

$$$$

     RDKit          3D

 51 54  0  0  0  0  0  0  0  0999 V2000
  139.0150   80.8680  223.7640 C   0  0  0  0  0  0  0  0  0  0  0  0
  140.2320   80.2390  223.3580 N   0  0  0  0  0  0  0  0  0  0  0  0
  140.1250   78.8340  223.0980 C   0  0  0  0  0  0  0  0  0  0  0  0
  141.5360   78.3560  222.7290 C   0  0  0  0  0  0  0  0  0  0  0  0
  141.7590   78.8600  221.4230 N   0  0  0  0  0  0  0  0  0  0  0  0
  141.4870   78.0240  220.3220 C   0  0  0  0  0  0  0  0  0  0  0  0
  141.8440   76.6030  220.4630 C   0  0  0  0  0  0  0  0  0  0  0  0
  142.9660   76.0220  219.9120 C   0  0  0  0  0  0  0  0  0  0  0  0
  143.2180   74.6570  220.1000 C   0  0  0  0  0  0  0  0  0  0  0  0
  142.3420   73.8850  220.8410 C   0  0  0  0  0  0  0  0  0  0  0  0
  142.5310   72.5370  221.0650 C   0  0  0  0  0  0  0  0  0  0  0  0
  143.6760   71.9040  220.5110 N   0  0  0  0  0  0  0  0  0  0  0  0
  141.6380   71.8450  221.7960 N   0  0  0  0  0  0  0  0  0  0  0  0
  140.5560   72.4180  222.3270 C   0  0  0  0  0  0  0  0  0  0  0  0
  139.6050   71.6550  223.1110 C   0  0  0  0  0  0  0  0  0  0  0  0
  140.0100   70.6780  223.8790 C   0  0  0  0  0  0  0  0  0  0  0  0
  140.2670   70.7950  225.3080 C   0  0  0  0  0  0  0  0  0  0  0  0
  140.9950   71.8740  225.8250 C   0  0  0  0  0  0  0  0  0  0  0  0
  141.2470   71.9980  227.1770 C   0  0  0  0  0  0  0  0  0  0  0  0
  140.7700   71.0350  228.0350 C   0  0  0  0  0  0  0  0  0  0  0  0
  140.0730   69.9960  227.5630 N   0  0  0  0  0  0  0  0  0  0  0  0
  139.8280   69.8790  226.2370 C   0  0  0  0  0  0  0  0  0  0  0  0
  140.3650   73.7430  222.1100 N   0  0  0  0  0  0  0  0  0  0  0  0
  141.2260   74.4740  221.3880 C   0  0  0  0  0  0  0  0  0  0  0  0
  140.9680   75.8100  221.2120 C   0  0  0  0  0  0  0  0  0  0  0  0
  141.5230   80.2440  221.2500 C   0  0  0  0  0  0  0  0  0  0  0  0
  141.0530   80.9720  222.4640 C   0  0  0  0  0  0  0  0  0  0  0  0
  138.9645   80.8941  224.8625 H   0  0  0  0  0  0  0  0  0  0  0  0
  138.9842   81.8949  223.3710 H   0  0  0  0  0  0  0  0  0  0  0  0
  138.1594   80.2992  223.3710 H   0  0  0  0  0  0  0  0  0  0  0  0
  139.7665   78.3069  223.9945 H   0  0  0  0  0  0  0  0  0  0  0  0
  139.4091   78.6305  222.2880 H   0  0  0  0  0  0  0  0  0  0  0  0
  142.2785   78.7606  223.4325 H   0  0  0  0  0  0  0  0  0  0  0  0
  141.6281   77.2607  222.7728 H   0  0  0  0  0  0  0  0  0  0  0  0
  140.4065   78.0774  220.1227 H   0  0  0  0  0  0  0  0  0  0  0  0
  142.1251   78.4017  219.5095 H   0  0  0  0  0  0  0  0  0  0  0  0
  143.6660   76.6325  219.3226 H   0  0  0  0  0  0  0  0  0  0  0  0
  144.1144   74.1982  219.6574 H   0  0  0  0  0  0  0  0  0  0  0  0
  143.7920   71.8270  219.4670 H   0  0  0  0  0  0  0  0  0  0  0  0
  144.3900   71.5230  221.1760 H   0  0  0  0  0  0  0  0  0  0  0  0
  138.5339   71.9002  223.0592 H   0  0  0  0  0  0  0  0  0  0  0  0
  140.1685   69.6949  223.4117 H   0  0  0  0  0  0  0  0  0  0  0  0
  141.3759   72.6425  225.1363 H   0  0  0  0  0  0  0  0  0  0  0  0
  141.8206   72.8541  227.5618 H   0  0  0  0  0  0  0  0  0  0  0  0
  140.9627   71.1198  229.1147 H   0  0  0  0  0  0  0  0  0  0  0  0
  139.2510   69.0111  225.8852 H   0  0  0  0  0  0  0  0  0  0  0  0
  140.0698   76.2589  221.6611 H   0  0  0  0  0  0  0  0  0  0  0  0
  142.4631   80.7093  220.9186 H   0  0  0  0  0  0  0  0  0  0  0  0
  140.7070   80.3218  220.5165 H   0  0  0  0  0  0  0  0  0  0  0  0
  141.9418   81.3038  223.0208 H   0  0  0  0  0  0  0  0  0  0  0  0
  140.4204   81.7899  222.0887 H   0  0  0  0  0  0  0  0  0  0  0  0
  1  2  1  0
  2  3  1  0
  3  4  1  0
  4  5  1  0
  5  6  1  0
  6  7  1  0
  7  8  2  0
  8  9  1  0
  9 10  2  0
 10 11  1  0
 11 12  1  0
 11 13  2  0
 13 14  1  0
 14 15  1  0
 15 16  2  0
 16 17  1  0
 17 18  2  0
 18 19  1  0
 19 20  2  0
 20 21  1  0
 21 22  2  0
 14 23  2  0
 23 24  1  0
 24 25  2  0
  5 26  1  0
 26 27  1  0
 27  2  1  0
 25  7  1  0
 24 10  1  0
 22 17  1  0
  1 28  1  0
  1 29  1  0
  1 30  1  0
  3 31  1  0
  3 32  1  0
  4 33  1  0
  4 34  1  0
  6 35  1  0
  6 36  1  0
  8 37  1  0
  9 38  1  0
 12 39  1  0
 12 40  1  0
 15 41  1  0
 16 42  1  0
 18 43  1  0
 19 44  1  0
 20 45  1  0
 22 46  1  0
 25 47  1  0
 26 48  1  0
 26 49  1  0
 27 50  1  0
 27 51  1  0
M  END
>  <smiles>  (41) 
CN1CCN(Cc2ccc3c(N)nc(/C=C/c4cccnc4)nc3c2)CC1

>  <score_type>  (41) 
oracle

>  <origin>  (41) 
autodockgpu

>  <m_score__min__energy>  (41) 
-8.3100000000000005

>  <m_primary>  (41) 
energy

>  <rmsd>  (41) 
6.927081810663435

>  <m_score__min__rmsd>  (41) 
6.927081810663435

>  <meeko>  (41) 
{"free_energy": -7.96, "intermolecular_energy": -9.75, "internal_energy": -0.64, "cluster_size": 35, "cluster_id": 1, "rank_in_cluster": 18}

>  <energy>  (41) 
-7.23

>  <cluster_rmsd>  (41) 
1.04

>  <cluster>  (41) 
3

$$$$

     RDKit          3D

 51 54  0  0  0  0  0  0  0  0999 V2000
  142.6790   81.2670  223.9810 C   0  0  0  0  0  0  0  0  0  0  0  0
  141.6170   80.4820  223.4330 N   0  0  0  0  0  0  0  0  0  0  0  0
  141.4370   80.6190  222.0190 C   0  0  0  0  0  0  0  0  0  0  0  0
  140.2320   79.7410  221.6510 C   0  0  0  0  0  0  0  0  0  0  0  0
  140.7140   78.4110  221.7390 N   0  0  0  0  0  0  0  0  0  0  0  0
  141.1790   77.7830  220.5650 C   0  0  0  0  0  0  0  0  0  0  0  0
  141.5810   76.3720  220.6820 C   0  0  0  0  0  0  0  0  0  0  0  0
  142.7050   75.8300  220.0960 C   0  0  0  0  0  0  0  0  0  0  0  0
  143.0020   74.4720  220.2630 C   0  0  0  0  0  0  0  0  0  0  0  0
  142.1680   73.6670  221.0160 C   0  0  0  0  0  0  0  0  0  0  0  0
  142.4020   72.3220  221.2200 C   0  0  0  0  0  0  0  0  0  0  0  0
  143.5510   71.7290  220.6310 N   0  0  0  0  0  0  0  0  0  0  0  0
  141.5490   71.5970  221.9660 N   0  0  0  0  0  0  0  0  0  0  0  0
  140.4640   72.1310  222.5300 C   0  0  0  0  0  0  0  0  0  0  0  0
  139.5560   71.3330  223.3290 C   0  0  0  0  0  0  0  0  0  0  0  0
  139.7760   71.1550  224.6050 C   0  0  0  0  0  0  0  0  0  0  0  0
  139.8820   69.8570  225.2580 C   0  0  0  0  0  0  0  0  0  0  0  0
  140.8330   69.6280  226.2600 C   0  0  0  0  0  0  0  0  0  0  0  0
  140.9460   68.4040  226.8870 C   0  0  0  0  0  0  0  0  0  0  0  0
  140.1020   67.3840  226.5150 C   0  0  0  0  0  0  0  0  0  0  0  0
  139.1870   67.5800  225.5600 N   0  0  0  0  0  0  0  0  0  0  0  0
  139.0800   68.7830  224.9480 C   0  0  0  0  0  0  0  0  0  0  0  0
  140.2280   73.4530  222.3330 N   0  0  0  0  0  0  0  0  0  0  0  0
  141.0490   74.2160  221.5980 C   0  0  0  0  0  0  0  0  0  0  0  0
  140.7480   75.5460  221.4430 C   0  0  0  0  0  0  0  0  0  0  0  0
  141.3650   78.0720  222.9470 C   0  0  0  0  0  0  0  0  0  0  0  0
  141.4710   79.1700  223.9500 C   0  0  0  0  0  0  0  0  0  0  0  0
  142.6317   81.2320  225.0794 H   0  0  0  0  0  0  0  0  0  0  0  0
  143.6450   80.8642  223.6426 H   0  0  0  0  0  0  0  0  0  0  0  0
  142.5773   82.3087  223.6426 H   0  0  0  0  0  0  0  0  0  0  0  0
  141.2362   81.6692  221.7606 H   0  0  0  0  0  0  0  0  0  0  0  0
  142.3388   80.3111  221.4694 H   0  0  0  0  0  0  0  0  0  0  0  0
  139.4051   79.9013  222.3585 H   0  0  0  0  0  0  0  0  0  0  0  0
  139.8373   79.9747  220.6512 H   0  0  0  0  0  0  0  0  0  0  0  0
  140.3747   77.8389  219.8167 H   0  0  0  0  0  0  0  0  0  0  0  0
  142.0985   78.3228  220.2946 H   0  0  0  0  0  0  0  0  0  0  0  0
  143.3709   76.4667  219.4950 H   0  0  0  0  0  0  0  0  0  0  0  0
  143.9007   74.0449  219.7941 H   0  0  0  0  0  0  0  0  0  0  0  0
  143.5770   71.5230  219.5980 H   0  0  0  0  0  0  0  0  0  0  0  0
  144.3610   71.5110  221.2590 H   0  0  0  0  0  0  0  0  0  0  0  0
  138.6746   70.8734  222.8579 H   0  0  0  0  0  0  0  0  0  0  0  0
  139.8895   72.0515  225.2322 H   0  0  0  0  0  0  0  0  0  0  0  0
  141.5076   70.4452  226.5550 H   0  0  0  0  0  0  0  0  0  0  0  0
  141.6998   68.2465  227.6725 H   0  0  0  0  0  0  0  0  0  0  0  0
  140.1800   66.4024  227.0053 H   0  0  0  0  0  0  0  0  0  0  0  0
  138.3161   68.9075  224.1664 H   0  0  0  0  0  0  0  0  0  0  0  0
  139.8485   75.9636  221.9190 H   0  0  0  0  0  0  0  0  0  0  0  0
  140.8098   77.2428  223.4099 H   0  0  0  0  0  0  0  0  0  0  0  0
  142.3983   77.8149  222.6709 H   0  0  0  0  0  0  0  0  0  0  0  0
  140.5588   79.1516  224.5644 H   0  0  0  0  0  0  0  0  0  0  0  0
  142.3983   78.9697  224.5068 H   0  0  0  0  0  0  0  0  0  0  0  0
  1  2  1  0
  2  3  1  0
  3  4  1  0
  4  5  1  0
  5  6  1  0
  6  7  1  0
  7  8  2  0
  8  9  1  0
  9 10  2  0
 10 11  1  0
 11 12  1  0
 11 13  2  0
 13 14  1  0
 14 15  1  0
 15 16  2  0
 16 17  1  0
 17 18  2  0
 18 19  1  0
 19 20  2  0
 20 21  1  0
 21 22  2  0
 14 23  2  0
 23 24  1  0
 24 25  2  0
  5 26  1  0
 26 27  1  0
 27  2  1  0
 25  7  1  0
 24 10  1  0
 22 17  1  0
  1 28  1  0
  1 29  1  0
  1 30  1  0
  3 31  1  0
  3 32  1  0
  4 33  1  0
  4 34  1  0
  6 35  1  0
  6 36  1  0
  8 37  1  0
  9 38  1  0
 12 39  1  0
 12 40  1  0
 15 41  1  0
 16 42  1  0
 18 43  1  0
 19 44  1  0
 20 45  1  0
 22 46  1  0
 25 47  1  0
 26 48  1  0
 26 49  1  0
 27 50  1  0
 27 51  1  0
M  END
>  <smiles>  (42) 
CN1CCN(Cc2ccc3c(N)nc(/C=C/c4cccnc4)nc3c2)CC1

>  <score_type>  (42) 
oracle

>  <origin>  (42) 
autodockgpu

>  <m_score__min__energy>  (42) 
-8.3100000000000005

>  <m_primary>  (42) 
energy

>  <rmsd>  (42) 
6.993206640327764

>  <m_score__min__rmsd>  (42) 
6.993206640327764

>  <meeko>  (42) 
{"free_energy": -8.31, "intermolecular_energy": -10.1, "internal_energy": -0.52, "cluster_size": 35, "cluster_id": 1, "rank_in_cluster": 1}

>  <energy>  (42) 
-7.23

>  <cluster_rmsd>  (42) 
1.05

>  <cluster>  (42) 
3

$$$$

     RDKit          3D

 51 54  0  0  0  0  0  0  0  0999 V2000
  141.8290   78.7160  224.3030 C   0  0  0  0  0  0  0  0  0  0  0  0
  141.3320   79.2520  223.0750 N   0  0  0  0  0  0  0  0  0  0  0  0
  142.1460   78.9810  221.9270 C   0  0  0  0  0  0  0  0  0  0  0  0
  141.4640   79.6780  220.7410 C   0  0  0  0  0  0  0  0  0  0  0  0
  140.3240   78.8840  220.4630 N   0  0  0  0  0  0  0  0  0  0  0  0
  140.4210   77.8920  219.4670 C   0  0  0  0  0  0  0  0  0  0  0  0
  141.0600   76.6240  219.8540 C   0  0  0  0  0  0  0  0  0  0  0  0
  142.2940   76.2040  219.4060 C   0  0  0  0  0  0  0  0  0  0  0  0
  142.8180   74.9760  219.8290 C   0  0  0  0  0  0  0  0  0  0  0  0
  142.0990   74.1780  220.7000 C   0  0  0  0  0  0  0  0  0  0  0  0
  142.5570   72.9580  221.1560 C   0  0  0  0  0  0  0  0  0  0  0  0
  143.8250   72.4930  220.7150 N   0  0  0  0  0  0  0  0  0  0  0  0
  141.8050   72.2330  222.0040 N   0  0  0  0  0  0  0  0  0  0  0  0
  140.6110   72.6490  222.4320 C   0  0  0  0  0  0  0  0  0  0  0  0
  139.8160   71.8520  223.3450 C   0  0  0  0  0  0  0  0  0  0  0  0
  140.3710   70.9100  224.0620 C   0  0  0  0  0  0  0  0  0  0  0  0
  140.4180   70.8930  225.5180 C   0  0  0  0  0  0  0  0  0  0  0  0
  141.0810   71.8990  226.2310 C   0  0  0  0  0  0  0  0  0  0  0  0
  141.1340   71.8960  227.6100 C   0  0  0  0  0  0  0  0  0  0  0  0
  140.5200   70.8760  228.2990 C   0  0  0  0  0  0  0  0  0  0  0  0
  139.8820   69.9040  227.6370 N   0  0  0  0  0  0  0  0  0  0  0  0
  139.8330   69.9120  226.2850 C   0  0  0  0  0  0  0  0  0  0  0  0
  140.1560   73.8470  221.9870 N   0  0  0  0  0  0  0  0  0  0  0  0
  140.8690   74.6050  221.1420 C   0  0  0  0  0  0  0  0  0  0  0  0
  140.3450   75.8070  220.7350 C   0  0  0  0  0  0  0  0  0  0  0  0
  139.4850   78.6050  221.5660 C   0  0  0  0  0  0  0  0  0  0  0  0
  139.9310   79.1690  222.8720 C   0  0  0  0  0  0  0  0  0  0  0  0
  141.3506   79.2320  225.1485 H   0  0  0  0  0  0  0  0  0  0  0  0
  141.6009   77.6411  224.3528 H   0  0  0  0  0  0  0  0  0  0  0  0
  142.9181   78.8624  224.3528 H   0  0  0  0  0  0  0  0  0  0  0  0
  143.1588   79.3840  222.0745 H   0  0  0  0  0  0  0  0  0  0  0  0
  142.2439   77.8993  221.7526 H   0  0  0  0  0  0  0  0  0  0  0  0
  141.1667   80.7019  221.0117 H   0  0  0  0  0  0  0  0  0  0  0  0
  142.1313   79.7664  219.8710 H   0  0  0  0  0  0  0  0  0  0  0  0
  139.4007   77.6605  219.1273 H   0  0  0  0  0  0  0  0  0  0  0  0
  141.0771   78.3215  218.6956 H   0  0  0  0  0  0  0  0  0  0  0  0
  142.8695   76.8358  218.7135 H   0  0  0  0  0  0  0  0  0  0  0  0
  143.8031   74.6457  219.4678 H   0  0  0  0  0  0  0  0  0  0  0  0
  144.1990   72.7750  219.7720 H   0  0  0  0  0  0  0  0  0  0  0  0
  144.3640   71.8690  221.3600 H   0  0  0  0  0  0  0  0  0  0  0  0
  138.7362   72.0413  223.4355 H   0  0  0  0  0  0  0  0  0  0  0  0
  140.8363   70.0691  223.5269 H   0  0  0  0  0  0  0  0  0  0  0  0
  141.5724   72.7129  225.6777 H   0  0  0  0  0  0  0  0  0  0  0  0
  141.6594   72.6974  228.1502 H   0  0  0  0  0  0  0  0  0  0  0  0
  140.5537   70.8594  229.3984 H   0  0  0  0  0  0  0  0  0  0  0  0
  139.3004   69.0958  225.7750 H   0  0  0  0  0  0  0  0  0  0  0  0
  139.3595   76.1283  221.1032 H   0  0  0  0  0  0  0  0  0  0  0  0
  138.4875   79.0121  221.3442 H   0  0  0  0  0  0  0  0  0  0  0  0
  139.5014   77.5119  221.6883 H   0  0  0  0  0  0  0  0  0  0  0  0
  139.5194   80.1856  222.9561 H   0  0  0  0  0  0  0  0  0  0  0  0
  139.5652   78.4663  223.6351 H   0  0  0  0  0  0  0  0  0  0  0  0
  1  2  1  0
  2  3  1  0
  3  4  1  0
  4  5  1  0
  5  6  1  0
  6  7  1  0
  7  8  2  0
  8  9  1  0
  9 10  2  0
 10 11  1  0
 11 12  1  0
 11 13  2  0
 13 14  1  0
 14 15  1  0
 15 16  2  0
 16 17  1  0
 17 18  2  0
 18 19  1  0
 19 20  2  0
 20 21  1  0
 21 22  2  0
 14 23  2  0
 23 24  1  0
 24 25  2  0
  5 26  1  0
 26 27  1  0
 27  2  1  0
 25  7  1  0
 24 10  1  0
 22 17  1  0
  1 28  1  0
  1 29  1  0
  1 30  1  0
  3 31  1  0
  3 32  1  0
  4 33  1  0
  4 34  1  0
  6 35  1  0
  6 36  1  0
  8 37  1  0
  9 38  1  0
 12 39  1  0
 12 40  1  0
 15 41  1  0
 16 42  1  0
 18 43  1  0
 19 44  1  0
 20 45  1  0
 22 46  1  0
 25 47  1  0
 26 48  1  0
 26 49  1  0
 27 50  1  0
 27 51  1  0
M  END
>  <smiles>  (43) 
CN1CCN(Cc2ccc3c(N)nc(/C=C/c4cccnc4)nc3c2)CC1

>  <score_type>  (43) 
oracle

>  <origin>  (43) 
autodockgpu

>  <m_score__min__energy>  (43) 
-8.3100000000000005

>  <m_primary>  (43) 
energy

>  <rmsd>  (43) 
6.912311493444909

>  <m_score__min__rmsd>  (43) 
6.912311493444909

>  <meeko>  (43) 
{"free_energy": -6.9, "intermolecular_energy": -8.69, "internal_energy": -0.79, "cluster_size": 35, "cluster_id": 1, "rank_in_cluster": 35}

>  <energy>  (43) 
-7.22

>  <cluster_rmsd>  (43) 
1.02

>  <cluster>  (43) 
3

$$$$

     RDKit          3D

 51 54  0  0  0  0  0  0  0  0999 V2000
  138.9290   80.8520  223.7520 C   0  0  0  0  0  0  0  0  0  0  0  0
  140.1520   80.2270  223.3560 N   0  0  0  0  0  0  0  0  0  0  0  0
  140.0500   78.8220  223.0930 C   0  0  0  0  0  0  0  0  0  0  0  0
  141.4660   78.3480  222.7350 C   0  0  0  0  0  0  0  0  0  0  0  0
  141.6990   78.8550  221.4330 N   0  0  0  0  0  0  0  0  0  0  0  0
  141.4390   78.0200  220.3280 C   0  0  0  0  0  0  0  0  0  0  0  0
  141.8030   76.6010  220.4680 C   0  0  0  0  0  0  0  0  0  0  0  0
  142.9280   76.0260  219.9160 C   0  0  0  0  0  0  0  0  0  0  0  0
  143.1880   74.6630  220.1020 C   0  0  0  0  0  0  0  0  0  0  0  0
  142.3160   73.8850  220.8430 C   0  0  0  0  0  0  0  0  0  0  0  0
  142.5110   72.5370  221.0650 C   0  0  0  0  0  0  0  0  0  0  0  0
  143.6600   71.9110  220.5110 N   0  0  0  0  0  0  0  0  0  0  0  0
  141.6220   71.8410  221.7960 N   0  0  0  0  0  0  0  0  0  0  0  0
  140.5370   72.4070  222.3270 C   0  0  0  0  0  0  0  0  0  0  0  0
  139.5900   71.6380  223.1110 C   0  0  0  0  0  0  0  0  0  0  0  0
  140.0030   70.6810  223.8990 C   0  0  0  0  0  0  0  0  0  0  0  0
  140.2460   70.8260  225.3280 C   0  0  0  0  0  0  0  0  0  0  0  0
  141.0520   71.8590  225.8220 C   0  0  0  0  0  0  0  0  0  0  0  0
  141.2920   72.0100  227.1730 C   0  0  0  0  0  0  0  0  0  0  0  0
  140.7220   71.1200  228.0540 C   0  0  0  0  0  0  0  0  0  0  0  0
  139.9500   70.1260  227.6040 N   0  0  0  0  0  0  0  0  0  0  0  0
  139.7180   69.9830  226.2780 C   0  0  0  0  0  0  0  0  0  0  0  0
  140.3390   73.7310  222.1120 N   0  0  0  0  0  0  0  0  0  0  0  0
  141.1960   74.4670  221.3900 C   0  0  0  0  0  0  0  0  0  0  0  0
  140.9310   75.8020  221.2150 C   0  0  0  0  0  0  0  0  0  0  0  0
  141.4610   80.2380  221.2600 C   0  0  0  0  0  0  0  0  0  0  0  0
  140.9790   80.9630  222.4700 C   0  0  0  0  0  0  0  0  0  0  0  0
  138.8711   80.8816  224.8501 H   0  0  0  0  0  0  0  0  0  0  0  0
  138.8961   81.8775  223.3553 H   0  0  0  0  0  0  0  0  0  0  0  0
  138.0786   80.2779  223.3553 H   0  0  0  0  0  0  0  0  0  0  0  0
  139.6852   78.2927  223.9856 H   0  0  0  0  0  0  0  0  0  0  0  0
  139.3412   78.6179  222.2769 H   0  0  0  0  0  0  0  0  0  0  0  0
  142.2014   78.7528  223.4458 H   0  0  0  0  0  0  0  0  0  0  0  0
  141.5603   77.2529  222.7771 H   0  0  0  0  0  0  0  0  0  0  0  0
  140.3596   78.0678  220.1216 H   0  0  0  0  0  0  0  0  0  0  0  0
  142.0804   78.4032  219.5207 H   0  0  0  0  0  0  0  0  0  0  0  0
  143.6243   76.6409  219.3269 H   0  0  0  0  0  0  0  0  0  0  0  0
  144.0868   74.2099  219.6584 H   0  0  0  0  0  0  0  0  0  0  0  0
  144.4120   71.5220  221.1380 H   0  0  0  0  0  0  0  0  0  0  0  0
  143.7250   71.8520  219.4670 H   0  0  0  0  0  0  0  0  0  0  0  0
  138.5153   71.8621  223.0418 H   0  0  0  0  0  0  0  0  0  0  0  0
  140.1804   69.6926  223.4500 H   0  0  0  0  0  0  0  0  0  0  0  0
  141.5059   72.5689  225.1149 H   0  0  0  0  0  0  0  0  0  0  0  0
  141.9288   72.8287  227.5394 H   0  0  0  0  0  0  0  0  0  0  0  0
  140.9025   71.2270  229.1338 H   0  0  0  0  0  0  0  0  0  0  0  0
  139.0770   69.1536  225.9445 H   0  0  0  0  0  0  0  0  0  0  0  0
  140.0298   76.2453  221.6636 H   0  0  0  0  0  0  0  0  0  0  0  0
  142.4027   80.7061  220.9373 H   0  0  0  0  0  0  0  0  0  0  0  0
  140.6510   80.3145  220.5197 H   0  0  0  0  0  0  0  0  0  0  0  0
  141.8621   81.2962  223.0349 H   0  0  0  0  0  0  0  0  0  0  0  0
  140.3477   81.7798  222.0902 H   0  0  0  0  0  0  0  0  0  0  0  0
  1  2  1  0
  2  3  1  0
  3  4  1  0
  4  5  1  0
  5  6  1  0
  6  7  1  0
  7  8  2  0
  8  9  1  0
  9 10  2  0
 10 11  1  0
 11 12  1  0
 11 13  2  0
 13 14  1  0
 14 15  1  0
 15 16  2  0
 16 17  1  0
 17 18  2  0
 18 19  1  0
 19 20  2  0
 20 21  1  0
 21 22  2  0
 14 23  2  0
 23 24  1  0
 24 25  2  0
  5 26  1  0
 26 27  1  0
 27  2  1  0
 25  7  1  0
 24 10  1  0
 22 17  1  0
  1 28  1  0
  1 29  1  0
  1 30  1  0
  3 31  1  0
  3 32  1  0
  4 33  1  0
  4 34  1  0
  6 35  1  0
  6 36  1  0
  8 37  1  0
  9 38  1  0
 12 39  1  0
 12 40  1  0
 15 41  1  0
 16 42  1  0
 18 43  1  0
 19 44  1  0
 20 45  1  0
 22 46  1  0
 25 47  1  0
 26 48  1  0
 26 49  1  0
 27 50  1  0
 27 51  1  0
M  END
>  <smiles>  (44) 
CN1CCN(Cc2ccc3c(N)nc(/C=C/c4cccnc4)nc3c2)CC1

>  <score_type>  (44) 
oracle

>  <origin>  (44) 
autodockgpu

>  <m_score__min__energy>  (44) 
-8.3100000000000005

>  <m_primary>  (44) 
energy

>  <rmsd>  (44) 
6.9107571659859985

>  <m_score__min__rmsd>  (44) 
6.9107571659859985

>  <meeko>  (44) 
{"free_energy": -7.99, "intermolecular_energy": -9.78, "internal_energy": -0.63, "cluster_size": 35, "cluster_id": 1, "rank_in_cluster": 13}

>  <energy>  (44) 
-7.22

>  <cluster_rmsd>  (44) 
1.04

>  <cluster>  (44) 
3

$$$$

     RDKit          3D

 51 54  0  0  0  0  0  0  0  0999 V2000
  140.6560   68.3460  226.7330 C   0  0  0  0  0  0  0  0  0  0  0  0
  140.1700   69.5240  226.0840 N   0  0  0  0  0  0  0  0  0  0  0  0
  141.1750   70.3100  225.4340 C   0  0  0  0  0  0  0  0  0  0  0  0
  140.4560   71.5350  224.8520 C   0  0  0  0  0  0  0  0  0  0  0  0
  139.7350   71.0350  223.7390 N   0  0  0  0  0  0  0  0  0  0  0  0
  140.3240   71.1200  222.4610 C   0  0  0  0  0  0  0  0  0  0  0  0
  140.7050   72.4630  221.9940 C   0  0  0  0  0  0  0  0  0  0  0  0
  141.8310   72.7400  221.2490 C   0  0  0  0  0  0  0  0  0  0  0  0
  142.1100   74.0540  220.8530 C   0  0  0  0  0  0  0  0  0  0  0  0
  141.2550   75.0820  221.2080 C   0  0  0  0  0  0  0  0  0  0  0  0
  141.4700   76.3970  220.8510 C   0  0  0  0  0  0  0  0  0  0  0  0
  142.6220   76.7200  220.0840 N   0  0  0  0  0  0  0  0  0  0  0  0
  140.5970   77.3480  221.2300 N   0  0  0  0  0  0  0  0  0  0  0  0
  139.5090   77.0690  221.9510 C   0  0  0  0  0  0  0  0  0  0  0  0
  138.5800   78.1080  222.3500 C   0  0  0  0  0  0  0  0  0  0  0  0
  138.9130   78.9810  223.2630 C   0  0  0  0  0  0  0  0  0  0  0  0
  140.1770   79.7040  223.3020 C   0  0  0  0  0  0  0  0  0  0  0  0
  141.3440   79.0930  223.7740 C   0  0  0  0  0  0  0  0  0  0  0  0
  142.5490   79.7650  223.8170 C   0  0  0  0  0  0  0  0  0  0  0  0
  142.6010   81.0690  223.3830 C   0  0  0  0  0  0  0  0  0  0  0  0
  141.4980   81.6730  222.9280 N   0  0  0  0  0  0  0  0  0  0  0  0
  140.3190   81.0090  222.8890 C   0  0  0  0  0  0  0  0  0  0  0  0
  139.2920   75.7780  222.3040 N   0  0  0  0  0  0  0  0  0  0  0  0
  140.1330   74.7960  221.9500 C   0  0  0  0  0  0  0  0  0  0  0  0
  139.8490   73.5120  222.3440 C   0  0  0  0  0  0  0  0  0  0  0  0
  138.9140   69.9120  223.9920 C   0  0  0  0  0  0  0  0  0  0  0  0
  138.9390   69.4000  225.3920 C   0  0  0  0  0  0  0  0  0  0  0  0
  140.6011   68.4791  227.8235 H   0  0  0  0  0  0  0  0  0  0  0  0
  140.0401   67.4839  226.4373 H   0  0  0  0  0  0  0  0  0  0  0  0
  141.7006   68.1690  226.4373 H   0  0  0  0  0  0  0  0  0  0  0  0
  141.9392   70.6261  226.1593 H   0  0  0  0  0  0  0  0  0  0  0  0
  141.6848   69.7349  224.6470 H   0  0  0  0  0  0  0  0  0  0  0  0
  139.7707   71.9711  225.5938 H   0  0  0  0  0  0  0  0  0  0  0  0
  141.1578   72.3331  224.5683 H   0  0  0  0  0  0  0  0  0  0  0  0
  141.2332   70.5010  222.4717 H   0  0  0  0  0  0  0  0  0  0  0  0
  139.5448   70.7823  221.7618 H   0  0  0  0  0  0  0  0  0  0  0  0
  142.5134   71.9256  220.9642 H   0  0  0  0  0  0  0  0  0  0  0  0
  143.0104   74.2690  220.2588 H   0  0  0  0  0  0  0  0  0  0  0  0
  142.7800   76.2730  219.1430 H   0  0  0  0  0  0  0  0  0  0  0  0
  143.2960   77.4120  220.4880 H   0  0  0  0  0  0  0  0  0  0  0  0
  137.5868   78.1617  221.8802 H   0  0  0  0  0  0  0  0  0  0  0  0
  138.1848   79.1853  224.0617 H   0  0  0  0  0  0  0  0  0  0  0  0
  141.3000   78.0497  224.1199 H   0  0  0  0  0  0  0  0  0  0  0  0
  143.4540   79.2651  224.1927 H   0  0  0  0  0  0  0  0  0  0  0  0
  143.5541   81.6176  223.4102 H   0  0  0  0  0  0  0  0  0  0  0  0
  139.4323   81.5377  222.5092 H   0  0  0  0  0  0  0  0  0  0  0  0
  138.9453   73.3076  222.9369 H   0  0  0  0  0  0  0  0  0  0  0  0
  137.8771   70.1893  223.7512 H   0  0  0  0  0  0  0  0  0  0  0  0
  139.3129   69.0997  223.3666 H   0  0  0  0  0  0  0  0  0  0  0  0
  138.1764   69.9494  225.9635 H   0  0  0  0  0  0  0  0  0  0  0  0
  138.7549   68.3185  225.3122 H   0  0  0  0  0  0  0  0  0  0  0  0
  1  2  1  0
  2  3  1  0
  3  4  1  0
  4  5  1  0
  5  6  1  0
  6  7  1  0
  7  8  2  0
  8  9  1  0
  9 10  2  0
 10 11  1  0
 11 12  1  0
 11 13  2  0
 13 14  1  0
 14 15  1  0
 15 16  2  0
 16 17  1  0
 17 18  2  0
 18 19  1  0
 19 20  2  0
 20 21  1  0
 21 22  2  0
 14 23  2  0
 23 24  1  0
 24 25  2  0
  5 26  1  0
 26 27  1  0
 27  2  1  0
 25  7  1  0
 24 10  1  0
 22 17  1  0
  1 28  1  0
  1 29  1  0
  1 30  1  0
  3 31  1  0
  3 32  1  0
  4 33  1  0
  4 34  1  0
  6 35  1  0
  6 36  1  0
  8 37  1  0
  9 38  1  0
 12 39  1  0
 12 40  1  0
 15 41  1  0
 16 42  1  0
 18 43  1  0
 19 44  1  0
 20 45  1  0
 22 46  1  0
 25 47  1  0
 26 48  1  0
 26 49  1  0
 27 50  1  0
 27 51  1  0
M  END
>  <smiles>  (45) 
CN1CCN(Cc2ccc3c(N)nc(/C=C/c4cccnc4)nc3c2)CC1

>  <score_type>  (45) 
oracle

>  <origin>  (45) 
autodockgpu

>  <m_score__min__energy>  (45) 
-8.3100000000000005

>  <m_primary>  (45) 
energy

>  <rmsd>  (45) 
7.4870524413510315

>  <m_score__min__rmsd>  (45) 
7.4870524413510315

>  <meeko>  (45) 
{"free_energy": -7.15, "intermolecular_energy": -8.94, "internal_energy": -0.85, "cluster_size": 1, "cluster_id": 5, "rank_in_cluster": 1}

>  <energy>  (45) 
-7.18

>  <cluster_rmsd>  (45) 
1.24

>  <cluster>  (45) 
3

$$$$

     RDKit          3D

 51 54  0  0  0  0  0  0  0  0999 V2000
  143.5070   80.4390  223.1280 C   0  0  0  0  0  0  0  0  0  0  0  0
  142.1450   80.7330  222.8090 N   0  0  0  0  0  0  0  0  0  0  0  0
  141.7710   80.4480  221.4560 C   0  0  0  0  0  0  0  0  0  0  0  0
  140.3030   80.8760  221.3160 C   0  0  0  0  0  0  0  0  0  0  0  0
  139.5700   79.8860  222.0170 N   0  0  0  0  0  0  0  0  0  0  0  0
  139.0350   78.8030  221.2920 C   0  0  0  0  0  0  0  0  0  0  0  0
  139.8680   77.5930  221.1960 C   0  0  0  0  0  0  0  0  0  0  0  0
  141.0850   77.5320  220.5510 C   0  0  0  0  0  0  0  0  0  0  0  0
  141.8030   76.3310  220.5100 C   0  0  0  0  0  0  0  0  0  0  0  0
  141.2940   75.1970  221.1180 C   0  0  0  0  0  0  0  0  0  0  0  0
  141.9490   73.9830  221.1160 C   0  0  0  0  0  0  0  0  0  0  0  0
  143.2060   73.8830  220.4600 N   0  0  0  0  0  0  0  0  0  0  0  0
  141.3960   72.9200  221.7280 N   0  0  0  0  0  0  0  0  0  0  0  0
  140.2180   72.9890  222.3500 C   0  0  0  0  0  0  0  0  0  0  0  0
  139.6390   71.8320  223.0030 C   0  0  0  0  0  0  0  0  0  0  0  0
  140.3910   71.0090  223.6870 C   0  0  0  0  0  0  0  0  0  0  0  0
  140.4460   70.9470  225.1410 C   0  0  0  0  0  0  0  0  0  0  0  0
  139.8160   69.9130  225.8440 C   0  0  0  0  0  0  0  0  0  0  0  0
  139.8600   69.8410  227.2220 C   0  0  0  0  0  0  0  0  0  0  0  0
  140.5410   70.8120  227.9190 C   0  0  0  0  0  0  0  0  0  0  0  0
  141.1500   71.8080  227.2670 N   0  0  0  0  0  0  0  0  0  0  0  0
  141.1040   71.8740  225.9170 C   0  0  0  0  0  0  0  0  0  0  0  0
  139.5690   74.1800  222.3560 N   0  0  0  0  0  0  0  0  0  0  0  0
  140.0800   75.2670  221.7600 C   0  0  0  0  0  0  0  0  0  0  0  0
  139.3670   76.4390  221.8070 C   0  0  0  0  0  0  0  0  0  0  0  0
  140.0020   79.6220  223.3380 C   0  0  0  0  0  0  0  0  0  0  0  0
  141.1820   80.4090  223.7970 C   0  0  0  0  0  0  0  0  0  0  0  0
  143.6301   80.4124  224.2208 H   0  0  0  0  0  0  0  0  0  0  0  0
  143.7800   79.4612  222.7044 H   0  0  0  0  0  0  0  0  0  0  0  0
  144.1590   81.2171  222.7044 H   0  0  0  0  0  0  0  0  0  0  0  0
  142.4022   81.0178  220.7582 H   0  0  0  0  0  0  0  0  0  0  0  0
  141.9008   79.3812  221.2213 H   0  0  0  0  0  0  0  0  0  0  0  0
  140.1436   81.8673  221.7654 H   0  0  0  0  0  0  0  0  0  0  0  0
  139.9920   80.9565  220.2640 H   0  0  0  0  0  0  0  0  0  0  0  0
  138.0870   78.5174  221.7714 H   0  0  0  0  0  0  0  0  0  0  0  0
  138.9372   79.1681  220.2590 H   0  0  0  0  0  0  0  0  0  0  0  0
  141.4936   78.4310  220.0665 H   0  0  0  0  0  0  0  0  0  0  0  0
  142.7733   76.2887  219.9936 H   0  0  0  0  0  0  0  0  0  0  0  0
  143.9360   74.6310  220.5870 H   0  0  0  0  0  0  0  0  0  0  0  0
  143.3720   73.0450  219.8550 H   0  0  0  0  0  0  0  0  0  0  0  0
  138.5581   71.6444  222.9227 H   0  0  0  0  0  0  0  0  0  0  0  0
  141.0287   70.3126  223.1227 H   0  0  0  0  0  0  0  0  0  0  0  0
  139.2720   69.1381  225.2840 H   0  0  0  0  0  0  0  0  0  0  0  0
  139.3581   69.0197  227.7545 H   0  0  0  0  0  0  0  0  0  0  0  0
  140.5847   70.7689  229.0173 H   0  0  0  0  0  0  0  0  0  0  0  0
  141.6167   72.7080  225.4154 H   0  0  0  0  0  0  0  0  0  0  0  0
  138.3982   76.4707  222.3271 H   0  0  0  0  0  0  0  0  0  0  0  0
  139.1649   79.8387  224.0179 H   0  0  0  0  0  0  0  0  0  0  0  0
  140.3195   78.5689  223.3470 H   0  0  0  0  0  0  0  0  0  0  0  0
  140.8100   81.3520  224.2241 H   0  0  0  0  0  0  0  0  0  0  0  0
  141.7056   79.7600  224.5144 H   0  0  0  0  0  0  0  0  0  0  0  0
  1  2  1  0
  2  3  1  0
  3  4  1  0
  4  5  1  0
  5  6  1  0
  6  7  1  0
  7  8  2  0
  8  9  1  0
  9 10  2  0
 10 11  1  0
 11 12  1  0
 11 13  2  0
 13 14  1  0
 14 15  1  0
 15 16  2  0
 16 17  1  0
 17 18  2  0
 18 19  1  0
 19 20  2  0
 20 21  1  0
 21 22  2  0
 14 23  2  0
 23 24  1  0
 24 25  2  0
  5 26  1  0
 26 27  1  0
 27  2  1  0
 25  7  1  0
 24 10  1  0
 22 17  1  0
  1 28  1  0
  1 29  1  0
  1 30  1  0
  3 31  1  0
  3 32  1  0
  4 33  1  0
  4 34  1  0
  6 35  1  0
  6 36  1  0
  8 37  1  0
  9 38  1  0
 12 39  1  0
 12 40  1  0
 15 41  1  0
 16 42  1  0
 18 43  1  0
 19 44  1  0
 20 45  1  0
 22 46  1  0
 25 47  1  0
 26 48  1  0
 26 49  1  0
 27 50  1  0
 27 51  1  0
M  END
>  <smiles>  (46) 
CN1CCN(Cc2ccc3c(N)nc(/C=C/c4cccnc4)nc3c2)CC1

>  <score_type>  (46) 
oracle

>  <origin>  (46) 
autodockgpu

>  <m_score__min__energy>  (46) 
-8.3100000000000005

>  <m_primary>  (46) 
energy

>  <rmsd>  (46) 
7.540356373859596

>  <m_score__min__rmsd>  (46) 
7.540356373859596

>  <meeko>  (46) 
{"free_energy": -7.29, "intermolecular_energy": -9.08, "internal_energy": -0.79, "cluster_size": 35, "cluster_id": 1, "rank_in_cluster": 30}

>  <energy>  (46) 
-7.15

>  <cluster_rmsd>  (46) 
1.91

>  <cluster>  (46) 
3

$$$$

     RDKit          3D

 51 54  0  0  0  0  0  0  0  0999 V2000
  143.6170   80.4870  223.1330 C   0  0  0  0  0  0  0  0  0  0  0  0
  142.2020   80.5530  222.9480 N   0  0  0  0  0  0  0  0  0  0  0  0
  141.7750   80.5890  221.5810 C   0  0  0  0  0  0  0  0  0  0  0  0
  140.2450   80.7060  221.6100 C   0  0  0  0  0  0  0  0  0  0  0  0
  139.7920   79.4230  222.0040 N   0  0  0  0  0  0  0  0  0  0  0  0
  139.4260   78.5000  221.0040 C   0  0  0  0  0  0  0  0  0  0  0  0
  140.1710   77.2310  220.9660 C   0  0  0  0  0  0  0  0  0  0  0  0
  141.3630   77.0460  220.2980 C   0  0  0  0  0  0  0  0  0  0  0  0
  141.9960   75.7970  220.3180 C   0  0  0  0  0  0  0  0  0  0  0  0
  141.4280   74.7420  221.0090 C   0  0  0  0  0  0  0  0  0  0  0  0
  141.9990   73.4870  221.0700 C   0  0  0  0  0  0  0  0  0  0  0  0
  143.2270   73.2590  220.3930 N   0  0  0  0  0  0  0  0  0  0  0  0
  141.3920   72.5060  221.7620 N   0  0  0  0  0  0  0  0  0  0  0  0
  140.2390   72.6960  222.4060 C   0  0  0  0  0  0  0  0  0  0  0  0
  139.6010   71.6250  223.1450 C   0  0  0  0  0  0  0  0  0  0  0  0
  140.3060   70.8310  223.9060 C   0  0  0  0  0  0  0  0  0  0  0  0
  140.3280   70.8780  225.3620 C   0  0  0  0  0  0  0  0  0  0  0  0
  141.0380   71.8740  226.0420 C   0  0  0  0  0  0  0  0  0  0  0  0
  141.0680   71.9320  227.4210 C   0  0  0  0  0  0  0  0  0  0  0  0
  140.3820   70.9820  228.1430 C   0  0  0  0  0  0  0  0  0  0  0  0
  139.6980   70.0210  227.5130 N   0  0  0  0  0  0  0  0  0  0  0  0
  139.6710   69.9700  226.1610 C   0  0  0  0  0  0  0  0  0  0  0  0
  139.6730   73.9270  222.3500 N   0  0  0  0  0  0  0  0  0  0  0  0
  140.2400   74.9360  221.6730 C   0  0  0  0  0  0  0  0  0  0  0  0
  139.6100   76.1560  221.6620 C   0  0  0  0  0  0  0  0  0  0  0  0
  140.3820   78.8960  223.1760 C   0  0  0  0  0  0  0  0  0  0  0  0
  141.4140   79.7590  223.8190 C   0  0  0  0  0  0  0  0  0  0  0  0
  143.8460   80.4763  224.2088 H   0  0  0  0  0  0  0  0  0  0  0  0
  144.0054   79.5698  222.6663 H   0  0  0  0  0  0  0  0  0  0  0  0
  144.0891   81.3641  222.6663 H   0  0  0  0  0  0  0  0  0  0  0  0
  142.2136   81.4575  221.0678 H   0  0  0  0  0  0  0  0  0  0  0  0
  142.0966   79.6880  221.0380 H   0  0  0  0  0  0  0  0  0  0  0  0
  139.9283   81.4689  222.3365 H   0  0  0  0  0  0  0  0  0  0  0  0
  139.8331   81.0113  220.6368 H   0  0  0  0  0  0  0  0  0  0  0  0
  138.3629   78.2573  221.1484 H   0  0  0  0  0  0  0  0  0  0  0  0
  139.6603   78.9994  220.0523 H   0  0  0  0  0  0  0  0  0  0  0  0
  141.8183   77.8824  219.7475 H   0  0  0  0  0  0  0  0  0  0  0  0
  142.9466   75.6547  219.7832 H   0  0  0  0  0  0  0  0  0  0  0  0
  144.1450   73.4850  220.8590 H   0  0  0  0  0  0  0  0  0  0  0  0
  143.1810   72.8620  219.4250 H   0  0  0  0  0  0  0  0  0  0  0  0
  138.5137   71.4794  223.0644 H   0  0  0  0  0  0  0  0  0  0  0  0
  140.9287   70.0712  223.4112 H   0  0  0  0  0  0  0  0  0  0  0  0
  141.5868   72.6308  225.4623 H   0  0  0  0  0  0  0  0  0  0  0  0
  141.6313   72.7250  227.9347 H   0  0  0  0  0  0  0  0  0  0  0  0
  140.3965   71.0134  229.2425 H   0  0  0  0  0  0  0  0  0  0  0  0
  139.0972   69.1653  225.6780 H   0  0  0  0  0  0  0  0  0  0  0  0
  138.6610   76.2880  222.2024 H   0  0  0  0  0  0  0  0  0  0  0  0
  139.5811   78.7216  223.9096 H   0  0  0  0  0  0  0  0  0  0  0  0
  140.9056   77.9800  222.8649 H   0  0  0  0  0  0  0  0  0  0  0  0
  140.8976   80.4367  224.5147 H   0  0  0  0  0  0  0  0  0  0  0  0
  142.1186   79.0642  224.2995 H   0  0  0  0  0  0  0  0  0  0  0  0
  1  2  1  0
  2  3  1  0
  3  4  1  0
  4  5  1  0
  5  6  1  0
  6  7  1  0
  7  8  2  0
  8  9  1  0
  9 10  2  0
 10 11  1  0
 11 12  1  0
 11 13  2  0
 13 14  1  0
 14 15  1  0
 15 16  2  0
 16 17  1  0
 17 18  2  0
 18 19  1  0
 19 20  2  0
 20 21  1  0
 21 22  2  0
 14 23  2  0
 23 24  1  0
 24 25  2  0
  5 26  1  0
 26 27  1  0
 27  2  1  0
 25  7  1  0
 24 10  1  0
 22 17  1  0
  1 28  1  0
  1 29  1  0
  1 30  1  0
  3 31  1  0
  3 32  1  0
  4 33  1  0
  4 34  1  0
  6 35  1  0
  6 36  1  0
  8 37  1  0
  9 38  1  0
 12 39  1  0
 12 40  1  0
 15 41  1  0
 16 42  1  0
 18 43  1  0
 19 44  1  0
 20 45  1  0
 22 46  1  0
 25 47  1  0
 26 48  1  0
 26 49  1  0
 27 50  1  0
 27 51  1  0
M  END
>  <smiles>  (47) 
CN1CCN(Cc2ccc3c(N)nc(/C=C/c4cccnc4)nc3c2)CC1

>  <score_type>  (47) 
oracle

>  <origin>  (47) 
autodockgpu

>  <m_score__min__energy>  (47) 
-8.3100000000000005

>  <m_primary>  (47) 
energy

>  <rmsd>  (47) 
7.328690673409695

>  <m_score__min__rmsd>  (47) 
7.328690673409695

>  <meeko>  (47) 
{"free_energy": -7.47, "intermolecular_energy": -9.26, "internal_energy": -0.81, "cluster_size": 35, "cluster_id": 1, "rank_in_cluster": 28}

>  <energy>  (47) 
-7.12

>  <cluster_rmsd>  (47) 
0.98

>  <cluster>  (47) 
3

$$$$

     RDKit          3D

 51 54  0  0  0  0  0  0  0  0999 V2000
  142.5790   81.3120  224.0720 C   0  0  0  0  0  0  0  0  0  0  0  0
  141.5310   80.4970  223.5420 N   0  0  0  0  0  0  0  0  0  0  0  0
  141.3030   80.6500  222.1360 C   0  0  0  0  0  0  0  0  0  0  0  0
  140.1220   79.7330  221.7880 C   0  0  0  0  0  0  0  0  0  0  0  0
  140.6560   78.4210  221.8380 N   0  0  0  0  0  0  0  0  0  0  0  0
  141.1080   77.8320  220.6410 C   0  0  0  0  0  0  0  0  0  0  0  0
  141.5340   76.4250  220.7130 C   0  0  0  0  0  0  0  0  0  0  0  0
  142.6490   75.9130  220.0830 C   0  0  0  0  0  0  0  0  0  0  0  0
  142.9710   74.5570  220.2090 C   0  0  0  0  0  0  0  0  0  0  0  0
  142.1710   73.7210  220.9680 C   0  0  0  0  0  0  0  0  0  0  0  0
  142.4310   72.3760  221.1340 C   0  0  0  0  0  0  0  0  0  0  0  0
  143.5710   71.8150  220.4990 N   0  0  0  0  0  0  0  0  0  0  0  0
  141.6110   71.6220  221.8880 N   0  0  0  0  0  0  0  0  0  0  0  0
  140.5350   72.1260  222.4940 C   0  0  0  0  0  0  0  0  0  0  0  0
  139.6630   71.2960  223.3010 C   0  0  0  0  0  0  0  0  0  0  0  0
  139.8840   71.1480  224.5810 C   0  0  0  0  0  0  0  0  0  0  0  0
  139.8780   69.8720  225.2840 C   0  0  0  0  0  0  0  0  0  0  0  0
  140.5810   69.7050  226.4830 C   0  0  0  0  0  0  0  0  0  0  0  0
  140.5850   68.5020  227.1600 C   0  0  0  0  0  0  0  0  0  0  0  0
  139.8790   67.4420  226.6410 C   0  0  0  0  0  0  0  0  0  0  0  0
  139.2010   67.5800  225.4970 N   0  0  0  0  0  0  0  0  0  0  0  0
  139.2000   68.7610  224.8370 C   0  0  0  0  0  0  0  0  0  0  0  0
  140.2740   73.4480  222.3350 N   0  0  0  0  0  0  0  0  0  0  0  0
  141.0620   74.2400  221.5940 C   0  0  0  0  0  0  0  0  0  0  0  0
  140.7360   75.5690  221.4780 C   0  0  0  0  0  0  0  0  0  0  0  0
  141.3560   78.0870  223.0200 C   0  0  0  0  0  0  0  0  0  0  0  0
  141.4500   79.1710  224.0390 C   0  0  0  0  0  0  0  0  0  0  0  0
  142.5443   81.2850  225.1711 H   0  0  0  0  0  0  0  0  0  0  0  0
  143.5509   80.9301  223.7264 H   0  0  0  0  0  0  0  0  0  0  0  0
  142.4482   82.3481  223.7264 H   0  0  0  0  0  0  0  0  0  0  0  0
  141.0548   81.6958  221.9021 H   0  0  0  0  0  0  0  0  0  0  0  0
  142.1988   80.3857  221.5549 H   0  0  0  0  0  0  0  0  0  0  0  0
  139.3112   79.8497  222.5222 H   0  0  0  0  0  0  0  0  0  0  0  0
  139.6892   79.9682  220.8044 H   0  0  0  0  0  0  0  0  0  0  0  0
  140.2890   77.8946  219.9094 H   0  0  0  0  0  0  0  0  0  0  0  0
  142.0139   78.3933  220.3683 H   0  0  0  0  0  0  0  0  0  0  0  0
  143.2881   76.5736  219.4787 H   0  0  0  0  0  0  0  0  0  0  0  0
  143.8616   74.1549  219.7038 H   0  0  0  0  0  0  0  0  0  0  0  0
  143.6320   71.7750  219.4480 H   0  0  0  0  0  0  0  0  0  0  0  0
  144.3380   71.4490  221.1120 H   0  0  0  0  0  0  0  0  0  0  0  0
  138.8081   70.7863  222.8326 H   0  0  0  0  0  0  0  0  0  0  0  0
  140.0896   72.0536  225.1706 H   0  0  0  0  0  0  0  0  0  0  0  0
  141.1447   70.5543  226.8963 H   0  0  0  0  0  0  0  0  0  0  0  0
  141.1446   68.3928  228.1007 H   0  0  0  0  0  0  0  0  0  0  0  0
  139.8721   66.4771  227.1691 H   0  0  0  0  0  0  0  0  0  0  0  0
  138.6304   68.8367  223.8990 H   0  0  0  0  0  0  0  0  0  0  0  0
  139.8442   75.9613  221.9886 H   0  0  0  0  0  0  0  0  0  0  0  0
  140.8474   77.2291  223.4840 H   0  0  0  0  0  0  0  0  0  0  0  0
  142.3896   77.8750  222.7089 H   0  0  0  0  0  0  0  0  0  0  0  0
  140.5577   79.1072  224.6791 H   0  0  0  0  0  0  0  0  0  0  0  0
  142.4004   78.9969  224.5648 H   0  0  0  0  0  0  0  0  0  0  0  0
  1  2  1  0
  2  3  1  0
  3  4  1  0
  4  5  1  0
  5  6  1  0
  6  7  1  0
  7  8  2  0
  8  9  1  0
  9 10  2  0
 10 11  1  0
 11 12  1  0
 11 13  2  0
 13 14  1  0
 14 15  1  0
 15 16  2  0
 16 17  1  0
 17 18  2  0
 18 19  1  0
 19 20  2  0
 20 21  1  0
 21 22  2  0
 14 23  2  0
 23 24  1  0
 24 25  2  0
  5 26  1  0
 26 27  1  0
 27  2  1  0
 25  7  1  0
 24 10  1  0
 22 17  1  0
  1 28  1  0
  1 29  1  0
  1 30  1  0
  3 31  1  0
  3 32  1  0
  4 33  1  0
  4 34  1  0
  6 35  1  0
  6 36  1  0
  8 37  1  0
  9 38  1  0
 12 39  1  0
 12 40  1  0
 15 41  1  0
 16 42  1  0
 18 43  1  0
 19 44  1  0
 20 45  1  0
 22 46  1  0
 25 47  1  0
 26 48  1  0
 26 49  1  0
 27 50  1  0
 27 51  1  0
M  END
>  <smiles>  (48) 
CN1CCN(Cc2ccc3c(N)nc(/C=C/c4cccnc4)nc3c2)CC1

>  <score_type>  (48) 
oracle

>  <origin>  (48) 
autodockgpu

>  <m_score__min__energy>  (48) 
-8.3100000000000005

>  <m_primary>  (48) 
energy

>  <rmsd>  (48) 
7.028503911881395

>  <m_score__min__rmsd>  (48) 
7.028503911881395

>  <meeko>  (48) 
{"free_energy": -8.29, "intermolecular_energy": -10.08, "internal_energy": -0.52, "cluster_size": 35, "cluster_id": 1, "rank_in_cluster": 2}

>  <energy>  (48) 
-7.35

>  <cluster_rmsd>  (48) 
0.0

>  <cluster>  (48) 
4

$$$$

     RDKit          3D

 51 54  0  0  0  0  0  0  0  0999 V2000
  139.1330   80.9910  223.6660 C   0  0  0  0  0  0  0  0  0  0  0  0
  140.3060   80.2480  223.3270 N   0  0  0  0  0  0  0  0  0  0  0  0
  140.0850   78.8520  223.0940 C   0  0  0  0  0  0  0  0  0  0  0  0
  141.4620   78.2420  222.7960 C   0  0  0  0  0  0  0  0  0  0  0  0
  141.7820   78.6910  221.4910 N   0  0  0  0  0  0  0  0  0  0  0  0
  141.4820   77.8530  220.3980 C   0  0  0  0  0  0  0  0  0  0  0  0
  141.8190   76.4270  220.5420 C   0  0  0  0  0  0  0  0  0  0  0  0
  142.9250   75.8260  219.9800 C   0  0  0  0  0  0  0  0  0  0  0  0
  143.1580   74.4590  220.1720 C   0  0  0  0  0  0  0  0  0  0  0  0
  142.2800   73.7040  220.9270 C   0  0  0  0  0  0  0  0  0  0  0  0
  142.4510   72.3540  221.1560 C   0  0  0  0  0  0  0  0  0  0  0  0
  143.5800   71.7010  220.5910 N   0  0  0  0  0  0  0  0  0  0  0  0
  141.5570   71.6800  221.9020 N   0  0  0  0  0  0  0  0  0  0  0  0
  140.4900   72.2720  222.4430 C   0  0  0  0  0  0  0  0  0  0  0  0
  139.5380   71.5280  223.2440 C   0  0  0  0  0  0  0  0  0  0  0  0
  139.9410   70.5620  224.0280 C   0  0  0  0  0  0  0  0  0  0  0  0
  140.2870   70.7230  225.4330 C   0  0  0  0  0  0  0  0  0  0  0  0
  140.9350   71.8770  225.8910 C   0  0  0  0  0  0  0  0  0  0  0  0
  141.2700   72.0430  227.2190 C   0  0  0  0  0  0  0  0  0  0  0  0
  140.9590   71.0470  228.1150 C   0  0  0  0  0  0  0  0  0  0  0  0
  140.3410   69.9360  227.7000 N   0  0  0  0  0  0  0  0  0  0  0  0
  140.0140   69.7780  226.3960 C   0  0  0  0  0  0  0  0  0  0  0  0
  140.3170   73.5990  222.2220 N   0  0  0  0  0  0  0  0  0  0  0  0
  141.1800   74.3120  221.4860 C   0  0  0  0  0  0  0  0  0  0  0  0
  140.9400   75.6520  221.3050 C   0  0  0  0  0  0  0  0  0  0  0  0
  141.6770   80.0840  221.2770 C   0  0  0  0  0  0  0  0  0  0  0  0
  141.2240   80.8820  222.4520 C   0  0  0  0  0  0  0  0  0  0  0  0
  139.0399   81.0500  224.7605 H   0  0  0  0  0  0  0  0  0  0  0  0
  139.2088   82.0062  223.2492 H   0  0  0  0  0  0  0  0  0  0  0  0
  138.2476   80.4887  223.2492 H   0  0  0  0  0  0  0  0  0  0  0  0
  139.6450   78.3819  223.9859 H   0  0  0  0  0  0  0  0  0  0  0  0
  139.3872   78.6914  222.2589 H   0  0  0  0  0  0  0  0  0  0  0  0
  142.2084   78.5971  223.5218 H   0  0  0  0  0  0  0  0  0  0  0  0
  141.4541   77.1443  222.8671 H   0  0  0  0  0  0  0  0  0  0  0  0
  140.3999   77.9221  220.2130 H   0  0  0  0  0  0  0  0  0  0  0  0
  142.1148   78.2163  219.5749 H   0  0  0  0  0  0  0  0  0  0  0  0
  143.6268   76.4225  219.3787 H   0  0  0  0  0  0  0  0  0  0  0  0
  144.0420   73.9845  219.7209 H   0  0  0  0  0  0  0  0  0  0  0  0
  144.4340   71.5070  221.1770 H   0  0  0  0  0  0  0  0  0  0  0  0
  143.5260   71.4240  219.5830 H   0  0  0  0  0  0  0  0  0  0  0  0
  138.4680   71.7780  223.1919 H   0  0  0  0  0  0  0  0  0  0  0  0
  140.0246   69.5545  223.5944 H   0  0  0  0  0  0  0  0  0  0  0  0
  141.1835   72.6722  225.1728 H   0  0  0  0  0  0  0  0  0  0  0  0
  141.7783   72.9584  227.5562 H   0  0  0  0  0  0  0  0  0  0  0  0
  141.2196   71.1647  229.1772 H   0  0  0  0  0  0  0  0  0  0  0  0
  139.5063   68.8509  226.0915 H   0  0  0  0  0  0  0  0  0  0  0  0
  140.0538   76.1170  221.7615 H   0  0  0  0  0  0  0  0  0  0  0  0
  142.6675   80.4562  220.9762 H   0  0  0  0  0  0  0  0  0  0  0  0
  140.9019   80.2135  220.5073 H   0  0  0  0  0  0  0  0  0  0  0  0
  142.1152   81.1501  223.0385 H   0  0  0  0  0  0  0  0  0  0  0  0
  140.6814   81.7412  222.0308 H   0  0  0  0  0  0  0  0  0  0  0  0
  1  2  1  0
  2  3  1  0
  3  4  1  0
  4  5  1  0
  5  6  1  0
  6  7  1  0
  7  8  2  0
  8  9  1  0
  9 10  2  0
 10 11  1  0
 11 12  1  0
 11 13  2  0
 13 14  1  0
 14 15  1  0
 15 16  2  0
 16 17  1  0
 17 18  2  0
 18 19  1  0
 19 20  2  0
 20 21  1  0
 21 22  2  0
 14 23  2  0
 23 24  1  0
 24 25  2  0
  5 26  1  0
 26 27  1  0
 27  2  1  0
 25  7  1  0
 24 10  1  0
 22 17  1  0
  1 28  1  0
  1 29  1  0
  1 30  1  0
  3 31  1  0
  3 32  1  0
  4 33  1  0
  4 34  1  0
  6 35  1  0
  6 36  1  0
  8 37  1  0
  9 38  1  0
 12 39  1  0
 12 40  1  0
 15 41  1  0
 16 42  1  0
 18 43  1  0
 19 44  1  0
 20 45  1  0
 22 46  1  0
 25 47  1  0
 26 48  1  0
 26 49  1  0
 27 50  1  0
 27 51  1  0
M  END
>  <smiles>  (49) 
CN1CCN(Cc2ccc3c(N)nc(/C=C/c4cccnc4)nc3c2)CC1

>  <score_type>  (49) 
oracle

>  <origin>  (49) 
autodockgpu

>  <m_score__min__energy>  (49) 
-8.3100000000000005

>  <m_primary>  (49) 
energy

>  <rmsd>  (49) 
6.808187974888758

>  <m_score__min__rmsd>  (49) 
6.808187974888758

>  <meeko>  (49) 
{"free_energy": -7.93, "intermolecular_energy": -9.72, "internal_energy": -0.65, "cluster_size": 35, "cluster_id": 1, "rank_in_cluster": 19}

>  <energy>  (49) 
-7.15

>  <cluster_rmsd>  (49) 
0.58

>  <cluster>  (49) 
4

$$$$

     RDKit          3D

 51 54  0  0  0  0  0  0  0  0999 V2000
  143.3320   80.8730  223.8280 C   0  0  0  0  0  0  0  0  0  0  0  0
  142.0620   80.2980  223.5110 N   0  0  0  0  0  0  0  0  0  0  0  0
  141.6270   80.5100  222.1630 C   0  0  0  0  0  0  0  0  0  0  0  0
  140.2400   79.8610  222.0510 C   0  0  0  0  0  0  0  0  0  0  0  0
  140.4930   78.4670  222.0410 N   0  0  0  0  0  0  0  0  0  0  0  0
  140.5960   77.8100  220.7980 C   0  0  0  0  0  0  0  0  0  0  0  0
  141.2040   76.4690  220.8050 C   0  0  0  0  0  0  0  0  0  0  0  0
  142.3680   76.1370  220.1450 C   0  0  0  0  0  0  0  0  0  0  0  0
  142.8670   74.8300  220.2090 C   0  0  0  0  0  0  0  0  0  0  0  0
  142.1930   73.8650  220.9350 C   0  0  0  0  0  0  0  0  0  0  0  0
  142.6290   72.5600  221.0390 C   0  0  0  0  0  0  0  0  0  0  0  0
  143.8250   72.1810  220.3720 N   0  0  0  0  0  0  0  0  0  0  0  0
  141.9240   71.6710  221.7630 N   0  0  0  0  0  0  0  0  0  0  0  0
  140.7980   72.0030  222.3980 C   0  0  0  0  0  0  0  0  0  0  0  0
  140.0530   71.0310  223.1730 C   0  0  0  0  0  0  0  0  0  0  0  0
  139.5830   71.3400  224.3530 C   0  0  0  0  0  0  0  0  0  0  0  0
  140.0730   70.7960  225.6120 C   0  0  0  0  0  0  0  0  0  0  0  0
  140.6160   71.6300  226.5970 C   0  0  0  0  0  0  0  0  0  0  0  0
  141.0850   71.1290  227.7940 C   0  0  0  0  0  0  0  0  0  0  0  0
  141.0160   69.7740  228.0230 C   0  0  0  0  0  0  0  0  0  0  0  0
  140.5020   68.9590  227.0950 N   0  0  0  0  0  0  0  0  0  0  0  0
  140.0440   69.4560  225.9230 C   0  0  0  0  0  0  0  0  0  0  0  0
  140.3650   73.2850  222.3000 N   0  0  0  0  0  0  0  0  0  0  0  0
  141.0330   74.2050  221.5900 C   0  0  0  0  0  0  0  0  0  0  0  0
  140.5340   75.4830  221.5360 C   0  0  0  0  0  0  0  0  0  0  0  0
  141.3060   77.9830  223.0910 C   0  0  0  0  0  0  0  0  0  0  0  0
  141.8000   79.0130  224.0490 C   0  0  0  0  0  0  0  0  0  0  0  0
  143.4482   80.9256  224.9206 H   0  0  0  0  0  0  0  0  0  0  0  0
  144.1329   80.2497  223.4037 H   0  0  0  0  0  0  0  0  0  0  0  0
  143.3920   81.8861  223.4037 H   0  0  0  0  0  0  0  0  0  0  0  0
  141.5621   81.5869  221.9486 H   0  0  0  0  0  0  0  0  0  0  0  0
  142.3327   80.0725  221.4415 H   0  0  0  0  0  0  0  0  0  0  0  0
  139.6132   80.1350  222.9124 H   0  0  0  0  0  0  0  0  0  0  0  0
  139.6981   80.1913  221.1525 H   0  0  0  0  0  0  0  0  0  0  0  0
  139.5800   77.7128  220.3877 H   0  0  0  0  0  0  0  0  0  0  0  0
  141.2772   78.4321  220.1988 H   0  0  0  0  0  0  0  0  0  0  0  0
  142.9068   76.9015  219.5660 H   0  0  0  0  0  0  0  0  0  0  0  0
  143.7965   74.5706  219.6810 H   0  0  0  0  0  0  0  0  0  0  0  0
  144.5820   71.6600  220.8860 H   0  0  0  0  0  0  0  0  0  0  0  0
  143.9180   72.4380  219.3610 H   0  0  0  0  0  0  0  0  0  0  0  0
  139.8815   70.0241  222.7646 H   0  0  0  0  0  0  0  0  0  0  0  0
  138.7564   72.0643  224.3984 H   0  0  0  0  0  0  0  0  0  0  0  0
  140.6701   72.7129  226.4117 H   0  0  0  0  0  0  0  0  0  0  0  0
  141.5077   71.8027  228.5538 H   0  0  0  0  0  0  0  0  0  0  0  0
  141.3849   69.3593  228.9727 H   0  0  0  0  0  0  0  0  0  0  0  0
  139.6287   68.7555  225.1835 H   0  0  0  0  0  0  0  0  0  0  0  0
  139.6046   75.7319  222.0692 H   0  0  0  0  0  0  0  0  0  0  0  0
  140.7212   77.2447  223.6593 H   0  0  0  0  0  0  0  0  0  0  0  0
  142.2023   77.5644  222.6098 H   0  0  0  0  0  0  0  0  0  0  0  0
  141.0417   79.1282  224.8374 H   0  0  0  0  0  0  0  0  0  0  0  0
  142.7721   78.6404  224.4041 H   0  0  0  0  0  0  0  0  0  0  0  0
  1  2  1  0
  2  3  1  0
  3  4  1  0
  4  5  1  0
  5  6  1  0
  6  7  1  0
  7  8  2  0
  8  9  1  0
  9 10  2  0
 10 11  1  0
 11 12  1  0
 11 13  2  0
 13 14  1  0
 14 15  1  0
 15 16  2  0
 16 17  1  0
 17 18  2  0
 18 19  1  0
 19 20  2  0
 20 21  1  0
 21 22  2  0
 14 23  2  0
 23 24  1  0
 24 25  2  0
  5 26  1  0
 26 27  1  0
 27  2  1  0
 25  7  1  0
 24 10  1  0
 22 17  1  0
  1 28  1  0
  1 29  1  0
  1 30  1  0
  3 31  1  0
  3 32  1  0
  4 33  1  0
  4 34  1  0
  6 35  1  0
  6 36  1  0
  8 37  1  0
  9 38  1  0
 12 39  1  0
 12 40  1  0
 15 41  1  0
 16 42  1  0
 18 43  1  0
 19 44  1  0
 20 45  1  0
 22 46  1  0
 25 47  1  0
 26 48  1  0
 26 49  1  0
 27 50  1  0
 27 51  1  0
M  END
>  <smiles>  (50) 
CN1CCN(Cc2ccc3c(N)nc(/C=C/c4cccnc4)nc3c2)CC1

>  <score_type>  (50) 
oracle

>  <origin>  (50) 
autodockgpu

>  <m_score__min__energy>  (50) 
-8.3100000000000005

>  <m_primary>  (50) 
energy

>  <rmsd>  (50) 
7.054500308198647

>  <m_score__min__rmsd>  (50) 
7.054500308198647

>  <meeko>  (50) 
{"free_energy": -7.73, "intermolecular_energy": -9.52, "internal_energy": -0.63, "cluster_size": 35, "cluster_id": 1, "rank_in_cluster": 24}

>  <energy>  (50) 
-7.15

>  <cluster_rmsd>  (50) 
0.0

>  <cluster>  (50) 
5

$$$$
