
     RDKit          3D

 64 67  0  0  0  0  0  0  0  0999 V2000
  140.1290   81.2600  219.2550 C   0  0  0  0  0  0  0  0  0  0  0  0
  141.5330   80.7820  218.9640 C   0  0  0  0  0  0  0  0  0  0  0  0
  141.8280   79.4750  219.5410 C   0  0  0  0  0  0  0  0  0  0  0  0
  142.5740   78.6710  218.8980 O   0  0  0  0  0  0  0  0  0  0  0  0
  141.3480   78.9930  220.7920 N   0  0  0  0  0  0  0  0  0  0  0  0
  141.7170   79.7420  221.9420 C   0  0  0  0  0  0  0  0  0  0  0  0
  142.9750   79.7600  222.4850 C   0  0  0  0  0  0  0  0  0  0  0  0
  143.2840   80.5070  223.6120 C   0  0  0  0  0  0  0  0  0  0  0  0
  142.3190   81.2750  224.2430 C   0  0  0  0  0  0  0  0  0  0  0  0
  141.0550   81.2540  223.6940 C   0  0  0  0  0  0  0  0  0  0  0  0
  140.7470   80.5030  222.5620 C   0  0  0  0  0  0  0  0  0  0  0  0
  140.4980   77.7940  220.8890 C   0  0  0  0  0  0  0  0  0  0  0  0
  140.6950   77.0990  222.2010 C   0  0  0  0  0  0  0  0  0  0  0  0
  140.0730   75.7200  222.1330 C   0  0  0  0  0  0  0  0  0  0  0  0
  140.8240   74.8760  221.1920 N   0  0  0  0  0  0  0  0  0  0  0  0
  140.9190   73.4640  221.3610 C   0  0  0  0  0  0  0  0  0  0  0  0
  140.3320   72.9850  222.3590 O   0  0  0  0  0  0  0  0  0  0  0  0
  141.6850   72.7110  220.3630 C   0  0  0  0  0  0  0  0  0  0  0  0
  142.8540   71.9480  220.9020 C   0  0  0  0  0  0  0  0  0  0  0  0
  144.1210   71.9990  220.2000 C   0  0  0  0  0  0  0  0  0  0  0  0
  144.8540   71.0280  219.5580 C   0  0  0  0  0  0  0  0  0  0  0  0
  144.6170   69.6160  219.3620 C   0  0  0  0  0  0  0  0  0  0  0  0
  145.5160   68.6170  219.2990 C   0  0  0  0  0  0  0  0  0  0  0  0
  145.1630   67.2810  219.1430 C   0  0  0  0  0  0  0  0  0  0  0  0
  143.8290   66.9280  219.0410 C   0  0  0  0  0  0  0  0  0  0  0  0
  142.8860   67.9340  219.1010 C   0  0  0  0  0  0  0  0  0  0  0  0
  143.2590   69.2460  219.2560 C   0  0  0  0  0  0  0  0  0  0  0  0
  145.9620   71.6240  218.9970 N   0  0  0  0  0  0  0  0  0  0  0  0
  145.9320   72.8880  219.2670 O   0  0  0  0  0  0  0  0  0  0  0  0
  144.8610   73.1730  219.9810 C   0  0  0  0  0  0  0  0  0  0  0  0
  144.5710   74.5570  220.4300 C   0  0  0  0  0  0  0  0  0  0  0  0
  141.4530   75.5920  220.0940 C   0  0  0  0  0  0  0  0  0  0  0  0
  140.6770   76.8470  219.7570 C   0  0  0  0  0  0  0  0  0  0  0  0
  139.9774   81.3116  220.3433 H   0  0  0  0  0  0  0  0  0  0  0  0
  139.9833   82.2584  218.8168 H   0  0  0  0  0  0  0  0  0  0  0  0
  139.4044   80.5579  218.8168 H   0  0  0  0  0  0  0  0  0  0  0  0
  141.6617   80.7194  217.8733 H   0  0  0  0  0  0  0  0  0  0  0  0
  142.2249   81.5043  219.4218 H   0  0  0  0  0  0  0  0  0  0  0  0
  143.7669   79.1615  222.0108 H   0  0  0  0  0  0  0  0  0  0  0  0
  144.3092   80.4894  224.0102 H   0  0  0  0  0  0  0  0  0  0  0  0
  142.5501   81.8718  225.1376 H   0  0  0  0  0  0  0  0  0  0  0  0
  140.2613   81.8514  224.1665 H   0  0  0  0  0  0  0  0  0  0  0  0
  139.7234   80.5166  222.1594 H   0  0  0  0  0  0  0  0  0  0  0  0
  139.4601   78.1533  220.8280 H   0  0  0  0  0  0  0  0  0  0  0  0
  141.7709   77.0072  222.4107 H   0  0  0  0  0  0  0  0  0  0  0  0
  140.2166   77.6808  223.0026 H   0  0  0  0  0  0  0  0  0  0  0  0
  140.0953   75.2606  223.1322 H   0  0  0  0  0  0  0  0  0  0  0  0
  139.0327   75.8096  221.7869 H   0  0  0  0  0  0  0  0  0  0  0  0
  141.0039   71.9946  219.8804 H   0  0  0  0  0  0  0  0  0  0  0  0
  142.1001   73.4570  219.6694 H   0  0  0  0  0  0  0  0  0  0  0  0
  143.0370   72.3195  221.9210 H   0  0  0  0  0  0  0  0  0  0  0  0
  142.5452   70.8967  220.8045 H   0  0  0  0  0  0  0  0  0  0  0  0
  146.5839   68.8697  219.3747 H   0  0  0  0  0  0  0  0  0  0  0  0
  145.9428   66.5063  219.1008 H   0  0  0  0  0  0  0  0  0  0  0  0
  143.5291   65.8771  218.9158 H   0  0  0  0  0  0  0  0  0  0  0  0
  141.8184   67.6804  219.0234 H   0  0  0  0  0  0  0  0  0  0  0  0
  142.4836   70.0250  219.2985 H   0  0  0  0  0  0  0  0  0  0  0  0
  144.5637   74.5919  221.5294 H   0  0  0  0  0  0  0  0  0  0  0  0
  145.3462   75.2368  220.0467 H   0  0  0  0  0  0  0  0  0  0  0  0
  143.5881   74.8684  220.0467 H   0  0  0  0  0  0  0  0  0  0  0  0
  142.4777   75.8682  220.3834 H   0  0  0  0  0  0  0  0  0  0  0  0
  141.4684   74.9384  219.2094 H   0  0  0  0  0  0  0  0  0  0  0  0
  141.2109   77.3733  218.9521 H   0  0  0  0  0  0  0  0  0  0  0  0
  139.6682   76.5180  219.4670 H   0  0  0  0  0  0  0  0  0  0  0  0
  1  2  1  0
  2  3  1  0
  3  4  2  0
  3  5  1  0
  5  6  1  0
  6  7  2  0
  7  8  1  0
  8  9  2  0
  9 10  1  0
 10 11  2  0
  5 12  1  0
 12 13  1  0
 13 14  1  0
 14 15  1  0
 15 16  1  0
 16 17  2  0
 16 18  1  0
 18 19  1  0
 19 20  1  0
 20 21  1  0
 21 22  1  0
 22 23  2  0
 23 24  1  0
 24 25  2  0
 25 26  1  0
 26 27  2  0
 21 28  2  0
 28 29  1  0
 29 30  1  0
 30 31  1  0
 15 32  1  0
 32 33  1  0
 11  6  1  0
 33 12  1  0
 30 20  2  0
 27 22  1  0
  1 34  1  0
  1 35  1  0
  1 36  1  0
  2 37  1  0
  2 38  1  0
  7 39  1  0
  8 40  1  0
  9 41  1  0
 10 42  1  0
 11 43  1  0
 12 44  1  0
 13 45  1  0
 13 46  1  0
 14 47  1  0
 14 48  1  0
 18 49  1  0
 18 50  1  0
 19 51  1  0
 19 52  1  0
 23 53  1  0
 24 54  1  0
 25 55  1  0
 26 56  1  0
 27 57  1  0
 31 58  1  0
 31 59  1  0
 31 60  1  0
 32 61  1  0
 32 62  1  0
 33 63  1  0
 33 64  1  0
M  END
>  <smiles>  (1) 
CCC(=O)N(c1ccccc1)C1CCN(C(=O)CCc2c(-c3ccccc3)noc2C)CC1

>  <score_type>  (1) 
oracle

>  <origin>  (1) 
autodockgpu

>  <m_score__min__energy>  (1) 
-9.5199999999999996

>  <m_primary>  (1) 
energy

>  <rmsd>  (1) 
5.514880763360975

>  <m_score__min__rmsd>  (1) 
5.514880763360975

>  <meeko>  (1) 
{"free_energy": -8.75, "intermolecular_energy": -11.13, "internal_energy": -1.88, "cluster_size": 3, "cluster_id": 5, "rank_in_cluster": 3}

>  <energy>  (1) 
-9.52

>  <cluster_rmsd>  (1) 
0.0

>  <cluster>  (1) 
1

$$$$

     RDKit          3D

 64 67  0  0  0  0  0  0  0  0999 V2000
  137.2290   81.3840  225.3480 C   0  0  0  0  0  0  0  0  0  0  0  0
  138.3720   80.8910  224.4900 C   0  0  0  0  0  0  0  0  0  0  0  0
  137.9600   79.9250  223.4780 C   0  0  0  0  0  0  0  0  0  0  0  0
  136.7220   79.7980  223.2150 O   0  0  0  0  0  0  0  0  0  0  0  0
  138.8310   79.0820  222.7320 N   0  0  0  0  0  0  0  0  0  0  0  0
  140.2070   79.4370  222.7300 C   0  0  0  0  0  0  0  0  0  0  0  0
  141.1690   78.8160  223.4830 C   0  0  0  0  0  0  0  0  0  0  0  0
  142.5010   79.2020  223.4470 C   0  0  0  0  0  0  0  0  0  0  0  0
  142.9170   80.2450  222.6370 C   0  0  0  0  0  0  0  0  0  0  0  0
  141.9470   80.8670  221.8810 C   0  0  0  0  0  0  0  0  0  0  0  0
  140.6110   80.4780  221.9190 C   0  0  0  0  0  0  0  0  0  0  0  0
  138.3380   77.8930  222.0170 C   0  0  0  0  0  0  0  0  0  0  0  0
  137.7050   76.9210  222.9640 C   0  0  0  0  0  0  0  0  0  0  0  0
  137.5150   75.5920  222.2620 C   0  0  0  0  0  0  0  0  0  0  0  0
  138.8240   74.9810  221.9810 N   0  0  0  0  0  0  0  0  0  0  0  0
  138.9980   73.5670  221.9370 C   0  0  0  0  0  0  0  0  0  0  0  0
  137.9760   72.8760  222.1550 O   0  0  0  0  0  0  0  0  0  0  0  0
  140.3410   73.0590  221.6420 C   0  0  0  0  0  0  0  0  0  0  0  0
  140.8810   72.0780  222.6350 C   0  0  0  0  0  0  0  0  0  0  0  0
  140.0430   70.9840  223.0800 C   0  0  0  0  0  0  0  0  0  0  0  0
  139.7770   70.4830  224.3350 C   0  0  0  0  0  0  0  0  0  0  0  0
  140.2450   70.8730  225.6450 C   0  0  0  0  0  0  0  0  0  0  0  0
  141.0500   71.9000  225.9740 C   0  0  0  0  0  0  0  0  0  0  0  0
  141.4050   72.2010  227.2840 C   0  0  0  0  0  0  0  0  0  0  0  0
  140.9270   71.4240  228.3250 C   0  0  0  0  0  0  0  0  0  0  0  0
  140.1010   70.3640  228.0140 C   0  0  0  0  0  0  0  0  0  0  0  0
  139.7640   70.0860  226.7130 C   0  0  0  0  0  0  0  0  0  0  0  0
  138.8540   69.4680  224.2080 N   0  0  0  0  0  0  0  0  0  0  0  0
  138.5560   69.3360  222.9570 O   0  0  0  0  0  0  0  0  0  0  0  0
  139.2310   70.2090  222.2360 C   0  0  0  0  0  0  0  0  0  0  0  0
  139.0800   70.2830  220.7610 C   0  0  0  0  0  0  0  0  0  0  0  0
  139.9070   75.9260  221.7600 C   0  0  0  0  0  0  0  0  0  0  0  0
  139.3780   77.2250  221.1900 C   0  0  0  0  0  0  0  0  0  0  0  0
  137.4922   81.2705  226.4100 H   0  0  0  0  0  0  0  0  0  0  0  0
  137.0373   82.4448  225.1292 H   0  0  0  0  0  0  0  0  0  0  0  0
  136.3259   80.7954  225.1292 H   0  0  0  0  0  0  0  0  0  0  0  0
  138.8258   81.7553  223.9831 H   0  0  0  0  0  0  0  0  0  0  0  0
  139.0827   80.3806  225.1567 H   0  0  0  0  0  0  0  0  0  0  0  0
  140.8749   77.9830  224.1384 H   0  0  0  0  0  0  0  0  0  0  0  0
  143.2365   78.6724  224.0703 H   0  0  0  0  0  0  0  0  0  0  0  0
  143.9698   80.5616  222.5988 H   0  0  0  0  0  0  0  0  0  0  0  0
  142.2388   81.7000  221.2245 H   0  0  0  0  0  0  0  0  0  0  0  0
  139.8715   81.0045  221.2978 H   0  0  0  0  0  0  0  0  0  0  0  0
  137.5736   78.2565  221.3145 H   0  0  0  0  0  0  0  0  0  0  0  0
  138.3558   76.7843  223.8402 H   0  0  0  0  0  0  0  0  0  0  0  0
  136.7291   77.3078  223.2925 H   0  0  0  0  0  0  0  0  0  0  0  0
  136.9297   74.9197  222.9065 H   0  0  0  0  0  0  0  0  0  0  0  0
  136.9818   75.7567  221.3141 H   0  0  0  0  0  0  0  0  0  0  0  0
  140.3108   72.5669  220.6587 H   0  0  0  0  0  0  0  0  0  0  0  0
  141.0122   73.9299  221.6756 H   0  0  0  0  0  0  0  0  0  0  0  0
  141.7809   71.6310  222.1873 H   0  0  0  0  0  0  0  0  0  0  0  0
  141.0255   72.6809  223.5436 H   0  0  0  0  0  0  0  0  0  0  0  0
  141.4468   72.5327  225.1664 H   0  0  0  0  0  0  0  0  0  0  0  0
  142.0651   73.0558  227.4930 H   0  0  0  0  0  0  0  0  0  0  0  0
  141.1975   71.6450  229.3681 H   0  0  0  0  0  0  0  0  0  0  0  0
  139.7058   69.7310  228.8222 H   0  0  0  0  0  0  0  0  0  0  0  0
  139.1051   69.2318  226.4982 H   0  0  0  0  0  0  0  0  0  0  0  0
  138.1174   70.7547  220.5142 H   0  0  0  0  0  0  0  0  0  0  0  0
  139.9006   70.8811  220.3380 H   0  0  0  0  0  0  0  0  0  0  0  0
  139.1101   69.2680  220.3380 H   0  0  0  0  0  0  0  0  0  0  0  0
  140.4088   76.1300  222.7174 H   0  0  0  0  0  0  0  0  0  0  0  0
  140.6162   75.4884  221.0420 H   0  0  0  0  0  0  0  0  0  0  0  0
  140.2241   77.9191  221.0785 H   0  0  0  0  0  0  0  0  0  0  0  0
  138.8962   76.9697  220.2347 H   0  0  0  0  0  0  0  0  0  0  0  0
  1  2  1  0
  2  3  1  0
  3  4  2  0
  3  5  1  0
  5  6  1  0
  6  7  2  0
  7  8  1  0
  8  9  2  0
  9 10  1  0
 10 11  2  0
  5 12  1  0
 12 13  1  0
 13 14  1  0
 14 15  1  0
 15 16  1  0
 16 17  2  0
 16 18  1  0
 18 19  1  0
 19 20  1  0
 20 21  1  0
 21 22  1  0
 22 23  2  0
 23 24  1  0
 24 25  2  0
 25 26  1  0
 26 27  2  0
 21 28  2  0
 28 29  1  0
 29 30  1  0
 30 31  1  0
 15 32  1  0
 32 33  1  0
 11  6  1  0
 33 12  1  0
 30 20  2  0
 27 22  1  0
  1 34  1  0
  1 35  1  0
  1 36  1  0
  2 37  1  0
  2 38  1  0
  7 39  1  0
  8 40  1  0
  9 41  1  0
 10 42  1  0
 11 43  1  0
 12 44  1  0
 13 45  1  0
 13 46  1  0
 14 47  1  0
 14 48  1  0
 18 49  1  0
 18 50  1  0
 19 51  1  0
 19 52  1  0
 23 53  1  0
 24 54  1  0
 25 55  1  0
 26 56  1  0
 27 57  1  0
 31 58  1  0
 31 59  1  0
 31 60  1  0
 32 61  1  0
 32 62  1  0
 33 63  1  0
 33 64  1  0
M  END
>  <smiles>  (2) 
CCC(=O)N(c1ccccc1)C1CCN(C(=O)CCc2c(-c3ccccc3)noc2C)CC1

>  <score_type>  (2) 
oracle

>  <origin>  (2) 
autodockgpu

>  <m_score__min__energy>  (2) 
-9.5199999999999996

>  <m_primary>  (2) 
energy

>  <rmsd>  (2) 
6.193409910742404

>  <m_score__min__rmsd>  (2) 
6.193409910742404

>  <meeko>  (2) 
{"free_energy": -8.44, "intermolecular_energy": -10.83, "internal_energy": -1.9, "cluster_size": 2, "cluster_id": 7, "rank_in_cluster": 2}

>  <energy>  (2) 
-9.24

>  <cluster_rmsd>  (2) 
0.79

>  <cluster>  (2) 
1

$$$$

     RDKit          3D

 64 67  0  0  0  0  0  0  0  0999 V2000
  143.0180   75.3620  218.8600 C   0  0  0  0  0  0  0  0  0  0  0  0
  142.8610   76.2420  220.0790 C   0  0  0  0  0  0  0  0  0  0  0  0
  141.7690   77.2020  219.9600 C   0  0  0  0  0  0  0  0  0  0  0  0
  141.7300   77.9700  218.9480 O   0  0  0  0  0  0  0  0  0  0  0  0
  140.7080   77.3720  220.8950 N   0  0  0  0  0  0  0  0  0  0  0  0
  140.8640   78.4150  221.8470 C   0  0  0  0  0  0  0  0  0  0  0  0
  140.4610   79.7100  221.6510 C   0  0  0  0  0  0  0  0  0  0  0  0
  140.6370   80.6940  222.6120 C   0  0  0  0  0  0  0  0  0  0  0  0
  141.2370   80.4020  223.8260 C   0  0  0  0  0  0  0  0  0  0  0  0
  141.6410   79.0990  224.0200 C   0  0  0  0  0  0  0  0  0  0  0  0
  141.4620   78.1130  223.0520 C   0  0  0  0  0  0  0  0  0  0  0  0
  139.5030   76.5260  220.8640 C   0  0  0  0  0  0  0  0  0  0  0  0
  139.0080   76.2450  222.2490 C   0  0  0  0  0  0  0  0  0  0  0  0
  137.9910   75.1240  222.1980 C   0  0  0  0  0  0  0  0  0  0  0  0
  138.6500   73.8650  221.8160 N   0  0  0  0  0  0  0  0  0  0  0  0
  138.1740   72.6010  222.2720 C   0  0  0  0  0  0  0  0  0  0  0  0
  137.1690   72.6240  223.0190 O   0  0  0  0  0  0  0  0  0  0  0  0
  138.8980   71.4050  221.8290 C   0  0  0  0  0  0  0  0  0  0  0  0
  139.8850   70.8580  222.8120 C   0  0  0  0  0  0  0  0  0  0  0  0
  139.5560   69.6600  223.5570 C   0  0  0  0  0  0  0  0  0  0  0  0
  139.6050   69.3730  224.9020 C   0  0  0  0  0  0  0  0  0  0  0  0
  140.0050   70.1670  226.0410 C   0  0  0  0  0  0  0  0  0  0  0  0
  139.6660   70.0080  227.3330 C   0  0  0  0  0  0  0  0  0  0  0  0
  140.1460   70.8210  228.3540 C   0  0  0  0  0  0  0  0  0  0  0  0
  141.0160   71.8560  228.0600 C   0  0  0  0  0  0  0  0  0  0  0  0
  141.3780   72.0420  226.7410 C   0  0  0  0  0  0  0  0  0  0  0  0
  140.8910   71.2260  225.7510 C   0  0  0  0  0  0  0  0  0  0  0  0
  139.1190   68.0980  225.0890 N   0  0  0  0  0  0  0  0  0  0  0  0
  138.7850   67.6100  223.9390 O   0  0  0  0  0  0  0  0  0  0  0  0
  139.0210   68.4920  222.9880 C   0  0  0  0  0  0  0  0  0  0  0  0
  138.7280   68.1970  221.5640 C   0  0  0  0  0  0  0  0  0  0  0  0
  139.8090   74.0170  220.9520 C   0  0  0  0  0  0  0  0  0  0  0  0
  139.6840   75.2630  220.1010 C   0  0  0  0  0  0  0  0  0  0  0  0
  143.2030   74.3252  219.1776 H   0  0  0  0  0  0  0  0  0  0  0  0
  142.0985   75.4024  218.2577 H   0  0  0  0  0  0  0  0  0  0  0  0
  143.8668   75.7180  218.2577 H   0  0  0  0  0  0  0  0  0  0  0  0
  142.6680   75.5997  220.9509 H   0  0  0  0  0  0  0  0  0  0  0  0
  143.7916   76.8184  220.1872 H   0  0  0  0  0  0  0  0  0  0  0  0
  139.9812   79.9782  220.6982 H   0  0  0  0  0  0  0  0  0  0  0  0
  140.2958   81.7196  222.4078 H   0  0  0  0  0  0  0  0  0  0  0  0
  141.3837   81.1725  224.5972 H   0  0  0  0  0  0  0  0  0  0  0  0
  142.1213   78.8280  224.9718 H   0  0  0  0  0  0  0  0  0  0  0  0
  141.8005   77.0854  223.2508 H   0  0  0  0  0  0  0  0  0  0  0  0
  138.7404   77.1050  220.3225 H   0  0  0  0  0  0  0  0  0  0  0  0
  139.8524   75.9466  222.8877 H   0  0  0  0  0  0  0  0  0  0  0  0
  138.5395   77.1496  222.6640 H   0  0  0  0  0  0  0  0  0  0  0  0
  137.5277   75.0069  223.1888 H   0  0  0  0  0  0  0  0  0  0  0  0
  137.2199   75.3690  221.4528 H   0  0  0  0  0  0  0  0  0  0  0  0
  138.1586   70.6190  221.6156 H   0  0  0  0  0  0  0  0  0  0  0  0
  139.4813   71.7098  220.9476 H   0  0  0  0  0  0  0  0  0  0  0  0
  140.8088   70.6450  222.2541 H   0  0  0  0  0  0  0  0  0  0  0  0
  139.9408   71.6380  223.5856 H   0  0  0  0  0  0  0  0  0  0  0  0
  138.9743   69.1939  227.5951 H   0  0  0  0  0  0  0  0  0  0  0  0
  139.8346   70.6416  229.3936 H   0  0  0  0  0  0  0  0  0  0  0  0
  141.4071   72.5104  228.8529 H   0  0  0  0  0  0  0  0  0  0  0  0
  142.0681   72.8576  226.4792 H   0  0  0  0  0  0  0  0  0  0  0  0
  141.1979   71.4013  224.7093 H   0  0  0  0  0  0  0  0  0  0  0  0
  137.9540   67.4178  221.5027 H   0  0  0  0  0  0  0  0  0  0  0  0
  138.3691   69.1102  221.0667 H   0  0  0  0  0  0  0  0  0  0  0  0
  139.6436   67.8443  221.0667 H   0  0  0  0  0  0  0  0  0  0  0  0
  140.7141   74.0931  221.5725 H   0  0  0  0  0  0  0  0  0  0  0  0
  139.8725   73.1415  220.2890 H   0  0  0  0  0  0  0  0  0  0  0  0
  140.5981   75.3570  219.4963 H   0  0  0  0  0  0  0  0  0  0  0  0
  138.7738   75.1342  219.4968 H   0  0  0  0  0  0  0  0  0  0  0  0
  1  2  1  0
  2  3  1  0
  3  4  2  0
  3  5  1  0
  5  6  1  0
  6  7  2  0
  7  8  1  0
  8  9  2  0
  9 10  1  0
 10 11  2  0
  5 12  1  0
 12 13  1  0
 13 14  1  0
 14 15  1  0
 15 16  1  0
 16 17  2  0
 16 18  1  0
 18 19  1  0
 19 20  1  0
 20 21  1  0
 21 22  1  0
 22 23  2  0
 23 24  1  0
 24 25  2  0
 25 26  1  0
 26 27  2  0
 21 28  2  0
 28 29  1  0
 29 30  1  0
 30 31  1  0
 15 32  1  0
 32 33  1  0
 11  6  1  0
 33 12  1  0
 30 20  2  0
 27 22  1  0
  1 34  1  0
  1 35  1  0
  1 36  1  0
  2 37  1  0
  2 38  1  0
  7 39  1  0
  8 40  1  0
  9 41  1  0
 10 42  1  0
 11 43  1  0
 12 44  1  0
 13 45  1  0
 13 46  1  0
 14 47  1  0
 14 48  1  0
 18 49  1  0
 18 50  1  0
 19 51  1  0
 19 52  1  0
 23 53  1  0
 24 54  1  0
 25 55  1  0
 26 56  1  0
 27 57  1  0
 31 58  1  0
 31 59  1  0
 31 60  1  0
 32 61  1  0
 32 62  1  0
 33 63  1  0
 33 64  1  0
M  END
>  <smiles>  (3) 
CCC(=O)N(c1ccccc1)C1CCN(C(=O)CCc2c(-c3ccccc3)noc2C)CC1

>  <score_type>  (3) 
oracle

>  <origin>  (3) 
autodockgpu

>  <m_score__min__energy>  (3) 
-9.5199999999999996

>  <m_primary>  (3) 
energy

>  <rmsd>  (3) 
7.292869971418046

>  <m_score__min__rmsd>  (3) 
7.292869971418046

>  <meeko>  (3) 
{"free_energy": -8.45, "intermolecular_energy": -10.84, "internal_energy": -1.8, "cluster_size": 14, "cluster_id": 3, "rank_in_cluster": 11}

>  <energy>  (3) 
-7.68

>  <cluster_rmsd>  (3) 
2.0

>  <cluster>  (3) 
1

$$$$

     RDKit          3D

 64 67  0  0  0  0  0  0  0  0999 V2000
  142.5540   79.5170  217.7170 C   0  0  0  0  0  0  0  0  0  0  0  0
  142.3360   80.7270  218.5970 C   0  0  0  0  0  0  0  0  0  0  0  0
  141.1640   80.6090  219.4580 C   0  0  0  0  0  0  0  0  0  0  0  0
  140.1410   81.3200  219.2080 O   0  0  0  0  0  0  0  0  0  0  0  0
  141.0490   79.7510  220.5880 N   0  0  0  0  0  0  0  0  0  0  0  0
  141.6410   80.2100  221.7960 C   0  0  0  0  0  0  0  0  0  0  0  0
  142.8560   79.7920  222.2720 C   0  0  0  0  0  0  0  0  0  0  0  0
  143.3910   80.2700  223.4590 C   0  0  0  0  0  0  0  0  0  0  0  0
  142.7060   81.2030  224.2220 C   0  0  0  0  0  0  0  0  0  0  0  0
  141.4850   81.6200  223.7400 C   0  0  0  0  0  0  0  0  0  0  0  0
  140.9510   81.1380  222.5470 C   0  0  0  0  0  0  0  0  0  0  0  0
  140.3360   78.4640  220.5170 C   0  0  0  0  0  0  0  0  0  0  0  0
  140.2500   77.8210  221.8670 C   0  0  0  0  0  0  0  0  0  0  0  0
  139.8180   76.3780  221.7060 C   0  0  0  0  0  0  0  0  0  0  0  0
  140.8780   75.6090  221.0360 N   0  0  0  0  0  0  0  0  0  0  0  0
  141.0740   74.2210  221.2930 C   0  0  0  0  0  0  0  0  0  0  0  0
  140.2970   73.6960  222.1240 O   0  0  0  0  0  0  0  0  0  0  0  0
  142.1540   73.5430  220.5680 C   0  0  0  0  0  0  0  0  0  0  0  0
  143.5300   74.0560  220.8530 C   0  0  0  0  0  0  0  0  0  0  0  0
  144.6160   73.7100  219.9590 C   0  0  0  0  0  0  0  0  0  0  0  0
  144.7180   73.7360  218.5860 C   0  0  0  0  0  0  0  0  0  0  0  0
  143.7750   74.1140  217.5590 C   0  0  0  0  0  0  0  0  0  0  0  0
  142.9460   73.3240  216.8520 C   0  0  0  0  0  0  0  0  0  0  0  0
  142.0490   73.8110  215.9070 C   0  0  0  0  0  0  0  0  0  0  0  0
  141.9820   75.1700  215.6550 C   0  0  0  0  0  0  0  0  0  0  0  0
  142.8230   76.0020  216.3660 C   0  0  0  0  0  0  0  0  0  0  0  0
  143.7000   75.4980  217.2940 C   0  0  0  0  0  0  0  0  0  0  0  0
  145.9990   73.3650  218.2420 N   0  0  0  0  0  0  0  0  0  0  0  0
  146.6630   73.1220  219.3240 O   0  0  0  0  0  0  0  0  0  0  0  0
  145.8950   73.3090  220.3790 C   0  0  0  0  0  0  0  0  0  0  0  0
  146.4030   73.1040  221.7570 C   0  0  0  0  0  0  0  0  0  0  0  0
  141.6960   76.3720  220.1080 C   0  0  0  0  0  0  0  0  0  0  0  0
  140.9090   77.5230  219.5190 C   0  0  0  0  0  0  0  0  0  0  0  0
  142.7139   78.6295  218.3469 H   0  0  0  0  0  0  0  0  0  0  0  0
  141.6694   79.3613  217.0819 H   0  0  0  0  0  0  0  0  0  0  0  0
  143.4373   79.6798  217.0819 H   0  0  0  0  0  0  0  0  0  0  0  0
  143.2240   80.8617  219.2321 H   0  0  0  0  0  0  0  0  0  0  0  0
  142.1679   81.5876  217.9329 H   0  0  0  0  0  0  0  0  0  0  0  0
  143.4270   79.0516  221.6926 H   0  0  0  0  0  0  0  0  0  0  0  0
  144.3710   79.9042  223.7992 H   0  0  0  0  0  0  0  0  0  0  0  0
  143.1172   81.5910  225.1656 H   0  0  0  0  0  0  0  0  0  0  0  0
  140.9112   82.3598  224.3175 H   0  0  0  0  0  0  0  0  0  0  0  0
  139.9716   81.5004  222.2015 H   0  0  0  0  0  0  0  0  0  0  0  0
  139.3196   78.7000  220.1688 H   0  0  0  0  0  0  0  0  0  0  0  0
  141.2351   77.8577  222.3552 H   0  0  0  0  0  0  0  0  0  0  0  0
  139.5169   78.3589  222.4860 H   0  0  0  0  0  0  0  0  0  0  0  0
  139.6231   75.9430  222.6973 H   0  0  0  0  0  0  0  0  0  0  0  0
  138.9031   76.3401  221.0964 H   0  0  0  0  0  0  0  0  0  0  0  0
  142.1261   72.4762  220.8348 H   0  0  0  0  0  0  0  0  0  0  0  0
  141.9718   73.7326  219.4999 H   0  0  0  0  0  0  0  0  0  0  0  0
  143.4658   75.1540  220.8696 H   0  0  0  0  0  0  0  0  0  0  0  0
  143.8020   73.5603  221.7965 H   0  0  0  0  0  0  0  0  0  0  0  0
  142.9794   72.2391  217.0303 H   0  0  0  0  0  0  0  0  0  0  0  0
  141.3937   73.1167  215.3607 H   0  0  0  0  0  0  0  0  0  0  0  0
  141.2801   75.5747  214.9110 H   0  0  0  0  0  0  0  0  0  0  0  0
  142.7899   77.0867  216.1861 H   0  0  0  0  0  0  0  0  0  0  0  0
  144.3583   76.1876  217.8427 H   0  0  0  0  0  0  0  0  0  0  0  0
  145.6349   73.4140  222.4808 H   0  0  0  0  0  0  0  0  0  0  0  0
  146.6394   72.0401  221.9062 H   0  0  0  0  0  0  0  0  0  0  0  0
  147.3116   73.7059  221.9062 H   0  0  0  0  0  0  0  0  0  0  0  0
  142.5716   76.7697  220.6420 H   0  0  0  0  0  0  0  0  0  0  0  0
  142.0148   75.7081  219.2909 H   0  0  0  0  0  0  0  0  0  0  0  0
  141.5789   78.0922  218.8577 H   0  0  0  0  0  0  0  0  0  0  0  0
  140.0544   77.0747  218.9910 H   0  0  0  0  0  0  0  0  0  0  0  0
  1  2  1  0
  2  3  1  0
  3  4  2  0
  3  5  1  0
  5  6  1  0
  6  7  2  0
  7  8  1  0
  8  9  2  0
  9 10  1  0
 10 11  2  0
  5 12  1  0
 12 13  1  0
 13 14  1  0
 14 15  1  0
 15 16  1  0
 16 17  2  0
 16 18  1  0
 18 19  1  0
 19 20  1  0
 20 21  1  0
 21 22  1  0
 22 23  2  0
 23 24  1  0
 24 25  2  0
 25 26  1  0
 26 27  2  0
 21 28  2  0
 28 29  1  0
 29 30  1  0
 30 31  1  0
 15 32  1  0
 32 33  1  0
 11  6  1  0
 33 12  1  0
 30 20  2  0
 27 22  1  0
  1 34  1  0
  1 35  1  0
  1 36  1  0
  2 37  1  0
  2 38  1  0
  7 39  1  0
  8 40  1  0
  9 41  1  0
 10 42  1  0
 11 43  1  0
 12 44  1  0
 13 45  1  0
 13 46  1  0
 14 47  1  0
 14 48  1  0
 18 49  1  0
 18 50  1  0
 19 51  1  0
 19 52  1  0
 23 53  1  0
 24 54  1  0
 25 55  1  0
 26 56  1  0
 27 57  1  0
 31 58  1  0
 31 59  1  0
 31 60  1  0
 32 61  1  0
 32 62  1  0
 33 63  1  0
 33 64  1  0
M  END
>  <smiles>  (4) 
CCC(=O)N(c1ccccc1)C1CCN(C(=O)CCc2c(-c3ccccc3)noc2C)CC1

>  <score_type>  (4) 
oracle

>  <origin>  (4) 
autodockgpu

>  <m_score__min__energy>  (4) 
-9.5199999999999996

>  <m_primary>  (4) 
energy

>  <rmsd>  (4) 
4.825493423634319

>  <m_score__min__rmsd>  (4) 
4.825493423634319

>  <meeko>  (4) 
{"free_energy": -8.02, "intermolecular_energy": -10.41, "internal_energy": -2.44, "cluster_size": 2, "cluster_id": 10, "rank_in_cluster": 1}

>  <energy>  (4) 
-9.08

>  <cluster_rmsd>  (4) 
0.0

>  <cluster>  (4) 
2

$$$$

     RDKit          3D

 64 67  0  0  0  0  0  0  0  0999 V2000
  146.3260   73.7740  221.5460 C   0  0  0  0  0  0  0  0  0  0  0  0
  145.6660   72.6380  220.7980 C   0  0  0  0  0  0  0  0  0  0  0  0
  145.0320   73.0580  219.5530 C   0  0  0  0  0  0  0  0  0  0  0  0
  145.6720   72.9310  218.4610 O   0  0  0  0  0  0  0  0  0  0  0  0
  143.7280   73.6160  219.4330 N   0  0  0  0  0  0  0  0  0  0  0  0
  142.6740   72.9040  220.0670 C   0  0  0  0  0  0  0  0  0  0  0  0
  141.9980   73.3440  221.1740 C   0  0  0  0  0  0  0  0  0  0  0  0
  140.9760   72.6100  221.7580 C   0  0  0  0  0  0  0  0  0  0  0  0
  140.5930   71.3850  221.2360 C   0  0  0  0  0  0  0  0  0  0  0  0
  141.2760   70.9460  220.1220 C   0  0  0  0  0  0  0  0  0  0  0  0
  142.3010   71.6860  219.5390 C   0  0  0  0  0  0  0  0  0  0  0  0
  143.4850   74.8760  218.7100 C   0  0  0  0  0  0  0  0  0  0  0  0
  143.6690   76.0580  219.6120 C   0  0  0  0  0  0  0  0  0  0  0  0
  143.0970   77.2900  218.9420 C   0  0  0  0  0  0  0  0  0  0  0  0
  141.6340   77.1730  218.8400 N   0  0  0  0  0  0  0  0  0  0  0  0
  140.7850   78.3180  218.8690 C   0  0  0  0  0  0  0  0  0  0  0  0
  141.3550   79.4260  218.9910 O   0  0  0  0  0  0  0  0  0  0  0  0
  139.3410   78.0930  218.7520 C   0  0  0  0  0  0  0  0  0  0  0  0
  138.6390   77.7900  220.0390 C   0  0  0  0  0  0  0  0  0  0  0  0
  139.3000   76.9640  221.0300 C   0  0  0  0  0  0  0  0  0  0  0  0
  140.2310   77.2620  221.9990 C   0  0  0  0  0  0  0  0  0  0  0  0
  140.8770   78.5020  222.3630 C   0  0  0  0  0  0  0  0  0  0  0  0
  142.1180   78.9210  222.0570 C   0  0  0  0  0  0  0  0  0  0  0  0
  142.6210   80.1600  222.4350 C   0  0  0  0  0  0  0  0  0  0  0  0
  141.8320   81.0300  223.1680 C   0  0  0  0  0  0  0  0  0  0  0  0
  140.5550   80.6240  223.4980 C   0  0  0  0  0  0  0  0  0  0  0  0
  140.0800   79.3950  223.1110 C   0  0  0  0  0  0  0  0  0  0  0  0
  140.4820   76.1170  222.7210 N   0  0  0  0  0  0  0  0  0  0  0  0
  139.7590   75.1590  222.2420 O   0  0  0  0  0  0  0  0  0  0  0  0
  139.0340   75.6000  221.2330 C   0  0  0  0  0  0  0  0  0  0  0  0
  138.1050   74.7100  220.4940 C   0  0  0  0  0  0  0  0  0  0  0  0
  141.1350   75.8130  218.7120 C   0  0  0  0  0  0  0  0  0  0  0  0
  142.1600   74.9270  218.0360 C   0  0  0  0  0  0  0  0  0  0  0  0
  146.2283   73.6058  222.6287 H   0  0  0  0  0  0  0  0  0  0  0  0
  147.3916   73.8202  221.2768 H   0  0  0  0  0  0  0  0  0  0  0  0
  145.8384   74.7225  221.2768 H   0  0  0  0  0  0  0  0  0  0  0  0
  146.4312   71.8836  220.5629 H   0  0  0  0  0  0  0  0  0  0  0  0
  144.8741   72.2368  221.4476 H   0  0  0  0  0  0  0  0  0  0  0  0
  142.2751   74.3128  221.6152 H   0  0  0  0  0  0  0  0  0  0  0  0
  140.4630   73.0056  222.6470 H   0  0  0  0  0  0  0  0  0  0  0  0
  139.7841   70.7923  221.6881 H   0  0  0  0  0  0  0  0  0  0  0  0
  141.0017   69.9775  219.6784 H   0  0  0  0  0  0  0  0  0  0  0  0
  142.8177   71.2958  218.6497 H   0  0  0  0  0  0  0  0  0  0  0  0
  144.2389   74.9163  217.9100 H   0  0  0  0  0  0  0  0  0  0  0  0
  143.1457   75.8800  220.5630 H   0  0  0  0  0  0  0  0  0  0  0  0
  144.7406   76.2088  219.8094 H   0  0  0  0  0  0  0  0  0  0  0  0
  143.3508   78.1795  219.5372 H   0  0  0  0  0  0  0  0  0  0  0  0
  143.5234   77.3831  217.9323 H   0  0  0  0  0  0  0  0  0  0  0  0
  138.8887   78.9990  218.3223 H   0  0  0  0  0  0  0  0  0  0  0  0
  139.2203   77.2009  218.1199 H   0  0  0  0  0  0  0  0  0  0  0  0
  138.4198   78.7547  220.5199 H   0  0  0  0  0  0  0  0  0  0  0  0
  137.7755   77.1836  219.7283 H   0  0  0  0  0  0  0  0  0  0  0  0
  142.7679   78.2485  221.4779 H   0  0  0  0  0  0  0  0  0  0  0  0
  143.6440   80.4490  222.1524 H   0  0  0  0  0  0  0  0  0  0  0  0
  142.2114   82.0149  223.4779 H   0  0  0  0  0  0  0  0  0  0  0  0
  139.9072   81.2956  224.0804 H   0  0  0  0  0  0  0  0  0  0  0  0
  139.0575   79.1005  223.3896 H   0  0  0  0  0  0  0  0  0  0  0  0
  137.5024   74.1327  221.2107 H   0  0  0  0  0  0  0  0  0  0  0  0
  137.4406   75.3173  219.8617 H   0  0  0  0  0  0  0  0  0  0  0  0
  138.6832   74.0202  219.8617 H   0  0  0  0  0  0  0  0  0  0  0  0
  140.9165   75.4131  219.7132 H   0  0  0  0  0  0  0  0  0  0  0  0
  140.2219   75.8281  218.0988 H   0  0  0  0  0  0  0  0  0  0  0  0
  141.7562   73.9045  217.9983 H   0  0  0  0  0  0  0  0  0  0  0  0
  142.3362   75.3623  217.0413 H   0  0  0  0  0  0  0  0  0  0  0  0
  1  2  1  0
  2  3  1  0
  3  4  2  0
  3  5  1  0
  5  6  1  0
  6  7  2  0
  7  8  1  0
  8  9  2  0
  9 10  1  0
 10 11  2  0
  5 12  1  0
 12 13  1  0
 13 14  1  0
 14 15  1  0
 15 16  1  0
 16 17  2  0
 16 18  1  0
 18 19  1  0
 19 20  1  0
 20 21  1  0
 21 22  1  0
 22 23  2  0
 23 24  1  0
 24 25  2  0
 25 26  1  0
 26 27  2  0
 21 28  2  0
 28 29  1  0
 29 30  1  0
 30 31  1  0
 15 32  1  0
 32 33  1  0
 11  6  1  0
 33 12  1  0
 30 20  2  0
 27 22  1  0
  1 34  1  0
  1 35  1  0
  1 36  1  0
  2 37  1  0
  2 38  1  0
  7 39  1  0
  8 40  1  0
  9 41  1  0
 10 42  1  0
 11 43  1  0
 12 44  1  0
 13 45  1  0
 13 46  1  0
 14 47  1  0
 14 48  1  0
 18 49  1  0
 18 50  1  0
 19 51  1  0
 19 52  1  0
 23 53  1  0
 24 54  1  0
 25 55  1  0
 26 56  1  0
 27 57  1  0
 31 58  1  0
 31 59  1  0
 31 60  1  0
 32 61  1  0
 32 62  1  0
 33 63  1  0
 33 64  1  0
M  END
>  <smiles>  (5) 
CCC(=O)N(c1ccccc1)C1CCN(C(=O)CCc2c(-c3ccccc3)noc2C)CC1

>  <score_type>  (5) 
oracle

>  <origin>  (5) 
autodockgpu

>  <m_score__min__energy>  (5) 
-9.5199999999999996

>  <m_primary>  (5) 
energy

>  <rmsd>  (5) 
5.112594505887834

>  <m_score__min__rmsd>  (5) 
5.112594505887834

>  <meeko>  (5) 
{"free_energy": -6.81, "intermolecular_energy": -9.2, "internal_energy": -3.62, "cluster_size": 10, "cluster_id": 12, "rank_in_cluster": 8}

>  <energy>  (5) 
-8.57

>  <cluster_rmsd>  (5) 
0.73

>  <cluster>  (5) 
2

$$$$

     RDKit          3D

 64 67  0  0  0  0  0  0  0  0999 V2000
  138.0310   76.5040  222.7100 C   0  0  0  0  0  0  0  0  0  0  0  0
  137.7690   77.6350  221.7420 C   0  0  0  0  0  0  0  0  0  0  0  0
  138.8570   77.8470  220.7950 C   0  0  0  0  0  0  0  0  0  0  0  0
  138.6090   78.4230  219.6890 O   0  0  0  0  0  0  0  0  0  0  0  0
  140.2140   77.4610  220.9900 N   0  0  0  0  0  0  0  0  0  0  0  0
  141.0240   78.3530  221.7440 C   0  0  0  0  0  0  0  0  0  0  0  0
  141.7740   79.3640  221.2030 C   0  0  0  0  0  0  0  0  0  0  0  0
  142.5510   80.2080  221.9820 C   0  0  0  0  0  0  0  0  0  0  0  0
  142.6010   80.0600  223.3580 C   0  0  0  0  0  0  0  0  0  0  0  0
  141.8460   79.0420  223.8990 C   0  0  0  0  0  0  0  0  0  0  0  0
  141.0660   78.1960  223.1140 C   0  0  0  0  0  0  0  0  0  0  0  0
  140.7450   76.1940  220.4590 C   0  0  0  0  0  0  0  0  0  0  0  0
  139.6700   75.4040  219.7790 C   0  0  0  0  0  0  0  0  0  0  0  0
  140.1630   73.9900  219.5460 C   0  0  0  0  0  0  0  0  0  0  0  0
  140.3250   73.2960  220.8330 N   0  0  0  0  0  0  0  0  0  0  0  0
  140.1480   71.8870  220.9530 C   0  0  0  0  0  0  0  0  0  0  0  0
  139.8430   71.2760  219.9030 O   0  0  0  0  0  0  0  0  0  0  0  0
  140.3400   71.2900  222.2790 C   0  0  0  0  0  0  0  0  0  0  0  0
  139.1040   70.7260  222.9060 C   0  0  0  0  0  0  0  0  0  0  0  0
  139.2030   69.5350  223.7250 C   0  0  0  0  0  0  0  0  0  0  0  0
  139.6660   69.3390  225.0070 C   0  0  0  0  0  0  0  0  0  0  0  0
  140.2150   70.2530  225.9810 C   0  0  0  0  0  0  0  0  0  0  0  0
  141.0100   71.3190  225.7740 C   0  0  0  0  0  0  0  0  0  0  0  0
  141.4500   72.1530  226.7950 C   0  0  0  0  0  0  0  0  0  0  0  0
  141.0720   71.9020  228.1020 C   0  0  0  0  0  0  0  0  0  0  0  0
  140.2590   70.8140  228.3430 C   0  0  0  0  0  0  0  0  0  0  0  0
  139.8360   70.0040  227.3180 C   0  0  0  0  0  0  0  0  0  0  0  0
  139.4780   68.0140  225.3350 N   0  0  0  0  0  0  0  0  0  0  0  0
  138.9340   67.4130  224.3280 O   0  0  0  0  0  0  0  0  0  0  0  0
  138.7460   68.2640  223.3390 C   0  0  0  0  0  0  0  0  0  0  0  0
  138.1320   67.8430  222.0560 C   0  0  0  0  0  0  0  0  0  0  0  0
  140.6710   74.1550  221.9530 C   0  0  0  0  0  0  0  0  0  0  0  0
  141.4420   75.3690  221.4810 C   0  0  0  0  0  0  0  0  0  0  0  0
  137.9447   76.8767  223.7413 H   0  0  0  0  0  0  0  0  0  0  0  0
  137.2945   75.7034  222.5466 H   0  0  0  0  0  0  0  0  0  0  0  0
  139.0445   76.1088  222.5466 H   0  0  0  0  0  0  0  0  0  0  0  0
  136.8537   77.4057  221.1766 H   0  0  0  0  0  0  0  0  0  0  0  0
  137.6697   78.5557  222.3357 H   0  0  0  0  0  0  0  0  0  0  0  0
  141.7593   79.5112  220.1130 H   0  0  0  0  0  0  0  0  0  0  0  0
  143.1355   81.0058  221.5005 H   0  0  0  0  0  0  0  0  0  0  0  0
  143.2131   80.7222  223.9879 H   0  0  0  0  0  0  0  0  0  0  0  0
  141.8598   78.8923  224.9887 H   0  0  0  0  0  0  0  0  0  0  0  0
  140.4791   77.3967  223.5900 H   0  0  0  0  0  0  0  0  0  0  0  0
  141.5075   76.4719  219.7164 H   0  0  0  0  0  0  0  0  0  0  0  0
  138.7725   75.3807  220.4146 H   0  0  0  0  0  0  0  0  0  0  0  0
  139.4206   75.8721  218.8153 H   0  0  0  0  0  0  0  0  0  0  0  0
  139.4328   73.4466  218.9283 H   0  0  0  0  0  0  0  0  0  0  0  0
  141.1339   74.0261  219.0301 H   0  0  0  0  0  0  0  0  0  0  0  0
  141.0751   70.4772  222.1836 H   0  0  0  0  0  0  0  0  0  0  0  0
  140.6724   72.1062  222.9373 H   0  0  0  0  0  0  0  0  0  0  0  0
  138.6768   71.5167  223.5403 H   0  0  0  0  0  0  0  0  0  0  0  0
  138.5015   70.4001  222.0453 H   0  0  0  0  0  0  0  0  0  0  0  0
  141.3276   71.5415  224.7446 H   0  0  0  0  0  0  0  0  0  0  0  0
  142.0979   73.0115  226.5642 H   0  0  0  0  0  0  0  0  0  0  0  0
  141.4095   72.5504  228.9240 H   0  0  0  0  0  0  0  0  0  0  0  0
  139.9443   70.5916  229.3733 H   0  0  0  0  0  0  0  0  0  0  0  0
  139.1887   69.1436  227.5432 H   0  0  0  0  0  0  0  0  0  0  0  0
  137.2404   67.2317  222.2594 H   0  0  0  0  0  0  0  0  0  0  0  0
  137.8422   68.7333  221.4786 H   0  0  0  0  0  0  0  0  0  0  0  0
  138.8580   67.2518  221.4786 H   0  0  0  0  0  0  0  0  0  0  0  0
  139.7484   74.4855  222.4525 H   0  0  0  0  0  0  0  0  0  0  0  0
  141.3020   73.5863  222.6518 H   0  0  0  0  0  0  0  0  0  0  0  0
  141.6446   76.0062  222.3545 H   0  0  0  0  0  0  0  0  0  0  0  0
  142.3546   74.9874  220.9998 H   0  0  0  0  0  0  0  0  0  0  0  0
  1  2  1  0
  2  3  1  0
  3  4  2  0
  3  5  1  0
  5  6  1  0
  6  7  2  0
  7  8  1  0
  8  9  2  0
  9 10  1  0
 10 11  2  0
  5 12  1  0
 12 13  1  0
 13 14  1  0
 14 15  1  0
 15 16  1  0
 16 17  2  0
 16 18  1  0
 18 19  1  0
 19 20  1  0
 20 21  1  0
 21 22  1  0
 22 23  2  0
 23 24  1  0
 24 25  2  0
 25 26  1  0
 26 27  2  0
 21 28  2  0
 28 29  1  0
 29 30  1  0
 30 31  1  0
 15 32  1  0
 32 33  1  0
 11  6  1  0
 33 12  1  0
 30 20  2  0
 27 22  1  0
  1 34  1  0
  1 35  1  0
  1 36  1  0
  2 37  1  0
  2 38  1  0
  7 39  1  0
  8 40  1  0
  9 41  1  0
 10 42  1  0
 11 43  1  0
 12 44  1  0
 13 45  1  0
 13 46  1  0
 14 47  1  0
 14 48  1  0
 18 49  1  0
 18 50  1  0
 19 51  1  0
 19 52  1  0
 23 53  1  0
 24 54  1  0
 25 55  1  0
 26 56  1  0
 27 57  1  0
 31 58  1  0
 31 59  1  0
 31 60  1  0
 32 61  1  0
 32 62  1  0
 33 63  1  0
 33 64  1  0
M  END
>  <smiles>  (6) 
CCC(=O)N(c1ccccc1)C1CCN(C(=O)CCc2c(-c3ccccc3)noc2C)CC1

>  <score_type>  (6) 
oracle

>  <origin>  (6) 
autodockgpu

>  <m_score__min__energy>  (6) 
-9.5199999999999996

>  <m_primary>  (6) 
energy

>  <rmsd>  (6) 
7.44080330849379

>  <m_score__min__rmsd>  (6) 
7.44080330849379

>  <meeko>  (6) 
{"free_energy": -8.63, "intermolecular_energy": -11.01, "internal_energy": -2.01, "cluster_size": 14, "cluster_id": 3, "rank_in_cluster": 7}

>  <energy>  (6) 
-8.48

>  <cluster_rmsd>  (6) 
1.61

>  <cluster>  (6) 
2

$$$$

     RDKit          3D

 64 67  0  0  0  0  0  0  0  0999 V2000
  145.7660   73.3670  221.5960 C   0  0  0  0  0  0  0  0  0  0  0  0
  146.3280   73.5700  220.2070 C   0  0  0  0  0  0  0  0  0  0  0  0
  145.4230   73.1320  219.1500 C   0  0  0  0  0  0  0  0  0  0  0  0
  145.8920   72.4620  218.1760 O   0  0  0  0  0  0  0  0  0  0  0  0
  144.0240   73.3880  219.0960 N   0  0  0  0  0  0  0  0  0  0  0  0
  143.6340   74.7450  218.9350 C   0  0  0  0  0  0  0  0  0  0  0  0
  143.2200   75.5590  219.9560 C   0  0  0  0  0  0  0  0  0  0  0  0
  142.8470   76.8790  219.7470 C   0  0  0  0  0  0  0  0  0  0  0  0
  142.8790   77.4330  218.4780 C   0  0  0  0  0  0  0  0  0  0  0  0
  143.2950   76.6110  217.4530 C   0  0  0  0  0  0  0  0  0  0  0  0
  143.6690   75.2870  217.6670 C   0  0  0  0  0  0  0  0  0  0  0  0
  143.0320   72.3030  219.1810 C   0  0  0  0  0  0  0  0  0  0  0  0
  141.6810   72.7740  218.7380 C   0  0  0  0  0  0  0  0  0  0  0  0
  140.6380   71.7540  219.1470 C   0  0  0  0  0  0  0  0  0  0  0  0
  140.5160   71.7210  220.6120 N   0  0  0  0  0  0  0  0  0  0  0  0
  139.2860   71.3960  221.2550 C   0  0  0  0  0  0  0  0  0  0  0  0
  138.3170   71.1450  220.5030 O   0  0  0  0  0  0  0  0  0  0  0  0
  139.2710   71.3830  222.7220 C   0  0  0  0  0  0  0  0  0  0  0  0
  138.3150   70.4110  223.3390 C   0  0  0  0  0  0  0  0  0  0  0  0
  138.8320   69.2240  223.9900 C   0  0  0  0  0  0  0  0  0  0  0  0
  139.5140   69.0500  225.1730 C   0  0  0  0  0  0  0  0  0  0  0  0
  139.9550   69.9910  226.1760 C   0  0  0  0  0  0  0  0  0  0  0  0
  139.6240   70.0420  227.4800 C   0  0  0  0  0  0  0  0  0  0  0  0
  140.1450   70.9800  228.3630 C   0  0  0  0  0  0  0  0  0  0  0  0
  141.0510   71.9240  227.9120 C   0  0  0  0  0  0  0  0  0  0  0  0
  141.4060   71.8950  226.5790 C   0  0  0  0  0  0  0  0  0  0  0  0
  140.8790   70.9580  225.7260 C   0  0  0  0  0  0  0  0  0  0  0  0
  139.7160   67.7000  225.3590 N   0  0  0  0  0  0  0  0  0  0  0  0
  139.1970   67.0630  224.3610 O   0  0  0  0  0  0  0  0  0  0  0  0
  138.6560   67.9150  223.5130 C   0  0  0  0  0  0  0  0  0  0  0  0
  137.9830   67.4560  222.2720 C   0  0  0  0  0  0  0  0  0  0  0  0
  141.7340   72.0460  221.3370 C   0  0  0  0  0  0  0  0  0  0  0  0
  142.9570   71.6720  220.5260 C   0  0  0  0  0  0  0  0  0  0  0  0
  146.5257   73.6414  222.3426 H   0  0  0  0  0  0  0  0  0  0  0  0
  144.8766   74.0007  221.7279 H   0  0  0  0  0  0  0  0  0  0  0  0
  145.4868   72.3112  221.7279 H   0  0  0  0  0  0  0  0  0  0  0  0
  146.5359   74.6411  220.0673 H   0  0  0  0  0  0  0  0  0  0  0  0
  147.2390   72.9582  220.1309 H   0  0  0  0  0  0  0  0  0  0  0  0
  143.1819   75.1520  220.9772 H   0  0  0  0  0  0  0  0  0  0  0  0
  142.5218   77.4931  220.5997 H   0  0  0  0  0  0  0  0  0  0  0  0
  142.5867   78.4779  218.2971 H   0  0  0  0  0  0  0  0  0  0  0  0
  143.3329   77.0149  216.4305 H   0  0  0  0  0  0  0  0  0  0  0  0
  143.9950   74.6682  216.8180 H   0  0  0  0  0  0  0  0  0  0  0  0
  143.3805   71.5190  218.4926 H   0  0  0  0  0  0  0  0  0  0  0  0
  141.4552   73.7409  219.2113 H   0  0  0  0  0  0  0  0  0  0  0  0
  141.6718   72.8933  217.6445 H   0  0  0  0  0  0  0  0  0  0  0  0
  139.6680   72.0279  218.7065 H   0  0  0  0  0  0  0  0  0  0  0  0
  140.9433   70.7604  218.7871 H   0  0  0  0  0  0  0  0  0  0  0  0
  140.2838   71.1328  223.0708 H   0  0  0  0  0  0  0  0  0  0  0  0
  138.9346   72.3829  223.0335 H   0  0  0  0  0  0  0  0  0  0  0  0
  137.7367   70.9646  224.0934 H   0  0  0  0  0  0  0  0  0  0  0  0
  137.7559   70.0139  222.4790 H   0  0  0  0  0  0  0  0  0  0  0  0
  138.9051   69.3042  227.8658 H   0  0  0  0  0  0  0  0  0  0  0  0
  139.8377   70.9722  229.4192 H   0  0  0  0  0  0  0  0  0  0  0  0
  141.4751   72.6745  228.5953 H   0  0  0  0  0  0  0  0  0  0  0  0
  142.1231   72.6349  226.1938 H   0  0  0  0  0  0  0  0  0  0  0  0
  141.1833   70.9608  224.6689 H   0  0  0  0  0  0  0  0  0  0  0  0
  137.1005   66.8541  222.5346 H   0  0  0  0  0  0  0  0  0  0  0  0
  137.6688   68.3289  221.6809 H   0  0  0  0  0  0  0  0  0  0  0  0
  138.6810   66.8449  221.6809 H   0  0  0  0  0  0  0  0  0  0  0  0
  141.7540   73.1264  221.5429 H   0  0  0  0  0  0  0  0  0  0  0  0
  141.7470   71.4772  222.2784 H   0  0  0  0  0  0  0  0  0  0  0  0
  143.8494   71.9722  221.0948 H   0  0  0  0  0  0  0  0  0  0  0  0
  142.8948   70.5871  220.3554 H   0  0  0  0  0  0  0  0  0  0  0  0
  1  2  1  0
  2  3  1  0
  3  4  2  0
  3  5  1  0
  5  6  1  0
  6  7  2  0
  7  8  1  0
  8  9  2  0
  9 10  1  0
 10 11  2  0
  5 12  1  0
 12 13  1  0
 13 14  1  0
 14 15  1  0
 15 16  1  0
 16 17  2  0
 16 18  1  0
 18 19  1  0
 19 20  1  0
 20 21  1  0
 21 22  1  0
 22 23  2  0
 23 24  1  0
 24 25  2  0
 25 26  1  0
 26 27  2  0
 21 28  2  0
 28 29  1  0
 29 30  1  0
 30 31  1  0
 15 32  1  0
 32 33  1  0
 11  6  1  0
 33 12  1  0
 30 20  2  0
 27 22  1  0
  1 34  1  0
  1 35  1  0
  1 36  1  0
  2 37  1  0
  2 38  1  0
  7 39  1  0
  8 40  1  0
  9 41  1  0
 10 42  1  0
 11 43  1  0
 12 44  1  0
 13 45  1  0
 13 46  1  0
 14 47  1  0
 14 48  1  0
 18 49  1  0
 18 50  1  0
 19 51  1  0
 19 52  1  0
 23 53  1  0
 24 54  1  0
 25 55  1  0
 26 56  1  0
 27 57  1  0
 31 58  1  0
 31 59  1  0
 31 60  1  0
 32 61  1  0
 32 62  1  0
 33 63  1  0
 33 64  1  0
M  END
>  <smiles>  (7) 
CCC(=O)N(c1ccccc1)C1CCN(C(=O)CCc2c(-c3ccccc3)noc2C)CC1

>  <score_type>  (7) 
oracle

>  <origin>  (7) 
autodockgpu

>  <m_score__min__energy>  (7) 
-9.5199999999999996

>  <m_primary>  (7) 
energy

>  <rmsd>  (7) 
8.78308850960519

>  <m_score__min__rmsd>  (7) 
8.78308850960519

>  <meeko>  (7) 
{"free_energy": -9.08, "intermolecular_energy": -11.47, "internal_energy": -2.11, "cluster_size": 3, "cluster_id": 2, "rank_in_cluster": 1}

>  <energy>  (7) 
-9.08

>  <cluster_rmsd>  (7) 
0.0

>  <cluster>  (7) 
3

$$$$

     RDKit          3D

 64 67  0  0  0  0  0  0  0  0999 V2000
  142.5390   81.2200  217.9300 C   0  0  0  0  0  0  0  0  0  0  0  0
  141.3780   80.4810  218.5530 C   0  0  0  0  0  0  0  0  0  0  0  0
  141.7800   79.2760  219.2700 C   0  0  0  0  0  0  0  0  0  0  0  0
  142.6450   78.5060  218.7460 O   0  0  0  0  0  0  0  0  0  0  0  0
  141.2840   78.8610  220.5390 N   0  0  0  0  0  0  0  0  0  0  0  0
  141.6210   79.6820  221.6500 C   0  0  0  0  0  0  0  0  0  0  0  0
  142.7020   79.4760  222.4660 C   0  0  0  0  0  0  0  0  0  0  0  0
  142.9880   80.3050  223.5400 C   0  0  0  0  0  0  0  0  0  0  0  0
  142.1790   81.3900  223.8350 C   0  0  0  0  0  0  0  0  0  0  0  0
  141.0930   81.5940  223.0120 C   0  0  0  0  0  0  0  0  0  0  0  0
  140.8090   80.7600  221.9330 C   0  0  0  0  0  0  0  0  0  0  0  0
  140.4470   77.6590  220.6910 C   0  0  0  0  0  0  0  0  0  0  0  0
  140.6530   77.0270  222.0340 C   0  0  0  0  0  0  0  0  0  0  0  0
  140.0470   75.6390  222.0310 C   0  0  0  0  0  0  0  0  0  0  0  0
  140.8080   74.7610  221.1280 N   0  0  0  0  0  0  0  0  0  0  0  0
  140.9200   73.3600  221.3630 C   0  0  0  0  0  0  0  0  0  0  0  0
  140.3380   72.9210  222.3810 O   0  0  0  0  0  0  0  0  0  0  0  0
  141.6950   72.5710  220.3990 C   0  0  0  0  0  0  0  0  0  0  0  0
  142.8990   71.8840  220.9630 C   0  0  0  0  0  0  0  0  0  0  0  0
  144.1550   71.9480  220.2430 C   0  0  0  0  0  0  0  0  0  0  0  0
  144.8890   70.9820  219.5920 C   0  0  0  0  0  0  0  0  0  0  0  0
  144.6630   69.5680  219.4010 C   0  0  0  0  0  0  0  0  0  0  0  0
  145.5670   68.5720  219.3780 C   0  0  0  0  0  0  0  0  0  0  0  0
  145.2250   67.2340  219.2220 C   0  0  0  0  0  0  0  0  0  0  0  0
  143.8960   66.8740  219.0790 C   0  0  0  0  0  0  0  0  0  0  0  0
  142.9480   67.8770  219.0980 C   0  0  0  0  0  0  0  0  0  0  0  0
  143.3110   69.1920  219.2540 C   0  0  0  0  0  0  0  0  0  0  0  0
  145.9820   71.5890  219.0150 N   0  0  0  0  0  0  0  0  0  0  0  0
  145.9430   72.8530  219.2830 O   0  0  0  0  0  0  0  0  0  0  0  0
  144.8790   73.1280  220.0120 C   0  0  0  0  0  0  0  0  0  0  0  0
  144.5820   74.5100  220.4630 C   0  0  0  0  0  0  0  0  0  0  0  0
  141.4290   75.4330  219.9980 C   0  0  0  0  0  0  0  0  0  0  0  0
  140.6380   76.6630  219.6040 C   0  0  0  0  0  0  0  0  0  0  0  0
  143.1816   81.6290  218.7236 H   0  0  0  0  0  0  0  0  0  0  0  0
  143.1227   80.5269  217.3064 H   0  0  0  0  0  0  0  0  0  0  0  0
  142.1581   82.0422  217.3064 H   0  0  0  0  0  0  0  0  0  0  0  0
  140.8732   81.1560  219.2598 H   0  0  0  0  0  0  0  0  0  0  0  0
  140.7140   80.1670  217.7341 H   0  0  0  0  0  0  0  0  0  0  0  0
  143.3662   78.6232  222.2621 H   0  0  0  0  0  0  0  0  0  0  0  0
  143.8687   80.0984  224.1658 H   0  0  0  0  0  0  0  0  0  0  0  0
  142.3930   82.0557  224.6842 H   0  0  0  0  0  0  0  0  0  0  0  0
  140.4267   82.4456  223.2141 H   0  0  0  0  0  0  0  0  0  0  0  0
  139.9309   80.9628  221.3023 H   0  0  0  0  0  0  0  0  0  0  0  0
  139.4050   78.0030  220.6138 H   0  0  0  0  0  0  0  0  0  0  0  0
  141.7301   76.9575  222.2463 H   0  0  0  0  0  0  0  0  0  0  0  0
  140.1681   77.6396  222.8083 H   0  0  0  0  0  0  0  0  0  0  0  0
  140.0757   75.2265  223.0503 H   0  0  0  0  0  0  0  0  0  0  0  0
  139.0052   75.6999  221.6832 H   0  0  0  0  0  0  0  0  0  0  0  0
  141.0313   71.8027  219.9757 H   0  0  0  0  0  0  0  0  0  0  0  0
  142.0717   73.2847  219.6515 H   0  0  0  0  0  0  0  0  0  0  0  0
  143.0777   72.3159  221.9588 H   0  0  0  0  0  0  0  0  0  0  0  0
  142.6316   70.8177  220.9255 H   0  0  0  0  0  0  0  0  0  0  0  0
  146.6307   68.8296  219.4883 H   0  0  0  0  0  0  0  0  0  0  0  0
  146.0090   66.4624  219.2122 H   0  0  0  0  0  0  0  0  0  0  0  0
  143.6044   65.8208  218.9540 H   0  0  0  0  0  0  0  0  0  0  0  0
  141.8846   67.6187  218.9864 H   0  0  0  0  0  0  0  0  0  0  0  0
  142.5318   69.9683  219.2646 H   0  0  0  0  0  0  0  0  0  0  0  0
  144.5748   74.5433  221.5625 H   0  0  0  0  0  0  0  0  0  0  0  0
  145.3536   75.1943  220.0804 H   0  0  0  0  0  0  0  0  0  0  0  0
  143.5974   74.8169  220.0804 H   0  0  0  0  0  0  0  0  0  0  0  0
  142.4504   75.7340  220.2740 H   0  0  0  0  0  0  0  0  0  0  0  0
  141.4522   74.7398  219.1443 H   0  0  0  0  0  0  0  0  0  0  0  0
  141.1661   77.1581  218.7758 H   0  0  0  0  0  0  0  0  0  0  0  0
  139.6333   76.3090  219.3299 H   0  0  0  0  0  0  0  0  0  0  0  0
  1  2  1  0
  2  3  1  0
  3  4  2  0
  3  5  1  0
  5  6  1  0
  6  7  2  0
  7  8  1  0
  8  9  2  0
  9 10  1  0
 10 11  2  0
  5 12  1  0
 12 13  1  0
 13 14  1  0
 14 15  1  0
 15 16  1  0
 16 17  2  0
 16 18  1  0
 18 19  1  0
 19 20  1  0
 20 21  1  0
 21 22  1  0
 22 23  2  0
 23 24  1  0
 24 25  2  0
 25 26  1  0
 26 27  2  0
 21 28  2  0
 28 29  1  0
 29 30  1  0
 30 31  1  0
 15 32  1  0
 32 33  1  0
 11  6  1  0
 33 12  1  0
 30 20  2  0
 27 22  1  0
  1 34  1  0
  1 35  1  0
  1 36  1  0
  2 37  1  0
  2 38  1  0
  7 39  1  0
  8 40  1  0
  9 41  1  0
 10 42  1  0
 11 43  1  0
 12 44  1  0
 13 45  1  0
 13 46  1  0
 14 47  1  0
 14 48  1  0
 18 49  1  0
 18 50  1  0
 19 51  1  0
 19 52  1  0
 23 53  1  0
 24 54  1  0
 25 55  1  0
 26 56  1  0
 27 57  1  0
 31 58  1  0
 31 59  1  0
 31 60  1  0
 32 61  1  0
 32 62  1  0
 33 63  1  0
 33 64  1  0
M  END
>  <smiles>  (8) 
CCC(=O)N(c1ccccc1)C1CCN(C(=O)CCc2c(-c3ccccc3)noc2C)CC1

>  <score_type>  (8) 
oracle

>  <origin>  (8) 
autodockgpu

>  <m_score__min__energy>  (8) 
-9.5199999999999996

>  <m_primary>  (8) 
energy

>  <rmsd>  (8) 
5.595135660867198

>  <m_score__min__rmsd>  (8) 
5.595135660867198

>  <meeko>  (8) 
{"free_energy": -8.81, "intermolecular_energy": -11.19, "internal_energy": -1.87, "cluster_size": 3, "cluster_id": 5, "rank_in_cluster": 2}

>  <energy>  (8) 
-8.86

>  <cluster_rmsd>  (8) 
1.56

>  <cluster>  (8) 
3

$$$$

     RDKit          3D

 64 67  0  0  0  0  0  0  0  0999 V2000
  137.9290   76.2670  222.7460 C   0  0  0  0  0  0  0  0  0  0  0  0
  137.7030   77.5060  221.9110 C   0  0  0  0  0  0  0  0  0  0  0  0
  138.7440   77.7260  220.9130 C   0  0  0  0  0  0  0  0  0  0  0  0
  138.4390   78.2950  219.8180 O   0  0  0  0  0  0  0  0  0  0  0  0
  140.1130   77.3560  221.0460 N   0  0  0  0  0  0  0  0  0  0  0  0
  140.9430   78.2520  221.7730 C   0  0  0  0  0  0  0  0  0  0  0  0
  141.6560   79.2780  221.2100 C   0  0  0  0  0  0  0  0  0  0  0  0
  142.4550   80.1250  221.9620 C   0  0  0  0  0  0  0  0  0  0  0  0
  142.5660   79.9650  223.3340 C   0  0  0  0  0  0  0  0  0  0  0  0
  141.8480   78.9320  223.8970 C   0  0  0  0  0  0  0  0  0  0  0  0
  141.0460   78.0830  223.1380 C   0  0  0  0  0  0  0  0  0  0  0  0
  140.6370   76.1020  220.4810 C   0  0  0  0  0  0  0  0  0  0  0  0
  139.5470   75.3100  219.8260 C   0  0  0  0  0  0  0  0  0  0  0  0
  140.0430   73.9050  219.5570 C   0  0  0  0  0  0  0  0  0  0  0  0
  140.2530   73.1950  220.8290 N   0  0  0  0  0  0  0  0  0  0  0  0
  140.0920   71.7830  220.9350 C   0  0  0  0  0  0  0  0  0  0  0  0
  139.7580   71.1830  219.8880 O   0  0  0  0  0  0  0  0  0  0  0  0
  140.3320   71.1700  222.2460 C   0  0  0  0  0  0  0  0  0  0  0  0
  139.1030   70.7160  222.9690 C   0  0  0  0  0  0  0  0  0  0  0  0
  139.1390   69.4800  223.7240 C   0  0  0  0  0  0  0  0  0  0  0  0
  139.4900   69.2110  225.0280 C   0  0  0  0  0  0  0  0  0  0  0  0
  139.9470   70.0690  226.0970 C   0  0  0  0  0  0  0  0  0  0  0  0
  139.6290   70.0190  227.4040 C   0  0  0  0  0  0  0  0  0  0  0  0
  140.1640   70.8830  228.3530 C   0  0  0  0  0  0  0  0  0  0  0  0
  141.0700   71.8550  227.9680 C   0  0  0  0  0  0  0  0  0  0  0  0
  141.4130   71.9280  226.6330 C   0  0  0  0  0  0  0  0  0  0  0  0
  140.8710   71.0640  225.7140 C   0  0  0  0  0  0  0  0  0  0  0  0
  139.2840   67.8690  225.2620 N   0  0  0  0  0  0  0  0  0  0  0  0
  138.8340   67.3260  224.1790 O   0  0  0  0  0  0  0  0  0  0  0  0
  138.7260   68.2330  223.2280 C   0  0  0  0  0  0  0  0  0  0  0  0
  138.2290   67.8850  221.8740 C   0  0  0  0  0  0  0  0  0  0  0  0
  140.6280   74.0420  221.9490 C   0  0  0  0  0  0  0  0  0  0  0  0
  141.3740   75.2690  221.4680 C   0  0  0  0  0  0  0  0  0  0  0  0
  137.8810   76.5301  223.8130 H   0  0  0  0  0  0  0  0  0  0  0  0
  137.1517   75.5233  222.5164 H   0  0  0  0  0  0  0  0  0  0  0  0
  138.9188   75.8456  222.5164 H   0  0  0  0  0  0  0  0  0  0  0  0
  136.7378   77.4068  221.3929 H   0  0  0  0  0  0  0  0  0  0  0  0
  137.7193   78.3676  222.5947 H   0  0  0  0  0  0  0  0  0  0  0  0
  141.5920   79.4349  220.1231 H   0  0  0  0  0  0  0  0  0  0  0  0
  143.0081   80.9346  221.4633 H   0  0  0  0  0  0  0  0  0  0  0  0
  143.1959   80.6295  223.9436 H   0  0  0  0  0  0  0  0  0  0  0  0
  141.9105   78.7725  224.9836 H   0  0  0  0  0  0  0  0  0  0  0  0
  140.4906   77.2715  223.6310 H   0  0  0  0  0  0  0  0  0  0  0  0
  141.3719   76.3981  219.7180 H   0  0  0  0  0  0  0  0  0  0  0  0
  138.6715   75.2698  220.4907 H   0  0  0  0  0  0  0  0  0  0  0  0
  139.2623   75.7886  218.8774 H   0  0  0  0  0  0  0  0  0  0  0  0
  139.2972   73.3638  218.9562 H   0  0  0  0  0  0  0  0  0  0  0  0
  140.9958   73.9562  219.0096 H   0  0  0  0  0  0  0  0  0  0  0  0
  140.9835   70.2959  222.0993 H   0  0  0  0  0  0  0  0  0  0  0  0
  140.7841   71.9532  222.8723 H   0  0  0  0  0  0  0  0  0  0  0  0
  138.8326   71.5152  223.6749 H   0  0  0  0  0  0  0  0  0  0  0  0
  138.3882   70.5055  222.1598 H   0  0  0  0  0  0  0  0  0  0  0  0
  138.9099   69.2565  227.7380 H   0  0  0  0  0  0  0  0  0  0  0  0
  139.8673   70.7938  229.4085 H   0  0  0  0  0  0  0  0  0  0  0  0
  141.5038   72.5486  228.7034 H   0  0  0  0  0  0  0  0  0  0  0  0
  142.1322   72.6908  226.3000 H   0  0  0  0  0  0  0  0  0  0  0  0
  141.1633   71.1493  224.6570 H   0  0  0  0  0  0  0  0  0  0  0  0
  137.3309   67.2562  221.9635 H   0  0  0  0  0  0  0  0  0  0  0  0
  137.9787   68.8061  221.3273 H   0  0  0  0  0  0  0  0  0  0  0  0
  139.0090   67.3347  221.3273 H   0  0  0  0  0  0  0  0  0  0  0  0
  139.7194   74.3582  222.4823 H   0  0  0  0  0  0  0  0  0  0  0  0
  141.2855   73.4696  222.6198 H   0  0  0  0  0  0  0  0  0  0  0  0
  141.6007   75.8960  222.3429 H   0  0  0  0  0  0  0  0  0  0  0  0
  142.2729   74.9012  220.9516 H   0  0  0  0  0  0  0  0  0  0  0  0
  1  2  1  0
  2  3  1  0
  3  4  2  0
  3  5  1  0
  5  6  1  0
  6  7  2  0
  7  8  1  0
  8  9  2  0
  9 10  1  0
 10 11  2  0
  5 12  1  0
 12 13  1  0
 13 14  1  0
 14 15  1  0
 15 16  1  0
 16 17  2  0
 16 18  1  0
 18 19  1  0
 19 20  1  0
 20 21  1  0
 21 22  1  0
 22 23  2  0
 23 24  1  0
 24 25  2  0
 25 26  1  0
 26 27  2  0
 21 28  2  0
 28 29  1  0
 29 30  1  0
 30 31  1  0
 15 32  1  0
 32 33  1  0
 11  6  1  0
 33 12  1  0
 30 20  2  0
 27 22  1  0
  1 34  1  0
  1 35  1  0
  1 36  1  0
  2 37  1  0
  2 38  1  0
  7 39  1  0
  8 40  1  0
  9 41  1  0
 10 42  1  0
 11 43  1  0
 12 44  1  0
 13 45  1  0
 13 46  1  0
 14 47  1  0
 14 48  1  0
 18 49  1  0
 18 50  1  0
 19 51  1  0
 19 52  1  0
 23 53  1  0
 24 54  1  0
 25 55  1  0
 26 56  1  0
 27 57  1  0
 31 58  1  0
 31 59  1  0
 31 60  1  0
 32 61  1  0
 32 62  1  0
 33 63  1  0
 33 64  1  0
M  END
>  <smiles>  (9) 
CCC(=O)N(c1ccccc1)C1CCN(C(=O)CCc2c(-c3ccccc3)noc2C)CC1

>  <score_type>  (9) 
oracle

>  <origin>  (9) 
autodockgpu

>  <m_score__min__energy>  (9) 
-9.5199999999999996

>  <m_primary>  (9) 
energy

>  <rmsd>  (9) 
7.508173867617519

>  <m_score__min__rmsd>  (9) 
7.508173867617519

>  <meeko>  (9) 
{"free_energy": -8.62, "intermolecular_energy": -11.01, "internal_energy": -2.01, "cluster_size": 14, "cluster_id": 3, "rank_in_cluster": 8}

>  <energy>  (9) 
-8.85

>  <cluster_rmsd>  (9) 
0.7

>  <cluster>  (9) 
3

$$$$

     RDKit          3D

 64 67  0  0  0  0  0  0  0  0999 V2000
  146.3400   73.7090  221.5890 C   0  0  0  0  0  0  0  0  0  0  0  0
  145.9190   72.6470  220.5990 C   0  0  0  0  0  0  0  0  0  0  0  0
  145.2820   73.1920  219.4050 C   0  0  0  0  0  0  0  0  0  0  0  0
  145.9470   73.2510  218.3230 O   0  0  0  0  0  0  0  0  0  0  0  0
  143.9470   73.6830  219.3280 N   0  0  0  0  0  0  0  0  0  0  0  0
  142.9460   72.8950  219.9580 C   0  0  0  0  0  0  0  0  0  0  0  0
  142.2140   73.2970  221.0450 C   0  0  0  0  0  0  0  0  0  0  0  0
  141.2480   72.4900  221.6270 C   0  0  0  0  0  0  0  0  0  0  0  0
  140.9800   71.2270  221.1230 C   0  0  0  0  0  0  0  0  0  0  0  0
  141.7170   70.8270  220.0300 C   0  0  0  0  0  0  0  0  0  0  0  0
  142.6870   71.6400  219.4490 C   0  0  0  0  0  0  0  0  0  0  0  0
  143.6230   74.9490  218.6490 C   0  0  0  0  0  0  0  0  0  0  0  0
  143.7000   76.1030  219.6000 C   0  0  0  0  0  0  0  0  0  0  0  0
  143.0490   77.3160  218.9670 C   0  0  0  0  0  0  0  0  0  0  0  0
  141.6010   77.0930  218.8290 N   0  0  0  0  0  0  0  0  0  0  0  0
  140.6680   78.1690  218.8840 C   0  0  0  0  0  0  0  0  0  0  0  0
  141.1500   79.3110  219.0620 O   0  0  0  0  0  0  0  0  0  0  0  0
  139.2470   77.8420  218.7280 C   0  0  0  0  0  0  0  0  0  0  0  0
  138.5420   77.4580  219.9910 C   0  0  0  0  0  0  0  0  0  0  0  0
  139.2520   76.6940  220.9970 C   0  0  0  0  0  0  0  0  0  0  0  0
  140.1060   77.0770  222.0060 C   0  0  0  0  0  0  0  0  0  0  0  0
  140.5950   78.3740  222.4120 C   0  0  0  0  0  0  0  0  0  0  0  0
  139.9520   79.3310  223.1050 C   0  0  0  0  0  0  0  0  0  0  0  0
  140.5410   80.5360  223.4720 C   0  0  0  0  0  0  0  0  0  0  0  0
  141.8540   80.7960  223.1190 C   0  0  0  0  0  0  0  0  0  0  0  0
  142.5360   79.8320  222.4060 C   0  0  0  0  0  0  0  0  0  0  0  0
  141.9320   78.6500  222.0560 C   0  0  0  0  0  0  0  0  0  0  0  0
  140.4570   75.9540  222.7230 N   0  0  0  0  0  0  0  0  0  0  0  0
  139.8640   74.9300  222.2030 O   0  0  0  0  0  0  0  0  0  0  0  0
  139.1330   75.3050  221.1720 C   0  0  0  0  0  0  0  0  0  0  0  0
  138.3390   74.3300  220.3850 C   0  0  0  0  0  0  0  0  0  0  0  0
  141.2100   75.7060  218.6380 C   0  0  0  0  0  0  0  0  0  0  0  0
  142.3110   74.9270  217.9500 C   0  0  0  0  0  0  0  0  0  0  0  0
  146.1918   73.3352  222.6129 H   0  0  0  0  0  0  0  0  0  0  0  0
  147.4022   73.9513  221.4373 H   0  0  0  0  0  0  0  0  0  0  0  0
  145.7323   74.6133  221.4373 H   0  0  0  0  0  0  0  0  0  0  0  0
  146.8117   72.0824  220.2918 H   0  0  0  0  0  0  0  0  0  0  0  0
  145.1776   72.0084  221.1015 H   0  0  0  0  0  0  0  0  0  0  0  0
  142.3993   74.2943  221.4704 H   0  0  0  0  0  0  0  0  0  0  0  0
  140.6875   72.8568  222.4995 H   0  0  0  0  0  0  0  0  0  0  0  0
  140.2163   70.5760  221.5736 H   0  0  0  0  0  0  0  0  0  0  0  0
  141.5329   69.8309  219.6013 H   0  0  0  0  0  0  0  0  0  0  0  0
  143.2512   71.2780  218.5769 H   0  0  0  0  0  0  0  0  0  0  0  0
  144.3860   75.0786  217.8673 H   0  0  0  0  0  0  0  0  0  0  0  0
  143.1739   75.8475  220.5316 H   0  0  0  0  0  0  0  0  0  0  0  0
  144.7533   76.3253  219.8262 H   0  0  0  0  0  0  0  0  0  0  0  0
  143.2234   78.1967  219.6025 H   0  0  0  0  0  0  0  0  0  0  0  0
  143.4860   77.4832  217.9715 H   0  0  0  0  0  0  0  0  0  0  0  0
  138.7387   78.7225  218.3081 H   0  0  0  0  0  0  0  0  0  0  0  0
  139.2057   76.9590  218.0733 H   0  0  0  0  0  0  0  0  0  0  0  0
  138.2124   78.3914  220.4707 H   0  0  0  0  0  0  0  0  0  0  0  0
  137.7545   76.7699  219.6500 H   0  0  0  0  0  0  0  0  0  0  0  0
  138.9066   79.1511  223.3963 H   0  0  0  0  0  0  0  0  0  0  0  0
  139.9652   81.2806  224.0412 H   0  0  0  0  0  0  0  0  0  0  0  0
  142.3390   81.7429  223.3987 H   0  0  0  0  0  0  0  0  0  0  0  0
  143.5807   80.0133  222.1132 H   0  0  0  0  0  0  0  0  0  0  0  0
  142.5026   77.9021  221.4858 H   0  0  0  0  0  0  0  0  0  0  0  0
  137.7953   73.6624  221.0696 H   0  0  0  0  0  0  0  0  0  0  0  0
  137.6200   74.8695  219.7509 H   0  0  0  0  0  0  0  0  0  0  0  0
  139.0129   73.7352  219.7509 H   0  0  0  0  0  0  0  0  0  0  0  0
  141.0046   75.2510  219.6182 H   0  0  0  0  0  0  0  0  0  0  0  0
  140.3099   75.6771  218.0063 H   0  0  0  0  0  0  0  0  0  0  0  0
  141.9866   73.8794  217.8647 H   0  0  0  0  0  0  0  0  0  0  0  0
  142.4715   75.4133  216.9765 H   0  0  0  0  0  0  0  0  0  0  0  0
  1  2  1  0
  2  3  1  0
  3  4  2  0
  3  5  1  0
  5  6  1  0
  6  7  2  0
  7  8  1  0
  8  9  2  0
  9 10  1  0
 10 11  2  0
  5 12  1  0
 12 13  1  0
 13 14  1  0
 14 15  1  0
 15 16  1  0
 16 17  2  0
 16 18  1  0
 18 19  1  0
 19 20  1  0
 20 21  1  0
 21 22  1  0
 22 23  2  0
 23 24  1  0
 24 25  2  0
 25 26  1  0
 26 27  2  0
 21 28  2  0
 28 29  1  0
 29 30  1  0
 30 31  1  0
 15 32  1  0
 32 33  1  0
 11  6  1  0
 33 12  1  0
 30 20  2  0
 27 22  1  0
  1 34  1  0
  1 35  1  0
  1 36  1  0
  2 37  1  0
  2 38  1  0
  7 39  1  0
  8 40  1  0
  9 41  1  0
 10 42  1  0
 11 43  1  0
 12 44  1  0
 13 45  1  0
 13 46  1  0
 14 47  1  0
 14 48  1  0
 18 49  1  0
 18 50  1  0
 19 51  1  0
 19 52  1  0
 23 53  1  0
 24 54  1  0
 25 55  1  0
 26 56  1  0
 27 57  1  0
 31 58  1  0
 31 59  1  0
 31 60  1  0
 32 61  1  0
 32 62  1  0
 33 63  1  0
 33 64  1  0
M  END
>  <smiles>  (10) 
CCC(=O)N(c1ccccc1)C1CCN(C(=O)CCc2c(-c3ccccc3)noc2C)CC1

>  <score_type>  (10) 
oracle

>  <origin>  (10) 
autodockgpu

>  <m_score__min__energy>  (10) 
-9.5199999999999996

>  <m_primary>  (10) 
energy

>  <rmsd>  (10) 
5.0969936078730465

>  <m_score__min__rmsd>  (10) 
5.0969936078730465

>  <meeko>  (10) 
{"free_energy": -6.77, "intermolecular_energy": -9.15, "internal_energy": -3.65, "cluster_size": 10, "cluster_id": 12, "rank_in_cluster": 9}

>  <energy>  (10) 
-8.83

>  <cluster_rmsd>  (10) 
1.58

>  <cluster>  (10) 
3

$$$$

     RDKit          3D

 64 67  0  0  0  0  0  0  0  0999 V2000
  143.6990   75.5030  218.7390 C   0  0  0  0  0  0  0  0  0  0  0  0
  142.6530   76.4690  219.2460 C   0  0  0  0  0  0  0  0  0  0  0  0
  141.9030   75.9590  220.3890 C   0  0  0  0  0  0  0  0  0  0  0  0
  142.2520   74.8540  220.9120 O   0  0  0  0  0  0  0  0  0  0  0  0
  140.7840   76.5950  220.9970 N   0  0  0  0  0  0  0  0  0  0  0  0
  141.0290   77.8470  221.6230 C   0  0  0  0  0  0  0  0  0  0  0  0
  141.0460   79.0500  220.9680 C   0  0  0  0  0  0  0  0  0  0  0  0
  141.2930   80.2470  221.6230 C   0  0  0  0  0  0  0  0  0  0  0  0
  141.5360   80.2730  222.9870 C   0  0  0  0  0  0  0  0  0  0  0  0
  141.5180   79.0610  223.6420 C   0  0  0  0  0  0  0  0  0  0  0  0
  141.2700   77.8610  222.9810 C   0  0  0  0  0  0  0  0  0  0  0  0
  139.4380   75.9980  220.9620 C   0  0  0  0  0  0  0  0  0  0  0  0
  138.8640   75.8840  222.3410 C   0  0  0  0  0  0  0  0  0  0  0  0
  137.6490   74.9800  222.3030 C   0  0  0  0  0  0  0  0  0  0  0  0
  138.0590   73.6010  221.9960 N   0  0  0  0  0  0  0  0  0  0  0  0
  137.3350   72.4760  222.4890 C   0  0  0  0  0  0  0  0  0  0  0  0
  136.3360   72.7290  223.2000 O   0  0  0  0  0  0  0  0  0  0  0  0
  137.8220   71.1430  222.1200 C   0  0  0  0  0  0  0  0  0  0  0  0
  139.1040   70.7320  222.7720 C   0  0  0  0  0  0  0  0  0  0  0  0
  139.1320   69.5390  223.5940 C   0  0  0  0  0  0  0  0  0  0  0  0
  139.4980   69.3370  224.9060 C   0  0  0  0  0  0  0  0  0  0  0  0
  139.9830   70.2440  225.9200 C   0  0  0  0  0  0  0  0  0  0  0  0
  140.7140   71.3630  225.7610 C   0  0  0  0  0  0  0  0  0  0  0  0
  141.0940   72.1830  226.8170 C   0  0  0  0  0  0  0  0  0  0  0  0
  140.7220   71.8590  228.1100 C   0  0  0  0  0  0  0  0  0  0  0  0
  139.9730   70.7160  228.3010 C   0  0  0  0  0  0  0  0  0  0  0  0
  139.6090   69.9230  227.2420 C   0  0  0  0  0  0  0  0  0  0  0  0
  139.2740   68.0140  225.2170 N   0  0  0  0  0  0  0  0  0  0  0  0
  138.7990   67.4180  224.1720 O   0  0  0  0  0  0  0  0  0  0  0  0
  138.6920   68.2730  223.1740 C   0  0  0  0  0  0  0  0  0  0  0  0
  138.1700   67.8590  221.8480 C   0  0  0  0  0  0  0  0  0  0  0  0
  139.2460   73.4850  221.1650 C   0  0  0  0  0  0  0  0  0  0  0  0
  139.3870   74.6890  220.2590 C   0  0  0  0  0  0  0  0  0  0  0  0
  144.2083   75.0326  219.5930 H   0  0  0  0  0  0  0  0  0  0  0  0
  143.2156   74.7268  218.1275 H   0  0  0  0  0  0  0  0  0  0  0  0
  144.4343   76.0465  218.1275 H   0  0  0  0  0  0  0  0  0  0  0  0
  143.1543   77.4013  219.5451 H   0  0  0  0  0  0  0  0  0  0  0  0
  141.9338   76.6291  218.4292 H   0  0  0  0  0  0  0  0  0  0  0  0
  140.8571   79.0671  219.8845 H   0  0  0  0  0  0  0  0  0  0  0  0
  141.2961   81.1876  221.0527 H   0  0  0  0  0  0  0  0  0  0  0  0
  141.7335   81.2146  223.5204 H   0  0  0  0  0  0  0  0  0  0  0  0
  141.7063   79.0407  224.7256 H   0  0  0  0  0  0  0  0  0  0  0  0
  141.2662   76.9172  223.5459 H   0  0  0  0  0  0  0  0  0  0  0  0
  138.8168   76.6879  220.3720 H   0  0  0  0  0  0  0  0  0  0  0  0
  139.6181   75.4581  223.0191 H   0  0  0  0  0  0  0  0  0  0  0  0
  138.5712   76.8808  222.7024 H   0  0  0  0  0  0  0  0  0  0  0  0
  137.1476   75.0019  223.2818 H   0  0  0  0  0  0  0  0  0  0  0  0
  136.9589   75.3343  221.5231 H   0  0  0  0  0  0  0  0  0  0  0  0
  137.0495   70.4099  222.3953 H   0  0  0  0  0  0  0  0  0  0  0  0
  138.0263   71.1801  221.0398 H   0  0  0  0  0  0  0  0  0  0  0  0
  139.8400   70.5847  221.9678 H   0  0  0  0  0  0  0  0  0  0  0  0
  139.3048   71.5444  223.4859 H   0  0  0  0  0  0  0  0  0  0  0  0
  141.0264   71.6426  224.7440 H   0  0  0  0  0  0  0  0  0  0  0  0
  141.6893   73.0879  226.6253 H   0  0  0  0  0  0  0  0  0  0  0  0
  141.0145   72.4934  228.9597 H   0  0  0  0  0  0  0  0  0  0  0  0
  139.6627   70.4360  229.3185 H   0  0  0  0  0  0  0  0  0  0  0  0
  139.0127   69.0175  227.4278 H   0  0  0  0  0  0  0  0  0  0  0  0
  137.3150   67.1809  221.9860 H   0  0  0  0  0  0  0  0  0  0  0  0
  137.8459   68.7483  221.2876 H   0  0  0  0  0  0  0  0  0  0  0  0
  138.9621   67.3409  221.2876 H   0  0  0  0  0  0  0  0  0  0  0  0
  140.1333   73.4140  221.8113 H   0  0  0  0  0  0  0  0  0  0  0  0
  139.1535   72.5834  220.5417 H   0  0  0  0  0  0  0  0  0  0  0  0
  140.3159   74.5750  219.6810 H   0  0  0  0  0  0  0  0  0  0  0  0
  138.4839   74.7106  219.6313 H   0  0  0  0  0  0  0  0  0  0  0  0
  1  2  1  0
  2  3  1  0
  3  4  2  0
  3  5  1  0
  5  6  1  0
  6  7  2  0
  7  8  1  0
  8  9  2  0
  9 10  1  0
 10 11  2  0
  5 12  1  0
 12 13  1  0
 13 14  1  0
 14 15  1  0
 15 16  1  0
 16 17  2  0
 16 18  1  0
 18 19  1  0
 19 20  1  0
 20 21  1  0
 21 22  1  0
 22 23  2  0
 23 24  1  0
 24 25  2  0
 25 26  1  0
 26 27  2  0
 21 28  2  0
 28 29  1  0
 29 30  1  0
 30 31  1  0
 15 32  1  0
 32 33  1  0
 11  6  1  0
 33 12  1  0
 30 20  2  0
 27 22  1  0
  1 34  1  0
  1 35  1  0
  1 36  1  0
  2 37  1  0
  2 38  1  0
  7 39  1  0
  8 40  1  0
  9 41  1  0
 10 42  1  0
 11 43  1  0
 12 44  1  0
 13 45  1  0
 13 46  1  0
 14 47  1  0
 14 48  1  0
 18 49  1  0
 18 50  1  0
 19 51  1  0
 19 52  1  0
 23 53  1  0
 24 54  1  0
 25 55  1  0
 26 56  1  0
 27 57  1  0
 31 58  1  0
 31 59  1  0
 31 60  1  0
 32 61  1  0
 32 62  1  0
 33 63  1  0
 33 64  1  0
M  END
>  <smiles>  (11) 
CCC(=O)N(c1ccccc1)C1CCN(C(=O)CCc2c(-c3ccccc3)noc2C)CC1

>  <score_type>  (11) 
oracle

>  <origin>  (11) 
autodockgpu

>  <m_score__min__energy>  (11) 
-9.5199999999999996

>  <m_primary>  (11) 
energy

>  <rmsd>  (11) 
7.641584518813296

>  <m_score__min__rmsd>  (11) 
7.641584518813296

>  <meeko>  (11) 
{"free_energy": -8.75, "intermolecular_energy": -11.14, "internal_energy": -1.81, "cluster_size": 14, "cluster_id": 3, "rank_in_cluster": 5}

>  <energy>  (11) 
-8.75

>  <cluster_rmsd>  (11) 
0.63

>  <cluster>  (11) 
3

$$$$

     RDKit          3D

 64 67  0  0  0  0  0  0  0  0999 V2000
  145.9910   73.0630  221.8380 C   0  0  0  0  0  0  0  0  0  0  0  0
  146.1600   73.8270  220.5440 C   0  0  0  0  0  0  0  0  0  0  0  0
  145.2570   73.3800  219.4900 C   0  0  0  0  0  0  0  0  0  0  0  0
  145.6810   72.5500  218.6250 O   0  0  0  0  0  0  0  0  0  0  0  0
  143.9050   73.7930  219.3250 N   0  0  0  0  0  0  0  0  0  0  0  0
  142.9110   72.9480  219.8880 C   0  0  0  0  0  0  0  0  0  0  0  0
  142.5650   71.7200  219.3880 C   0  0  0  0  0  0  0  0  0  0  0  0
  141.5850   70.9310  219.9740 C   0  0  0  0  0  0  0  0  0  0  0  0
  140.9070   71.3620  221.1030 C   0  0  0  0  0  0  0  0  0  0  0  0
  141.2580   72.5970  221.6020 C   0  0  0  0  0  0  0  0  0  0  0  0
  142.2430   73.3860  221.0120 C   0  0  0  0  0  0  0  0  0  0  0  0
  143.5530   75.0420  218.6280 C   0  0  0  0  0  0  0  0  0  0  0  0
  143.6430   76.2170  219.5520 C   0  0  0  0  0  0  0  0  0  0  0  0
  142.9660   77.4100  218.9090 C   0  0  0  0  0  0  0  0  0  0  0  0
  141.5180   77.1730  218.8090 N   0  0  0  0  0  0  0  0  0  0  0  0
  140.5770   78.2420  218.8640 C   0  0  0  0  0  0  0  0  0  0  0  0
  141.0520   79.3920  219.0060 O   0  0  0  0  0  0  0  0  0  0  0  0
  139.1550   77.9000  218.7480 C   0  0  0  0  0  0  0  0  0  0  0  0
  138.4810   77.5450  220.0350 C   0  0  0  0  0  0  0  0  0  0  0  0
  139.1970   76.7580  221.0190 C   0  0  0  0  0  0  0  0  0  0  0  0
  140.0740   77.1170  222.0180 C   0  0  0  0  0  0  0  0  0  0  0  0
  140.5870   78.4020  222.4320 C   0  0  0  0  0  0  0  0  0  0  0  0
  139.9830   79.3430  223.1800 C   0  0  0  0  0  0  0  0  0  0  0  0
  140.5950   80.5360  223.5470 C   0  0  0  0  0  0  0  0  0  0  0  0
  141.8900   80.8020  223.1360 C   0  0  0  0  0  0  0  0  0  0  0  0
  142.5320   79.8540  222.3660 C   0  0  0  0  0  0  0  0  0  0  0  0
  141.9060   78.6830  222.0170 C   0  0  0  0  0  0  0  0  0  0  0  0
  140.4210   75.9810  222.7150 N   0  0  0  0  0  0  0  0  0  0  0  0
  139.8060   74.9710  222.1920 O   0  0  0  0  0  0  0  0  0  0  0  0
  139.0620   75.3700  221.1790 C   0  0  0  0  0  0  0  0  0  0  0  0
  138.2410   74.4150  220.3940 C   0  0  0  0  0  0  0  0  0  0  0  0
  141.1340   75.7790  218.6560 C   0  0  0  0  0  0  0  0  0  0  0  0
  142.2260   74.9950  217.9590 C   0  0  0  0  0  0  0  0  0  0  0  0
  146.1417   73.7443  222.6884 H   0  0  0  0  0  0  0  0  0  0  0  0
  144.9772   72.6385  221.8834 H   0  0  0  0  0  0  0  0  0  0  0  0
  146.7311   72.2505  221.8834 H   0  0  0  0  0  0  0  0  0  0  0  0
  145.9685   74.8924  220.7397 H   0  0  0  0  0  0  0  0  0  0  0  0
  147.1867   73.6492  220.1915 H   0  0  0  0  0  0  0  0  0  0  0  0
  143.0817   71.3468  218.4915 H   0  0  0  0  0  0  0  0  0  0  0  0
  141.3435   69.9510  219.5366 H   0  0  0  0  0  0  0  0  0  0  0  0
  140.1270   70.7483  221.5773 H   0  0  0  0  0  0  0  0  0  0  0  0
  140.7424   72.9735  222.4978 H   0  0  0  0  0  0  0  0  0  0  0  0
  142.4898   74.3661  221.4462 H   0  0  0  0  0  0  0  0  0  0  0  0
  144.2964   75.1609  217.8260 H   0  0  0  0  0  0  0  0  0  0  0  0
  143.1421   75.9774  220.5016 H   0  0  0  0  0  0  0  0  0  0  0  0
  144.6994   76.4529  219.7477 H   0  0  0  0  0  0  0  0  0  0  0  0
  143.1471   78.3055  219.5215 H   0  0  0  0  0  0  0  0  0  0  0  0
  143.3781   77.5586  217.9000 H   0  0  0  0  0  0  0  0  0  0  0  0
  138.6306   78.7651  218.3160 H   0  0  0  0  0  0  0  0  0  0  0  0
  139.1068   76.9994  218.1183 H   0  0  0  0  0  0  0  0  0  0  0  0
  138.2022   78.4909  220.5224 H   0  0  0  0  0  0  0  0  0  0  0  0
  137.6579   76.8850  219.7236 H   0  0  0  0  0  0  0  0  0  0  0  0
  138.9526   79.1591  223.5183 H   0  0  0  0  0  0  0  0  0  0  0  0
  140.0513   81.2674  224.1629 H   0  0  0  0  0  0  0  0  0  0  0  0
  142.3917   81.7404  223.4148 H   0  0  0  0  0  0  0  0  0  0  0  0
  143.5617   80.0394  222.0264 H   0  0  0  0  0  0  0  0  0  0  0  0
  142.4443   77.9480  221.4006 H   0  0  0  0  0  0  0  0  0  0  0  0
  137.6805   73.7630  221.0802 H   0  0  0  0  0  0  0  0  0  0  0  0
  137.5359   74.9725  219.7600 H   0  0  0  0  0  0  0  0  0  0  0  0
  138.8980   73.8015  219.7600 H   0  0  0  0  0  0  0  0  0  0  0  0
  140.9549   75.3429  219.6499 H   0  0  0  0  0  0  0  0  0  0  0  0
  140.2197   75.7295  218.0463 H   0  0  0  0  0  0  0  0  0  0  0  0
  141.9088   73.9433  217.9021 H   0  0  0  0  0  0  0  0  0  0  0  0
  142.3605   75.4624  216.9724 H   0  0  0  0  0  0  0  0  0  0  0  0
  1  2  1  0
  2  3  1  0
  3  4  2  0
  3  5  1  0
  5  6  1  0
  6  7  2  0
  7  8  1  0
  8  9  2  0
  9 10  1  0
 10 11  2  0
  5 12  1  0
 12 13  1  0
 13 14  1  0
 14 15  1  0
 15 16  1  0
 16 17  2  0
 16 18  1  0
 18 19  1  0
 19 20  1  0
 20 21  1  0
 21 22  1  0
 22 23  2  0
 23 24  1  0
 24 25  2  0
 25 26  1  0
 26 27  2  0
 21 28  2  0
 28 29  1  0
 29 30  1  0
 30 31  1  0
 15 32  1  0
 32 33  1  0
 11  6  1  0
 33 12  1  0
 30 20  2  0
 27 22  1  0
  1 34  1  0
  1 35  1  0
  1 36  1  0
  2 37  1  0
  2 38  1  0
  7 39  1  0
  8 40  1  0
  9 41  1  0
 10 42  1  0
 11 43  1  0
 12 44  1  0
 13 45  1  0
 13 46  1  0
 14 47  1  0
 14 48  1  0
 18 49  1  0
 18 50  1  0
 19 51  1  0
 19 52  1  0
 23 53  1  0
 24 54  1  0
 25 55  1  0
 26 56  1  0
 27 57  1  0
 31 58  1  0
 31 59  1  0
 31 60  1  0
 32 61  1  0
 32 62  1  0
 33 63  1  0
 33 64  1  0
M  END
>  <smiles>  (12) 
CCC(=O)N(c1ccccc1)C1CCN(C(=O)CCc2c(-c3ccccc3)noc2C)CC1

>  <score_type>  (12) 
oracle

>  <origin>  (12) 
autodockgpu

>  <m_score__min__energy>  (12) 
-9.5199999999999996

>  <m_primary>  (12) 
energy

>  <rmsd>  (12) 
5.066118868723245

>  <m_score__min__rmsd>  (12) 
5.066118868723245

>  <meeko>  (12) 
{"free_energy": -6.86, "intermolecular_energy": -9.25, "internal_energy": -3.65, "cluster_size": 10, "cluster_id": 12, "rank_in_cluster": 6}

>  <energy>  (12) 
-8.66

>  <cluster_rmsd>  (12) 
1.51

>  <cluster>  (12) 
3

$$$$

     RDKit          3D

 64 67  0  0  0  0  0  0  0  0999 V2000
  141.8230   79.5110  216.9460 C   0  0  0  0  0  0  0  0  0  0  0  0
  142.5950   79.6260  218.2400 C   0  0  0  0  0  0  0  0  0  0  0  0
  141.8120   80.1990  219.3290 C   0  0  0  0  0  0  0  0  0  0  0  0
  141.4460   81.4140  219.2520 O   0  0  0  0  0  0  0  0  0  0  0  0
  141.4030   79.5130  220.5080 N   0  0  0  0  0  0  0  0  0  0  0  0
  141.7830   80.1000  221.7460 C   0  0  0  0  0  0  0  0  0  0  0  0
  142.9550   79.8330  222.4030 C   0  0  0  0  0  0  0  0  0  0  0  0
  143.2800   80.4300  223.6120 C   0  0  0  0  0  0  0  0  0  0  0  0
  142.4190   81.3340  224.2110 C   0  0  0  0  0  0  0  0  0  0  0  0
  141.2400   81.6000  223.5480 C   0  0  0  0  0  0  0  0  0  0  0  0
  140.9180   80.9980  222.3340 C   0  0  0  0  0  0  0  0  0  0  0  0
  140.6100   78.2740  220.4510 C   0  0  0  0  0  0  0  0  0  0  0  0
  140.4820   77.6540  221.8080 C   0  0  0  0  0  0  0  0  0  0  0  0
  139.9600   76.2390  221.6640 C   0  0  0  0  0  0  0  0  0  0  0  0
  140.9700   75.3960  221.0050 N   0  0  0  0  0  0  0  0  0  0  0  0
  141.0780   74.0020  221.2800 C   0  0  0  0  0  0  0  0  0  0  0  0
  140.2680   73.5380  222.1150 O   0  0  0  0  0  0  0  0  0  0  0  0
  142.1140   73.2490  220.5660 C   0  0  0  0  0  0  0  0  0  0  0  0
  143.5140   73.4950  221.0320 C   0  0  0  0  0  0  0  0  0  0  0  0
  144.6050   73.4070  220.0830 C   0  0  0  0  0  0  0  0  0  0  0  0
  144.6350   73.4890  218.7080 C   0  0  0  0  0  0  0  0  0  0  0  0
  143.5860   73.6890  217.7350 C   0  0  0  0  0  0  0  0  0  0  0  0
  142.7440   72.7790  217.2120 C   0  0  0  0  0  0  0  0  0  0  0  0
  141.7430   73.0980  216.3020 C   0  0  0  0  0  0  0  0  0  0  0  0
  141.5790   74.4090  215.8890 C   0  0  0  0  0  0  0  0  0  0  0  0
  142.4310   75.3620  216.4090 C   0  0  0  0  0  0  0  0  0  0  0  0
  143.4120   75.0220  217.3070 C   0  0  0  0  0  0  0  0  0  0  0  0
  145.9470   73.4030  218.3000 N   0  0  0  0  0  0  0  0  0  0  0  0
  146.6970   73.2750  219.3450 O   0  0  0  0  0  0  0  0  0  0  0  0
  145.9570   73.2700  220.4360 C   0  0  0  0  0  0  0  0  0  0  0  0
  146.5610   73.1400  221.7850 C   0  0  0  0  0  0  0  0  0  0  0  0
  141.8370   76.0950  220.0700 C   0  0  0  0  0  0  0  0  0  0  0  0
  141.1240   77.2860  219.4650 C   0  0  0  0  0  0  0  0  0  0  0  0
  140.7573   79.3523  217.1677 H   0  0  0  0  0  0  0  0  0  0  0  0
  141.9425   80.4369  216.3642 H   0  0  0  0  0  0  0  0  0  0  0  0
  142.2072   78.6602  216.3642 H   0  0  0  0  0  0  0  0  0  0  0  0
  142.9266   78.6208  218.5395 H   0  0  0  0  0  0  0  0  0  0  0  0
  143.4418   80.3034  218.0555 H   0  0  0  0  0  0  0  0  0  0  0  0
  143.6633   79.1200  221.9560 H   0  0  0  0  0  0  0  0  0  0  0  0
  144.2336   80.1822  224.1011 H   0  0  0  0  0  0  0  0  0  0  0  0
  142.6638   81.8162  225.1689 H   0  0  0  0  0  0  0  0  0  0  0  0
  140.5293   82.3120  223.9929 H   0  0  0  0  0  0  0  0  0  0  0  0
  139.9656   81.2411  221.8403 H   0  0  0  0  0  0  0  0  0  0  0  0
  139.6110   78.5700  220.0982 H   0  0  0  0  0  0  0  0  0  0  0  0
  141.4668   77.6344  222.2976 H   0  0  0  0  0  0  0  0  0  0  0  0
  139.7832   78.2445  222.4188 H   0  0  0  0  0  0  0  0  0  0  0  0
  139.7373   75.8295  222.6603 H   0  0  0  0  0  0  0  0  0  0  0  0
  139.0451   76.2514  221.0534 H   0  0  0  0  0  0  0  0  0  0  0  0
  141.8989   72.1769  220.6853 H   0  0  0  0  0  0  0  0  0  0  0  0
  142.0751   73.5908  219.5212 H   0  0  0  0  0  0  0  0  0  0  0  0
  143.5375   74.5106  221.4540 H   0  0  0  0  0  0  0  0  0  0  0  0
  143.7063   72.6637  221.7263 H   0  0  0  0  0  0  0  0  0  0  0  0
  142.8535   71.7288  217.5204 H   0  0  0  0  0  0  0  0  0  0  0  0
  141.0824   72.3102  215.9108 H   0  0  0  0  0  0  0  0  0  0  0  0
  140.7939   74.6827  215.1687 H   0  0  0  0  0  0  0  0  0  0  0  0
  142.3222   76.4117  216.0987 H   0  0  0  0  0  0  0  0  0  0  0  0
  144.0763   75.8052  217.7011 H   0  0  0  0  0  0  0  0  0  0  0  0
  145.7885   73.3063  222.5502 H   0  0  0  0  0  0  0  0  0  0  0  0
  146.9822   72.1306  221.9024 H   0  0  0  0  0  0  0  0  0  0  0  0
  147.3601   73.8867  221.9024 H   0  0  0  0  0  0  0  0  0  0  0  0
  142.7346   76.4437  220.6018 H   0  0  0  0  0  0  0  0  0  0  0  0
  142.1161   75.4027  219.2621 H   0  0  0  0  0  0  0  0  0  0  0  0
  141.8288   77.8038  218.7978 H   0  0  0  0  0  0  0  0  0  0  0  0
  140.2436   76.8856  218.9410 H   0  0  0  0  0  0  0  0  0  0  0  0
  1  2  1  0
  2  3  1  0
  3  4  2  0
  3  5  1  0
  5  6  1  0
  6  7  2  0
  7  8  1  0
  8  9  2  0
  9 10  1  0
 10 11  2  0
  5 12  1  0
 12 13  1  0
 13 14  1  0
 14 15  1  0
 15 16  1  0
 16 17  2  0
 16 18  1  0
 18 19  1  0
 19 20  1  0
 20 21  1  0
 21 22  1  0
 22 23  2  0
 23 24  1  0
 24 25  2  0
 25 26  1  0
 26 27  2  0
 21 28  2  0
 28 29  1  0
 29 30  1  0
 30 31  1  0
 15 32  1  0
 32 33  1  0
 11  6  1  0
 33 12  1  0
 30 20  2  0
 27 22  1  0
  1 34  1  0
  1 35  1  0
  1 36  1  0
  2 37  1  0
  2 38  1  0
  7 39  1  0
  8 40  1  0
  9 41  1  0
 10 42  1  0
 11 43  1  0
 12 44  1  0
 13 45  1  0
 13 46  1  0
 14 47  1  0
 14 48  1  0
 18 49  1  0
 18 50  1  0
 19 51  1  0
 19 52  1  0
 23 53  1  0
 24 54  1  0
 25 55  1  0
 26 56  1  0
 27 57  1  0
 31 58  1  0
 31 59  1  0
 31 60  1  0
 32 61  1  0
 32 62  1  0
 33 63  1  0
 33 64  1  0
M  END
>  <smiles>  (13) 
CCC(=O)N(c1ccccc1)C1CCN(C(=O)CCc2c(-c3ccccc3)noc2C)CC1

>  <score_type>  (13) 
oracle

>  <origin>  (13) 
autodockgpu

>  <m_score__min__energy>  (13) 
-9.5199999999999996

>  <m_primary>  (13) 
energy

>  <rmsd>  (13) 
5.022186587276006

>  <m_score__min__rmsd>  (13) 
5.022186587276006

>  <meeko>  (13) 
{"free_energy": -7.73, "intermolecular_energy": -10.12, "internal_energy": -2.41, "cluster_size": 2, "cluster_id": 10, "rank_in_cluster": 2}

>  <energy>  (13) 
-8.63

>  <cluster_rmsd>  (13) 
1.5

>  <cluster>  (13) 
3

$$$$

     RDKit          3D

 64 67  0  0  0  0  0  0  0  0999 V2000
  146.3260   73.1070  221.9300 C   0  0  0  0  0  0  0  0  0  0  0  0
  145.9110   74.1050  220.8730 C   0  0  0  0  0  0  0  0  0  0  0  0
  145.1250   73.5120  219.7970 C   0  0  0  0  0  0  0  0  0  0  0  0
  145.6730   72.6590  219.0300 O   0  0  0  0  0  0  0  0  0  0  0  0
  143.7610   73.8030  219.5090 N   0  0  0  0  0  0  0  0  0  0  0  0
  142.7920   72.9630  220.1210 C   0  0  0  0  0  0  0  0  0  0  0  0
  141.9800   73.3430  221.1570 C   0  0  0  0  0  0  0  0  0  0  0  0
  141.0490   72.4850  221.7230 C   0  0  0  0  0  0  0  0  0  0  0  0
  140.9010   71.1890  221.2550 C   0  0  0  0  0  0  0  0  0  0  0  0
  141.7200   70.8100  220.2120 C   0  0  0  0  0  0  0  0  0  0  0  0
  142.6530   71.6750  219.6470 C   0  0  0  0  0  0  0  0  0  0  0  0
  143.3730   74.9270  218.6410 C   0  0  0  0  0  0  0  0  0  0  0  0
  143.6610   76.2410  219.3010 C   0  0  0  0  0  0  0  0  0  0  0  0
  142.9570   77.3460  218.5410 C   0  0  0  0  0  0  0  0  0  0  0  0
  141.4990   77.2090  218.6900 N   0  0  0  0  0  0  0  0  0  0  0  0
  140.6330   78.3400  218.6690 C   0  0  0  0  0  0  0  0  0  0  0  0
  141.1830   79.4560  218.5200 O   0  0  0  0  0  0  0  0  0  0  0  0
  139.1950   78.0960  218.8190 C   0  0  0  0  0  0  0  0  0  0  0  0
  138.7120   77.9970  220.2310 C   0  0  0  0  0  0  0  0  0  0  0  0
  139.3460   77.0580  221.1350 C   0  0  0  0  0  0  0  0  0  0  0  0
  140.3240   77.2220  222.0900 C   0  0  0  0  0  0  0  0  0  0  0  0
  141.0610   78.3870  222.5220 C   0  0  0  0  0  0  0  0  0  0  0  0
  141.4330   78.7270  223.7700 C   0  0  0  0  0  0  0  0  0  0  0  0
  142.1770   79.8640  224.0610 C   0  0  0  0  0  0  0  0  0  0  0  0
  142.5700   80.7120  223.0400 C   0  0  0  0  0  0  0  0  0  0  0  0
  142.2000   80.3870  221.7510 C   0  0  0  0  0  0  0  0  0  0  0  0
  141.4650   79.2580  221.4880 C   0  0  0  0  0  0  0  0  0  0  0  0
  140.5210   76.0110  222.7170 N   0  0  0  0  0  0  0  0  0  0  0  0
  139.7220   75.1400  222.1940 O   0  0  0  0  0  0  0  0  0  0  0  0
  138.9970   75.7020  221.2470 C   0  0  0  0  0  0  0  0  0  0  0  0
  137.9890   74.9310  220.4770 C   0  0  0  0  0  0  0  0  0  0  0  0
  141.0260   75.8450  218.8630 C   0  0  0  0  0  0  0  0  0  0  0  0
  141.9590   74.8630  218.1850 C   0  0  0  0  0  0  0  0  0  0  0  0
  146.1482   73.5345  222.9278 H   0  0  0  0  0  0  0  0  0  0  0  0
  145.7366   72.1853  221.8156 H   0  0  0  0  0  0  0  0  0  0  0  0
  147.3952   72.8750  221.8156 H   0  0  0  0  0  0  0  0  0  0  0  0
  145.3095   74.8915  221.3523 H   0  0  0  0  0  0  0  0  0  0  0  0
  146.8316   74.5042  220.4223 H   0  0  0  0  0  0  0  0  0  0  0  0
  142.0697   74.3650  221.5539 H   0  0  0  0  0  0  0  0  0  0  0  0
  140.4202   72.8376  222.5538 H   0  0  0  0  0  0  0  0  0  0  0  0
  140.1669   70.4971  221.6935 H   0  0  0  0  0  0  0  0  0  0  0  0
  141.6329   69.7887  219.8127 H   0  0  0  0  0  0  0  0  0  0  0  0
  143.2846   71.3286  218.8157 H   0  0  0  0  0  0  0  0  0  0  0  0
  143.9923   74.8389  217.7362 H   0  0  0  0  0  0  0  0  0  0  0  0
  143.2971   76.2188  220.3388 H   0  0  0  0  0  0  0  0  0  0  0  0
  144.7455   76.4250  219.2996 H   0  0  0  0  0  0  0  0  0  0  0  0
  143.2739   78.3212  218.9392 H   0  0  0  0  0  0  0  0  0  0  0  0
  143.2195   77.2754  217.4751 H   0  0  0  0  0  0  0  0  0  0  0  0
  138.6566   78.9223  218.3318 H   0  0  0  0  0  0  0  0  0  0  0  0
  139.0012   77.1155  218.3596 H   0  0  0  0  0  0  0  0  0  0  0  0
  138.8215   78.9961  220.6780 H   0  0  0  0  0  0  0  0  0  0  0  0
  137.6882   77.6081  220.1286 H   0  0  0  0  0  0  0  0  0  0  0  0
  141.1330   78.0720  224.6013 H   0  0  0  0  0  0  0  0  0  0  0  0
  142.4533   80.0899  225.1015 H   0  0  0  0  0  0  0  0  0  0  0  0
  143.1591   81.6170  223.2497 H   0  0  0  0  0  0  0  0  0  0  0  0
  142.4990   81.0435  220.9206 H   0  0  0  0  0  0  0  0  0  0  0  0
  141.1851   79.0274  220.4495 H   0  0  0  0  0  0  0  0  0  0  0  0
  137.3127   74.4137  221.1735 H   0  0  0  0  0  0  0  0  0  0  0  0
  137.4080   75.6174  219.8435 H   0  0  0  0  0  0  0  0  0  0  0  0
  138.4993   74.1906  219.8435 H   0  0  0  0  0  0  0  0  0  0  0  0
  140.9773   75.6135  219.9373 H   0  0  0  0  0  0  0  0  0  0  0  0
  140.0288   75.7567  218.4072 H   0  0  0  0  0  0  0  0  0  0  0  0
  141.5837   73.8469  218.3765 H   0  0  0  0  0  0  0  0  0  0  0  0
  141.9662   75.1301  217.1180 H   0  0  0  0  0  0  0  0  0  0  0  0
  1  2  1  0
  2  3  1  0
  3  4  2  0
  3  5  1  0
  5  6  1  0
  6  7  2  0
  7  8  1  0
  8  9  2  0
  9 10  1  0
 10 11  2  0
  5 12  1  0
 12 13  1  0
 13 14  1  0
 14 15  1  0
 15 16  1  0
 16 17  2  0
 16 18  1  0
 18 19  1  0
 19 20  1  0
 20 21  1  0
 21 22  1  0
 22 23  2  0
 23 24  1  0
 24 25  2  0
 25 26  1  0
 26 27  2  0
 21 28  2  0
 28 29  1  0
 29 30  1  0
 30 31  1  0
 15 32  1  0
 32 33  1  0
 11  6  1  0
 33 12  1  0
 30 20  2  0
 27 22  1  0
  1 34  1  0
  1 35  1  0
  1 36  1  0
  2 37  1  0
  2 38  1  0
  7 39  1  0
  8 40  1  0
  9 41  1  0
 10 42  1  0
 11 43  1  0
 12 44  1  0
 13 45  1  0
 13 46  1  0
 14 47  1  0
 14 48  1  0
 18 49  1  0
 18 50  1  0
 19 51  1  0
 19 52  1  0
 23 53  1  0
 24 54  1  0
 25 55  1  0
 26 56  1  0
 27 57  1  0
 31 58  1  0
 31 59  1  0
 31 60  1  0
 32 61  1  0
 32 62  1  0
 33 63  1  0
 33 64  1  0
M  END
>  <smiles>  (14) 
CCC(=O)N(c1ccccc1)C1CCN(C(=O)CCc2c(-c3ccccc3)noc2C)CC1

>  <score_type>  (14) 
oracle

>  <origin>  (14) 
autodockgpu

>  <m_score__min__energy>  (14) 
-9.5199999999999996

>  <m_primary>  (14) 
energy

>  <rmsd>  (14) 
5.095209815695961

>  <m_score__min__rmsd>  (14) 
5.095209815695961

>  <meeko>  (14) 
{"free_energy": -7.15, "intermolecular_energy": -9.54, "internal_energy": -3.29, "cluster_size": 10, "cluster_id": 12, "rank_in_cluster": 3}

>  <energy>  (14) 
-8.62

>  <cluster_rmsd>  (14) 
1.49

>  <cluster>  (14) 
3

$$$$

     RDKit          3D

 64 67  0  0  0  0  0  0  0  0999 V2000
  137.7100   79.1290  221.1930 C   0  0  0  0  0  0  0  0  0  0  0  0
  137.7880   78.4070  222.5190 C   0  0  0  0  0  0  0  0  0  0  0  0
  138.6510   77.2310  222.4840 C   0  0  0  0  0  0  0  0  0  0  0  0
  138.2650   76.1660  223.0620 O   0  0  0  0  0  0  0  0  0  0  0  0
  139.9230   77.1540  221.8490 N   0  0  0  0  0  0  0  0  0  0  0  0
  140.8400   78.1990  222.1390 C   0  0  0  0  0  0  0  0  0  0  0  0
  141.3110   79.0960  221.2160 C   0  0  0  0  0  0  0  0  0  0  0  0
  142.2090   80.1000  221.5490 C   0  0  0  0  0  0  0  0  0  0  0  0
  142.6720   80.2360  222.8480 C   0  0  0  0  0  0  0  0  0  0  0  0
  142.1970   79.3320  223.7730 C   0  0  0  0  0  0  0  0  0  0  0  0
  141.2950   78.3260  223.4350 C   0  0  0  0  0  0  0  0  0  0  0  0
  140.2780   76.0390  220.9550 C   0  0  0  0  0  0  0  0  0  0  0  0
  139.0520   75.3990  220.3800 C   0  0  0  0  0  0  0  0  0  0  0  0
  139.4300   74.0760  219.7470 C   0  0  0  0  0  0  0  0  0  0  0  0
  139.8480   73.1220  220.7860 N   0  0  0  0  0  0  0  0  0  0  0  0
  139.6520   71.7180  220.6390 C   0  0  0  0  0  0  0  0  0  0  0  0
  139.1010   71.3440  219.5790 O   0  0  0  0  0  0  0  0  0  0  0  0
  140.1110   70.8530  221.7310 C   0  0  0  0  0  0  0  0  0  0  0  0
  139.1430   70.6870  222.8600 C   0  0  0  0  0  0  0  0  0  0  0  0
  139.2120   69.4990  223.6860 C   0  0  0  0  0  0  0  0  0  0  0  0
  139.6470   69.3040  224.9780 C   0  0  0  0  0  0  0  0  0  0  0  0
  140.1880   70.2160  225.9590 C   0  0  0  0  0  0  0  0  0  0  0  0
  140.9660   71.2960  225.7580 C   0  0  0  0  0  0  0  0  0  0  0  0
  141.3990   72.1260  226.7850 C   0  0  0  0  0  0  0  0  0  0  0  0
  141.0320   71.8560  228.0920 C   0  0  0  0  0  0  0  0  0  0  0  0
  140.2360   70.7540  228.3260 C   0  0  0  0  0  0  0  0  0  0  0  0
  139.8200   69.9480  227.2940 C   0  0  0  0  0  0  0  0  0  0  0  0
  139.4370   67.9830  225.3080 N   0  0  0  0  0  0  0  0  0  0  0  0
  138.9060   67.3830  224.2940 O   0  0  0  0  0  0  0  0  0  0  0  0
  138.7480   68.2320  223.2980 C   0  0  0  0  0  0  0  0  0  0  0  0
  138.1540   67.8120  222.0050 C   0  0  0  0  0  0  0  0  0  0  0  0
  140.4640   73.7240  221.9580 C   0  0  0  0  0  0  0  0  0  0  0  0
  141.1540   75.0220  221.5950 C   0  0  0  0  0  0  0  0  0  0  0  0
  137.5934   80.2085  221.3696 H   0  0  0  0  0  0  0  0  0  0  0  0
  138.6329   78.9484  220.6223 H   0  0  0  0  0  0  0  0  0  0  0  0
  136.8470   78.7555  220.6223 H   0  0  0  0  0  0  0  0  0  0  0  0
  138.1786   79.1047  223.2744 H   0  0  0  0  0  0  0  0  0  0  0  0
  136.7729   78.0600  222.7621 H   0  0  0  0  0  0  0  0  0  0  0  0
  140.9650   79.0172  220.1748 H   0  0  0  0  0  0  0  0  0  0  0  0
  142.5577   80.7965  220.7723 H   0  0  0  0  0  0  0  0  0  0  0  0
  143.3838   81.0269  223.1270 H   0  0  0  0  0  0  0  0  0  0  0  0
  142.5422   79.4074  224.8147 H   0  0  0  0  0  0  0  0  0  0  0  0
  140.9426   77.6271  224.2078 H   0  0  0  0  0  0  0  0  0  0  0  0
  140.8663   76.4817  220.1378 H   0  0  0  0  0  0  0  0  0  0  0  0
  138.3171   75.2271  221.1803 H   0  0  0  0  0  0  0  0  0  0  0  0
  138.6128   76.0604  219.6187 H   0  0  0  0  0  0  0  0  0  0  0  0
  138.5621   73.6694  219.2071 H   0  0  0  0  0  0  0  0  0  0  0  0
  140.2635   74.2357  219.0472 H   0  0  0  0  0  0  0  0  0  0  0  0
  140.3198   69.8575  221.3122 H   0  0  0  0  0  0  0  0  0  0  0  0
  140.9979   71.3439  222.1581 H   0  0  0  0  0  0  0  0  0  0  0  0
  139.2786   71.5503  223.5281 H   0  0  0  0  0  0  0  0  0  0  0  0
  138.1693   70.5969  222.3562 H   0  0  0  0  0  0  0  0  0  0  0  0
  141.2745   71.5334  224.7292 H   0  0  0  0  0  0  0  0  0  0  0  0
  142.0326   72.9965  226.5595 H   0  0  0  0  0  0  0  0  0  0  0  0
  141.3649   72.5005  228.9189 H   0  0  0  0  0  0  0  0  0  0  0  0
  139.9293   70.5167  229.3554 H   0  0  0  0  0  0  0  0  0  0  0  0
  139.1869   69.0756  227.5134 H   0  0  0  0  0  0  0  0  0  0  0  0
  137.2692   67.1864  222.1940 H   0  0  0  0  0  0  0  0  0  0  0  0
  137.8577   68.7024  221.4312 H   0  0  0  0  0  0  0  0  0  0  0  0
  138.8947   67.2358  221.4312 H   0  0  0  0  0  0  0  0  0  0  0  0
  139.6872   73.9264  222.7100 H   0  0  0  0  0  0  0  0  0  0  0  0
  141.2134   73.0265  222.3603 H   0  0  0  0  0  0  0  0  0  0  0  0
  141.5676   75.4583  222.5162 H   0  0  0  0  0  0  0  0  0  0  0  0
  141.9229   74.7652  220.8514 H   0  0  0  0  0  0  0  0  0  0  0  0
  1  2  1  0
  2  3  1  0
  3  4  2  0
  3  5  1  0
  5  6  1  0
  6  7  2  0
  7  8  1  0
  8  9  2  0
  9 10  1  0
 10 11  2  0
  5 12  1  0
 12 13  1  0
 13 14  1  0
 14 15  1  0
 15 16  1  0
 16 17  2  0
 16 18  1  0
 18 19  1  0
 19 20  1  0
 20 21  1  0
 21 22  1  0
 22 23  2  0
 23 24  1  0
 24 25  2  0
 25 26  1  0
 26 27  2  0
 21 28  2  0
 28 29  1  0
 29 30  1  0
 30 31  1  0
 15 32  1  0
 32 33  1  0
 11  6  1  0
 33 12  1  0
 30 20  2  0
 27 22  1  0
  1 34  1  0
  1 35  1  0
  1 36  1  0
  2 37  1  0
  2 38  1  0
  7 39  1  0
  8 40  1  0
  9 41  1  0
 10 42  1  0
 11 43  1  0
 12 44  1  0
 13 45  1  0
 13 46  1  0
 14 47  1  0
 14 48  1  0
 18 49  1  0
 18 50  1  0
 19 51  1  0
 19 52  1  0
 23 53  1  0
 24 54  1  0
 25 55  1  0
 26 56  1  0
 27 57  1  0
 31 58  1  0
 31 59  1  0
 31 60  1  0
 32 61  1  0
 32 62  1  0
 33 63  1  0
 33 64  1  0
M  END
>  <smiles>  (15) 
CCC(=O)N(c1ccccc1)C1CCN(C(=O)CCc2c(-c3ccccc3)noc2C)CC1

>  <score_type>  (15) 
oracle

>  <origin>  (15) 
autodockgpu

>  <m_score__min__energy>  (15) 
-9.5199999999999996

>  <m_primary>  (15) 
energy

>  <rmsd>  (15) 
7.553360818253344

>  <m_score__min__rmsd>  (15) 
7.553360818253344

>  <meeko>  (15) 
{"free_energy": -8.86, "intermolecular_energy": -11.24, "internal_energy": -1.95, "cluster_size": 14, "cluster_id": 3, "rank_in_cluster": 2}

>  <energy>  (15) 
-8.58

>  <cluster_rmsd>  (15) 
1.5

>  <cluster>  (15) 
3

$$$$

     RDKit          3D

 64 67  0  0  0  0  0  0  0  0999 V2000
  132.3500   77.1390  227.5810 C   0  0  0  0  0  0  0  0  0  0  0  0
  133.5700   76.5890  226.8790 C   0  0  0  0  0  0  0  0  0  0  0  0
  133.4350   75.1870  226.5000 C   0  0  0  0  0  0  0  0  0  0  0  0
  132.8470   74.3880  227.2950 O   0  0  0  0  0  0  0  0  0  0  0  0
  133.9110   74.6040  225.2910 N   0  0  0  0  0  0  0  0  0  0  0  0
  134.6720   75.4490  224.4380 C   0  0  0  0  0  0  0  0  0  0  0  0
  136.0210   75.3270  224.2320 C   0  0  0  0  0  0  0  0  0  0  0  0
  136.7210   76.1790  223.3900 C   0  0  0  0  0  0  0  0  0  0  0  0
  136.0730   77.2000  222.7140 C   0  0  0  0  0  0  0  0  0  0  0  0
  134.7170   77.3190  222.9250 C   0  0  0  0  0  0  0  0  0  0  0  0
  134.0170   76.4620  223.7710 C   0  0  0  0  0  0  0  0  0  0  0  0
  133.6470   73.1960  224.9510 C   0  0  0  0  0  0  0  0  0  0  0  0
  134.2470   72.2760  225.9690 C   0  0  0  0  0  0  0  0  0  0  0  0
  134.2480   70.8620  225.4250 C   0  0  0  0  0  0  0  0  0  0  0  0
  135.1810   70.7610  224.2920 N   0  0  0  0  0  0  0  0  0  0  0  0
  135.8690   69.5490  223.9920 C   0  0  0  0  0  0  0  0  0  0  0  0
  135.6380   68.5790  224.7500 O   0  0  0  0  0  0  0  0  0  0  0  0
  136.7730   69.5510  222.8370 C   0  0  0  0  0  0  0  0  0  0  0  0
  138.2270   69.4350  223.1680 C   0  0  0  0  0  0  0  0  0  0  0  0
  138.9930   70.6360  223.4340 C   0  0  0  0  0  0  0  0  0  0  0  0
  139.7370   71.0280  224.5240 C   0  0  0  0  0  0  0  0  0  0  0  0
  140.0110   70.3770  225.7850 C   0  0  0  0  0  0  0  0  0  0  0  0
  139.7490   69.1070  226.1460 C   0  0  0  0  0  0  0  0  0  0  0  0
  140.0950   68.5790  227.3840 C   0  0  0  0  0  0  0  0  0  0  0  0
  140.7410   69.3720  228.3160 C   0  0  0  0  0  0  0  0  0  0  0  0
  141.0200   70.6780  227.9720 C   0  0  0  0  0  0  0  0  0  0  0  0
  140.6690   71.1780  226.7420 C   0  0  0  0  0  0  0  0  0  0  0  0
  140.3170   72.2430  224.2360 N   0  0  0  0  0  0  0  0  0  0  0  0
  139.9640   72.5970  223.0440 O   0  0  0  0  0  0  0  0  0  0  0  0
  139.1760   71.6830  222.5150 C   0  0  0  0  0  0  0  0  0  0  0  0
  138.6220   71.8310  221.1460 C   0  0  0  0  0  0  0  0  0  0  0  0
  135.3420   71.9820  223.5190 C   0  0  0  0  0  0  0  0  0  0  0  0
  134.0860   72.8250  223.5800 C   0  0  0  0  0  0  0  0  0  0  0  0
  132.4932   77.0745  228.6697 H   0  0  0  0  0  0  0  0  0  0  0  0
  132.2035   78.1902  227.2921 H   0  0  0  0  0  0  0  0  0  0  0  0
  131.4653   76.5527  227.2921 H   0  0  0  0  0  0  0  0  0  0  0  0
  133.7457   77.1813  225.9689 H   0  0  0  0  0  0  0  0  0  0  0  0
  134.4102   76.6558  227.5859 H   0  0  0  0  0  0  0  0  0  0  0  0
  136.5676   74.5264  224.7518 H   0  0  0  0  0  0  0  0  0  0  0  0
  137.8044   76.0421  223.2575 H   0  0  0  0  0  0  0  0  0  0  0  0
  136.6146   77.8819  222.0420 H   0  0  0  0  0  0  0  0  0  0  0  0
  134.1676   78.1190  222.4072 H   0  0  0  0  0  0  0  0  0  0  0  0
  132.9336   76.5945  223.9078 H   0  0  0  0  0  0  0  0  0  0  0  0
  132.5532   73.0805  224.9654 H   0  0  0  0  0  0  0  0  0  0  0  0
  135.2797   72.5882  226.1834 H   0  0  0  0  0  0  0  0  0  0  0  0
  133.6554   72.3146  226.8955 H   0  0  0  0  0  0  0  0  0  0  0  0
  134.5607   70.1666  226.2179 H   0  0  0  0  0  0  0  0  0  0  0  0
  133.2345   70.6053  225.0830 H   0  0  0  0  0  0  0  0  0  0  0  0
  136.5020   68.7029  222.1910 H   0  0  0  0  0  0  0  0  0  0  0  0
  136.6469   70.5300  222.3515 H   0  0  0  0  0  0  0  0  0  0  0  0
  138.3023   68.8016  224.0642 H   0  0  0  0  0  0  0  0  0  0  0  0
  138.6736   69.0415  222.2429 H   0  0  0  0  0  0  0  0  0  0  0  0
  139.2352   68.4543  225.4249 H   0  0  0  0  0  0  0  0  0  0  0  0
  139.8557   67.5322  227.6227 H   0  0  0  0  0  0  0  0  0  0  0  0
  141.0234   68.9728  229.3013 H   0  0  0  0  0  0  0  0  0  0  0  0
  141.5322   71.3301  228.6948 H   0  0  0  0  0  0  0  0  0  0  0  0
  140.9057   72.2242  226.4981 H   0  0  0  0  0  0  0  0  0  0  0  0
  137.5610   72.1145  221.2085 H   0  0  0  0  0  0  0  0  0  0  0  0
  139.1790   72.6118  220.6075 H   0  0  0  0  0  0  0  0  0  0  0  0
  138.7154   70.8764  220.6075 H   0  0  0  0  0  0  0  0  0  0  0  0
  136.1843   72.5594  223.9277 H   0  0  0  0  0  0  0  0  0  0  0  0
  135.5361   71.7129  222.4702 H   0  0  0  0  0  0  0  0  0  0  0  0
  134.2692   73.7522  223.0173 H   0  0  0  0  0  0  0  0  0  0  0  0
  133.2802   72.2091  223.1542 H   0  0  0  0  0  0  0  0  0  0  0  0
  1  2  1  0
  2  3  1  0
  3  4  2  0
  3  5  1  0
  5  6  1  0
  6  7  2  0
  7  8  1  0
  8  9  2  0
  9 10  1  0
 10 11  2  0
  5 12  1  0
 12 13  1  0
 13 14  1  0
 14 15  1  0
 15 16  1  0
 16 17  2  0
 16 18  1  0
 18 19  1  0
 19 20  1  0
 20 21  1  0
 21 22  1  0
 22 23  2  0
 23 24  1  0
 24 25  2  0
 25 26  1  0
 26 27  2  0
 21 28  2  0
 28 29  1  0
 29 30  1  0
 30 31  1  0
 15 32  1  0
 32 33  1  0
 11  6  1  0
 33 12  1  0
 30 20  2  0
 27 22  1  0
  1 34  1  0
  1 35  1  0
  1 36  1  0
  2 37  1  0
  2 38  1  0
  7 39  1  0
  8 40  1  0
  9 41  1  0
 10 42  1  0
 11 43  1  0
 12 44  1  0
 13 45  1  0
 13 46  1  0
 14 47  1  0
 14 48  1  0
 18 49  1  0
 18 50  1  0
 19 51  1  0
 19 52  1  0
 23 53  1  0
 24 54  1  0
 25 55  1  0
 26 56  1  0
 27 57  1  0
 31 58  1  0
 31 59  1  0
 31 60  1  0
 32 61  1  0
 32 62  1  0
 33 63  1  0
 33 64  1  0
M  END
>  <smiles>  (16) 
CCC(=O)N(c1ccccc1)C1CCN(C(=O)CCc2c(-c3ccccc3)noc2C)CC1

>  <score_type>  (16) 
oracle

>  <origin>  (16) 
autodockgpu

>  <m_score__min__energy>  (16) 
-9.5199999999999996

>  <m_primary>  (16) 
energy

>  <rmsd>  (16) 
10.076230070933724

>  <m_score__min__rmsd>  (16) 
10.076230070933724

>  <meeko>  (16) 
{"free_energy": -7.79, "intermolecular_energy": -10.17, "internal_energy": -2.24, "cluster_size": 2, "cluster_id": 9, "rank_in_cluster": 2}

>  <energy>  (16) 
-8.54

>  <cluster_rmsd>  (16) 
1.5

>  <cluster>  (16) 
3

$$$$

     RDKit          3D

 64 67  0  0  0  0  0  0  0  0999 V2000
  141.0490   67.9390  227.9520 C   0  0  0  0  0  0  0  0  0  0  0  0
  141.1940   67.6580  226.4740 C   0  0  0  0  0  0  0  0  0  0  0  0
  139.9960   67.9790  225.7060 C   0  0  0  0  0  0  0  0  0  0  0  0
  139.2620   67.0320  225.2830 O   0  0  0  0  0  0  0  0  0  0  0  0
  139.5520   69.2910  225.3720 N   0  0  0  0  0  0  0  0  0  0  0  0
  140.0320   70.3500  226.1890 C   0  0  0  0  0  0  0  0  0  0  0  0
  139.6100   70.5930  227.4700 C   0  0  0  0  0  0  0  0  0  0  0  0
  140.1090   71.6420  228.2270 C   0  0  0  0  0  0  0  0  0  0  0  0
  141.0680   72.4980  227.7110 C   0  0  0  0  0  0  0  0  0  0  0  0
  141.4900   72.2500  226.4230 C   0  0  0  0  0  0  0  0  0  0  0  0
  140.9870   71.1950  225.6650 C   0  0  0  0  0  0  0  0  0  0  0  0
  138.6600   69.5410  224.2270 C   0  0  0  0  0  0  0  0  0  0  0  0
  139.3770   70.2770  223.1370 C   0  0  0  0  0  0  0  0  0  0  0  0
  138.3660   70.8020  222.1400 C   0  0  0  0  0  0  0  0  0  0  0  0
  137.5410   71.8480  222.7640 N   0  0  0  0  0  0  0  0  0  0  0  0
  136.9910   72.9220  222.0060 C   0  0  0  0  0  0  0  0  0  0  0  0
  137.2540   72.9270  220.7810 O   0  0  0  0  0  0  0  0  0  0  0  0
  136.1780   73.9110  222.7220 C   0  0  0  0  0  0  0  0  0  0  0  0
  134.8090   73.4460  223.1080 C   0  0  0  0  0  0  0  0  0  0  0  0
  134.4020   73.5160  224.4970 C   0  0  0  0  0  0  0  0  0  0  0  0
  134.1130   72.5350  225.4190 C   0  0  0  0  0  0  0  0  0  0  0  0
  134.1130   71.0930  225.3210 C   0  0  0  0  0  0  0  0  0  0  0  0
  134.1410   70.1870  226.3150 C   0  0  0  0  0  0  0  0  0  0  0  0
  134.1000   68.8140  226.0980 C   0  0  0  0  0  0  0  0  0  0  0  0
  134.0290   68.3220  224.8060 C   0  0  0  0  0  0  0  0  0  0  0  0
  134.0010   69.2310  223.7680 C   0  0  0  0  0  0  0  0  0  0  0  0
  134.0420   70.5820  224.0080 C   0  0  0  0  0  0  0  0  0  0  0  0
  133.8380   73.1430  226.6240 N   0  0  0  0  0  0  0  0  0  0  0  0
  133.9460   74.4220  226.4750 O   0  0  0  0  0  0  0  0  0  0  0  0
  134.2780   74.7070  225.2310 C   0  0  0  0  0  0  0  0  0  0  0  0
  134.4730   76.1060  224.7790 C   0  0  0  0  0  0  0  0  0  0  0  0
  137.3420   71.6990  224.1970 C   0  0  0  0  0  0  0  0  0  0  0  0
  137.4010   70.2400  224.5980 C   0  0  0  0  0  0  0  0  0  0  0  0
  141.4789   67.1059  228.5275 H   0  0  0  0  0  0  0  0  0  0  0  0
  141.5794   68.8696  228.2021 H   0  0  0  0  0  0  0  0  0  0  0  0
  139.9831   68.0459  228.2021 H   0  0  0  0  0  0  0  0  0  0  0  0
  142.0297   68.2581  226.0847 H   0  0  0  0  0  0  0  0  0  0  0  0
  141.3727   66.5783  226.3633 H   0  0  0  0  0  0  0  0  0  0  0  0
  138.8493   69.9332  227.9128 H   0  0  0  0  0  0  0  0  0  0  0  0
  139.7383   71.7965  229.2511 H   0  0  0  0  0  0  0  0  0  0  0  0
  141.4725   73.3342  228.3002 H   0  0  0  0  0  0  0  0  0  0  0  0
  142.2507   72.9081  225.9777 H   0  0  0  0  0  0  0  0  0  0  0  0
  141.3546   71.0350  224.6406 H   0  0  0  0  0  0  0  0  0  0  0  0
  138.3626   68.5504  223.8525 H   0  0  0  0  0  0  0  0  0  0  0  0
  139.9382   71.1186  223.5692 H   0  0  0  0  0  0  0  0  0  0  0  0
  140.0757   69.5956  222.6296 H   0  0  0  0  0  0  0  0  0  0  0  0
  138.8949   71.2241  221.2727 H   0  0  0  0  0  0  0  0  0  0  0  0
  137.7167   69.9758  221.8149 H   0  0  0  0  0  0  0  0  0  0  0  0
  136.7140   74.1926  223.6404 H   0  0  0  0  0  0  0  0  0  0  0  0
  136.0321   74.7502  222.0259 H   0  0  0  0  0  0  0  0  0  0  0  0
  134.0911   74.0488  222.5324 H   0  0  0  0  0  0  0  0  0  0  0  0
  134.8312   72.3667  222.8970 H   0  0  0  0  0  0  0  0  0  0  0  0
  134.1993   70.5505  227.3516 H   0  0  0  0  0  0  0  0  0  0  0  0
  134.1239   68.1203  226.9513 H   0  0  0  0  0  0  0  0  0  0  0  0
  133.9959   67.2396  224.6126 H   0  0  0  0  0  0  0  0  0  0  0  0
  133.9449   68.8671  222.7315 H   0  0  0  0  0  0  0  0  0  0  0  0
  134.0190   71.2807  223.1587 H   0  0  0  0  0  0  0  0  0  0  0  0
  134.5649   76.7649  225.6550 H   0  0  0  0  0  0  0  0  0  0  0  0
  135.3889   76.1714  224.1734 H   0  0  0  0  0  0  0  0  0  0  0  0
  133.6099   76.4194  224.1734 H   0  0  0  0  0  0  0  0  0  0  0  0
  138.1295   72.2519  224.7301 H   0  0  0  0  0  0  0  0  0  0  0  0
  136.3508   72.0974  224.4592 H   0  0  0  0  0  0  0  0  0  0  0  0
  137.2859   70.1806  225.6904 H   0  0  0  0  0  0  0  0  0  0  0  0
  136.5932   69.7351  224.0479 H   0  0  0  0  0  0  0  0  0  0  0  0
  1  2  1  0
  2  3  1  0
  3  4  2  0
  3  5  1  0
  5  6  1  0
  6  7  2  0
  7  8  1  0
  8  9  2  0
  9 10  1  0
 10 11  2  0
  5 12  1  0
 12 13  1  0
 13 14  1  0
 14 15  1  0
 15 16  1  0
 16 17  2  0
 16 18  1  0
 18 19  1  0
 19 20  1  0
 20 21  1  0
 21 22  1  0
 22 23  2  0
 23 24  1  0
 24 25  2  0
 25 26  1  0
 26 27  2  0
 21 28  2  0
 28 29  1  0
 29 30  1  0
 30 31  1  0
 15 32  1  0
 32 33  1  0
 11  6  1  0
 33 12  1  0
 30 20  2  0
 27 22  1  0
  1 34  1  0
  1 35  1  0
  1 36  1  0
  2 37  1  0
  2 38  1  0
  7 39  1  0
  8 40  1  0
  9 41  1  0
 10 42  1  0
 11 43  1  0
 12 44  1  0
 13 45  1  0
 13 46  1  0
 14 47  1  0
 14 48  1  0
 18 49  1  0
 18 50  1  0
 19 51  1  0
 19 52  1  0
 23 53  1  0
 24 54  1  0
 25 55  1  0
 26 56  1  0
 27 57  1  0
 31 58  1  0
 31 59  1  0
 31 60  1  0
 32 61  1  0
 32 62  1  0
 33 63  1  0
 33 64  1  0
M  END
>  <smiles>  (17) 
CCC(=O)N(c1ccccc1)C1CCN(C(=O)CCc2c(-c3ccccc3)noc2C)CC1

>  <score_type>  (17) 
oracle

>  <origin>  (17) 
autodockgpu

>  <m_score__min__energy>  (17) 
-9.5199999999999996

>  <m_primary>  (17) 
energy

>  <rmsd>  (17) 
9.841276239078908

>  <m_score__min__rmsd>  (17) 
9.841276239078908

>  <meeko>  (17) 
{"free_energy": -7.94, "intermolecular_energy": -10.33, "internal_energy": -2.66, "cluster_size": 4, "cluster_id": 4, "rank_in_cluster": 2}

>  <energy>  (17) 
-8.45

>  <cluster_rmsd>  (17) 
0.64

>  <cluster>  (17) 
3

$$$$

     RDKit          3D

 64 67  0  0  0  0  0  0  0  0999 V2000
  146.0900   73.0580  221.8420 C   0  0  0  0  0  0  0  0  0  0  0  0
  146.0470   73.9660  220.6350 C   0  0  0  0  0  0  0  0  0  0  0  0
  145.1920   73.4630  219.5660 C   0  0  0  0  0  0  0  0  0  0  0  0
  145.6680   72.6250  218.7370 O   0  0  0  0  0  0  0  0  0  0  0  0
  143.8330   73.8290  219.3490 N   0  0  0  0  0  0  0  0  0  0  0  0
  142.8480   72.9550  219.8840 C   0  0  0  0  0  0  0  0  0  0  0  0
  142.4950   71.7530  219.3280 C   0  0  0  0  0  0  0  0  0  0  0  0
  141.5250   70.9350  219.8880 C   0  0  0  0  0  0  0  0  0  0  0  0
  140.8660   71.3060  221.0490 C   0  0  0  0  0  0  0  0  0  0  0  0
  141.2240   72.5150  221.6050 C   0  0  0  0  0  0  0  0  0  0  0  0
  142.1980   73.3340  221.0400 C   0  0  0  0  0  0  0  0  0  0  0  0
  143.4640   75.0600  218.6290 C   0  0  0  0  0  0  0  0  0  0  0  0
  143.6410   76.2660  219.4990 C   0  0  0  0  0  0  0  0  0  0  0  0
  142.9510   77.4510  218.8560 C   0  0  0  0  0  0  0  0  0  0  0  0
  141.4940   77.2460  218.8600 N   0  0  0  0  0  0  0  0  0  0  0  0
  140.5830   78.3400  218.9340 C   0  0  0  0  0  0  0  0  0  0  0  0
  141.0930   79.4820  219.0010 O   0  0  0  0  0  0  0  0  0  0  0  0
  139.1500   78.0300  218.9250 C   0  0  0  0  0  0  0  0  0  0  0  0
  138.5740   77.6480  220.2520 C   0  0  0  0  0  0  0  0  0  0  0  0
  139.3600   76.8380  221.1600 C   0  0  0  0  0  0  0  0  0  0  0  0
  140.3530   77.1650  222.0560 C   0  0  0  0  0  0  0  0  0  0  0  0
  140.9600   78.4300  222.3990 C   0  0  0  0  0  0  0  0  0  0  0  0
  142.1770   78.8940  222.0610 C   0  0  0  0  0  0  0  0  0  0  0  0
  142.6410   80.1530  222.4220 C   0  0  0  0  0  0  0  0  0  0  0  0
  141.8370   80.9970  223.1690 C   0  0  0  0  0  0  0  0  0  0  0  0
  140.5850   80.5450  223.5300 C   0  0  0  0  0  0  0  0  0  0  0  0
  140.1480   79.2970  223.1610 C   0  0  0  0  0  0  0  0  0  0  0  0
  140.7270   76.0190  222.7220 N   0  0  0  0  0  0  0  0  0  0  0  0
  140.0170   75.0330  222.2790 O   0  0  0  0  0  0  0  0  0  0  0  0
  139.1860   75.4570  221.3470 C   0  0  0  0  0  0  0  0  0  0  0  0
  138.2470   74.5330  220.6650 C   0  0  0  0  0  0  0  0  0  0  0  0
  141.0700   75.8580  218.7860 C   0  0  0  0  0  0  0  0  0  0  0  0
  142.0950   75.0210  218.0510 C   0  0  0  0  0  0  0  0  0  0  0  0
  146.0612   73.6652  222.7588 H   0  0  0  0  0  0  0  0  0  0  0  0
  145.2229   72.3814  221.8229 H   0  0  0  0  0  0  0  0  0  0  0  0
  147.0172   72.4664  221.8229 H   0  0  0  0  0  0  0  0  0  0  0  0
  145.6691   74.9495  220.9510 H   0  0  0  0  0  0  0  0  0  0  0  0
  147.0698   74.0247  220.2344 H   0  0  0  0  0  0  0  0  0  0  0  0
  142.9982   71.4259  218.4062 H   0  0  0  0  0  0  0  0  0  0  0  0
  141.2756   69.9792  219.4041 H   0  0  0  0  0  0  0  0  0  0  0  0
  140.0951   70.6670  221.5044 H   0  0  0  0  0  0  0  0  0  0  0  0
  140.7229   72.8445  222.5272 H   0  0  0  0  0  0  0  0  0  0  0  0
  142.4512   74.2911  221.5194 H   0  0  0  0  0  0  0  0  0  0  0  0
  144.1555   75.1309  217.7764 H   0  0  0  0  0  0  0  0  0  0  0  0
  143.1980   76.0745  220.4875 H   0  0  0  0  0  0  0  0  0  0  0  0
  144.7131   76.4823  219.6163 H   0  0  0  0  0  0  0  0  0  0  0  0
  143.1923   78.3637  219.4205 H   0  0  0  0  0  0  0  0  0  0  0  0
  143.2992   77.5526  217.8175 H   0  0  0  0  0  0  0  0  0  0  0  0
  138.6116   78.9183  218.5630 H   0  0  0  0  0  0  0  0  0  0  0  0
  139.0314   77.1503  218.2753 H   0  0  0  0  0  0  0  0  0  0  0  0
  138.3369   78.5834  220.7800 H   0  0  0  0  0  0  0  0  0  0  0  0
  137.7265   76.9975  219.9902 H   0  0  0  0  0  0  0  0  0  0  0  0
  142.8379   78.2438  221.4690 H   0  0  0  0  0  0  0  0  0  0  0  0
  143.6457   80.4787  222.1147 H   0  0  0  0  0  0  0  0  0  0  0  0
  142.1860   81.9972  223.4654 H   0  0  0  0  0  0  0  0  0  0  0  0
  139.9256   81.1953  224.1235 H   0  0  0  0  0  0  0  0  0  0  0  0
  139.1442   78.9659  223.4655 H   0  0  0  0  0  0  0  0  0  0  0  0
  137.6751   73.9702  221.4174 H   0  0  0  0  0  0  0  0  0  0  0  0
  137.5549   75.1120  220.0359 H   0  0  0  0  0  0  0  0  0  0  0  0
  138.8148   73.8316  220.0359 H   0  0  0  0  0  0  0  0  0  0  0  0
  140.9467   75.4638  219.8055 H   0  0  0  0  0  0  0  0  0  0  0  0
  140.1171   75.8092  218.2386 H   0  0  0  0  0  0  0  0  0  0  0  0
  141.7510   73.9762  218.0569 H   0  0  0  0  0  0  0  0  0  0  0  0
  142.1742   75.4470  217.0399 H   0  0  0  0  0  0  0  0  0  0  0  0
  1  2  1  0
  2  3  1  0
  3  4  2  0
  3  5  1  0
  5  6  1  0
  6  7  2  0
  7  8  1  0
  8  9  2  0
  9 10  1  0
 10 11  2  0
  5 12  1  0
 12 13  1  0
 13 14  1  0
 14 15  1  0
 15 16  1  0
 16 17  2  0
 16 18  1  0
 18 19  1  0
 19 20  1  0
 20 21  1  0
 21 22  1  0
 22 23  2  0
 23 24  1  0
 24 25  2  0
 25 26  1  0
 26 27  2  0
 21 28  2  0
 28 29  1  0
 29 30  1  0
 30 31  1  0
 15 32  1  0
 32 33  1  0
 11  6  1  0
 33 12  1  0
 30 20  2  0
 27 22  1  0
  1 34  1  0
  1 35  1  0
  1 36  1  0
  2 37  1  0
  2 38  1  0
  7 39  1  0
  8 40  1  0
  9 41  1  0
 10 42  1  0
 11 43  1  0
 12 44  1  0
 13 45  1  0
 13 46  1  0
 14 47  1  0
 14 48  1  0
 18 49  1  0
 18 50  1  0
 19 51  1  0
 19 52  1  0
 23 53  1  0
 24 54  1  0
 25 55  1  0
 26 56  1  0
 27 57  1  0
 31 58  1  0
 31 59  1  0
 31 60  1  0
 32 61  1  0
 32 62  1  0
 33 63  1  0
 33 64  1  0
M  END
>  <smiles>  (18) 
CCC(=O)N(c1ccccc1)C1CCN(C(=O)CCc2c(-c3ccccc3)noc2C)CC1

>  <score_type>  (18) 
oracle

>  <origin>  (18) 
autodockgpu

>  <m_score__min__energy>  (18) 
-9.5199999999999996

>  <m_primary>  (18) 
energy

>  <rmsd>  (18) 
5.0536346346460785

>  <m_score__min__rmsd>  (18) 
5.0536346346460785

>  <meeko>  (18) 
{"free_energy": -6.95, "intermolecular_energy": -9.33, "internal_energy": -3.6, "cluster_size": 10, "cluster_id": 12, "rank_in_cluster": 5}

>  <energy>  (18) 
-8.36

>  <cluster_rmsd>  (18) 
1.85

>  <cluster>  (18) 
3

$$$$

     RDKit          3D

 64 67  0  0  0  0  0  0  0  0999 V2000
  141.5980   77.9980  218.2450 C   0  0  0  0  0  0  0  0  0  0  0  0
  142.6310   77.2690  219.0730 C   0  0  0  0  0  0  0  0  0  0  0  0
  142.0510   76.4760  220.1510 C   0  0  0  0  0  0  0  0  0  0  0  0
  142.5980   75.3730  220.4690 O   0  0  0  0  0  0  0  0  0  0  0  0
  140.8960   76.8240  220.9080 N   0  0  0  0  0  0  0  0  0  0  0  0
  141.0210   77.9440  221.7740 C   0  0  0  0  0  0  0  0  0  0  0  0
  141.4580   77.8760  223.0710 C   0  0  0  0  0  0  0  0  0  0  0  0
  141.5600   78.9990  223.8780 C   0  0  0  0  0  0  0  0  0  0  0  0
  141.2200   80.2530  223.3980 C   0  0  0  0  0  0  0  0  0  0  0  0
  140.7800   80.3180  222.0930 C   0  0  0  0  0  0  0  0  0  0  0  0
  140.6790   79.1880  221.2850 C   0  0  0  0  0  0  0  0  0  0  0  0
  139.6320   76.0790  220.7850 C   0  0  0  0  0  0  0  0  0  0  0  0
  138.9760   75.9090  222.1200 C   0  0  0  0  0  0  0  0  0  0  0  0
  137.8770   74.8730  222.0080 C   0  0  0  0  0  0  0  0  0  0  0  0
  138.4610   73.5470  221.7520 N   0  0  0  0  0  0  0  0  0  0  0  0
  137.8350   72.3510  222.2080 C   0  0  0  0  0  0  0  0  0  0  0  0
  136.7640   72.4930  222.8410 O   0  0  0  0  0  0  0  0  0  0  0  0
  138.4940   71.0790  221.8950 C   0  0  0  0  0  0  0  0  0  0  0  0
  139.5680   70.6680  222.8520 C   0  0  0  0  0  0  0  0  0  0  0  0
  139.3930   69.4660  223.6430 C   0  0  0  0  0  0  0  0  0  0  0  0
  139.5640   69.2180  224.9860 C   0  0  0  0  0  0  0  0  0  0  0  0
  139.9800   70.0710  226.0760 C   0  0  0  0  0  0  0  0  0  0  0  0
  139.6420   69.9920  227.3760 C   0  0  0  0  0  0  0  0  0  0  0  0
  140.1380   70.8540  228.3470 C   0  0  0  0  0  0  0  0  0  0  0  0
  141.0240   71.8570  227.9920 C   0  0  0  0  0  0  0  0  0  0  0  0
  141.3850   71.9610  226.6640 C   0  0  0  0  0  0  0  0  0  0  0  0
  140.8820   71.0970  225.7230 C   0  0  0  0  0  0  0  0  0  0  0  0
  139.1980   67.9140  225.2340 N   0  0  0  0  0  0  0  0  0  0  0  0
  138.8220   67.3720  224.1220 O   0  0  0  0  0  0  0  0  0  0  0  0
  138.9160   68.2450  223.1380 C   0  0  0  0  0  0  0  0  0  0  0  0
  138.5440   67.8920  221.7460 C   0  0  0  0  0  0  0  0  0  0  0  0
  139.7110   73.5610  221.0110 C   0  0  0  0  0  0  0  0  0  0  0  0
  139.7820   74.7680  220.0990 C   0  0  0  0  0  0  0  0  0  0  0  0
  140.8832   78.5025  218.9117 H   0  0  0  0  0  0  0  0  0  0  0  0
  142.0974   78.7449  217.6103 H   0  0  0  0  0  0  0  0  0  0  0  0
  141.0616   77.2772  217.6103 H   0  0  0  0  0  0  0  0  0  0  0  0
  143.1981   76.5974  218.4116 H   0  0  0  0  0  0  0  0  0  0  0  0
  143.2729   78.0315  219.5383 H   0  0  0  0  0  0  0  0  0  0  0  0
  141.7376   76.8966  223.4864 H   0  0  0  0  0  0  0  0  0  0  0  0
  141.9158   78.8925  224.9134 H   0  0  0  0  0  0  0  0  0  0  0  0
  141.2972   81.1523  224.0267 H   0  0  0  0  0  0  0  0  0  0  0  0
  140.4990   81.2961  221.6755 H   0  0  0  0  0  0  0  0  0  0  0  0
  140.3238   79.2882  220.2488 H   0  0  0  0  0  0  0  0  0  0  0  0
  138.9808   76.6901  220.1428 H   0  0  0  0  0  0  0  0  0  0  0  0
  139.7220   75.5755  222.8564 H   0  0  0  0  0  0  0  0  0  0  0  0
  138.5470   76.8683  222.4452 H   0  0  0  0  0  0  0  0  0  0  0  0
  137.3059   74.8445  222.9477 H   0  0  0  0  0  0  0  0  0  0  0  0
  137.2106   75.1415  221.1750 H   0  0  0  0  0  0  0  0  0  0  0  0
  137.7265   70.2910  221.8852 H   0  0  0  0  0  0  0  0  0  0  0  0
  138.9883   71.2214  220.9227 H   0  0  0  0  0  0  0  0  0  0  0  0
  140.4876   70.5335  222.2635 H   0  0  0  0  0  0  0  0  0  0  0  0
  139.5711   71.4738  223.6008 H   0  0  0  0  0  0  0  0  0  0  0  0
  138.9378   69.2058  227.6859 H   0  0  0  0  0  0  0  0  0  0  0  0
  139.8271   70.7395  229.3959 H   0  0  0  0  0  0  0  0  0  0  0  0
  141.4277   72.5496  228.7452 H   0  0  0  0  0  0  0  0  0  0  0  0
  142.0872   72.7490  226.3544 H   0  0  0  0  0  0  0  0  0  0  0  0
  141.1885   71.2069  224.6723 H   0  0  0  0  0  0  0  0  0  0  0  0
  137.7462   67.1349  221.7605 H   0  0  0  0  0  0  0  0  0  0  0  0
  138.1868   68.7912  221.2227 H   0  0  0  0  0  0  0  0  0  0  0  0
  139.4232   67.4882  221.2227 H   0  0  0  0  0  0  0  0  0  0  0  0
  140.5506   73.5954  221.7208 H   0  0  0  0  0  0  0  0  0  0  0  0
  139.7666   72.6506  220.3961 H   0  0  0  0  0  0  0  0  0  0  0  0
  140.7583   74.7569  219.5923 H   0  0  0  0  0  0  0  0  0  0  0  0
  138.9318   74.6825  219.4062 H   0  0  0  0  0  0  0  0  0  0  0  0
  1  2  1  0
  2  3  1  0
  3  4  2  0
  3  5  1  0
  5  6  1  0
  6  7  2  0
  7  8  1  0
  8  9  2  0
  9 10  1  0
 10 11  2  0
  5 12  1  0
 12 13  1  0
 13 14  1  0
 14 15  1  0
 15 16  1  0
 16 17  2  0
 16 18  1  0
 18 19  1  0
 19 20  1  0
 20 21  1  0
 21 22  1  0
 22 23  2  0
 23 24  1  0
 24 25  2  0
 25 26  1  0
 26 27  2  0
 21 28  2  0
 28 29  1  0
 29 30  1  0
 30 31  1  0
 15 32  1  0
 32 33  1  0
 11  6  1  0
 33 12  1  0
 30 20  2  0
 27 22  1  0
  1 34  1  0
  1 35  1  0
  1 36  1  0
  2 37  1  0
  2 38  1  0
  7 39  1  0
  8 40  1  0
  9 41  1  0
 10 42  1  0
 11 43  1  0
 12 44  1  0
 13 45  1  0
 13 46  1  0
 14 47  1  0
 14 48  1  0
 18 49  1  0
 18 50  1  0
 19 51  1  0
 19 52  1  0
 23 53  1  0
 24 54  1  0
 25 55  1  0
 26 56  1  0
 27 57  1  0
 31 58  1  0
 31 59  1  0
 31 60  1  0
 32 61  1  0
 32 62  1  0
 33 63  1  0
 33 64  1  0
M  END
>  <smiles>  (19) 
CCC(=O)N(c1ccccc1)C1CCN(C(=O)CCc2c(-c3ccccc3)noc2C)CC1

>  <score_type>  (19) 
oracle

>  <origin>  (19) 
autodockgpu

>  <m_score__min__energy>  (19) 
-9.5199999999999996

>  <m_primary>  (19) 
energy

>  <rmsd>  (19) 
7.576840637151553

>  <m_score__min__rmsd>  (19) 
7.576840637151553

>  <meeko>  (19) 
{"free_energy": -8.85, "intermolecular_energy": -11.24, "internal_energy": -1.83, "cluster_size": 14, "cluster_id": 3, "rank_in_cluster": 3}

>  <energy>  (19) 
-8.34

>  <cluster_rmsd>  (19) 
1.52

>  <cluster>  (19) 
3

$$$$

     RDKit          3D

 64 67  0  0  0  0  0  0  0  0999 V2000
  145.9340   66.8810  218.1160 C   0  0  0  0  0  0  0  0  0  0  0  0
  144.5070   67.1900  218.5080 C   0  0  0  0  0  0  0  0  0  0  0  0
  144.3940   68.3140  219.4320 C   0  0  0  0  0  0  0  0  0  0  0  0
  145.2030   68.3930  220.4090 O   0  0  0  0  0  0  0  0  0  0  0  0
  143.4370   69.3650  219.3460 N   0  0  0  0  0  0  0  0  0  0  0  0
  143.9110   70.6770  219.6150 C   0  0  0  0  0  0  0  0  0  0  0  0
  143.4350   71.4830  220.6150 C   0  0  0  0  0  0  0  0  0  0  0  0
  143.9310   72.7600  220.8370 C   0  0  0  0  0  0  0  0  0  0  0  0
  144.9420   73.2770  220.0430 C   0  0  0  0  0  0  0  0  0  0  0  0
  145.4180   72.4630  219.0390 C   0  0  0  0  0  0  0  0  0  0  0  0
  144.9180   71.1810  218.8190 C   0  0  0  0  0  0  0  0  0  0  0  0
  142.0340   69.1100  218.9770 C   0  0  0  0  0  0  0  0  0  0  0  0
  141.2870   70.3940  218.7860 C   0  0  0  0  0  0  0  0  0  0  0  0
  139.8010   70.1040  218.7390 C   0  0  0  0  0  0  0  0  0  0  0  0
  139.3380   69.6400  220.0560 N   0  0  0  0  0  0  0  0  0  0  0  0
  138.0120   69.8890  220.5150 C   0  0  0  0  0  0  0  0  0  0  0  0
  137.2670   70.5270  219.7370 O   0  0  0  0  0  0  0  0  0  0  0  0
  137.6460   69.3790  221.8410 C   0  0  0  0  0  0  0  0  0  0  0  0
  137.6060   70.4060  222.9280 C   0  0  0  0  0  0  0  0  0  0  0  0
  138.8110   71.1410  223.2560 C   0  0  0  0  0  0  0  0  0  0  0  0
  139.7620   70.9560  224.2340 C   0  0  0  0  0  0  0  0  0  0  0  0
  139.8870   69.9650  225.2770 C   0  0  0  0  0  0  0  0  0  0  0  0
  139.5580   68.6600  225.2370 C   0  0  0  0  0  0  0  0  0  0  0  0
  139.7600   67.7890  226.3000 C   0  0  0  0  0  0  0  0  0  0  0  0
  140.3230   68.2540  227.4760 C   0  0  0  0  0  0  0  0  0  0  0  0
  140.6680   69.5880  227.5450 C   0  0  0  0  0  0  0  0  0  0  0  0
  140.4590   70.4290  226.4810 C   0  0  0  0  0  0  0  0  0  0  0  0
  140.7440   71.9060  224.0660 N   0  0  0  0  0  0  0  0  0  0  0  0
  140.4360   72.6430  223.0490 O   0  0  0  0  0  0  0  0  0  0  0  0
  139.2960   72.2380  222.5250 C   0  0  0  0  0  0  0  0  0  0  0  0
  138.7050   72.9060  221.3390 C   0  0  0  0  0  0  0  0  0  0  0  0
  140.3310   68.9220  220.8380 C   0  0  0  0  0  0  0  0  0  0  0  0
  141.3220   68.2210  219.9330 C   0  0  0  0  0  0  0  0  0  0  0  0
  146.5429   66.7491  219.0225 H   0  0  0  0  0  0  0  0  0  0  0  0
  145.9586   65.9567  217.5201 H   0  0  0  0  0  0  0  0  0  0  0  0
  146.3388   67.7123  217.5201 H   0  0  0  0  0  0  0  0  0  0  0  0
  143.9382   67.4280  217.5971 H   0  0  0  0  0  0  0  0  0  0  0  0
  144.1107   66.3027  219.0234 H   0  0  0  0  0  0  0  0  0  0  0  0
  142.6318   71.1050  221.2646 H   0  0  0  0  0  0  0  0  0  0  0  0
  143.5163   73.3694  221.6535 H   0  0  0  0  0  0  0  0  0  0  0  0
  145.3446   74.2876  220.2064 H   0  0  0  0  0  0  0  0  0  0  0  0
  146.2212   72.8382  218.3878 H   0  0  0  0  0  0  0  0  0  0  0  0
  145.3295   70.5667  218.0046 H   0  0  0  0  0  0  0  0  0  0  0  0
  142.0653   68.5692  218.0196 H   0  0  0  0  0  0  0  0  0  0  0  0
  141.5029   71.0733  219.6238 H   0  0  0  0  0  0  0  0  0  0  0  0
  141.6009   70.8673  217.8440 H   0  0  0  0  0  0  0  0  0  0  0  0
  139.2592   71.0211  218.4645 H   0  0  0  0  0  0  0  0  0  0  0  0
  139.6091   69.3201  217.9916 H   0  0  0  0  0  0  0  0  0  0  0  0
  136.6479   68.9225  221.7668 H   0  0  0  0  0  0  0  0  0  0  0  0
  138.4346   68.6658  222.1228 H   0  0  0  0  0  0  0  0  0  0  0  0
  136.8464   71.1478  222.6404 H   0  0  0  0  0  0  0  0  0  0  0  0
  137.4063   69.8166  223.8350 H   0  0  0  0  0  0  0  0  0  0  0  0
  139.1063   68.2635  224.3157 H   0  0  0  0  0  0  0  0  0  0  0  0
  139.4730   66.7312  226.2074 H   0  0  0  0  0  0  0  0  0  0  0  0
  140.4902   67.5804  228.3294 H   0  0  0  0  0  0  0  0  0  0  0  0
  141.1177   69.9837  228.4676 H   0  0  0  0  0  0  0  0  0  0  0  0
  140.7435   71.4880  226.5684 H   0  0  0  0  0  0  0  0  0  0  0  0
  138.0097   73.6918  221.6693 H   0  0  0  0  0  0  0  0  0  0  0  0
  139.5062   73.3558  220.7343 H   0  0  0  0  0  0  0  0  0  0  0  0
  138.1609   72.1655  220.7343 H   0  0  0  0  0  0  0  0  0  0  0  0
  140.8697   69.6350  221.4794 H   0  0  0  0  0  0  0  0  0  0  0  0
  139.8184   68.1671  221.4522 H   0  0  0  0  0  0  0  0  0  0  0  0
  142.0742   67.7283  220.5666 H   0  0  0  0  0  0  0  0  0  0  0  0
  140.7379   67.5164  219.3228 H   0  0  0  0  0  0  0  0  0  0  0  0
  1  2  1  0
  2  3  1  0
  3  4  2  0
  3  5  1  0
  5  6  1  0
  6  7  2  0
  7  8  1  0
  8  9  2  0
  9 10  1  0
 10 11  2  0
  5 12  1  0
 12 13  1  0
 13 14  1  0
 14 15  1  0
 15 16  1  0
 16 17  2  0
 16 18  1  0
 18 19  1  0
 19 20  1  0
 20 21  1  0
 21 22  1  0
 22 23  2  0
 23 24  1  0
 24 25  2  0
 25 26  1  0
 26 27  2  0
 21 28  2  0
 28 29  1  0
 29 30  1  0
 30 31  1  0
 15 32  1  0
 32 33  1  0
 11  6  1  0
 33 12  1  0
 30 20  2  0
 27 22  1  0
  1 34  1  0
  1 35  1  0
  1 36  1  0
  2 37  1  0
  2 38  1  0
  7 39  1  0
  8 40  1  0
  9 41  1  0
 10 42  1  0
 11 43  1  0
 12 44  1  0
 13 45  1  0
 13 46  1  0
 14 47  1  0
 14 48  1  0
 18 49  1  0
 18 50  1  0
 19 51  1  0
 19 52  1  0
 23 53  1  0
 24 54  1  0
 25 55  1  0
 26 56  1  0
 27 57  1  0
 31 58  1  0
 31 59  1  0
 31 60  1  0
 32 61  1  0
 32 62  1  0
 33 63  1  0
 33 64  1  0
M  END
>  <smiles>  (20) 
CCC(=O)N(c1ccccc1)C1CCN(C(=O)CCc2c(-c3ccccc3)noc2C)CC1

>  <score_type>  (20) 
oracle

>  <origin>  (20) 
autodockgpu

>  <m_score__min__energy>  (20) 
-9.5199999999999996

>  <m_primary>  (20) 
energy

>  <rmsd>  (20) 
9.676405431753567

>  <m_score__min__rmsd>  (20) 
9.676405431753567

>  <meeko>  (20) 
{"free_energy": -7.25, "intermolecular_energy": -9.64, "internal_energy": -2.58, "cluster_size": 1, "cluster_id": 11, "rank_in_cluster": 1}

>  <energy>  (20) 
-8.2

>  <cluster_rmsd>  (20) 
1.8

>  <cluster>  (20) 
3

$$$$

     RDKit          3D

 64 67  0  0  0  0  0  0  0  0999 V2000
  139.4560   80.7160  219.4070 C   0  0  0  0  0  0  0  0  0  0  0  0
  139.3400   79.2380  219.1110 C   0  0  0  0  0  0  0  0  0  0  0  0
  139.2980   78.4110  220.3120 C   0  0  0  0  0  0  0  0  0  0  0  0
  138.1830   78.2210  220.8910 O   0  0  0  0  0  0  0  0  0  0  0  0
  140.4180   77.7760  220.9210 N   0  0  0  0  0  0  0  0  0  0  0  0
  141.1230   78.5320  221.8960 C   0  0  0  0  0  0  0  0  0  0  0  0
  141.1010   78.2750  223.2410 C   0  0  0  0  0  0  0  0  0  0  0  0
  141.8060   79.0450  224.1540 C   0  0  0  0  0  0  0  0  0  0  0  0
  142.5710   80.1210  223.7350 C   0  0  0  0  0  0  0  0  0  0  0  0
  142.5910   80.3770  222.3810 C   0  0  0  0  0  0  0  0  0  0  0  0
  141.8820   79.6010  221.4670 C   0  0  0  0  0  0  0  0  0  0  0  0
  140.8120   76.4000  220.5760 C   0  0  0  0  0  0  0  0  0  0  0  0
  139.8670   75.8030  219.5790 C   0  0  0  0  0  0  0  0  0  0  0  0
  140.1000   74.3080  219.5030 C   0  0  0  0  0  0  0  0  0  0  0  0
  139.6990   73.6710  220.7670 N   0  0  0  0  0  0  0  0  0  0  0  0
  139.2030   72.3360  220.8100 C   0  0  0  0  0  0  0  0  0  0  0  0
  139.1240   71.7390  219.7120 O   0  0  0  0  0  0  0  0  0  0  0  0
  138.8370   71.7910  222.1220 C   0  0  0  0  0  0  0  0  0  0  0  0
  139.9170   71.0190  222.8120 C   0  0  0  0  0  0  0  0  0  0  0  0
  139.5790   69.7930  223.5080 C   0  0  0  0  0  0  0  0  0  0  0  0
  139.6300   69.4500  224.8400 C   0  0  0  0  0  0  0  0  0  0  0  0
  140.0420   70.1920  226.0090 C   0  0  0  0  0  0  0  0  0  0  0  0
  139.7080   69.9820  227.2950 C   0  0  0  0  0  0  0  0  0  0  0  0
  140.2000   70.7460  228.3470 C   0  0  0  0  0  0  0  0  0  0  0  0
  141.0780   71.7850  228.0920 C   0  0  0  0  0  0  0  0  0  0  0  0
  141.4360   72.0230  226.7810 C   0  0  0  0  0  0  0  0  0  0  0  0
  140.9370   71.2540  225.7590 C   0  0  0  0  0  0  0  0  0  0  0  0
  139.1320   68.1730  224.9760 N   0  0  0  0  0  0  0  0  0  0  0  0
  138.7890   67.7370  223.8080 O   0  0  0  0  0  0  0  0  0  0  0  0
  139.0300   68.6550  222.8930 C   0  0  0  0  0  0  0  0  0  0  0  0
  138.7280   68.4230  221.4590 C   0  0  0  0  0  0  0  0  0  0  0  0
  139.8460   74.5070  221.9480 C   0  0  0  0  0  0  0  0  0  0  0  0
  140.9630   75.5120  221.7590 C   0  0  0  0  0  0  0  0  0  0  0  0
  139.4682   80.8720  220.4958 H   0  0  0  0  0  0  0  0  0  0  0  0
  140.3875   81.1054  218.9703 H   0  0  0  0  0  0  0  0  0  0  0  0
  138.5967   81.2460  218.9703 H   0  0  0  0  0  0  0  0  0  0  0  0
  138.4168   79.0681  218.5375 H   0  0  0  0  0  0  0  0  0  0  0  0
  140.2380   78.9472  218.5462 H   0  0  0  0  0  0  0  0  0  0  0  0
  140.5034   77.4284  223.6100 H   0  0  0  0  0  0  0  0  0  0  0  0
  141.7570   78.7980  225.2248 H   0  0  0  0  0  0  0  0  0  0  0  0
  143.1348   80.7407  224.4479 H   0  0  0  0  0  0  0  0  0  0  0  0
  143.1874   81.2233  222.0093 H   0  0  0  0  0  0  0  0  0  0  0  0
  141.9277   79.8425  220.3948 H   0  0  0  0  0  0  0  0  0  0  0  0
  141.8100   76.4766  220.1198 H   0  0  0  0  0  0  0  0  0  0  0  0
  138.8307   75.9982  219.8920 H   0  0  0  0  0  0  0  0  0  0  0  0
  140.0398   76.2541  218.5907 H   0  0  0  0  0  0  0  0  0  0  0  0
  139.5049   73.8881  218.6787 H   0  0  0  0  0  0  0  0  0  0  0  0
  141.1689   74.1179  219.3262 H   0  0  0  0  0  0  0  0  0  0  0  0
  138.5500   72.6308  222.7719 H   0  0  0  0  0  0  0  0  0  0  0  0
  138.0190   71.0783  221.9404 H   0  0  0  0  0  0  0  0  0  0  0  0
  140.6638   70.7585  222.0475 H   0  0  0  0  0  0  0  0  0  0  0  0
  140.2456   71.6932  223.6167 H   0  0  0  0  0  0  0  0  0  0  0  0
  139.0099   69.1639  227.5260 H   0  0  0  0  0  0  0  0  0  0  0  0
  139.8922   70.5253  229.3797 H   0  0  0  0  0  0  0  0  0  0  0  0
  141.4783   72.4023  228.9097 H   0  0  0  0  0  0  0  0  0  0  0  0
  142.1328   72.8425  226.5508 H   0  0  0  0  0  0  0  0  0  0  0  0
  141.2410   71.4701  224.7242 H   0  0  0  0  0  0  0  0  0  0  0  0
  137.8585   67.7550  221.3708 H   0  0  0  0  0  0  0  0  0  0  0  0
  138.5036   69.3832  220.9715 H   0  0  0  0  0  0  0  0  0  0  0  0
  139.5980   67.9587  220.9715 H   0  0  0  0  0  0  0  0  0  0  0  0
  138.9036   75.0448  222.1289 H   0  0  0  0  0  0  0  0  0  0  0  0
  140.0908   73.8647  222.8068 H   0  0  0  0  0  0  0  0  0  0  0  0
  141.0092   76.1447  222.6576 H   0  0  0  0  0  0  0  0  0  0  0  0
  141.8794   74.9271  221.5910 H   0  0  0  0  0  0  0  0  0  0  0  0
  1  2  1  0
  2  3  1  0
  3  4  2  0
  3  5  1  0
  5  6  1  0
  6  7  2  0
  7  8  1  0
  8  9  2  0
  9 10  1  0
 10 11  2  0
  5 12  1  0
 12 13  1  0
 13 14  1  0
 14 15  1  0
 15 16  1  0
 16 17  2  0
 16 18  1  0
 18 19  1  0
 19 20  1  0
 20 21  1  0
 21 22  1  0
 22 23  2  0
 23 24  1  0
 24 25  2  0
 25 26  1  0
 26 27  2  0
 21 28  2  0
 28 29  1  0
 29 30  1  0
 30 31  1  0
 15 32  1  0
 32 33  1  0
 11  6  1  0
 33 12  1  0
 30 20  2  0
 27 22  1  0
  1 34  1  0
  1 35  1  0
  1 36  1  0
  2 37  1  0
  2 38  1  0
  7 39  1  0
  8 40  1  0
  9 41  1  0
 10 42  1  0
 11 43  1  0
 12 44  1  0
 13 45  1  0
 13 46  1  0
 14 47  1  0
 14 48  1  0
 18 49  1  0
 18 50  1  0
 19 51  1  0
 19 52  1  0
 23 53  1  0
 24 54  1  0
 25 55  1  0
 26 56  1  0
 27 57  1  0
 31 58  1  0
 31 59  1  0
 31 60  1  0
 32 61  1  0
 32 62  1  0
 33 63  1  0
 33 64  1  0
M  END
>  <smiles>  (21) 
CCC(=O)N(c1ccccc1)C1CCN(C(=O)CCc2c(-c3ccccc3)noc2C)CC1

>  <score_type>  (21) 
oracle

>  <origin>  (21) 
autodockgpu

>  <m_score__min__energy>  (21) 
-9.5199999999999996

>  <m_primary>  (21) 
energy

>  <rmsd>  (21) 
7.076669488634887

>  <m_score__min__rmsd>  (21) 
7.076669488634887

>  <meeko>  (21) 
{"free_energy": -8.2, "intermolecular_energy": -10.58, "internal_energy": -1.76, "cluster_size": 14, "cluster_id": 3, "rank_in_cluster": 14}

>  <energy>  (21) 
-9.05

>  <cluster_rmsd>  (21) 
0.0

>  <cluster>  (21) 
4

$$$$

     RDKit          3D

 64 67  0  0  0  0  0  0  0  0999 V2000
  137.8800   77.2010  222.6490 C   0  0  0  0  0  0  0  0  0  0  0  0
  137.7650   77.7550  221.2470 C   0  0  0  0  0  0  0  0  0  0  0  0
  139.0560   78.0630  220.6420 C   0  0  0  0  0  0  0  0  0  0  0  0
  139.0920   78.8090  219.6130 O   0  0  0  0  0  0  0  0  0  0  0  0
  140.3200   77.5970  221.1020 N   0  0  0  0  0  0  0  0  0  0  0  0
  141.0710   78.4950  221.9090 C   0  0  0  0  0  0  0  0  0  0  0  0
  141.7900   79.5560  221.4250 C   0  0  0  0  0  0  0  0  0  0  0  0
  142.5090   80.4040  222.2540 C   0  0  0  0  0  0  0  0  0  0  0  0
  142.5280   80.2080  223.6250 C   0  0  0  0  0  0  0  0  0  0  0  0
  141.8040   79.1400  224.1090 C   0  0  0  0  0  0  0  0  0  0  0  0
  141.0830   78.2910  223.2730 C   0  0  0  0  0  0  0  0  0  0  0  0
  140.8160   76.2490  220.7790 C   0  0  0  0  0  0  0  0  0  0  0  0
  140.0510   75.6540  219.6370 C   0  0  0  0  0  0  0  0  0  0  0  0
  140.3540   74.1720  219.5520 C   0  0  0  0  0  0  0  0  0  0  0  0
  139.7990   73.4780  220.7240 N   0  0  0  0  0  0  0  0  0  0  0  0
  139.3560   72.1250  220.6550 C   0  0  0  0  0  0  0  0  0  0  0  0
  139.4620   71.5640  219.5400 O   0  0  0  0  0  0  0  0  0  0  0  0
  138.8260   71.5220  221.8820 C   0  0  0  0  0  0  0  0  0  0  0  0
  139.8570   70.9750  222.8180 C   0  0  0  0  0  0  0  0  0  0  0  0
  139.5630   69.7760  223.5760 C   0  0  0  0  0  0  0  0  0  0  0  0
  139.7430   69.4620  224.9040 C   0  0  0  0  0  0  0  0  0  0  0  0
  140.2910   70.2200  226.0050 C   0  0  0  0  0  0  0  0  0  0  0  0
  140.6300   71.5220  226.0380 C   0  0  0  0  0  0  0  0  0  0  0  0
  141.1180   72.1550  227.1760 C   0  0  0  0  0  0  0  0  0  0  0  0
  141.2770   71.4390  228.3490 C   0  0  0  0  0  0  0  0  0  0  0  0
  140.9380   70.1010  228.3420 C   0  0  0  0  0  0  0  0  0  0  0  0
  140.4580   69.4980  227.2060 C   0  0  0  0  0  0  0  0  0  0  0  0
  139.2320   68.2020  225.1230 N   0  0  0  0  0  0  0  0  0  0  0  0
  138.7590   67.7490  224.0080 O   0  0  0  0  0  0  0  0  0  0  0  0
  138.9270   68.6390  223.0500 C   0  0  0  0  0  0  0  0  0  0  0  0
  138.4730   68.3820  221.6610 C   0  0  0  0  0  0  0  0  0  0  0  0
  139.7380   74.2770  221.9370 C   0  0  0  0  0  0  0  0  0  0  0  0
  140.8290   75.3260  221.9450 C   0  0  0  0  0  0  0  0  0  0  0  0
  137.7124   78.0083  223.3771 H   0  0  0  0  0  0  0  0  0  0  0  0
  137.1262   76.4133  222.7950 H   0  0  0  0  0  0  0  0  0  0  0  0
  138.8850   76.7784  222.7950 H   0  0  0  0  0  0  0  0  0  0  0  0
  137.2531   77.0115  220.6184 H   0  0  0  0  0  0  0  0  0  0  0  0
  137.2026   78.6980  221.3138 H   0  0  0  0  0  0  0  0  0  0  0  0
  141.7972   79.7418  220.3408 H   0  0  0  0  0  0  0  0  0  0  0  0
  143.0712   81.2426  221.8173 H   0  0  0  0  0  0  0  0  0  0  0  0
  143.0935   80.8725  224.2949 H   0  0  0  0  0  0  0  0  0  0  0  0
  141.7953   78.9516  225.1927 H   0  0  0  0  0  0  0  0  0  0  0  0
  140.5185   77.4510  223.7040 H   0  0  0  0  0  0  0  0  0  0  0  0
  141.8661   76.3770  220.4774 H   0  0  0  0  0  0  0  0  0  0  0  0
  138.9731   75.8002  219.8005 H   0  0  0  0  0  0  0  0  0  0  0  0
  140.3465   76.1458  218.6985 H   0  0  0  0  0  0  0  0  0  0  0  0
  139.9034   73.7598  218.6371 H   0  0  0  0  0  0  0  0  0  0  0  0
  141.4441   74.0267  219.5285 H   0  0  0  0  0  0  0  0  0  0  0  0
  138.2522   72.2915  222.4193 H   0  0  0  0  0  0  0  0  0  0  0  0
  138.2167   70.6637  221.5626 H   0  0  0  0  0  0  0  0  0  0  0  0
  140.7544   70.7632  222.2182 H   0  0  0  0  0  0  0  0  0  0  0  0
  139.9477   71.7543  223.5890 H   0  0  0  0  0  0  0  0  0  0  0  0
  140.5153   72.1152  225.1188 H   0  0  0  0  0  0  0  0  0  0  0  0
  141.3772   73.2235  227.1435 H   0  0  0  0  0  0  0  0  0  0  0  0
  141.6619   71.9213  229.2596 H   0  0  0  0  0  0  0  0  0  0  0  0
  141.0543   69.5084  229.2614 H   0  0  0  0  0  0  0  0  0  0  0  0
  140.1980   68.4295  227.2324 H   0  0  0  0  0  0  0  0  0  0  0  0
  137.5159   67.8402  221.6824 H   0  0  0  0  0  0  0  0  0  0  0  0
  138.3408   69.3392  221.1354 H   0  0  0  0  0  0  0  0  0  0  0  0
  139.2257   67.7760  221.1354 H   0  0  0  0  0  0  0  0  0  0  0  0
  138.7586   74.7748  221.9921 H   0  0  0  0  0  0  0  0  0  0  0  0
  139.8798   73.6142  222.8033 H   0  0  0  0  0  0  0  0  0  0  0  0
  140.7181   75.9279  222.8590 H   0  0  0  0  0  0  0  0  0  0  0  0
  141.7830   74.7805  221.8972 H   0  0  0  0  0  0  0  0  0  0  0  0
  1  2  1  0
  2  3  1  0
  3  4  2  0
  3  5  1  0
  5  6  1  0
  6  7  2  0
  7  8  1  0
  8  9  2  0
  9 10  1  0
 10 11  2  0
  5 12  1  0
 12 13  1  0
 13 14  1  0
 14 15  1  0
 15 16  1  0
 16 17  2  0
 16 18  1  0
 18 19  1  0
 19 20  1  0
 20 21  1  0
 21 22  1  0
 22 23  2  0
 23 24  1  0
 24 25  2  0
 25 26  1  0
 26 27  2  0
 21 28  2  0
 28 29  1  0
 29 30  1  0
 30 31  1  0
 15 32  1  0
 32 33  1  0
 11  6  1  0
 33 12  1  0
 30 20  2  0
 27 22  1  0
  1 34  1  0
  1 35  1  0
  1 36  1  0
  2 37  1  0
  2 38  1  0
  7 39  1  0
  8 40  1  0
  9 41  1  0
 10 42  1  0
 11 43  1  0
 12 44  1  0
 13 45  1  0
 13 46  1  0
 14 47  1  0
 14 48  1  0
 18 49  1  0
 18 50  1  0
 19 51  1  0
 19 52  1  0
 23 53  1  0
 24 54  1  0
 25 55  1  0
 26 56  1  0
 27 57  1  0
 31 58  1  0
 31 59  1  0
 31 60  1  0
 32 61  1  0
 32 62  1  0
 33 63  1  0
 33 64  1  0
M  END
>  <smiles>  (22) 
CCC(=O)N(c1ccccc1)C1CCN(C(=O)CCc2c(-c3ccccc3)noc2C)CC1

>  <score_type>  (22) 
oracle

>  <origin>  (22) 
autodockgpu

>  <m_score__min__energy>  (22) 
-9.5199999999999996

>  <m_primary>  (22) 
energy

>  <rmsd>  (22) 
7.203716170686062

>  <m_score__min__rmsd>  (22) 
7.203716170686062

>  <meeko>  (22) 
{"free_energy": -8.34, "intermolecular_energy": -10.73, "internal_energy": -1.88, "cluster_size": 14, "cluster_id": 3, "rank_in_cluster": 13}

>  <energy>  (22) 
-7.94

>  <cluster_rmsd>  (22) 
1.71

>  <cluster>  (22) 
4

$$$$

     RDKit          3D

 64 67  0  0  0  0  0  0  0  0999 V2000
  146.3220   73.7540  221.5220 C   0  0  0  0  0  0  0  0  0  0  0  0
  145.8970   72.6530  220.5780 C   0  0  0  0  0  0  0  0  0  0  0  0
  145.2500   73.1480  219.3680 C   0  0  0  0  0  0  0  0  0  0  0  0
  145.9000   73.1450  218.2760 O   0  0  0  0  0  0  0  0  0  0  0  0
  143.9200   73.6510  219.2850 N   0  0  0  0  0  0  0  0  0  0  0  0
  142.9040   72.8590  219.8860 C   0  0  0  0  0  0  0  0  0  0  0  0
  142.2440   73.1910  221.0390 C   0  0  0  0  0  0  0  0  0  0  0  0
  141.2590   72.3820  221.5880 C   0  0  0  0  0  0  0  0  0  0  0  0
  140.9000   71.1890  220.9810 C   0  0  0  0  0  0  0  0  0  0  0  0
  141.5670   70.8590  219.8210 C   0  0  0  0  0  0  0  0  0  0  0  0
  142.5550   71.6740  219.2730 C   0  0  0  0  0  0  0  0  0  0  0  0
  143.6150   74.9350  218.6320 C   0  0  0  0  0  0  0  0  0  0  0  0
  143.6930   76.0680  219.6090 C   0  0  0  0  0  0  0  0  0  0  0  0
  143.0600   77.3000  218.9960 C   0  0  0  0  0  0  0  0  0  0  0  0
  141.6120   77.0950  218.8370 N   0  0  0  0  0  0  0  0  0  0  0  0
  140.6890   78.1780  218.9070 C   0  0  0  0  0  0  0  0  0  0  0  0
  141.1790   79.3110  219.1140 O   0  0  0  0  0  0  0  0  0  0  0  0
  139.2660   77.8680  218.7290 C   0  0  0  0  0  0  0  0  0  0  0  0
  138.5580   77.4060  219.9620 C   0  0  0  0  0  0  0  0  0  0  0  0
  139.2920   76.6600  220.9650 C   0  0  0  0  0  0  0  0  0  0  0  0
  140.1210   77.0660  221.9870 C   0  0  0  0  0  0  0  0  0  0  0  0
  140.5490   78.3790  222.4130 C   0  0  0  0  0  0  0  0  0  0  0  0
  139.8460   79.3150  223.0760 C   0  0  0  0  0  0  0  0  0  0  0  0
  140.3810   80.5360  223.4680 C   0  0  0  0  0  0  0  0  0  0  0  0
  141.6990   80.8390  223.1740 C   0  0  0  0  0  0  0  0  0  0  0  0
  142.4420   79.8970  222.4920 C   0  0  0  0  0  0  0  0  0  0  0  0
  141.8920   78.6960  222.1170 C   0  0  0  0  0  0  0  0  0  0  0  0
  140.5130   75.9510  222.6930 N   0  0  0  0  0  0  0  0  0  0  0  0
  139.9690   74.9090  222.1550 O   0  0  0  0  0  0  0  0  0  0  0  0
  139.2310   75.2660  221.1220 C   0  0  0  0  0  0  0  0  0  0  0  0
  138.4860   74.2670  220.3170 C   0  0  0  0  0  0  0  0  0  0  0  0
  141.2100   75.7160  218.6110 C   0  0  0  0  0  0  0  0  0  0  0  0
  142.3110   74.9420  217.9180 C   0  0  0  0  0  0  0  0  0  0  0  0
  146.1918   73.4168  222.5609 H   0  0  0  0  0  0  0  0  0  0  0  0
  147.3796   73.9999  221.3461 H   0  0  0  0  0  0  0  0  0  0  0  0
  145.7039   74.6467  221.3461 H   0  0  0  0  0  0  0  0  0  0  0  0
  146.7891   72.0789  220.2870 H   0  0  0  0  0  0  0  0  0  0  0  0
  145.1608   72.0333  221.1108 H   0  0  0  0  0  0  0  0  0  0  0  0
  142.5035   74.1312  221.5475 H   0  0  0  0  0  0  0  0  0  0  0  0
  140.7570   72.6916  222.5165 H   0  0  0  0  0  0  0  0  0  0  0  0
  140.1211   70.5376  221.4042 H   0  0  0  0  0  0  0  0  0  0  0  0
  141.3103   69.9193  219.3100 H   0  0  0  0  0  0  0  0  0  0  0  0
  143.0605   71.3701  218.3445 H   0  0  0  0  0  0  0  0  0  0  0  0
  144.3882   75.0739  217.8620 H   0  0  0  0  0  0  0  0  0  0  0  0
  143.1550   75.7975  220.5295 H   0  0  0  0  0  0  0  0  0  0  0  0
  144.7459   76.2753  219.8505 H   0  0  0  0  0  0  0  0  0  0  0  0
  143.2356   78.1649  219.6526 H   0  0  0  0  0  0  0  0  0  0  0  0
  143.5093   77.4839  218.0090 H   0  0  0  0  0  0  0  0  0  0  0  0
  138.7622   78.7763  218.3670 H   0  0  0  0  0  0  0  0  0  0  0  0
  139.2220   77.0295  218.0184 H   0  0  0  0  0  0  0  0  0  0  0  0
  138.1588   78.3031  220.4578 H   0  0  0  0  0  0  0  0  0  0  0  0
  137.8234   76.6799  219.5836 H   0  0  0  0  0  0  0  0  0  0  0  0
  138.7946   79.1030  223.3201 H   0  0  0  0  0  0  0  0  0  0  0  0
  139.7575   81.2611  224.0115 H   0  0  0  0  0  0  0  0  0  0  0  0
  142.1406   81.8006  223.4745 H   0  0  0  0  0  0  0  0  0  0  0  0
  143.4921   80.1118  222.2447 H   0  0  0  0  0  0  0  0  0  0  0  0
  142.5109   77.9660  221.5748 H   0  0  0  0  0  0  0  0  0  0  0  0
  137.9655   73.5690  220.9892 H   0  0  0  0  0  0  0  0  0  0  0  0
  137.7501   74.7826  219.6825 H   0  0  0  0  0  0  0  0  0  0  0  0
  139.1900   73.7087  219.6825 H   0  0  0  0  0  0  0  0  0  0  0  0
  140.9895   75.2414  219.5785 H   0  0  0  0  0  0  0  0  0  0  0  0
  140.3167   75.7098  217.9691 H   0  0  0  0  0  0  0  0  0  0  0  0
  141.9774   73.8999  217.8052 H   0  0  0  0  0  0  0  0  0  0  0  0
  142.4874   75.4486  216.9577 H   0  0  0  0  0  0  0  0  0  0  0  0
  1  2  1  0
  2  3  1  0
  3  4  2  0
  3  5  1  0
  5  6  1  0
  6  7  2  0
  7  8  1  0
  8  9  2  0
  9 10  1  0
 10 11  2  0
  5 12  1  0
 12 13  1  0
 13 14  1  0
 14 15  1  0
 15 16  1  0
 16 17  2  0
 16 18  1  0
 18 19  1  0
 19 20  1  0
 20 21  1  0
 21 22  1  0
 22 23  2  0
 23 24  1  0
 24 25  2  0
 25 26  1  0
 26 27  2  0
 21 28  2  0
 28 29  1  0
 29 30  1  0
 30 31  1  0
 15 32  1  0
 32 33  1  0
 11  6  1  0
 33 12  1  0
 30 20  2  0
 27 22  1  0
  1 34  1  0
  1 35  1  0
  1 36  1  0
  2 37  1  0
  2 38  1  0
  7 39  1  0
  8 40  1  0
  9 41  1  0
 10 42  1  0
 11 43  1  0
 12 44  1  0
 13 45  1  0
 13 46  1  0
 14 47  1  0
 14 48  1  0
 18 49  1  0
 18 50  1  0
 19 51  1  0
 19 52  1  0
 23 53  1  0
 24 54  1  0
 25 55  1  0
 26 56  1  0
 27 57  1  0
 31 58  1  0
 31 59  1  0
 31 60  1  0
 32 61  1  0
 32 62  1  0
 33 63  1  0
 33 64  1  0
M  END
>  <smiles>  (23) 
CCC(=O)N(c1ccccc1)C1CCN(C(=O)CCc2c(-c3ccccc3)noc2C)CC1

>  <score_type>  (23) 
oracle

>  <origin>  (23) 
autodockgpu

>  <m_score__min__energy>  (23) 
-9.5199999999999996

>  <m_primary>  (23) 
energy

>  <rmsd>  (23) 
5.089779319584605

>  <m_score__min__rmsd>  (23) 
5.089779319584605

>  <meeko>  (23) 
{"free_energy": -6.73, "intermolecular_energy": -9.12, "internal_energy": -3.65, "cluster_size": 10, "cluster_id": 12, "rank_in_cluster": 10}

>  <energy>  (23) 
-7.63

>  <cluster_rmsd>  (23) 
1.67

>  <cluster>  (23) 
4

$$$$

     RDKit          3D

 64 67  0  0  0  0  0  0  0  0999 V2000
  145.8800   74.0950  220.9990 C   0  0  0  0  0  0  0  0  0  0  0  0
  146.1490   72.6980  220.4880 C   0  0  0  0  0  0  0  0  0  0  0  0
  145.5700   72.4440  219.1740 C   0  0  0  0  0  0  0  0  0  0  0  0
  146.0220   73.0750  218.1680 O   0  0  0  0  0  0  0  0  0  0  0  0
  144.5150   71.5290  218.8960 N   0  0  0  0  0  0  0  0  0  0  0  0
  144.8990   70.2190  218.5000 C   0  0  0  0  0  0  0  0  0  0  0  0
  144.9790   69.1460  219.3480 C   0  0  0  0  0  0  0  0  0  0  0  0
  145.3630   67.8850  218.9130 C   0  0  0  0  0  0  0  0  0  0  0  0
  145.6840   67.6600  217.5850 C   0  0  0  0  0  0  0  0  0  0  0  0
  145.6020   68.7420  216.7350 C   0  0  0  0  0  0  0  0  0  0  0  0
  145.2170   70.0060  217.1750 C   0  0  0  0  0  0  0  0  0  0  0  0
  143.0990   71.9120  219.0320 C   0  0  0  0  0  0  0  0  0  0  0  0
  142.9670   73.2840  219.6170 C   0  0  0  0  0  0  0  0  0  0  0  0
  141.5310   73.5070  220.0460 C   0  0  0  0  0  0  0  0  0  0  0  0
  141.2030   72.6270  221.1780 N   0  0  0  0  0  0  0  0  0  0  0  0
  140.2500   73.0040  222.1690 C   0  0  0  0  0  0  0  0  0  0  0  0
  139.7130   74.1260  222.0230 O   0  0  0  0  0  0  0  0  0  0  0  0
  139.9880   72.0520  223.2540 C   0  0  0  0  0  0  0  0  0  0  0  0
  139.0390   70.9460  222.9140 C   0  0  0  0  0  0  0  0  0  0  0  0
  139.1410   69.6820  223.6150 C   0  0  0  0  0  0  0  0  0  0  0  0
  139.5920   69.3660  224.8770 C   0  0  0  0  0  0  0  0  0  0  0  0
  140.1230   70.1860  225.9410 C   0  0  0  0  0  0  0  0  0  0  0  0
  141.0330   71.1750  225.8620 C   0  0  0  0  0  0  0  0  0  0  0  0
  141.4430   71.9250  226.9580 C   0  0  0  0  0  0  0  0  0  0  0  0
  140.9110   71.6660  228.2090 C   0  0  0  0  0  0  0  0  0  0  0  0
  139.9770   70.6560  228.3190 C   0  0  0  0  0  0  0  0  0  0  0  0
  139.5870   69.9290  227.2210 C   0  0  0  0  0  0  0  0  0  0  0  0
  139.4140   68.0150  225.0730 N   0  0  0  0  0  0  0  0  0  0  0  0
  138.8850   67.5090  224.0070 O   0  0  0  0  0  0  0  0  0  0  0  0
  138.7000   68.4510  223.1030 C   0  0  0  0  0  0  0  0  0  0  0  0
  138.1030   68.1510  221.7780 C   0  0  0  0  0  0  0  0  0  0  0  0
  141.9230   71.3640  221.2030 C   0  0  0  0  0  0  0  0  0  0  0  0
  142.2900   70.9290  219.8000 C   0  0  0  0  0  0  0  0  0  0  0  0
  145.8810   74.0896  222.0990 H   0  0  0  0  0  0  0  0  0  0  0  0
  146.6636   74.7758  220.6349 H   0  0  0  0  0  0  0  0  0  0  0  0
  144.8997   74.4362  220.6349 H   0  0  0  0  0  0  0  0  0  0  0  0
  147.2375   72.5530  220.4240 H   0  0  0  0  0  0  0  0  0  0  0  0
  145.6786   71.9966  221.1929 H   0  0  0  0  0  0  0  0  0  0  0  0
  144.7304   69.2886  220.4100 H   0  0  0  0  0  0  0  0  0  0  0  0
  145.4129   67.0542  219.6322 H   0  0  0  0  0  0  0  0  0  0  0  0
  145.9896   66.6662  217.2258 H   0  0  0  0  0  0  0  0  0  0  0  0
  145.8492   68.6023  215.6723 H   0  0  0  0  0  0  0  0  0  0  0  0
  145.1661   70.8407  216.4604 H   0  0  0  0  0  0  0  0  0  0  0  0
  142.6873   71.9181  218.0120 H   0  0  0  0  0  0  0  0  0  0  0  0
  143.6303   73.3772  220.4896 H   0  0  0  0  0  0  0  0  0  0  0  0
  143.2486   74.0352  218.8644 H   0  0  0  0  0  0  0  0  0  0  0  0
  141.4001   74.5560  220.3500 H   0  0  0  0  0  0  0  0  0  0  0  0
  140.8621   73.2771  219.2036 H   0  0  0  0  0  0  0  0  0  0  0  0
  140.9463   71.5998  223.5491 H   0  0  0  0  0  0  0  0  0  0  0  0
  139.5092   72.6294  224.0586 H   0  0  0  0  0  0  0  0  0  0  0  0
  138.0232   71.3295  223.0905 H   0  0  0  0  0  0  0  0  0  0  0  0
  139.2996   70.6896  221.8765 H   0  0  0  0  0  0  0  0  0  0  0  0
  141.4745   71.4010  224.8802 H   0  0  0  0  0  0  0  0  0  0  0  0
  142.1892   72.7232  226.8312 H   0  0  0  0  0  0  0  0  0  0  0  0
  141.2231   72.2475  229.0890 H   0  0  0  0  0  0  0  0  0  0  0  0
  139.5379   70.4296  229.3018 H   0  0  0  0  0  0  0  0  0  0  0  0
  138.8411   69.1296  227.3418 H   0  0  0  0  0  0  0  0  0  0  0  0
  137.1281   67.6611  221.9176 H   0  0  0  0  0  0  0  0  0  0  0  0
  137.9659   69.0873  221.2171 H   0  0  0  0  0  0  0  0  0  0  0  0
  138.7725   67.4822  221.2171 H   0  0  0  0  0  0  0  0  0  0  0  0
  142.8418   71.4839  221.7958 H   0  0  0  0  0  0  0  0  0  0  0  0
  141.2757   70.5969  221.6530 H   0  0  0  0  0  0  0  0  0  0  0  0
  142.8654   69.9942  219.8715 H   0  0  0  0  0  0  0  0  0  0  0  0
  141.3419   70.8156  219.2539 H   0  0  0  0  0  0  0  0  0  0  0  0
  1  2  1  0
  2  3  1  0
  3  4  2  0
  3  5  1  0
  5  6  1  0
  6  7  2  0
  7  8  1  0
  8  9  2  0
  9 10  1  0
 10 11  2  0
  5 12  1  0
 12 13  1  0
 13 14  1  0
 14 15  1  0
 15 16  1  0
 16 17  2  0
 16 18  1  0
 18 19  1  0
 19 20  1  0
 20 21  1  0
 21 22  1  0
 22 23  2  0
 23 24  1  0
 24 25  2  0
 25 26  1  0
 26 27  2  0
 21 28  2  0
 28 29  1  0
 29 30  1  0
 30 31  1  0
 15 32  1  0
 32 33  1  0
 11  6  1  0
 33 12  1  0
 30 20  2  0
 27 22  1  0
  1 34  1  0
  1 35  1  0
  1 36  1  0
  2 37  1  0
  2 38  1  0
  7 39  1  0
  8 40  1  0
  9 41  1  0
 10 42  1  0
 11 43  1  0
 12 44  1  0
 13 45  1  0
 13 46  1  0
 14 47  1  0
 14 48  1  0
 18 49  1  0
 18 50  1  0
 19 51  1  0
 19 52  1  0
 23 53  1  0
 24 54  1  0
 25 55  1  0
 26 56  1  0
 27 57  1  0
 31 58  1  0
 31 59  1  0
 31 60  1  0
 32 61  1  0
 32 62  1  0
 33 63  1  0
 33 64  1  0
M  END
>  <smiles>  (24) 
CCC(=O)N(c1ccccc1)C1CCN(C(=O)CCc2c(-c3ccccc3)noc2C)CC1

>  <score_type>  (24) 
oracle

>  <origin>  (24) 
autodockgpu

>  <m_score__min__energy>  (24) 
-9.5199999999999996

>  <m_primary>  (24) 
energy

>  <rmsd>  (24) 
8.378059174054718

>  <m_score__min__rmsd>  (24) 
8.378059174054718

>  <meeko>  (24) 
{"free_energy": -9.24, "intermolecular_energy": -11.62, "internal_energy": -1.81, "cluster_size": 3, "cluster_id": 1, "rank_in_cluster": 2}

>  <energy>  (24) 
-7.26

>  <cluster_rmsd>  (24) 
1.9

>  <cluster>  (24) 
4

$$$$

     RDKit          3D

 64 67  0  0  0  0  0  0  0  0999 V2000
  141.0490   67.7980  227.9390 C   0  0  0  0  0  0  0  0  0  0  0  0
  141.1700   67.4470  226.4740 C   0  0  0  0  0  0  0  0  0  0  0  0
  140.0380   67.9040  225.6760 C   0  0  0  0  0  0  0  0  0  0  0  0
  139.2080   67.0480  225.2340 O   0  0  0  0  0  0  0  0  0  0  0  0
  139.7600   69.2570  225.3310 N   0  0  0  0  0  0  0  0  0  0  0  0
  140.2290   70.2510  226.2320 C   0  0  0  0  0  0  0  0  0  0  0  0
  139.6810   70.5020  227.4620 C   0  0  0  0  0  0  0  0  0  0  0  0
  140.1750   71.4860  228.3070 C   0  0  0  0  0  0  0  0  0  0  0  0
  141.2590   72.2640  227.9330 C   0  0  0  0  0  0  0  0  0  0  0  0
  141.8080   72.0080  226.6950 C   0  0  0  0  0  0  0  0  0  0  0  0
  141.3090   71.0190  225.8500 C   0  0  0  0  0  0  0  0  0  0  0  0
  139.0420   69.6120  224.0940 C   0  0  0  0  0  0  0  0  0  0  0  0
  139.5110   70.9310  223.5600 C   0  0  0  0  0  0  0  0  0  0  0  0
  138.5410   71.4130  222.5020 C   0  0  0  0  0  0  0  0  0  0  0  0
  137.2470   71.7440  223.1190 N   0  0  0  0  0  0  0  0  0  0  0  0
  136.3990   72.7570  222.5860 C   0  0  0  0  0  0  0  0  0  0  0  0
  136.8190   73.3510  221.5670 O   0  0  0  0  0  0  0  0  0  0  0  0
  135.1260   73.0050  223.2710 C   0  0  0  0  0  0  0  0  0  0  0  0
  135.1400   74.1390  224.2470 C   0  0  0  0  0  0  0  0  0  0  0  0
  134.3390   74.0500  225.4510 C   0  0  0  0  0  0  0  0  0  0  0  0
  133.7330   75.0150  226.2240 C   0  0  0  0  0  0  0  0  0  0  0  0
  133.6870   76.4540  226.1030 C   0  0  0  0  0  0  0  0  0  0  0  0
  133.9340   77.2110  225.0190 C   0  0  0  0  0  0  0  0  0  0  0  0
  133.8220   78.5970  225.0140 C   0  0  0  0  0  0  0  0  0  0  0  0
  133.4420   79.2620  226.1670 C   0  0  0  0  0  0  0  0  0  0  0  0
  133.1840   78.5090  227.2940 C   0  0  0  0  0  0  0  0  0  0  0  0
  133.3010   77.1410  227.2740 C   0  0  0  0  0  0  0  0  0  0  0  0
  133.0340   74.3850  227.2300 N   0  0  0  0  0  0  0  0  0  0  0  0
  133.1880   73.1080  227.1030 O   0  0  0  0  0  0  0  0  0  0  0  0
  133.9550   72.8450  226.0630 C   0  0  0  0  0  0  0  0  0  0  0  0
  134.2960   71.4530  225.6800 C   0  0  0  0  0  0  0  0  0  0  0  0
  136.9150   70.9650  224.3010 C   0  0  0  0  0  0  0  0  0  0  0  0
  137.5630   69.5970  224.2420 C   0  0  0  0  0  0  0  0  0  0  0  0
  141.3473   66.9327  228.5492 H   0  0  0  0  0  0  0  0  0  0  0  0
  141.7049   68.6511  228.1670 H   0  0  0  0  0  0  0  0  0  0  0  0
  140.0067   68.0656  228.1670 H   0  0  0  0  0  0  0  0  0  0  0  0
  142.0858   67.9104  226.0784 H   0  0  0  0  0  0  0  0  0  0  0  0
  141.1969   66.3496  226.4030 H   0  0  0  0  0  0  0  0  0  0  0  0
  138.8194   69.9028  227.7916 H   0  0  0  0  0  0  0  0  0  0  0  0
  139.7002   71.6503  229.2856 H   0  0  0  0  0  0  0  0  0  0  0  0
  141.6616   73.0475  228.5919 H   0  0  0  0  0  0  0  0  0  0  0  0
  142.6699   72.6052  226.3626 H   0  0  0  0  0  0  0  0  0  0  0  0
  141.7801   70.8494  224.8706 H   0  0  0  0  0  0  0  0  0  0  0  0
  139.2856   68.8248  223.3653 H   0  0  0  0  0  0  0  0  0  0  0  0
  139.5566   71.6642  224.3787 H   0  0  0  0  0  0  0  0  0  0  0  0
  140.5121   70.8163  223.1188 H   0  0  0  0  0  0  0  0  0  0  0  0
  138.9511   72.3089  222.0128 H   0  0  0  0  0  0  0  0  0  0  0  0
  138.3930   70.6164  221.7580 H   0  0  0  0  0  0  0  0  0  0  0  0
  134.3649   73.2224  222.5072 H   0  0  0  0  0  0  0  0  0  0  0  0
  134.9125   72.0992  223.8574 H   0  0  0  0  0  0  0  0  0  0  0  0
  136.1840   74.2747  224.5658 H   0  0  0  0  0  0  0  0  0  0  0  0
  134.6793   74.9676  223.6891 H   0  0  0  0  0  0  0  0  0  0  0  0
  134.2400   76.7084  224.0896 H   0  0  0  0  0  0  0  0  0  0  0  0
  134.0350   79.1638  224.0957 H   0  0  0  0  0  0  0  0  0  0  0  0
  133.3485   80.3579  226.1843 H   0  0  0  0  0  0  0  0  0  0  0  0
  132.8797   79.0126  228.2234 H   0  0  0  0  0  0  0  0  0  0  0  0
  133.0896   76.5688  228.1894 H   0  0  0  0  0  0  0  0  0  0  0  0
  134.4440   70.8489  226.5873 H   0  0  0  0  0  0  0  0  0  0  0  0
  133.4761   71.0253  225.0844 H   0  0  0  0  0  0  0  0  0  0  0  0
  135.2208   71.4527  225.0844 H   0  0  0  0  0  0  0  0  0  0  0  0
  137.2734   71.4958  225.1953 H   0  0  0  0  0  0  0  0  0  0  0  0
  135.8233   70.8369  224.3442 H   0  0  0  0  0  0  0  0  0  0  0  0
  137.3178   69.0622  225.1714 H   0  0  0  0  0  0  0  0  0  0  0  0
  137.1673   69.1063  223.3406 H   0  0  0  0  0  0  0  0  0  0  0  0
  1  2  1  0
  2  3  1  0
  3  4  2  0
  3  5  1  0
  5  6  1  0
  6  7  2  0
  7  8  1  0
  8  9  2  0
  9 10  1  0
 10 11  2  0
  5 12  1  0
 12 13  1  0
 13 14  1  0
 14 15  1  0
 15 16  1  0
 16 17  2  0
 16 18  1  0
 18 19  1  0
 19 20  1  0
 20 21  1  0
 21 22  1  0
 22 23  2  0
 23 24  1  0
 24 25  2  0
 25 26  1  0
 26 27  2  0
 21 28  2  0
 28 29  1  0
 29 30  1  0
 30 31  1  0
 15 32  1  0
 32 33  1  0
 11  6  1  0
 33 12  1  0
 30 20  2  0
 27 22  1  0
  1 34  1  0
  1 35  1  0
  1 36  1  0
  2 37  1  0
  2 38  1  0
  7 39  1  0
  8 40  1  0
  9 41  1  0
 10 42  1  0
 11 43  1  0
 12 44  1  0
 13 45  1  0
 13 46  1  0
 14 47  1  0
 14 48  1  0
 18 49  1  0
 18 50  1  0
 19 51  1  0
 19 52  1  0
 23 53  1  0
 24 54  1  0
 25 55  1  0
 26 56  1  0
 27 57  1  0
 31 58  1  0
 31 59  1  0
 31 60  1  0
 32 61  1  0
 32 62  1  0
 33 63  1  0
 33 64  1  0
M  END
>  <smiles>  (25) 
CCC(=O)N(c1ccccc1)C1CCN(C(=O)CCc2c(-c3ccccc3)noc2C)CC1

>  <score_type>  (25) 
oracle

>  <origin>  (25) 
autodockgpu

>  <m_score__min__energy>  (25) 
-9.5199999999999996

>  <m_primary>  (25) 
energy

>  <rmsd>  (25) 
10.168663306308659

>  <m_score__min__rmsd>  (25) 
10.168663306308659

>  <meeko>  (25) 
{"free_energy": -9.05, "intermolecular_energy": -11.44, "internal_energy": -1.38, "cluster_size": 4, "cluster_id": 4, "rank_in_cluster": 1}

>  <energy>  (25) 
-8.99

>  <cluster_rmsd>  (25) 
0.0

>  <cluster>  (25) 
5

$$$$

     RDKit          3D

 64 67  0  0  0  0  0  0  0  0999 V2000
  146.3220   73.3250  221.9470 C   0  0  0  0  0  0  0  0  0  0  0  0
  146.2050   73.7840  220.5120 C   0  0  0  0  0  0  0  0  0  0  0  0
  145.2220   73.0300  219.7430 C   0  0  0  0  0  0  0  0  0  0  0  0
  145.6270   72.1910  218.8770 O   0  0  0  0  0  0  0  0  0  0  0  0
  143.8080   73.1410  219.8680 N   0  0  0  0  0  0  0  0  0  0  0  0
  143.2540   74.4350  219.6680 C   0  0  0  0  0  0  0  0  0  0  0  0
  143.5260   75.2350  218.5900 C   0  0  0  0  0  0  0  0  0  0  0  0
  142.9610   76.4930  218.4400 C   0  0  0  0  0  0  0  0  0  0  0  0
  142.0860   76.9970  219.3890 C   0  0  0  0  0  0  0  0  0  0  0  0
  141.8160   76.1890  220.4720 C   0  0  0  0  0  0  0  0  0  0  0  0
  142.3850   74.9260  220.6190 C   0  0  0  0  0  0  0  0  0  0  0  0
  142.9600   71.9750  220.1680 C   0  0  0  0  0  0  0  0  0  0  0  0
  141.7790   71.9180  219.2480 C   0  0  0  0  0  0  0  0  0  0  0  0
  140.7730   70.9220  219.7880 C   0  0  0  0  0  0  0  0  0  0  0  0
  140.1950   71.4240  221.0440 N   0  0  0  0  0  0  0  0  0  0  0  0
  138.8650   71.0970  221.4410 C   0  0  0  0  0  0  0  0  0  0  0  0
  138.2190   70.3640  220.6590 O   0  0  0  0  0  0  0  0  0  0  0  0
  138.3850   71.6420  222.7150 C   0  0  0  0  0  0  0  0  0  0  0  0
  137.7030   70.6570  223.6100 C   0  0  0  0  0  0  0  0  0  0  0  0
  138.3900   69.4350  223.9760 C   0  0  0  0  0  0  0  0  0  0  0  0
  139.2570   69.1420  225.0050 C   0  0  0  0  0  0  0  0  0  0  0  0
  139.7860   69.9530  226.0770 C   0  0  0  0  0  0  0  0  0  0  0  0
  139.6740   69.7630  227.4040 C   0  0  0  0  0  0  0  0  0  0  0  0
  140.2610   70.5980  228.3470 C   0  0  0  0  0  0  0  0  0  0  0  0
  141.0040   71.6910  227.9340 C   0  0  0  0  0  0  0  0  0  0  0  0
  141.1340   71.9090  226.5780 C   0  0  0  0  0  0  0  0  0  0  0  0
  140.5440   71.0700  225.6650 C   0  0  0  0  0  0  0  0  0  0  0  0
  139.5730   67.8030  224.9340 N   0  0  0  0  0  0  0  0  0  0  0  0
  138.9490   67.2840  223.9280 O   0  0  0  0  0  0  0  0  0  0  0  0
  138.2280   68.2040  223.3180 C   0  0  0  0  0  0  0  0  0  0  0  0
  137.4030   67.8840  222.1280 C   0  0  0  0  0  0  0  0  0  0  0  0
  141.0770   72.2700  221.8310 C   0  0  0  0  0  0  0  0  0  0  0  0
  142.5270   71.9060  221.5890 C   0  0  0  0  0  0  0  0  0  0  0  0
  146.1071   74.1679  222.6203 H   0  0  0  0  0  0  0  0  0  0  0  0
  145.6017   72.5146  222.1327 H   0  0  0  0  0  0  0  0  0  0  0  0
  147.3423   72.9583  222.1327 H   0  0  0  0  0  0  0  0  0  0  0  0
  145.9128   74.8445  220.5075 H   0  0  0  0  0  0  0  0  0  0  0  0
  147.1839   73.6214  220.0374 H   0  0  0  0  0  0  0  0  0  0  0  0
  144.2163   74.8672  217.8165 H   0  0  0  0  0  0  0  0  0  0  0  0
  143.2108   77.0984  217.5562 H   0  0  0  0  0  0  0  0  0  0  0  0
  141.6298   77.9923  219.2831 H   0  0  0  0  0  0  0  0  0  0  0  0
  141.1269   76.5541  221.2478 H   0  0  0  0  0  0  0  0  0  0  0  0
  142.1391   74.3158  221.5006 H   0  0  0  0  0  0  0  0  0  0  0  0
  143.5902   71.0900  219.9957 H   0  0  0  0  0  0  0  0  0  0  0  0
  141.3139   72.9128  219.1847 H   0  0  0  0  0  0  0  0  0  0  0  0
  142.1067   71.6050  218.2457 H   0  0  0  0  0  0  0  0  0  0  0  0
  139.9706   70.7775  219.0496 H   0  0  0  0  0  0  0  0  0  0  0  0
  141.2791   69.9644  219.9799 H   0  0  0  0  0  0  0  0  0  0  0  0
  139.2494   72.0532  223.2569 H   0  0  0  0  0  0  0  0  0  0  0  0
  137.6282   72.3981  222.4588 H   0  0  0  0  0  0  0  0  0  0  0  0
  137.4665   71.1844  224.5459 H   0  0  0  0  0  0  0  0  0  0  0  0
  136.8513   70.3061  223.0088 H   0  0  0  0  0  0  0  0  0  0  0  0
  139.0881   68.9031  227.7607 H   0  0  0  0  0  0  0  0  0  0  0  0
  140.1356   70.3910  229.4200 H   0  0  0  0  0  0  0  0  0  0  0  0
  141.4759   72.3646  228.6645 H   0  0  0  0  0  0  0  0  0  0  0  0
  141.7200   72.7692  226.2222 H   0  0  0  0  0  0  0  0  0  0  0  0
  140.6646   71.2726  224.5906 H   0  0  0  0  0  0  0  0  0  0  0  0
  136.4231   67.5039  222.4526 H   0  0  0  0  0  0  0  0  0  0  0  0
  137.2622   68.7927  221.5243 H   0  0  0  0  0  0  0  0  0  0  0  0
  137.9118   67.1180  221.5243 H   0  0  0  0  0  0  0  0  0  0  0  0
  140.9166   73.3207  221.5476 H   0  0  0  0  0  0  0  0  0  0  0  0
  140.8492   72.1223  222.8970 H   0  0  0  0  0  0  0  0  0  0  0  0
  143.1546   72.5964  222.1716 H   0  0  0  0  0  0  0  0  0  0  0  0
  142.6370   70.8551  221.8949 H   0  0  0  0  0  0  0  0  0  0  0  0
  1  2  1  0
  2  3  1  0
  3  4  2  0
  3  5  1  0
  5  6  1  0
  6  7  2  0
  7  8  1  0
  8  9  2  0
  9 10  1  0
 10 11  2  0
  5 12  1  0
 12 13  1  0
 13 14  1  0
 14 15  1  0
 15 16  1  0
 16 17  2  0
 16 18  1  0
 18 19  1  0
 19 20  1  0
 20 21  1  0
 21 22  1  0
 22 23  2  0
 23 24  1  0
 24 25  2  0
 25 26  1  0
 26 27  2  0
 21 28  2  0
 28 29  1  0
 29 30  1  0
 30 31  1  0
 15 32  1  0
 32 33  1  0
 11  6  1  0
 33 12  1  0
 30 20  2  0
 27 22  1  0
  1 34  1  0
  1 35  1  0
  1 36  1  0
  2 37  1  0
  2 38  1  0
  7 39  1  0
  8 40  1  0
  9 41  1  0
 10 42  1  0
 11 43  1  0
 12 44  1  0
 13 45  1  0
 13 46  1  0
 14 47  1  0
 14 48  1  0
 18 49  1  0
 18 50  1  0
 19 51  1  0
 19 52  1  0
 23 53  1  0
 24 54  1  0
 25 55  1  0
 26 56  1  0
 27 57  1  0
 31 58  1  0
 31 59  1  0
 31 60  1  0
 32 61  1  0
 32 62  1  0
 33 63  1  0
 33 64  1  0
M  END
>  <smiles>  (26) 
CCC(=O)N(c1ccccc1)C1CCN(C(=O)CCc2c(-c3ccccc3)noc2C)CC1

>  <score_type>  (26) 
oracle

>  <origin>  (26) 
autodockgpu

>  <m_score__min__energy>  (26) 
-9.5199999999999996

>  <m_primary>  (26) 
energy

>  <rmsd>  (26) 
8.92987154080127

>  <m_score__min__rmsd>  (26) 
8.92987154080127

>  <meeko>  (26) 
{"free_energy": -8.57, "intermolecular_energy": -10.95, "internal_energy": -2.31, "cluster_size": 3, "cluster_id": 2, "rank_in_cluster": 2}

>  <energy>  (26) 
-8.81

>  <cluster_rmsd>  (26) 
0.32

>  <cluster>  (26) 
5

$$$$

     RDKit          3D

 64 67  0  0  0  0  0  0  0  0999 V2000
  141.0190   67.7650  227.6530 C   0  0  0  0  0  0  0  0  0  0  0  0
  140.9650   67.4950  226.1670 C   0  0  0  0  0  0  0  0  0  0  0  0
  139.8270   68.1240  225.5070 C   0  0  0  0  0  0  0  0  0  0  0  0
  138.8330   67.4050  225.1730 O   0  0  0  0  0  0  0  0  0  0  0  0
  139.7130   69.5070  225.1880 N   0  0  0  0  0  0  0  0  0  0  0  0
  140.2170   70.4230  226.1510 C   0  0  0  0  0  0  0  0  0  0  0  0
  139.7150   70.5690  227.4170 C   0  0  0  0  0  0  0  0  0  0  0  0
  140.2410   71.4800  228.3220 C   0  0  0  0  0  0  0  0  0  0  0  0
  141.3100   72.2900  227.9740 C   0  0  0  0  0  0  0  0  0  0  0  0
  141.8120   72.1390  226.6990 C   0  0  0  0  0  0  0  0  0  0  0  0
  141.2810   71.2230  225.7940 C   0  0  0  0  0  0  0  0  0  0  0  0
  139.1250   69.9650  223.9180 C   0  0  0  0  0  0  0  0  0  0  0  0
  139.3300   68.9520  222.8340 C   0  0  0  0  0  0  0  0  0  0  0  0
  139.0180   69.5850  221.4930 C   0  0  0  0  0  0  0  0  0  0  0  0
  140.0190   70.6170  221.1800 N   0  0  0  0  0  0  0  0  0  0  0  0
  140.3880   70.9210  219.8380 C   0  0  0  0  0  0  0  0  0  0  0  0
  139.8160   70.2580  218.9420 O   0  0  0  0  0  0  0  0  0  0  0  0
  141.3910   71.9700  219.6320 C   0  0  0  0  0  0  0  0  0  0  0  0
  142.4320   71.6620  218.6030 C   0  0  0  0  0  0  0  0  0  0  0  0
  143.8340   71.7790  218.9520 C   0  0  0  0  0  0  0  0  0  0  0  0
  144.7960   70.8310  219.2180 C   0  0  0  0  0  0  0  0  0  0  0  0
  144.7420   69.3870  219.2440 C   0  0  0  0  0  0  0  0  0  0  0  0
  143.6580   68.5910  219.2900 C   0  0  0  0  0  0  0  0  0  0  0  0
  143.7290   67.2030  219.2730 C   0  0  0  0  0  0  0  0  0  0  0  0
  144.9610   66.5760  219.2090 C   0  0  0  0  0  0  0  0  0  0  0  0
  146.0890   67.3690  219.1620 C   0  0  0  0  0  0  0  0  0  0  0  0
  145.9940   68.7390  219.1790 C   0  0  0  0  0  0  0  0  0  0  0  0
  145.9910   71.4790  219.4350 N   0  0  0  0  0  0  0  0  0  0  0  0
  145.7990   72.7510  219.3150 O   0  0  0  0  0  0  0  0  0  0  0  0
  144.5350   72.9930  219.0290 C   0  0  0  0  0  0  0  0  0  0  0  0
  144.0330   74.3750  218.8310 C   0  0  0  0  0  0  0  0  0  0  0  0
  140.5930   71.2850  222.3370 C   0  0  0  0  0  0  0  0  0  0  0  0
  139.6110   71.3040  223.4890 C   0  0  0  0  0  0  0  0  0  0  0  0
  140.8321   66.8306  228.2025 H   0  0  0  0  0  0  0  0  0  0  0  0
  142.0128   68.1543  227.9191 H   0  0  0  0  0  0  0  0  0  0  0  0
  140.2514   68.5066  227.9191 H   0  0  0  0  0  0  0  0  0  0  0  0
  141.8892   67.8773  225.7090 H   0  0  0  0  0  0  0  0  0  0  0  0
  140.8566   66.4081  226.0373 H   0  0  0  0  0  0  0  0  0  0  0  0
  138.8656   69.9425  227.7270 H   0  0  0  0  0  0  0  0  0  0  0  0
  139.8039   71.5601  229.3282 H   0  0  0  0  0  0  0  0  0  0  0  0
  141.7369   73.0175  228.6801 H   0  0  0  0  0  0  0  0  0  0  0  0
  142.6614   72.7636  226.3855 H   0  0  0  0  0  0  0  0  0  0  0  0
  141.7142   71.1374  224.7865 H   0  0  0  0  0  0  0  0  0  0  0  0
  138.0465   70.0741  224.1051 H   0  0  0  0  0  0  0  0  0  0  0  0
  140.3751   68.6089  222.8443 H   0  0  0  0  0  0  0  0  0  0  0  0
  138.6632   68.0932  223.0007 H   0  0  0  0  0  0  0  0  0  0  0  0
  139.0358   68.8110  220.7116 H   0  0  0  0  0  0  0  0  0  0  0  0
  138.0215   70.0488  221.5351 H   0  0  0  0  0  0  0  0  0  0  0  0
  140.8668   72.8861  219.3222 H   0  0  0  0  0  0  0  0  0  0  0  0
  141.9267   72.0722  220.5873 H   0  0  0  0  0  0  0  0  0  0  0  0
  142.2674   70.6229  218.2817 H   0  0  0  0  0  0  0  0  0  0  0  0
  142.2871   72.4457  217.8448 H   0  0  0  0  0  0  0  0  0  0  0  0
  142.6657   69.0626  219.3438 H   0  0  0  0  0  0  0  0  0  0  0  0
  142.8073   66.6038  219.3104 H   0  0  0  0  0  0  0  0  0  0  0  0
  145.0386   65.4788  219.1960 H   0  0  0  0  0  0  0  0  0  0  0  0
  147.0808   66.8962  219.1101 H   0  0  0  0  0  0  0  0  0  0  0  0
  146.9123   69.3434  219.1412 H   0  0  0  0  0  0  0  0  0  0  0  0
  143.8617   74.8466  219.8099 H   0  0  0  0  0  0  0  0  0  0  0  0
  144.7767   74.9581  218.2681 H   0  0  0  0  0  0  0  0  0  0  0  0
  143.0884   74.3449  218.2681 H   0  0  0  0  0  0  0  0  0  0  0  0
  141.5028   70.7504  222.6475 H   0  0  0  0  0  0  0  0  0  0  0  0
  140.8336   72.3225  222.0617 H   0  0  0  0  0  0  0  0  0  0  0  0
  140.1026   71.7813  224.3496 H   0  0  0  0  0  0  0  0  0  0  0  0
  138.7275   71.8541  223.1331 H   0  0  0  0  0  0  0  0  0  0  0  0
  1  2  1  0
  2  3  1  0
  3  4  2  0
  3  5  1  0
  5  6  1  0
  6  7  2  0
  7  8  1  0
  8  9  2  0
  9 10  1  0
 10 11  2  0
  5 12  1  0
 12 13  1  0
 13 14  1  0
 14 15  1  0
 15 16  1  0
 16 17  2  0
 16 18  1  0
 18 19  1  0
 19 20  1  0
 20 21  1  0
 21 22  1  0
 22 23  2  0
 23 24  1  0
 24 25  2  0
 25 26  1  0
 26 27  2  0
 21 28  2  0
 28 29  1  0
 29 30  1  0
 30 31  1  0
 15 32  1  0
 32 33  1  0
 11  6  1  0
 33 12  1  0
 30 20  2  0
 27 22  1  0
  1 34  1  0
  1 35  1  0
  1 36  1  0
  2 37  1  0
  2 38  1  0
  7 39  1  0
  8 40  1  0
  9 41  1  0
 10 42  1  0
 11 43  1  0
 12 44  1  0
 13 45  1  0
 13 46  1  0
 14 47  1  0
 14 48  1  0
 18 49  1  0
 18 50  1  0
 19 51  1  0
 19 52  1  0
 23 53  1  0
 24 54  1  0
 25 55  1  0
 26 56  1  0
 27 57  1  0
 31 58  1  0
 31 59  1  0
 31 60  1  0
 32 61  1  0
 32 62  1  0
 33 63  1  0
 33 64  1  0
M  END
>  <smiles>  (27) 
CCC(=O)N(c1ccccc1)C1CCN(C(=O)CCc2c(-c3ccccc3)noc2C)CC1

>  <score_type>  (27) 
oracle

>  <origin>  (27) 
autodockgpu

>  <m_score__min__energy>  (27) 
-9.5199999999999996

>  <m_primary>  (27) 
energy

>  <rmsd>  (27) 
8.707645342169803

>  <m_score__min__rmsd>  (27) 
8.707645342169803

>  <meeko>  (27) 
{"free_energy": -8.88, "intermolecular_energy": -11.26, "internal_energy": -1.57, "cluster_size": 1, "cluster_id": 6, "rank_in_cluster": 1}

>  <energy>  (27) 
-8.75

>  <cluster_rmsd>  (27) 
0.34

>  <cluster>  (27) 
5

$$$$

     RDKit          3D

 64 67  0  0  0  0  0  0  0  0999 V2000
  137.3510   81.3170  225.5070 C   0  0  0  0  0  0  0  0  0  0  0  0
  138.1390   81.1980  224.2230 C   0  0  0  0  0  0  0  0  0  0  0  0
  137.7660   80.0380  223.4220 C   0  0  0  0  0  0  0  0  0  0  0  0
  136.5360   79.7350  223.3100 O   0  0  0  0  0  0  0  0  0  0  0  0
  138.6700   79.1810  222.7310 N   0  0  0  0  0  0  0  0  0  0  0  0
  140.0500   79.5040  222.8310 C   0  0  0  0  0  0  0  0  0  0  0  0
  140.8980   78.9970  223.7800 C   0  0  0  0  0  0  0  0  0  0  0  0
  142.2400   79.3460  223.8370 C   0  0  0  0  0  0  0  0  0  0  0  0
  142.7820   80.2340  222.9230 C   0  0  0  0  0  0  0  0  0  0  0  0
  141.9270   80.7420  221.9700 C   0  0  0  0  0  0  0  0  0  0  0  0
  140.5800   80.3890  221.9150 C   0  0  0  0  0  0  0  0  0  0  0  0
  138.2030   78.0100  221.9710 C   0  0  0  0  0  0  0  0  0  0  0  0
  137.5180   77.0250  222.8670 C   0  0  0  0  0  0  0  0  0  0  0  0
  137.3530   75.7110  222.1320 C   0  0  0  0  0  0  0  0  0  0  0  0
  138.6690   75.0950  221.9010 N   0  0  0  0  0  0  0  0  0  0  0  0
  138.8350   73.6810  221.8380 C   0  0  0  0  0  0  0  0  0  0  0  0
  137.7990   72.9950  221.9940 O   0  0  0  0  0  0  0  0  0  0  0  0
  140.1870   73.1680  221.5960 C   0  0  0  0  0  0  0  0  0  0  0  0
  140.7500   72.3200  222.6930 C   0  0  0  0  0  0  0  0  0  0  0  0
  140.0530   71.1110  223.0850 C   0  0  0  0  0  0  0  0  0  0  0  0
  139.8730   70.5120  224.3120 C   0  0  0  0  0  0  0  0  0  0  0  0
  140.3190   70.8790  225.6360 C   0  0  0  0  0  0  0  0  0  0  0  0
  141.1040   71.9100  225.9980 C   0  0  0  0  0  0  0  0  0  0  0  0
  141.4390   72.1870  227.3190 C   0  0  0  0  0  0  0  0  0  0  0  0
  140.9610   71.3800  228.3360 C   0  0  0  0  0  0  0  0  0  0  0  0
  140.1540   70.3140  227.9910 C   0  0  0  0  0  0  0  0  0  0  0  0
  139.8360   70.0610  226.6790 C   0  0  0  0  0  0  0  0  0  0  0  0
  139.0710   69.4060  224.1380 N   0  0  0  0  0  0  0  0  0  0  0  0
  138.7640   69.3110  222.8850 O   0  0  0  0  0  0  0  0  0  0  0  0
  139.3190   70.2970  222.2070 C   0  0  0  0  0  0  0  0  0  0  0  0
  139.1300   70.4360  220.7420 C   0  0  0  0  0  0  0  0  0  0  0  0
  139.7680   76.0360  221.7500 C   0  0  0  0  0  0  0  0  0  0  0  0
  139.2760   77.3500  221.1810 C   0  0  0  0  0  0  0  0  0  0  0  0
  138.0311   81.2143  226.3655 H   0  0  0  0  0  0  0  0  0  0  0  0
  136.8583   82.2997  225.5451 H   0  0  0  0  0  0  0  0  0  0  0  0
  136.5900   80.5236  225.5451 H   0  0  0  0  0  0  0  0  0  0  0  0
  137.9693   82.1049  223.6240 H   0  0  0  0  0  0  0  0  0  0  0  0
  139.1965   81.0757  224.5002 H   0  0  0  0  0  0  0  0  0  0  0  0
  140.5015   78.2888  224.5225 H   0  0  0  0  0  0  0  0  0  0  0  0
  142.8813   78.9117  224.6181 H   0  0  0  0  0  0  0  0  0  0  0  0
  143.8437   80.5198  222.9564 H   0  0  0  0  0  0  0  0  0  0  0  0
  142.3210   81.4507  221.2267 H   0  0  0  0  0  0  0  0  0  0  0  0
  139.9344   80.8193  221.1352 H   0  0  0  0  0  0  0  0  0  0  0  0
  137.4752   78.3933  221.2407 H   0  0  0  0  0  0  0  0  0  0  0  0
  138.1244   76.8668  223.7710 H   0  0  0  0  0  0  0  0  0  0  0  0
  136.5298   77.4133  223.1545 H   0  0  0  0  0  0  0  0  0  0  0  0
  136.7335   75.0313  222.7355 H   0  0  0  0  0  0  0  0  0  0  0  0
  136.8666   75.8977  221.1632 H   0  0  0  0  0  0  0  0  0  0  0  0
  140.1629   72.5643  220.6768 H   0  0  0  0  0  0  0  0  0  0  0  0
  140.8409   74.0496  221.5241 H   0  0  0  0  0  0  0  0  0  0  0  0
  141.7610   72.0202  222.3799 H   0  0  0  0  0  0  0  0  0  0  0  0
  140.6762   72.9628  223.5826 H   0  0  0  0  0  0  0  0  0  0  0  0
  141.5007   72.5667  225.2097 H   0  0  0  0  0  0  0  0  0  0  0  0
  142.0833   73.0468  227.5550 H   0  0  0  0  0  0  0  0  0  0  0  0
  141.2159   71.5813  229.3869 H   0  0  0  0  0  0  0  0  0  0  0  0
  139.7594   69.6567  228.7798 H   0  0  0  0  0  0  0  0  0  0  0  0
  139.1916   69.2031  226.4366 H   0  0  0  0  0  0  0  0  0  0  0  0
  138.2583   71.0771  220.5439 H   0  0  0  0  0  0  0  0  0  0  0  0
  140.0279   70.8905  220.2980 H   0  0  0  0  0  0  0  0  0  0  0  0
  138.9636   69.4435  220.2980 H   0  0  0  0  0  0  0  0  0  0  0  0
  140.2251   76.2176  222.7339 H   0  0  0  0  0  0  0  0  0  0  0  0
  140.5073   75.6067  221.0579 H   0  0  0  0  0  0  0  0  0  0  0  0
  140.1313   78.0393  221.1231 H   0  0  0  0  0  0  0  0  0  0  0  0
  138.8383   77.1172  220.1991 H   0  0  0  0  0  0  0  0  0  0  0  0
  1  2  1  0
  2  3  1  0
  3  4  2  0
  3  5  1  0
  5  6  1  0
  6  7  2  0
  7  8  1  0
  8  9  2  0
  9 10  1  0
 10 11  2  0
  5 12  1  0
 12 13  1  0
 13 14  1  0
 14 15  1  0
 15 16  1  0
 16 17  2  0
 16 18  1  0
 18 19  1  0
 19 20  1  0
 20 21  1  0
 21 22  1  0
 22 23  2  0
 23 24  1  0
 24 25  2  0
 25 26  1  0
 26 27  2  0
 21 28  2  0
 28 29  1  0
 29 30  1  0
 30 31  1  0
 15 32  1  0
 32 33  1  0
 11  6  1  0
 33 12  1  0
 30 20  2  0
 27 22  1  0
  1 34  1  0
  1 35  1  0
  1 36  1  0
  2 37  1  0
  2 38  1  0
  7 39  1  0
  8 40  1  0
  9 41  1  0
 10 42  1  0
 11 43  1  0
 12 44  1  0
 13 45  1  0
 13 46  1  0
 14 47  1  0
 14 48  1  0
 18 49  1  0
 18 50  1  0
 19 51  1  0
 19 52  1  0
 23 53  1  0
 24 54  1  0
 25 55  1  0
 26 56  1  0
 27 57  1  0
 31 58  1  0
 31 59  1  0
 31 60  1  0
 32 61  1  0
 32 62  1  0
 33 63  1  0
 33 64  1  0
M  END
>  <smiles>  (28) 
CCC(=O)N(c1ccccc1)C1CCN(C(=O)CCc2c(-c3ccccc3)noc2C)CC1

>  <score_type>  (28) 
oracle

>  <origin>  (28) 
autodockgpu

>  <m_score__min__energy>  (28) 
-9.5199999999999996

>  <m_primary>  (28) 
energy

>  <rmsd>  (28) 
6.1219603712107435

>  <m_score__min__rmsd>  (28) 
6.1219603712107435

>  <meeko>  (28) 
{"free_energy": -8.47, "intermolecular_energy": -10.86, "internal_energy": -1.84, "cluster_size": 2, "cluster_id": 7, "rank_in_cluster": 1}

>  <energy>  (28) 
-8.88

>  <cluster_rmsd>  (28) 
0.0

>  <cluster>  (28) 
6

$$$$

     RDKit          3D

 64 67  0  0  0  0  0  0  0  0999 V2000
  142.8380   77.6760  217.9210 C   0  0  0  0  0  0  0  0  0  0  0  0
  142.7670   76.1800  217.7160 C   0  0  0  0  0  0  0  0  0  0  0  0
  141.9030   75.5070  218.6790 C   0  0  0  0  0  0  0  0  0  0  0  0
  140.7770   75.0620  218.2910 O   0  0  0  0  0  0  0  0  0  0  0  0
  142.2020   75.2920  220.0540 N   0  0  0  0  0  0  0  0  0  0  0  0
  143.2680   74.3950  220.3370 C   0  0  0  0  0  0  0  0  0  0  0  0
  143.1210   73.0420  220.4970 C   0  0  0  0  0  0  0  0  0  0  0  0
  144.1930   72.2070  220.7750 C   0  0  0  0  0  0  0  0  0  0  0  0
  145.4750   72.7170  220.9030 C   0  0  0  0  0  0  0  0  0  0  0  0
  145.6200   74.0780  220.7410 C   0  0  0  0  0  0  0  0  0  0  0  0
  144.5400   74.9130  220.4620 C   0  0  0  0  0  0  0  0  0  0  0  0
  141.4630   75.9780  221.1270 C   0  0  0  0  0  0  0  0  0  0  0  0
  140.2260   75.2190  221.4980 C   0  0  0  0  0  0  0  0  0  0  0  0
  139.3350   76.1010  222.3470 C   0  0  0  0  0  0  0  0  0  0  0  0
  138.8150   77.2150  221.5390 N   0  0  0  0  0  0  0  0  0  0  0  0
  137.5440   77.8040  221.8040 C   0  0  0  0  0  0  0  0  0  0  0  0
  136.8960   77.3170  222.7590 O   0  0  0  0  0  0  0  0  0  0  0  0
  137.1200   78.9140  220.9450 C   0  0  0  0  0  0  0  0  0  0  0  0
  137.4570   80.2790  221.4570 C   0  0  0  0  0  0  0  0  0  0  0  0
  137.6070   80.4850  222.8840 C   0  0  0  0  0  0  0  0  0  0  0  0
  138.7200   80.5110  223.6950 C   0  0  0  0  0  0  0  0  0  0  0  0
  140.1240   80.3390  223.4060 C   0  0  0  0  0  0  0  0  0  0  0  0
  140.9670   81.2000  222.8080 C   0  0  0  0  0  0  0  0  0  0  0  0
  142.3180   80.9370  222.6150 C   0  0  0  0  0  0  0  0  0  0  0  0
  142.8550   79.7360  223.0450 C   0  0  0  0  0  0  0  0  0  0  0  0
  142.0120   78.8340  223.6610 C   0  0  0  0  0  0  0  0  0  0  0  0
  140.6810   79.1170  223.8410 C   0  0  0  0  0  0  0  0  0  0  0  0
  138.3120   80.8100  224.9760 N   0  0  0  0  0  0  0  0  0  0  0  0
  137.0280   80.9630  224.9760 O   0  0  0  0  0  0  0  0  0  0  0  0
  136.5510   80.7820  223.7600 C   0  0  0  0  0  0  0  0  0  0  0  0
  135.1010   80.9010  223.4680 C   0  0  0  0  0  0  0  0  0  0  0  0
  139.6900   77.6540  220.4640 C   0  0  0  0  0  0  0  0  0  0  0  0
  141.1400   77.3940  220.8120 C   0  0  0  0  0  0  0  0  0  0  0  0
  142.8486   77.8984  218.9982 H   0  0  0  0  0  0  0  0  0  0  0  0
  143.7557   78.0665  217.4570 H   0  0  0  0  0  0  0  0  0  0  0  0
  141.9614   78.1517  217.4570 H   0  0  0  0  0  0  0  0  0  0  0  0
  142.3819   75.9839  216.7045 H   0  0  0  0  0  0  0  0  0  0  0  0
  143.7832   75.7830  217.8563 H   0  0  0  0  0  0  0  0  0  0  0  0
  142.1171   72.6025  220.4015 H   0  0  0  0  0  0  0  0  0  0  0  0
  144.0234   71.1268  220.8953 H   0  0  0  0  0  0  0  0  0  0  0  0
  146.3350   72.0674  221.1232 H   0  0  0  0  0  0  0  0  0  0  0  0
  146.6228   74.5202  220.8352 H   0  0  0  0  0  0  0  0  0  0  0  0
  144.7033   75.9940  220.3405 H   0  0  0  0  0  0  0  0  0  0  0  0
  142.1399   76.0027  221.9937 H   0  0  0  0  0  0  0  0  0  0  0  0
  139.6883   74.9234  220.5850 H   0  0  0  0  0  0  0  0  0  0  0  0
  140.5021   74.3181  222.0656 H   0  0  0  0  0  0  0  0  0  0  0  0
  138.4936   75.5062  222.7321 H   0  0  0  0  0  0  0  0  0  0  0  0
  139.9202   76.5052  223.1862 H   0  0  0  0  0  0  0  0  0  0  0  0
  137.6027   78.7894  219.9645 H   0  0  0  0  0  0  0  0  0  0  0  0
  136.0219   78.8658  220.9028 H   0  0  0  0  0  0  0  0  0  0  0  0
  138.4086   80.5712  220.9889 H   0  0  0  0  0  0  0  0  0  0  0  0
  136.5722   80.8795  221.1990 H   0  0  0  0  0  0  0  0  0  0  0  0
  140.5666   82.1613  222.4536 H   0  0  0  0  0  0  0  0  0  0  0  0
  142.9593   81.6820  222.1214 H   0  0  0  0  0  0  0  0  0  0  0  0
  143.9212   79.5076  222.9001 H   0  0  0  0  0  0  0  0  0  0  0  0
  142.4131   77.8724  224.0136 H   0  0  0  0  0  0  0  0  0  0  0  0
  140.0349   78.3761  224.3345 H   0  0  0  0  0  0  0  0  0  0  0  0
  134.5393   80.9471  224.4127 H   0  0  0  0  0  0  0  0  0  0  0  0
  134.9179   81.8172  222.8874 H   0  0  0  0  0  0  0  0  0  0  0  0
  134.7709   80.0269  222.8874 H   0  0  0  0  0  0  0  0  0  0  0  0
  139.4356   77.1056  219.5450 H   0  0  0  0  0  0  0  0  0  0  0  0
  139.5512   78.7350  220.3152 H   0  0  0  0  0  0  0  0  0  0  0  0
  141.7577   77.7032  219.9560 H   0  0  0  0  0  0  0  0  0  0  0  0
  141.3458   77.9686  221.7271 H   0  0  0  0  0  0  0  0  0  0  0  0
  1  2  1  0
  2  3  1  0
  3  4  2  0
  3  5  1  0
  5  6  1  0
  6  7  2  0
  7  8  1  0
  8  9  2  0
  9 10  1  0
 10 11  2  0
  5 12  1  0
 12 13  1  0
 13 14  1  0
 14 15  1  0
 15 16  1  0
 16 17  2  0
 16 18  1  0
 18 19  1  0
 19 20  1  0
 20 21  1  0
 21 22  1  0
 22 23  2  0
 23 24  1  0
 24 25  2  0
 25 26  1  0
 26 27  2  0
 21 28  2  0
 28 29  1  0
 29 30  1  0
 30 31  1  0
 15 32  1  0
 32 33  1  0
 11  6  1  0
 33 12  1  0
 30 20  2  0
 27 22  1  0
  1 34  1  0
  1 35  1  0
  1 36  1  0
  2 37  1  0
  2 38  1  0
  7 39  1  0
  8 40  1  0
  9 41  1  0
 10 42  1  0
 11 43  1  0
 12 44  1  0
 13 45  1  0
 13 46  1  0
 14 47  1  0
 14 48  1  0
 18 49  1  0
 18 50  1  0
 19 51  1  0
 19 52  1  0
 23 53  1  0
 24 54  1  0
 25 55  1  0
 26 56  1  0
 27 57  1  0
 31 58  1  0
 31 59  1  0
 31 60  1  0
 32 61  1  0
 32 62  1  0
 33 63  1  0
 33 64  1  0
M  END
>  <smiles>  (29) 
CCC(=O)N(c1ccccc1)C1CCN(C(=O)CCc2c(-c3ccccc3)noc2C)CC1

>  <score_type>  (29) 
oracle

>  <origin>  (29) 
autodockgpu

>  <m_score__min__energy>  (29) 
-9.5199999999999996

>  <m_primary>  (29) 
energy

>  <rmsd>  (29) 
6.3357386932390325

>  <m_score__min__rmsd>  (29) 
6.3357386932390325

>  <meeko>  (29) 
{"free_energy": -6.98, "intermolecular_energy": -9.37, "internal_energy": -3.09, "cluster_size": 2, "cluster_id": 13, "rank_in_cluster": 2}

>  <energy>  (29) 
-8.47

>  <cluster_rmsd>  (29) 
0.0

>  <cluster>  (29) 
7

$$$$

     RDKit          3D

 64 67  0  0  0  0  0  0  0  0999 V2000
  144.1510   74.8210  220.0980 C   0  0  0  0  0  0  0  0  0  0  0  0
  142.6890   74.8830  220.4770 C   0  0  0  0  0  0  0  0  0  0  0  0
  142.0970   76.2010  220.2770 C   0  0  0  0  0  0  0  0  0  0  0  0
  142.5970   76.9750  219.4020 O   0  0  0  0  0  0  0  0  0  0  0  0
  140.9790   76.7240  220.9880 N   0  0  0  0  0  0  0  0  0  0  0  0
  141.1970   77.9240  221.7180 C   0  0  0  0  0  0  0  0  0  0  0  0
  141.2160   79.1760  221.1630 C   0  0  0  0  0  0  0  0  0  0  0  0
  141.4360   80.3180  221.9190 C   0  0  0  0  0  0  0  0  0  0  0  0
  141.6480   80.2350  223.2860 C   0  0  0  0  0  0  0  0  0  0  0  0
  141.6290   78.9740  223.8400 C   0  0  0  0  0  0  0  0  0  0  0  0
  141.4070   77.8290  223.0780 C   0  0  0  0  0  0  0  0  0  0  0  0
  139.6600   76.0700  220.9510 C   0  0  0  0  0  0  0  0  0  0  0  0
  139.0980   75.9140  222.3310 C   0  0  0  0  0  0  0  0  0  0  0  0
  137.9240   74.9590  222.2860 C   0  0  0  0  0  0  0  0  0  0  0  0
  138.3910   73.6030  221.9600 N   0  0  0  0  0  0  0  0  0  0  0  0
  137.7190   72.4410  222.4410 C   0  0  0  0  0  0  0  0  0  0  0  0
  136.7130   72.6420  223.1600 O   0  0  0  0  0  0  0  0  0  0  0  0
  138.2610   71.1350  222.0530 C   0  0  0  0  0  0  0  0  0  0  0  0
  139.4310   70.6680  222.8600 C   0  0  0  0  0  0  0  0  0  0  0  0
  139.3140   69.4540  223.6430 C   0  0  0  0  0  0  0  0  0  0  0  0
  139.5250   69.2000  224.9790 C   0  0  0  0  0  0  0  0  0  0  0  0
  139.9390   70.0560  226.0670 C   0  0  0  0  0  0  0  0  0  0  0  0
  139.5730   70.0030  227.3600 C   0  0  0  0  0  0  0  0  0  0  0  0
  140.0700   70.8650  228.3310 C   0  0  0  0  0  0  0  0  0  0  0  0
  140.9890   71.8400  227.9820 C   0  0  0  0  0  0  0  0  0  0  0  0
  141.3810   71.9170  226.6610 C   0  0  0  0  0  0  0  0  0  0  0  0
  140.8760   71.0540  225.7210 C   0  0  0  0  0  0  0  0  0  0  0  0
  139.2080   67.8820  225.2230 N   0  0  0  0  0  0  0  0  0  0  0  0
  138.8220   67.3380  224.1150 O   0  0  0  0  0  0  0  0  0  0  0  0
  138.8640   68.2230  223.1380 C   0  0  0  0  0  0  0  0  0  0  0  0
  138.4690   67.8700  221.7520 C   0  0  0  0  0  0  0  0  0  0  0  0
  139.5780   73.5480  221.1220 C   0  0  0  0  0  0  0  0  0  0  0  0
  139.6630   74.7690  220.2310 C   0  0  0  0  0  0  0  0  0  0  0  0
  144.7654   74.7949  221.0100 H   0  0  0  0  0  0  0  0  0  0  0  0
  144.3377   73.9141  219.5041 H   0  0  0  0  0  0  0  0  0  0  0  0
  144.4138   75.7088  219.5041 H   0  0  0  0  0  0  0  0  0  0  0  0
  142.1378   74.1557  219.8628 H   0  0  0  0  0  0  0  0  0  0  0  0
  142.6206   74.6544  221.5508 H   0  0  0  0  0  0  0  0  0  0  0  0
  141.0511   79.2795  220.0804 H   0  0  0  0  0  0  0  0  0  0  0  0
  141.4423   81.3019  221.4273 H   0  0  0  0  0  0  0  0  0  0  0  0
  141.8228   81.1319  223.8984 H   0  0  0  0  0  0  0  0  0  0  0  0
  141.7950   78.8673  224.9222 H   0  0  0  0  0  0  0  0  0  0  0  0
  141.3991   76.8424  223.5643 H   0  0  0  0  0  0  0  0  0  0  0  0
  139.0061   76.7395  220.3728 H   0  0  0  0  0  0  0  0  0  0  0  0
  139.8730   75.5128  223.0006 H   0  0  0  0  0  0  0  0  0  0  0  0
  138.7640   76.8925  222.7065 H   0  0  0  0  0  0  0  0  0  0  0  0
  137.4264   74.9469  223.2669 H   0  0  0  0  0  0  0  0  0  0  0  0
  137.2163   75.2928  221.5129 H   0  0  0  0  0  0  0  0  0  0  0  0
  137.4584   70.3895  222.1536 H   0  0  0  0  0  0  0  0  0  0  0  0
  138.6263   71.2492  221.0217 H   0  0  0  0  0  0  0  0  0  0  0  0
  140.2651   70.5183  222.1587 H   0  0  0  0  0  0  0  0  0  0  0  0
  139.5554   71.4555  223.6179 H   0  0  0  0  0  0  0  0  0  0  0  0
  138.8431   69.2386  227.6649 H   0  0  0  0  0  0  0  0  0  0  0  0
  139.7338   70.7726  229.3743 H   0  0  0  0  0  0  0  0  0  0  0  0
  141.3943   72.5322  228.7347 H   0  0  0  0  0  0  0  0  0  0  0  0
  142.1100   72.6825  226.3566 H   0  0  0  0  0  0  0  0  0  0  0  0
  141.2082   71.1416  224.6760 H   0  0  0  0  0  0  0  0  0  0  0  0
  137.6490   67.1373  221.7798 H   0  0  0  0  0  0  0  0  0  0  0  0
  138.1341   68.7752  221.2244 H   0  0  0  0  0  0  0  0  0  0  0  0
  139.3310   67.4358  221.2244 H   0  0  0  0  0  0  0  0  0  0  0  0
  140.4708   73.5065  221.7633 H   0  0  0  0  0  0  0  0  0  0  0  0
  139.5208   72.6513  220.4874 H   0  0  0  0  0  0  0  0  0  0  0  0
  140.5937   74.7029  219.6484 H   0  0  0  0  0  0  0  0  0  0  0  0
  138.7573   74.7594  219.6068 H   0  0  0  0  0  0  0  0  0  0  0  0
  1  2  1  0
  2  3  1  0
  3  4  2  0
  3  5  1  0
  5  6  1  0
  6  7  2  0
  7  8  1  0
  8  9  2  0
  9 10  1  0
 10 11  2  0
  5 12  1  0
 12 13  1  0
 13 14  1  0
 14 15  1  0
 15 16  1  0
 16 17  2  0
 16 18  1  0
 18 19  1  0
 19 20  1  0
 20 21  1  0
 21 22  1  0
 22 23  2  0
 23 24  1  0
 24 25  2  0
 25 26  1  0
 26 27  2  0
 21 28  2  0
 28 29  1  0
 29 30  1  0
 30 31  1  0
 15 32  1  0
 32 33  1  0
 11  6  1  0
 33 12  1  0
 30 20  2  0
 27 22  1  0
  1 34  1  0
  1 35  1  0
  1 36  1  0
  2 37  1  0
  2 38  1  0
  7 39  1  0
  8 40  1  0
  9 41  1  0
 10 42  1  0
 11 43  1  0
 12 44  1  0
 13 45  1  0
 13 46  1  0
 14 47  1  0
 14 48  1  0
 18 49  1  0
 18 50  1  0
 19 51  1  0
 19 52  1  0
 23 53  1  0
 24 54  1  0
 25 55  1  0
 26 56  1  0
 27 57  1  0
 31 58  1  0
 31 59  1  0
 31 60  1  0
 32 61  1  0
 32 62  1  0
 33 63  1  0
 33 64  1  0
M  END
>  <smiles>  (30) 
CCC(=O)N(c1ccccc1)C1CCN(C(=O)CCc2c(-c3ccccc3)noc2C)CC1

>  <score_type>  (30) 
oracle

>  <origin>  (30) 
autodockgpu

>  <m_score__min__energy>  (30) 
-9.5199999999999996

>  <m_primary>  (30) 
energy

>  <rmsd>  (30) 
7.60160860763106

>  <m_score__min__rmsd>  (30) 
7.60160860763106

>  <meeko>  (30) 
{"free_energy": -9.08, "intermolecular_energy": -11.46, "internal_energy": -1.68, "cluster_size": 14, "cluster_id": 3, "rank_in_cluster": 1}

>  <energy>  (30) 
-8.44

>  <cluster_rmsd>  (30) 
0.23

>  <cluster>  (30) 
7

$$$$

     RDKit          3D

 64 67  0  0  0  0  0  0  0  0999 V2000
  144.1860   69.9060  219.7230 C   0  0  0  0  0  0  0  0  0  0  0  0
  144.5500   70.6870  218.4810 C   0  0  0  0  0  0  0  0  0  0  0  0
  144.9510   72.0610  218.7610 C   0  0  0  0  0  0  0  0  0  0  0  0
  146.0200   72.2690  219.4170 O   0  0  0  0  0  0  0  0  0  0  0  0
  144.2440   73.2300  218.3610 N   0  0  0  0  0  0  0  0  0  0  0  0
  144.7970   73.9660  217.2790 C   0  0  0  0  0  0  0  0  0  0  0  0
  146.0130   73.7050  216.7050 C   0  0  0  0  0  0  0  0  0  0  0  0
  146.5110   74.4550  215.6500 C   0  0  0  0  0  0  0  0  0  0  0  0
  145.7870   75.5150  215.1280 C   0  0  0  0  0  0  0  0  0  0  0  0
  144.5650   75.7750  215.7080 C   0  0  0  0  0  0  0  0  0  0  0  0
  144.0680   75.0190  216.7670 C   0  0  0  0  0  0  0  0  0  0  0  0
  142.9920   73.6430  219.0190 C   0  0  0  0  0  0  0  0  0  0  0  0
  143.1970   73.8400  220.4890 C   0  0  0  0  0  0  0  0  0  0  0  0
  141.8490   73.9350  221.1730 C   0  0  0  0  0  0  0  0  0  0  0  0
  141.1570   72.6380  221.1020 N   0  0  0  0  0  0  0  0  0  0  0  0
  140.2500   72.2150  222.1160 C   0  0  0  0  0  0  0  0  0  0  0  0
  140.0790   73.0070  223.0710 O   0  0  0  0  0  0  0  0  0  0  0  0
  139.6070   70.9080  221.9480 C   0  0  0  0  0  0  0  0  0  0  0  0
  138.7400   70.4740  223.0880 C   0  0  0  0  0  0  0  0  0  0  0  0
  139.0710   69.2620  223.8100 C   0  0  0  0  0  0  0  0  0  0  0  0
  139.5910   69.0560  225.0680 C   0  0  0  0  0  0  0  0  0  0  0  0
  139.9920   69.9790  226.1050 C   0  0  0  0  0  0  0  0  0  0  0  0
  139.6820   69.9530  227.4140 C   0  0  0  0  0  0  0  0  0  0  0  0
  140.1610   70.8820  228.3310 C   0  0  0  0  0  0  0  0  0  0  0  0
  140.9990   71.8990  227.9080 C   0  0  0  0  0  0  0  0  0  0  0  0
  141.3320   71.9490  226.5700 C   0  0  0  0  0  0  0  0  0  0  0  0
  140.8470   71.0200  225.6840 C   0  0  0  0  0  0  0  0  0  0  0  0
  139.6510   67.6990  225.2930 N   0  0  0  0  0  0  0  0  0  0  0  0
  139.1990   67.0870  224.2480 O   0  0  0  0  0  0  0  0  0  0  0  0
  138.8380   67.9630  223.3310 C   0  0  0  0  0  0  0  0  0  0  0  0
  138.2780   67.5360  222.0250 C   0  0  0  0  0  0  0  0  0  0  0  0
  141.4760   71.8370  219.9310 C   0  0  0  0  0  0  0  0  0  0  0  0
  141.8550   72.7210  218.7620 C   0  0  0  0  0  0  0  0  0  0  0  0
  144.4577   70.4889  220.6154 H   0  0  0  0  0  0  0  0  0  0  0  0
  143.1037   69.7098  219.7287 H   0  0  0  0  0  0  0  0  0  0  0  0
  144.7318   68.9510  219.7287 H   0  0  0  0  0  0  0  0  0  0  0  0
  145.3841   70.1752  217.9786 H   0  0  0  0  0  0  0  0  0  0  0  0
  143.6508   70.7321  217.8491 H   0  0  0  0  0  0  0  0  0  0  0  0
  146.6157   72.8713  217.0945 H   0  0  0  0  0  0  0  0  0  0  0  0
  147.4931   74.2052  215.2222 H   0  0  0  0  0  0  0  0  0  0  0  0
  146.1693   76.1189  214.2918 H   0  0  0  0  0  0  0  0  0  0  0  0
  143.9606   76.6088  215.3213 H   0  0  0  0  0  0  0  0  0  0  0  0
  143.0862   75.2637  217.1985 H   0  0  0  0  0  0  0  0  0  0  0  0
  142.7145   74.6059  218.5654 H   0  0  0  0  0  0  0  0  0  0  0  0
  143.7583   72.9876  220.8994 H   0  0  0  0  0  0  0  0  0  0  0  0
  143.7644   74.7665  220.6615 H   0  0  0  0  0  0  0  0  0  0  0  0
  141.9941   74.2134  222.2272 H   0  0  0  0  0  0  0  0  0  0  0  0
  141.2396   74.6980  220.6666 H   0  0  0  0  0  0  0  0  0  0  0  0
  138.9836   70.9491  221.0426 H   0  0  0  0  0  0  0  0  0  0  0  0
  140.4222   70.1720  221.8866 H   0  0  0  0  0  0  0  0  0  0  0  0
  138.7397   71.2941  223.8211 H   0  0  0  0  0  0  0  0  0  0  0  0
  137.7789   70.2369  222.6084 H   0  0  0  0  0  0  0  0  0  0  0  0
  139.0159   69.1565  227.7771 H   0  0  0  0  0  0  0  0  0  0  0  0
  139.8745   70.8088  229.3905 H   0  0  0  0  0  0  0  0  0  0  0  0
  141.3877   72.6448  228.6170 H   0  0  0  0  0  0  0  0  0  0  0  0
  141.9972   72.7466  226.2075 H   0  0  0  0  0  0  0  0  0  0  0  0
  141.1306   71.0881  224.6234 H   0  0  0  0  0  0  0  0  0  0  0  0
  137.4137   66.8770  222.1945 H   0  0  0  0  0  0  0  0  0  0  0  0
  137.9580   68.4214  221.4561 H   0  0  0  0  0  0  0  0  0  0  0  0
  139.0471   66.9930  221.4561 H   0  0  0  0  0  0  0  0  0  0  0  0
  142.3191   71.1715  220.1681 H   0  0  0  0  0  0  0  0  0  0  0  0
  140.5891   71.2479  219.6546 H   0  0  0  0  0  0  0  0  0  0  0  0
  142.1256   72.0719  217.9161 H   0  0  0  0  0  0  0  0  0  0  0  0
  140.9808   73.3573  218.5595 H   0  0  0  0  0  0  0  0  0  0  0  0
  1  2  1  0
  2  3  1  0
  3  4  2  0
  3  5  1  0
  5  6  1  0
  6  7  2  0
  7  8  1  0
  8  9  2  0
  9 10  1  0
 10 11  2  0
  5 12  1  0
 12 13  1  0
 13 14  1  0
 14 15  1  0
 15 16  1  0
 16 17  2  0
 16 18  1  0
 18 19  1  0
 19 20  1  0
 20 21  1  0
 21 22  1  0
 22 23  2  0
 23 24  1  0
 24 25  2  0
 25 26  1  0
 26 27  2  0
 21 28  2  0
 28 29  1  0
 29 30  1  0
 30 31  1  0
 15 32  1  0
 32 33  1  0
 11  6  1  0
 33 12  1  0
 30 20  2  0
 27 22  1  0
  1 34  1  0
  1 35  1  0
  1 36  1  0
  2 37  1  0
  2 38  1  0
  7 39  1  0
  8 40  1  0
  9 41  1  0
 10 42  1  0
 11 43  1  0
 12 44  1  0
 13 45  1  0
 13 46  1  0
 14 47  1  0
 14 48  1  0
 18 49  1  0
 18 50  1  0
 19 51  1  0
 19 52  1  0
 23 53  1  0
 24 54  1  0
 25 55  1  0
 26 56  1  0
 27 57  1  0
 31 58  1  0
 31 59  1  0
 31 60  1  0
 32 61  1  0
 32 62  1  0
 33 63  1  0
 33 64  1  0
M  END
>  <smiles>  (31) 
CCC(=O)N(c1ccccc1)C1CCN(C(=O)CCc2c(-c3ccccc3)noc2C)CC1

>  <score_type>  (31) 
oracle

>  <origin>  (31) 
autodockgpu

>  <m_score__min__energy>  (31) 
-9.5199999999999996

>  <m_primary>  (31) 
energy

>  <rmsd>  (31) 
8.39186229373683

>  <m_score__min__rmsd>  (31) 
8.39186229373683

>  <meeko>  (31) 
{"free_energy": -8.48, "intermolecular_energy": -10.87, "internal_energy": -2.01, "cluster_size": 3, "cluster_id": 2, "rank_in_cluster": 3}

>  <energy>  (31) 
-8.11

>  <cluster_rmsd>  (31) 
0.0

>  <cluster>  (31) 
8

$$$$

     RDKit          3D

 64 67  0  0  0  0  0  0  0  0999 V2000
  146.3280   73.0390  221.9060 C   0  0  0  0  0  0  0  0  0  0  0  0
  146.0400   74.0360  220.8070 C   0  0  0  0  0  0  0  0  0  0  0  0
  145.1920   73.4980  219.7490 C   0  0  0  0  0  0  0  0  0  0  0  0
  145.6730   72.6290  218.9550 O   0  0  0  0  0  0  0  0  0  0  0  0
  143.8370   73.8610  219.5070 N   0  0  0  0  0  0  0  0  0  0  0  0
  142.8440   73.0070  220.0610 C   0  0  0  0  0  0  0  0  0  0  0  0
  142.0270   73.3450  221.1070 C   0  0  0  0  0  0  0  0  0  0  0  0
  141.0730   72.4740  221.6140 C   0  0  0  0  0  0  0  0  0  0  0  0
  140.9080   71.2100  221.0740 C   0  0  0  0  0  0  0  0  0  0  0  0
  141.7320   70.8730  220.0220 C   0  0  0  0  0  0  0  0  0  0  0  0
  142.6880   71.7500  219.5150 C   0  0  0  0  0  0  0  0  0  0  0  0
  143.4790   75.0680  218.7430 C   0  0  0  0  0  0  0  0  0  0  0  0
  143.6370   76.3000  219.5800 C   0  0  0  0  0  0  0  0  0  0  0  0
  142.9570   77.4630  218.8890 C   0  0  0  0  0  0  0  0  0  0  0  0
  141.5000   77.2550  218.8720 N   0  0  0  0  0  0  0  0  0  0  0  0
  140.5860   78.3480  218.8960 C   0  0  0  0  0  0  0  0  0  0  0  0
  141.0920   79.4930  218.9380 O   0  0  0  0  0  0  0  0  0  0  0  0
  139.1540   78.0340  218.8690 C   0  0  0  0  0  0  0  0  0  0  0  0
  138.5510   77.7030  220.1980 C   0  0  0  0  0  0  0  0  0  0  0  0
  139.2900   76.8720  221.1260 C   0  0  0  0  0  0  0  0  0  0  0  0
  140.2750   77.1690  222.0410 C   0  0  0  0  0  0  0  0  0  0  0  0
  140.9160   78.4150  222.3920 C   0  0  0  0  0  0  0  0  0  0  0  0
  142.1460   78.8470  222.0590 C   0  0  0  0  0  0  0  0  0  0  0  0
  142.6440   80.0900  222.4280 C   0  0  0  0  0  0  0  0  0  0  0  0
  141.8640   80.9520  223.1790 C   0  0  0  0  0  0  0  0  0  0  0  0
  140.5980   80.5330  223.5360 C   0  0  0  0  0  0  0  0  0  0  0  0
  140.1270   79.3000  223.1590 C   0  0  0  0  0  0  0  0  0  0  0  0
  140.5950   76.0140  222.7190 N   0  0  0  0  0  0  0  0  0  0  0  0
  139.8630   75.0510  222.2640 O   0  0  0  0  0  0  0  0  0  0  0  0
  139.0660   75.4980  221.3140 C   0  0  0  0  0  0  0  0  0  0  0  0
  138.1110   74.6030  220.6150 C   0  0  0  0  0  0  0  0  0  0  0  0
  141.0800   75.8640  218.8320 C   0  0  0  0  0  0  0  0  0  0  0  0
  142.1210   75.0080  218.1410 C   0  0  0  0  0  0  0  0  0  0  0  0
  146.1886   73.5216  222.8846 H   0  0  0  0  0  0  0  0  0  0  0  0
  145.6396   72.1857  221.8166 H   0  0  0  0  0  0  0  0  0  0  0  0
  147.3654   72.6842  221.8166 H   0  0  0  0  0  0  0  0  0  0  0  0
  145.5358   74.9078  221.2495 H   0  0  0  0  0  0  0  0  0  0  0  0
  147.0034   74.3037  220.3486 H   0  0  0  0  0  0  0  0  0  0  0  0
  142.1306   74.3416  221.5610 H   0  0  0  0  0  0  0  0  0  0  0  0
  140.4399   72.7919  222.4555 H   0  0  0  0  0  0  0  0  0  0  0  0
  140.1561   70.5090  221.4654 H   0  0  0  0  0  0  0  0  0  0  0  0
  141.6312   69.8767  219.5668 H   0  0  0  0  0  0  0  0  0  0  0  0
  143.3233   71.4378  218.6730 H   0  0  0  0  0  0  0  0  0  0  0  0
  144.1857   75.1148  217.9014 H   0  0  0  0  0  0  0  0  0  0  0  0
  143.1757   76.1369  220.5652 H   0  0  0  0  0  0  0  0  0  0  0  0
  144.7062   76.5225  219.7113 H   0  0  0  0  0  0  0  0  0  0  0  0
  143.1861   78.3929  219.4301 H   0  0  0  0  0  0  0  0  0  0  0  0
  143.3242   77.5337  217.8545 H   0  0  0  0  0  0  0  0  0  0  0  0
  138.6217   78.9059  218.4610 H   0  0  0  0  0  0  0  0  0  0  0  0
  139.0506   77.1292  218.2521 H   0  0  0  0  0  0  0  0  0  0  0  0
  138.3556   78.6578  220.7081 H   0  0  0  0  0  0  0  0  0  0  0  0
  137.6752   77.0893  219.9404 H   0  0  0  0  0  0  0  0  0  0  0  0
  142.7898   78.1821  221.4644 H   0  0  0  0  0  0  0  0  0  0  0  0
  143.6578   80.3891  222.1235 H   0  0  0  0  0  0  0  0  0  0  0  0
  142.2410   81.9400  223.4819 H   0  0  0  0  0  0  0  0  0  0  0  0
  139.9561   81.1981  224.1324 H   0  0  0  0  0  0  0  0  0  0  0  0
  139.1141   78.9951  223.4606 H   0  0  0  0  0  0  0  0  0  0  0  0
  137.5185   74.0477  221.3571 H   0  0  0  0  0  0  0  0  0  0  0  0
  137.4391   75.2042  219.9849 H   0  0  0  0  0  0  0  0  0  0  0  0
  138.6674   73.8935  219.9849 H   0  0  0  0  0  0  0  0  0  0  0  0
  140.9387   75.5002  219.8604 H   0  0  0  0  0  0  0  0  0  0  0  0
  140.1373   75.7962  218.2691 H   0  0  0  0  0  0  0  0  0  0  0  0
  141.7793   73.9629  218.1715 H   0  0  0  0  0  0  0  0  0  0  0  0
  142.2181   75.4040  217.1194 H   0  0  0  0  0  0  0  0  0  0  0  0
  1  2  1  0
  2  3  1  0
  3  4  2  0
  3  5  1  0
  5  6  1  0
  6  7  2  0
  7  8  1  0
  8  9  2  0
  9 10  1  0
 10 11  2  0
  5 12  1  0
 12 13  1  0
 13 14  1  0
 14 15  1  0
 15 16  1  0
 16 17  2  0
 16 18  1  0
 18 19  1  0
 19 20  1  0
 20 21  1  0
 21 22  1  0
 22 23  2  0
 23 24  1  0
 24 25  2  0
 25 26  1  0
 26 27  2  0
 21 28  2  0
 28 29  1  0
 29 30  1  0
 30 31  1  0
 15 32  1  0
 32 33  1  0
 11  6  1  0
 33 12  1  0
 30 20  2  0
 27 22  1  0
  1 34  1  0
  1 35  1  0
  1 36  1  0
  2 37  1  0
  2 38  1  0
  7 39  1  0
  8 40  1  0
  9 41  1  0
 10 42  1  0
 11 43  1  0
 12 44  1  0
 13 45  1  0
 13 46  1  0
 14 47  1  0
 14 48  1  0
 18 49  1  0
 18 50  1  0
 19 51  1  0
 19 52  1  0
 23 53  1  0
 24 54  1  0
 25 55  1  0
 26 56  1  0
 27 57  1  0
 31 58  1  0
 31 59  1  0
 31 60  1  0
 32 61  1  0
 32 62  1  0
 33 63  1  0
 33 64  1  0
M  END
>  <smiles>  (32) 
CCC(=O)N(c1ccccc1)C1CCN(C(=O)CCc2c(-c3ccccc3)noc2C)CC1

>  <score_type>  (32) 
oracle

>  <origin>  (32) 
autodockgpu

>  <m_score__min__energy>  (32) 
-9.5199999999999996

>  <m_primary>  (32) 
energy

>  <rmsd>  (32) 
5.040319476161916

>  <m_score__min__rmsd>  (32) 
5.040319476161916

>  <meeko>  (32) 
{"free_energy": -7.05, "intermolecular_energy": -9.44, "internal_energy": -3.57, "cluster_size": 10, "cluster_id": 12, "rank_in_cluster": 4}

>  <energy>  (32) 
-8.09

>  <cluster_rmsd>  (32) 
0.0

>  <cluster>  (32) 
9

$$$$

     RDKit          3D

 64 67  0  0  0  0  0  0  0  0999 V2000
  137.4420   66.8000  221.9390 C   0  0  0  0  0  0  0  0  0  0  0  0
  138.8180   67.2850  222.3340 C   0  0  0  0  0  0  0  0  0  0  0  0
  138.8550   67.8980  223.6560 C   0  0  0  0  0  0  0  0  0  0  0  0
  139.2360   67.2010  224.6490 O   0  0  0  0  0  0  0  0  0  0  0  0
  138.4970   69.2430  223.9570 N   0  0  0  0  0  0  0  0  0  0  0  0
  139.2200   69.8720  225.0070 C   0  0  0  0  0  0  0  0  0  0  0  0
  140.1230   70.8860  224.8270 C   0  0  0  0  0  0  0  0  0  0  0  0
  140.8060   71.4660  225.8860 C   0  0  0  0  0  0  0  0  0  0  0  0
  140.5980   71.0370  227.1860 C   0  0  0  0  0  0  0  0  0  0  0  0
  139.6890   70.0160  227.3630 C   0  0  0  0  0  0  0  0  0  0  0  0
  139.0050   69.4360  226.2980 C   0  0  0  0  0  0  0  0  0  0  0  0
  137.4480   69.9540  223.2070 C   0  0  0  0  0  0  0  0  0  0  0  0
  138.0420   70.9810  222.2930 C   0  0  0  0  0  0  0  0  0  0  0  0
  136.9460   71.9020  221.7990 C   0  0  0  0  0  0  0  0  0  0  0  0
  136.4260   72.7090  222.9140 N   0  0  0  0  0  0  0  0  0  0  0  0
  135.9080   74.0210  222.7140 C   0  0  0  0  0  0  0  0  0  0  0  0
  135.9240   74.4490  221.5370 O   0  0  0  0  0  0  0  0  0  0  0  0
  135.4070   74.7390  223.8900 C   0  0  0  0  0  0  0  0  0  0  0  0
  133.9390   74.5970  224.1440 C   0  0  0  0  0  0  0  0  0  0  0  0
  133.4690   74.3930  225.4990 C   0  0  0  0  0  0  0  0  0  0  0  0
  133.2370   73.2470  226.2270 C   0  0  0  0  0  0  0  0  0  0  0  0
  133.3800   71.8490  225.8910 C   0  0  0  0  0  0  0  0  0  0  0  0
  132.9560   71.2060  224.7880 C   0  0  0  0  0  0  0  0  0  0  0  0
  133.1850   69.8550  224.5570 C   0  0  0  0  0  0  0  0  0  0  0  0
  133.8800   69.1040  225.4890 C   0  0  0  0  0  0  0  0  0  0  0  0
  134.3250   69.7390  226.6300 C   0  0  0  0  0  0  0  0  0  0  0  0
  134.0870   71.0750  226.8360 C   0  0  0  0  0  0  0  0  0  0  0  0
  132.8540   73.6140  227.4980 N   0  0  0  0  0  0  0  0  0  0  0  0
  132.8440   74.9050  227.5700 O   0  0  0  0  0  0  0  0  0  0  0  0
  133.2000   75.4260  226.4120 C   0  0  0  0  0  0  0  0  0  0  0  0
  133.2780   76.8940  226.2100 C   0  0  0  0  0  0  0  0  0  0  0  0
  136.4890   72.0650  224.2170 C   0  0  0  0  0  0  0  0  0  0  0  0
  136.4050   70.5600  224.0770 C   0  0  0  0  0  0  0  0  0  0  0  0
  136.8526   66.5923  222.8442 H   0  0  0  0  0  0  0  0  0  0  0  0
  136.9374   67.5745  221.3426 H   0  0  0  0  0  0  0  0  0  0  0  0
  137.5346   65.8803  221.3426 H   0  0  0  0  0  0  0  0  0  0  0  0
  139.5060   66.4268  222.3276 H   0  0  0  0  0  0  0  0  0  0  0  0
  139.1124   68.0572  221.6081 H   0  0  0  0  0  0  0  0  0  0  0  0
  140.3132   71.2531  223.8076 H   0  0  0  0  0  0  0  0  0  0  0  0
  141.5224   72.2775  225.6904 H   0  0  0  0  0  0  0  0  0  0  0  0
  141.1317   71.4885  228.0353 H   0  0  0  0  0  0  0  0  0  0  0  0
  139.4973   69.6466  228.3812 H   0  0  0  0  0  0  0  0  0  0  0  0
  138.2877   68.6239  226.4875 H   0  0  0  0  0  0  0  0  0  0  0  0
  136.9379   69.1904  222.6015 H   0  0  0  0  0  0  0  0  0  0  0  0
  138.7965   71.5667  222.8387 H   0  0  0  0  0  0  0  0  0  0  0  0
  138.5189   70.4817  221.4367 H   0  0  0  0  0  0  0  0  0  0  0  0
  137.3525   72.5694  221.0249 H   0  0  0  0  0  0  0  0  0  0  0  0
  136.1286   71.2975  221.3789 H   0  0  0  0  0  0  0  0  0  0  0  0
  135.9435   74.3621  224.7733 H   0  0  0  0  0  0  0  0  0  0  0  0
  135.5815   75.8071  223.6935 H   0  0  0  0  0  0  0  0  0  0  0  0
  133.4592   75.5147  223.7730 H   0  0  0  0  0  0  0  0  0  0  0  0
  133.6767   73.6584  223.6339 H   0  0  0  0  0  0  0  0  0  0  0  0
  132.4001   71.7785  224.0309 H   0  0  0  0  0  0  0  0  0  0  0  0
  132.8145   69.3832  223.6350 H   0  0  0  0  0  0  0  0  0  0  0  0
  134.0717   68.0333  225.3249 H   0  0  0  0  0  0  0  0  0  0  0  0
  134.8796   69.1653  227.3871 H   0  0  0  0  0  0  0  0  0  0  0  0
  134.4548   71.5522  227.7564 H   0  0  0  0  0  0  0  0  0  0  0  0
  133.3048   77.3977  227.1875 H   0  0  0  0  0  0  0  0  0  0  0  0
  134.1904   77.1386  225.6464 H   0  0  0  0  0  0  0  0  0  0  0  0
  132.3966   77.2339  225.6464 H   0  0  0  0  0  0  0  0  0  0  0  0
  137.4390   72.3295  224.7045 H   0  0  0  0  0  0  0  0  0  0  0  0
  135.6386   72.4109  224.8229 H   0  0  0  0  0  0  0  0  0  0  0  0
  136.4970   70.1176  225.0799 H   0  0  0  0  0  0  0  0  0  0  0  0
  135.4392   70.3479  223.5951 H   0  0  0  0  0  0  0  0  0  0  0  0
  1  2  1  0
  2  3  1  0
  3  4  2  0
  3  5  1  0
  5  6  1  0
  6  7  2  0
  7  8  1  0
  8  9  2  0
  9 10  1  0
 10 11  2  0
  5 12  1  0
 12 13  1  0
 13 14  1  0
 14 15  1  0
 15 16  1  0
 16 17  2  0
 16 18  1  0
 18 19  1  0
 19 20  1  0
 20 21  1  0
 21 22  1  0
 22 23  2  0
 23 24  1  0
 24 25  2  0
 25 26  1  0
 26 27  2  0
 21 28  2  0
 28 29  1  0
 29 30  1  0
 30 31  1  0
 15 32  1  0
 32 33  1  0
 11  6  1  0
 33 12  1  0
 30 20  2  0
 27 22  1  0
  1 34  1  0
  1 35  1  0
  1 36  1  0
  2 37  1  0
  2 38  1  0
  7 39  1  0
  8 40  1  0
  9 41  1  0
 10 42  1  0
 11 43  1  0
 12 44  1  0
 13 45  1  0
 13 46  1  0
 14 47  1  0
 14 48  1  0
 18 49  1  0
 18 50  1  0
 19 51  1  0
 19 52  1  0
 23 53  1  0
 24 54  1  0
 25 55  1  0
 26 56  1  0
 27 57  1  0
 31 58  1  0
 31 59  1  0
 31 60  1  0
 32 61  1  0
 32 62  1  0
 33 63  1  0
 33 64  1  0
M  END
>  <smiles>  (33) 
CCC(=O)N(c1ccccc1)C1CCN(C(=O)CCc2c(-c3ccccc3)noc2C)CC1

>  <score_type>  (33) 
oracle

>  <origin>  (33) 
autodockgpu

>  <m_score__min__energy>  (33) 
-9.5199999999999996

>  <m_primary>  (33) 
energy

>  <rmsd>  (33) 
10.171780526309805

>  <m_score__min__rmsd>  (33) 
10.171780526309805

>  <meeko>  (33) 
{"free_energy": -7.26, "intermolecular_energy": -9.64, "internal_energy": -2.81, "cluster_size": 4, "cluster_id": 4, "rank_in_cluster": 4}

>  <energy>  (33) 
-7.79

>  <cluster_rmsd>  (33) 
1.64

>  <cluster>  (33) 
9

$$$$

     RDKit          3D

 64 67  0  0  0  0  0  0  0  0999 V2000
  140.6940   79.3640  223.6310 C   0  0  0  0  0  0  0  0  0  0  0  0
  141.3980   78.1660  223.0360 C   0  0  0  0  0  0  0  0  0  0  0  0
  140.5710   77.4200  222.0950 C   0  0  0  0  0  0  0  0  0  0  0  0
  139.3960   77.0790  222.4410 O   0  0  0  0  0  0  0  0  0  0  0  0
  140.9590   77.0220  220.7840 N   0  0  0  0  0  0  0  0  0  0  0  0
  141.5020   78.0360  219.9490 C   0  0  0  0  0  0  0  0  0  0  0  0
  142.3580   77.8050  218.9050 C   0  0  0  0  0  0  0  0  0  0  0  0
  142.8630   78.8310  218.1190 C   0  0  0  0  0  0  0  0  0  0  0  0
  142.5140   80.1490  218.3630 C   0  0  0  0  0  0  0  0  0  0  0  0
  141.6520   80.3780  219.4130 C   0  0  0  0  0  0  0  0  0  0  0  0
  141.1480   79.3450  220.2000 C   0  0  0  0  0  0  0  0  0  0  0  0
  140.8270   75.6300  220.3230 C   0  0  0  0  0  0  0  0  0  0  0  0
  139.4720   75.3830  219.7360 C   0  0  0  0  0  0  0  0  0  0  0  0
  139.2570   73.8920  219.5840 C   0  0  0  0  0  0  0  0  0  0  0  0
  139.1670   73.2590  220.9090 N   0  0  0  0  0  0  0  0  0  0  0  0
  138.3810   72.0920  221.1320 C   0  0  0  0  0  0  0  0  0  0  0  0
  137.7690   71.6390  220.1380 O   0  0  0  0  0  0  0  0  0  0  0  0
  138.3630   71.5350  222.4880 C   0  0  0  0  0  0  0  0  0  0  0  0
  139.5640   70.7220  222.8570 C   0  0  0  0  0  0  0  0  0  0  0  0
  139.3910   69.5150  223.6400 C   0  0  0  0  0  0  0  0  0  0  0  0
  139.5630   69.2590  224.9820 C   0  0  0  0  0  0  0  0  0  0  0  0
  139.9790   70.1050  226.0760 C   0  0  0  0  0  0  0  0  0  0  0  0
  139.6420   70.0190  227.3760 C   0  0  0  0  0  0  0  0  0  0  0  0
  140.1380   70.8760  228.3520 C   0  0  0  0  0  0  0  0  0  0  0  0
  141.0230   71.8800  228.0020 C   0  0  0  0  0  0  0  0  0  0  0  0
  141.3850   71.9910  226.6750 C   0  0  0  0  0  0  0  0  0  0  0  0
  140.8820   71.1330  225.7290 C   0  0  0  0  0  0  0  0  0  0  0  0
  139.1990   67.9520  225.2220 N   0  0  0  0  0  0  0  0  0  0  0  0
  138.8220   67.4170  224.1070 O   0  0  0  0  0  0  0  0  0  0  0  0
  138.9140   68.2960  223.1290 C   0  0  0  0  0  0  0  0  0  0  0  0
  138.5410   67.9510  221.7350 C   0  0  0  0  0  0  0  0  0  0  0  0
  139.9320   73.9180  221.9560 C   0  0  0  0  0  0  0  0  0  0  0  0
  141.1380   74.6250  221.3750 C   0  0  0  0  0  0  0  0  0  0  0  0
  140.7301   79.3026  224.7287 H   0  0  0  0  0  0  0  0  0  0  0  0
  141.1942   80.2856  223.2986 H   0  0  0  0  0  0  0  0  0  0  0  0
  139.6455   79.3755  223.2986 H   0  0  0  0  0  0  0  0  0  0  0  0
  142.2978   78.5160  222.5088 H   0  0  0  0  0  0  0  0  0  0  0  0
  141.6419   77.4861  223.8656 H   0  0  0  0  0  0  0  0  0  0  0  0
  142.6556   76.7698  218.6818 H   0  0  0  0  0  0  0  0  0  0  0  0
  143.5488   78.5947  217.2921 H   0  0  0  0  0  0  0  0  0  0  0  0
  142.9060   80.9727  217.7484 H   0  0  0  0  0  0  0  0  0  0  0  0
  141.3514   81.4120  219.6376 H   0  0  0  0  0  0  0  0  0  0  0  0
  140.4620   79.5753  221.0285 H   0  0  0  0  0  0  0  0  0  0  0  0
  141.5855   75.4987  219.5372 H   0  0  0  0  0  0  0  0  0  0  0  0
  138.7016   75.7994  220.4017 H   0  0  0  0  0  0  0  0  0  0  0  0
  139.4031   75.8676  218.7509 H   0  0  0  0  0  0  0  0  0  0  0  0
  138.3233   73.7131  219.0307 H   0  0  0  0  0  0  0  0  0  0  0  0
  140.1055   73.4590  219.0339 H   0  0  0  0  0  0  0  0  0  0  0  0
  138.2862   72.3711  223.1987 H   0  0  0  0  0  0  0  0  0  0  0  0
  137.5050   70.8477  222.5252 H   0  0  0  0  0  0  0  0  0  0  0  0
  140.0528   70.4270  221.9168 H   0  0  0  0  0  0  0  0  0  0  0  0
  140.1324   71.3860  223.5248 H   0  0  0  0  0  0  0  0  0  0  0  0
  138.9384   69.2307  227.6820 H   0  0  0  0  0  0  0  0  0  0  0  0
  139.8273   70.7559  229.4004 H   0  0  0  0  0  0  0  0  0  0  0  0
  141.4260   72.5691  228.7587 H   0  0  0  0  0  0  0  0  0  0  0  0
  142.0882   72.7801  226.3703 H   0  0  0  0  0  0  0  0  0  0  0  0
  141.1889   71.2489  224.6790 H   0  0  0  0  0  0  0  0  0  0  0  0
  137.7335   67.2041  221.7457 H   0  0  0  0  0  0  0  0  0  0  0  0
  138.1966   68.8559  221.2129 H   0  0  0  0  0  0  0  0  0  0  0  0
  139.4163   67.5372  221.2129 H   0  0  0  0  0  0  0  0  0  0  0  0
  139.2909   74.6548  222.4620 H   0  0  0  0  0  0  0  0  0  0  0  0
  140.2790   73.1579  222.6714 H   0  0  0  0  0  0  0  0  0  0  0  0
  141.6609   75.1390  222.1950 H   0  0  0  0  0  0  0  0  0  0  0  0
  141.7475   73.8483  220.8899 H   0  0  0  0  0  0  0  0  0  0  0  0
  1  2  1  0
  2  3  1  0
  3  4  2  0
  3  5  1  0
  5  6  1  0
  6  7  2  0
  7  8  1  0
  8  9  2  0
  9 10  1  0
 10 11  2  0
  5 12  1  0
 12 13  1  0
 13 14  1  0
 14 15  1  0
 15 16  1  0
 16 17  2  0
 16 18  1  0
 18 19  1  0
 19 20  1  0
 20 21  1  0
 21 22  1  0
 22 23  2  0
 23 24  1  0
 24 25  2  0
 25 26  1  0
 26 27  2  0
 21 28  2  0
 28 29  1  0
 29 30  1  0
 30 31  1  0
 15 32  1  0
 32 33  1  0
 11  6  1  0
 33 12  1  0
 30 20  2  0
 27 22  1  0
  1 34  1  0
  1 35  1  0
  1 36  1  0
  2 37  1  0
  2 38  1  0
  7 39  1  0
  8 40  1  0
  9 41  1  0
 10 42  1  0
 11 43  1  0
 12 44  1  0
 13 45  1  0
 13 46  1  0
 14 47  1  0
 14 48  1  0
 18 49  1  0
 18 50  1  0
 19 51  1  0
 19 52  1  0
 23 53  1  0
 24 54  1  0
 25 55  1  0
 26 56  1  0
 27 57  1  0
 31 58  1  0
 31 59  1  0
 31 60  1  0
 32 61  1  0
 32 62  1  0
 33 63  1  0
 33 64  1  0
M  END
>  <smiles>  (34) 
CCC(=O)N(c1ccccc1)C1CCN(C(=O)CCc2c(-c3ccccc3)noc2C)CC1

>  <score_type>  (34) 
oracle

>  <origin>  (34) 
autodockgpu

>  <m_score__min__energy>  (34) 
-9.5199999999999996

>  <m_primary>  (34) 
energy

>  <rmsd>  (34) 
7.475274542594213

>  <m_score__min__rmsd>  (34) 
7.475274542594213

>  <meeko>  (34) 
{"free_energy": -8.36, "intermolecular_energy": -10.75, "internal_energy": -1.78, "cluster_size": 14, "cluster_id": 3, "rank_in_cluster": 12}

>  <energy>  (34) 
-8.02

>  <cluster_rmsd>  (34) 
0.0

>  <cluster>  (34) 
10

$$$$

     RDKit          3D

 64 67  0  0  0  0  0  0  0  0999 V2000
  137.9980   82.5000  221.7850 C   0  0  0  0  0  0  0  0  0  0  0  0
  138.7540   83.3200  220.7650 C   0  0  0  0  0  0  0  0  0  0  0  0
  140.1660   82.9650  220.6720 C   0  0  0  0  0  0  0  0  0  0  0  0
  141.0310   83.8930  220.5910 O   0  0  0  0  0  0  0  0  0  0  0  0
  140.6900   81.6410  220.6610 N   0  0  0  0  0  0  0  0  0  0  0  0
  141.4650   81.2580  221.7880 C   0  0  0  0  0  0  0  0  0  0  0  0
  142.6030   80.4980  221.7240 C   0  0  0  0  0  0  0  0  0  0  0  0
  143.3250   80.1470  222.8560 C   0  0  0  0  0  0  0  0  0  0  0  0
  142.9170   80.5590  224.1140 C   0  0  0  0  0  0  0  0  0  0  0  0
  141.7720   81.3230  224.1750 C   0  0  0  0  0  0  0  0  0  0  0  0
  141.0490   81.6730  223.0360 C   0  0  0  0  0  0  0  0  0  0  0  0
  140.4250   80.7100  219.5510 C   0  0  0  0  0  0  0  0  0  0  0  0
  139.4550   79.6450  219.9620 C   0  0  0  0  0  0  0  0  0  0  0  0
  139.4640   78.5370  218.9300 C   0  0  0  0  0  0  0  0  0  0  0  0
  140.7580   77.8380  218.9540 N   0  0  0  0  0  0  0  0  0  0  0  0
  140.8710   76.4570  218.6190 C   0  0  0  0  0  0  0  0  0  0  0  0
  139.8070   75.8740  218.3090 O   0  0  0  0  0  0  0  0  0  0  0  0
  142.2070   75.8550  218.6670 C   0  0  0  0  0  0  0  0  0  0  0  0
  142.6840   75.4740  220.0340 C   0  0  0  0  0  0  0  0  0  0  0  0
  141.8520   74.6280  220.8650 C   0  0  0  0  0  0  0  0  0  0  0  0
  140.8130   74.9190  221.7220 C   0  0  0  0  0  0  0  0  0  0  0  0
  140.1930   76.1700  222.0910 C   0  0  0  0  0  0  0  0  0  0  0  0
  138.8990   76.5240  221.9920 C   0  0  0  0  0  0  0  0  0  0  0  0
  138.4100   77.7540  222.4170 C   0  0  0  0  0  0  0  0  0  0  0  0
  139.2700   78.6850  222.9730 C   0  0  0  0  0  0  0  0  0  0  0  0
  140.6040   78.3470  223.0840 C   0  0  0  0  0  0  0  0  0  0  0  0
  141.0630   77.1260  222.6580 C   0  0  0  0  0  0  0  0  0  0  0  0
  140.3210   73.7330  222.2190 N   0  0  0  0  0  0  0  0  0  0  0  0
  141.0010   72.7570  221.7130 O   0  0  0  0  0  0  0  0  0  0  0  0
  141.9270   73.2260  220.8990 C   0  0  0  0  0  0  0  0  0  0  0  0
  142.8550   72.3230  220.1750 C   0  0  0  0  0  0  0  0  0  0  0  0
  141.8920   78.6600  219.3450 C   0  0  0  0  0  0  0  0  0  0  0  0
  141.6570   80.1090  218.9750 C   0  0  0  0  0  0  0  0  0  0  0  0
  138.2890   82.8157  222.7978 H   0  0  0  0  0  0  0  0  0  0  0  0
  136.9171   82.6526  221.6498 H   0  0  0  0  0  0  0  0  0  0  0  0
  138.2377   81.4350  221.6498 H   0  0  0  0  0  0  0  0  0  0  0  0
  138.2896   83.1663  219.7797 H   0  0  0  0  0  0  0  0  0  0  0  0
  138.7024   84.3703  221.0879 H   0  0  0  0  0  0  0  0  0  0  0  0
  142.9569   80.1539  220.7409 H   0  0  0  0  0  0  0  0  0  0  0  0
  144.2325   79.5340  222.7530 H   0  0  0  0  0  0  0  0  0  0  0  0
  143.4796   80.2894  225.0200 H   0  0  0  0  0  0  0  0  0  0  0  0
  141.4161   81.6687  225.1568 H   0  0  0  0  0  0  0  0  0  0  0  0
  140.1399   82.2847  223.1330 H   0  0  0  0  0  0  0  0  0  0  0  0
  139.9737   81.3139  218.7500 H   0  0  0  0  0  0  0  0  0  0  0  0
  139.7485   79.2382  220.9409 H   0  0  0  0  0  0  0  0  0  0  0  0
  138.4446   80.0739  220.0344 H   0  0  0  0  0  0  0  0  0  0  0  0
  138.6594   77.8219  219.1562 H   0  0  0  0  0  0  0  0  0  0  0  0
  139.3068   78.9718  217.9319 H   0  0  0  0  0  0  0  0  0  0  0  0
  142.1942   74.9475  218.0455 H   0  0  0  0  0  0  0  0  0  0  0  0
  142.9030   76.6255  218.3038 H   0  0  0  0  0  0  0  0  0  0  0  0
  143.6440   74.9527  219.9051 H   0  0  0  0  0  0  0  0  0  0  0  0
  142.7080   76.4301  220.5774 H   0  0  0  0  0  0  0  0  0  0  0  0
  138.1925   75.8043  221.5528 H   0  0  0  0  0  0  0  0  0  0  0  0
  137.3402   77.9872  222.3115 H   0  0  0  0  0  0  0  0  0  0  0  0
  138.9023   79.6634  223.3157 H   0  0  0  0  0  0  0  0  0  0  0  0
  141.3104   79.0682  223.5210 H   0  0  0  0  0  0  0  0  0  0  0  0
  142.1318   76.8871  222.7606 H   0  0  0  0  0  0  0  0  0  0  0  0
  143.4471   71.7468  220.9013 H   0  0  0  0  0  0  0  0  0  0  0  0
  142.2766   71.6326  219.5435 H   0  0  0  0  0  0  0  0  0  0  0  0
  143.5293   72.9200  219.5435 H   0  0  0  0  0  0  0  0  0  0  0  0
  142.0347   78.5840  220.4331 H   0  0  0  0  0  0  0  0  0  0  0  0
  142.7873   78.3012  218.8160 H   0  0  0  0  0  0  0  0  0  0  0  0
  142.5193   80.6953  219.3253 H   0  0  0  0  0  0  0  0  0  0  0  0
  141.5299   80.1319  217.8826 H   0  0  0  0  0  0  0  0  0  0  0  0
  1  2  1  0
  2  3  1  0
  3  4  2  0
  3  5  1  0
  5  6  1  0
  6  7  2  0
  7  8  1  0
  8  9  2  0
  9 10  1  0
 10 11  2  0
  5 12  1  0
 12 13  1  0
 13 14  1  0
 14 15  1  0
 15 16  1  0
 16 17  2  0
 16 18  1  0
 18 19  1  0
 19 20  1  0
 20 21  1  0
 21 22  1  0
 22 23  2  0
 23 24  1  0
 24 25  2  0
 25 26  1  0
 26 27  2  0
 21 28  2  0
 28 29  1  0
 29 30  1  0
 30 31  1  0
 15 32  1  0
 32 33  1  0
 11  6  1  0
 33 12  1  0
 30 20  2  0
 27 22  1  0
  1 34  1  0
  1 35  1  0
  1 36  1  0
  2 37  1  0
  2 38  1  0
  7 39  1  0
  8 40  1  0
  9 41  1  0
 10 42  1  0
 11 43  1  0
 12 44  1  0
 13 45  1  0
 13 46  1  0
 14 47  1  0
 14 48  1  0
 18 49  1  0
 18 50  1  0
 19 51  1  0
 19 52  1  0
 23 53  1  0
 24 54  1  0
 25 55  1  0
 26 56  1  0
 27 57  1  0
 31 58  1  0
 31 59  1  0
 31 60  1  0
 32 61  1  0
 32 62  1  0
 33 63  1  0
 33 64  1  0
M  END
>  <smiles>  (35) 
CCC(=O)N(c1ccccc1)C1CCN(C(=O)CCc2c(-c3ccccc3)noc2C)CC1

>  <score_type>  (35) 
oracle

>  <origin>  (35) 
autodockgpu

>  <m_score__min__energy>  (35) 
-9.5199999999999996

>  <m_primary>  (35) 
energy

>  <rmsd>  (35) 
3.457200100548129

>  <m_score__min__rmsd>  (35) 
3.457200100548129

>  <meeko>  (35) 
{"free_energy": -6.63, "intermolecular_energy": -9.02, "internal_energy": -3.57, "cluster_size": 1, "cluster_id": 14, "rank_in_cluster": 1}

>  <energy>  (35) 
-7.73

>  <cluster_rmsd>  (35) 
0.51

>  <cluster>  (35) 
10

$$$$

     RDKit          3D

 64 67  0  0  0  0  0  0  0  0999 V2000
  141.1040   67.8130  227.6590 C   0  0  0  0  0  0  0  0  0  0  0  0
  141.2200   67.6300  226.1630 C   0  0  0  0  0  0  0  0  0  0  0  0
  139.9920   67.9530  225.4460 C   0  0  0  0  0  0  0  0  0  0  0  0
  139.2860   67.0070  224.9740 O   0  0  0  0  0  0  0  0  0  0  0  0
  139.4880   69.2640  225.2120 N   0  0  0  0  0  0  0  0  0  0  0  0
  139.9760   70.2910  226.0650 C   0  0  0  0  0  0  0  0  0  0  0  0
  140.8440   71.2760  225.6720 C   0  0  0  0  0  0  0  0  0  0  0  0
  141.2940   72.2570  226.5440 C   0  0  0  0  0  0  0  0  0  0  0  0
  140.8770   72.2800  227.8650 C   0  0  0  0  0  0  0  0  0  0  0  0
  140.0040   71.2880  228.2550 C   0  0  0  0  0  0  0  0  0  0  0  0
  139.5540   70.3040  227.3770 C   0  0  0  0  0  0  0  0  0  0  0  0
  138.5280   69.5470  224.1320 C   0  0  0  0  0  0  0  0  0  0  0  0
  139.2040   70.2150  222.9740 C   0  0  0  0  0  0  0  0  0  0  0  0
  138.1530   70.7820  222.0430 C   0  0  0  0  0  0  0  0  0  0  0  0
  137.4440   71.8910  222.7010 N   0  0  0  0  0  0  0  0  0  0  0  0
  136.9040   72.9820  221.9600 C   0  0  0  0  0  0  0  0  0  0  0  0
  137.0720   72.9450  220.7190 O   0  0  0  0  0  0  0  0  0  0  0  0
  136.2090   74.0330  222.7100 C   0  0  0  0  0  0  0  0  0  0  0  0
  134.7880   73.7260  223.0650 C   0  0  0  0  0  0  0  0  0  0  0  0
  134.3850   73.7440  224.4570 C   0  0  0  0  0  0  0  0  0  0  0  0
  134.0570   72.7310  225.3310 C   0  0  0  0  0  0  0  0  0  0  0  0
  134.0000   71.2980  225.1620 C   0  0  0  0  0  0  0  0  0  0  0  0
  133.7090   70.5970  224.0510 C   0  0  0  0  0  0  0  0  0  0  0  0
  133.7210   69.2070  224.0000 C   0  0  0  0  0  0  0  0  0  0  0  0
  134.0400   68.4780  225.1320 C   0  0  0  0  0  0  0  0  0  0  0  0
  134.3410   69.1730  226.2860 C   0  0  0  0  0  0  0  0  0  0  0  0
  134.3230   70.5460  226.3110 C   0  0  0  0  0  0  0  0  0  0  0  0
  133.8070   73.2900  226.5640 N   0  0  0  0  0  0  0  0  0  0  0  0
  133.9660   74.5700  226.4770 O   0  0  0  0  0  0  0  0  0  0  0  0
  134.3090   74.9020  225.2480 C   0  0  0  0  0  0  0  0  0  0  0  0
  134.5590   76.3130  224.8640 C   0  0  0  0  0  0  0  0  0  0  0  0
  137.3450   71.7820  224.1480 C   0  0  0  0  0  0  0  0  0  0  0  0
  137.3460   70.3310  224.5790 C   0  0  0  0  0  0  0  0  0  0  0  0
  141.6254   66.9905  228.1705 H   0  0  0  0  0  0  0  0  0  0  0  0
  141.5597   68.7717  227.9476 H   0  0  0  0  0  0  0  0  0  0  0  0
  140.0425   67.8100  227.9476 H   0  0  0  0  0  0  0  0  0  0  0  0
  142.0231   68.2839  225.7924 H   0  0  0  0  0  0  0  0  0  0  0  0
  141.4342   66.5666  225.9802 H   0  0  0  0  0  0  0  0  0  0  0  0
  141.1959   71.2894  224.6299 H   0  0  0  0  0  0  0  0  0  0  0  0
  141.9912   73.0268  226.1816 H   0  0  0  0  0  0  0  0  0  0  0  0
  141.2254   73.0516  228.5673 H   0  0  0  0  0  0  0  0  0  0  0  0
  139.6497   71.2722  229.2963 H   0  0  0  0  0  0  0  0  0  0  0  0
  138.8566   69.5317  227.7337 H   0  0  0  0  0  0  0  0  0  0  0  0
  138.1422   68.5700  223.8054 H   0  0  0  0  0  0  0  0  0  0  0  0
  139.8465   71.0284  223.3424 H   0  0  0  0  0  0  0  0  0  0  0  0
  139.8201   69.4818  222.4328 H   0  0  0  0  0  0  0  0  0  0  0  0
  138.6383   71.1518  221.1277 H   0  0  0  0  0  0  0  0  0  0  0  0
  137.4311   69.9918  221.7890 H   0  0  0  0  0  0  0  0  0  0  0  0
  136.7632   74.2084  223.6439 H   0  0  0  0  0  0  0  0  0  0  0  0
  136.1765   74.9110  222.0482 H   0  0  0  0  0  0  0  0  0  0  0  0
  134.1601   74.4606  222.5396 H   0  0  0  0  0  0  0  0  0  0  0  0
  134.6682   72.6723  222.7727 H   0  0  0  0  0  0  0  0  0  0  0  0
  133.4485   71.1510  223.1371 H   0  0  0  0  0  0  0  0  0  0  0  0
  133.4773   68.6881  223.0612 H   0  0  0  0  0  0  0  0  0  0  0  0
  134.0533   67.3782  225.1129 H   0  0  0  0  0  0  0  0  0  0  0  0
  134.5994   68.6183  227.2001 H   0  0  0  0  0  0  0  0  0  0  0  0
  134.5656   71.0705  227.2470 H   0  0  0  0  0  0  0  0  0  0  0  0
  134.6676   76.9261  225.7708 H   0  0  0  0  0  0  0  0  0  0  0  0
  135.4817   76.3729  224.2682 H   0  0  0  0  0  0  0  0  0  0  0  0
  133.7130   76.6863  224.2682 H   0  0  0  0  0  0  0  0  0  0  0  0
  138.2023   72.2954  224.6078 H   0  0  0  0  0  0  0  0  0  0  0  0
  136.4019   72.2457  224.4728 H   0  0  0  0  0  0  0  0  0  0  0  0
  137.3114   70.3008  225.6780 H   0  0  0  0  0  0  0  0  0  0  0  0
  136.4695   69.8668  224.1034 H   0  0  0  0  0  0  0  0  0  0  0  0
  1  2  1  0
  2  3  1  0
  3  4  2  0
  3  5  1  0
  5  6  1  0
  6  7  2  0
  7  8  1  0
  8  9  2  0
  9 10  1  0
 10 11  2  0
  5 12  1  0
 12 13  1  0
 13 14  1  0
 14 15  1  0
 15 16  1  0
 16 17  2  0
 16 18  1  0
 18 19  1  0
 19 20  1  0
 20 21  1  0
 21 22  1  0
 22 23  2  0
 23 24  1  0
 24 25  2  0
 25 26  1  0
 26 27  2  0
 21 28  2  0
 28 29  1  0
 29 30  1  0
 30 31  1  0
 15 32  1  0
 32 33  1  0
 11  6  1  0
 33 12  1  0
 30 20  2  0
 27 22  1  0
  1 34  1  0
  1 35  1  0
  1 36  1  0
  2 37  1  0
  2 38  1  0
  7 39  1  0
  8 40  1  0
  9 41  1  0
 10 42  1  0
 11 43  1  0
 12 44  1  0
 13 45  1  0
 13 46  1  0
 14 47  1  0
 14 48  1  0
 18 49  1  0
 18 50  1  0
 19 51  1  0
 19 52  1  0
 23 53  1  0
 24 54  1  0
 25 55  1  0
 26 56  1  0
 27 57  1  0
 31 58  1  0
 31 59  1  0
 31 60  1  0
 32 61  1  0
 32 62  1  0
 33 63  1  0
 33 64  1  0
M  END
>  <smiles>  (36) 
CCC(=O)N(c1ccccc1)C1CCN(C(=O)CCc2c(-c3ccccc3)noc2C)CC1

>  <score_type>  (36) 
oracle

>  <origin>  (36) 
autodockgpu

>  <m_score__min__energy>  (36) 
-9.5199999999999996

>  <m_primary>  (36) 
energy

>  <rmsd>  (36) 
9.803359077113168

>  <m_score__min__rmsd>  (36) 
9.803359077113168

>  <meeko>  (36) 
{"free_energy": -7.63, "intermolecular_energy": -10.02, "internal_energy": -2.74, "cluster_size": 4, "cluster_id": 4, "rank_in_cluster": 3}

>  <energy>  (36) 
-7.25

>  <cluster_rmsd>  (36) 
0.0

>  <cluster>  (36) 
11

$$$$

     RDKit          3D

 64 67  0  0  0  0  0  0  0  0999 V2000
  145.9370   73.0840  221.8250 C   0  0  0  0  0  0  0  0  0  0  0  0
  146.1580   73.8280  220.5280 C   0  0  0  0  0  0  0  0  0  0  0  0
  145.2660   73.3960  219.4570 C   0  0  0  0  0  0  0  0  0  0  0  0
  145.7030   72.5900  218.5770 O   0  0  0  0  0  0  0  0  0  0  0  0
  143.9100   73.8010  219.2930 N   0  0  0  0  0  0  0  0  0  0  0  0
  142.9200   72.9310  219.8250 C   0  0  0  0  0  0  0  0  0  0  0  0
  142.5280   71.7550  219.2430 C   0  0  0  0  0  0  0  0  0  0  0  0
  141.5540   70.9400  219.8010 C   0  0  0  0  0  0  0  0  0  0  0  0
  140.9310   71.2890  220.9890 C   0  0  0  0  0  0  0  0  0  0  0  0
  141.3290   72.4730  221.5720 C   0  0  0  0  0  0  0  0  0  0  0  0
  142.3070   73.2890  221.0080 C   0  0  0  0  0  0  0  0  0  0  0  0
  143.5520   75.0650  218.6270 C   0  0  0  0  0  0  0  0  0  0  0  0
  143.6280   76.2160  219.5820 C   0  0  0  0  0  0  0  0  0  0  0  0
  142.9450   77.4200  218.9670 C   0  0  0  0  0  0  0  0  0  0  0  0
  141.4990   77.1740  218.8540 N   0  0  0  0  0  0  0  0  0  0  0  0
  140.5490   78.2340  218.9320 C   0  0  0  0  0  0  0  0  0  0  0  0
  141.0150   79.3830  219.1060 O   0  0  0  0  0  0  0  0  0  0  0  0
  139.1310   77.8840  218.8010 C   0  0  0  0  0  0  0  0  0  0  0  0
  138.4700   77.4260  220.0630 C   0  0  0  0  0  0  0  0  0  0  0  0
  139.2410   76.6800  221.0370 C   0  0  0  0  0  0  0  0  0  0  0  0
  140.1090   77.0850  222.0260 C   0  0  0  0  0  0  0  0  0  0  0  0
  140.5560   78.3960  222.4350 C   0  0  0  0  0  0  0  0  0  0  0  0
  139.8800   79.3350  223.1220 C   0  0  0  0  0  0  0  0  0  0  0  0
  140.4320   80.5560  223.4920 C   0  0  0  0  0  0  0  0  0  0  0  0
  141.7390   80.8540  223.1510 C   0  0  0  0  0  0  0  0  0  0  0  0
  142.4550   79.9090  222.4440 C   0  0  0  0  0  0  0  0  0  0  0  0
  141.8880   78.7090  222.0900 C   0  0  0  0  0  0  0  0  0  0  0  0
  140.5260   75.9690  222.7170 N   0  0  0  0  0  0  0  0  0  0  0  0
  139.9600   74.9270  222.2010 O   0  0  0  0  0  0  0  0  0  0  0  0
  139.1840   75.2850  221.1970 C   0  0  0  0  0  0  0  0  0  0  0  0
  138.4060   74.2880  220.4210 C   0  0  0  0  0  0  0  0  0  0  0  0
  141.1270   75.7810  218.6640 C   0  0  0  0  0  0  0  0  0  0  0  0
  142.2280   75.0240  217.9520 C   0  0  0  0  0  0  0  0  0  0  0  0
  146.1368   73.7566  222.6722 H   0  0  0  0  0  0  0  0  0  0  0  0
  144.8957   72.7327  221.8734 H   0  0  0  0  0  0  0  0  0  0  0  0
  146.6176   72.2212  221.8734 H   0  0  0  0  0  0  0  0  0  0  0  0
  145.9938   74.9006  220.7082 H   0  0  0  0  0  0  0  0  0  0  0  0
  147.1868   73.6160  220.2014 H   0  0  0  0  0  0  0  0  0  0  0  0
  143.0022   71.4458  218.2998 H   0  0  0  0  0  0  0  0  0  0  0  0
  141.2725   70.0051  219.2944 H   0  0  0  0  0  0  0  0  0  0  0  0
  140.1575   70.6528  221.4439 H   0  0  0  0  0  0  0  0  0  0  0  0
  140.8577   72.7844  222.5159 H   0  0  0  0  0  0  0  0  0  0  0  0
  142.5926   74.2255  221.5094 H   0  0  0  0  0  0  0  0  0  0  0  0
  144.2981   75.2115  217.8320 H   0  0  0  0  0  0  0  0  0  0  0  0
  143.1241   75.9477  220.5223 H   0  0  0  0  0  0  0  0  0  0  0  0
  144.6815   76.4549  219.7894 H   0  0  0  0  0  0  0  0  0  0  0  0
  143.1162   78.3007  219.6035 H   0  0  0  0  0  0  0  0  0  0  0  0
  143.3607   77.5983  217.9643 H   0  0  0  0  0  0  0  0  0  0  0  0
  138.5931   78.7721  218.4378 H   0  0  0  0  0  0  0  0  0  0  0  0
  139.0892   77.0316  218.1070 H   0  0  0  0  0  0  0  0  0  0  0  0
  138.0933   78.3252  220.5725 H   0  0  0  0  0  0  0  0  0  0  0  0
  137.7187   76.7017  219.7155 H   0  0  0  0  0  0  0  0  0  0  0  0
  138.8379   79.1259  223.4051 H   0  0  0  0  0  0  0  0  0  0  0  0
  139.8301   81.2843  224.0553 H   0  0  0  0  0  0  0  0  0  0  0  0
  142.1939   81.8146  223.4345 H   0  0  0  0  0  0  0  0  0  0  0  0
  143.4964   80.1203  222.1595 H   0  0  0  0  0  0  0  0  0  0  0  0
  142.4846   77.9769  221.5259 H   0  0  0  0  0  0  0  0  0  0  0  0
  137.8801   73.6140  221.1132 H   0  0  0  0  0  0  0  0  0  0  0  0
  137.6725   74.8080  219.7873 H   0  0  0  0  0  0  0  0  0  0  0  0
  139.0887   73.7029  219.7873 H   0  0  0  0  0  0  0  0  0  0  0  0
  140.9475   75.3183  219.6457 H   0  0  0  0  0  0  0  0  0  0  0  0
  140.2156   75.7396  218.0495 H   0  0  0  0  0  0  0  0  0  0  0  0
  141.9198   73.9715  217.8674 H   0  0  0  0  0  0  0  0  0  0  0  0
  142.3623   75.5174  216.9781 H   0  0  0  0  0  0  0  0  0  0  0  0
  1  2  1  0
  2  3  1  0
  3  4  2  0
  3  5  1  0
  5  6  1  0
  6  7  2  0
  7  8  1  0
  8  9  2  0
  9 10  1  0
 10 11  2  0
  5 12  1  0
 12 13  1  0
 13 14  1  0
 14 15  1  0
 15 16  1  0
 16 17  2  0
 16 18  1  0
 18 19  1  0
 19 20  1  0
 20 21  1  0
 21 22  1  0
 22 23  2  0
 23 24  1  0
 24 25  2  0
 25 26  1  0
 26 27  2  0
 21 28  2  0
 28 29  1  0
 29 30  1  0
 30 31  1  0
 15 32  1  0
 32 33  1  0
 11  6  1  0
 33 12  1  0
 30 20  2  0
 27 22  1  0
  1 34  1  0
  1 35  1  0
  1 36  1  0
  2 37  1  0
  2 38  1  0
  7 39  1  0
  8 40  1  0
  9 41  1  0
 10 42  1  0
 11 43  1  0
 12 44  1  0
 13 45  1  0
 13 46  1  0
 14 47  1  0
 14 48  1  0
 18 49  1  0
 18 50  1  0
 19 51  1  0
 19 52  1  0
 23 53  1  0
 24 54  1  0
 25 55  1  0
 26 56  1  0
 27 57  1  0
 31 58  1  0
 31 59  1  0
 31 60  1  0
 32 61  1  0
 32 62  1  0
 33 63  1  0
 33 64  1  0
M  END
>  <smiles>  (37) 
CCC(=O)N(c1ccccc1)C1CCN(C(=O)CCc2c(-c3ccccc3)noc2C)CC1

>  <score_type>  (37) 
oracle

>  <origin>  (37) 
autodockgpu

>  <m_score__min__energy>  (37) 
-9.5199999999999996

>  <m_primary>  (37) 
energy

>  <rmsd>  (37) 
5.050741479904483

>  <m_score__min__rmsd>  (37) 
5.050741479904483

>  <meeko>  (37) 
{"free_energy": -6.83, "intermolecular_energy": -9.21, "internal_energy": -3.67, "cluster_size": 10, "cluster_id": 12, "rank_in_cluster": 7}

>  <energy>  (37) 
-7.23

>  <cluster_rmsd>  (37) 
0.0

>  <cluster>  (37) 
12

$$$$

     RDKit          3D

 64 67  0  0  0  0  0  0  0  0999 V2000
  146.3150   73.0800  221.8850 C   0  0  0  0  0  0  0  0  0  0  0  0
  145.9670   74.1300  220.8540 C   0  0  0  0  0  0  0  0  0  0  0  0
  145.1660   73.6120  219.7510 C   0  0  0  0  0  0  0  0  0  0  0  0
  145.7050   72.8190  218.9170 O   0  0  0  0  0  0  0  0  0  0  0  0
  143.7970   73.9150  219.5060 N   0  0  0  0  0  0  0  0  0  0  0  0
  142.8390   73.0910  220.1570 C   0  0  0  0  0  0  0  0  0  0  0  0
  142.0020   73.5150  221.1550 C   0  0  0  0  0  0  0  0  0  0  0  0
  141.0840   72.6700  221.7610 C   0  0  0  0  0  0  0  0  0  0  0  0
  140.9760   71.3440  221.3750 C   0  0  0  0  0  0  0  0  0  0  0  0
  141.8200   70.9210  220.3700 C   0  0  0  0  0  0  0  0  0  0  0  0
  142.7400   71.7730  219.7640 C   0  0  0  0  0  0  0  0  0  0  0  0
  143.3920   75.0370  218.6420 C   0  0  0  0  0  0  0  0  0  0  0  0
  143.6490   76.3520  219.3120 C   0  0  0  0  0  0  0  0  0  0  0  0
  142.9280   77.4480  218.5550 C   0  0  0  0  0  0  0  0  0  0  0  0
  141.4730   77.2810  218.6930 N   0  0  0  0  0  0  0  0  0  0  0  0
  140.5850   78.3950  218.6730 C   0  0  0  0  0  0  0  0  0  0  0  0
  141.1130   79.5220  218.5350 O   0  0  0  0  0  0  0  0  0  0  0  0
  139.1510   78.1210  218.8120 C   0  0  0  0  0  0  0  0  0  0  0  0
  138.6590   78.0080  220.2210 C   0  0  0  0  0  0  0  0  0  0  0  0
  139.3400   77.1190  221.1410 C   0  0  0  0  0  0  0  0  0  0  0  0
  140.3840   77.3260  222.0150 C   0  0  0  0  0  0  0  0  0  0  0  0
  141.1660   78.5020  222.3160 C   0  0  0  0  0  0  0  0  0  0  0  0
  141.5990   79.4580  221.4730 C   0  0  0  0  0  0  0  0  0  0  0  0
  142.3200   80.5720  221.8880 C   0  0  0  0  0  0  0  0  0  0  0  0
  142.6270   80.7350  223.2270 C   0  0  0  0  0  0  0  0  0  0  0  0
  142.1970   79.7680  224.1130 C   0  0  0  0  0  0  0  0  0  0  0  0
  141.4850   78.6770  223.6790 C   0  0  0  0  0  0  0  0  0  0  0  0
  140.6050   76.1560  222.7070 N   0  0  0  0  0  0  0  0  0  0  0  0
  139.7580   75.2680  222.2990 O   0  0  0  0  0  0  0  0  0  0  0  0
  138.9780   75.7810  221.3670 C   0  0  0  0  0  0  0  0  0  0  0  0
  137.9080   74.9810  220.7220 C   0  0  0  0  0  0  0  0  0  0  0  0
  141.0260   75.9070  218.8540 C   0  0  0  0  0  0  0  0  0  0  0  0
  141.9830   74.9480  218.1760 C   0  0  0  0  0  0  0  0  0  0  0  0
  146.1769   73.4966  222.8936 H   0  0  0  0  0  0  0  0  0  0  0  0
  145.6581   72.2072  221.7557 H   0  0  0  0  0  0  0  0  0  0  0  0
  147.3632   72.7724  221.7557 H   0  0  0  0  0  0  0  0  0  0  0  0
  145.4009   74.9322  221.3500 H   0  0  0  0  0  0  0  0  0  0  0  0
  146.9133   74.4935  220.4269 H   0  0  0  0  0  0  0  0  0  0  0  0
  142.0599   74.5620  221.4874 H   0  0  0  0  0  0  0  0  0  0  0  0
  140.4332   73.0579  222.5585 H   0  0  0  0  0  0  0  0  0  0  0  0
  140.2529   70.6624  221.8468 H   0  0  0  0  0  0  0  0  0  0  0  0
  141.7648   69.8746  220.0354 H   0  0  0  0  0  0  0  0  0  0  0  0
  143.3931   71.3914  218.9653 H   0  0  0  0  0  0  0  0  0  0  0  0
  144.0189   74.9667  217.7409 H   0  0  0  0  0  0  0  0  0  0  0  0
  143.2790   76.3156  220.3472 H   0  0  0  0  0  0  0  0  0  0  0  0
  144.7296   76.5577  219.3185 H   0  0  0  0  0  0  0  0  0  0  0  0
  143.2226   78.4265  218.9621 H   0  0  0  0  0  0  0  0  0  0  0  0
  143.1989   77.3901  217.4904 H   0  0  0  0  0  0  0  0  0  0  0  0
  138.5993   78.9374  218.3230 H   0  0  0  0  0  0  0  0  0  0  0  0
  138.9811   77.1378  218.3488 H   0  0  0  0  0  0  0  0  0  0  0  0
  138.7025   79.0166  220.6579 H   0  0  0  0  0  0  0  0  0  0  0  0
  137.6615   77.5570  220.1132 H   0  0  0  0  0  0  0  0  0  0  0  0
  141.3709   79.3526  220.4021 H   0  0  0  0  0  0  0  0  0  0  0  0
  142.6458   81.3225  221.1528 H   0  0  0  0  0  0  0  0  0  0  0  0
  143.1968   81.6092  223.5752 H   0  0  0  0  0  0  0  0  0  0  0  0
  142.4282   79.8729  225.1833 H   0  0  0  0  0  0  0  0  0  0  0  0
  141.1563   77.9234  224.4098 H   0  0  0  0  0  0  0  0  0  0  0  0
  137.2824   74.5133  221.4965 H   0  0  0  0  0  0  0  0  0  0  0  0
  137.2863   75.6376  220.0956 H   0  0  0  0  0  0  0  0  0  0  0  0
  138.3619   74.1990  220.0956 H   0  0  0  0  0  0  0  0  0  0  0  0
  140.9747   75.6676  219.9264 H   0  0  0  0  0  0  0  0  0  0  0  0
  140.0338   75.8020  218.3908 H   0  0  0  0  0  0  0  0  0  0  0  0
  141.6267   73.9234  218.3584 H   0  0  0  0  0  0  0  0  0  0  0  0
  141.9921   75.2222  217.1108 H   0  0  0  0  0  0  0  0  0  0  0  0
  1  2  1  0
  2  3  1  0
  3  4  2  0
  3  5  1  0
  5  6  1  0
  6  7  2  0
  7  8  1  0
  8  9  2  0
  9 10  1  0
 10 11  2  0
  5 12  1  0
 12 13  1  0
 13 14  1  0
 14 15  1  0
 15 16  1  0
 16 17  2  0
 16 18  1  0
 18 19  1  0
 19 20  1  0
 20 21  1  0
 21 22  1  0
 22 23  2  0
 23 24  1  0
 24 25  2  0
 25 26  1  0
 26 27  2  0
 21 28  2  0
 28 29  1  0
 29 30  1  0
 30 31  1  0
 15 32  1  0
 32 33  1  0
 11  6  1  0
 33 12  1  0
 30 20  2  0
 27 22  1  0
  1 34  1  0
  1 35  1  0
  1 36  1  0
  2 37  1  0
  2 38  1  0
  7 39  1  0
  8 40  1  0
  9 41  1  0
 10 42  1  0
 11 43  1  0
 12 44  1  0
 13 45  1  0
 13 46  1  0
 14 47  1  0
 14 48  1  0
 18 49  1  0
 18 50  1  0
 19 51  1  0
 19 52  1  0
 23 53  1  0
 24 54  1  0
 25 55  1  0
 26 56  1  0
 27 57  1  0
 31 58  1  0
 31 59  1  0
 31 60  1  0
 32 61  1  0
 32 62  1  0
 33 63  1  0
 33 64  1  0
M  END
>  <smiles>  (38) 
CCC(=O)N(c1ccccc1)C1CCN(C(=O)CCc2c(-c3ccccc3)noc2C)CC1

>  <score_type>  (38) 
oracle

>  <origin>  (38) 
autodockgpu

>  <m_score__min__energy>  (38) 
-9.5199999999999996

>  <m_primary>  (38) 
energy

>  <rmsd>  (38) 
5.074951864793917

>  <m_score__min__rmsd>  (38) 
5.074951864793917

>  <meeko>  (38) 
{"free_energy": -7.2, "intermolecular_energy": -9.58, "internal_energy": -3.39, "cluster_size": 10, "cluster_id": 12, "rank_in_cluster": 2}

>  <energy>  (38) 
-7.2

>  <cluster_rmsd>  (38) 
0.12

>  <cluster>  (38) 
12

$$$$

     RDKit          3D

 64 67  0  0  0  0  0  0  0  0999 V2000
  136.3590   76.4040  222.9370 C   0  0  0  0  0  0  0  0  0  0  0  0
  137.8630   76.2890  223.0390 C   0  0  0  0  0  0  0  0  0  0  0  0
  138.5710   77.3330  222.3060 C   0  0  0  0  0  0  0  0  0  0  0  0
  137.9970   78.4500  222.1140 O   0  0  0  0  0  0  0  0  0  0  0  0
  139.8840   77.2220  221.7670 N   0  0  0  0  0  0  0  0  0  0  0  0
  140.8040   78.2450  222.1230 C   0  0  0  0  0  0  0  0  0  0  0  0
  141.2940   79.1840  221.2530 C   0  0  0  0  0  0  0  0  0  0  0  0
  142.1930   80.1630  221.6490 C   0  0  0  0  0  0  0  0  0  0  0  0
  142.6370   80.2310  222.9590 C   0  0  0  0  0  0  0  0  0  0  0  0
  142.1420   79.2860  223.8310 C   0  0  0  0  0  0  0  0  0  0  0  0
  141.2400   78.3040  223.4300 C   0  0  0  0  0  0  0  0  0  0  0  0
  140.2770   76.0950  220.9030 C   0  0  0  0  0  0  0  0  0  0  0  0
  139.0740   75.4280  220.3090 C   0  0  0  0  0  0  0  0  0  0  0  0
  139.4850   74.0990  219.7110 C   0  0  0  0  0  0  0  0  0  0  0  0
  139.8890   73.1710  220.7790 N   0  0  0  0  0  0  0  0  0  0  0  0
  139.7150   71.7620  220.6530 C   0  0  0  0  0  0  0  0  0  0  0  0
  139.1960   71.3610  219.5870 O   0  0  0  0  0  0  0  0  0  0  0  0
  140.1570   70.9220  221.7720 C   0  0  0  0  0  0  0  0  0  0  0  0
  139.1540   70.7470  222.8690 C   0  0  0  0  0  0  0  0  0  0  0  0
  139.1970   69.5500  223.6840 C   0  0  0  0  0  0  0  0  0  0  0  0
  139.6140   69.3360  224.9790 C   0  0  0  0  0  0  0  0  0  0  0  0
  140.1570   70.2310  225.9740 C   0  0  0  0  0  0  0  0  0  0  0  0
  140.9790   71.2810  225.7960 C   0  0  0  0  0  0  0  0  0  0  0  0
  141.4100   72.0990  226.8340 C   0  0  0  0  0  0  0  0  0  0  0  0
  140.9930   71.8460  228.1300 C   0  0  0  0  0  0  0  0  0  0  0  0
  140.1510   70.7730  228.3410 C   0  0  0  0  0  0  0  0  0  0  0  0
  139.7390   69.9810  227.2980 C   0  0  0  0  0  0  0  0  0  0  0  0
  139.3820   68.0150  225.2940 N   0  0  0  0  0  0  0  0  0  0  0  0
  138.8530   67.4330  224.2680 O   0  0  0  0  0  0  0  0  0  0  0  0
  138.7190   68.2930  223.2780 C   0  0  0  0  0  0  0  0  0  0  0  0
  138.1330   67.8940  221.9750 C   0  0  0  0  0  0  0  0  0  0  0  0
  140.4670   73.8020  221.9540 C   0  0  0  0  0  0  0  0  0  0  0  0
  141.1490   75.1020  221.5840 C   0  0  0  0  0  0  0  0  0  0  0  0
  135.9245   76.4372  223.9470 H   0  0  0  0  0  0  0  0  0  0  0  0
  136.0976   77.3248  222.3949 H   0  0  0  0  0  0  0  0  0  0  0  0
  135.9606   75.5337  222.3949 H   0  0  0  0  0  0  0  0  0  0  0  0
  138.1472   76.3527  224.0997 H   0  0  0  0  0  0  0  0  0  0  0  0
  138.1479   75.3253  222.5916 H   0  0  0  0  0  0  0  0  0  0  0  0
  140.9627   79.1603  220.2043 H   0  0  0  0  0  0  0  0  0  0  0  0
  142.5580   80.8947  220.9132 H   0  0  0  0  0  0  0  0  0  0  0  0
  143.3499   81.0017  223.2873 H   0  0  0  0  0  0  0  0  0  0  0  0
  142.4708   79.3081  224.8805 H   0  0  0  0  0  0  0  0  0  0  0  0
  140.8723   77.5694  224.1615 H   0  0  0  0  0  0  0  0  0  0  0  0
  140.8808   76.5303  220.0931 H   0  0  0  0  0  0  0  0  0  0  0  0
  138.3211   75.2612  221.0934 H   0  0  0  0  0  0  0  0  0  0  0  0
  138.6460   76.0693  219.5245 H   0  0  0  0  0  0  0  0  0  0  0  0
  138.6365   73.6704  219.1575 H   0  0  0  0  0  0  0  0  0  0  0  0
  140.3335   74.2565  219.0289 H   0  0  0  0  0  0  0  0  0  0  0  0
  140.4041   69.9267  221.3742 H   0  0  0  0  0  0  0  0  0  0  0  0
  141.0168   71.4393  222.2226 H   0  0  0  0  0  0  0  0  0  0  0  0
  139.2702   71.6032  223.5498 H   0  0  0  0  0  0  0  0  0  0  0  0
  138.1956   70.6648  222.3354 H   0  0  0  0  0  0  0  0  0  0  0  0
  141.3279   71.5036  224.7769 H   0  0  0  0  0  0  0  0  0  0  0  0
  142.0810   72.9456  226.6263 H   0  0  0  0  0  0  0  0  0  0  0  0
  141.3227   72.4807  228.9657 H   0  0  0  0  0  0  0  0  0  0  0  0
  139.8046   70.5489  229.3607 H   0  0  0  0  0  0  0  0  0  0  0  0
  139.0681   69.1328  227.4991 H   0  0  0  0  0  0  0  0  0  0  0  0
  137.2351   67.2827  222.1486 H   0  0  0  0  0  0  0  0  0  0  0  0
  137.8592   68.7941  221.4051 H   0  0  0  0  0  0  0  0  0  0  0  0
  138.8701   67.3093  221.4051 H   0  0  0  0  0  0  0  0  0  0  0  0
  139.6689   74.0078  222.6825 H   0  0  0  0  0  0  0  0  0  0  0  0
  141.2148   73.1220  222.3881 H   0  0  0  0  0  0  0  0  0  0  0  0
  141.5333   75.5609  222.5069 H   0  0  0  0  0  0  0  0  0  0  0  0
  141.9397   74.8416  220.8650 H   0  0  0  0  0  0  0  0  0  0  0  0
  1  2  1  0
  2  3  1  0
  3  4  2  0
  3  5  1  0
  5  6  1  0
  6  7  2  0
  7  8  1  0
  8  9  2  0
  9 10  1  0
 10 11  2  0
  5 12  1  0
 12 13  1  0
 13 14  1  0
 14 15  1  0
 15 16  1  0
 16 17  2  0
 16 18  1  0
 18 19  1  0
 19 20  1  0
 20 21  1  0
 21 22  1  0
 22 23  2  0
 23 24  1  0
 24 25  2  0
 25 26  1  0
 26 27  2  0
 21 28  2  0
 28 29  1  0
 29 30  1  0
 30 31  1  0
 15 32  1  0
 32 33  1  0
 11  6  1  0
 33 12  1  0
 30 20  2  0
 27 22  1  0
  1 34  1  0
  1 35  1  0
  1 36  1  0
  2 37  1  0
  2 38  1  0
  7 39  1  0
  8 40  1  0
  9 41  1  0
 10 42  1  0
 11 43  1  0
 12 44  1  0
 13 45  1  0
 13 46  1  0
 14 47  1  0
 14 48  1  0
 18 49  1  0
 18 50  1  0
 19 51  1  0
 19 52  1  0
 23 53  1  0
 24 54  1  0
 25 55  1  0
 26 56  1  0
 27 57  1  0
 31 58  1  0
 31 59  1  0
 31 60  1  0
 32 61  1  0
 32 62  1  0
 33 63  1  0
 33 64  1  0
M  END
>  <smiles>  (39) 
CCC(=O)N(c1ccccc1)C1CCN(C(=O)CCc2c(-c3ccccc3)noc2C)CC1

>  <score_type>  (39) 
oracle

>  <origin>  (39) 
autodockgpu

>  <m_score__min__energy>  (39) 
-9.5199999999999996

>  <m_primary>  (39) 
energy

>  <rmsd>  (39) 
7.508273515333656

>  <m_score__min__rmsd>  (39) 
7.508273515333656

>  <meeko>  (39) 
{"free_energy": -8.83, "intermolecular_energy": -11.21, "internal_energy": -1.87, "cluster_size": 14, "cluster_id": 3, "rank_in_cluster": 4}

>  <energy>  (39) 
-7.15

>  <cluster_rmsd>  (39) 
0.14

>  <cluster>  (39) 
12

$$$$

     RDKit          3D

 64 67  0  0  0  0  0  0  0  0999 V2000
  137.9540   76.1910  222.7670 C   0  0  0  0  0  0  0  0  0  0  0  0
  137.5850   77.3300  221.8440 C   0  0  0  0  0  0  0  0  0  0  0  0
  138.6560   77.6950  220.9230 C   0  0  0  0  0  0  0  0  0  0  0  0
  138.3750   78.3860  219.8930 O   0  0  0  0  0  0  0  0  0  0  0  0
  140.0290   77.3440  221.0660 N   0  0  0  0  0  0  0  0  0  0  0  0
  140.8350   78.2370  221.8230 C   0  0  0  0  0  0  0  0  0  0  0  0
  141.0600   78.1240  223.1700 C   0  0  0  0  0  0  0  0  0  0  0  0
  141.8550   79.0230  223.8650 C   0  0  0  0  0  0  0  0  0  0  0  0
  142.4620   80.0860  223.2150 C   0  0  0  0  0  0  0  0  0  0  0  0
  142.2330   80.1960  221.8610 C   0  0  0  0  0  0  0  0  0  0  0  0
  141.4340   79.2910  221.1660 C   0  0  0  0  0  0  0  0  0  0  0  0
  140.5810   76.1120  220.4790 C   0  0  0  0  0  0  0  0  0  0  0  0
  139.5100   75.3140  219.7990 C   0  0  0  0  0  0  0  0  0  0  0  0
  140.0350   73.9230  219.5060 C   0  0  0  0  0  0  0  0  0  0  0  0
  140.2500   73.1920  220.7640 N   0  0  0  0  0  0  0  0  0  0  0  0
  140.1150   71.7750  220.8410 C   0  0  0  0  0  0  0  0  0  0  0  0
  139.7990   71.1900  219.7790 O   0  0  0  0  0  0  0  0  0  0  0  0
  140.3570   71.1400  222.1410 C   0  0  0  0  0  0  0  0  0  0  0  0
  139.1270   70.7120  222.8770 C   0  0  0  0  0  0  0  0  0  0  0  0
  139.1720   69.5220  223.7030 C   0  0  0  0  0  0  0  0  0  0  0  0
  139.6000   69.3180  224.9960 C   0  0  0  0  0  0  0  0  0  0  0  0
  140.1560   70.2190  225.9780 C   0  0  0  0  0  0  0  0  0  0  0  0
  140.9770   71.2670  225.7830 C   0  0  0  0  0  0  0  0  0  0  0  0
  141.4210   72.0910  226.8110 C   0  0  0  0  0  0  0  0  0  0  0  0
  141.0190   71.8470  228.1130 C   0  0  0  0  0  0  0  0  0  0  0  0
  140.1780   70.7780  228.3410 C   0  0  0  0  0  0  0  0  0  0  0  0
  139.7530   69.9780  227.3090 C   0  0  0  0  0  0  0  0  0  0  0  0
  139.3650   68.0010  225.3240 N   0  0  0  0  0  0  0  0  0  0  0  0
  138.8250   67.4120  224.3080 O   0  0  0  0  0  0  0  0  0  0  0  0
  138.6850   68.2640  223.3120 C   0  0  0  0  0  0  0  0  0  0  0  0
  138.0860   67.8560  222.0180 C   0  0  0  0  0  0  0  0  0  0  0  0
  140.6010   74.0230  221.9050 C   0  0  0  0  0  0  0  0  0  0  0  0
  141.3270   75.2730  221.4540 C   0  0  0  0  0  0  0  0  0  0  0  0
  137.8483   76.5171  223.8122 H   0  0  0  0  0  0  0  0  0  0  0  0
  137.2866   75.3368  222.5802 H   0  0  0  0  0  0  0  0  0  0  0  0
  138.9955   75.8904  222.5802 H   0  0  0  0  0  0  0  0  0  0  0  0
  136.7048   77.0317  221.2556 H   0  0  0  0  0  0  0  0  0  0  0  0
  137.3831   78.2086  222.4744 H   0  0  0  0  0  0  0  0  0  0  0  0
  140.5943   77.2920  223.7186 H   0  0  0  0  0  0  0  0  0  0  0  0
  142.0058   78.8907  224.9465 H   0  0  0  0  0  0  0  0  0  0  0  0
  143.0953   80.8062  223.7536 H   0  0  0  0  0  0  0  0  0  0  0  0
  142.6971   81.0271  221.3097 H   0  0  0  0  0  0  0  0  0  0  0  0
  141.2797   79.4182  220.0843 H   0  0  0  0  0  0  0  0  0  0  0  0
  141.3160   76.4368  219.7279 H   0  0  0  0  0  0  0  0  0  0  0  0
  138.6302   75.2444  220.4555 H   0  0  0  0  0  0  0  0  0  0  0  0
  139.2233   75.8065  218.8581 H   0  0  0  0  0  0  0  0  0  0  0  0
  139.3037   73.3799  218.8893 H   0  0  0  0  0  0  0  0  0  0  0  0
  140.9905   74.0034  218.9669 H   0  0  0  0  0  0  0  0  0  0  0  0
  140.9815   70.2499  221.9745 H   0  0  0  0  0  0  0  0  0  0  0  0
  140.8401   71.9028  222.7693 H   0  0  0  0  0  0  0  0  0  0  0  0
  138.8387   71.5469  223.5327 H   0  0  0  0  0  0  0  0  0  0  0  0
  138.4233   70.4454  222.0747 H   0  0  0  0  0  0  0  0  0  0  0  0
  141.3140   71.4827  224.7584 H   0  0  0  0  0  0  0  0  0  0  0  0
  142.0906   72.9354  226.5902 H   0  0  0  0  0  0  0  0  0  0  0  0
  141.3600   72.4863  228.9406 H   0  0  0  0  0  0  0  0  0  0  0  0
  139.8422   70.5627  229.3661 H   0  0  0  0  0  0  0  0  0  0  0  0
  139.0844   69.1315  227.5242 H   0  0  0  0  0  0  0  0  0  0  0  0
  137.1901   67.2458  222.2049 H   0  0  0  0  0  0  0  0  0  0  0  0
  137.8062   68.7521  221.4447 H   0  0  0  0  0  0  0  0  0  0  0  0
  138.8174   67.2675  221.4447 H   0  0  0  0  0  0  0  0  0  0  0  0
  139.6828   74.3112  222.4378 H   0  0  0  0  0  0  0  0  0  0  0  0
  141.2640   73.4494  222.5694 H   0  0  0  0  0  0  0  0  0  0  0  0
  141.5363   75.8862  222.3429 H   0  0  0  0  0  0  0  0  0  0  0  0
  142.2360   74.9325  220.9365 H   0  0  0  0  0  0  0  0  0  0  0  0
  1  2  1  0
  2  3  1  0
  3  4  2  0
  3  5  1  0
  5  6  1  0
  6  7  2  0
  7  8  1  0
  8  9  2  0
  9 10  1  0
 10 11  2  0
  5 12  1  0
 12 13  1  0
 13 14  1  0
 14 15  1  0
 15 16  1  0
 16 17  2  0
 16 18  1  0
 18 19  1  0
 19 20  1  0
 20 21  1  0
 21 22  1  0
 22 23  2  0
 23 24  1  0
 24 25  2  0
 25 26  1  0
 26 27  2  0
 21 28  2  0
 28 29  1  0
 29 30  1  0
 30 31  1  0
 15 32  1  0
 32 33  1  0
 11  6  1  0
 33 12  1  0
 30 20  2  0
 27 22  1  0
  1 34  1  0
  1 35  1  0
  1 36  1  0
  2 37  1  0
  2 38  1  0
  7 39  1  0
  8 40  1  0
  9 41  1  0
 10 42  1  0
 11 43  1  0
 12 44  1  0
 13 45  1  0
 13 46  1  0
 14 47  1  0
 14 48  1  0
 18 49  1  0
 18 50  1  0
 19 51  1  0
 19 52  1  0
 23 53  1  0
 24 54  1  0
 25 55  1  0
 26 56  1  0
 27 57  1  0
 31 58  1  0
 31 59  1  0
 31 60  1  0
 32 61  1  0
 32 62  1  0
 33 63  1  0
 33 64  1  0
M  END
>  <smiles>  (40) 
CCC(=O)N(c1ccccc1)C1CCN(C(=O)CCc2c(-c3ccccc3)noc2C)CC1

>  <score_type>  (40) 
oracle

>  <origin>  (40) 
autodockgpu

>  <m_score__min__energy>  (40) 
-9.5199999999999996

>  <m_primary>  (40) 
energy

>  <rmsd>  (40) 
7.494981655649225

>  <m_score__min__rmsd>  (40) 
7.494981655649225

>  <meeko>  (40) 
{"free_energy": -8.54, "intermolecular_energy": -10.93, "internal_energy": -2.02, "cluster_size": 14, "cluster_id": 3, "rank_in_cluster": 10}

>  <energy>  (40) 
-7.05

>  <cluster_rmsd>  (40) 
0.53

>  <cluster>  (40) 
12

$$$$

     RDKit          3D

 64 67  0  0  0  0  0  0  0  0999 V2000
  137.8760   76.3090  222.7380 C   0  0  0  0  0  0  0  0  0  0  0  0
  137.6610   77.5480  221.8990 C   0  0  0  0  0  0  0  0  0  0  0  0
  138.7220   77.7740  220.9230 C   0  0  0  0  0  0  0  0  0  0  0  0
  138.4400   78.3580  219.8300 O   0  0  0  0  0  0  0  0  0  0  0  0
  140.0850   77.3930  221.0770 N   0  0  0  0  0  0  0  0  0  0  0  0
  140.9050   78.2680  221.8400 C   0  0  0  0  0  0  0  0  0  0  0  0
  141.0620   78.1950  223.1990 C   0  0  0  0  0  0  0  0  0  0  0  0
  141.8740   79.0750  223.9000 C   0  0  0  0  0  0  0  0  0  0  0  0
  142.5680   80.0780  223.2430 C   0  0  0  0  0  0  0  0  0  0  0  0
  142.4080   80.1480  221.8760 C   0  0  0  0  0  0  0  0  0  0  0  0
  141.5920   79.2620  221.1750 C   0  0  0  0  0  0  0  0  0  0  0  0
  140.6150   76.1480  220.4960 C   0  0  0  0  0  0  0  0  0  0  0  0
  139.5290   75.3630  219.8270 C   0  0  0  0  0  0  0  0  0  0  0  0
  140.0300   73.9620  219.5400 C   0  0  0  0  0  0  0  0  0  0  0  0
  140.2390   73.2350  220.8020 N   0  0  0  0  0  0  0  0  0  0  0  0
  140.0820   71.8210  220.8880 C   0  0  0  0  0  0  0  0  0  0  0  0
  139.7520   71.2350  219.8320 O   0  0  0  0  0  0  0  0  0  0  0  0
  140.3200   71.1910  222.1910 C   0  0  0  0  0  0  0  0  0  0  0  0
  139.0940   70.6990  222.8920 C   0  0  0  0  0  0  0  0  0  0  0  0
  139.1750   69.5070  223.7120 C   0  0  0  0  0  0  0  0  0  0  0  0
  139.6250   69.3060  224.9980 C   0  0  0  0  0  0  0  0  0  0  0  0
  140.1760   70.2150  225.9760 C   0  0  0  0  0  0  0  0  0  0  0  0
  140.9800   71.2750  225.7740 C   0  0  0  0  0  0  0  0  0  0  0  0
  141.4210   72.1050  226.7990 C   0  0  0  0  0  0  0  0  0  0  0  0
  141.0340   71.8550  228.1040 C   0  0  0  0  0  0  0  0  0  0  0  0
  140.2100   70.7730  228.3380 C   0  0  0  0  0  0  0  0  0  0  0  0
  139.7870   69.9680  227.3100 C   0  0  0  0  0  0  0  0  0  0  0  0
  139.4220   67.9840  225.3240 N   0  0  0  0  0  0  0  0  0  0  0  0
  138.8800   67.3870  224.3130 O   0  0  0  0  0  0  0  0  0  0  0  0
  138.7080   68.2410  223.3230 C   0  0  0  0  0  0  0  0  0  0  0  0
  138.1000   67.8250  222.0350 C   0  0  0  0  0  0  0  0  0  0  0  0
  140.6090   74.0680  221.9350 C   0  0  0  0  0  0  0  0  0  0  0  0
  141.3520   75.3040  221.4730 C   0  0  0  0  0  0  0  0  0  0  0  0
  137.8297   76.5756  223.8042 H   0  0  0  0  0  0  0  0  0  0  0  0
  137.0924   75.5714  222.5102 H   0  0  0  0  0  0  0  0  0  0  0  0
  138.8623   75.8785  222.5102 H   0  0  0  0  0  0  0  0  0  0  0  0
  136.7074   77.4442  221.3606 H   0  0  0  0  0  0  0  0  0  0  0  0
  137.6583   78.4092  222.5834 H   0  0  0  0  0  0  0  0  0  0  0  0
  140.5255   77.4112  223.7539 H   0  0  0  0  0  0  0  0  0  0  0  0
  141.9679   78.9750  224.9914 H   0  0  0  0  0  0  0  0  0  0  0  0
  143.2146   80.7834  223.7855 H   0  0  0  0  0  0  0  0  0  0  0  0
  142.9432   80.9308  221.3185 H   0  0  0  0  0  0  0  0  0  0  0  0
  141.4951   79.3562  220.0833 H   0  0  0  0  0  0  0  0  0  0  0  0
  141.3517   76.4561  219.7395 H   0  0  0  0  0  0  0  0  0  0  0  0
  138.6516   75.3115  220.4885 H   0  0  0  0  0  0  0  0  0  0  0  0
  139.2457   75.8540  218.8843 H   0  0  0  0  0  0  0  0  0  0  0  0
  139.2872   73.4271  218.9300 H   0  0  0  0  0  0  0  0  0  0  0  0
  140.9841   74.0236  218.9960 H   0  0  0  0  0  0  0  0  0  0  0  0
  140.9916   70.3335  222.0372 H   0  0  0  0  0  0  0  0  0  0  0  0
  140.7479   71.9731  222.8354 H   0  0  0  0  0  0  0  0  0  0  0  0
  138.7488   71.5144  223.5447 H   0  0  0  0  0  0  0  0  0  0  0  0
  138.4251   70.4042  222.0700 H   0  0  0  0  0  0  0  0  0  0  0  0
  141.3047   71.4961  224.7465 H   0  0  0  0  0  0  0  0  0  0  0  0
  142.0765   72.9589  226.5728 H   0  0  0  0  0  0  0  0  0  0  0  0
  141.3727   72.4988  228.9291 H   0  0  0  0  0  0  0  0  0  0  0  0
  139.8867   70.5520  229.3659 H   0  0  0  0  0  0  0  0  0  0  0  0
  139.1313   69.1127  227.5304 H   0  0  0  0  0  0  0  0  0  0  0  0
  137.2068   67.2138  222.2316 H   0  0  0  0  0  0  0  0  0  0  0  0
  137.8141   68.7176  221.4593 H   0  0  0  0  0  0  0  0  0  0  0  0
  138.8284   67.2351  221.4593 H   0  0  0  0  0  0  0  0  0  0  0  0
  139.6982   74.3738  222.4706 H   0  0  0  0  0  0  0  0  0  0  0  0
  141.2670   73.4884  222.5991 H   0  0  0  0  0  0  0  0  0  0  0  0
  141.5744   75.9196  222.3571 H   0  0  0  0  0  0  0  0  0  0  0  0
  142.2535   74.9464  220.9539 H   0  0  0  0  0  0  0  0  0  0  0  0
  1  2  1  0
  2  3  1  0
  3  4  2  0
  3  5  1  0
  5  6  1  0
  6  7  2  0
  7  8  1  0
  8  9  2  0
  9 10  1  0
 10 11  2  0
  5 12  1  0
 12 13  1  0
 13 14  1  0
 14 15  1  0
 15 16  1  0
 16 17  2  0
 16 18  1  0
 18 19  1  0
 19 20  1  0
 20 21  1  0
 21 22  1  0
 22 23  2  0
 23 24  1  0
 24 25  2  0
 25 26  1  0
 26 27  2  0
 21 28  2  0
 28 29  1  0
 29 30  1  0
 30 31  1  0
 15 32  1  0
 32 33  1  0
 11  6  1  0
 33 12  1  0
 30 20  2  0
 27 22  1  0
  1 34  1  0
  1 35  1  0
  1 36  1  0
  2 37  1  0
  2 38  1  0
  7 39  1  0
  8 40  1  0
  9 41  1  0
 10 42  1  0
 11 43  1  0
 12 44  1  0
 13 45  1  0
 13 46  1  0
 14 47  1  0
 14 48  1  0
 18 49  1  0
 18 50  1  0
 19 51  1  0
 19 52  1  0
 23 53  1  0
 24 54  1  0
 25 55  1  0
 26 56  1  0
 27 57  1  0
 31 58  1  0
 31 59  1  0
 31 60  1  0
 32 61  1  0
 32 62  1  0
 33 63  1  0
 33 64  1  0
M  END
>  <smiles>  (41) 
CCC(=O)N(c1ccccc1)C1CCN(C(=O)CCc2c(-c3ccccc3)noc2C)CC1

>  <score_type>  (41) 
oracle

>  <origin>  (41) 
autodockgpu

>  <m_score__min__energy>  (41) 
-9.5199999999999996

>  <m_primary>  (41) 
energy

>  <rmsd>  (41) 
7.480555068259345

>  <m_score__min__rmsd>  (41) 
7.480555068259345

>  <meeko>  (41) 
{"free_energy": -8.58, "intermolecular_energy": -10.96, "internal_energy": -2.02, "cluster_size": 14, "cluster_id": 3, "rank_in_cluster": 9}

>  <energy>  (41) 
-6.95

>  <cluster_rmsd>  (41) 
0.56

>  <cluster>  (41) 
12

$$$$

     RDKit          3D

 64 67  0  0  0  0  0  0  0  0999 V2000
  142.9340   78.2000  214.4100 C   0  0  0  0  0  0  0  0  0  0  0  0
  142.7590   76.7830  214.9050 C   0  0  0  0  0  0  0  0  0  0  0  0
  143.2800   76.5740  216.2510 C   0  0  0  0  0  0  0  0  0  0  0  0
  144.4640   76.1320  216.3930 O   0  0  0  0  0  0  0  0  0  0  0  0
  142.5730   76.8210  217.4620 N   0  0  0  0  0  0  0  0  0  0  0  0
  142.7130   75.8470  218.4880 C   0  0  0  0  0  0  0  0  0  0  0  0
  143.7220   75.8380  219.4140 C   0  0  0  0  0  0  0  0  0  0  0  0
  143.8170   74.8630  220.3960 C   0  0  0  0  0  0  0  0  0  0  0  0
  142.8800   73.8450  220.4800 C   0  0  0  0  0  0  0  0  0  0  0  0
  141.8670   73.8590  219.5470 C   0  0  0  0  0  0  0  0  0  0  0  0
  141.7750   74.8390  218.5620 C   0  0  0  0  0  0  0  0  0  0  0  0
  141.7560   78.0320  217.6520 C   0  0  0  0  0  0  0  0  0  0  0  0
  142.1930   78.7900  218.8680 C   0  0  0  0  0  0  0  0  0  0  0  0
  141.1420   79.8240  219.2150 C   0  0  0  0  0  0  0  0  0  0  0  0
  139.9090   79.1560  219.6620 N   0  0  0  0  0  0  0  0  0  0  0  0
  139.0300   79.7590  220.6080 C   0  0  0  0  0  0  0  0  0  0  0  0
  139.3680   80.8850  221.0390 O   0  0  0  0  0  0  0  0  0  0  0  0
  137.8240   79.0130  220.9830 C   0  0  0  0  0  0  0  0  0  0  0  0
  137.9970   78.0540  222.1180 C   0  0  0  0  0  0  0  0  0  0  0  0
  139.1490   77.1750  222.1350 C   0  0  0  0  0  0  0  0  0  0  0  0
  140.4830   77.4150  222.3810 C   0  0  0  0  0  0  0  0  0  0  0  0
  141.1970   78.6280  222.7060 C   0  0  0  0  0  0  0  0  0  0  0  0
  142.4360   78.9950  222.3310 C   0  0  0  0  0  0  0  0  0  0  0  0
  143.0090   80.2130  222.6780 C   0  0  0  0  0  0  0  0  0  0  0  0
  142.2980   81.1160  223.4480 C   0  0  0  0  0  0  0  0  0  0  0  0
  141.0240   80.7630  223.8470 C   0  0  0  0  0  0  0  0  0  0  0  0
  140.4800   79.5540  223.4920 C   0  0  0  0  0  0  0  0  0  0  0  0
  141.1520   76.2130  222.3350 N   0  0  0  0  0  0  0  0  0  0  0  0
  140.3010   75.2750  222.0760 O   0  0  0  0  0  0  0  0  0  0  0  0
  139.0920   75.7850  221.9460 C   0  0  0  0  0  0  0  0  0  0  0  0
  137.9150   74.9310  221.6490 C   0  0  0  0  0  0  0  0  0  0  0  0
  139.6710   77.8490  219.0710 C   0  0  0  0  0  0  0  0  0  0  0  0
  140.2950   77.7610  217.6940 C   0  0  0  0  0  0  0  0  0  0  0  0
  143.0181   78.8810  215.2698 H   0  0  0  0  0  0  0  0  0  0  0  0
  143.8470   78.2652  213.8000 H   0  0  0  0  0  0  0  0  0  0  0  0
  142.0643   78.4853  213.8000 H   0  0  0  0  0  0  0  0  0  0  0  0
  141.6855   76.5432  214.9049 H   0  0  0  0  0  0  0  0  0  0  0  0
  143.3297   76.1289  214.2294 H   0  0  0  0  0  0  0  0  0  0  0  0
  144.4832   76.6312  219.3777 H   0  0  0  0  0  0  0  0  0  0  0  0
  144.6466   74.8981  221.1174 H   0  0  0  0  0  0  0  0  0  0  0  0
  142.9424   73.0650  221.2531 H   0  0  0  0  0  0  0  0  0  0  0  0
  141.1035   73.0679  219.5811 H   0  0  0  0  0  0  0  0  0  0  0  0
  140.9478   74.8088  217.8375 H   0  0  0  0  0  0  0  0  0  0  0  0
  141.9269   78.6557  216.7622 H   0  0  0  0  0  0  0  0  0  0  0  0
  142.3165   78.0939  219.7107 H   0  0  0  0  0  0  0  0  0  0  0  0
  143.1515   79.2907  218.6666 H   0  0  0  0  0  0  0  0  0  0  0  0
  141.5190   80.4707  220.0210 H   0  0  0  0  0  0  0  0  0  0  0  0
  140.9224   80.4298  218.3235 H   0  0  0  0  0  0  0  0  0  0  0  0
  137.0484   79.7397  221.2664 H   0  0  0  0  0  0  0  0  0  0  0  0
  137.5559   78.4046  220.1067 H   0  0  0  0  0  0  0  0  0  0  0  0
  138.0363   78.6522  223.0403 H   0  0  0  0  0  0  0  0  0  0  0  0
  137.1459   77.3656  222.0091 H   0  0  0  0  0  0  0  0  0  0  0  0
  143.0251   78.2961  221.7191 H   0  0  0  0  0  0  0  0  0  0  0  0
  144.0268   80.4586  222.3407 H   0  0  0  0  0  0  0  0  0  0  0  0
  142.7338   82.0848  223.7335 H   0  0  0  0  0  0  0  0  0  0  0  0
  140.4356   81.4622  224.4593 H   0  0  0  0  0  0  0  0  0  0  0  0
  139.4632   79.3018  223.8276 H   0  0  0  0  0  0  0  0  0  0  0  0
  137.4563   74.5981  222.5917 H   0  0  0  0  0  0  0  0  0  0  0  0
  137.1807   75.5079  221.0676 H   0  0  0  0  0  0  0  0  0  0  0  0
  138.2357   74.0540  221.0676 H   0  0  0  0  0  0  0  0  0  0  0  0
  140.1116   77.0753  219.7169 H   0  0  0  0  0  0  0  0  0  0  0  0
  138.5857   77.6963  218.9772 H   0  0  0  0  0  0  0  0  0  0  0  0
  140.1241   76.7463  217.3053 H   0  0  0  0  0  0  0  0  0  0  0  0
  139.8176   78.5448  217.0876 H   0  0  0  0  0  0  0  0  0  0  0  0
  1  2  1  0
  2  3  1  0
  3  4  2  0
  3  5  1  0
  5  6  1  0
  6  7  2  0
  7  8  1  0
  8  9  2  0
  9 10  1  0
 10 11  2  0
  5 12  1  0
 12 13  1  0
 13 14  1  0
 14 15  1  0
 15 16  1  0
 16 17  2  0
 16 18  1  0
 18 19  1  0
 19 20  1  0
 20 21  1  0
 21 22  1  0
 22 23  2  0
 23 24  1  0
 24 25  2  0
 25 26  1  0
 26 27  2  0
 21 28  2  0
 28 29  1  0
 29 30  1  0
 30 31  1  0
 15 32  1  0
 32 33  1  0
 11  6  1  0
 33 12  1  0
 30 20  2  0
 27 22  1  0
  1 34  1  0
  1 35  1  0
  1 36  1  0
  2 37  1  0
  2 38  1  0
  7 39  1  0
  8 40  1  0
  9 41  1  0
 10 42  1  0
 11 43  1  0
 12 44  1  0
 13 45  1  0
 13 46  1  0
 14 47  1  0
 14 48  1  0
 18 49  1  0
 18 50  1  0
 19 51  1  0
 19 52  1  0
 23 53  1  0
 24 54  1  0
 25 55  1  0
 26 56  1  0
 27 57  1  0
 31 58  1  0
 31 59  1  0
 31 60  1  0
 32 61  1  0
 32 62  1  0
 33 63  1  0
 33 64  1  0
M  END
>  <smiles>  (42) 
CCC(=O)N(c1ccccc1)C1CCN(C(=O)CCc2c(-c3ccccc3)noc2C)CC1

>  <score_type>  (42) 
oracle

>  <origin>  (42) 
autodockgpu

>  <m_score__min__energy>  (42) 
-9.5199999999999996

>  <m_primary>  (42) 
energy

>  <rmsd>  (42) 
4.553055430614361

>  <m_score__min__rmsd>  (42) 
4.553055430614361

>  <meeko>  (42) 
{"free_energy": -6.02, "intermolecular_energy": -8.41, "internal_energy": -3.93, "cluster_size": 1, "cluster_id": 15, "rank_in_cluster": 1}

>  <energy>  (42) 
-6.86

>  <cluster_rmsd>  (42) 
0.61

>  <cluster>  (42) 
12

$$$$

     RDKit          3D

 64 67  0  0  0  0  0  0  0  0999 V2000
  142.6950   71.0830  217.0700 C   0  0  0  0  0  0  0  0  0  0  0  0
  144.1140   71.5860  216.9320 C   0  0  0  0  0  0  0  0  0  0  0  0
  144.8650   71.5460  218.1820 C   0  0  0  0  0  0  0  0  0  0  0  0
  145.9400   72.2180  218.2770 O   0  0  0  0  0  0  0  0  0  0  0  0
  144.5030   70.8070  219.3430 N   0  0  0  0  0  0  0  0  0  0  0  0
  144.8070   69.4180  219.3310 C   0  0  0  0  0  0  0  0  0  0  0  0
  146.0770   68.9040  219.3430 C   0  0  0  0  0  0  0  0  0  0  0  0
  146.3230   67.5390  219.3270 C   0  0  0  0  0  0  0  0  0  0  0  0
  145.2780   66.6290  219.2990 C   0  0  0  0  0  0  0  0  0  0  0  0
  144.0030   67.1500  219.2870 C   0  0  0  0  0  0  0  0  0  0  0  0
  143.7600   68.5220  219.3030 C   0  0  0  0  0  0  0  0  0  0  0  0
  143.8660   71.4480  220.5060 C   0  0  0  0  0  0  0  0  0  0  0  0
  142.3740   71.3440  220.4280 C   0  0  0  0  0  0  0  0  0  0  0  0
  141.7540   72.2840  221.4410 C   0  0  0  0  0  0  0  0  0  0  0  0
  142.0120   73.6800  221.0550 N   0  0  0  0  0  0  0  0  0  0  0  0
  141.1020   74.7280  221.3780 C   0  0  0  0  0  0  0  0  0  0  0  0
  140.0710   74.3920  222.0040 O   0  0  0  0  0  0  0  0  0  0  0  0
  141.4550   76.0860  220.9530 C   0  0  0  0  0  0  0  0  0  0  0  0
  140.2940   76.9710  220.6240 C   0  0  0  0  0  0  0  0  0  0  0  0
  139.4630   77.4790  221.6970 C   0  0  0  0  0  0  0  0  0  0  0  0
  139.7070   78.4010  222.6900 C   0  0  0  0  0  0  0  0  0  0  0  0
  140.8810   79.1800  223.0100 C   0  0  0  0  0  0  0  0  0  0  0  0
  142.1680   78.9120  222.7220 C   0  0  0  0  0  0  0  0  0  0  0  0
  143.2170   79.7620  223.0520 C   0  0  0  0  0  0  0  0  0  0  0  0
  142.9600   80.9510  223.7140 C   0  0  0  0  0  0  0  0  0  0  0  0
  141.6480   81.2490  224.0220 C   0  0  0  0  0  0  0  0  0  0  0  0
  140.6290   80.3930  223.6850 C   0  0  0  0  0  0  0  0  0  0  0  0
  138.5490   78.5700  223.4160 N   0  0  0  0  0  0  0  0  0  0  0  0
  137.6330   77.8070  222.9160 O   0  0  0  0  0  0  0  0  0  0  0  0
  138.1150   77.1320  221.8910 C   0  0  0  0  0  0  0  0  0  0  0  0
  137.2770   76.1790  221.1230 C   0  0  0  0  0  0  0  0  0  0  0  0
  143.2510   73.8950  220.3240 C   0  0  0  0  0  0  0  0  0  0  0  0
  144.2870   72.8600  220.7080 C   0  0  0  0  0  0  0  0  0  0  0  0
  142.4401   70.9926  218.1362 H   0  0  0  0  0  0  0  0  0  0  0  0
  142.0062   71.7917  216.5871 H   0  0  0  0  0  0  0  0  0  0  0  0
  142.6063   70.0987  216.5871 H   0  0  0  0  0  0  0  0  0  0  0  0
  144.6352   70.9615  216.1915 H   0  0  0  0  0  0  0  0  0  0  0  0
  144.0572   72.6393  216.6199 H   0  0  0  0  0  0  0  0  0  0  0  0
  146.9306   69.5974  219.3661 H   0  0  0  0  0  0  0  0  0  0  0  0
  147.3607   67.1741  219.3366 H   0  0  0  0  0  0  0  0  0  0  0  0
  145.4580   65.5439  219.2869 H   0  0  0  0  0  0  0  0  0  0  0  0
  143.1472   66.4593  219.2640 H   0  0  0  0  0  0  0  0  0  0  0  0
  142.7245   68.8929  219.2932 H   0  0  0  0  0  0  0  0  0  0  0  0
  144.2167   70.8922  221.3881 H   0  0  0  0  0  0  0  0  0  0  0  0
  142.0386   71.6196  219.4173 H   0  0  0  0  0  0  0  0  0  0  0  0
  142.0643   70.3111  220.6454 H   0  0  0  0  0  0  0  0  0  0  0  0
  140.6683   72.1117  221.4812 H   0  0  0  0  0  0  0  0  0  0  0  0
  142.1984   72.0943  222.4292 H   0  0  0  0  0  0  0  0  0  0  0  0
  142.0250   76.5599  221.7657 H   0  0  0  0  0  0  0  0  0  0  0  0
  142.0292   75.9755  220.0213 H   0  0  0  0  0  0  0  0  0  0  0  0
  140.6972   77.8439  220.0896 H   0  0  0  0  0  0  0  0  0  0  0  0
  139.6169   76.3133  220.0592 H   0  0  0  0  0  0  0  0  0  0  0  0
  142.4015   77.9729  222.1990 H   0  0  0  0  0  0  0  0  0  0  0  0
  144.2498   79.4907  222.7878 H   0  0  0  0  0  0  0  0  0  0  0  0
  143.7761   81.6366  223.9859 H   0  0  0  0  0  0  0  0  0  0  0  0
  141.4151   82.1877  224.5460 H   0  0  0  0  0  0  0  0  0  0  0  0
  139.5941   80.6585  223.9468 H   0  0  0  0  0  0  0  0  0  0  0  0
  136.7153   75.5402  221.8204 H   0  0  0  0  0  0  0  0  0  0  0  0
  136.5727   76.7381  220.4895 H   0  0  0  0  0  0  0  0  0  0  0  0
  137.9216   75.5520  220.4895 H   0  0  0  0  0  0  0  0  0  0  0  0
  143.0506   73.8219  219.2449 H   0  0  0  0  0  0  0  0  0  0  0  0
  143.6397   74.8932  220.5739 H   0  0  0  0  0  0  0  0  0  0  0  0
  145.1883   73.0378  220.1029 H   0  0  0  0  0  0  0  0  0  0  0  0
  144.4572   72.9797  221.7881 H   0  0  0  0  0  0  0  0  0  0  0  0
  1  2  1  0
  2  3  1  0
  3  4  2  0
  3  5  1  0
  5  6  1  0
  6  7  2  0
  7  8  1  0
  8  9  2  0
  9 10  1  0
 10 11  2  0
  5 12  1  0
 12 13  1  0
 13 14  1  0
 14 15  1  0
 15 16  1  0
 16 17  2  0
 16 18  1  0
 18 19  1  0
 19 20  1  0
 20 21  1  0
 21 22  1  0
 22 23  2  0
 23 24  1  0
 24 25  2  0
 25 26  1  0
 26 27  2  0
 21 28  2  0
 28 29  1  0
 29 30  1  0
 30 31  1  0
 15 32  1  0
 32 33  1  0
 11  6  1  0
 33 12  1  0
 30 20  2  0
 27 22  1  0
  1 34  1  0
  1 35  1  0
  1 36  1  0
  2 37  1  0
  2 38  1  0
  7 39  1  0
  8 40  1  0
  9 41  1  0
 10 42  1  0
 11 43  1  0
 12 44  1  0
 13 45  1  0
 13 46  1  0
 14 47  1  0
 14 48  1  0
 18 49  1  0
 18 50  1  0
 19 51  1  0
 19 52  1  0
 23 53  1  0
 24 54  1  0
 25 55  1  0
 26 56  1  0
 27 57  1  0
 31 58  1  0
 31 59  1  0
 31 60  1  0
 32 61  1  0
 32 62  1  0
 33 63  1  0
 33 64  1  0
M  END
>  <smiles>  (43) 
CCC(=O)N(c1ccccc1)C1CCN(C(=O)CCc2c(-c3ccccc3)noc2C)CC1

>  <score_type>  (43) 
oracle

>  <origin>  (43) 
autodockgpu

>  <m_score__min__energy>  (43) 
-9.5199999999999996

>  <m_primary>  (43) 
energy

>  <rmsd>  (43) 
6.9126094272191345

>  <m_score__min__rmsd>  (43) 
6.9126094272191345

>  <meeko>  (43) 
{"free_energy": -8.11, "intermolecular_energy": -10.5, "internal_energy": -2.02, "cluster_size": 1, "cluster_id": 8, "rank_in_cluster": 1}

>  <energy>  (43) 
-6.83

>  <cluster_rmsd>  (43) 
0.67

>  <cluster>  (43) 
12

$$$$

     RDKit          3D

 64 67  0  0  0  0  0  0  0  0999 V2000
  142.5600   78.1300  218.0110 C   0  0  0  0  0  0  0  0  0  0  0  0
  142.9450   76.6690  217.9600 C   0  0  0  0  0  0  0  0  0  0  0  0
  142.0560   75.8110  218.7360 C   0  0  0  0  0  0  0  0  0  0  0  0
  141.0060   75.3520  218.1850 O   0  0  0  0  0  0  0  0  0  0  0  0
  142.2520   75.4240  220.0920 N   0  0  0  0  0  0  0  0  0  0  0  0
  143.2810   74.4750  220.3370 C   0  0  0  0  0  0  0  0  0  0  0  0
  143.0750   73.1280  220.4830 C   0  0  0  0  0  0  0  0  0  0  0  0
  144.1140   72.2410  220.7240 C   0  0  0  0  0  0  0  0  0  0  0  0
  145.4210   72.6900  220.8270 C   0  0  0  0  0  0  0  0  0  0  0  0
  145.6240   74.0450  220.6800 C   0  0  0  0  0  0  0  0  0  0  0  0
  144.5780   74.9320  220.4380 C   0  0  0  0  0  0  0  0  0  0  0  0
  141.4470   75.9920  221.1870 C   0  0  0  0  0  0  0  0  0  0  0  0
  140.2620   75.1260  221.4870 C   0  0  0  0  0  0  0  0  0  0  0  0
  139.2950   75.8920  222.3670 C   0  0  0  0  0  0  0  0  0  0  0  0
  138.7090   77.0110  221.6120 N   0  0  0  0  0  0  0  0  0  0  0  0
  137.3940   77.4910  221.8830 C   0  0  0  0  0  0  0  0  0  0  0  0
  136.7670   76.9040  222.7950 O   0  0  0  0  0  0  0  0  0  0  0  0
  136.9050   78.6160  221.0790 C   0  0  0  0  0  0  0  0  0  0  0  0
  137.4220   79.9600  221.4870 C   0  0  0  0  0  0  0  0  0  0  0  0
  137.5460   80.2760  222.8960 C   0  0  0  0  0  0  0  0  0  0  0  0
  138.6430   80.3620  223.7230 C   0  0  0  0  0  0  0  0  0  0  0  0
  140.0530   80.1660  223.4750 C   0  0  0  0  0  0  0  0  0  0  0  0
  140.8250   79.1190  223.8170 C   0  0  0  0  0  0  0  0  0  0  0  0
  142.1720   79.0240  223.4890 C   0  0  0  0  0  0  0  0  0  0  0  0
  142.7820   80.0430  222.7780 C   0  0  0  0  0  0  0  0  0  0  0  0
  142.0130   81.1300  222.4150 C   0  0  0  0  0  0  0  0  0  0  0  0
  140.6830   81.2000  222.7510 C   0  0  0  0  0  0  0  0  0  0  0  0
  138.2130   80.7610  224.9690 N   0  0  0  0  0  0  0  0  0  0  0  0
  136.9300   80.9160  224.9330 O   0  0  0  0  0  0  0  0  0  0  0  0
  136.4740   80.6420  223.7260 C   0  0  0  0  0  0  0  0  0  0  0  0
  135.0310   80.7410  223.3980 C   0  0  0  0  0  0  0  0  0  0  0  0
  139.5680   77.5730  220.5830 C   0  0  0  0  0  0  0  0  0  0  0  0
  141.0270   77.3980  220.9460 C   0  0  0  0  0  0  0  0  0  0  0  0
  142.4755   78.4505  219.0599 H   0  0  0  0  0  0  0  0  0  0  0  0
  143.3307   78.7301  217.5051 H   0  0  0  0  0  0  0  0  0  0  0  0
  141.5937   78.2724  217.5051 H   0  0  0  0  0  0  0  0  0  0  0  0
  142.9220   76.3382  216.9112 H   0  0  0  0  0  0  0  0  0  0  0  0
  143.9493   76.5809  218.4002 H   0  0  0  0  0  0  0  0  0  0  0  0
  142.0499   72.7365  220.4064 H   0  0  0  0  0  0  0  0  0  0  0  0
  143.8978   71.1681  220.8347 H   0  0  0  0  0  0  0  0  0  0  0  0
  146.2554   71.9988  221.0168 H   0  0  0  0  0  0  0  0  0  0  0  0
  146.6479   74.4398  220.7564 H   0  0  0  0  0  0  0  0  0  0  0  0
  144.7882   76.0060  220.3265 H   0  0  0  0  0  0  0  0  0  0  0  0
  142.1053   76.0147  222.0680 H   0  0  0  0  0  0  0  0  0  0  0  0
  139.7626   74.8474  220.5473 H   0  0  0  0  0  0  0  0  0  0  0  0
  140.5924   74.2147  222.0070 H   0  0  0  0  0  0  0  0  0  0  0  0
  138.4928   75.2174  222.7006 H   0  0  0  0  0  0  0  0  0  0  0  0
  139.8353   76.2876  223.2397 H   0  0  0  0  0  0  0  0  0  0  0  0
  137.1989   78.4408  220.0335 H   0  0  0  0  0  0  0  0  0  0  0  0
  135.8157   78.6486  221.2283 H   0  0  0  0  0  0  0  0  0  0  0  0
  138.4239   80.0657  221.0454 H   0  0  0  0  0  0  0  0  0  0  0  0
  136.6469   80.6552  221.1321 H   0  0  0  0  0  0  0  0  0  0  0  0
  140.3668   78.2961  224.3852 H   0  0  0  0  0  0  0  0  0  0  0  0
  142.7524   78.1407  223.7938 H   0  0  0  0  0  0  0  0  0  0  0  0
  143.8475   79.9881  222.5104 H   0  0  0  0  0  0  0  0  0  0  0  0
  142.4723   81.9530  221.8478 H   0  0  0  0  0  0  0  0  0  0  0  0
  140.0969   82.0806  222.4493 H   0  0  0  0  0  0  0  0  0  0  0  0
  134.4454   80.7812  224.3283 H   0  0  0  0  0  0  0  0  0  0  0  0
  134.8501   81.6537  222.8112 H   0  0  0  0  0  0  0  0  0  0  0  0
  134.7272   79.8616  222.8112 H   0  0  0  0  0  0  0  0  0  0  0  0
  139.3699   77.0621  219.6292 H   0  0  0  0  0  0  0  0  0  0  0  0
  139.3535   78.6482  220.4932 H   0  0  0  0  0  0  0  0  0  0  0  0
  141.6349   77.8000  220.1220 H   0  0  0  0  0  0  0  0  0  0  0  0
  141.1751   77.9318  221.8963 H   0  0  0  0  0  0  0  0  0  0  0  0
  1  2  1  0
  2  3  1  0
  3  4  2  0
  3  5  1  0
  5  6  1  0
  6  7  2  0
  7  8  1  0
  8  9  2  0
  9 10  1  0
 10 11  2  0
  5 12  1  0
 12 13  1  0
 13 14  1  0
 14 15  1  0
 15 16  1  0
 16 17  2  0
 16 18  1  0
 18 19  1  0
 19 20  1  0
 20 21  1  0
 21 22  1  0
 22 23  2  0
 23 24  1  0
 24 25  2  0
 25 26  1  0
 26 27  2  0
 21 28  2  0
 28 29  1  0
 29 30  1  0
 30 31  1  0
 15 32  1  0
 32 33  1  0
 11  6  1  0
 33 12  1  0
 30 20  2  0
 27 22  1  0
  1 34  1  0
  1 35  1  0
  1 36  1  0
  2 37  1  0
  2 38  1  0
  7 39  1  0
  8 40  1  0
  9 41  1  0
 10 42  1  0
 11 43  1  0
 12 44  1  0
 13 45  1  0
 13 46  1  0
 14 47  1  0
 14 48  1  0
 18 49  1  0
 18 50  1  0
 19 51  1  0
 19 52  1  0
 23 53  1  0
 24 54  1  0
 25 55  1  0
 26 56  1  0
 27 57  1  0
 31 58  1  0
 31 59  1  0
 31 60  1  0
 32 61  1  0
 32 62  1  0
 33 63  1  0
 33 64  1  0
M  END
>  <smiles>  (44) 
CCC(=O)N(c1ccccc1)C1CCN(C(=O)CCc2c(-c3ccccc3)noc2C)CC1

>  <score_type>  (44) 
oracle

>  <origin>  (44) 
autodockgpu

>  <m_score__min__energy>  (44) 
-9.5199999999999996

>  <m_primary>  (44) 
energy

>  <rmsd>  (44) 
6.3340593373031

>  <m_score__min__rmsd>  (44) 
6.3340593373031

>  <meeko>  (44) 
{"free_energy": -7.13, "intermolecular_energy": -9.52, "internal_energy": -3.01, "cluster_size": 2, "cluster_id": 13, "rank_in_cluster": 1}

>  <energy>  (44) 
-6.81

>  <cluster_rmsd>  (44) 
0.65

>  <cluster>  (44) 
12

$$$$

     RDKit          3D

 64 67  0  0  0  0  0  0  0  0999 V2000
  142.5460   81.1250  217.8470 C   0  0  0  0  0  0  0  0  0  0  0  0
  141.5380   80.7360  218.9040 C   0  0  0  0  0  0  0  0  0  0  0  0
  141.8090   79.4360  219.5080 C   0  0  0  0  0  0  0  0  0  0  0  0
  142.5630   78.6160  218.8950 O   0  0  0  0  0  0  0  0  0  0  0  0
  141.2960   78.9780  220.7550 N   0  0  0  0  0  0  0  0  0  0  0  0
  141.6120   79.7640  221.8960 C   0  0  0  0  0  0  0  0  0  0  0  0
  140.7110   80.5410  222.5750 C   0  0  0  0  0  0  0  0  0  0  0  0
  141.0690   81.2930  223.6850 C   0  0  0  0  0  0  0  0  0  0  0  0
  142.3720   81.2870  224.1570 C   0  0  0  0  0  0  0  0  0  0  0  0
  143.2750   80.5040  223.4710 C   0  0  0  0  0  0  0  0  0  0  0  0
  142.9120   79.7500  222.3570 C   0  0  0  0  0  0  0  0  0  0  0  0
  140.4650   77.7670  220.8560 C   0  0  0  0  0  0  0  0  0  0  0  0
  140.6310   77.1100  222.1920 C   0  0  0  0  0  0  0  0  0  0  0  0
  140.0360   75.7180  222.1410 C   0  0  0  0  0  0  0  0  0  0  0  0
  140.8330   74.8640  221.2470 N   0  0  0  0  0  0  0  0  0  0  0  0
  140.9480   73.4590  221.4580 C   0  0  0  0  0  0  0  0  0  0  0  0
  140.3360   72.9960  222.4480 O   0  0  0  0  0  0  0  0  0  0  0  0
  141.7610   72.6950  220.5060 C   0  0  0  0  0  0  0  0  0  0  0  0
  143.0390   72.1480  221.0580 C   0  0  0  0  0  0  0  0  0  0  0  0
  144.2340   72.1680  220.2380 C   0  0  0  0  0  0  0  0  0  0  0  0
  144.8830   71.1760  219.5370 C   0  0  0  0  0  0  0  0  0  0  0  0
  144.6010   69.7680  219.3790 C   0  0  0  0  0  0  0  0  0  0  0  0
  143.4060   69.1640  219.2470 C   0  0  0  0  0  0  0  0  0  0  0  0
  143.2590   67.7940  219.0630 C   0  0  0  0  0  0  0  0  0  0  0  0
  144.3780   66.9810  219.0110 C   0  0  0  0  0  0  0  0  0  0  0  0
  145.6160   67.5760  219.1460 C   0  0  0  0  0  0  0  0  0  0  0  0
  145.7360   68.9310  219.3260 C   0  0  0  0  0  0  0  0  0  0  0  0
  145.9430   71.7450  218.8670 N   0  0  0  0  0  0  0  0  0  0  0  0
  145.9640   73.0120  219.1260 O   0  0  0  0  0  0  0  0  0  0  0  0
  144.9720   73.3240  219.9360 C   0  0  0  0  0  0  0  0  0  0  0  0
  144.7530   74.7180  220.3970 C   0  0  0  0  0  0  0  0  0  0  0  0
  141.4860   75.5630  220.1520 C   0  0  0  0  0  0  0  0  0  0  0  0
  140.6990   76.7940  219.7560 C   0  0  0  0  0  0  0  0  0  0  0  0
  143.4671   81.4805  218.3319 H   0  0  0  0  0  0  0  0  0  0  0  0
  142.7756   80.2509  217.2199 H   0  0  0  0  0  0  0  0  0  0  0  0
  142.1289   81.9267  217.2199 H   0  0  0  0  0  0  0  0  0  0  0  0
  141.5508   81.4988  219.6964 H   0  0  0  0  0  0  0  0  0  0  0  0
  140.5573   80.6682  218.4103 H   0  0  0  0  0  0  0  0  0  0  0  0
  139.6675   80.5698  222.2283 H   0  0  0  0  0  0  0  0  0  0  0  0
  140.3089   81.9016  224.1967 H   0  0  0  0  0  0  0  0  0  0  0  0
  142.6706   81.8778  225.0355 H   0  0  0  0  0  0  0  0  0  0  0  0
  144.3193   80.4732  223.8151 H   0  0  0  0  0  0  0  0  0  0  0  0
  143.6676   79.1391  221.8414 H   0  0  0  0  0  0  0  0  0  0  0  0
  139.4235   78.1051  220.7515 H   0  0  0  0  0  0  0  0  0  0  0  0
  141.7009   77.0438  222.4388 H   0  0  0  0  0  0  0  0  0  0  0  0
  140.1161   77.7036  222.9618 H   0  0  0  0  0  0  0  0  0  0  0  0
  140.0339   75.2852  223.1523 H   0  0  0  0  0  0  0  0  0  0  0  0
  139.0060   75.7787  221.7597 H   0  0  0  0  0  0  0  0  0  0  0  0
  141.1571   71.8500  220.1437 H   0  0  0  0  0  0  0  0  0  0  0  0
  142.0476   73.4010  219.7127 H   0  0  0  0  0  0  0  0  0  0  0  0
  143.2659   72.7211  221.9691 H   0  0  0  0  0  0  0  0  0  0  0  0
  142.8291   71.0757  221.1848 H   0  0  0  0  0  0  0  0  0  0  0  0
  142.4995   69.7858  219.2867 H   0  0  0  0  0  0  0  0  0  0  0  0
  142.2550   67.3567  218.9589 H   0  0  0  0  0  0  0  0  0  0  0  0
  144.2836   65.8946  218.8666 H   0  0  0  0  0  0  0  0  0  0  0  0
  146.5220   66.9533  219.1086 H   0  0  0  0  0  0  0  0  0  0  0  0
  146.7374   69.3739  219.4312 H   0  0  0  0  0  0  0  0  0  0  0  0
  144.7489   74.7442  221.4967 H   0  0  0  0  0  0  0  0  0  0  0  0
  145.5612   75.3608  220.0180 H   0  0  0  0  0  0  0  0  0  0  0  0
  143.7867   75.0820  220.0180 H   0  0  0  0  0  0  0  0  0  0  0  0
  142.4950   75.8661  220.4681 H   0  0  0  0  0  0  0  0  0  0  0  0
  141.5434   74.8871  219.2861 H   0  0  0  0  0  0  0  0  0  0  0  0
  141.2500   77.3091  218.9553 H   0  0  0  0  0  0  0  0  0  0  0  0
  139.7066   76.4384  219.4417 H   0  0  0  0  0  0  0  0  0  0  0  0
  1  2  1  0
  2  3  1  0
  3  4  2  0
  3  5  1  0
  5  6  1  0
  6  7  2  0
  7  8  1  0
  8  9  2  0
  9 10  1  0
 10 11  2  0
  5 12  1  0
 12 13  1  0
 13 14  1  0
 14 15  1  0
 15 16  1  0
 16 17  2  0
 16 18  1  0
 18 19  1  0
 19 20  1  0
 20 21  1  0
 21 22  1  0
 22 23  2  0
 23 24  1  0
 24 25  2  0
 25 26  1  0
 26 27  2  0
 21 28  2  0
 28 29  1  0
 29 30  1  0
 30 31  1  0
 15 32  1  0
 32 33  1  0
 11  6  1  0
 33 12  1  0
 30 20  2  0
 27 22  1  0
  1 34  1  0
  1 35  1  0
  1 36  1  0
  2 37  1  0
  2 38  1  0
  7 39  1  0
  8 40  1  0
  9 41  1  0
 10 42  1  0
 11 43  1  0
 12 44  1  0
 13 45  1  0
 13 46  1  0
 14 47  1  0
 14 48  1  0
 18 49  1  0
 18 50  1  0
 19 51  1  0
 19 52  1  0
 23 53  1  0
 24 54  1  0
 25 55  1  0
 26 56  1  0
 27 57  1  0
 31 58  1  0
 31 59  1  0
 31 60  1  0
 32 61  1  0
 32 62  1  0
 33 63  1  0
 33 64  1  0
M  END
>  <smiles>  (45) 
CCC(=O)N(c1ccccc1)C1CCN(C(=O)CCc2c(-c3ccccc3)noc2C)CC1

>  <score_type>  (45) 
oracle

>  <origin>  (45) 
autodockgpu

>  <m_score__min__energy>  (45) 
-9.5199999999999996

>  <m_primary>  (45) 
energy

>  <rmsd>  (45) 
5.497986073457676

>  <m_score__min__rmsd>  (45) 
5.497986073457676

>  <meeko>  (45) 
{"free_energy": -8.99, "intermolecular_energy": -11.38, "internal_energy": -1.87, "cluster_size": 3, "cluster_id": 5, "rank_in_cluster": 1}

>  <energy>  (45) 
-6.77

>  <cluster_rmsd>  (45) 
0.7

>  <cluster>  (45) 
12

$$$$

     RDKit          3D

 64 67  0  0  0  0  0  0  0  0999 V2000
  146.1330   73.0230  221.6780 C   0  0  0  0  0  0  0  0  0  0  0  0
  146.2980   73.7210  220.3480 C   0  0  0  0  0  0  0  0  0  0  0  0
  145.7010   72.9900  219.2360 C   0  0  0  0  0  0  0  0  0  0  0  0
  146.2670   73.0300  218.0980 O   0  0  0  0  0  0  0  0  0  0  0  0
  144.5100   72.2130  219.2980 N   0  0  0  0  0  0  0  0  0  0  0  0
  144.6700   70.8020  219.2250 C   0  0  0  0  0  0  0  0  0  0  0  0
  144.0970   69.9120  220.0950 C   0  0  0  0  0  0  0  0  0  0  0  0
  144.2860   68.5420  219.9830 C   0  0  0  0  0  0  0  0  0  0  0  0
  145.0720   68.0130  218.9720 C   0  0  0  0  0  0  0  0  0  0  0  0
  145.6460   68.9120  218.1000 C   0  0  0  0  0  0  0  0  0  0  0  0
  145.4550   70.2870  218.2150 C   0  0  0  0  0  0  0  0  0  0  0  0
  143.1840   72.8340  219.4510 C   0  0  0  0  0  0  0  0  0  0  0  0
  143.0260   73.4370  220.8120 C   0  0  0  0  0  0  0  0  0  0  0  0
  141.5660   73.7630  221.0480 C   0  0  0  0  0  0  0  0  0  0  0  0
  140.7830   72.5220  221.1410 N   0  0  0  0  0  0  0  0  0  0  0  0
  139.6070   72.4340  221.9420 C   0  0  0  0  0  0  0  0  0  0  0  0
  139.2830   73.4710  222.5650 O   0  0  0  0  0  0  0  0  0  0  0  0
  138.8940   71.1520  221.9610 C   0  0  0  0  0  0  0  0  0  0  0  0
  138.3190   70.7650  223.2860 C   0  0  0  0  0  0  0  0  0  0  0  0
  138.7670   69.5430  223.9250 C   0  0  0  0  0  0  0  0  0  0  0  0
  139.5070   69.3210  225.0640 C   0  0  0  0  0  0  0  0  0  0  0  0
  140.0980   70.2300  226.0190 C   0  0  0  0  0  0  0  0  0  0  0  0
  140.9010   71.2840  225.7860 C   0  0  0  0  0  0  0  0  0  0  0  0
  141.3820   72.1140  226.7910 C   0  0  0  0  0  0  0  0  0  0  0  0
  141.0390   71.8710  228.1100 C   0  0  0  0  0  0  0  0  0  0  0  0
  140.2170   70.7950  228.3770 C   0  0  0  0  0  0  0  0  0  0  0  0
  139.7540   69.9890  227.3670 C   0  0  0  0  0  0  0  0  0  0  0  0
  139.5970   67.9610  225.2610 N   0  0  0  0  0  0  0  0  0  0  0  0
  138.9570   67.3620  224.3110 O   0  0  0  0  0  0  0  0  0  0  0  0
  138.4410   68.2500  223.4830 C   0  0  0  0  0  0  0  0  0  0  0  0
  137.6490   67.8400  222.2980 C   0  0  0  0  0  0  0  0  0  0  0  0
  141.3030   71.4090  220.3620 C   0  0  0  0  0  0  0  0  0  0  0  0
  142.0580   71.9100  219.1490 C   0  0  0  0  0  0  0  0  0  0  0  0
  146.3030   73.7420  222.4930 H   0  0  0  0  0  0  0  0  0  0  0  0
  145.1139   72.6161  221.7546 H   0  0  0  0  0  0  0  0  0  0  0  0
  146.8620   72.2028  221.7546 H   0  0  0  0  0  0  0  0  0  0  0  0
  145.8218   74.7106  220.4114 H   0  0  0  0  0  0  0  0  0  0  0  0
  147.3775   73.7931  220.1491 H   0  0  0  0  0  0  0  0  0  0  0  0
  143.4659   70.2966  220.9097 H   0  0  0  0  0  0  0  0  0  0  0  0
  143.8055   67.8669  220.7064 H   0  0  0  0  0  0  0  0  0  0  0  0
  145.2299   66.9291  218.8706 H   0  0  0  0  0  0  0  0  0  0  0  0
  146.2775   68.5305  217.2841 H   0  0  0  0  0  0  0  0  0  0  0  0
  145.9338   70.9669  217.4949 H   0  0  0  0  0  0  0  0  0  0  0  0
  143.1362   73.6344  218.6980 H   0  0  0  0  0  0  0  0  0  0  0  0
  143.3706   72.7216  221.5732 H   0  0  0  0  0  0  0  0  0  0  0  0
  143.6248   74.3573  220.8793 H   0  0  0  0  0  0  0  0  0  0  0  0
  141.4659   74.3282  221.9864 H   0  0  0  0  0  0  0  0  0  0  0  0
  141.1899   74.3655  220.2080 H   0  0  0  0  0  0  0  0  0  0  0  0
  138.0692   71.2102  221.2356 H   0  0  0  0  0  0  0  0  0  0  0  0
  139.6408   70.3827  221.7149 H   0  0  0  0  0  0  0  0  0  0  0  0
  138.5348   71.5888  223.9823 H   0  0  0  0  0  0  0  0  0  0  0  0
  137.2599   70.5687  223.0627 H   0  0  0  0  0  0  0  0  0  0  0  0
  141.1914   71.4995  224.7472 H   0  0  0  0  0  0  0  0  0  0  0  0
  142.0344   72.9630  226.5390 H   0  0  0  0  0  0  0  0  0  0  0  0
  141.4102   72.5157  228.9203 H   0  0  0  0  0  0  0  0  0  0  0  0
  139.9281   70.5798  229.4163 H   0  0  0  0  0  0  0  0  0  0  0  0
  139.1017   69.1381  227.6128 H   0  0  0  0  0  0  0  0  0  0  0  0
  136.7173   67.3577  222.6287 H   0  0  0  0  0  0  0  0  0  0  0  0
  137.4082   68.7267  221.6932 H   0  0  0  0  0  0  0  0  0  0  0  0
  138.2340   67.1315  221.6932 H   0  0  0  0  0  0  0  0  0  0  0  0
  141.9830   70.8151  220.9904 H   0  0  0  0  0  0  0  0  0  0  0  0
  140.4590   70.7908  220.0222 H   0  0  0  0  0  0  0  0  0  0  0  0
  142.4647   71.0383  218.6154 H   0  0  0  0  0  0  0  0  0  0  0  0
  141.3362   72.4872  218.5525 H   0  0  0  0  0  0  0  0  0  0  0  0
  1  2  1  0
  2  3  1  0
  3  4  2  0
  3  5  1  0
  5  6  1  0
  6  7  2  0
  7  8  1  0
  8  9  2  0
  9 10  1  0
 10 11  2  0
  5 12  1  0
 12 13  1  0
 13 14  1  0
 14 15  1  0
 15 16  1  0
 16 17  2  0
 16 18  1  0
 18 19  1  0
 19 20  1  0
 20 21  1  0
 21 22  1  0
 22 23  2  0
 23 24  1  0
 24 25  2  0
 25 26  1  0
 26 27  2  0
 21 28  2  0
 28 29  1  0
 29 30  1  0
 30 31  1  0
 15 32  1  0
 32 33  1  0
 11  6  1  0
 33 12  1  0
 30 20  2  0
 27 22  1  0
  1 34  1  0
  1 35  1  0
  1 36  1  0
  2 37  1  0
  2 38  1  0
  7 39  1  0
  8 40  1  0
  9 41  1  0
 10 42  1  0
 11 43  1  0
 12 44  1  0
 13 45  1  0
 13 46  1  0
 14 47  1  0
 14 48  1  0
 18 49  1  0
 18 50  1  0
 19 51  1  0
 19 52  1  0
 23 53  1  0
 24 54  1  0
 25 55  1  0
 26 56  1  0
 27 57  1  0
 31 58  1  0
 31 59  1  0
 31 60  1  0
 32 61  1  0
 32 62  1  0
 33 63  1  0
 33 64  1  0
M  END
>  <smiles>  (46) 
CCC(=O)N(c1ccccc1)C1CCN(C(=O)CCc2c(-c3ccccc3)noc2C)CC1

>  <score_type>  (46) 
oracle

>  <origin>  (46) 
autodockgpu

>  <m_score__min__energy>  (46) 
-9.5199999999999996

>  <m_primary>  (46) 
energy

>  <rmsd>  (46) 
8.520154766814295

>  <m_score__min__rmsd>  (46) 
8.520154766814295

>  <meeko>  (46) 
{"free_energy": -9.52, "intermolecular_energy": -11.9, "internal_energy": -1.88, "cluster_size": 3, "cluster_id": 1, "rank_in_cluster": 1}

>  <energy>  (46) 
-6.73

>  <cluster_rmsd>  (46) 
0.75

>  <cluster>  (46) 
12

$$$$

     RDKit          3D

 64 67  0  0  0  0  0  0  0  0999 V2000
  137.3220   76.0120  222.7330 C   0  0  0  0  0  0  0  0  0  0  0  0
  137.7560   77.4550  222.6230 C   0  0  0  0  0  0  0  0  0  0  0  0
  138.5860   77.7200  221.4530 C   0  0  0  0  0  0  0  0  0  0  0  0
  138.0590   78.2700  220.4350 O   0  0  0  0  0  0  0  0  0  0  0  0
  139.9710   77.4130  221.3310 N   0  0  0  0  0  0  0  0  0  0  0  0
  140.8770   78.3310  221.9290 C   0  0  0  0  0  0  0  0  0  0  0  0
  141.3010   78.2650  223.2300 C   0  0  0  0  0  0  0  0  0  0  0  0
  142.1860   79.1870  223.7690 C   0  0  0  0  0  0  0  0  0  0  0  0
  142.6850   80.2260  223.0000 C   0  0  0  0  0  0  0  0  0  0  0  0
  142.2570   80.2890  221.6910 C   0  0  0  0  0  0  0  0  0  0  0  0
  141.3670   79.3610  221.1540 C   0  0  0  0  0  0  0  0  0  0  0  0
  140.4410   76.2000  220.6420 C   0  0  0  0  0  0  0  0  0  0  0  0
  139.2980   75.4590  220.0180 C   0  0  0  0  0  0  0  0  0  0  0  0
  139.7610   74.0740  219.6160 C   0  0  0  0  0  0  0  0  0  0  0  0
  140.0600   73.2770  220.8160 N   0  0  0  0  0  0  0  0  0  0  0  0
  139.8960   71.8610  220.8360 C   0  0  0  0  0  0  0  0  0  0  0  0
  139.4790   71.3370  219.7770 O   0  0  0  0  0  0  0  0  0  0  0  0
  140.2280   71.1580  222.0790 C   0  0  0  0  0  0  0  0  0  0  0  0
  139.0530   70.7260  222.8980 C   0  0  0  0  0  0  0  0  0  0  0  0
  139.1510   69.5230  223.7010 C   0  0  0  0  0  0  0  0  0  0  0  0
  139.6220   69.3070  224.9760 C   0  0  0  0  0  0  0  0  0  0  0  0
  140.1850   70.2040  225.9580 C   0  0  0  0  0  0  0  0  0  0  0  0
  140.9890   71.2650  225.7590 C   0  0  0  0  0  0  0  0  0  0  0  0
  141.4420   72.0830  226.7870 C   0  0  0  0  0  0  0  0  0  0  0  0
  141.0700   71.8200  228.0940 C   0  0  0  0  0  0  0  0  0  0  0  0
  140.2470   70.7360  228.3260 C   0  0  0  0  0  0  0  0  0  0  0  0
  139.8120   69.9430  227.2940 C   0  0  0  0  0  0  0  0  0  0  0  0
  139.4280   67.9800  225.2880 N   0  0  0  0  0  0  0  0  0  0  0  0
  138.8710   67.3950  224.2780 O   0  0  0  0  0  0  0  0  0  0  0  0
  138.6820   68.2610  223.3020 C   0  0  0  0  0  0  0  0  0  0  0  0
  138.0550   67.8610  222.0180 C   0  0  0  0  0  0  0  0  0  0  0  0
  140.5260   74.0430  221.9600 C   0  0  0  0  0  0  0  0  0  0  0  0
  141.2430   75.2980  221.5110 C   0  0  0  0  0  0  0  0  0  0  0  0
  137.2384   75.7341  223.7940 H   0  0  0  0  0  0  0  0  0  0  0  0
  136.3457   75.8843  222.2425 H   0  0  0  0  0  0  0  0  0  0  0  0
  138.0659   75.3670  222.2425 H   0  0  0  0  0  0  0  0  0  0  0  0
  136.8572   78.0864  222.5638 H   0  0  0  0  0  0  0  0  0  0  0  0
  138.3635   77.6813  223.5116 H   0  0  0  0  0  0  0  0  0  0  0  0
  140.9264   77.4523  223.8696 H   0  0  0  0  0  0  0  0  0  0  0  0
  142.4956   79.0922  224.8202 H   0  0  0  0  0  0  0  0  0  0  0  0
  143.3879   80.9641  223.4135 H   0  0  0  0  0  0  0  0  0  0  0  0
  142.6309   81.0997  221.0484 H   0  0  0  0  0  0  0  0  0  0  0  0
  141.0528   79.4507  220.1037 H   0  0  0  0  0  0  0  0  0  0  0  0
  141.1190   76.5460  219.8479 H   0  0  0  0  0  0  0  0  0  0  0  0
  138.4746   75.3755  220.7426 H   0  0  0  0  0  0  0  0  0  0  0  0
  138.9467   76.0032  219.1290 H   0  0  0  0  0  0  0  0  0  0  0  0
  138.9678   73.5781  219.0373 H   0  0  0  0  0  0  0  0  0  0  0  0
  140.6704   74.1603  219.0032 H   0  0  0  0  0  0  0  0  0  0  0  0
  140.8096   70.2614  221.8183 H   0  0  0  0  0  0  0  0  0  0  0  0
  140.7845   71.8771  222.6979 H   0  0  0  0  0  0  0  0  0  0  0  0
  138.8199   71.5525  223.5855 H   0  0  0  0  0  0  0  0  0  0  0  0
  138.2898   70.4757  222.1464 H   0  0  0  0  0  0  0  0  0  0  0  0
  141.3034   71.4963  224.7306 H   0  0  0  0  0  0  0  0  0  0  0  0
  142.0956   72.9387  226.5622 H   0  0  0  0  0  0  0  0  0  0  0  0
  141.4191   72.4547  228.9218 H   0  0  0  0  0  0  0  0  0  0  0  0
  139.9348   70.5042  229.3550 H   0  0  0  0  0  0  0  0  0  0  0  0
  139.1586   69.0855  227.5127 H   0  0  0  0  0  0  0  0  0  0  0  0
  137.1435   67.2795  222.2205 H   0  0  0  0  0  0  0  0  0  0  0  0
  137.7953   68.7607  221.4408 H   0  0  0  0  0  0  0  0  0  0  0  0
  138.7614   67.2463  221.4408 H   0  0  0  0  0  0  0  0  0  0  0  0
  139.6630   74.3236  222.5817 H   0  0  0  0  0  0  0  0  0  0  0  0
  141.2282   73.4231  222.5367 H   0  0  0  0  0  0  0  0  0  0  0  0
  141.5392   75.8618  222.4079 H   0  0  0  0  0  0  0  0  0  0  0  0
  142.0980   74.9648  220.9044 H   0  0  0  0  0  0  0  0  0  0  0  0
  1  2  1  0
  2  3  1  0
  3  4  2  0
  3  5  1  0
  5  6  1  0
  6  7  2  0
  7  8  1  0
  8  9  2  0
  9 10  1  0
 10 11  2  0
  5 12  1  0
 12 13  1  0
 13 14  1  0
 14 15  1  0
 15 16  1  0
 16 17  2  0
 16 18  1  0
 18 19  1  0
 19 20  1  0
 20 21  1  0
 21 22  1  0
 22 23  2  0
 23 24  1  0
 24 25  2  0
 25 26  1  0
 26 27  2  0
 21 28  2  0
 28 29  1  0
 29 30  1  0
 30 31  1  0
 15 32  1  0
 32 33  1  0
 11  6  1  0
 33 12  1  0
 30 20  2  0
 27 22  1  0
  1 34  1  0
  1 35  1  0
  1 36  1  0
  2 37  1  0
  2 38  1  0
  7 39  1  0
  8 40  1  0
  9 41  1  0
 10 42  1  0
 11 43  1  0
 12 44  1  0
 13 45  1  0
 13 46  1  0
 14 47  1  0
 14 48  1  0
 18 49  1  0
 18 50  1  0
 19 51  1  0
 19 52  1  0
 23 53  1  0
 24 54  1  0
 25 55  1  0
 26 56  1  0
 27 57  1  0
 31 58  1  0
 31 59  1  0
 31 60  1  0
 32 61  1  0
 32 62  1  0
 33 63  1  0
 33 64  1  0
M  END
>  <smiles>  (47) 
CCC(=O)N(c1ccccc1)C1CCN(C(=O)CCc2c(-c3ccccc3)noc2C)CC1

>  <score_type>  (47) 
oracle

>  <origin>  (47) 
autodockgpu

>  <m_score__min__energy>  (47) 
-9.5199999999999996

>  <m_primary>  (47) 
energy

>  <rmsd>  (47) 
7.459255191461407

>  <m_score__min__rmsd>  (47) 
7.459255191461407

>  <meeko>  (47) 
{"free_energy": -8.66, "intermolecular_energy": -11.05, "internal_energy": -2.0, "cluster_size": 14, "cluster_id": 3, "rank_in_cluster": 6}

>  <energy>  (47) 
-7.13

>  <cluster_rmsd>  (47) 
0.0

>  <cluster>  (47) 
13

$$$$

     RDKit          3D

 64 67  0  0  0  0  0  0  0  0999 V2000
  142.9710   76.6450  219.6830 C   0  0  0  0  0  0  0  0  0  0  0  0
  141.6580   75.9070  219.8100 C   0  0  0  0  0  0  0  0  0  0  0  0
  141.6910   74.8390  220.8040 C   0  0  0  0  0  0  0  0  0  0  0  0
  141.2080   75.0570  221.9600 O   0  0  0  0  0  0  0  0  0  0  0  0
  142.2280   73.5360  220.6040 N   0  0  0  0  0  0  0  0  0  0  0  0
  143.5930   73.4660  220.2160 C   0  0  0  0  0  0  0  0  0  0  0  0
  144.0260   73.1380  218.9590 C   0  0  0  0  0  0  0  0  0  0  0  0
  145.3730   73.0810  218.6300 C   0  0  0  0  0  0  0  0  0  0  0  0
  146.3470   73.3580  219.5750 C   0  0  0  0  0  0  0  0  0  0  0  0
  145.9080   73.6870  220.8390 C   0  0  0  0  0  0  0  0  0  0  0  0
  144.5550   73.7440  221.1660 C   0  0  0  0  0  0  0  0  0  0  0  0
  141.4180   72.3230  220.8080 C   0  0  0  0  0  0  0  0  0  0  0  0
  140.2700   72.2740  219.8490 C   0  0  0  0  0  0  0  0  0  0  0  0
  139.2890   71.2110  220.2970 C   0  0  0  0  0  0  0  0  0  0  0  0
  138.6520   71.6160  221.5600 N   0  0  0  0  0  0  0  0  0  0  0  0
  137.3260   71.2160  221.8940 C   0  0  0  0  0  0  0  0  0  0  0  0
  136.7330   70.5050  221.0500 O   0  0  0  0  0  0  0  0  0  0  0  0
  136.7850   71.6670  223.1800 C   0  0  0  0  0  0  0  0  0  0  0  0
  136.7840   70.6360  224.2650 C   0  0  0  0  0  0  0  0  0  0  0  0
  137.7210   69.5330  224.1980 C   0  0  0  0  0  0  0  0  0  0  0  0
  138.8810   69.2700  224.8920 C   0  0  0  0  0  0  0  0  0  0  0  0
  139.5680   70.0050  225.9280 C   0  0  0  0  0  0  0  0  0  0  0  0
  139.6150   69.7450  227.2480 C   0  0  0  0  0  0  0  0  0  0  0  0
  140.3460   70.5090  228.1510 C   0  0  0  0  0  0  0  0  0  0  0  0
  141.0710   71.6000  227.7030 C   0  0  0  0  0  0  0  0  0  0  0  0
  141.0390   71.8890  226.3540 C   0  0  0  0  0  0  0  0  0  0  0  0
  140.3100   71.1190  225.4820 C   0  0  0  0  0  0  0  0  0  0  0  0
  139.3580   68.0440  224.4840 N   0  0  0  0  0  0  0  0  0  0  0  0
  138.5560   67.5640  223.5920 O   0  0  0  0  0  0  0  0  0  0  0  0
  137.5620   68.4040  223.3780 C   0  0  0  0  0  0  0  0  0  0  0  0
  136.4870   68.1040  222.4010 C   0  0  0  0  0  0  0  0  0  0  0  0
  139.4760   72.4480  222.4230 C   0  0  0  0  0  0  0  0  0  0  0  0
  140.9450   72.1540  222.2080 C   0  0  0  0  0  0  0  0  0  0  0  0
  143.3655   76.8667  220.6856 H   0  0  0  0  0  0  0  0  0  0  0  0
  143.6916   76.0197  219.1355 H   0  0  0  0  0  0  0  0  0  0  0  0
  142.8114   77.5856  219.1355 H   0  0  0  0  0  0  0  0  0  0  0  0
  140.8785   76.6279  220.0975 H   0  0  0  0  0  0  0  0  0  0  0  0
  141.4508   75.4398  218.8359 H   0  0  0  0  0  0  0  0  0  0  0  0
  143.2800   72.9118  218.1829 H   0  0  0  0  0  0  0  0  0  0  0  0
  145.6709   72.8124  217.6057 H   0  0  0  0  0  0  0  0  0  0  0  0
  147.4183   73.3174  219.3286 H   0  0  0  0  0  0  0  0  0  0  0  0
  146.6520   73.9125  221.6172 H   0  0  0  0  0  0  0  0  0  0  0  0
  144.2512   74.0125  222.1885 H   0  0  0  0  0  0  0  0  0  0  0  0
  142.0882   71.4747  220.6051 H   0  0  0  0  0  0  0  0  0  0  0  0
  139.7674   73.2522  219.8272 H   0  0  0  0  0  0  0  0  0  0  0  0
  140.6410   72.0323  218.8420 H   0  0  0  0  0  0  0  0  0  0  0  0
  138.5166   71.0793  219.5250 H   0  0  0  0  0  0  0  0  0  0  0  0
  139.8272   70.2640  220.4508 H   0  0  0  0  0  0  0  0  0  0  0  0
  137.3874   72.5214  223.5223 H   0  0  0  0  0  0  0  0  0  0  0  0
  135.7303   71.9200  222.9968 H   0  0  0  0  0  0  0  0  0  0  0  0
  136.9783   71.1647  225.2098 H   0  0  0  0  0  0  0  0  0  0  0  0
  135.8028   70.1499  224.1605 H   0  0  0  0  0  0  0  0  0  0  0  0
  139.0466   68.8849  227.6315 H   0  0  0  0  0  0  0  0  0  0  0  0
  140.3482   70.2470  229.2193 H   0  0  0  0  0  0  0  0  0  0  0  0
  141.6549   72.2178  228.4012 H   0  0  0  0  0  0  0  0  0  0  0  0
  141.6066   72.7500  225.9713 H   0  0  0  0  0  0  0  0  0  0  0  0
  140.3043   71.3762  224.4125 H   0  0  0  0  0  0  0  0  0  0  0  0
  135.5633   67.8462  222.9398 H   0  0  0  0  0  0  0  0  0  0  0  0
  136.3088   68.9867  221.7693 H   0  0  0  0  0  0  0  0  0  0  0  0
  136.7917   67.2566  221.7693 H   0  0  0  0  0  0  0  0  0  0  0  0
  139.2828   73.5066  222.1951 H   0  0  0  0  0  0  0  0  0  0  0  0
  139.2220   72.2299  223.4708 H   0  0  0  0  0  0  0  0  0  0  0  0
  141.5269   72.8320  222.8497 H   0  0  0  0  0  0  0  0  0  0  0  0
  141.0871   71.0918  222.4561 H   0  0  0  0  0  0  0  0  0  0  0  0
  1  2  1  0
  2  3  1  0
  3  4  2  0
  3  5  1  0
  5  6  1  0
  6  7  2  0
  7  8  1  0
  8  9  2  0
  9 10  1  0
 10 11  2  0
  5 12  1  0
 12 13  1  0
 13 14  1  0
 14 15  1  0
 15 16  1  0
 16 17  2  0
 16 18  1  0
 18 19  1  0
 19 20  1  0
 20 21  1  0
 21 22  1  0
 22 23  2  0
 23 24  1  0
 24 25  2  0
 25 26  1  0
 26 27  2  0
 21 28  2  0
 28 29  1  0
 29 30  1  0
 30 31  1  0
 15 32  1  0
 32 33  1  0
 11  6  1  0
 33 12  1  0
 30 20  2  0
 27 22  1  0
  1 34  1  0
  1 35  1  0
  1 36  1  0
  2 37  1  0
  2 38  1  0
  7 39  1  0
  8 40  1  0
  9 41  1  0
 10 42  1  0
 11 43  1  0
 12 44  1  0
 13 45  1  0
 13 46  1  0
 14 47  1  0
 14 48  1  0
 18 49  1  0
 18 50  1  0
 19 51  1  0
 19 52  1  0
 23 53  1  0
 24 54  1  0
 25 55  1  0
 26 56  1  0
 27 57  1  0
 31 58  1  0
 31 59  1  0
 31 60  1  0
 32 61  1  0
 32 62  1  0
 33 63  1  0
 33 64  1  0
M  END
>  <smiles>  (48) 
CCC(=O)N(c1ccccc1)C1CCN(C(=O)CCc2c(-c3ccccc3)noc2C)CC1

>  <score_type>  (48) 
oracle

>  <origin>  (48) 
autodockgpu

>  <m_score__min__energy>  (48) 
-9.5199999999999996

>  <m_primary>  (48) 
energy

>  <rmsd>  (48) 
8.984503686592268

>  <m_score__min__rmsd>  (48) 
8.984503686592268

>  <meeko>  (48) 
{"free_energy": -7.68, "intermolecular_energy": -10.07, "internal_energy": -2.48, "cluster_size": 3, "cluster_id": 1, "rank_in_cluster": 3}

>  <energy>  (48) 
-6.98

>  <cluster_rmsd>  (48) 
0.27

>  <cluster>  (48) 
13

$$$$

     RDKit          3D

 64 67  0  0  0  0  0  0  0  0999 V2000
  146.3210   73.0740  221.9230 C   0  0  0  0  0  0  0  0  0  0  0  0
  145.9650   74.0830  220.8560 C   0  0  0  0  0  0  0  0  0  0  0  0
  145.1640   73.5210  219.7740 C   0  0  0  0  0  0  0  0  0  0  0  0
  145.6990   72.6820  218.9830 O   0  0  0  0  0  0  0  0  0  0  0  0
  143.7990   73.8270  219.5060 N   0  0  0  0  0  0  0  0  0  0  0  0
  142.8300   72.9910  220.1230 C   0  0  0  0  0  0  0  0  0  0  0  0
  142.0070   73.3820  221.1460 C   0  0  0  0  0  0  0  0  0  0  0  0
  141.0770   72.5260  221.7170 C   0  0  0  0  0  0  0  0  0  0  0  0
  140.9410   71.2230  221.2680 C   0  0  0  0  0  0  0  0  0  0  0  0
  141.7700   70.8330  220.2380 C   0  0  0  0  0  0  0  0  0  0  0  0
  142.7030   71.6950  219.6670 C   0  0  0  0  0  0  0  0  0  0  0  0
  143.4110   74.9630  218.6540 C   0  0  0  0  0  0  0  0  0  0  0  0
  143.6900   76.2670  219.3360 C   0  0  0  0  0  0  0  0  0  0  0  0
  142.9850   77.3810  218.5890 C   0  0  0  0  0  0  0  0  0  0  0  0
  141.5280   77.2360  218.7290 N   0  0  0  0  0  0  0  0  0  0  0  0
  140.6570   78.3640  218.7200 C   0  0  0  0  0  0  0  0  0  0  0  0
  141.2030   79.4840  218.5920 O   0  0  0  0  0  0  0  0  0  0  0  0
  139.2190   78.1110  218.8590 C   0  0  0  0  0  0  0  0  0  0  0  0
  138.7300   77.9840  220.2680 C   0  0  0  0  0  0  0  0  0  0  0  0
  139.3970   77.0680  221.1710 C   0  0  0  0  0  0  0  0  0  0  0  0
  140.4460   77.2430  222.0460 C   0  0  0  0  0  0  0  0  0  0  0  0
  141.2480   78.4010  222.3650 C   0  0  0  0  0  0  0  0  0  0  0  0
  141.7760   79.3110  221.5260 C   0  0  0  0  0  0  0  0  0  0  0  0
  142.5060   80.4130  221.9560 C   0  0  0  0  0  0  0  0  0  0  0  0
  142.7220   80.6120  223.3090 C   0  0  0  0  0  0  0  0  0  0  0  0
  142.1930   79.6920  224.1910 C   0  0  0  0  0  0  0  0  0  0  0  0
  141.4750   78.6120  223.7420 C   0  0  0  0  0  0  0  0  0  0  0  0
  140.6480   76.0580  222.7180 N   0  0  0  0  0  0  0  0  0  0  0  0
  139.7860   75.1910  222.2960 O   0  0  0  0  0  0  0  0  0  0  0  0
  139.0140   75.7320  221.3750 C   0  0  0  0  0  0  0  0  0  0  0  0
  137.9290   74.9610  220.7180 C   0  0  0  0  0  0  0  0  0  0  0  0
  141.0600   75.8670  218.8780 C   0  0  0  0  0  0  0  0  0  0  0  0
  142.0000   74.9010  218.1890 C   0  0  0  0  0  0  0  0  0  0  0  0
  146.1637   73.5198  222.9163 H   0  0  0  0  0  0  0  0  0  0  0  0
  145.6822   72.1850  221.8147 H   0  0  0  0  0  0  0  0  0  0  0  0
  147.3762   72.7827  221.8147 H   0  0  0  0  0  0  0  0  0  0  0  0
  145.3957   74.8997  221.3239 H   0  0  0  0  0  0  0  0  0  0  0  0
  146.9084   74.4355  220.4135 H   0  0  0  0  0  0  0  0  0  0  0  0
  142.0865   74.4105  221.5278 H   0  0  0  0  0  0  0  0  0  0  0  0
  140.4391   72.8868  222.5373 H   0  0  0  0  0  0  0  0  0  0  0  0
  140.2077   70.5333  221.7114 H   0  0  0  0  0  0  0  0  0  0  0  0
  141.6919   69.8053  219.8538 H   0  0  0  0  0  0  0  0  0  0  0  0
  143.3435   71.3399  218.8462 H   0  0  0  0  0  0  0  0  0  0  0  0
  144.0355   74.8914  217.7513 H   0  0  0  0  0  0  0  0  0  0  0  0
  143.3206   76.2271  220.3714 H   0  0  0  0  0  0  0  0  0  0  0  0
  144.7737   76.4555  219.3438 H   0  0  0  0  0  0  0  0  0  0  0  0
  143.2961   78.3514  219.0033 H   0  0  0  0  0  0  0  0  0  0  0  0
  143.2528   77.3276  217.5234 H   0  0  0  0  0  0  0  0  0  0  0  0
  138.6791   78.9437  218.3846 H   0  0  0  0  0  0  0  0  0  0  0  0
  139.0314   77.1383  218.3807 H   0  0  0  0  0  0  0  0  0  0  0  0
  138.7938   78.9844  220.7210 H   0  0  0  0  0  0  0  0  0  0  0  0
  137.7241   77.5530  220.1564 H   0  0  0  0  0  0  0  0  0  0  0  0
  141.6221   79.1760  220.4452 H   0  0  0  0  0  0  0  0  0  0  0  0
  142.9113   81.1257  221.2226 H   0  0  0  0  0  0  0  0  0  0  0  0
  143.2977   81.4771  223.6699 H   0  0  0  0  0  0  0  0  0  0  0  0
  142.3493   79.8264  225.2715 H   0  0  0  0  0  0  0  0  0  0  0  0
  141.0678   77.8956  224.4707 H   0  0  0  0  0  0  0  0  0  0  0  0
  137.2868   74.5047  221.4857 H   0  0  0  0  0  0  0  0  0  0  0  0
  137.3278   75.6356  220.0907 H   0  0  0  0  0  0  0  0  0  0  0  0
  138.3683   74.1714  220.0907 H   0  0  0  0  0  0  0  0  0  0  0  0
  141.0074   75.6180  219.9482 H   0  0  0  0  0  0  0  0  0  0  0  0
  140.0652   75.7816  218.4164 H   0  0  0  0  0  0  0  0  0  0  0  0
  141.6278   73.8803  218.3611 H   0  0  0  0  0  0  0  0  0  0  0  0
  142.0119   75.1861  217.1267 H   0  0  0  0  0  0  0  0  0  0  0  0
  1  2  1  0
  2  3  1  0
  3  4  2  0
  3  5  1  0
  5  6  1  0
  6  7  2  0
  7  8  1  0
  8  9  2  0
  9 10  1  0
 10 11  2  0
  5 12  1  0
 12 13  1  0
 13 14  1  0
 14 15  1  0
 15 16  1  0
 16 17  2  0
 16 18  1  0
 18 19  1  0
 19 20  1  0
 20 21  1  0
 21 22  1  0
 22 23  2  0
 23 24  1  0
 24 25  2  0
 25 26  1  0
 26 27  2  0
 21 28  2  0
 28 29  1  0
 29 30  1  0
 30 31  1  0
 15 32  1  0
 32 33  1  0
 11  6  1  0
 33 12  1  0
 30 20  2  0
 27 22  1  0
  1 34  1  0
  1 35  1  0
  1 36  1  0
  2 37  1  0
  2 38  1  0
  7 39  1  0
  8 40  1  0
  9 41  1  0
 10 42  1  0
 11 43  1  0
 12 44  1  0
 13 45  1  0
 13 46  1  0
 14 47  1  0
 14 48  1  0
 18 49  1  0
 18 50  1  0
 19 51  1  0
 19 52  1  0
 23 53  1  0
 24 54  1  0
 25 55  1  0
 26 56  1  0
 27 57  1  0
 31 58  1  0
 31 59  1  0
 31 60  1  0
 32 61  1  0
 32 62  1  0
 33 63  1  0
 33 64  1  0
M  END
>  <smiles>  (49) 
CCC(=O)N(c1ccccc1)C1CCN(C(=O)CCc2c(-c3ccccc3)noc2C)CC1

>  <score_type>  (49) 
oracle

>  <origin>  (49) 
autodockgpu

>  <m_score__min__energy>  (49) 
-9.5199999999999996

>  <m_primary>  (49) 
energy

>  <rmsd>  (49) 
5.0943008211739675

>  <m_score__min__rmsd>  (49) 
5.0943008211739675

>  <meeko>  (49) 
{"free_energy": -7.23, "intermolecular_energy": -9.62, "internal_energy": -3.4, "cluster_size": 10, "cluster_id": 12, "rank_in_cluster": 1}

>  <energy>  (49) 
-6.63

>  <cluster_rmsd>  (49) 
0.0

>  <cluster>  (49) 
14

$$$$

     RDKit          3D

 64 67  0  0  0  0  0  0  0  0999 V2000
  132.1830   77.1550  227.6040 C   0  0  0  0  0  0  0  0  0  0  0  0
  133.5060   76.5140  227.2540 C   0  0  0  0  0  0  0  0  0  0  0  0
  133.3630   75.2410  226.5570 C   0  0  0  0  0  0  0  0  0  0  0  0
  132.8630   74.2500  227.1780 O   0  0  0  0  0  0  0  0  0  0  0  0
  133.7390   74.9870  225.2070 N   0  0  0  0  0  0  0  0  0  0  0  0
  134.1220   76.1160  224.4340 C   0  0  0  0  0  0  0  0  0  0  0  0
  135.4100   76.4010  224.0640 C   0  0  0  0  0  0  0  0  0  0  0  0
  135.7340   77.5190  223.3090 C   0  0  0  0  0  0  0  0  0  0  0  0
  134.7530   78.4040  222.8920 C   0  0  0  0  0  0  0  0  0  0  0  0
  133.4580   78.1130  223.2660 C   0  0  0  0  0  0  0  0  0  0  0  0
  133.1370   76.9900  224.0250 C   0  0  0  0  0  0  0  0  0  0  0  0
  133.7520   73.6250  224.6470 C   0  0  0  0  0  0  0  0  0  0  0  0
  134.3360   72.6490  225.6220 C   0  0  0  0  0  0  0  0  0  0  0  0
  134.6380   71.3490  224.9050 C   0  0  0  0  0  0  0  0  0  0  0  0
  135.7290   71.5500  223.9390 N   0  0  0  0  0  0  0  0  0  0  0  0
  136.6350   70.5020  223.6030 C   0  0  0  0  0  0  0  0  0  0  0  0
  136.4520   69.4050  224.1780 O   0  0  0  0  0  0  0  0  0  0  0  0
  137.6850   70.8030  222.6230 C   0  0  0  0  0  0  0  0  0  0  0  0
  139.0640   70.3790  223.0200 C   0  0  0  0  0  0  0  0  0  0  0  0
  139.2370   69.1790  223.8130 C   0  0  0  0  0  0  0  0  0  0  0  0
  139.6210   68.9920  225.1220 C   0  0  0  0  0  0  0  0  0  0  0  0
  139.9870   69.9280  226.1600 C   0  0  0  0  0  0  0  0  0  0  0  0
  139.6220   69.9260  227.4550 C   0  0  0  0  0  0  0  0  0  0  0  0
  140.0700   70.8660  228.3760 C   0  0  0  0  0  0  0  0  0  0  0  0
  140.9340   71.8690  227.9730 C   0  0  0  0  0  0  0  0  0  0  0  0
  141.3230   71.8950  226.6490 C   0  0  0  0  0  0  0  0  0  0  0  0
  140.8670   70.9550  225.7580 C   0  0  0  0  0  0  0  0  0  0  0  0
  139.5630   67.6440  225.4000 N   0  0  0  0  0  0  0  0  0  0  0  0
  139.1690   67.0200  224.3380 O   0  0  0  0  0  0  0  0  0  0  0  0
  138.9600   67.8790  223.3600 C   0  0  0  0  0  0  0  0  0  0  0  0
  138.4970   67.4360  222.0220 C   0  0  0  0  0  0  0  0  0  0  0  0
  135.8070   72.8850  223.3710 C   0  0  0  0  0  0  0  0  0  0  0  0
  134.4380   73.5320  223.3310 C   0  0  0  0  0  0  0  0  0  0  0  0
  132.0782   77.2058  228.6978 H   0  0  0  0  0  0  0  0  0  0  0  0
  132.1455   78.1712  227.1845 H   0  0  0  0  0  0  0  0  0  0  0  0
  131.3623   76.5546  227.1845 H   0  0  0  0  0  0  0  0  0  0  0  0
  134.0686   77.2044  226.6084 H   0  0  0  0  0  0  0  0  0  0  0  0
  134.0303   76.3110  228.1995 H   0  0  0  0  0  0  0  0  0  0  0  0
  136.2152   75.7198  224.3764 H   0  0  0  0  0  0  0  0  0  0  0  0
  136.7837   77.7052  223.0379 H   0  0  0  0  0  0  0  0  0  0  0  0
  134.9950   79.2941  222.2927 H   0  0  0  0  0  0  0  0  0  0  0  0
  132.6503   78.7914  222.9541 H   0  0  0  0  0  0  0  0  0  0  0  0
  132.0893   76.7988  224.3003 H   0  0  0  0  0  0  0  0  0  0  0  0
  132.6997   73.3617  224.4645 H   0  0  0  0  0  0  0  0  0  0  0  0
  135.2647   73.0611  226.0435 H   0  0  0  0  0  0  0  0  0  0  0  0
  133.6185   72.4646  226.4351 H   0  0  0  0  0  0  0  0  0  0  0  0
  134.9381   70.5883  225.6407 H   0  0  0  0  0  0  0  0  0  0  0  0
  133.7377   71.0142  224.3690 H   0  0  0  0  0  0  0  0  0  0  0  0
  137.4294   70.2934  221.6823 H   0  0  0  0  0  0  0  0  0  0  0  0
  137.7153   71.8989  222.5333 H   0  0  0  0  0  0  0  0  0  0  0  0
  139.6350   70.2346  222.0910 H   0  0  0  0  0  0  0  0  0  0  0  0
  139.4009   71.1840  223.6896 H   0  0  0  0  0  0  0  0  0  0  0  0
  138.9343   69.1409  227.8025 H   0  0  0  0  0  0  0  0  0  0  0  0
  139.7382   70.8126  229.4234 H   0  0  0  0  0  0  0  0  0  0  0  0
  141.2996   72.6226  228.6861 H   0  0  0  0  0  0  0  0  0  0  0  0
  142.0094   72.6814  226.3020 H   0  0  0  0  0  0  0  0  0  0  0  0
  141.1946   71.0036  224.7090 H   0  0  0  0  0  0  0  0  0  0  0  0
  137.7067   66.6799  222.1393 H   0  0  0  0  0  0  0  0  0  0  0  0
  138.0996   68.2988  221.4673 H   0  0  0  0  0  0  0  0  0  0  0  0
  139.3414   67.0009  221.4673 H   0  0  0  0  0  0  0  0  0  0  0  0
  136.4792   73.5005  223.9869 H   0  0  0  0  0  0  0  0  0  0  0  0
  136.1921   72.8096  222.3434 H   0  0  0  0  0  0  0  0  0  0  0  0
  134.5528   74.5508  222.9325 H   0  0  0  0  0  0  0  0  0  0  0  0
  133.8095   72.8865  222.6998 H   0  0  0  0  0  0  0  0  0  0  0  0
  1  2  1  0
  2  3  1  0
  3  4  2  0
  3  5  1  0
  5  6  1  0
  6  7  2  0
  7  8  1  0
  8  9  2  0
  9 10  1  0
 10 11  2  0
  5 12  1  0
 12 13  1  0
 13 14  1  0
 14 15  1  0
 15 16  1  0
 16 17  2  0
 16 18  1  0
 18 19  1  0
 19 20  1  0
 20 21  1  0
 21 22  1  0
 22 23  2  0
 23 24  1  0
 24 25  2  0
 25 26  1  0
 26 27  2  0
 21 28  2  0
 28 29  1  0
 29 30  1  0
 30 31  1  0
 15 32  1  0
 32 33  1  0
 11  6  1  0
 33 12  1  0
 30 20  2  0
 27 22  1  0
  1 34  1  0
  1 35  1  0
  1 36  1  0
  2 37  1  0
  2 38  1  0
  7 39  1  0
  8 40  1  0
  9 41  1  0
 10 42  1  0
 11 43  1  0
 12 44  1  0
 13 45  1  0
 13 46  1  0
 14 47  1  0
 14 48  1  0
 18 49  1  0
 18 50  1  0
 19 51  1  0
 19 52  1  0
 23 53  1  0
 24 54  1  0
 25 55  1  0
 26 56  1  0
 27 57  1  0
 31 58  1  0
 31 59  1  0
 31 60  1  0
 32 61  1  0
 32 62  1  0
 33 63  1  0
 33 64  1  0
M  END
>  <smiles>  (50) 
CCC(=O)N(c1ccccc1)C1CCN(C(=O)CCc2c(-c3ccccc3)noc2C)CC1

>  <score_type>  (50) 
oracle

>  <origin>  (50) 
autodockgpu

>  <m_score__min__energy>  (50) 
-9.5199999999999996

>  <m_primary>  (50) 
energy

>  <rmsd>  (50) 
9.89351641312452

>  <m_score__min__rmsd>  (50) 
9.89351641312452

>  <meeko>  (50) 
{"free_energy": -8.09, "intermolecular_energy": -10.48, "internal_energy": -1.86, "cluster_size": 2, "cluster_id": 9, "rank_in_cluster": 1}

>  <energy>  (50) 
-6.02

>  <cluster_rmsd>  (50) 
0.0

>  <cluster>  (50) 
15

$$$$
