
     RDKit          3D

 55 59  0  0  0  0  0  0  0  0999 V2000
  139.6310   78.7490  222.7020 O   0  0  0  0  0  0  0  0  0  0  0  0
  140.3830   77.8270  222.2740 C   0  0  0  0  0  0  0  0  0  0  0  0
  141.7210   78.1890  221.9460 N   0  0  0  0  0  0  0  0  0  0  0  0
  142.1040   79.5650  222.1270 C   0  0  0  0  0  0  0  0  0  0  0  0
  141.6280   80.4420  221.0420 C   0  0  0  0  0  0  0  0  0  0  0  0
  141.0990   81.5750  221.2330 O   0  0  0  0  0  0  0  0  0  0  0  0
  141.7760   79.9780  219.7050 N   0  0  0  0  0  0  0  0  0  0  0  0
  142.5850   80.5550  218.6280 C   0  0  0  0  0  0  0  0  0  0  0  0
  141.8150   80.2160  217.3730 C   0  0  0  0  0  0  0  0  0  0  0  0
  140.6610   79.3600  217.7840 C   0  0  0  0  0  0  0  0  0  0  0  0
  141.1350   78.7990  219.1090 C   0  0  1  0  0  0  0  0  0  0  0  0
  142.1180   77.7120  218.8620 C   0  0  0  0  0  0  0  0  0  0  0  0
  142.9730   77.5710  217.7820 C   0  0  0  0  0  0  0  0  0  0  0  0
  143.6950   76.4300  217.9720 N   0  0  0  0  0  0  0  0  0  0  0  0
  143.3110   75.8640  219.1350 C   0  0  0  0  0  0  0  0  0  0  0  0
  143.8830   74.6220  219.6490 C   0  0  0  0  0  0  0  0  0  0  0  0
  144.9870   74.6960  220.4740 C   0  0  0  0  0  0  0  0  0  0  0  0
  145.5730   73.5410  220.9940 C   0  0  0  0  0  0  0  0  0  0  0  0
  145.0420   72.2970  220.6800 C   0  0  0  0  0  0  0  0  0  0  0  0
  143.9340   72.2330  219.8510 C   0  0  0  0  0  0  0  0  0  0  0  0
  143.3540   73.3930  219.3350 C   0  0  0  0  0  0  0  0  0  0  0  0
  142.3630   76.6410  219.6640 N   0  0  0  0  0  0  0  0  0  0  0  0
  139.9070   76.4570  222.1230 C   0  0  0  0  0  0  0  0  0  0  0  0
  138.5430   76.2390  222.1080 C   0  0  0  0  0  0  0  0  0  0  0  0
  138.0140   74.9680  221.9680 C   0  0  0  0  0  0  0  0  0  0  0  0
  138.9140   73.9200  221.8440 C   0  0  0  0  0  0  0  0  0  0  0  0
  138.4710   72.6150  221.6990 C   0  0  0  0  0  0  0  0  0  0  0  0
  139.3590   71.5530  221.5730 C   0  0  0  0  0  0  0  0  0  0  0  0
  138.7580   69.9080  221.3910 Cl  0  0  0  0  0  0  0  0  0  0  0  0
  140.7260   71.7990  221.5910 C   0  0  0  0  0  0  0  0  0  0  0  0
  141.1840   73.1000  221.7340 C   0  0  0  0  0  0  0  0  0  0  0  0
  140.2880   74.1420  221.8580 C   0  0  0  0  0  0  0  0  0  0  0  0
  140.7320   75.4010  221.9980 N   0  0  0  0  0  0  0  0  0  0  0  0
  142.3550   77.4410  221.5910 H   0  0  0  0  0  0  0  0  0  0  0  0
  141.6835   79.9239  223.0780 H   0  0  0  0  0  0  0  0  0  0  0  0
  143.2033   79.6041  222.1239 H   0  0  0  0  0  0  0  0  0  0  0  0
  142.6769   81.6445  218.7484 H   0  0  0  0  0  0  0  0  0  0  0  0
  143.6129   80.1637  218.6135 H   0  0  0  0  0  0  0  0  0  0  0  0
  141.4503   81.1365  216.8937 H   0  0  0  0  0  0  0  0  0  0  0  0
  142.4557   79.6893  216.6505 H   0  0  0  0  0  0  0  0  0  0  0  0
  139.7457   79.9573  217.9083 H   0  0  0  0  0  0  0  0  0  0  0  0
  140.3989   78.5877  217.0458 H   0  0  0  0  0  0  0  0  0  0  0  0
  140.3514   78.3580  219.7427 H   0  0  0  0  0  0  0  0  0  0  0  0
  143.0550   78.2560  216.9252 H   0  0  0  0  0  0  0  0  0  0  0  0
  144.4030   76.1270  217.2780 H   0  0  0  0  0  0  0  0  0  0  0  0
  145.4111   75.6794  220.7253 H   0  0  0  0  0  0  0  0  0  0  0  0
  146.4525   73.6159  221.6504 H   0  0  0  0  0  0  0  0  0  0  0  0
  145.4934   71.3782  221.0826 H   0  0  0  0  0  0  0  0  0  0  0  0
  143.5047   71.2530  219.5955 H   0  0  0  0  0  0  0  0  0  0  0  0
  142.4746   73.3236  218.6779 H   0  0  0  0  0  0  0  0  0  0  0  0
  137.8611   77.0961  222.2098 H   0  0  0  0  0  0  0  0  0  0  0  0
  136.9275   74.7964  221.9556 H   0  0  0  0  0  0  0  0  0  0  0  0
  137.3895   72.4145  221.6832 H   0  0  0  0  0  0  0  0  0  0  0  0
  141.4399   70.9679  221.4926 H   0  0  0  0  0  0  0  0  0  0  0  0
  142.2652   73.3020  221.7486 H   0  0  0  0  0  0  0  0  0  0  0  0
  1  2  2  0
  2  3  1  0
  3  4  1  0
  4  5  1  0
  5  6  2  0
  5  7  1  0
  7  8  1  0
  8  9  1  0
  9 10  1  0
 10 11  1  0
 11 12  1  0
 12 13  2  0
 13 14  1  0
 14 15  1  0
 15 16  1  0
 16 17  2  0
 17 18  1  0
 18 19  2  0
 19 20  1  0
 20 21  2  0
 15 22  2  0
  2 23  1  0
 23 24  2  0
 24 25  1  0
 25 26  2  0
 26 27  1  0
 27 28  2  0
 28 29  1  0
 28 30  1  0
 30 31  2  0
 31 32  1  0
 32 33  2  0
 11  7  1  0
 22 12  1  0
 33 23  1  0
 21 16  1  0
 32 26  1  0
  3 34  1  0
  4 35  1  0
  4 36  1  0
  8 37  1  0
  8 38  1  0
  9 39  1  0
  9 40  1  0
 10 41  1  0
 10 42  1  0
 11 43  1  1
 13 44  1  0
 14 45  1  0
 17 46  1  0
 18 47  1  0
 19 48  1  0
 20 49  1  0
 21 50  1  0
 24 51  1  0
 25 52  1  0
 27 53  1  0
 30 54  1  0
 31 55  1  0
M  END
>  <smiles>  (1) 
O=C(NCC(=O)N1CCC[C@H]1c1c[nH]c(-c2ccccc2)n1)c1ccc2cc(Cl)ccc2n1

>  <score_type>  (1) 
oracle

>  <origin>  (1) 
autodockgpu

>  <m_score__min__energy>  (1) 
-9.5700000000000003

>  <m_primary>  (1) 
energy

>  <rmsd>  (1) 
7.060521892566759

>  <m_score__min__rmsd>  (1) 
7.060521892566759

>  <meeko>  (1) 
{"free_energy": -7.39, "intermolecular_energy": -9.18, "internal_energy": -3.25, "cluster_size": 6, "cluster_id": 5, "rank_in_cluster": 3}

>  <energy>  (1) 
-9.57

>  <cluster_rmsd>  (1) 
0.0

>  <cluster>  (1) 
1

$$$$

     RDKit          3D

 55 59  0  0  0  0  0  0  0  0999 V2000
  138.8720   75.6740  223.0340 O   0  0  0  0  0  0  0  0  0  0  0  0
  139.6730   75.9120  222.0860 C   0  0  0  0  0  0  0  0  0  0  0  0
  139.6060   77.2090  221.4990 N   0  0  0  0  0  0  0  0  0  0  0  0
  138.6400   78.1340  222.0320 C   0  0  0  0  0  0  0  0  0  0  0  0
  139.2600   79.3210  222.6460 C   0  0  0  0  0  0  0  0  0  0  0  0
  138.6580   80.0960  223.4440 O   0  0  0  0  0  0  0  0  0  0  0  0
  140.6150   79.6050  222.3170 N   0  0  0  0  0  0  0  0  0  0  0  0
  141.8300   79.0440  222.9140 C   0  0  0  0  0  0  0  0  0  0  0  0
  142.8400   80.1630  222.8010 C   0  0  0  0  0  0  0  0  0  0  0  0
  142.1850   81.2700  222.0410 C   0  0  0  0  0  0  0  0  0  0  0  0
  141.0910   80.5390  221.2890 C   0  0  1  0  0  0  0  0  0  0  0  0
  141.6840   79.8180  220.1320 C   0  0  0  0  0  0  0  0  0  0  0  0
  142.4260   80.3500  219.0910 C   0  0  0  0  0  0  0  0  0  0  0  0
  142.7640   79.3240  218.2580 N   0  0  0  0  0  0  0  0  0  0  0  0
  142.2550   78.1780  218.7540 C   0  0  0  0  0  0  0  0  0  0  0  0
  142.4270   76.8780  218.1100 C   0  0  0  0  0  0  0  0  0  0  0  0
  143.6220   76.6110  217.4730 C   0  0  0  0  0  0  0  0  0  0  0  0
  143.8400   75.3860  216.8420 C   0  0  0  0  0  0  0  0  0  0  0  0
  142.8450   74.4180  216.8520 C   0  0  0  0  0  0  0  0  0  0  0  0
  141.6490   74.6950  217.4930 C   0  0  0  0  0  0  0  0  0  0  0  0
  141.4390   75.9230  218.1220 C   0  0  0  0  0  0  0  0  0  0  0  0
  141.6070   78.4830  219.8800 N   0  0  0  0  0  0  0  0  0  0  0  0
  140.6210   74.9100  221.6120 C   0  0  0  0  0  0  0  0  0  0  0  0
  140.2120   73.5920  221.5780 C   0  0  0  0  0  0  0  0  0  0  0  0
  141.0540   72.5840  221.1400 C   0  0  0  0  0  0  0  0  0  0  0  0
  142.3280   72.9550  220.7380 C   0  0  0  0  0  0  0  0  0  0  0  0
  143.2350   72.0110  220.2860 C   0  0  0  0  0  0  0  0  0  0  0  0
  144.5160   72.3670  219.8790 C   0  0  0  0  0  0  0  0  0  0  0  0
  145.6410   71.1370  219.3100 Cl  0  0  0  0  0  0  0  0  0  0  0  0
  144.9020   73.7000  219.9230 C   0  0  0  0  0  0  0  0  0  0  0  0
  144.0050   74.6570  220.3720 C   0  0  0  0  0  0  0  0  0  0  0  0
  142.7370   74.2850  220.7730 C   0  0  0  0  0  0  0  0  0  0  0  0
  141.8690   75.2120  221.2090 N   0  0  0  0  0  0  0  0  0  0  0  0
  140.2600   77.4220  220.7150 H   0  0  0  0  0  0  0  0  0  0  0  0
  137.9827   78.4648  221.2144 H   0  0  0  0  0  0  0  0  0  0  0  0
  138.0807   77.6090  222.8204 H   0  0  0  0  0  0  0  0  0  0  0  0
  141.6604   78.7746  223.9669 H   0  0  0  0  0  0  0  0  0  0  0  0
  142.1611   78.1214  222.4149 H   0  0  0  0  0  0  0  0  0  0  0  0
  143.1295   80.5128  223.8029 H   0  0  0  0  0  0  0  0  0  0  0  0
  143.7496   79.8193  222.2867 H   0  0  0  0  0  0  0  0  0  0  0  0
  141.7650   82.0262  222.7205 H   0  0  0  0  0  0  0  0  0  0  0  0
  142.8744   81.8252  221.3879 H   0  0  0  0  0  0  0  0  0  0  0  0
  140.2968   81.1758  220.8722 H   0  0  0  0  0  0  0  0  0  0  0  0
  142.6944   81.4086  218.9595 H   0  0  0  0  0  0  0  0  0  0  0  0
  143.3260   79.4950  217.4040 H   0  0  0  0  0  0  0  0  0  0  0  0
  144.4135   77.3748  217.4627 H   0  0  0  0  0  0  0  0  0  0  0  0
  144.7974   75.1877  216.3380 H   0  0  0  0  0  0  0  0  0  0  0  0
  143.0038   73.4475  216.3592 H   0  0  0  0  0  0  0  0  0  0  0  0
  140.8529   73.9360  217.5065 H   0  0  0  0  0  0  0  0  0  0  0  0
  140.4832   76.1263  218.6270 H   0  0  0  0  0  0  0  0  0  0  0  0
  139.1937   73.3367  221.9065 H   0  0  0  0  0  0  0  0  0  0  0  0
  140.7264   71.5343  221.1121 H   0  0  0  0  0  0  0  0  0  0  0  0
  142.9346   70.9535  220.2480 H   0  0  0  0  0  0  0  0  0  0  0  0
  145.9126   73.9947  219.6038 H   0  0  0  0  0  0  0  0  0  0  0  0
  144.3040   75.7149  220.4089 H   0  0  0  0  0  0  0  0  0  0  0  0
  1  2  2  0
  2  3  1  0
  3  4  1  0
  4  5  1  0
  5  6  2  0
  5  7  1  0
  7  8  1  0
  8  9  1  0
  9 10  1  0
 10 11  1  0
 11 12  1  0
 12 13  2  0
 13 14  1  0
 14 15  1  0
 15 16  1  0
 16 17  2  0
 17 18  1  0
 18 19  2  0
 19 20  1  0
 20 21  2  0
 15 22  2  0
  2 23  1  0
 23 24  2  0
 24 25  1  0
 25 26  2  0
 26 27  1  0
 27 28  2  0
 28 29  1  0
 28 30  1  0
 30 31  2  0
 31 32  1  0
 32 33  2  0
 11  7  1  0
 22 12  1  0
 33 23  1  0
 21 16  1  0
 32 26  1  0
  3 34  1  0
  4 35  1  0
  4 36  1  0
  8 37  1  0
  8 38  1  0
  9 39  1  0
  9 40  1  0
 10 41  1  0
 10 42  1  0
 11 43  1  6
 13 44  1  0
 14 45  1  0
 17 46  1  0
 18 47  1  0
 19 48  1  0
 20 49  1  0
 21 50  1  0
 24 51  1  0
 25 52  1  0
 27 53  1  0
 30 54  1  0
 31 55  1  0
M  END
>  <smiles>  (2) 
O=C(NCC(=O)N1CCC[C@H]1c1c[nH]c(-c2ccccc2)n1)c1ccc2cc(Cl)ccc2n1

>  <score_type>  (2) 
oracle

>  <origin>  (2) 
autodockgpu

>  <m_score__min__energy>  (2) 
-9.5700000000000003

>  <m_primary>  (2) 
energy

>  <rmsd>  (2) 
6.707906677656421

>  <m_score__min__rmsd>  (2) 
6.707906677656421

>  <meeko>  (2) 
{"free_energy": -6.89, "intermolecular_energy": -8.68, "internal_energy": -4.11, "cluster_size": 23, "cluster_id": 7, "rank_in_cluster": 14}

>  <energy>  (2) 
-9.12

>  <cluster_rmsd>  (2) 
1.08

>  <cluster>  (2) 
1

$$$$

     RDKit          3D

 55 59  0  0  0  0  0  0  0  0999 V2000
  140.2860   73.8540  220.7330 O   0  0  0  0  0  0  0  0  0  0  0  0
  139.6030   73.7450  221.7910 C   0  0  0  0  0  0  0  0  0  0  0  0
  138.8290   74.8770  222.1750 N   0  0  0  0  0  0  0  0  0  0  0  0
  138.8880   76.0430  221.3330 C   0  0  0  0  0  0  0  0  0  0  0  0
  139.3910   77.2360  222.0370 C   0  0  0  0  0  0  0  0  0  0  0  0
  138.8910   77.6840  223.1090 O   0  0  0  0  0  0  0  0  0  0  0  0
  140.5060   77.9160  221.4720 N   0  0  0  0  0  0  0  0  0  0  0  0
  141.6170   78.5730  222.1670 C   0  0  0  0  0  0  0  0  0  0  0  0
  142.0030   79.7060  221.2450 C   0  0  0  0  0  0  0  0  0  0  0  0
  141.1690   79.5720  220.0130 C   0  0  0  0  0  0  0  0  0  0  0  0
  140.7850   78.1080  220.0430 C   0  0  1  0  0  0  0  0  0  0  0  0
  141.9400   77.2850  219.5990 C   0  0  0  0  0  0  0  0  0  0  0  0
  142.7710   77.5040  218.5120 C   0  0  0  0  0  0  0  0  0  0  0  0
  143.6930   76.5000  218.4880 N   0  0  0  0  0  0  0  0  0  0  0  0
  143.4580   75.6710  219.5250 C   0  0  0  0  0  0  0  0  0  0  0  0
  144.2630   74.4830  219.8010 C   0  0  0  0  0  0  0  0  0  0  0  0
  145.1770   74.5300  220.8340 C   0  0  0  0  0  0  0  0  0  0  0  0
  145.9700   73.4240  221.1400 C   0  0  0  0  0  0  0  0  0  0  0  0
  145.8430   72.2570  220.3990 C   0  0  0  0  0  0  0  0  0  0  0  0
  144.9240   72.2190  219.3640 C   0  0  0  0  0  0  0  0  0  0  0  0
  144.1330   73.3300  219.0640 C   0  0  0  0  0  0  0  0  0  0  0  0
  142.4030   76.1490  220.1880 N   0  0  0  0  0  0  0  0  0  0  0  0
  139.6050   72.5200  222.5830 C   0  0  0  0  0  0  0  0  0  0  0  0
  138.8200   71.4670  222.1550 C   0  0  0  0  0  0  0  0  0  0  0  0
  138.7700   70.2720  222.8520 C   0  0  0  0  0  0  0  0  0  0  0  0
  139.5410   70.1780  224.0010 C   0  0  0  0  0  0  0  0  0  0  0  0
  139.5500   69.0180  224.7580 C   0  0  0  0  0  0  0  0  0  0  0  0
  140.3180   68.9070  225.9120 C   0  0  0  0  0  0  0  0  0  0  0  0
  140.3030   67.4160  226.8500 Cl  0  0  0  0  0  0  0  0  0  0  0  0
  141.0990   69.9800  226.3200 C   0  0  0  0  0  0  0  0  0  0  0  0
  141.1010   71.1470  225.5710 C   0  0  0  0  0  0  0  0  0  0  0  0
  140.3320   71.2400  224.4290 C   0  0  0  0  0  0  0  0  0  0  0  0
  140.3340   72.3710  223.7050 N   0  0  0  0  0  0  0  0  0  0  0  0
  138.2600   74.8050  223.0460 H   0  0  0  0  0  0  0  0  0  0  0  0
  139.5547   75.8294  220.4845 H   0  0  0  0  0  0  0  0  0  0  0  0
  137.8620   76.2634  221.0032 H   0  0  0  0  0  0  0  0  0  0  0  0
  141.2939   78.9575  223.1456 H   0  0  0  0  0  0  0  0  0  0  0  0
  142.4536   77.8887  222.3716 H   0  0  0  0  0  0  0  0  0  0  0  0
  141.8053   80.6726  221.7314 H   0  0  0  0  0  0  0  0  0  0  0  0
  143.0744   79.6638  220.9995 H   0  0  0  0  0  0  0  0  0  0  0  0
  140.2802   80.2183  220.0610 H   0  0  0  0  0  0  0  0  0  0  0  0
  141.6907   79.8724  219.0924 H   0  0  0  0  0  0  0  0  0  0  0  0
  139.9459   77.8261  219.3900 H   0  0  0  0  0  0  0  0  0  0  0  0
  142.6996   78.3373  217.7975 H   0  0  0  0  0  0  0  0  0  0  0  0
  144.4210   76.4650  217.7500 H   0  0  0  0  0  0  0  0  0  0  0  0
  145.2816   75.4524  221.4242 H   0  0  0  0  0  0  0  0  0  0  0  0
  146.6941   73.4764  221.9664 H   0  0  0  0  0  0  0  0  0  0  0  0
  146.4619   71.3775  220.6301 H   0  0  0  0  0  0  0  0  0  0  0  0
  144.8154   71.3000  218.7693 H   0  0  0  0  0  0  0  0  0  0  0  0
  143.4069   73.2826  218.2391 H   0  0  0  0  0  0  0  0  0  0  0  0
  138.2210   71.5806  221.2394 H   0  0  0  0  0  0  0  0  0  0  0  0
  138.1459   69.4335  222.5094 H   0  0  0  0  0  0  0  0  0  0  0  0
  138.9348   68.1639  224.4386 H   0  0  0  0  0  0  0  0  0  0  0  0
  141.7116   69.9049  227.2306 H   0  0  0  0  0  0  0  0  0  0  0  0
  141.7174   72.0011  225.8881 H   0  0  0  0  0  0  0  0  0  0  0  0
  1  2  2  0
  2  3  1  0
  3  4  1  0
  4  5  1  0
  5  6  2  0
  5  7  1  0
  7  8  1  0
  8  9  1  0
  9 10  1  0
 10 11  1  0
 11 12  1  0
 12 13  2  0
 13 14  1  0
 14 15  1  0
 15 16  1  0
 16 17  2  0
 17 18  1  0
 18 19  2  0
 19 20  1  0
 20 21  2  0
 15 22  2  0
  2 23  1  0
 23 24  2  0
 24 25  1  0
 25 26  2  0
 26 27  1  0
 27 28  2  0
 28 29  1  0
 28 30  1  0
 30 31  2  0
 31 32  1  0
 32 33  2  0
 11  7  1  0
 22 12  1  0
 33 23  1  0
 21 16  1  0
 32 26  1  0
  3 34  1  0
  4 35  1  0
  4 36  1  0
  8 37  1  0
  8 38  1  0
  9 39  1  0
  9 40  1  0
 10 41  1  0
 10 42  1  0
 11 43  1  6
 13 44  1  0
 14 45  1  0
 17 46  1  0
 18 47  1  0
 19 48  1  0
 20 49  1  0
 21 50  1  0
 24 51  1  0
 25 52  1  0
 27 53  1  0
 30 54  1  0
 31 55  1  0
M  END
>  <smiles>  (3) 
O=C(NCC(=O)N1CCC[C@H]1c1c[nH]c(-c2ccccc2)n1)c1ccc2cc(Cl)ccc2n1

>  <score_type>  (3) 
oracle

>  <origin>  (3) 
autodockgpu

>  <m_score__min__energy>  (3) 
-9.5700000000000003

>  <m_primary>  (3) 
energy

>  <rmsd>  (3) 
5.492232274164685

>  <m_score__min__rmsd>  (3) 
5.492232274164685

>  <meeko>  (3) 
{"free_energy": -9.12, "intermolecular_energy": -10.91, "internal_energy": -1.87, "cluster_size": 2, "cluster_id": 1, "rank_in_cluster": 2}

>  <energy>  (3) 
-8.87

>  <cluster_rmsd>  (3) 
0.0

>  <cluster>  (3) 
2

$$$$

     RDKit          3D

 55 59  0  0  0  0  0  0  0  0999 V2000
  139.0290   75.7090  223.0840 O   0  0  0  0  0  0  0  0  0  0  0  0
  139.7540   75.8980  222.0660 C   0  0  0  0  0  0  0  0  0  0  0  0
  139.6110   77.1480  221.3980 N   0  0  0  0  0  0  0  0  0  0  0  0
  138.6580   78.0860  221.9330 C   0  0  0  0  0  0  0  0  0  0  0  0
  139.2940   79.2010  222.6560 C   0  0  0  0  0  0  0  0  0  0  0  0
  138.7180   79.8740  223.5590 O   0  0  0  0  0  0  0  0  0  0  0  0
  140.6350   79.5320  222.3130 N   0  0  0  0  0  0  0  0  0  0  0  0
  141.8760   79.0200  222.9010 C   0  0  0  0  0  0  0  0  0  0  0  0
  142.8420   80.1740  222.7740 C   0  0  0  0  0  0  0  0  0  0  0  0
  142.1400   81.2520  222.0140 C   0  0  0  0  0  0  0  0  0  0  0  0
  141.0670   80.4780  221.2760 C   0  0  1  0  0  0  0  0  0  0  0  0
  141.6750   79.7730  220.1180 C   0  0  0  0  0  0  0  0  0  0  0  0
  142.4080   80.3240  219.0790 C   0  0  0  0  0  0  0  0  0  0  0  0
  142.7670   79.3090  218.2430 N   0  0  0  0  0  0  0  0  0  0  0  0
  142.2790   78.1500  218.7340 C   0  0  0  0  0  0  0  0  0  0  0  0
  142.4790   76.8570  218.0850 C   0  0  0  0  0  0  0  0  0  0  0  0
  143.6690   76.6250  217.4270 C   0  0  0  0  0  0  0  0  0  0  0  0
  143.9120   75.4070  216.7900 C   0  0  0  0  0  0  0  0  0  0  0  0
  142.9450   74.4110  216.8160 C   0  0  0  0  0  0  0  0  0  0  0  0
  141.7530   74.6530  217.4780 C   0  0  0  0  0  0  0  0  0  0  0  0
  141.5180   75.8740  218.1130 C   0  0  0  0  0  0  0  0  0  0  0  0
  141.6240   78.4390  219.8600 N   0  0  0  0  0  0  0  0  0  0  0  0
  140.6950   74.8880  221.5960 C   0  0  0  0  0  0  0  0  0  0  0  0
  140.2760   73.5720  221.5660 C   0  0  0  0  0  0  0  0  0  0  0  0
  141.1110   72.5560  221.1320 C   0  0  0  0  0  0  0  0  0  0  0  0
  142.3880   72.9170  220.7290 C   0  0  0  0  0  0  0  0  0  0  0  0
  143.2880   71.9640  220.2800 C   0  0  0  0  0  0  0  0  0  0  0  0
  144.5720   72.3090  219.8720 C   0  0  0  0  0  0  0  0  0  0  0  0
  145.6880   71.0690  219.3080 Cl  0  0  0  0  0  0  0  0  0  0  0  0
  144.9670   73.6390  219.9120 C   0  0  0  0  0  0  0  0  0  0  0  0
  144.0770   74.6040  220.3580 C   0  0  0  0  0  0  0  0  0  0  0  0
  142.8070   74.2440  220.7590 C   0  0  0  0  0  0  0  0  0  0  0  0
  141.9460   75.1790  221.1920 N   0  0  0  0  0  0  0  0  0  0  0  0
  140.2010   77.3200  220.5560 H   0  0  0  0  0  0  0  0  0  0  0  0
  138.0671   78.4984  221.1019 H   0  0  0  0  0  0  0  0  0  0  0  0
  138.0286   77.5423  222.6530 H   0  0  0  0  0  0  0  0  0  0  0  0
  141.7263   78.7494  223.9566 H   0  0  0  0  0  0  0  0  0  0  0  0
  142.2368   78.1083  222.4024 H   0  0  0  0  0  0  0  0  0  0  0  0
  143.1266   80.5396  223.7717 H   0  0  0  0  0  0  0  0  0  0  0  0
  143.7594   79.8616  222.2537 H   0  0  0  0  0  0  0  0  0  0  0  0
  141.6988   81.9962  222.6934 H   0  0  0  0  0  0  0  0  0  0  0  0
  142.8028   81.8281  221.3516 H   0  0  0  0  0  0  0  0  0  0  0  0
  140.2465   81.0836  220.8636 H   0  0  0  0  0  0  0  0  0  0  0  0
  142.6554   81.3882  218.9519 H   0  0  0  0  0  0  0  0  0  0  0  0
  143.3270   79.4940  217.3900 H   0  0  0  0  0  0  0  0  0  0  0  0
  144.4378   77.4114  217.4040 H   0  0  0  0  0  0  0  0  0  0  0  0
  144.8660   75.2369  216.2694 H   0  0  0  0  0  0  0  0  0  0  0  0
  143.1228   73.4459  216.3191 H   0  0  0  0  0  0  0  0  0  0  0  0
  140.9795   73.8713  217.5039 H   0  0  0  0  0  0  0  0  0  0  0  0
  140.5657   76.0493  218.6348 H   0  0  0  0  0  0  0  0  0  0  0  0
  139.2555   73.3254  221.8944 H   0  0  0  0  0  0  0  0  0  0  0  0
  140.7761   71.5085  221.1080 H   0  0  0  0  0  0  0  0  0  0  0  0
  142.9794   70.9087  220.2454 H   0  0  0  0  0  0  0  0  0  0  0  0
  145.9796   73.9256  219.5919 H   0  0  0  0  0  0  0  0  0  0  0  0
  144.3844   75.6596  220.3922 H   0  0  0  0  0  0  0  0  0  0  0  0
  1  2  2  0
  2  3  1  0
  3  4  1  0
  4  5  1  0
  5  6  2  0
  5  7  1  0
  7  8  1  0
  8  9  1  0
  9 10  1  0
 10 11  1  0
 11 12  1  0
 12 13  2  0
 13 14  1  0
 14 15  1  0
 15 16  1  0
 16 17  2  0
 17 18  1  0
 18 19  2  0
 19 20  1  0
 20 21  2  0
 15 22  2  0
  2 23  1  0
 23 24  2  0
 24 25  1  0
 25 26  2  0
 26 27  1  0
 27 28  2  0
 28 29  1  0
 28 30  1  0
 30 31  2  0
 31 32  1  0
 32 33  2  0
 11  7  1  0
 22 12  1  0
 33 23  1  0
 21 16  1  0
 32 26  1  0
  3 34  1  0
  4 35  1  0
  4 36  1  0
  8 37  1  0
  8 38  1  0
  9 39  1  0
  9 40  1  0
 10 41  1  0
 10 42  1  0
 11 43  1  6
 13 44  1  0
 14 45  1  0
 17 46  1  0
 18 47  1  0
 19 48  1  0
 20 49  1  0
 21 50  1  0
 24 51  1  0
 25 52  1  0
 27 53  1  0
 30 54  1  0
 31 55  1  0
M  END
>  <smiles>  (4) 
O=C(NCC(=O)N1CCC[C@H]1c1c[nH]c(-c2ccccc2)n1)c1ccc2cc(Cl)ccc2n1

>  <score_type>  (4) 
oracle

>  <origin>  (4) 
autodockgpu

>  <m_score__min__energy>  (4) 
-9.5700000000000003

>  <m_primary>  (4) 
energy

>  <rmsd>  (4) 
6.710758875769887

>  <m_score__min__rmsd>  (4) 
6.710758875769887

>  <meeko>  (4) 
{"free_energy": -6.92, "intermolecular_energy": -8.71, "internal_energy": -4.09, "cluster_size": 23, "cluster_id": 7, "rank_in_cluster": 12}

>  <energy>  (4) 
-8.74

>  <cluster_rmsd>  (4) 
0.41

>  <cluster>  (4) 
2

$$$$

     RDKit          3D

 55 59  0  0  0  0  0  0  0  0999 V2000
  138.5440   75.2310  222.3540 O   0  0  0  0  0  0  0  0  0  0  0  0
  139.6920   75.5990  221.9720 C   0  0  0  0  0  0  0  0  0  0  0  0
  139.9670   76.9960  222.0180 N   0  0  0  0  0  0  0  0  0  0  0  0
  138.9230   77.8660  222.4920 C   0  0  0  0  0  0  0  0  0  0  0  0
  139.4070   79.2200  222.8150 C   0  0  0  0  0  0  0  0  0  0  0  0
  138.7140   80.0900  223.4190 O   0  0  0  0  0  0  0  0  0  0  0  0
  140.7320   79.5600  222.4230 N   0  0  0  0  0  0  0  0  0  0  0  0
  141.9970   79.0900  222.9950 C   0  0  0  0  0  0  0  0  0  0  0  0
  142.9390   80.2540  222.7970 C   0  0  0  0  0  0  0  0  0  0  0  0
  142.1980   81.2910  222.0180 C   0  0  0  0  0  0  0  0  0  0  0  0
  141.1190   80.4730  221.3400 C   0  0  1  0  0  0  0  0  0  0  0  0
  141.7080   79.7340  220.1920 C   0  0  0  0  0  0  0  0  0  0  0  0
  142.4280   80.2540  219.1290 C   0  0  0  0  0  0  0  0  0  0  0  0
  142.7710   79.2150  218.3150 N   0  0  0  0  0  0  0  0  0  0  0  0
  142.2840   78.0730  218.8430 C   0  0  0  0  0  0  0  0  0  0  0  0
  142.4680   76.7620  218.2250 C   0  0  0  0  0  0  0  0  0  0  0  0
  141.4010   75.8860  218.2050 C   0  0  0  0  0  0  0  0  0  0  0  0
  141.5220   74.6220  217.6280 C   0  0  0  0  0  0  0  0  0  0  0  0
  142.7300   74.2330  217.0640 C   0  0  0  0  0  0  0  0  0  0  0  0
  143.7950   75.1170  217.0890 C   0  0  0  0  0  0  0  0  0  0  0  0
  143.6660   76.3810  217.6690 C   0  0  0  0  0  0  0  0  0  0  0  0
  141.6470   78.3940  219.9700 N   0  0  0  0  0  0  0  0  0  0  0  0
  140.6890   74.6420  221.5060 C   0  0  0  0  0  0  0  0  0  0  0  0
  140.3140   73.3180  221.3830 C   0  0  0  0  0  0  0  0  0  0  0  0
  141.2040   72.3510  220.9470 C   0  0  0  0  0  0  0  0  0  0  0  0
  142.4900   72.7690  220.6400 C   0  0  0  0  0  0  0  0  0  0  0  0
  143.4430   71.8680  220.1960 C   0  0  0  0  0  0  0  0  0  0  0  0
  144.7370   72.2690  219.8830 C   0  0  0  0  0  0  0  0  0  0  0  0
  145.9220   71.0940  219.3220 Cl  0  0  0  0  0  0  0  0  0  0  0  0
  145.0880   73.6070  220.0160 C   0  0  0  0  0  0  0  0  0  0  0  0
  144.1440   74.5210  220.4580 C   0  0  0  0  0  0  0  0  0  0  0  0
  142.8650   74.1030  220.7640 C   0  0  0  0  0  0  0  0  0  0  0  0
  141.9510   74.9890  221.1930 N   0  0  0  0  0  0  0  0  0  0  0  0
  140.9080   77.3170  221.7050 H   0  0  0  0  0  0  0  0  0  0  0  0
  138.1516   77.9459  221.7119 H   0  0  0  0  0  0  0  0  0  0  0  0
  138.5242   77.4283  223.4190 H   0  0  0  0  0  0  0  0  0  0  0  0
  141.8810   78.8577  224.0639 H   0  0  0  0  0  0  0  0  0  0  0  0
  142.3593   78.1654  222.5218 H   0  0  0  0  0  0  0  0  0  0  0  0
  143.2453   80.6615  223.7717 H   0  0  0  0  0  0  0  0  0  0  0  0
  143.8464   79.9368  222.2623 H   0  0  0  0  0  0  0  0  0  0  0  0
  141.7629   82.0528  222.6816 H   0  0  0  0  0  0  0  0  0  0  0  0
  142.8323   81.8526  221.3163 H   0  0  0  0  0  0  0  0  0  0  0  0
  140.2773   81.0493  220.9284 H   0  0  0  0  0  0  0  0  0  0  0  0
  142.6779   81.3134  218.9702 H   0  0  0  0  0  0  0  0  0  0  0  0
  143.3190   79.3750  217.4490 H   0  0  0  0  0  0  0  0  0  0  0  0
  140.4420   76.1892  218.6504 H   0  0  0  0  0  0  0  0  0  0  0  0
  140.6629   73.9351  217.6197 H   0  0  0  0  0  0  0  0  0  0  0  0
  142.8387   73.2392  216.6051 H   0  0  0  0  0  0  0  0  0  0  0  0
  144.7568   74.8196  216.6457 H   0  0  0  0  0  0  0  0  0  0  0  0
  144.5225   77.0711  217.6809 H   0  0  0  0  0  0  0  0  0  0  0  0
  139.2846   73.0253  221.6373 H   0  0  0  0  0  0  0  0  0  0  0  0
  140.9040   71.2973  220.8485 H   0  0  0  0  0  0  0  0  0  0  0  0
  143.1694   70.8080  220.0882 H   0  0  0  0  0  0  0  0  0  0  0  0
  146.1081   73.9387  219.7722 H   0  0  0  0  0  0  0  0  0  0  0  0
  144.4151   75.5817  220.5650 H   0  0  0  0  0  0  0  0  0  0  0  0
  1  2  2  0
  2  3  1  0
  3  4  1  0
  4  5  1  0
  5  6  2  0
  5  7  1  0
  7  8  1  0
  8  9  1  0
  9 10  1  0
 10 11  1  0
 11 12  1  0
 12 13  2  0
 13 14  1  0
 14 15  1  0
 15 16  1  0
 16 17  2  0
 17 18  1  0
 18 19  2  0
 19 20  1  0
 20 21  2  0
 15 22  2  0
  2 23  1  0
 23 24  2  0
 24 25  1  0
 25 26  2  0
 26 27  1  0
 27 28  2  0
 28 29  1  0
 28 30  1  0
 30 31  2  0
 31 32  1  0
 32 33  2  0
 11  7  1  0
 22 12  1  0
 33 23  1  0
 21 16  1  0
 32 26  1  0
  3 34  1  0
  4 35  1  0
  4 36  1  0
  8 37  1  0
  8 38  1  0
  9 39  1  0
  9 40  1  0
 10 41  1  0
 10 42  1  0
 11 43  1  6
 13 44  1  0
 14 45  1  0
 17 46  1  0
 18 47  1  0
 19 48  1  0
 20 49  1  0
 21 50  1  0
 24 51  1  0
 25 52  1  0
 27 53  1  0
 30 54  1  0
 31 55  1  0
M  END
>  <smiles>  (5) 
O=C(NCC(=O)N1CCC[C@H]1c1c[nH]c(-c2ccccc2)n1)c1ccc2cc(Cl)ccc2n1

>  <score_type>  (5) 
oracle

>  <origin>  (5) 
autodockgpu

>  <m_score__min__energy>  (5) 
-9.5700000000000003

>  <m_primary>  (5) 
energy

>  <rmsd>  (5) 
6.614315979245149

>  <m_score__min__rmsd>  (5) 
6.614315979245149

>  <meeko>  (5) 
{"free_energy": -7.0, "intermolecular_energy": -8.79, "internal_energy": -4.14, "cluster_size": 23, "cluster_id": 7, "rank_in_cluster": 8}

>  <energy>  (5) 
-8.6

>  <cluster_rmsd>  (5) 
0.94

>  <cluster>  (5) 
2

$$$$

     RDKit          3D

 55 59  0  0  0  0  0  0  0  0999 V2000
  139.1130   75.9810  223.0850 O   0  0  0  0  0  0  0  0  0  0  0  0
  139.6870   76.0550  221.9610 C   0  0  0  0  0  0  0  0  0  0  0  0
  139.3750   77.1860  221.1540 N   0  0  0  0  0  0  0  0  0  0  0  0
  138.4390   78.1450  221.6810 C   0  0  0  0  0  0  0  0  0  0  0  0
  139.0910   79.2310  222.4330 C   0  0  0  0  0  0  0  0  0  0  0  0
  138.4950   79.9580  223.2790 O   0  0  0  0  0  0  0  0  0  0  0  0
  140.4730   79.4670  222.1890 N   0  0  0  0  0  0  0  0  0  0  0  0
  141.6300   78.8260  222.8210 C   0  0  0  0  0  0  0  0  0  0  0  0
  142.6910   79.9020  222.8130 C   0  0  0  0  0  0  0  0  0  0  0  0
  142.1260   81.0690  222.0730 C   0  0  0  0  0  0  0  0  0  0  0  0
  141.0440   80.4230  221.2320 C   0  0  1  0  0  0  0  0  0  0  0  0
  141.6670   79.7280  220.0750 C   0  0  0  0  0  0  0  0  0  0  0  0
  142.4310   80.2850  219.0620 C   0  0  0  0  0  0  0  0  0  0  0  0
  142.7930   79.2780  218.2170 N   0  0  0  0  0  0  0  0  0  0  0  0
  142.2770   78.1190  218.6770 C   0  0  0  0  0  0  0  0  0  0  0  0
  142.4700   76.8340  218.0110 C   0  0  0  0  0  0  0  0  0  0  0  0
  141.4420   75.9140  218.0400 C   0  0  0  0  0  0  0  0  0  0  0  0
  141.5740   74.6710  217.4190 C   0  0  0  0  0  0  0  0  0  0  0  0
  142.7540   74.3500  216.7620 C   0  0  0  0  0  0  0  0  0  0  0  0
  143.7810   75.2790  216.7390 C   0  0  0  0  0  0  0  0  0  0  0  0
  143.6410   76.5200  217.3620 C   0  0  0  0  0  0  0  0  0  0  0  0
  141.6010   78.3990  219.7940 N   0  0  0  0  0  0  0  0  0  0  0  0
  140.6250   75.0330  221.5100 C   0  0  0  0  0  0  0  0  0  0  0  0
  140.2000   73.7180  221.5000 C   0  0  0  0  0  0  0  0  0  0  0  0
  141.0320   72.6920  221.0840 C   0  0  0  0  0  0  0  0  0  0  0  0
  142.3110   73.0410  220.6790 C   0  0  0  0  0  0  0  0  0  0  0  0
  143.2080   72.0780  220.2470 C   0  0  0  0  0  0  0  0  0  0  0  0
  144.4950   72.4100  219.8380 C   0  0  0  0  0  0  0  0  0  0  0  0
  145.6070   71.1570  219.2960 Cl  0  0  0  0  0  0  0  0  0  0  0  0
  144.8950   73.7400  219.8570 C   0  0  0  0  0  0  0  0  0  0  0  0
  144.0090   74.7150  220.2850 C   0  0  0  0  0  0  0  0  0  0  0  0
  142.7360   74.3660  220.6890 C   0  0  0  0  0  0  0  0  0  0  0  0
  141.8770   75.3120  221.1040 N   0  0  0  0  0  0  0  0  0  0  0  0
  139.8390   77.2620  220.2230 H   0  0  0  0  0  0  0  0  0  0  0  0
  137.8791   78.5857  220.8429 H   0  0  0  0  0  0  0  0  0  0  0  0
  137.7784   77.6109  222.3798 H   0  0  0  0  0  0  0  0  0  0  0  0
  141.3930   78.5177  223.8500 H   0  0  0  0  0  0  0  0  0  0  0  0
  141.9480   77.9128  222.2966 H   0  0  0  0  0  0  0  0  0  0  0  0
  142.9406   80.1936  223.8438 H   0  0  0  0  0  0  0  0  0  0  0  0
  143.6116   79.5409  222.3312 H   0  0  0  0  0  0  0  0  0  0  0  0
  141.7028   81.8125  222.7645 H   0  0  0  0  0  0  0  0  0  0  0  0
  142.8728   81.6206  221.4830 H   0  0  0  0  0  0  0  0  0  0  0  0
  140.3018   81.1132  220.8046 H   0  0  0  0  0  0  0  0  0  0  0  0
  142.6972   81.3473  218.9583 H   0  0  0  0  0  0  0  0  0  0  0  0
  143.3740   79.4690  217.3790 H   0  0  0  0  0  0  0  0  0  0  0  0
  140.5053   76.1637  218.5598 H   0  0  0  0  0  0  0  0  0  0  0  0
  140.7456   73.9480  217.4501 H   0  0  0  0  0  0  0  0  0  0  0  0
  142.8714   73.3742  216.2679 H   0  0  0  0  0  0  0  0  0  0  0  0
  144.7209   75.0351  216.2221 H   0  0  0  0  0  0  0  0  0  0  0  0
  144.4666   77.2463  217.3339 H   0  0  0  0  0  0  0  0  0  0  0  0
  139.1778   73.4809  221.8299 H   0  0  0  0  0  0  0  0  0  0  0  0
  140.6927   71.6457  221.0753 H   0  0  0  0  0  0  0  0  0  0  0  0
  142.8943   71.0239  220.2269 H   0  0  0  0  0  0  0  0  0  0  0  0
  145.9093   74.0174  219.5341 H   0  0  0  0  0  0  0  0  0  0  0  0
  144.3206   75.7698  220.3030 H   0  0  0  0  0  0  0  0  0  0  0  0
  1  2  2  0
  2  3  1  0
  3  4  1  0
  4  5  1  0
  5  6  2  0
  5  7  1  0
  7  8  1  0
  8  9  1  0
  9 10  1  0
 10 11  1  0
 11 12  1  0
 12 13  2  0
 13 14  1  0
 14 15  1  0
 15 16  1  0
 16 17  2  0
 17 18  1  0
 18 19  2  0
 19 20  1  0
 20 21  2  0
 15 22  2  0
  2 23  1  0
 23 24  2  0
 24 25  1  0
 25 26  2  0
 26 27  1  0
 27 28  2  0
 28 29  1  0
 28 30  1  0
 30 31  2  0
 31 32  1  0
 32 33  2  0
 11  7  1  0
 22 12  1  0
 33 23  1  0
 21 16  1  0
 32 26  1  0
  3 34  1  0
  4 35  1  0
  4 36  1  0
  8 37  1  0
  8 38  1  0
  9 39  1  0
  9 40  1  0
 10 41  1  0
 10 42  1  0
 11 43  1  6
 13 44  1  0
 14 45  1  0
 17 46  1  0
 18 47  1  0
 19 48  1  0
 20 49  1  0
 21 50  1  0
 24 51  1  0
 25 52  1  0
 27 53  1  0
 30 54  1  0
 31 55  1  0
M  END
>  <smiles>  (6) 
O=C(NCC(=O)N1CCC[C@H]1c1c[nH]c(-c2ccccc2)n1)c1ccc2cc(Cl)ccc2n1

>  <score_type>  (6) 
oracle

>  <origin>  (6) 
autodockgpu

>  <m_score__min__energy>  (6) 
-9.5700000000000003

>  <m_primary>  (6) 
energy

>  <rmsd>  (6) 
6.6336052602135185

>  <m_score__min__rmsd>  (6) 
6.6336052602135185

>  <meeko>  (6) 
{"free_energy": -6.81, "intermolecular_energy": -8.6, "internal_energy": -4.18, "cluster_size": 23, "cluster_id": 7, "rank_in_cluster": 19}

>  <energy>  (6) 
-8.77

>  <cluster_rmsd>  (6) 
0.0

>  <cluster>  (6) 
3

$$$$

     RDKit          3D

 55 59  0  0  0  0  0  0  0  0999 V2000
  139.9460   75.2930  222.6750 O   0  0  0  0  0  0  0  0  0  0  0  0
  140.4860   75.5700  221.5660 C   0  0  0  0  0  0  0  0  0  0  0  0
  139.9880   76.7130  220.8760 N   0  0  0  0  0  0  0  0  0  0  0  0
  138.9180   77.4520  221.4940 C   0  0  0  0  0  0  0  0  0  0  0  0
  139.4000   78.5230  222.3840 C   0  0  0  0  0  0  0  0  0  0  0  0
  138.8130   78.8700  223.4500 O   0  0  0  0  0  0  0  0  0  0  0  0
  140.5960   79.2010  222.0170 N   0  0  0  0  0  0  0  0  0  0  0  0
  141.9370   79.0520  222.5900 C   0  0  0  0  0  0  0  0  0  0  0  0
  142.5520   80.4240  222.4350 C   0  0  0  0  0  0  0  0  0  0  0  0
  141.5740   81.2600  221.6760 C   0  0  0  0  0  0  0  0  0  0  0  0
  140.7430   80.2130  220.9630 C   0  0  1  0  0  0  0  0  0  0  0  0
  141.5050   79.6830  219.8030 C   0  0  0  0  0  0  0  0  0  0  0  0
  142.3740   80.3720  218.9720 C   0  0  0  0  0  0  0  0  0  0  0  0
  142.8450   79.4910  218.0440 N   0  0  0  0  0  0  0  0  0  0  0  0
  142.2940   78.2810  218.2780 C   0  0  0  0  0  0  0  0  0  0  0  0
  142.5810   77.1000  217.4680 C   0  0  0  0  0  0  0  0  0  0  0  0
  143.6990   77.1100  216.6580 C   0  0  0  0  0  0  0  0  0  0  0  0
  144.0200   76.0080  215.8650 C   0  0  0  0  0  0  0  0  0  0  0  0
  143.2070   74.8830  215.8860 C   0  0  0  0  0  0  0  0  0  0  0  0
  142.0880   74.8810  216.7010 C   0  0  0  0  0  0  0  0  0  0  0  0
  141.7730   75.9880  217.4920 C   0  0  0  0  0  0  0  0  0  0  0  0
  141.4900   78.4060  219.3360 N   0  0  0  0  0  0  0  0  0  0  0  0
  141.5690   74.7620  221.0170 C   0  0  0  0  0  0  0  0  0  0  0  0
  142.6600   75.4140  220.4780 C   0  0  0  0  0  0  0  0  0  0  0  0
  143.7270   74.7160  219.9380 C   0  0  0  0  0  0  0  0  0  0  0  0
  143.6530   73.3320  219.9620 C   0  0  0  0  0  0  0  0  0  0  0  0
  144.6760   72.5560  219.4440 C   0  0  0  0  0  0  0  0  0  0  0  0
  144.6180   71.1660  219.4590 C   0  0  0  0  0  0  0  0  0  0  0  0
  145.9390   70.2140  218.7910 Cl  0  0  0  0  0  0  0  0  0  0  0  0
  143.5090   70.5360  220.0080 C   0  0  0  0  0  0  0  0  0  0  0  0
  142.4770   71.2990  220.5320 C   0  0  0  0  0  0  0  0  0  0  0  0
  142.5520   72.6770  220.5070 C   0  0  0  0  0  0  0  0  0  0  0  0
  141.5520   73.4160  221.0130 N   0  0  0  0  0  0  0  0  0  0  0  0
  140.4230   76.9550  219.9590 H   0  0  0  0  0  0  0  0  0  0  0  0
  138.3011   77.9038  220.7033 H   0  0  0  0  0  0  0  0  0  0  0  0
  138.3416   76.7457  222.1096 H   0  0  0  0  0  0  0  0  0  0  0  0
  141.8800   78.7660  223.6506 H   0  0  0  0  0  0  0  0  0  0  0  0
  142.5250   78.2648  222.0954 H   0  0  0  0  0  0  0  0  0  0  0  0
  142.7398   80.8673  223.4240 H   0  0  0  0  0  0  0  0  0  0  0  0
  143.5128   80.3647  221.9027 H   0  0  0  0  0  0  0  0  0  0  0  0
  140.9556   81.8655  222.3549 H   0  0  0  0  0  0  0  0  0  0  0  0
  142.0465   81.9856  220.9976 H   0  0  0  0  0  0  0  0  0  0  0  0
  139.7841   80.5669  220.5565 H   0  0  0  0  0  0  0  0  0  0  0  0
  142.6365   81.4376  219.0474 H   0  0  0  0  0  0  0  0  0  0  0  0
  143.5160   79.7940  217.3150 H   0  0  0  0  0  0  0  0  0  0  0  0
  144.3458   77.9995  216.6376 H   0  0  0  0  0  0  0  0  0  0  0  0
  144.9145   76.0305  215.2251 H   0  0  0  0  0  0  0  0  0  0  0  0
  143.4480   74.0075  215.2652 H   0  0  0  0  0  0  0  0  0  0  0  0
  141.4374   73.9944  216.7259 H   0  0  0  0  0  0  0  0  0  0  0  0
  140.8795   75.9702  218.1334 H   0  0  0  0  0  0  0  0  0  0  0  0
  142.6822   76.5138  220.4775 H   0  0  0  0  0  0  0  0  0  0  0  0
  144.5955   75.2370  219.5087 H   0  0  0  0  0  0  0  0  0  0  0  0
  145.5570   73.0511  219.0096 H   0  0  0  0  0  0  0  0  0  0  0  0
  143.4497   69.4378  220.0270 H   0  0  0  0  0  0  0  0  0  0  0  0
  141.5964   70.8052  220.9687 H   0  0  0  0  0  0  0  0  0  0  0  0
  1  2  2  0
  2  3  1  0
  3  4  1  0
  4  5  1  0
  5  6  2  0
  5  7  1  0
  7  8  1  0
  8  9  1  0
  9 10  1  0
 10 11  1  0
 11 12  1  0
 12 13  2  0
 13 14  1  0
 14 15  1  0
 15 16  1  0
 16 17  2  0
 17 18  1  0
 18 19  2  0
 19 20  1  0
 20 21  2  0
 15 22  2  0
  2 23  1  0
 23 24  2  0
 24 25  1  0
 25 26  2  0
 26 27  1  0
 27 28  2  0
 28 29  1  0
 28 30  1  0
 30 31  2  0
 31 32  1  0
 32 33  2  0
 11  7  1  0
 22 12  1  0
 33 23  1  0
 21 16  1  0
 32 26  1  0
  3 34  1  0
  4 35  1  0
  4 36  1  0
  8 37  1  0
  8 38  1  0
  9 39  1  0
  9 40  1  0
 10 41  1  0
 10 42  1  0
 11 43  1  6
 13 44  1  0
 14 45  1  0
 17 46  1  0
 18 47  1  0
 19 48  1  0
 20 49  1  0
 21 50  1  0
 24 51  1  0
 25 52  1  0
 27 53  1  0
 30 54  1  0
 31 55  1  0
M  END
>  <smiles>  (7) 
O=C(NCC(=O)N1CCC[C@H]1c1c[nH]c(-c2ccccc2)n1)c1ccc2cc(Cl)ccc2n1

>  <score_type>  (7) 
oracle

>  <origin>  (7) 
autodockgpu

>  <m_score__min__energy>  (7) 
-9.5700000000000003

>  <m_primary>  (7) 
energy

>  <rmsd>  (7) 
6.987983791082353

>  <m_score__min__rmsd>  (7) 
6.987983791082353

>  <meeko>  (7) 
{"free_energy": -6.81, "intermolecular_energy": -8.6, "internal_energy": -3.53, "cluster_size": 23, "cluster_id": 7, "rank_in_cluster": 18}

>  <energy>  (7) 
-8.34

>  <cluster_rmsd>  (7) 
0.0

>  <cluster>  (7) 
4

$$$$

     RDKit          3D

 55 59  0  0  0  0  0  0  0  0999 V2000
  138.8180   75.2340  222.6760 O   0  0  0  0  0  0  0  0  0  0  0  0
  139.8570   75.5680  222.0380 C   0  0  0  0  0  0  0  0  0  0  0  0
  140.0380   76.9580  221.7880 N   0  0  0  0  0  0  0  0  0  0  0  0
  139.0310   77.8620  222.2800 C   0  0  0  0  0  0  0  0  0  0  0  0
  139.5990   79.0410  222.9590 C   0  0  0  0  0  0  0  0  0  0  0  0
  139.0440   79.6280  223.9320 O   0  0  0  0  0  0  0  0  0  0  0  0
  140.8450   79.5400  222.4850 N   0  0  0  0  0  0  0  0  0  0  0  0
  142.1900   79.2520  222.9920 C   0  0  0  0  0  0  0  0  0  0  0  0
  142.9600   80.5240  222.7210 C   0  0  0  0  0  0  0  0  0  0  0  0
  142.0480   81.4370  221.9670 C   0  0  0  0  0  0  0  0  0  0  0  0
  141.0500   80.4680  221.3660 C   0  0  1  0  0  0  0  0  0  0  0  0
  141.6670   79.7850  220.1990 C   0  0  0  0  0  0  0  0  0  0  0  0
  142.3870   80.3570  219.1640 C   0  0  0  0  0  0  0  0  0  0  0  0
  142.7610   79.3560  218.3170 N   0  0  0  0  0  0  0  0  0  0  0  0
  142.2940   78.1850  218.7980 C   0  0  0  0  0  0  0  0  0  0  0  0
  142.5130   76.9020  218.1360 C   0  0  0  0  0  0  0  0  0  0  0  0
  143.6740   76.7220  217.4120 C   0  0  0  0  0  0  0  0  0  0  0  0
  143.9330   75.5160  216.7600 C   0  0  0  0  0  0  0  0  0  0  0  0
  143.0140   74.4780  216.8390 C   0  0  0  0  0  0  0  0  0  0  0  0
  141.8530   74.6670  217.5680 C   0  0  0  0  0  0  0  0  0  0  0  0
  141.6000   75.8770  218.2170 C   0  0  0  0  0  0  0  0  0  0  0  0
  141.6370   78.4520  219.9290 N   0  0  0  0  0  0  0  0  0  0  0  0
  140.8250   74.5790  221.5780 C   0  0  0  0  0  0  0  0  0  0  0  0
  140.4530   73.2490  221.5890 C   0  0  0  0  0  0  0  0  0  0  0  0
  141.3170   72.2520  221.1670 C   0  0  0  0  0  0  0  0  0  0  0  0
  142.5730   72.6470  220.7340 C   0  0  0  0  0  0  0  0  0  0  0  0
  143.4990   71.7160  220.2940 C   0  0  0  0  0  0  0  0  0  0  0  0
  144.7640   72.0940  219.8570 C   0  0  0  0  0  0  0  0  0  0  0  0
  145.9140   70.8810  219.3060 Cl  0  0  0  0  0  0  0  0  0  0  0  0
  145.1120   73.4390  219.8560 C   0  0  0  0  0  0  0  0  0  0  0  0
  144.1960   74.3830  220.2920 C   0  0  0  0  0  0  0  0  0  0  0  0
  142.9460   73.9880  220.7240 C   0  0  0  0  0  0  0  0  0  0  0  0
  142.0580   74.9030  221.1460 N   0  0  0  0  0  0  0  0  0  0  0  0
  140.8900   77.2510  221.2620 H   0  0  0  0  0  0  0  0  0  0  0  0
  138.4229   78.2057  221.4303 H   0  0  0  0  0  0  0  0  0  0  0  0
  138.4292   77.3138  223.0198 H   0  0  0  0  0  0  0  0  0  0  0  0
  142.1635   79.0325  224.0696 H   0  0  0  0  0  0  0  0  0  0  0  0
  142.6440   78.3711  222.5146 H   0  0  0  0  0  0  0  0  0  0  0  0
  143.2623   80.9916  223.6697 H   0  0  0  0  0  0  0  0  0  0  0  0
  143.8712   80.3144  222.1415 H   0  0  0  0  0  0  0  0  0  0  0  0
  141.5534   82.1522  222.6407 H   0  0  0  0  0  0  0  0  0  0  0  0
  142.5640   82.0588  221.2206 H   0  0  0  0  0  0  0  0  0  0  0  0
  140.1184   80.9189  220.9934 H   0  0  0  0  0  0  0  0  0  0  0  0
  142.6161   81.4264  219.0462 H   0  0  0  0  0  0  0  0  0  0  0  0
  143.3150   79.5590  217.4640 H   0  0  0  0  0  0  0  0  0  0  0  0
  144.4056   77.5410  217.3481 H   0  0  0  0  0  0  0  0  0  0  0  0
  144.8621   75.3879  216.1853 H   0  0  0  0  0  0  0  0  0  0  0  0
  143.2057   73.5215  216.3307 H   0  0  0  0  0  0  0  0  0  0  0  0
  141.1182   73.8514  217.6372 H   0  0  0  0  0  0  0  0  0  0  0  0
  140.6719   76.0101  218.7922 H   0  0  0  0  0  0  0  0  0  0  0  0
  139.4475   72.9752  221.9410 H   0  0  0  0  0  0  0  0  0  0  0  0
  141.0194   71.1931  221.1752 H   0  0  0  0  0  0  0  0  0  0  0  0
  143.2270   70.6502  220.2901 H   0  0  0  0  0  0  0  0  0  0  0  0
  146.1084   73.7526  219.5113 H   0  0  0  0  0  0  0  0  0  0  0  0
  144.4656   75.4494  220.2938 H   0  0  0  0  0  0  0  0  0  0  0  0
  1  2  2  0
  2  3  1  0
  3  4  1  0
  4  5  1  0
  5  6  2  0
  5  7  1  0
  7  8  1  0
  8  9  1  0
  9 10  1  0
 10 11  1  0
 11 12  1  0
 12 13  2  0
 13 14  1  0
 14 15  1  0
 15 16  1  0
 16 17  2  0
 17 18  1  0
 18 19  2  0
 19 20  1  0
 20 21  2  0
 15 22  2  0
  2 23  1  0
 23 24  2  0
 24 25  1  0
 25 26  2  0
 26 27  1  0
 27 28  2  0
 28 29  1  0
 28 30  1  0
 30 31  2  0
 31 32  1  0
 32 33  2  0
 11  7  1  0
 22 12  1  0
 33 23  1  0
 21 16  1  0
 32 26  1  0
  3 34  1  0
  4 35  1  0
  4 36  1  0
  8 37  1  0
  8 38  1  0
  9 39  1  0
  9 40  1  0
 10 41  1  0
 10 42  1  0
 11 43  1  6
 13 44  1  0
 14 45  1  0
 17 46  1  0
 18 47  1  0
 19 48  1  0
 20 49  1  0
 21 50  1  0
 24 51  1  0
 25 52  1  0
 27 53  1  0
 30 54  1  0
 31 55  1  0
M  END
>  <smiles>  (8) 
O=C(NCC(=O)N1CCC[C@H]1c1c[nH]c(-c2ccccc2)n1)c1ccc2cc(Cl)ccc2n1

>  <score_type>  (8) 
oracle

>  <origin>  (8) 
autodockgpu

>  <m_score__min__energy>  (8) 
-9.5700000000000003

>  <m_primary>  (8) 
energy

>  <rmsd>  (8) 
6.699345814624205

>  <m_score__min__rmsd>  (8) 
6.699345814624205

>  <meeko>  (8) 
{"free_energy": -7.07, "intermolecular_energy": -8.86, "internal_energy": -3.96, "cluster_size": 23, "cluster_id": 7, "rank_in_cluster": 2}

>  <energy>  (8) 
-7.29

>  <cluster_rmsd>  (8) 
1.61

>  <cluster>  (8) 
4

$$$$

     RDKit          3D

 55 59  0  0  0  0  0  0  0  0999 V2000
  138.5720   75.2040  222.3880 O   0  0  0  0  0  0  0  0  0  0  0  0
  139.7160   75.5770  221.9990 C   0  0  0  0  0  0  0  0  0  0  0  0
  139.9850   76.9750  222.0440 N   0  0  0  0  0  0  0  0  0  0  0  0
  138.9410   77.8410  222.5260 C   0  0  0  0  0  0  0  0  0  0  0  0
  139.4230   79.1950  222.8520 C   0  0  0  0  0  0  0  0  0  0  0  0
  138.7310   80.0610  223.4620 O   0  0  0  0  0  0  0  0  0  0  0  0
  140.7450   79.5400  222.4550 N   0  0  0  0  0  0  0  0  0  0  0  0
  142.0140   79.0730  223.0210 C   0  0  0  0  0  0  0  0  0  0  0  0
  142.9520   80.2410  222.8220 C   0  0  0  0  0  0  0  0  0  0  0  0
  142.2040   81.2770  222.0470 C   0  0  0  0  0  0  0  0  0  0  0  0
  141.1260   80.4560  221.3720 C   0  0  1  0  0  0  0  0  0  0  0  0
  141.7120   79.7220  220.2200 C   0  0  0  0  0  0  0  0  0  0  0  0
  142.4330   80.2450  219.1600 C   0  0  0  0  0  0  0  0  0  0  0  0
  142.7730   79.2090  218.3400 N   0  0  0  0  0  0  0  0  0  0  0  0
  142.2840   78.0650  218.8630 C   0  0  0  0  0  0  0  0  0  0  0  0
  142.4640   76.7570  218.2390 C   0  0  0  0  0  0  0  0  0  0  0  0
  143.6860   76.4590  217.6720 C   0  0  0  0  0  0  0  0  0  0  0  0
  143.9120   75.2240  217.0640 C   0  0  0  0  0  0  0  0  0  0  0  0
  142.8970   74.2770  217.0250 C   0  0  0  0  0  0  0  0  0  0  0  0
  141.6740   74.5850  217.5960 C   0  0  0  0  0  0  0  0  0  0  0  0
  141.4550   75.8230  218.2040 C   0  0  0  0  0  0  0  0  0  0  0  0
  141.6470   78.3820  219.9930 N   0  0  0  0  0  0  0  0  0  0  0  0
  140.7140   74.6240  221.5260 C   0  0  0  0  0  0  0  0  0  0  0  0
  140.3380   73.3020  221.3890 C   0  0  0  0  0  0  0  0  0  0  0  0
  141.2290   72.3390  220.9460 C   0  0  0  0  0  0  0  0  0  0  0  0
  142.5160   72.7590  220.6460 C   0  0  0  0  0  0  0  0  0  0  0  0
  143.4700   71.8620  220.1950 C   0  0  0  0  0  0  0  0  0  0  0  0
  144.7650   72.2670  219.8900 C   0  0  0  0  0  0  0  0  0  0  0  0
  145.9510   71.0960  219.3200 Cl  0  0  0  0  0  0  0  0  0  0  0  0
  145.1160   73.6020  220.0360 C   0  0  0  0  0  0  0  0  0  0  0  0
  144.1710   74.5120  220.4850 C   0  0  0  0  0  0  0  0  0  0  0  0
  142.8910   74.0920  220.7840 C   0  0  0  0  0  0  0  0  0  0  0  0
  141.9770   74.9740  221.2190 N   0  0  0  0  0  0  0  0  0  0  0  0
  140.9240   77.3000  221.7270 H   0  0  0  0  0  0  0  0  0  0  0  0
  138.1659   77.9220  221.7496 H   0  0  0  0  0  0  0  0  0  0  0  0
  138.5475   77.3989  223.4532 H   0  0  0  0  0  0  0  0  0  0  0  0
  141.9029   78.8379  224.0898 H   0  0  0  0  0  0  0  0  0  0  0  0
  142.3775   78.1508  222.5441 H   0  0  0  0  0  0  0  0  0  0  0  0
  143.2602   80.6479  223.7964 H   0  0  0  0  0  0  0  0  0  0  0  0
  143.8590   79.9280  222.2840 H   0  0  0  0  0  0  0  0  0  0  0  0
  141.7685   82.0362  222.7133 H   0  0  0  0  0  0  0  0  0  0  0  0
  142.8335   81.8422  221.3439 H   0  0  0  0  0  0  0  0  0  0  0  0
  140.2807   81.0301  220.9646 H   0  0  0  0  0  0  0  0  0  0  0  0
  142.6860   81.3045  219.0067 H   0  0  0  0  0  0  0  0  0  0  0  0
  143.3210   79.3720  217.4760 H   0  0  0  0  0  0  0  0  0  0  0  0
  144.4933   77.2057  217.6998 H   0  0  0  0  0  0  0  0  0  0  0  0
  144.8918   75.0008  216.6165 H   0  0  0  0  0  0  0  0  0  0  0  0
  143.0619   73.2993  216.5487 H   0  0  0  0  0  0  0  0  0  0  0  0
  140.8622   73.8431  217.5704 H   0  0  0  0  0  0  0  0  0  0  0  0
  140.4774   76.0507  218.6540 H   0  0  0  0  0  0  0  0  0  0  0  0
  139.3077   73.0076  221.6374 H   0  0  0  0  0  0  0  0  0  0  0  0
  140.9288   71.2864  220.8368 H   0  0  0  0  0  0  0  0  0  0  0  0
  143.1967   70.8033  220.0751 H   0  0  0  0  0  0  0  0  0  0  0  0
  146.1366   73.9357  219.7972 H   0  0  0  0  0  0  0  0  0  0  0  0
  144.4424   75.5714  220.6032 H   0  0  0  0  0  0  0  0  0  0  0  0
  1  2  2  0
  2  3  1  0
  3  4  1  0
  4  5  1  0
  5  6  2  0
  5  7  1  0
  7  8  1  0
  8  9  1  0
  9 10  1  0
 10 11  1  0
 11 12  1  0
 12 13  2  0
 13 14  1  0
 14 15  1  0
 15 16  1  0
 16 17  2  0
 17 18  1  0
 18 19  2  0
 19 20  1  0
 20 21  2  0
 15 22  2  0
  2 23  1  0
 23 24  2  0
 24 25  1  0
 25 26  2  0
 26 27  1  0
 27 28  2  0
 28 29  1  0
 28 30  1  0
 30 31  2  0
 31 32  1  0
 32 33  2  0
 11  7  1  0
 22 12  1  0
 33 23  1  0
 21 16  1  0
 32 26  1  0
  3 34  1  0
  4 35  1  0
  4 36  1  0
  8 37  1  0
  8 38  1  0
  9 39  1  0
  9 40  1  0
 10 41  1  0
 10 42  1  0
 11 43  1  6
 13 44  1  0
 14 45  1  0
 17 46  1  0
 18 47  1  0
 19 48  1  0
 20 49  1  0
 21 50  1  0
 24 51  1  0
 25 52  1  0
 27 53  1  0
 30 54  1  0
 31 55  1  0
M  END
>  <smiles>  (9) 
O=C(NCC(=O)N1CCC[C@H]1c1c[nH]c(-c2ccccc2)n1)c1ccc2cc(Cl)ccc2n1

>  <score_type>  (9) 
oracle

>  <origin>  (9) 
autodockgpu

>  <m_score__min__energy>  (9) 
-9.5700000000000003

>  <m_primary>  (9) 
energy

>  <rmsd>  (9) 
6.697087463741884

>  <m_score__min__rmsd>  (9) 
6.697087463741884

>  <meeko>  (9) 
{"free_energy": -6.98, "intermolecular_energy": -8.77, "internal_energy": -4.13, "cluster_size": 23, "cluster_id": 7, "rank_in_cluster": 10}

>  <energy>  (9) 
-7.28

>  <cluster_rmsd>  (9) 
1.62

>  <cluster>  (9) 
4

$$$$

     RDKit          3D

 55 59  0  0  0  0  0  0  0  0999 V2000
  140.4880   72.8540  221.0390 O   0  0  0  0  0  0  0  0  0  0  0  0
  139.6780   72.9280  222.0070 C   0  0  0  0  0  0  0  0  0  0  0  0
  138.7180   73.9800  221.9610 N   0  0  0  0  0  0  0  0  0  0  0  0
  138.7490   74.8640  220.8260 C   0  0  0  0  0  0  0  0  0  0  0  0
  137.4060   75.1910  220.3150 C   0  0  0  0  0  0  0  0  0  0  0  0
  137.0350   74.9780  219.1240 O   0  0  0  0  0  0  0  0  0  0  0  0
  136.4790   75.7790  221.2200 N   0  0  0  0  0  0  0  0  0  0  0  0
  135.0760   76.1280  220.9830 C   0  0  0  0  0  0  0  0  0  0  0  0
  134.8460   77.3310  221.8690 C   0  0  0  0  0  0  0  0  0  0  0  0
  136.0980   77.5410  222.6560 C   0  0  0  0  0  0  0  0  0  0  0  0
  136.7390   76.1690  222.6120 C   0  0  1  0  0  0  0  0  0  0  0  0
  136.0440   75.2680  223.5680 C   0  0  0  0  0  0  0  0  0  0  0  0
  135.2810   75.6240  224.6680 C   0  0  0  0  0  0  0  0  0  0  0  0
  134.8390   74.4750  225.2530 N   0  0  0  0  0  0  0  0  0  0  0  0
  135.3060   73.4230  224.5490 C   0  0  0  0  0  0  0  0  0  0  0  0
  135.0220   72.0330  224.9000 C   0  0  0  0  0  0  0  0  0  0  0  0
  135.7070   71.0330  224.2400 C   0  0  0  0  0  0  0  0  0  0  0  0
  135.4750   69.6890  224.5360 C   0  0  0  0  0  0  0  0  0  0  0  0
  134.5430   69.3480  225.5070 C   0  0  0  0  0  0  0  0  0  0  0  0
  133.8610   70.3580  226.1640 C   0  0  0  0  0  0  0  0  0  0  0  0
  134.0980   71.7000  225.8620 C   0  0  0  0  0  0  0  0  0  0  0  0
  136.0290   73.9080  223.5380 N   0  0  0  0  0  0  0  0  0  0  0  0
  139.7200   71.9840  223.1170 C   0  0  0  0  0  0  0  0  0  0  0  0
  139.0950   70.7630  222.9580 C   0  0  0  0  0  0  0  0  0  0  0  0
  139.0920   69.8140  223.9660 C   0  0  0  0  0  0  0  0  0  0  0  0
  139.7450   70.1430  225.1450 C   0  0  0  0  0  0  0  0  0  0  0  0
  139.7920   69.2520  226.2050 C   0  0  0  0  0  0  0  0  0  0  0  0
  140.4420   69.5660  227.3930 C   0  0  0  0  0  0  0  0  0  0  0  0
  140.4790   68.4070  228.7180 Cl  0  0  0  0  0  0  0  0  0  0  0  0
  141.0630   70.8010  227.5260 C   0  0  0  0  0  0  0  0  0  0  0  0
  141.0260   71.7020  226.4740 C   0  0  0  0  0  0  0  0  0  0  0  0
  140.3750   71.3740  225.3020 C   0  0  0  0  0  0  0  0  0  0  0  0
  140.3390   72.2480  224.2830 N   0  0  0  0  0  0  0  0  0  0  0  0
  138.0420   74.0560  222.7520 H   0  0  0  0  0  0  0  0  0  0  0  0
  139.2484   75.7981  221.1226 H   0  0  0  0  0  0  0  0  0  0  0  0
  139.2910   74.3469  220.0205 H   0  0  0  0  0  0  0  0  0  0  0  0
  134.9093   76.3828  219.9260 H   0  0  0  0  0  0  0  0  0  0  0  0
  134.3889   75.2987  221.2069 H   0  0  0  0  0  0  0  0  0  0  0  0
  134.6335   78.2178  221.2539 H   0  0  0  0  0  0  0  0  0  0  0  0
  133.9864   77.1682  222.5358 H   0  0  0  0  0  0  0  0  0  0  0  0
  136.7428   78.2975  222.1849 H   0  0  0  0  0  0  0  0  0  0  0  0
  135.9207   77.9125  223.6761 H   0  0  0  0  0  0  0  0  0  0  0  0
  137.8036   76.1353  222.8866 H   0  0  0  0  0  0  0  0  0  0  0  0
  135.0700   76.6487  225.0079 H   0  0  0  0  0  0  0  0  0  0  0  0
  134.2440   74.5040  226.1020 H   0  0  0  0  0  0  0  0  0  0  0  0
  136.4461   71.2990  223.4700 H   0  0  0  0  0  0  0  0  0  0  0  0
  136.0286   68.9027  224.0019 H   0  0  0  0  0  0  0  0  0  0  0  0
  134.3497   68.2928  225.7503 H   0  0  0  0  0  0  0  0  0  0  0  0
  133.1211   70.0989  226.9357 H   0  0  0  0  0  0  0  0  0  0  0  0
  133.5464   72.4899  226.3929 H   0  0  0  0  0  0  0  0  0  0  0  0
  138.5876   70.5391  222.0081 H   0  0  0  0  0  0  0  0  0  0  0  0
  138.5937   68.8418  223.8377 H   0  0  0  0  0  0  0  0  0  0  0  0
  139.3029   68.2719  226.1040 H   0  0  0  0  0  0  0  0  0  0  0  0
  141.5810   71.0623  228.4606 H   0  0  0  0  0  0  0  0  0  0  0  0
  141.5168   72.6814  226.5732 H   0  0  0  0  0  0  0  0  0  0  0  0
  1  2  2  0
  2  3  1  0
  3  4  1  0
  4  5  1  0
  5  6  2  0
  5  7  1  0
  7  8  1  0
  8  9  1  0
  9 10  1  0
 10 11  1  0
 11 12  1  0
 12 13  2  0
 13 14  1  0
 14 15  1  0
 15 16  1  0
 16 17  2  0
 17 18  1  0
 18 19  2  0
 19 20  1  0
 20 21  2  0
 15 22  2  0
  2 23  1  0
 23 24  2  0
 24 25  1  0
 25 26  2  0
 26 27  1  0
 27 28  2  0
 28 29  1  0
 28 30  1  0
 30 31  2  0
 31 32  1  0
 32 33  2  0
 11  7  1  0
 22 12  1  0
 33 23  1  0
 21 16  1  0
 32 26  1  0
  3 34  1  0
  4 35  1  0
  4 36  1  0
  8 37  1  0
  8 38  1  0
  9 39  1  0
  9 40  1  0
 10 41  1  0
 10 42  1  0
 11 43  1  1
 13 44  1  0
 14 45  1  0
 17 46  1  0
 18 47  1  0
 19 48  1  0
 20 49  1  0
 21 50  1  0
 24 51  1  0
 25 52  1  0
 27 53  1  0
 30 54  1  0
 31 55  1  0
M  END
>  <smiles>  (10) 
O=C(NCC(=O)N1CCC[C@H]1c1c[nH]c(-c2ccccc2)n1)c1ccc2cc(Cl)ccc2n1

>  <score_type>  (10) 
oracle

>  <origin>  (10) 
autodockgpu

>  <m_score__min__energy>  (10) 
-9.5700000000000003

>  <m_primary>  (10) 
energy

>  <rmsd>  (10) 
6.95253203961992

>  <m_score__min__rmsd>  (10) 
6.95253203961992

>  <meeko>  (10) 
{"free_energy": -7.06, "intermolecular_energy": -8.85, "internal_energy": -2.94, "cluster_size": 1, "cluster_id": 8, "rank_in_cluster": 1}

>  <energy>  (10) 
-7.49

>  <cluster_rmsd>  (10) 
0.0

>  <cluster>  (10) 
5

$$$$

     RDKit          3D

 55 59  0  0  0  0  0  0  0  0999 V2000
  139.0030   75.8640  223.0790 O   0  0  0  0  0  0  0  0  0  0  0  0
  139.7000   76.0220  222.0370 C   0  0  0  0  0  0  0  0  0  0  0  0
  139.5300   77.2460  221.3300 N   0  0  0  0  0  0  0  0  0  0  0  0
  138.5840   78.1950  221.8560 C   0  0  0  0  0  0  0  0  0  0  0  0
  139.2260   79.3020  222.5870 C   0  0  0  0  0  0  0  0  0  0  0  0
  138.6400   80.0030  223.4610 O   0  0  0  0  0  0  0  0  0  0  0  0
  140.5870   79.5910  222.2860 N   0  0  0  0  0  0  0  0  0  0  0  0
  141.7920   79.0150  222.8880 C   0  0  0  0  0  0  0  0  0  0  0  0
  142.8050   80.1350  222.8180 C   0  0  0  0  0  0  0  0  0  0  0  0
  142.1630   81.2600  222.0740 C   0  0  0  0  0  0  0  0  0  0  0  0
  141.0800   80.5490  221.2880 C   0  0  1  0  0  0  0  0  0  0  0  0
  141.6900   79.8550  220.1240 C   0  0  0  0  0  0  0  0  0  0  0  0
  142.4120   80.4170  219.0840 C   0  0  0  0  0  0  0  0  0  0  0  0
  142.7780   79.4080  218.2420 N   0  0  0  0  0  0  0  0  0  0  0  0
  142.3040   78.2430  218.7310 C   0  0  0  0  0  0  0  0  0  0  0  0
  142.5130   76.9540  218.0760 C   0  0  0  0  0  0  0  0  0  0  0  0
  141.4990   76.0200  218.1200 C   0  0  0  0  0  0  0  0  0  0  0  0
  141.6450   74.7730  217.5100 C   0  0  0  0  0  0  0  0  0  0  0  0
  142.8270   74.4630  216.8500 C   0  0  0  0  0  0  0  0  0  0  0  0
  143.8390   75.4070  216.8110 C   0  0  0  0  0  0  0  0  0  0  0  0
  143.6840   76.6520  217.4230 C   0  0  0  0  0  0  0  0  0  0  0  0
  141.6510   78.5200  219.8620 N   0  0  0  0  0  0  0  0  0  0  0  0
  140.6370   75.0020  221.5790 C   0  0  0  0  0  0  0  0  0  0  0  0
  140.2080   73.6900  221.5500 C   0  0  0  0  0  0  0  0  0  0  0  0
  141.0380   72.6660  221.1260 C   0  0  0  0  0  0  0  0  0  0  0  0
  142.3210   73.0150  220.7330 C   0  0  0  0  0  0  0  0  0  0  0  0
  143.2170   72.0540  220.2950 C   0  0  0  0  0  0  0  0  0  0  0  0
  144.5070   72.3870  219.8970 C   0  0  0  0  0  0  0  0  0  0  0  0
  145.6180   71.1360  219.3460 Cl  0  0  0  0  0  0  0  0  0  0  0  0
  144.9130   73.7140  219.9350 C   0  0  0  0  0  0  0  0  0  0  0  0
  144.0270   74.6880  220.3700 C   0  0  0  0  0  0  0  0  0  0  0  0
  142.7510   74.3390  220.7620 C   0  0  0  0  0  0  0  0  0  0  0  0
  141.8930   75.2820  221.1840 N   0  0  0  0  0  0  0  0  0  0  0  0
  140.0970   77.3940  220.4670 H   0  0  0  0  0  0  0  0  0  0  0  0
  138.0068   78.6154  221.0193 H   0  0  0  0  0  0  0  0  0  0  0  0
  137.9410   77.6584  222.5692 H   0  0  0  0  0  0  0  0  0  0  0  0
  141.6057   78.7206  223.9314 H   0  0  0  0  0  0  0  0  0  0  0  0
  142.1302   78.1045  222.3717 H   0  0  0  0  0  0  0  0  0  0  0  0
  143.0786   80.4606  223.8324 H   0  0  0  0  0  0  0  0  0  0  0  0
  143.7227   79.8026  222.3107 H   0  0  0  0  0  0  0  0  0  0  0  0
  141.7333   82.0007  222.7645 H   0  0  0  0  0  0  0  0  0  0  0  0
  142.8632   81.8290  221.4448 H   0  0  0  0  0  0  0  0  0  0  0  0
  140.2932   81.1969  220.8744 H   0  0  0  0  0  0  0  0  0  0  0  0
  142.6477   81.4842  218.9595 H   0  0  0  0  0  0  0  0  0  0  0  0
  143.3310   79.6030  217.3870 H   0  0  0  0  0  0  0  0  0  0  0  0
  140.5620   76.2612  218.6432 H   0  0  0  0  0  0  0  0  0  0  0  0
  140.8271   74.0387  217.5519 H   0  0  0  0  0  0  0  0  0  0  0  0
  142.9570   73.4837  216.3663 H   0  0  0  0  0  0  0  0  0  0  0  0
  144.7790   75.1725  216.2901 H   0  0  0  0  0  0  0  0  0  0  0  0
  144.4982   77.3905  217.3827 H   0  0  0  0  0  0  0  0  0  0  0  0
  139.1830   73.4527  221.8712 H   0  0  0  0  0  0  0  0  0  0  0  0
  140.6945   71.6213  221.1020 H   0  0  0  0  0  0  0  0  0  0  0  0
  142.9002   71.0011  220.2611 H   0  0  0  0  0  0  0  0  0  0  0  0
  145.9306   73.9909  219.6222 H   0  0  0  0  0  0  0  0  0  0  0  0
  144.3422   75.7414  220.4026 H   0  0  0  0  0  0  0  0  0  0  0  0
  1  2  2  0
  2  3  1  0
  3  4  1  0
  4  5  1  0
  5  6  2  0
  5  7  1  0
  7  8  1  0
  8  9  1  0
  9 10  1  0
 10 11  1  0
 11 12  1  0
 12 13  2  0
 13 14  1  0
 14 15  1  0
 15 16  1  0
 16 17  2  0
 17 18  1  0
 18 19  2  0
 19 20  1  0
 20 21  2  0
 15 22  2  0
  2 23  1  0
 23 24  2  0
 24 25  1  0
 25 26  2  0
 26 27  1  0
 27 28  2  0
 28 29  1  0
 28 30  1  0
 30 31  2  0
 31 32  1  0
 32 33  2  0
 11  7  1  0
 22 12  1  0
 33 23  1  0
 21 16  1  0
 32 26  1  0
  3 34  1  0
  4 35  1  0
  4 36  1  0
  8 37  1  0
  8 38  1  0
  9 39  1  0
  9 40  1  0
 10 41  1  0
 10 42  1  0
 11 43  1  6
 13 44  1  0
 14 45  1  0
 17 46  1  0
 18 47  1  0
 19 48  1  0
 20 49  1  0
 21 50  1  0
 24 51  1  0
 25 52  1  0
 27 53  1  0
 30 54  1  0
 31 55  1  0
M  END
>  <smiles>  (11) 
O=C(NCC(=O)N1CCC[C@H]1c1c[nH]c(-c2ccccc2)n1)c1ccc2cc(Cl)ccc2n1

>  <score_type>  (11) 
oracle

>  <origin>  (11) 
autodockgpu

>  <m_score__min__energy>  (11) 
-9.5700000000000003

>  <m_primary>  (11) 
energy

>  <rmsd>  (11) 
6.63346258522728

>  <m_score__min__rmsd>  (11) 
6.63346258522728

>  <meeko>  (11) 
{"free_energy": -6.94, "intermolecular_energy": -8.73, "internal_energy": -4.12, "cluster_size": 23, "cluster_id": 7, "rank_in_cluster": 11}

>  <energy>  (11) 
-7.49

>  <cluster_rmsd>  (11) 
0.25

>  <cluster>  (11) 
5

$$$$

     RDKit          3D

 55 59  0  0  0  0  0  0  0  0999 V2000
  139.3220   78.3430  222.4960 O   0  0  0  0  0  0  0  0  0  0  0  0
  140.1290   77.4150  222.2050 C   0  0  0  0  0  0  0  0  0  0  0  0
  141.4850   77.7880  221.9810 N   0  0  0  0  0  0  0  0  0  0  0  0
  141.8220   79.1830  222.1030 C   0  0  0  0  0  0  0  0  0  0  0  0
  141.4730   79.9650  220.9030 C   0  0  0  0  0  0  0  0  0  0  0  0
  141.1230   81.1800  220.9330 O   0  0  0  0  0  0  0  0  0  0  0  0
  141.5360   79.3070  219.6430 N   0  0  0  0  0  0  0  0  0  0  0  0
  142.5640   79.4300  218.6060 C   0  0  0  0  0  0  0  0  0  0  0  0
  141.8070   79.2080  217.3170 C   0  0  0  0  0  0  0  0  0  0  0  0
  140.4030   78.8540  217.6880 C   0  0  0  0  0  0  0  0  0  0  0  0
  140.5650   78.3460  219.1050 C   0  0  1  0  0  0  0  0  0  0  0  0
  141.1220   76.9680  219.0760 C   0  0  0  0  0  0  0  0  0  0  0  0
  140.5790   75.8460  218.4730 C   0  0  0  0  0  0  0  0  0  0  0  0
  141.4280   74.8040  218.6980 N   0  0  0  0  0  0  0  0  0  0  0  0
  142.4780   75.2490  219.4200 C   0  0  0  0  0  0  0  0  0  0  0  0
  143.5830   74.3910  219.8400 C   0  0  0  0  0  0  0  0  0  0  0  0
  143.5000   73.0370  219.5910 C   0  0  0  0  0  0  0  0  0  0  0  0
  144.5270   72.1730  219.9710 C   0  0  0  0  0  0  0  0  0  0  0  0
  145.6520   72.6770  220.6100 C   0  0  0  0  0  0  0  0  0  0  0  0
  145.7270   74.0380  220.8560 C   0  0  0  0  0  0  0  0  0  0  0  0
  144.6950   74.8960  220.4730 C   0  0  0  0  0  0  0  0  0  0  0  0
  142.2860   76.5500  219.6430 N   0  0  0  0  0  0  0  0  0  0  0  0
  139.6950   76.0250  222.1040 C   0  0  0  0  0  0  0  0  0  0  0  0
  138.3390   75.7670  222.0760 C   0  0  0  0  0  0  0  0  0  0  0  0
  137.8500   74.4750  221.9810 C   0  0  0  0  0  0  0  0  0  0  0  0
  138.7820   73.4500  221.9160 C   0  0  0  0  0  0  0  0  0  0  0  0
  138.3800   72.1280  221.8190 C   0  0  0  0  0  0  0  0  0  0  0  0
  139.3020   71.0890  221.7530 C   0  0  0  0  0  0  0  0  0  0  0  0
  138.7520   69.4200  221.6300 Cl  0  0  0  0  0  0  0  0  0  0  0  0
  140.6600   71.3770  221.7820 C   0  0  0  0  0  0  0  0  0  0  0  0
  141.0780   72.6950  221.8780 C   0  0  0  0  0  0  0  0  0  0  0  0
  140.1490   73.7140  221.9440 C   0  0  0  0  0  0  0  0  0  0  0  0
  140.5540   74.9910  222.0370 N   0  0  0  0  0  0  0  0  0  0  0  0
  142.1640   77.0350  221.7400 H   0  0  0  0  0  0  0  0  0  0  0  0
  141.2799   79.6009  222.9641 H   0  0  0  0  0  0  0  0  0  0  0  0
  142.9122   79.2488  222.2341 H   0  0  0  0  0  0  0  0  0  0  0  0
  143.0209   80.4304  218.6244 H   0  0  0  0  0  0  0  0  0  0  0  0
  143.3908   78.7171  218.7410 H   0  0  0  0  0  0  0  0  0  0  0  0
  141.8172   80.1256  216.7105 H   0  0  0  0  0  0  0  0  0  0  0  0
  142.2698   78.4053  216.7241 H   0  0  0  0  0  0  0  0  0  0  0  0
  139.7468   79.7361  217.6531 H   0  0  0  0  0  0  0  0  0  0  0  0
  139.9370   78.1254  217.0083 H   0  0  0  0  0  0  0  0  0  0  0  0
  139.6375   78.2830  219.6930 H   0  0  0  0  0  0  0  0  0  0  0  0
  139.6330   75.8034  217.9133 H   0  0  0  0  0  0  0  0  0  0  0  0
  141.2170   73.8560  218.3330 H   0  0  0  0  0  0  0  0  0  0  0  0
  142.6108   72.6325  219.0853 H   0  0  0  0  0  0  0  0  0  0  0  0
  144.4459   71.0955  219.7650 H   0  0  0  0  0  0  0  0  0  0  0  0
  146.4693   72.0072  220.9155 H   0  0  0  0  0  0  0  0  0  0  0  0
  146.6136   74.4490  221.3610 H   0  0  0  0  0  0  0  0  0  0  0  0
  144.7707   75.9743  220.6770 H   0  0  0  0  0  0  0  0  0  0  0  0
  137.6309   76.6070  222.1304 H   0  0  0  0  0  0  0  0  0  0  0  0
  136.7694   74.2705  221.9581 H   0  0  0  0  0  0  0  0  0  0  0  0
  137.3054   71.8943  221.7936 H   0  0  0  0  0  0  0  0  0  0  0  0
  141.3994   70.5643  221.7291 H   0  0  0  0  0  0  0  0  0  0  0  0
  142.1524   72.9296  221.9017 H   0  0  0  0  0  0  0  0  0  0  0  0
  1  2  2  0
  2  3  1  0
  3  4  1  0
  4  5  1  0
  5  6  2  0
  5  7  1  0
  7  8  1  0
  8  9  1  0
  9 10  1  0
 10 11  1  0
 11 12  1  0
 12 13  2  0
 13 14  1  0
 14 15  1  0
 15 16  1  0
 16 17  2  0
 17 18  1  0
 18 19  2  0
 19 20  1  0
 20 21  2  0
 15 22  2  0
  2 23  1  0
 23 24  2  0
 24 25  1  0
 25 26  2  0
 26 27  1  0
 27 28  2  0
 28 29  1  0
 28 30  1  0
 30 31  2  0
 31 32  1  0
 32 33  2  0
 11  7  1  0
 22 12  1  0
 33 23  1  0
 21 16  1  0
 32 26  1  0
  3 34  1  0
  4 35  1  0
  4 36  1  0
  8 37  1  0
  8 38  1  0
  9 39  1  0
  9 40  1  0
 10 41  1  0
 10 42  1  0
 11 43  1  1
 13 44  1  0
 14 45  1  0
 17 46  1  0
 18 47  1  0
 19 48  1  0
 20 49  1  0
 21 50  1  0
 24 51  1  0
 25 52  1  0
 27 53  1  0
 30 54  1  0
 31 55  1  0
M  END
>  <smiles>  (12) 
O=C(NCC(=O)N1CCC[C@H]1c1c[nH]c(-c2ccccc2)n1)c1ccc2cc(Cl)ccc2n1

>  <score_type>  (12) 
oracle

>  <origin>  (12) 
autodockgpu

>  <m_score__min__energy>  (12) 
-9.5700000000000003

>  <m_primary>  (12) 
energy

>  <rmsd>  (12) 
6.7140416667175185

>  <m_score__min__rmsd>  (12) 
6.7140416667175185

>  <meeko>  (12) 
{"free_energy": -6.57, "intermolecular_energy": -8.36, "internal_energy": -3.91, "cluster_size": 6, "cluster_id": 5, "rank_in_cluster": 5}

>  <energy>  (12) 
-7.39

>  <cluster_rmsd>  (12) 
0.43

>  <cluster>  (12) 
5

$$$$

     RDKit          3D

 55 59  0  0  0  0  0  0  0  0999 V2000
  139.2680   78.2690  222.4330 O   0  0  0  0  0  0  0  0  0  0  0  0
  140.0800   77.3370  222.1700 C   0  0  0  0  0  0  0  0  0  0  0  0
  141.4400   77.7080  221.9670 N   0  0  0  0  0  0  0  0  0  0  0  0
  141.7760   79.1040  222.0780 C   0  0  0  0  0  0  0  0  0  0  0  0
  141.4430   79.8720  220.8650 C   0  0  0  0  0  0  0  0  0  0  0  0
  141.0860   81.0850  220.8760 O   0  0  0  0  0  0  0  0  0  0  0  0
  141.5320   79.2010  219.6130 N   0  0  0  0  0  0  0  0  0  0  0  0
  142.5770   79.3190  218.5920 C   0  0  0  0  0  0  0  0  0  0  0  0
  141.8440   79.0810  217.2920 C   0  0  0  0  0  0  0  0  0  0  0  0
  140.4360   78.7250  217.6420 C   0  0  0  0  0  0  0  0  0  0  0  0
  140.5740   78.2310  219.0670 C   0  0  1  0  0  0  0  0  0  0  0  0
  141.1380   76.8560  219.0610 C   0  0  0  0  0  0  0  0  0  0  0  0
  140.6090   75.7240  218.4620 C   0  0  0  0  0  0  0  0  0  0  0  0
  141.4590   74.6880  218.7110 N   0  0  0  0  0  0  0  0  0  0  0  0
  142.4960   75.1460  219.4440 C   0  0  0  0  0  0  0  0  0  0  0  0
  143.5990   74.2990  219.8900 C   0  0  0  0  0  0  0  0  0  0  0  0
  144.7000   74.8980  220.4660 C   0  0  0  0  0  0  0  0  0  0  0  0
  145.7810   74.1360  220.9110 C   0  0  0  0  0  0  0  0  0  0  0  0
  145.7540   72.7540  220.7730 C   0  0  0  0  0  0  0  0  0  0  0  0
  144.6450   72.1610  220.1940 C   0  0  0  0  0  0  0  0  0  0  0  0
  143.5670   72.9310  219.7520 C   0  0  0  0  0  0  0  0  0  0  0  0
  142.2950   76.4490  219.6500 N   0  0  0  0  0  0  0  0  0  0  0  0
  139.6480   75.9470  222.0780 C   0  0  0  0  0  0  0  0  0  0  0  0
  138.2920   75.6880  222.0350 C   0  0  0  0  0  0  0  0  0  0  0  0
  137.8050   74.3940  221.9480 C   0  0  0  0  0  0  0  0  0  0  0  0
  138.7380   73.3690  221.9060 C   0  0  0  0  0  0  0  0  0  0  0  0
  138.3380   72.0460  221.8180 C   0  0  0  0  0  0  0  0  0  0  0  0
  139.2600   71.0060  221.7750 C   0  0  0  0  0  0  0  0  0  0  0  0
  138.7120   69.3370  221.6640 Cl  0  0  0  0  0  0  0  0  0  0  0  0
  140.6170   71.2950  221.8200 C   0  0  0  0  0  0  0  0  0  0  0  0
  141.0340   72.6150  221.9070 C   0  0  0  0  0  0  0  0  0  0  0  0
  140.1040   73.6340  221.9490 C   0  0  0  0  0  0  0  0  0  0  0  0
  140.5070   74.9110  222.0340 N   0  0  0  0  0  0  0  0  0  0  0  0
  142.1240   76.9510  221.7490 H   0  0  0  0  0  0  0  0  0  0  0  0
  141.2229   79.5317  222.9272 H   0  0  0  0  0  0  0  0  0  0  0  0
  142.8643   79.1712  222.2230 H   0  0  0  0  0  0  0  0  0  0  0  0
  143.0288   80.3218  218.6086 H   0  0  0  0  0  0  0  0  0  0  0  0
  143.4043   78.6111  218.7481 H   0  0  0  0  0  0  0  0  0  0  0  0
  141.8611   79.9925  216.6765 H   0  0  0  0  0  0  0  0  0  0  0  0
  142.3205   78.2746  216.7152 H   0  0  0  0  0  0  0  0  0  0  0  0
  139.7772   79.6041  217.5870 H   0  0  0  0  0  0  0  0  0  0  0  0
  139.9854   77.9876  216.9614 H   0  0  0  0  0  0  0  0  0  0  0  0
  139.6361   78.1697  219.6385 H   0  0  0  0  0  0  0  0  0  0  0  0
  139.6717   75.6710  217.8887 H   0  0  0  0  0  0  0  0  0  0  0  0
  141.2580   73.7360  218.3530 H   0  0  0  0  0  0  0  0  0  0  0  0
  144.7262   75.9922  220.5761 H   0  0  0  0  0  0  0  0  0  0  0  0
  146.6515   74.6280  221.3695 H   0  0  0  0  0  0  0  0  0  0  0  0
  146.5997   72.1410  221.1180 H   0  0  0  0  0  0  0  0  0  0  0  0
  144.6125   71.0674  220.0805 H   0  0  0  0  0  0  0  0  0  0  0  0
  142.6934   72.4440  219.2941 H   0  0  0  0  0  0  0  0  0  0  0  0
  137.5828   76.5281  222.0706 H   0  0  0  0  0  0  0  0  0  0  0  0
  136.7249   74.1885  221.9137 H   0  0  0  0  0  0  0  0  0  0  0  0
  137.2638   71.8120  221.7812 H   0  0  0  0  0  0  0  0  0  0  0  0
  141.3572   70.4820  221.7869 H   0  0  0  0  0  0  0  0  0  0  0  0
  142.1080   72.8502  221.9426 H   0  0  0  0  0  0  0  0  0  0  0  0
  1  2  2  0
  2  3  1  0
  3  4  1  0
  4  5  1  0
  5  6  2  0
  5  7  1  0
  7  8  1  0
  8  9  1  0
  9 10  1  0
 10 11  1  0
 11 12  1  0
 12 13  2  0
 13 14  1  0
 14 15  1  0
 15 16  1  0
 16 17  2  0
 17 18  1  0
 18 19  2  0
 19 20  1  0
 20 21  2  0
 15 22  2  0
  2 23  1  0
 23 24  2  0
 24 25  1  0
 25 26  2  0
 26 27  1  0
 27 28  2  0
 28 29  1  0
 28 30  1  0
 30 31  2  0
 31 32  1  0
 32 33  2  0
 11  7  1  0
 22 12  1  0
 33 23  1  0
 21 16  1  0
 32 26  1  0
  3 34  1  0
  4 35  1  0
  4 36  1  0
  8 37  1  0
  8 38  1  0
  9 39  1  0
  9 40  1  0
 10 41  1  0
 10 42  1  0
 11 43  1  1
 13 44  1  0
 14 45  1  0
 17 46  1  0
 18 47  1  0
 19 48  1  0
 20 49  1  0
 21 50  1  0
 24 51  1  0
 25 52  1  0
 27 53  1  0
 30 54  1  0
 31 55  1  0
M  END
>  <smiles>  (13) 
O=C(NCC(=O)N1CCC[C@H]1c1c[nH]c(-c2ccccc2)n1)c1ccc2cc(Cl)ccc2n1

>  <score_type>  (13) 
oracle

>  <origin>  (13) 
autodockgpu

>  <m_score__min__energy>  (13) 
-9.5700000000000003

>  <m_primary>  (13) 
energy

>  <rmsd>  (13) 
6.750975732948516

>  <m_score__min__rmsd>  (13) 
6.750975732948516

>  <meeko>  (13) 
{"free_energy": -6.6, "intermolecular_energy": -8.39, "internal_energy": -3.89, "cluster_size": 6, "cluster_id": 5, "rank_in_cluster": 4}

>  <energy>  (13) 
-6.6

>  <cluster_rmsd>  (13) 
1.16

>  <cluster>  (13) 
5

$$$$

     RDKit          3D

 55 59  0  0  0  0  0  0  0  0999 V2000
  137.7660   70.4500  221.1820 O   0  0  0  0  0  0  0  0  0  0  0  0
  138.0630   71.0620  222.2480 C   0  0  0  0  0  0  0  0  0  0  0  0
  137.8320   72.4670  222.2680 N   0  0  0  0  0  0  0  0  0  0  0  0
  137.2840   73.0700  221.0810 C   0  0  0  0  0  0  0  0  0  0  0  0
  138.2760   73.2160  220.0010 C   0  0  0  0  0  0  0  0  0  0  0  0
  138.1610   72.6760  218.8630 O   0  0  0  0  0  0  0  0  0  0  0  0
  139.4250   74.0130  220.2620 N   0  0  0  0  0  0  0  0  0  0  0  0
  140.2380   74.7730  219.3080 C   0  0  0  0  0  0  0  0  0  0  0  0
  141.6260   74.7370  219.9050 C   0  0  0  0  0  0  0  0  0  0  0  0
  141.5170   74.0550  221.2290 C   0  0  0  0  0  0  0  0  0  0  0  0
  140.0530   74.2470  221.5680 C   0  0  1  0  0  0  0  0  0  0  0  0
  139.8330   75.6400  222.0360 C   0  0  0  0  0  0  0  0  0  0  0  0
  138.6270   76.2570  222.3270 C   0  0  0  0  0  0  0  0  0  0  0  0
  138.9000   77.5340  222.7200 N   0  0  0  0  0  0  0  0  0  0  0  0
  140.2350   77.7220  222.6810 C   0  0  0  0  0  0  0  0  0  0  0  0
  140.8780   78.9840  223.0410 C   0  0  0  0  0  0  0  0  0  0  0  0
  142.2210   78.9740  223.3550 C   0  0  0  0  0  0  0  0  0  0  0  0
  142.8850   80.1500  223.7060 C   0  0  0  0  0  0  0  0  0  0  0  0
  142.1880   81.3510  223.7410 C   0  0  0  0  0  0  0  0  0  0  0  0
  140.8400   81.3520  223.4250 C   0  0  0  0  0  0  0  0  0  0  0  0
  140.1840   80.1700  223.0740 C   0  0  0  0  0  0  0  0  0  0  0  0
  140.7880   76.5800  222.2680 N   0  0  0  0  0  0  0  0  0  0  0  0
  138.6150   70.3650  223.4040 C   0  0  0  0  0  0  0  0  0  0  0  0
  138.4770   68.9910  223.4630 C   0  0  0  0  0  0  0  0  0  0  0  0
  138.9750   68.2590  224.5280 C   0  0  0  0  0  0  0  0  0  0  0  0
  139.6170   68.9650  225.5350 C   0  0  0  0  0  0  0  0  0  0  0  0
  140.1450   68.3120  226.6360 C   0  0  0  0  0  0  0  0  0  0  0  0
  140.7920   69.0040  227.6540 C   0  0  0  0  0  0  0  0  0  0  0  0
  141.4500   68.1380  229.0390 Cl  0  0  0  0  0  0  0  0  0  0  0  0
  140.9170   70.3840  227.5690 C   0  0  0  0  0  0  0  0  0  0  0  0
  140.3940   71.0520  226.4720 C   0  0  0  0  0  0  0  0  0  0  0  0
  139.7550   70.3490  225.4720 C   0  0  0  0  0  0  0  0  0  0  0  0
  139.2480   70.9960  224.4100 N   0  0  0  0  0  0  0  0  0  0  0  0
  138.0720   72.9880  223.1390 H   0  0  0  0  0  0  0  0  0  0  0  0
  136.4587   72.4406  220.7167 H   0  0  0  0  0  0  0  0  0  0  0  0
  136.9406   74.0792  221.3521 H   0  0  0  0  0  0  0  0  0  0  0  0
  140.2258   74.2967  218.3165 H   0  0  0  0  0  0  0  0  0  0  0  0
  139.8676   75.7976  219.1562 H   0  0  0  0  0  0  0  0  0  0  0  0
  142.3055   74.1761  219.2465 H   0  0  0  0  0  0  0  0  0  0  0  0
  142.0290   75.7540  220.0205 H   0  0  0  0  0  0  0  0  0  0  0  0
  141.7715   72.9878  221.1501 H   0  0  0  0  0  0  0  0  0  0  0  0
  142.2028   74.4557  221.9900 H   0  0  0  0  0  0  0  0  0  0  0  0
  139.6632   73.5968  222.3651 H   0  0  0  0  0  0  0  0  0  0  0  0
  137.6294   75.7994  222.2542 H   0  0  0  0  0  0  0  0  0  0  0  0
  138.1370   78.1830  222.9880 H   0  0  0  0  0  0  0  0  0  0  0  0
  142.7768   78.0251  223.3283 H   0  0  0  0  0  0  0  0  0  0  0  0
  143.9564   80.1261  223.9540 H   0  0  0  0  0  0  0  0  0  0  0  0
  142.6986   82.2859  224.0153 H   0  0  0  0  0  0  0  0  0  0  0  0
  140.2777   82.2971  223.4508 H   0  0  0  0  0  0  0  0  0  0  0  0
  139.1129   80.1882  222.8242 H   0  0  0  0  0  0  0  0  0  0  0  0
  137.9600   68.4671  222.6456 H   0  0  0  0  0  0  0  0  0  0  0  0
  138.8662   67.1653  224.5735 H   0  0  0  0  0  0  0  0  0  0  0  0
  140.0503   67.2184  226.7072 H   0  0  0  0  0  0  0  0  0  0  0  0
  141.4275   70.9439  228.3665 H   0  0  0  0  0  0  0  0  0  0  0  0
  140.4890   72.1455  226.3992 H   0  0  0  0  0  0  0  0  0  0  0  0
  1  2  2  0
  2  3  1  0
  3  4  1  0
  4  5  1  0
  5  6  2  0
  5  7  1  0
  7  8  1  0
  8  9  1  0
  9 10  1  0
 10 11  1  0
 11 12  1  0
 12 13  2  0
 13 14  1  0
 14 15  1  0
 15 16  1  0
 16 17  2  0
 17 18  1  0
 18 19  2  0
 19 20  1  0
 20 21  2  0
 15 22  2  0
  2 23  1  0
 23 24  2  0
 24 25  1  0
 25 26  2  0
 26 27  1  0
 27 28  2  0
 28 29  1  0
 28 30  1  0
 30 31  2  0
 31 32  1  0
 32 33  2  0
 11  7  1  0
 22 12  1  0
 33 23  1  0
 21 16  1  0
 32 26  1  0
  3 34  1  0
  4 35  1  0
  4 36  1  0
  8 37  1  0
  8 38  1  0
  9 39  1  0
  9 40  1  0
 10 41  1  0
 10 42  1  0
 11 43  1  1
 13 44  1  0
 14 45  1  0
 17 46  1  0
 18 47  1  0
 19 48  1  0
 20 49  1  0
 21 50  1  0
 24 51  1  0
 25 52  1  0
 27 53  1  0
 30 54  1  0
 31 55  1  0
M  END
>  <smiles>  (14) 
O=C(NCC(=O)N1CCC[C@H]1c1c[nH]c(-c2ccccc2)n1)c1ccc2cc(Cl)ccc2n1

>  <score_type>  (14) 
oracle

>  <origin>  (14) 
autodockgpu

>  <m_score__min__energy>  (14) 
-9.5700000000000003

>  <m_primary>  (14) 
energy

>  <rmsd>  (14) 
2.768531343671114

>  <m_score__min__rmsd>  (14) 
2.768531343671114

>  <meeko>  (14) 
{"free_energy": -8.87, "intermolecular_energy": -10.66, "internal_energy": -1.78, "cluster_size": 3, "cluster_id": 2, "rank_in_cluster": 1}

>  <energy>  (14) 
-6.57

>  <cluster_rmsd>  (14) 
1.11

>  <cluster>  (14) 
5

$$$$

     RDKit          3D

 55 59  0  0  0  0  0  0  0  0999 V2000
  139.1850   75.8900  223.0860 O   0  0  0  0  0  0  0  0  0  0  0  0
  139.7500   76.0130  221.9620 C   0  0  0  0  0  0  0  0  0  0  0  0
  139.4550   77.1930  221.2210 N   0  0  0  0  0  0  0  0  0  0  0  0
  138.5450   78.1410  221.8080 C   0  0  0  0  0  0  0  0  0  0  0  0
  139.2270   79.1690  222.6140 C   0  0  0  0  0  0  0  0  0  0  0  0
  138.6750   79.8040  223.5590 O   0  0  0  0  0  0  0  0  0  0  0  0
  140.5860   79.4570  222.3050 N   0  0  0  0  0  0  0  0  0  0  0  0
  141.7940   78.8880  222.9070 C   0  0  0  0  0  0  0  0  0  0  0  0
  142.8050   80.0080  222.8230 C   0  0  0  0  0  0  0  0  0  0  0  0
  142.1580   81.1260  222.0720 C   0  0  0  0  0  0  0  0  0  0  0  0
  141.0740   80.4070  221.2970 C   0  0  1  0  0  0  0  0  0  0  0  0
  141.6800   79.7040  220.1360 C   0  0  0  0  0  0  0  0  0  0  0  0
  142.4160   80.2550  219.1010 C   0  0  0  0  0  0  0  0  0  0  0  0
  142.7720   79.2410  218.2610 N   0  0  0  0  0  0  0  0  0  0  0  0
  142.2780   78.0830  218.7470 C   0  0  0  0  0  0  0  0  0  0  0  0
  142.4710   76.7910  218.0940 C   0  0  0  0  0  0  0  0  0  0  0  0
  141.4040   75.9200  218.0250 C   0  0  0  0  0  0  0  0  0  0  0  0
  141.5340   74.6730  217.4120 C   0  0  0  0  0  0  0  0  0  0  0  0
  142.7520   74.2990  216.8610 C   0  0  0  0  0  0  0  0  0  0  0  0
  143.8180   75.1800  216.9340 C   0  0  0  0  0  0  0  0  0  0  0  0
  143.6800   76.4250  217.5490 C   0  0  0  0  0  0  0  0  0  0  0  0
  141.6230   78.3700  219.8740 N   0  0  0  0  0  0  0  0  0  0  0  0
  140.6620   74.9980  221.4470 C   0  0  0  0  0  0  0  0  0  0  0  0
  140.1630   73.7310  221.2180 C   0  0  0  0  0  0  0  0  0  0  0  0
  140.9660   72.7140  220.7280 C   0  0  0  0  0  0  0  0  0  0  0  0
  142.2940   73.0240  220.4790 C   0  0  0  0  0  0  0  0  0  0  0  0
  143.1670   72.0670  219.9880 C   0  0  0  0  0  0  0  0  0  0  0  0
  144.5020   72.3600  219.7320 C   0  0  0  0  0  0  0  0  0  0  0  0
  145.5820   71.1160  219.1090 Cl  0  0  0  0  0  0  0  0  0  0  0  0
  144.9780   73.6420  219.9710 C   0  0  0  0  0  0  0  0  0  0  0  0
  144.1160   74.6110  220.4610 C   0  0  0  0  0  0  0  0  0  0  0  0
  142.7940   74.3020  220.7100 C   0  0  0  0  0  0  0  0  0  0  0  0
  141.9600   75.2400  221.1850 N   0  0  0  0  0  0  0  0  0  0  0  0
  139.9130   77.3110  220.2910 H   0  0  0  0  0  0  0  0  0  0  0  0
  137.9892   78.6400  221.0005 H   0  0  0  0  0  0  0  0  0  0  0  0
  137.8774   77.5835  222.4814 H   0  0  0  0  0  0  0  0  0  0  0  0
  141.6124   78.6026  223.9537 H   0  0  0  0  0  0  0  0  0  0  0  0
  142.1312   77.9734  222.3973 H   0  0  0  0  0  0  0  0  0  0  0  0
  143.0826   80.3427  223.8334 H   0  0  0  0  0  0  0  0  0  0  0  0
  143.7209   79.6724  222.3147 H   0  0  0  0  0  0  0  0  0  0  0  0
  141.7298   81.8717  222.7579 H   0  0  0  0  0  0  0  0  0  0  0  0
  142.8547   81.6910  221.4353 H   0  0  0  0  0  0  0  0  0  0  0  0
  140.2847   81.0503  220.8809 H   0  0  0  0  0  0  0  0  0  0  0  0
  142.6682   81.3186  218.9782 H   0  0  0  0  0  0  0  0  0  0  0  0
  143.3330   79.4270  217.4090 H   0  0  0  0  0  0  0  0  0  0  0  0
  140.4366   76.2123  218.4593 H   0  0  0  0  0  0  0  0  0  0  0  0
  140.6740   73.9887  217.3656 H   0  0  0  0  0  0  0  0  0  0  0  0
  142.8685   73.3193  216.3745 H   0  0  0  0  0  0  0  0  0  0  0  0
  144.7879   74.8941  216.5008 H   0  0  0  0  0  0  0  0  0  0  0  0
  144.5369   77.1130  217.5980 H   0  0  0  0  0  0  0  0  0  0  0  0
  139.1035   73.5245  221.4295 H   0  0  0  0  0  0  0  0  0  0  0  0
  140.5675   71.7052  220.5446 H   0  0  0  0  0  0  0  0  0  0  0  0
  142.7948   71.0499  219.7958 H   0  0  0  0  0  0  0  0  0  0  0  0
  146.0318   73.8873  219.7729 H   0  0  0  0  0  0  0  0  0  0  0  0
  144.4867   75.6289  220.6519 H   0  0  0  0  0  0  0  0  0  0  0  0
  1  2  2  0
  2  3  1  0
  3  4  1  0
  4  5  1  0
  5  6  2  0
  5  7  1  0
  7  8  1  0
  8  9  1  0
  9 10  1  0
 10 11  1  0
 11 12  1  0
 12 13  2  0
 13 14  1  0
 14 15  1  0
 15 16  1  0
 16 17  2  0
 17 18  1  0
 18 19  2  0
 19 20  1  0
 20 21  2  0
 15 22  2  0
  2 23  1  0
 23 24  2  0
 24 25  1  0
 25 26  2  0
 26 27  1  0
 27 28  2  0
 28 29  1  0
 28 30  1  0
 30 31  2  0
 31 32  1  0
 32 33  2  0
 11  7  1  0
 22 12  1  0
 33 23  1  0
 21 16  1  0
 32 26  1  0
  3 34  1  0
  4 35  1  0
  4 36  1  0
  8 37  1  0
  8 38  1  0
  9 39  1  0
  9 40  1  0
 10 41  1  0
 10 42  1  0
 11 43  1  6
 13 44  1  0
 14 45  1  0
 17 46  1  0
 18 47  1  0
 19 48  1  0
 20 49  1  0
 21 50  1  0
 24 51  1  0
 25 52  1  0
 27 53  1  0
 30 54  1  0
 31 55  1  0
M  END
>  <smiles>  (15) 
O=C(NCC(=O)N1CCC[C@H]1c1c[nH]c(-c2ccccc2)n1)c1ccc2cc(Cl)ccc2n1

>  <score_type>  (15) 
oracle

>  <origin>  (15) 
autodockgpu

>  <m_score__min__energy>  (15) 
-9.5700000000000003

>  <m_primary>  (15) 
energy

>  <rmsd>  (15) 
6.662488537140444

>  <m_score__min__rmsd>  (15) 
6.662488537140444

>  <meeko>  (15) 
{"free_energy": -6.77, "intermolecular_energy": -8.56, "internal_energy": -4.26, "cluster_size": 23, "cluster_id": 7, "rank_in_cluster": 20}

>  <energy>  (15) 
-6.37

>  <cluster_rmsd>  (15) 
1.11

>  <cluster>  (15) 
5

$$$$

     RDKit          3D

 55 59  0  0  0  0  0  0  0  0999 V2000
  136.5580   77.3670  222.6150 O   0  0  0  0  0  0  0  0  0  0  0  0
  136.8820   76.1950  222.9610 C   0  0  0  0  0  0  0  0  0  0  0  0
  138.1910   75.7590  222.6080 N   0  0  0  0  0  0  0  0  0  0  0  0
  139.0320   76.6820  221.8910 C   0  0  0  0  0  0  0  0  0  0  0  0
  140.4450   76.2650  221.8580 C   0  0  0  0  0  0  0  0  0  0  0  0
  141.3940   76.9560  222.3270 O   0  0  0  0  0  0  0  0  0  0  0  0
  140.7490   75.0090  221.2620 N   0  0  0  0  0  0  0  0  0  0  0  0
  142.0660   74.4600  220.9240 C   0  0  0  0  0  0  0  0  0  0  0  0
  141.8000   73.6010  219.7100 C   0  0  0  0  0  0  0  0  0  0  0  0
  140.3240   73.6090  219.4800 C   0  0  0  0  0  0  0  0  0  0  0  0
  139.7890   73.9780  220.8490 C   0  0  1  0  0  0  0  0  0  0  0  0
  139.8510   72.7890  221.7400 C   0  0  0  0  0  0  0  0  0  0  0  0
  139.8050   71.4530  221.3760 C   0  0  0  0  0  0  0  0  0  0  0  0
  139.8940   70.7120  222.5170 N   0  0  0  0  0  0  0  0  0  0  0  0
  139.9940   71.5490  223.5710 C   0  0  0  0  0  0  0  0  0  0  0  0
  140.1070   71.0880  224.9530 C   0  0  0  0  0  0  0  0  0  0  0  0
  140.8680   71.8290  225.8350 C   0  0  0  0  0  0  0  0  0  0  0  0
  141.0090   71.4350  227.1660 C   0  0  0  0  0  0  0  0  0  0  0  0
  140.3780   70.2820  227.6150 C   0  0  0  0  0  0  0  0  0  0  0  0
  139.6180   69.5450  226.7230 C   0  0  0  0  0  0  0  0  0  0  0  0
  139.4810   69.9460  225.3930 C   0  0  0  0  0  0  0  0  0  0  0  0
  139.9670   72.7950  223.0950 N   0  0  0  0  0  0  0  0  0  0  0  0
  135.9610   75.3280  223.6890 C   0  0  0  0  0  0  0  0  0  0  0  0
  135.9080   73.9940  223.3370 C   0  0  0  0  0  0  0  0  0  0  0  0
  135.0610   73.1080  223.9810 C   0  0  0  0  0  0  0  0  0  0  0  0
  134.2650   73.6200  224.9950 C   0  0  0  0  0  0  0  0  0  0  0  0
  133.3890   72.8040  225.6920 C   0  0  0  0  0  0  0  0  0  0  0  0
  132.5840   73.3010  226.7110 C   0  0  0  0  0  0  0  0  0  0  0  0
  131.4810   72.2330  227.5740 Cl  0  0  0  0  0  0  0  0  0  0  0  0
  132.6570   74.6470  227.0440 C   0  0  0  0  0  0  0  0  0  0  0  0
  133.5300   75.4760  226.3570 C   0  0  0  0  0  0  0  0  0  0  0  0
  134.3210   74.9650  225.3470 C   0  0  0  0  0  0  0  0  0  0  0  0
  135.1660   75.7680  224.6810 N   0  0  0  0  0  0  0  0  0  0  0  0
  138.4740   74.7940  222.8860 H   0  0  0  0  0  0  0  0  0  0  0  0
  138.6651   76.7603  220.8570 H   0  0  0  0  0  0  0  0  0  0  0  0
  138.9853   77.6471  222.4167 H   0  0  0  0  0  0  0  0  0  0  0  0
  142.7764   75.2653  220.6857 H   0  0  0  0  0  0  0  0  0  0  0  0
  142.5160   73.8949  221.7536 H   0  0  0  0  0  0  0  0  0  0  0  0
  142.3205   74.0149  218.8338 H   0  0  0  0  0  0  0  0  0  0  0  0
  142.1656   72.5757  219.8686 H   0  0  0  0  0  0  0  0  0  0  0  0
  140.0418   74.3587  218.7261 H   0  0  0  0  0  0  0  0  0  0  0  0
  139.9319   72.6563  219.0946 H   0  0  0  0  0  0  0  0  0  0  0  0
  138.7431   74.3178  220.8718 H   0  0  0  0  0  0  0  0  0  0  0  0
  139.7133   71.0612  220.3522 H   0  0  0  0  0  0  0  0  0  0  0  0
  139.8790   69.6760  222.4810 H   0  0  0  0  0  0  0  0  0  0  0  0
  141.3700   72.7425  225.4836 H   0  0  0  0  0  0  0  0  0  0  0  0
  141.6180   72.0356  227.8576 H   0  0  0  0  0  0  0  0  0  0  0  0
  140.4805   69.9599  228.6618 H   0  0  0  0  0  0  0  0  0  0  0  0
  139.1145   68.6297  227.0675 H   0  0  0  0  0  0  0  0  0  0  0  0
  138.8728   69.3488  224.6977 H   0  0  0  0  0  0  0  0  0  0  0  0
  136.5538   73.6265  222.5259 H   0  0  0  0  0  0  0  0  0  0  0  0
  135.0211   72.0450  223.7009 H   0  0  0  0  0  0  0  0  0  0  0  0
  133.3288   71.7366  225.4330 H   0  0  0  0  0  0  0  0  0  0  0  0
  132.0258   75.0530  227.8482 H   0  0  0  0  0  0  0  0  0  0  0  0
  133.5928   76.5430  226.6168 H   0  0  0  0  0  0  0  0  0  0  0  0
  1  2  2  0
  2  3  1  0
  3  4  1  0
  4  5  1  0
  5  6  2  0
  5  7  1  0
  7  8  1  0
  8  9  1  0
  9 10  1  0
 10 11  1  0
 11 12  1  0
 12 13  2  0
 13 14  1  0
 14 15  1  0
 15 16  1  0
 16 17  2  0
 17 18  1  0
 18 19  2  0
 19 20  1  0
 20 21  2  0
 15 22  2  0
  2 23  1  0
 23 24  2  0
 24 25  1  0
 25 26  2  0
 26 27  1  0
 27 28  2  0
 28 29  1  0
 28 30  1  0
 30 31  2  0
 31 32  1  0
 32 33  2  0
 11  7  1  0
 22 12  1  0
 33 23  1  0
 21 16  1  0
 32 26  1  0
  3 34  1  0
  4 35  1  0
  4 36  1  0
  8 37  1  0
  8 38  1  0
  9 39  1  0
  9 40  1  0
 10 41  1  0
 10 42  1  0
 11 43  1  6
 13 44  1  0
 14 45  1  0
 17 46  1  0
 18 47  1  0
 19 48  1  0
 20 49  1  0
 21 50  1  0
 24 51  1  0
 25 52  1  0
 27 53  1  0
 30 54  1  0
 31 55  1  0
M  END
>  <smiles>  (16) 
O=C(NCC(=O)N1CCC[C@H]1c1c[nH]c(-c2ccccc2)n1)c1ccc2cc(Cl)ccc2n1

>  <score_type>  (16) 
oracle

>  <origin>  (16) 
autodockgpu

>  <m_score__min__energy>  (16) 
-9.5700000000000003

>  <m_primary>  (16) 
energy

>  <rmsd>  (16) 
7.707070833091479

>  <m_score__min__rmsd>  (16) 
7.707070833091479

>  <meeko>  (16) 
{"free_energy": -8.34, "intermolecular_energy": -10.13, "internal_energy": -2.05, "cluster_size": 3, "cluster_id": 4, "rank_in_cluster": 1}

>  <energy>  (16) 
-7.2

>  <cluster_rmsd>  (16) 
0.0

>  <cluster>  (16) 
6

$$$$

     RDKit          3D

 55 59  0  0  0  0  0  0  0  0999 V2000
  142.6560   76.8540  217.3590 O   0  0  0  0  0  0  0  0  0  0  0  0
  142.5850   77.3320  218.5270 C   0  0  0  0  0  0  0  0  0  0  0  0
  142.9130   76.4550  219.6010 N   0  0  0  0  0  0  0  0  0  0  0  0
  143.2960   75.1080  219.2690 C   0  0  0  0  0  0  0  0  0  0  0  0
  142.1470   74.1880  219.1840 C   0  0  0  0  0  0  0  0  0  0  0  0
  141.9190   73.4370  218.1930 O   0  0  0  0  0  0  0  0  0  0  0  0
  141.2480   74.1500  220.2860 N   0  0  0  0  0  0  0  0  0  0  0  0
  141.4450   73.5250  221.5970 C   0  0  0  0  0  0  0  0  0  0  0  0
  140.0540   73.1030  222.0100 C   0  0  0  0  0  0  0  0  0  0  0  0
  139.1130   73.6110  220.9660 C   0  0  0  0  0  0  0  0  0  0  0  0
  139.9050   74.7420  220.3440 C   0  0  1  0  0  0  0  0  0  0  0  0
  139.8700   75.9240  221.2440 C   0  0  0  0  0  0  0  0  0  0  0  0
  138.8330   76.3330  222.0660 C   0  0  0  0  0  0  0  0  0  0  0  0
  139.2380   77.4650  222.7100 N   0  0  0  0  0  0  0  0  0  0  0  0
  140.4920   77.7640  222.3110 C   0  0  0  0  0  0  0  0  0  0  0  0
  141.2360   78.9200  222.8050 C   0  0  0  0  0  0  0  0  0  0  0  0
  140.5500   79.9060  223.4840 C   0  0  0  0  0  0  0  0  0  0  0  0
  141.2120   81.0310  223.9780 C   0  0  0  0  0  0  0  0  0  0  0  0
  142.5800   81.1650  223.7860 C   0  0  0  0  0  0  0  0  0  0  0  0
  143.2610   80.1710  223.1040 C   0  0  0  0  0  0  0  0  0  0  0  0
  142.5910   79.0490  222.6130 C   0  0  0  0  0  0  0  0  0  0  0  0
  140.8640   76.8330  221.4300 N   0  0  0  0  0  0  0  0  0  0  0  0
  142.1860   78.7140  218.7680 C   0  0  0  0  0  0  0  0  0  0  0  0
  142.9240   79.7180  218.1710 C   0  0  0  0  0  0  0  0  0  0  0  0
  142.6070   81.0540  218.3510 C   0  0  0  0  0  0  0  0  0  0  0  0
  141.5170   81.3410  219.1590 C   0  0  0  0  0  0  0  0  0  0  0  0
  141.1310   82.6510  219.3920 C   0  0  0  0  0  0  0  0  0  0  0  0
  140.0410   82.9570  220.1990 C   0  0  0  0  0  0  0  0  0  0  0  0
  139.5800   84.6340  220.4730 Cl  0  0  0  0  0  0  0  0  0  0  0  0
  139.3160   81.9280  220.7870 C   0  0  0  0  0  0  0  0  0  0  0  0
  139.6900   80.6120  220.5620 C   0  0  0  0  0  0  0  0  0  0  0  0
  140.7750   80.3280  219.7580 C   0  0  0  0  0  0  0  0  0  0  0  0
  141.1380   79.0530  219.5410 N   0  0  0  0  0  0  0  0  0  0  0  0
  142.8590   76.8330  220.5710 H   0  0  0  0  0  0  0  0  0  0  0  0
  143.8093   75.1190  218.2962 H   0  0  0  0  0  0  0  0  0  0  0  0
  143.9511   74.7437  220.0741 H   0  0  0  0  0  0  0  0  0  0  0  0
  142.1116   72.6535  221.5191 H   0  0  0  0  0  0  0  0  0  0  0  0
  141.9165   74.2027  222.3239 H   0  0  0  0  0  0  0  0  0  0  0  0
  139.9946   72.0062  222.0701 H   0  0  0  0  0  0  0  0  0  0  0  0
  139.7986   73.5105  222.9993 H   0  0  0  0  0  0  0  0  0  0  0  0
  138.8812   72.8318  220.2249 H   0  0  0  0  0  0  0  0  0  0  0  0
  138.1370   73.9233  221.3658 H   0  0  0  0  0  0  0  0  0  0  0  0
  139.5380   75.0957  219.3692 H   0  0  0  0  0  0  0  0  0  0  0  0
  137.8588   75.8349  222.1790 H   0  0  0  0  0  0  0  0  0  0  0  0
  138.6130   77.9480  223.3810 H   0  0  0  0  0  0  0  0  0  0  0  0
  139.4657   79.8039  223.6382 H   0  0  0  0  0  0  0  0  0  0  0  0
  140.6516   81.8087  224.5176 H   0  0  0  0  0  0  0  0  0  0  0  0
  143.1145   82.0466  224.1694 H   0  0  0  0  0  0  0  0  0  0  0  0
  144.3455   80.2667  222.9468 H   0  0  0  0  0  0  0  0  0  0  0  0
  143.1471   78.2686  222.0728 H   0  0  0  0  0  0  0  0  0  0  0  0
  143.7830   79.4500  217.5383 H   0  0  0  0  0  0  0  0  0  0  0  0
  143.1941   81.8526  217.8740 H   0  0  0  0  0  0  0  0  0  0  0  0
  141.7008   83.4690  218.9271 H   0  0  0  0  0  0  0  0  0  0  0  0
  138.4508   82.1559  221.4269 H   0  0  0  0  0  0  0  0  0  0  0  0
  139.1207   79.7927  221.0253 H   0  0  0  0  0  0  0  0  0  0  0  0
  1  2  2  0
  2  3  1  0
  3  4  1  0
  4  5  1  0
  5  6  2  0
  5  7  1  0
  7  8  1  0
  8  9  1  0
  9 10  1  0
 10 11  1  0
 11 12  1  0
 12 13  2  0
 13 14  1  0
 14 15  1  0
 15 16  1  0
 16 17  2  0
 17 18  1  0
 18 19  2  0
 19 20  1  0
 20 21  2  0
 15 22  2  0
  2 23  1  0
 23 24  2  0
 24 25  1  0
 25 26  2  0
 26 27  1  0
 27 28  2  0
 28 29  1  0
 28 30  1  0
 30 31  2  0
 31 32  1  0
 32 33  2  0
 11  7  1  0
 22 12  1  0
 33 23  1  0
 21 16  1  0
 32 26  1  0
  3 34  1  0
  4 35  1  0
  4 36  1  0
  8 37  1  0
  8 38  1  0
  9 39  1  0
  9 40  1  0
 10 41  1  0
 10 42  1  0
 11 43  1  6
 13 44  1  0
 14 45  1  0
 17 46  1  0
 18 47  1  0
 19 48  1  0
 20 49  1  0
 21 50  1  0
 24 51  1  0
 25 52  1  0
 27 53  1  0
 30 54  1  0
 31 55  1  0
M  END
>  <smiles>  (17) 
O=C(NCC(=O)N1CCC[C@H]1c1c[nH]c(-c2ccccc2)n1)c1ccc2cc(Cl)ccc2n1

>  <score_type>  (17) 
oracle

>  <origin>  (17) 
autodockgpu

>  <m_score__min__energy>  (17) 
-9.5700000000000003

>  <m_primary>  (17) 
energy

>  <rmsd>  (17) 
8.536238685760663

>  <m_score__min__rmsd>  (17) 
8.536238685760663

>  <meeko>  (17) 
{"free_energy": -6.58, "intermolecular_energy": -8.37, "internal_energy": -3.98, "cluster_size": 3, "cluster_id": 10, "rank_in_cluster": 2}

>  <energy>  (17) 
-7.08

>  <cluster_rmsd>  (17) 
0.0

>  <cluster>  (17) 
7

$$$$

     RDKit          3D

 55 59  0  0  0  0  0  0  0  0999 V2000
  139.1940   75.2950  222.7210 O   0  0  0  0  0  0  0  0  0  0  0  0
  139.9650   75.5320  221.7480 C   0  0  0  0  0  0  0  0  0  0  0  0
  139.8800   76.8280  221.1620 N   0  0  0  0  0  0  0  0  0  0  0  0
  138.9310   77.7540  221.7230 C   0  0  0  0  0  0  0  0  0  0  0  0
  139.5550   78.7460  222.6160 C   0  0  0  0  0  0  0  0  0  0  0  0
  139.0790   79.0810  223.7390 O   0  0  0  0  0  0  0  0  0  0  0  0
  140.7640   79.3580  222.1810 N   0  0  0  0  0  0  0  0  0  0  0  0
  142.1140   79.1860  222.7240 C   0  0  0  0  0  0  0  0  0  0  0  0
  142.7750   80.5240  222.4830 C   0  0  0  0  0  0  0  0  0  0  0  0
  141.8070   81.3590  221.7110 C   0  0  0  0  0  0  0  0  0  0  0  0
  140.9160   80.3120  221.0750 C   0  0  1  0  0  0  0  0  0  0  0  0
  141.6230   79.6970  219.9210 C   0  0  0  0  0  0  0  0  0  0  0  0
  142.4120   80.3300  218.9740 C   0  0  0  0  0  0  0  0  0  0  0  0
  142.8560   79.3790  218.1040 N   0  0  0  0  0  0  0  0  0  0  0  0
  142.3660   78.1810  218.4850 C   0  0  0  0  0  0  0  0  0  0  0  0
  142.6450   76.9370  217.7720 C   0  0  0  0  0  0  0  0  0  0  0  0
  141.8610   75.8330  218.0400 C   0  0  0  0  0  0  0  0  0  0  0  0
  142.0840   74.6200  217.3870 C   0  0  0  0  0  0  0  0  0  0  0  0
  143.1070   74.5160  216.4540 C   0  0  0  0  0  0  0  0  0  0  0  0
  143.8880   75.6280  216.1920 C   0  0  0  0  0  0  0  0  0  0  0  0
  143.6590   76.8390  216.8490 C   0  0  0  0  0  0  0  0  0  0  0  0
  141.6260   78.3810  219.5770 N   0  0  0  0  0  0  0  0  0  0  0  0
  140.8980   74.5300  221.2460 C   0  0  0  0  0  0  0  0  0  0  0  0
  140.4190   73.2570  221.0070 C   0  0  0  0  0  0  0  0  0  0  0  0
  141.2430   72.2510  220.5300 C   0  0  0  0  0  0  0  0  0  0  0  0
  142.5720   72.5780  220.3030 C   0  0  0  0  0  0  0  0  0  0  0  0
  143.4650   71.6330  219.8250 C   0  0  0  0  0  0  0  0  0  0  0  0
  144.8000   71.9440  219.5920 C   0  0  0  0  0  0  0  0  0  0  0  0
  145.9060   70.7150  218.9850 Cl  0  0  0  0  0  0  0  0  0  0  0  0
  145.2550   73.2320  219.8400 C   0  0  0  0  0  0  0  0  0  0  0  0
  144.3730   74.1890  220.3180 C   0  0  0  0  0  0  0  0  0  0  0  0
  143.0510   73.8620  220.5440 C   0  0  0  0  0  0  0  0  0  0  0  0
  142.1970   74.7890  221.0060 N   0  0  0  0  0  0  0  0  0  0  0  0
  140.5090   77.0410  220.3570 H   0  0  0  0  0  0  0  0  0  0  0  0
  138.4328   78.2873  220.9000 H   0  0  0  0  0  0  0  0  0  0  0  0
  138.2182   77.1712  222.3249 H   0  0  0  0  0  0  0  0  0  0  0  0
  142.0772   78.9554  223.7989 H   0  0  0  0  0  0  0  0  0  0  0  0
  142.6577   78.3531  222.2542 H   0  0  0  0  0  0  0  0  0  0  0  0
  143.0089   81.0077  223.4429 H   0  0  0  0  0  0  0  0  0  0  0  0
  143.7164   80.4013  221.9274 H   0  0  0  0  0  0  0  0  0  0  0  0
  141.2326   82.0208  222.3759 H   0  0  0  0  0  0  0  0  0  0  0  0
  142.2861   82.0313  220.9840 H   0  0  0  0  0  0  0  0  0  0  0  0
  139.9589   80.6829  220.6796 H   0  0  0  0  0  0  0  0  0  0  0  0
  142.6391   81.4055  218.9318 H   0  0  0  0  0  0  0  0  0  0  0  0
  143.4690   79.6310  217.3070 H   0  0  0  0  0  0  0  0  0  0  0  0
  141.0493   75.9104  218.7784 H   0  0  0  0  0  0  0  0  0  0  0  0
  141.4510   73.7486  217.6108 H   0  0  0  0  0  0  0  0  0  0  0  0
  143.2935   73.5659  215.9320 H   0  0  0  0  0  0  0  0  0  0  0  0
  144.7016   75.5570  215.4551 H   0  0  0  0  0  0  0  0  0  0  0  0
  144.2891   77.7132  216.6282 H   0  0  0  0  0  0  0  0  0  0  0  0
  139.3587   73.0369  221.1999 H   0  0  0  0  0  0  0  0  0  0  0  0
  140.8605   71.2374  220.3395 H   0  0  0  0  0  0  0  0  0  0  0  0
  143.1092   70.6115  219.6249 H   0  0  0  0  0  0  0  0  0  0  0  0
  146.3084   73.4915  219.6584 H   0  0  0  0  0  0  0  0  0  0  0  0
  144.7274   75.2110  220.5176 H   0  0  0  0  0  0  0  0  0  0  0  0
  1  2  2  0
  2  3  1  0
  3  4  1  0
  4  5  1  0
  5  6  2  0
  5  7  1  0
  7  8  1  0
  8  9  1  0
  9 10  1  0
 10 11  1  0
 11 12  1  0
 12 13  2  0
 13 14  1  0
 14 15  1  0
 15 16  1  0
 16 17  2  0
 17 18  1  0
 18 19  2  0
 19 20  1  0
 20 21  2  0
 15 22  2  0
  2 23  1  0
 23 24  2  0
 24 25  1  0
 25 26  2  0
 26 27  1  0
 27 28  2  0
 28 29  1  0
 28 30  1  0
 30 31  2  0
 31 32  1  0
 32 33  2  0
 11  7  1  0
 22 12  1  0
 33 23  1  0
 21 16  1  0
 32 26  1  0
  3 34  1  0
  4 35  1  0
  4 36  1  0
  8 37  1  0
  8 38  1  0
  9 39  1  0
  9 40  1  0
 10 41  1  0
 10 42  1  0
 11 43  1  6
 13 44  1  0
 14 45  1  0
 17 46  1  0
 18 47  1  0
 19 48  1  0
 20 49  1  0
 21 50  1  0
 24 51  1  0
 25 52  1  0
 27 53  1  0
 30 54  1  0
 31 55  1  0
M  END
>  <smiles>  (18) 
O=C(NCC(=O)N1CCC[C@H]1c1c[nH]c(-c2ccccc2)n1)c1ccc2cc(Cl)ccc2n1

>  <score_type>  (18) 
oracle

>  <origin>  (18) 
autodockgpu

>  <m_score__min__energy>  (18) 
-9.5700000000000003

>  <m_primary>  (18) 
energy

>  <rmsd>  (18) 
6.6398360547913695

>  <m_score__min__rmsd>  (18) 
6.6398360547913695

>  <meeko>  (18) 
{"free_energy": -7.06, "intermolecular_energy": -8.85, "internal_energy": -3.78, "cluster_size": 23, "cluster_id": 7, "rank_in_cluster": 3}

>  <energy>  (18) 
-7.07

>  <cluster_rmsd>  (18) 
0.19

>  <cluster>  (18) 
7

$$$$

     RDKit          3D

 55 59  0  0  0  0  0  0  0  0999 V2000
  138.7020   75.0970  222.3570 O   0  0  0  0  0  0  0  0  0  0  0  0
  139.8550   75.4330  221.9620 C   0  0  0  0  0  0  0  0  0  0  0  0
  140.1580   76.8240  221.9750 N   0  0  0  0  0  0  0  0  0  0  0  0
  139.1350   77.7270  222.4330 C   0  0  0  0  0  0  0  0  0  0  0  0
  139.6800   78.9360  223.0750 C   0  0  0  0  0  0  0  0  0  0  0  0
  139.1320   79.5230  224.0520 O   0  0  0  0  0  0  0  0  0  0  0  0
  140.8960   79.4670  222.5600 N   0  0  0  0  0  0  0  0  0  0  0  0
  142.2610   79.2430  223.0440 C   0  0  0  0  0  0  0  0  0  0  0  0
  142.9770   80.5340  222.7200 C   0  0  0  0  0  0  0  0  0  0  0  0
  142.0160   81.3910  221.9630 C   0  0  0  0  0  0  0  0  0  0  0  0
  141.0420   80.3700  221.4110 C   0  0  1  0  0  0  0  0  0  0  0  0
  141.6580   79.6770  220.2500 C   0  0  0  0  0  0  0  0  0  0  0  0
  142.3620   80.2430  219.2000 C   0  0  0  0  0  0  0  0  0  0  0  0
  142.7420   79.2340  218.3650 N   0  0  0  0  0  0  0  0  0  0  0  0
  142.2940   78.0650  218.8680 C   0  0  0  0  0  0  0  0  0  0  0  0
  142.5250   76.7740  218.2240 C   0  0  0  0  0  0  0  0  0  0  0  0
  141.5260   75.8230  218.2760 C   0  0  0  0  0  0  0  0  0  0  0  0
  141.6940   74.5740  217.6770 C   0  0  0  0  0  0  0  0  0  0  0  0
  142.8800   74.2780  217.0190 C   0  0  0  0  0  0  0  0  0  0  0  0
  143.8770   75.2380  216.9720 C   0  0  0  0  0  0  0  0  0  0  0  0
  143.7010   76.4860  217.5730 C   0  0  0  0  0  0  0  0  0  0  0  0
  141.6440   78.3400  220.0010 N   0  0  0  0  0  0  0  0  0  0  0  0
  140.8300   74.4450  221.5150 C   0  0  0  0  0  0  0  0  0  0  0  0
  140.4440   73.1190  221.4770 C   0  0  0  0  0  0  0  0  0  0  0  0
  141.3130   72.1240  221.0640 C   0  0  0  0  0  0  0  0  0  0  0  0
  142.5900   72.5150  220.6890 C   0  0  0  0  0  0  0  0  0  0  0  0
  143.5220   71.5850  220.2610 C   0  0  0  0  0  0  0  0  0  0  0  0
  144.8060   71.9600  219.8820 C   0  0  0  0  0  0  0  0  0  0  0  0
  145.9650   70.7480  219.3440 Cl  0  0  0  0  0  0  0  0  0  0  0  0
  145.1680   73.3000  219.9280 C   0  0  0  0  0  0  0  0  0  0  0  0
  144.2450   74.2440  220.3520 C   0  0  0  0  0  0  0  0  0  0  0  0
  142.9750   73.8520  220.7260 C   0  0  0  0  0  0  0  0  0  0  0  0
  142.0820   74.7660  221.1380 N   0  0  0  0  0  0  0  0  0  0  0  0
  141.1050   77.1190  221.6520 H   0  0  0  0  0  0  0  0  0  0  0  0
  138.5253   78.0328  221.5700 H   0  0  0  0  0  0  0  0  0  0  0  0
  138.5390   77.1935  223.1881 H   0  0  0  0  0  0  0  0  0  0  0  0
  142.2661   79.0538  224.1276 H   0  0  0  0  0  0  0  0  0  0  0  0
  142.7370   78.3658  222.5813 H   0  0  0  0  0  0  0  0  0  0  0  0
  143.2828   81.0391  223.6481 H   0  0  0  0  0  0  0  0  0  0  0  0
  143.8821   80.3412  222.1253 H   0  0  0  0  0  0  0  0  0  0  0  0
  141.5098   82.1060  222.6283 H   0  0  0  0  0  0  0  0  0  0  0  0
  142.4923   82.0103  221.1886 H   0  0  0  0  0  0  0  0  0  0  0  0
  140.0868   80.7762  221.0468 H   0  0  0  0  0  0  0  0  0  0  0  0
  142.5760   81.3134  219.0641 H   0  0  0  0  0  0  0  0  0  0  0  0
  143.2860   79.4310  217.5050 H   0  0  0  0  0  0  0  0  0  0  0  0
  140.5847   76.0528  218.7967 H   0  0  0  0  0  0  0  0  0  0  0  0
  140.8889   73.8260  217.7260 H   0  0  0  0  0  0  0  0  0  0  0  0
  143.0254   73.2971  216.5428 H   0  0  0  0  0  0  0  0  0  0  0  0
  144.8211   75.0142  216.4538 H   0  0  0  0  0  0  0  0  0  0  0  0
  144.5025   77.2379  217.5256 H   0  0  0  0  0  0  0  0  0  0  0  0
  139.4225   72.8478  221.7820 H   0  0  0  0  0  0  0  0  0  0  0  0
  141.0043   71.0686  221.0344 H   0  0  0  0  0  0  0  0  0  0  0  0
  143.2395   70.5227  220.2198 H   0  0  0  0  0  0  0  0  0  0  0  0
  146.1803   73.6105  219.6300 H   0  0  0  0  0  0  0  0  0  0  0  0
  144.5251   75.3071  220.3905 H   0  0  0  0  0  0  0  0  0  0  0  0
  1  2  2  0
  2  3  1  0
  3  4  1  0
  4  5  1  0
  5  6  2  0
  5  7  1  0
  7  8  1  0
  8  9  1  0
  9 10  1  0
 10 11  1  0
 11 12  1  0
 12 13  2  0
 13 14  1  0
 14 15  1  0
 15 16  1  0
 16 17  2  0
 17 18  1  0
 18 19  2  0
 19 20  1  0
 20 21  2  0
 15 22  2  0
  2 23  1  0
 23 24  2  0
 24 25  1  0
 25 26  2  0
 26 27  1  0
 27 28  2  0
 28 29  1  0
 28 30  1  0
 30 31  2  0
 31 32  1  0
 32 33  2  0
 11  7  1  0
 22 12  1  0
 33 23  1  0
 21 16  1  0
 32 26  1  0
  3 34  1  0
  4 35  1  0
  4 36  1  0
  8 37  1  0
  8 38  1  0
  9 39  1  0
  9 40  1  0
 10 41  1  0
 10 42  1  0
 11 43  1  6
 13 44  1  0
 14 45  1  0
 17 46  1  0
 18 47  1  0
 19 48  1  0
 20 49  1  0
 21 50  1  0
 24 51  1  0
 25 52  1  0
 27 53  1  0
 30 54  1  0
 31 55  1  0
M  END
>  <smiles>  (19) 
O=C(NCC(=O)N1CCC[C@H]1c1c[nH]c(-c2ccccc2)n1)c1ccc2cc(Cl)ccc2n1

>  <score_type>  (19) 
oracle

>  <origin>  (19) 
autodockgpu

>  <m_score__min__energy>  (19) 
-9.5700000000000003

>  <m_primary>  (19) 
energy

>  <rmsd>  (19) 
6.593461995309291

>  <m_score__min__rmsd>  (19) 
6.593461995309291

>  <meeko>  (19) 
{"free_energy": -7.08, "intermolecular_energy": -8.87, "internal_energy": -4.01, "cluster_size": 23, "cluster_id": 7, "rank_in_cluster": 1}

>  <energy>  (19) 
-7.06

>  <cluster_rmsd>  (19) 
0.52

>  <cluster>  (19) 
7

$$$$

     RDKit          3D

 55 59  0  0  0  0  0  0  0  0999 V2000
  138.7820   75.2850  222.7000 O   0  0  0  0  0  0  0  0  0  0  0  0
  139.8100   75.6280  222.0480 C   0  0  0  0  0  0  0  0  0  0  0  0
  139.9780   77.0200  221.7990 N   0  0  0  0  0  0  0  0  0  0  0  0
  138.9710   77.9150  222.3060 C   0  0  0  0  0  0  0  0  0  0  0  0
  139.5380   79.1250  222.9280 C   0  0  0  0  0  0  0  0  0  0  0  0
  138.9640   79.7810  223.8440 O   0  0  0  0  0  0  0  0  0  0  0  0
  140.8070   79.5730  222.4650 N   0  0  0  0  0  0  0  0  0  0  0  0
  142.1330   79.2510  222.9990 C   0  0  0  0  0  0  0  0  0  0  0  0
  142.9490   80.4910  222.7160 C   0  0  0  0  0  0  0  0  0  0  0  0
  142.0800   81.4180  221.9300 C   0  0  0  0  0  0  0  0  0  0  0  0
  141.0600   80.4720  221.3320 C   0  0  1  0  0  0  0  0  0  0  0  0
  141.6720   79.7450  220.1880 C   0  0  0  0  0  0  0  0  0  0  0  0
  142.4080   80.2760  219.1420 C   0  0  0  0  0  0  0  0  0  0  0  0
  142.7690   79.2450  218.3260 N   0  0  0  0  0  0  0  0  0  0  0  0
  142.2790   78.0970  218.8370 C   0  0  0  0  0  0  0  0  0  0  0  0
  142.4800   76.7910  218.2130 C   0  0  0  0  0  0  0  0  0  0  0  0
  143.6860   76.5350  217.5930 C   0  0  0  0  0  0  0  0  0  0  0  0
  143.9300   75.3050  216.9810 C   0  0  0  0  0  0  0  0  0  0  0  0
  142.9500   74.3210  216.9940 C   0  0  0  0  0  0  0  0  0  0  0  0
  141.7430   74.5870  217.6170 C   0  0  0  0  0  0  0  0  0  0  0  0
  141.5060   75.8210  218.2270 C   0  0  0  0  0  0  0  0  0  0  0  0
  141.6210   78.4060  219.9560 N   0  0  0  0  0  0  0  0  0  0  0  0
  140.7800   74.6470  221.5740 C   0  0  0  0  0  0  0  0  0  0  0  0
  140.3780   73.3290  221.4760 C   0  0  0  0  0  0  0  0  0  0  0  0
  141.2410   72.3410  221.0330 C   0  0  0  0  0  0  0  0  0  0  0  0
  142.5270   72.7310  220.6920 C   0  0  0  0  0  0  0  0  0  0  0  0
  143.4540   71.8070  220.2400 C   0  0  0  0  0  0  0  0  0  0  0  0
  144.7480   72.1820  219.8940 C   0  0  0  0  0  0  0  0  0  0  0  0
  145.8990   70.9780  219.3230 Cl  0  0  0  0  0  0  0  0  0  0  0  0
  145.1250   73.5140  220.0020 C   0  0  0  0  0  0  0  0  0  0  0  0
  144.2080   74.4500  220.4520 C   0  0  0  0  0  0  0  0  0  0  0  0
  142.9280   74.0600  220.7910 C   0  0  0  0  0  0  0  0  0  0  0  0
  142.0400   74.9670  221.2280 N   0  0  0  0  0  0  0  0  0  0  0  0
  140.8200   77.3200  221.2620 H   0  0  0  0  0  0  0  0  0  0  0  0
  138.3215   78.2206  221.4725 H   0  0  0  0  0  0  0  0  0  0  0  0
  138.4121   77.3752  223.0846 H   0  0  0  0  0  0  0  0  0  0  0  0
  142.0824   79.0539  224.0800 H   0  0  0  0  0  0  0  0  0  0  0  0
  142.5647   78.3463  222.5461 H   0  0  0  0  0  0  0  0  0  0  0  0
  143.2519   80.9672  223.6602 H   0  0  0  0  0  0  0  0  0  0  0  0
  143.8617   80.2400  222.1557 H   0  0  0  0  0  0  0  0  0  0  0  0
  141.5993   82.1625  222.5817 H   0  0  0  0  0  0  0  0  0  0  0  0
  142.6282   82.0071  221.1800 H   0  0  0  0  0  0  0  0  0  0  0  0
  140.1502   80.9468  220.9360 H   0  0  0  0  0  0  0  0  0  0  0  0
  142.6565   81.3376  218.9959 H   0  0  0  0  0  0  0  0  0  0  0  0
  143.3310   79.4150  217.4710 H   0  0  0  0  0  0  0  0  0  0  0  0
  144.4655   77.3111  217.5811 H   0  0  0  0  0  0  0  0  0  0  0  0
  144.8957   75.1153  216.4897 H   0  0  0  0  0  0  0  0  0  0  0  0
  143.1301   73.3463  216.5170 H   0  0  0  0  0  0  0  0  0  0  0  0
  140.9591   73.8155  217.6320 H   0  0  0  0  0  0  0  0  0  0  0  0
  140.5412   76.0164  218.7180 H   0  0  0  0  0  0  0  0  0  0  0  0
  139.3493   73.0584  221.7562 H   0  0  0  0  0  0  0  0  0  0  0  0
  140.9201   71.2918  220.9550 H   0  0  0  0  0  0  0  0  0  0  0  0
  143.1599   70.7507  220.1524 H   0  0  0  0  0  0  0  0  0  0  0  0
  146.1453   73.8241  219.7320 H   0  0  0  0  0  0  0  0  0  0  0  0
  144.5007   75.5067  220.5394 H   0  0  0  0  0  0  0  0  0  0  0  0
  1  2  2  0
  2  3  1  0
  3  4  1  0
  4  5  1  0
  5  6  2  0
  5  7  1  0
  7  8  1  0
  8  9  1  0
  9 10  1  0
 10 11  1  0
 11 12  1  0
 12 13  2  0
 13 14  1  0
 14 15  1  0
 15 16  1  0
 16 17  2  0
 17 18  1  0
 18 19  2  0
 19 20  1  0
 20 21  2  0
 15 22  2  0
  2 23  1  0
 23 24  2  0
 24 25  1  0
 25 26  2  0
 26 27  1  0
 27 28  2  0
 28 29  1  0
 28 30  1  0
 30 31  2  0
 31 32  1  0
 32 33  2  0
 11  7  1  0
 22 12  1  0
 33 23  1  0
 21 16  1  0
 32 26  1  0
  3 34  1  0
  4 35  1  0
  4 36  1  0
  8 37  1  0
  8 38  1  0
  9 39  1  0
  9 40  1  0
 10 41  1  0
 10 42  1  0
 11 43  1  6
 13 44  1  0
 14 45  1  0
 17 46  1  0
 18 47  1  0
 19 48  1  0
 20 49  1  0
 21 50  1  0
 24 51  1  0
 25 52  1  0
 27 53  1  0
 30 54  1  0
 31 55  1  0
M  END
>  <smiles>  (20) 
O=C(NCC(=O)N1CCC[C@H]1c1c[nH]c(-c2ccccc2)n1)c1ccc2cc(Cl)ccc2n1

>  <score_type>  (20) 
oracle

>  <origin>  (20) 
autodockgpu

>  <m_score__min__energy>  (20) 
-9.5700000000000003

>  <m_primary>  (20) 
energy

>  <rmsd>  (20) 
6.70902048999651

>  <m_score__min__rmsd>  (20) 
6.70902048999651

>  <meeko>  (20) 
{"free_energy": -7.0, "intermolecular_energy": -8.79, "internal_energy": -4.08, "cluster_size": 23, "cluster_id": 7, "rank_in_cluster": 9}

>  <energy>  (20) 
-7.06

>  <cluster_rmsd>  (20) 
0.23

>  <cluster>  (20) 
7

$$$$

     RDKit          3D

 55 59  0  0  0  0  0  0  0  0999 V2000
  139.9670   74.7020  221.9900 O   0  0  0  0  0  0  0  0  0  0  0  0
  140.6180   75.7830  221.9050 C   0  0  0  0  0  0  0  0  0  0  0  0
  141.8510   75.7360  221.1940 N   0  0  0  0  0  0  0  0  0  0  0  0
  142.2530   74.4710  220.6370 C   0  0  0  0  0  0  0  0  0  0  0  0
  141.6570   74.2110  219.3140 C   0  0  0  0  0  0  0  0  0  0  0  0
  140.8860   73.2400  219.0670 O   0  0  0  0  0  0  0  0  0  0  0  0
  141.9740   75.1120  218.2580 N   0  0  0  0  0  0  0  0  0  0  0  0
  141.2130   75.3800  217.0340 C   0  0  0  0  0  0  0  0  0  0  0  0
  142.2750   75.7250  216.0150 C   0  0  0  0  0  0  0  0  0  0  0  0
  143.5830   75.7490  216.7360 C   0  0  0  0  0  0  0  0  0  0  0  0
  143.1550   75.9800  218.1700 C   0  0  1  0  0  0  0  0  0  0  0  0
  142.7930   77.4100  218.3540 C   0  0  0  0  0  0  0  0  0  0  0  0
  142.9470   78.4470  217.4480 C   0  0  0  0  0  0  0  0  0  0  0  0
  142.4800   79.5840  218.0380 N   0  0  0  0  0  0  0  0  0  0  0  0
  142.0430   79.2800  219.2780 C   0  0  0  0  0  0  0  0  0  0  0  0
  141.4750   80.2670  220.1930 C   0  0  0  0  0  0  0  0  0  0  0  0
  140.1790   80.6920  219.9840 C   0  0  0  0  0  0  0  0  0  0  0  0
  139.5880   81.6330  220.8280 C   0  0  0  0  0  0  0  0  0  0  0  0
  140.3090   82.1530  221.8940 C   0  0  0  0  0  0  0  0  0  0  0  0
  141.6090   81.7210  222.0970 C   0  0  0  0  0  0  0  0  0  0  0  0
  142.1930   80.7790  221.2480 C   0  0  0  0  0  0  0  0  0  0  0  0
  142.2350   77.9720  219.4600 N   0  0  0  0  0  0  0  0  0  0  0  0
  140.1300   77.0210  222.5030 C   0  0  0  0  0  0  0  0  0  0  0  0
  141.0520   77.8710  223.0820 C   0  0  0  0  0  0  0  0  0  0  0  0
  140.6670   79.0640  223.6690 C   0  0  0  0  0  0  0  0  0  0  0  0
  139.3150   79.3700  223.6510 C   0  0  0  0  0  0  0  0  0  0  0  0
  138.8430   80.5430  224.2160 C   0  0  0  0  0  0  0  0  0  0  0  0
  137.4900   80.8640  224.2070 C   0  0  0  0  0  0  0  0  0  0  0  0
  136.9290   82.3660  224.9360 Cl  0  0  0  0  0  0  0  0  0  0  0  0
  136.5850   79.9920  223.6180 C   0  0  0  0  0  0  0  0  0  0  0  0
  137.0420   78.8140  223.0480 C   0  0  0  0  0  0  0  0  0  0  0  0
  138.3880   78.5110  223.0670 C   0  0  0  0  0  0  0  0  0  0  0  0
  138.8300   77.3700  222.5150 N   0  0  0  0  0  0  0  0  0  0  0  0
  142.4010   76.6190  221.1150 H   0  0  0  0  0  0  0  0  0  0  0  0
  143.3483   74.4643  220.5359 H   0  0  0  0  0  0  0  0  0  0  0  0
  141.8998   73.6832  221.3186 H   0  0  0  0  0  0  0  0  0  0  0  0
  140.6461   74.4902  216.7227 H   0  0  0  0  0  0  0  0  0  0  0  0
  140.4711   76.1820  217.1623 H   0  0  0  0  0  0  0  0  0  0  0  0
  142.2962   74.9652  215.2198 H   0  0  0  0  0  0  0  0  0  0  0  0
  142.0675   76.6987  215.5471 H   0  0  0  0  0  0  0  0  0  0  0  0
  144.1153   74.7924  216.6280 H   0  0  0  0  0  0  0  0  0  0  0  0
  144.2820   76.5088  216.3564 H   0  0  0  0  0  0  0  0  0  0  0  0
  143.9184   75.7623  218.9315 H   0  0  0  0  0  0  0  0  0  0  0  0
  143.3697   78.3673  216.4356 H   0  0  0  0  0  0  0  0  0  0  0  0
  142.4990   80.4910  217.5360 H   0  0  0  0  0  0  0  0  0  0  0  0
  139.6037   80.2833  219.1402 H   0  0  0  0  0  0  0  0  0  0  0  0
  138.5536   81.9618  220.6491 H   0  0  0  0  0  0  0  0  0  0  0  0
  139.8553   82.8960  222.5664 H   0  0  0  0  0  0  0  0  0  0  0  0
  142.1897   82.1258  222.9390 H   0  0  0  0  0  0  0  0  0  0  0  0
  143.2269   80.4466  221.4230 H   0  0  0  0  0  0  0  0  0  0  0  0
  142.1164   77.5936  223.0765 H   0  0  0  0  0  0  0  0  0  0  0  0
  141.4022   79.7401  224.1299 H   0  0  0  0  0  0  0  0  0  0  0  0
  139.5560   81.2380  224.6835 H   0  0  0  0  0  0  0  0  0  0  0  0
  135.5121   80.2341  223.6036 H   0  0  0  0  0  0  0  0  0  0  0  0
  136.3298   78.1190  222.5793 H   0  0  0  0  0  0  0  0  0  0  0  0
  1  2  2  0
  2  3  1  0
  3  4  1  0
  4  5  1  0
  5  6  2  0
  5  7  1  0
  7  8  1  0
  8  9  1  0
  9 10  1  0
 10 11  1  0
 11 12  1  0
 12 13  2  0
 13 14  1  0
 14 15  1  0
 15 16  1  0
 16 17  2  0
 17 18  1  0
 18 19  2  0
 19 20  1  0
 20 21  2  0
 15 22  2  0
  2 23  1  0
 23 24  2  0
 24 25  1  0
 25 26  2  0
 26 27  1  0
 27 28  2  0
 28 29  1  0
 28 30  1  0
 30 31  2  0
 31 32  1  0
 32 33  2  0
 11  7  1  0
 22 12  1  0
 33 23  1  0
 21 16  1  0
 32 26  1  0
  3 34  1  0
  4 35  1  0
  4 36  1  0
  8 37  1  0
  8 38  1  0
  9 39  1  0
  9 40  1  0
 10 41  1  0
 10 42  1  0
 11 43  1  1
 13 44  1  0
 14 45  1  0
 17 46  1  0
 18 47  1  0
 19 48  1  0
 20 49  1  0
 21 50  1  0
 24 51  1  0
 25 52  1  0
 27 53  1  0
 30 54  1  0
 31 55  1  0
M  END
>  <smiles>  (21) 
O=C(NCC(=O)N1CCC[C@H]1c1c[nH]c(-c2ccccc2)n1)c1ccc2cc(Cl)ccc2n1

>  <score_type>  (21) 
oracle

>  <origin>  (21) 
autodockgpu

>  <m_score__min__energy>  (21) 
-9.5700000000000003

>  <m_primary>  (21) 
energy

>  <rmsd>  (21) 
6.507944455677064

>  <m_score__min__rmsd>  (21) 
6.507944455677064

>  <meeko>  (21) 
{"free_energy": -6.83, "intermolecular_energy": -8.62, "internal_energy": -3.61, "cluster_size": 4, "cluster_id": 9, "rank_in_cluster": 1}

>  <energy>  (21) 
-7.04

>  <cluster_rmsd>  (21) 
0.14

>  <cluster>  (21) 
7

$$$$

     RDKit          3D

 55 59  0  0  0  0  0  0  0  0999 V2000
  139.4080   78.6270  222.9250 O   0  0  0  0  0  0  0  0  0  0  0  0
  140.1960   77.7370  222.4970 C   0  0  0  0  0  0  0  0  0  0  0  0
  141.5450   78.1300  222.2650 N   0  0  0  0  0  0  0  0  0  0  0  0
  141.8970   79.5000  222.5370 C   0  0  0  0  0  0  0  0  0  0  0  0
  141.4540   80.4270  221.4800 C   0  0  0  0  0  0  0  0  0  0  0  0
  140.9940   81.5830  221.7050 O   0  0  0  0  0  0  0  0  0  0  0  0
  141.5550   79.9870  220.1300 N   0  0  0  0  0  0  0  0  0  0  0  0
  142.2560   80.6310  219.0150 C   0  0  0  0  0  0  0  0  0  0  0  0
  141.4390   80.2480  217.8030 C   0  0  0  0  0  0  0  0  0  0  0  0
  140.3750   79.3080  218.2700 C   0  0  0  0  0  0  0  0  0  0  0  0
  140.9650   78.7700  219.5570 C   0  0  1  0  0  0  0  0  0  0  0  0
  142.0060   77.7590  219.2390 C   0  0  0  0  0  0  0  0  0  0  0  0
  142.9360   77.7930  218.2120 C   0  0  0  0  0  0  0  0  0  0  0  0
  143.6900   76.6610  218.3000 N   0  0  0  0  0  0  0  0  0  0  0  0
  143.2550   75.9300  219.3480 C   0  0  0  0  0  0  0  0  0  0  0  0
  143.8420   74.6500  219.7320 C   0  0  0  0  0  0  0  0  0  0  0  0
  145.0030   74.6530  220.4790 C   0  0  0  0  0  0  0  0  0  0  0  0
  145.6060   73.4580  220.8730 C   0  0  0  0  0  0  0  0  0  0  0  0
  145.0340   72.2460  220.5120 C   0  0  0  0  0  0  0  0  0  0  0  0
  143.8700   72.2510  219.7630 C   0  0  0  0  0  0  0  0  0  0  0  0
  143.2730   73.4510  219.3730 C   0  0  0  0  0  0  0  0  0  0  0  0
  142.2420   76.5980  219.9060 N   0  0  0  0  0  0  0  0  0  0  0  0
  139.7490   76.3700  222.2510 C   0  0  0  0  0  0  0  0  0  0  0  0
  138.3910   76.1370  222.1550 C   0  0  0  0  0  0  0  0  0  0  0  0
  137.8900   74.8680  221.9220 C   0  0  0  0  0  0  0  0  0  0  0  0
  138.8110   73.8390  221.7900 C   0  0  0  0  0  0  0  0  0  0  0  0
  138.3960   72.5390  221.5550 C   0  0  0  0  0  0  0  0  0  0  0  0
  139.3050   71.4960  221.4200 C   0  0  0  0  0  0  0  0  0  0  0  0
  138.7390   69.8550  221.1220 Cl  0  0  0  0  0  0  0  0  0  0  0  0
  140.6650   71.7590  221.5200 C   0  0  0  0  0  0  0  0  0  0  0  0
  141.0960   73.0550  221.7540 C   0  0  0  0  0  0  0  0  0  0  0  0
  140.1780   74.0770  221.8860 C   0  0  0  0  0  0  0  0  0  0  0  0
  140.5960   75.3330  222.1130 N   0  0  0  0  0  0  0  0  0  0  0  0
  142.2090   77.4080  221.9110 H   0  0  0  0  0  0  0  0  0  0  0  0
  141.4293   79.8007  223.4861 H   0  0  0  0  0  0  0  0  0  0  0  0
  142.9945   79.5553  222.5857 H   0  0  0  0  0  0  0  0  0  0  0  0
  142.2765   81.7232  219.1440 H   0  0  0  0  0  0  0  0  0  0  0  0
  143.3068   80.3156  218.9354 H   0  0  0  0  0  0  0  0  0  0  0  0
  140.9821   81.1439  217.3574 H   0  0  0  0  0  0  0  0  0  0  0  0
  142.0717   79.7745  217.0378 H   0  0  0  0  0  0  0  0  0  0  0  0
  139.4288   79.8373  218.4558 H   0  0  0  0  0  0  0  0  0  0  0  0
  140.1250   78.5257  217.5382 H   0  0  0  0  0  0  0  0  0  0  0  0
  140.2537   78.2679  220.2293 H   0  0  0  0  0  0  0  0  0  0  0  0
  143.0458   78.5896  217.4615 H   0  0  0  0  0  0  0  0  0  0  0  0
  144.4550   76.4760  217.6240 H   0  0  0  0  0  0  0  0  0  0  0  0
  145.4593   75.6113  220.7678 H   0  0  0  0  0  0  0  0  0  0  0  0
  146.5313   73.4764  221.4675 H   0  0  0  0  0  0  0  0  0  0  0  0
  145.4984   71.2964  220.8163 H   0  0  0  0  0  0  0  0  0  0  0  0
  143.4089   71.2959  219.4710 H   0  0  0  0  0  0  0  0  0  0  0  0
  142.3475   73.4373  218.7786 H   0  0  0  0  0  0  0  0  0  0  0  0
  137.6919   76.9789  222.2662 H   0  0  0  0  0  0  0  0  0  0  0  0
  136.8084   74.6834  221.8448 H   0  0  0  0  0  0  0  0  0  0  0  0
  137.3199   72.3263  221.4731 H   0  0  0  0  0  0  0  0  0  0  0  0
  141.3956   70.9435  221.4141 H   0  0  0  0  0  0  0  0  0  0  0  0
  142.1718   73.2696  221.8347 H   0  0  0  0  0  0  0  0  0  0  0  0
  1  2  2  0
  2  3  1  0
  3  4  1  0
  4  5  1  0
  5  6  2  0
  5  7  1  0
  7  8  1  0
  8  9  1  0
  9 10  1  0
 10 11  1  0
 11 12  1  0
 12 13  2  0
 13 14  1  0
 14 15  1  0
 15 16  1  0
 16 17  2  0
 17 18  1  0
 18 19  2  0
 19 20  1  0
 20 21  2  0
 15 22  2  0
  2 23  1  0
 23 24  2  0
 24 25  1  0
 25 26  2  0
 26 27  1  0
 27 28  2  0
 28 29  1  0
 28 30  1  0
 30 31  2  0
 31 32  1  0
 32 33  2  0
 11  7  1  0
 22 12  1  0
 33 23  1  0
 21 16  1  0
 32 26  1  0
  3 34  1  0
  4 35  1  0
  4 36  1  0
  8 37  1  0
  8 38  1  0
  9 39  1  0
  9 40  1  0
 10 41  1  0
 10 42  1  0
 11 43  1  1
 13 44  1  0
 14 45  1  0
 17 46  1  0
 18 47  1  0
 19 48  1  0
 20 49  1  0
 21 50  1  0
 24 51  1  0
 25 52  1  0
 27 53  1  0
 30 54  1  0
 31 55  1  0
M  END
>  <smiles>  (22) 
O=C(NCC(=O)N1CCC[C@H]1c1c[nH]c(-c2ccccc2)n1)c1ccc2cc(Cl)ccc2n1

>  <score_type>  (22) 
oracle

>  <origin>  (22) 
autodockgpu

>  <m_score__min__energy>  (22) 
-9.5700000000000003

>  <m_primary>  (22) 
energy

>  <rmsd>  (22) 
7.021712923539218

>  <m_score__min__rmsd>  (22) 
7.021712923539218

>  <meeko>  (22) 
{"free_energy": -7.49, "intermolecular_energy": -9.28, "internal_energy": -3.1, "cluster_size": 6, "cluster_id": 5, "rank_in_cluster": 2}

>  <energy>  (22) 
-7.03

>  <cluster_rmsd>  (22) 
0.22

>  <cluster>  (22) 
7

$$$$

     RDKit          3D

 55 59  0  0  0  0  0  0  0  0999 V2000
  143.2710   76.6250  217.6350 O   0  0  0  0  0  0  0  0  0  0  0  0
  142.7970   77.1260  218.6940 C   0  0  0  0  0  0  0  0  0  0  0  0
  142.7030   76.2660  219.8260 N   0  0  0  0  0  0  0  0  0  0  0  0
  143.1520   74.9070  219.6710 C   0  0  0  0  0  0  0  0  0  0  0  0
  142.0430   73.9380  219.6160 C   0  0  0  0  0  0  0  0  0  0  0  0
  141.9340   73.0420  218.7310 O   0  0  0  0  0  0  0  0  0  0  0  0
  141.0400   74.0240  220.6230 N   0  0  0  0  0  0  0  0  0  0  0  0
  141.0380   73.4140  221.9550 C   0  0  0  0  0  0  0  0  0  0  0  0
  139.5750   73.1530  222.2320 C   0  0  0  0  0  0  0  0  0  0  0  0
  138.8030   73.7310  221.0920 C   0  0  0  0  0  0  0  0  0  0  0  0
  139.7700   74.7560  220.5360 C   0  0  1  0  0  0  0  0  0  0  0  0
  139.7740   75.9570  221.4110 C   0  0  0  0  0  0  0  0  0  0  0  0
  138.7530   76.4160  222.2270 C   0  0  0  0  0  0  0  0  0  0  0  0
  139.1960   77.5480  222.8460 N   0  0  0  0  0  0  0  0  0  0  0  0
  140.4570   77.8000  222.4380 C   0  0  0  0  0  0  0  0  0  0  0  0
  141.2380   78.9420  222.9050 C   0  0  0  0  0  0  0  0  0  0  0  0
  140.5890   79.9500  223.5890 C   0  0  0  0  0  0  0  0  0  0  0  0
  141.2880   81.0630  224.0580 C   0  0  0  0  0  0  0  0  0  0  0  0
  142.6540   81.1640  223.8360 C   0  0  0  0  0  0  0  0  0  0  0  0
  143.2970   80.1480  223.1490 C   0  0  0  0  0  0  0  0  0  0  0  0
  142.5920   79.0370  222.6830 C   0  0  0  0  0  0  0  0  0  0  0  0
  140.7970   76.8390  221.5750 N   0  0  0  0  0  0  0  0  0  0  0  0
  142.3670   78.5180  218.7590 C   0  0  0  0  0  0  0  0  0  0  0  0
  142.9410   79.4180  217.8820 C   0  0  0  0  0  0  0  0  0  0  0  0
  142.5840   80.7560  217.8810 C   0  0  0  0  0  0  0  0  0  0  0  0
  141.6260   81.1550  218.8010 C   0  0  0  0  0  0  0  0  0  0  0  0
  141.2110   82.4740  218.8690 C   0  0  0  0  0  0  0  0  0  0  0  0
  140.2510   82.8910  219.7850 C   0  0  0  0  0  0  0  0  0  0  0  0
  139.7490   84.5780  219.8410 Cl  0  0  0  0  0  0  0  0  0  0  0  0
  139.6900   81.9650  220.6550 C   0  0  0  0  0  0  0  0  0  0  0  0
  140.0950   80.6400  220.5980 C   0  0  0  0  0  0  0  0  0  0  0  0
  141.0490   80.2460  219.6830 C   0  0  0  0  0  0  0  0  0  0  0  0
  141.4410   78.9630  219.6290 N   0  0  0  0  0  0  0  0  0  0  0  0
  142.3140   76.6630  220.7080 H   0  0  0  0  0  0  0  0  0  0  0  0
  143.7293   74.8327  218.7376 H   0  0  0  0  0  0  0  0  0  0  0  0
  143.7627   74.6592  220.5517 H   0  0  0  0  0  0  0  0  0  0  0  0
  141.6104   72.4747  221.9563 H   0  0  0  0  0  0  0  0  0  0  0  0
  141.5065   74.0550  222.7163 H   0  0  0  0  0  0  0  0  0  0  0  0
  139.3913   72.0707  222.3020 H   0  0  0  0  0  0  0  0  0  0  0  0
  139.2689   73.6105  223.1844 H   0  0  0  0  0  0  0  0  0  0  0  0
  138.5627   72.9622  220.3428 H   0  0  0  0  0  0  0  0  0  0  0  0
  137.8319   74.1553  221.3870 H   0  0  0  0  0  0  0  0  0  0  0  0
  139.5415   75.1217  219.5240 H   0  0  0  0  0  0  0  0  0  0  0  0
  137.7638   75.9516  222.3530 H   0  0  0  0  0  0  0  0  0  0  0  0
  138.5880   78.0640  223.5090 H   0  0  0  0  0  0  0  0  0  0  0  0
  139.5061   79.8750  223.7668 H   0  0  0  0  0  0  0  0  0  0  0  0
  140.7575   81.8582  224.6023 H   0  0  0  0  0  0  0  0  0  0  0  0
  143.2167   82.0365  224.1996 H   0  0  0  0  0  0  0  0  0  0  0  0
  144.3797   80.2175  222.9678 H   0  0  0  0  0  0  0  0  0  0  0  0
  143.1185   78.2388  222.1391 H   0  0  0  0  0  0  0  0  0  0  0  0
  143.6991   79.0636  217.1681 H   0  0  0  0  0  0  0  0  0  0  0  0
  143.0404   81.4712  217.1809 H   0  0  0  0  0  0  0  0  0  0  0  0
  141.6516   83.2108  218.1813 H   0  0  0  0  0  0  0  0  0  0  0  0
  138.9295   82.2806  221.3844 H   0  0  0  0  0  0  0  0  0  0  0  0
  139.6545   79.9015  221.2840 H   0  0  0  0  0  0  0  0  0  0  0  0
  1  2  2  0
  2  3  1  0
  3  4  1  0
  4  5  1  0
  5  6  2  0
  5  7  1  0
  7  8  1  0
  8  9  1  0
  9 10  1  0
 10 11  1  0
 11 12  1  0
 12 13  2  0
 13 14  1  0
 14 15  1  0
 15 16  1  0
 16 17  2  0
 17 18  1  0
 18 19  2  0
 19 20  1  0
 20 21  2  0
 15 22  2  0
  2 23  1  0
 23 24  2  0
 24 25  1  0
 25 26  2  0
 26 27  1  0
 27 28  2  0
 28 29  1  0
 28 30  1  0
 30 31  2  0
 31 32  1  0
 32 33  2  0
 11  7  1  0
 22 12  1  0
 33 23  1  0
 21 16  1  0
 32 26  1  0
  3 34  1  0
  4 35  1  0
  4 36  1  0
  8 37  1  0
  8 38  1  0
  9 39  1  0
  9 40  1  0
 10 41  1  0
 10 42  1  0
 11 43  1  6
 13 44  1  0
 14 45  1  0
 17 46  1  0
 18 47  1  0
 19 48  1  0
 20 49  1  0
 21 50  1  0
 24 51  1  0
 25 52  1  0
 27 53  1  0
 30 54  1  0
 31 55  1  0
M  END
>  <smiles>  (23) 
O=C(NCC(=O)N1CCC[C@H]1c1c[nH]c(-c2ccccc2)n1)c1ccc2cc(Cl)ccc2n1

>  <score_type>  (23) 
oracle

>  <origin>  (23) 
autodockgpu

>  <m_score__min__energy>  (23) 
-9.5700000000000003

>  <m_primary>  (23) 
energy

>  <rmsd>  (23) 
8.51575990524676

>  <m_score__min__rmsd>  (23) 
8.51575990524676

>  <meeko>  (23) 
{"free_energy": -6.6, "intermolecular_energy": -8.39, "internal_energy": -3.77, "cluster_size": 3, "cluster_id": 10, "rank_in_cluster": 1}

>  <energy>  (23) 
-7.03

>  <cluster_rmsd>  (23) 
0.17

>  <cluster>  (23) 
7

$$$$

     RDKit          3D

 55 59  0  0  0  0  0  0  0  0999 V2000
  139.9110   73.4260  222.4050 O   0  0  0  0  0  0  0  0  0  0  0  0
  140.4750   74.0100  221.4360 C   0  0  0  0  0  0  0  0  0  0  0  0
  141.0240   73.1790  220.4170 N   0  0  0  0  0  0  0  0  0  0  0  0
  140.8920   71.7540  220.5750 C   0  0  0  0  0  0  0  0  0  0  0  0
  142.0000   71.0030  219.9570 C   0  0  0  0  0  0  0  0  0  0  0  0
  142.1410   69.7500  220.0540 O   0  0  0  0  0  0  0  0  0  0  0  0
  142.9620   71.7390  219.2100 N   0  0  0  0  0  0  0  0  0  0  0  0
  143.0230   71.9430  217.7600 C   0  0  0  0  0  0  0  0  0  0  0  0
  144.5020   72.0570  217.4710 C   0  0  0  0  0  0  0  0  0  0  0  0
  145.2090   72.0280  218.7860 C   0  0  0  0  0  0  0  0  0  0  0  0
  144.1210   72.4650  219.7450 C   0  0  1  0  0  0  0  0  0  0  0  0
  143.9360   73.9360  219.6450 C   0  0  0  0  0  0  0  0  0  0  0  0
  144.4550   74.9150  220.4750 C   0  0  0  0  0  0  0  0  0  0  0  0
  144.0280   76.1230  220.0070 N   0  0  0  0  0  0  0  0  0  0  0  0
  143.2620   75.9180  218.9150 C   0  0  0  0  0  0  0  0  0  0  0  0
  142.6380   77.0000  218.1590 C   0  0  0  0  0  0  0  0  0  0  0  0
  142.9240   78.3030  218.5130 C   0  0  0  0  0  0  0  0  0  0  0  0
  142.3550   79.3750  217.8230 C   0  0  0  0  0  0  0  0  0  0  0  0
  141.4890   79.1330  216.7660 C   0  0  0  0  0  0  0  0  0  0  0  0
  141.2070   77.8230  216.4180 C   0  0  0  0  0  0  0  0  0  0  0  0
  141.7800   76.7560  217.1130 C   0  0  0  0  0  0  0  0  0  0  0  0
  143.2120   74.6010  218.7040 N   0  0  0  0  0  0  0  0  0  0  0  0
  140.5610   75.4640  221.3610 C   0  0  0  0  0  0  0  0  0  0  0  0
  140.0820   76.0860  220.2250 C   0  0  0  0  0  0  0  0  0  0  0  0
  140.1280   77.4630  220.0790 C   0  0  0  0  0  0  0  0  0  0  0  0
  140.6770   78.1900  221.1250 C   0  0  0  0  0  0  0  0  0  0  0  0
  140.7610   79.5710  221.0630 C   0  0  0  0  0  0  0  0  0  0  0  0
  141.3080   80.3160  222.1020 C   0  0  0  0  0  0  0  0  0  0  0  0
  141.3990   82.0710  221.9860 Cl  0  0  0  0  0  0  0  0  0  0  0  0
  141.7820   79.6650  223.2330 C   0  0  0  0  0  0  0  0  0  0  0  0
  141.7030   78.2830  223.3100 C   0  0  0  0  0  0  0  0  0  0  0  0
  141.1570   77.5600  222.2690 C   0  0  0  0  0  0  0  0  0  0  0  0
  141.0820   76.2220  222.3440 N   0  0  0  0  0  0  0  0  0  0  0  0
  141.4940   73.6440  219.6100 H   0  0  0  0  0  0  0  0  0  0  0  0
  140.8665   71.5209  221.6497 H   0  0  0  0  0  0  0  0  0  0  0  0
  139.9642   71.4503  220.0680 H   0  0  0  0  0  0  0  0  0  0  0  0
  142.5846   71.0873  217.2256 H   0  0  0  0  0  0  0  0  0  0  0  0
  142.4572   72.8274  217.4318 H   0  0  0  0  0  0  0  0  0  0  0  0
  144.8308   71.2129  216.8469 H   0  0  0  0  0  0  0  0  0  0  0  0
  144.7244   72.9868  216.9269 H   0  0  0  0  0  0  0  0  0  0  0  0
  145.5671   71.0155  219.0239 H   0  0  0  0  0  0  0  0  0  0  0  0
  146.1067   72.6628  218.8183 H   0  0  0  0  0  0  0  0  0  0  0  0
  144.3161   72.2583  220.8077 H   0  0  0  0  0  0  0  0  0  0  0  0
  145.0960   74.7487  221.3533 H   0  0  0  0  0  0  0  0  0  0  0  0
  144.3000   77.0040  220.4820 H   0  0  0  0  0  0  0  0  0  0  0  0
  143.6097   78.4995  219.3504 H   0  0  0  0  0  0  0  0  0  0  0  0
  142.5924   80.4083  218.1163 H   0  0  0  0  0  0  0  0  0  0  0  0
  141.0340   79.9684  216.2137 H   0  0  0  0  0  0  0  0  0  0  0  0
  140.5217   77.6198  215.5819 H   0  0  0  0  0  0  0  0  0  0  0  0
  141.5450   75.7210  216.8238 H   0  0  0  0  0  0  0  0  0  0  0  0
  139.6540   75.4741  219.4173 H   0  0  0  0  0  0  0  0  0  0  0  0
  139.7461   77.9577  219.1738 H   0  0  0  0  0  0  0  0  0  0  0  0
  140.3857   80.0915  220.1696 H   0  0  0  0  0  0  0  0  0  0  0  0
  142.2173   80.2418  224.0624 H   0  0  0  0  0  0  0  0  0  0  0  0
  142.0766   77.7613  224.2034 H   0  0  0  0  0  0  0  0  0  0  0  0
  1  2  2  0
  2  3  1  0
  3  4  1  0
  4  5  1  0
  5  6  2  0
  5  7  1  0
  7  8  1  0
  8  9  1  0
  9 10  1  0
 10 11  1  0
 11 12  1  0
 12 13  2  0
 13 14  1  0
 14 15  1  0
 15 16  1  0
 16 17  2  0
 17 18  1  0
 18 19  2  0
 19 20  1  0
 20 21  2  0
 15 22  2  0
  2 23  1  0
 23 24  2  0
 24 25  1  0
 25 26  2  0
 26 27  1  0
 27 28  2  0
 28 29  1  0
 28 30  1  0
 30 31  2  0
 31 32  1  0
 32 33  2  0
 11  7  1  0
 22 12  1  0
 33 23  1  0
 21 16  1  0
 32 26  1  0
  3 34  1  0
  4 35  1  0
  4 36  1  0
  8 37  1  0
  8 38  1  0
  9 39  1  0
  9 40  1  0
 10 41  1  0
 10 42  1  0
 11 43  1  1
 13 44  1  0
 14 45  1  0
 17 46  1  0
 18 47  1  0
 19 48  1  0
 20 49  1  0
 21 50  1  0
 24 51  1  0
 25 52  1  0
 27 53  1  0
 30 54  1  0
 31 55  1  0
M  END
>  <smiles>  (24) 
O=C(NCC(=O)N1CCC[C@H]1c1c[nH]c(-c2ccccc2)n1)c1ccc2cc(Cl)ccc2n1

>  <score_type>  (24) 
oracle

>  <origin>  (24) 
autodockgpu

>  <m_score__min__energy>  (24) 
-9.5700000000000003

>  <m_primary>  (24) 
energy

>  <rmsd>  (24) 
7.04273773447156

>  <m_score__min__rmsd>  (24) 
7.04273773447156

>  <meeko>  (24) 
{"free_energy": -6.49, "intermolecular_energy": -8.28, "internal_energy": -3.83, "cluster_size": 1, "cluster_id": 11, "rank_in_cluster": 1}

>  <energy>  (24) 
-7.0

>  <cluster_rmsd>  (24) 
0.29

>  <cluster>  (24) 
7

$$$$

     RDKit          3D

 55 59  0  0  0  0  0  0  0  0999 V2000
  138.6050   75.1590  222.3470 O   0  0  0  0  0  0  0  0  0  0  0  0
  139.7680   75.5140  222.0010 C   0  0  0  0  0  0  0  0  0  0  0  0
  140.0700   76.9020  222.0940 N   0  0  0  0  0  0  0  0  0  0  0  0
  139.0340   77.7810  222.5710 C   0  0  0  0  0  0  0  0  0  0  0  0
  139.5490   79.0860  223.0230 C   0  0  0  0  0  0  0  0  0  0  0  0
  138.9150   79.8660  223.7900 O   0  0  0  0  0  0  0  0  0  0  0  0
  140.8370   79.4820  222.5640 N   0  0  0  0  0  0  0  0  0  0  0  0
  142.1480   79.0790  223.0790 C   0  0  0  0  0  0  0  0  0  0  0  0
  143.0240   80.2840  222.8250 C   0  0  0  0  0  0  0  0  0  0  0  0
  142.1990   81.2760  222.0720 C   0  0  0  0  0  0  0  0  0  0  0  0
  141.1290   80.3990  221.4550 C   0  0  1  0  0  0  0  0  0  0  0  0
  141.6960   79.6760  220.2870 C   0  0  0  0  0  0  0  0  0  0  0  0
  142.3820   80.2120  219.2090 C   0  0  0  0  0  0  0  0  0  0  0  0
  142.7160   79.1830  218.3790 N   0  0  0  0  0  0  0  0  0  0  0  0
  142.2580   78.0310  218.9120 C   0  0  0  0  0  0  0  0  0  0  0  0
  142.4420   76.7260  218.2810 C   0  0  0  0  0  0  0  0  0  0  0  0
  143.6690   76.4300  217.7240 C   0  0  0  0  0  0  0  0  0  0  0  0
  143.8990   75.1980  217.1090 C   0  0  0  0  0  0  0  0  0  0  0  0
  142.8820   74.2540  217.0540 C   0  0  0  0  0  0  0  0  0  0  0  0
  141.6540   74.5600  217.6150 C   0  0  0  0  0  0  0  0  0  0  0  0
  141.4320   75.7950  218.2290 C   0  0  0  0  0  0  0  0  0  0  0  0
  141.6460   78.3360  220.0580 N   0  0  0  0  0  0  0  0  0  0  0  0
  140.7560   74.5500  221.5300 C   0  0  0  0  0  0  0  0  0  0  0  0
  140.3680   73.2300  221.4020 C   0  0  0  0  0  0  0  0  0  0  0  0
  141.2490   72.2570  220.9600 C   0  0  0  0  0  0  0  0  0  0  0  0
  142.5370   72.6640  220.6510 C   0  0  0  0  0  0  0  0  0  0  0  0
  143.4820   71.7560  220.2020 C   0  0  0  0  0  0  0  0  0  0  0  0
  144.7790   72.1480  219.8870 C   0  0  0  0  0  0  0  0  0  0  0  0
  145.9520   70.9640  219.3190 Cl  0  0  0  0  0  0  0  0  0  0  0  0
  145.1410   73.4820  220.0240 C   0  0  0  0  0  0  0  0  0  0  0  0
  144.2070   74.4020  220.4720 C   0  0  0  0  0  0  0  0  0  0  0  0
  142.9250   73.9950  220.7800 C   0  0  0  0  0  0  0  0  0  0  0  0
  142.0200   74.8870  221.2140 N   0  0  0  0  0  0  0  0  0  0  0  0
  141.0250   77.2130  221.8120 H   0  0  0  0  0  0  0  0  0  0  0  0
  138.3156   77.9510  221.7556 H   0  0  0  0  0  0  0  0  0  0  0  0
  138.5633   77.2947  223.4382 H   0  0  0  0  0  0  0  0  0  0  0  0
  142.0938   78.8542  224.1544 H   0  0  0  0  0  0  0  0  0  0  0  0
  142.5309   78.1670  222.5977 H   0  0  0  0  0  0  0  0  0  0  0  0
  143.3562   80.7170  223.7801 H   0  0  0  0  0  0  0  0  0  0  0  0
  143.9192   80.0031  222.2508 H   0  0  0  0  0  0  0  0  0  0  0  0
  141.7603   82.0248  222.7478 H   0  0  0  0  0  0  0  0  0  0  0  0
  142.7718   81.8584  221.3353 H   0  0  0  0  0  0  0  0  0  0  0  0
  140.2419   80.9299  221.0792 H   0  0  0  0  0  0  0  0  0  0  0  0
  142.6150   81.2754  219.0513 H   0  0  0  0  0  0  0  0  0  0  0  0
  143.2390   79.3550  217.5010 H   0  0  0  0  0  0  0  0  0  0  0  0
  144.4772   77.1750  217.7650 H   0  0  0  0  0  0  0  0  0  0  0  0
  144.8826   74.9758  216.6694 H   0  0  0  0  0  0  0  0  0  0  0  0
  143.0494   73.2792  216.5726 H   0  0  0  0  0  0  0  0  0  0  0  0
  140.8411   73.8199  217.5768 H   0  0  0  0  0  0  0  0  0  0  0  0
  140.4503   76.0221  218.6703 H   0  0  0  0  0  0  0  0  0  0  0  0
  139.3364   72.9456  221.6568 H   0  0  0  0  0  0  0  0  0  0  0  0
  140.9395   71.2063  220.8586 H   0  0  0  0  0  0  0  0  0  0  0  0
  143.1997   70.6986  220.0918 H   0  0  0  0  0  0  0  0  0  0  0  0
  146.1631   73.8060  219.7783 H   0  0  0  0  0  0  0  0  0  0  0  0
  144.4882   75.4597  220.5825 H   0  0  0  0  0  0  0  0  0  0  0  0
  1  2  2  0
  2  3  1  0
  3  4  1  0
  4  5  1  0
  5  6  2  0
  5  7  1  0
  7  8  1  0
  8  9  1  0
  9 10  1  0
 10 11  1  0
 11 12  1  0
 12 13  2  0
 13 14  1  0
 14 15  1  0
 15 16  1  0
 16 17  2  0
 17 18  1  0
 18 19  2  0
 19 20  1  0
 20 21  2  0
 15 22  2  0
  2 23  1  0
 23 24  2  0
 24 25  1  0
 25 26  2  0
 26 27  1  0
 27 28  2  0
 28 29  1  0
 28 30  1  0
 30 31  2  0
 31 32  1  0
 32 33  2  0
 11  7  1  0
 22 12  1  0
 33 23  1  0
 21 16  1  0
 32 26  1  0
  3 34  1  0
  4 35  1  0
  4 36  1  0
  8 37  1  0
  8 38  1  0
  9 39  1  0
  9 40  1  0
 10 41  1  0
 10 42  1  0
 11 43  1  6
 13 44  1  0
 14 45  1  0
 17 46  1  0
 18 47  1  0
 19 48  1  0
 20 49  1  0
 21 50  1  0
 24 51  1  0
 25 52  1  0
 27 53  1  0
 30 54  1  0
 31 55  1  0
M  END
>  <smiles>  (25) 
O=C(NCC(=O)N1CCC[C@H]1c1c[nH]c(-c2ccccc2)n1)c1ccc2cc(Cl)ccc2n1

>  <score_type>  (25) 
oracle

>  <origin>  (25) 
autodockgpu

>  <m_score__min__energy>  (25) 
-9.5700000000000003

>  <m_primary>  (25) 
energy

>  <rmsd>  (25) 
6.6875043114540595

>  <m_score__min__rmsd>  (25) 
6.6875043114540595

>  <meeko>  (25) 
{"free_energy": -7.03, "intermolecular_energy": -8.82, "internal_energy": -4.12, "cluster_size": 23, "cluster_id": 7, "rank_in_cluster": 7}

>  <energy>  (25) 
-7.0

>  <cluster_rmsd>  (25) 
0.21

>  <cluster>  (25) 
7

$$$$

     RDKit          3D

 55 59  0  0  0  0  0  0  0  0999 V2000
  135.7300   76.3270  222.9130 O   0  0  0  0  0  0  0  0  0  0  0  0
  136.4080   75.2760  223.0990 C   0  0  0  0  0  0  0  0  0  0  0  0
  137.7650   75.3010  222.6670 N   0  0  0  0  0  0  0  0  0  0  0  0
  138.2490   76.5130  222.0580 C   0  0  0  0  0  0  0  0  0  0  0  0
  139.7140   76.5300  221.9000 C   0  0  0  0  0  0  0  0  0  0  0  0
  140.4470   77.5060  222.2330 O   0  0  0  0  0  0  0  0  0  0  0  0
  140.3330   75.3780  221.3390 N   0  0  0  0  0  0  0  0  0  0  0  0
  141.7630   75.0740  221.2350 C   0  0  0  0  0  0  0  0  0  0  0  0
  141.8690   74.2520  219.9720 C   0  0  0  0  0  0  0  0  0  0  0  0
  140.4770   74.0270  219.4770 C   0  0  0  0  0  0  0  0  0  0  0  0
  139.6540   74.2250  220.7330 C   0  0  1  0  0  0  0  0  0  0  0  0
  139.7640   73.0170  221.5910 C   0  0  0  0  0  0  0  0  0  0  0  0
  139.7280   71.6900  221.1950 C   0  0  0  0  0  0  0  0  0  0  0  0
  139.8650   70.9220  222.3140 N   0  0  0  0  0  0  0  0  0  0  0  0
  139.9840   71.7340  223.3850 C   0  0  0  0  0  0  0  0  0  0  0  0
  140.1480   71.2410  224.7500 C   0  0  0  0  0  0  0  0  0  0  0  0
  139.4790   70.0930  225.1230 C   0  0  0  0  0  0  0  0  0  0  0  0
  139.6010   69.5790  226.4140 C   0  0  0  0  0  0  0  0  0  0  0  0
  140.4050   70.2280  227.3420 C   0  0  0  0  0  0  0  0  0  0  0  0
  141.0720   71.3790  226.9600 C   0  0  0  0  0  0  0  0  0  0  0  0
  140.9450   71.8870  225.6650 C   0  0  0  0  0  0  0  0  0  0  0  0
  139.9220   72.9910  222.9420 N   0  0  0  0  0  0  0  0  0  0  0  0
  135.8310   74.0920  223.7260 C   0  0  0  0  0  0  0  0  0  0  0  0
  134.7950   74.2700  224.6220 C   0  0  0  0  0  0  0  0  0  0  0  0
  134.1950   73.1960  225.2580 C   0  0  0  0  0  0  0  0  0  0  0  0
  134.6820   71.9320  224.9570 C   0  0  0  0  0  0  0  0  0  0  0  0
  134.1390   70.8020  225.5470 C   0  0  0  0  0  0  0  0  0  0  0  0
  134.6150   69.5280  225.2570 C   0  0  0  0  0  0  0  0  0  0  0  0
  133.9000   68.1160  226.0280 Cl  0  0  0  0  0  0  0  0  0  0  0  0
  135.6580   69.3780  224.3520 C   0  0  0  0  0  0  0  0  0  0  0  0
  136.2100   70.4990  223.7530 C   0  0  0  0  0  0  0  0  0  0  0  0
  135.7260   71.7560  224.0530 C   0  0  0  0  0  0  0  0  0  0  0  0
  136.2610   72.8420  223.4730 N   0  0  0  0  0  0  0  0  0  0  0  0
  138.3390   74.4420  222.8120 H   0  0  0  0  0  0  0  0  0  0  0  0
  137.7876   76.6152  221.0647 H   0  0  0  0  0  0  0  0  0  0  0  0
  137.9790   77.3470  222.7225 H   0  0  0  0  0  0  0  0  0  0  0  0
  142.3544   75.9977  221.1515 H   0  0  0  0  0  0  0  0  0  0  0  0
  142.1496   74.5454  222.1188 H   0  0  0  0  0  0  0  0  0  0  0  0
  142.4552   74.7952  219.2162 H   0  0  0  0  0  0  0  0  0  0  0  0
  142.3745   73.2950  220.1686 H   0  0  0  0  0  0  0  0  0  0  0  0
  140.2058   74.7600  218.7029 H   0  0  0  0  0  0  0  0  0  0  0  0
  140.3304   73.0450  219.0036 H   0  0  0  0  0  0  0  0  0  0  0  0
  138.5773   74.3834  220.5727 H   0  0  0  0  0  0  0  0  0  0  0  0
  139.6103   71.3223  220.1650 H   0  0  0  0  0  0  0  0  0  0  0  0
  139.8660   69.8860  222.2520 H   0  0  0  0  0  0  0  0  0  0  0  0
  138.8404   69.5759  224.3917 H   0  0  0  0  0  0  0  0  0  0  0  0
  139.0621   68.6625  226.6962 H   0  0  0  0  0  0  0  0  0  0  0  0
  140.5099   69.8338  228.3636 H   0  0  0  0  0  0  0  0  0  0  0  0
  141.7115   71.9014  227.6868 H   0  0  0  0  0  0  0  0  0  0  0  0
  141.4822   72.8029  225.3777 H   0  0  0  0  0  0  0  0  0  0  0  0
  134.4382   75.2884  224.8353 H   0  0  0  0  0  0  0  0  0  0  0  0
  133.3690   73.3386  225.9702 H   0  0  0  0  0  0  0  0  0  0  0  0
  133.3111   70.9155  226.2623 H   0  0  0  0  0  0  0  0  0  0  0  0
  136.0433   68.3759  224.1124 H   0  0  0  0  0  0  0  0  0  0  0  0
  137.0367   70.3865  223.0361 H   0  0  0  0  0  0  0  0  0  0  0  0
  1  2  2  0
  2  3  1  0
  3  4  1  0
  4  5  1  0
  5  6  2  0
  5  7  1  0
  7  8  1  0
  8  9  1  0
  9 10  1  0
 10 11  1  0
 11 12  1  0
 12 13  2  0
 13 14  1  0
 14 15  1  0
 15 16  1  0
 16 17  2  0
 17 18  1  0
 18 19  2  0
 19 20  1  0
 20 21  2  0
 15 22  2  0
  2 23  1  0
 23 24  2  0
 24 25  1  0
 25 26  2  0
 26 27  1  0
 27 28  2  0
 28 29  1  0
 28 30  1  0
 30 31  2  0
 31 32  1  0
 32 33  2  0
 11  7  1  0
 22 12  1  0
 33 23  1  0
 21 16  1  0
 32 26  1  0
  3 34  1  0
  4 35  1  0
  4 36  1  0
  8 37  1  0
  8 38  1  0
  9 39  1  0
  9 40  1  0
 10 41  1  0
 10 42  1  0
 11 43  1  6
 13 44  1  0
 14 45  1  0
 17 46  1  0
 18 47  1  0
 19 48  1  0
 20 49  1  0
 21 50  1  0
 24 51  1  0
 25 52  1  0
 27 53  1  0
 30 54  1  0
 31 55  1  0
M  END
>  <smiles>  (26) 
O=C(NCC(=O)N1CCC[C@H]1c1c[nH]c(-c2ccccc2)n1)c1ccc2cc(Cl)ccc2n1

>  <score_type>  (26) 
oracle

>  <origin>  (26) 
autodockgpu

>  <m_score__min__energy>  (26) 
-9.5700000000000003

>  <m_primary>  (26) 
energy

>  <rmsd>  (26) 
7.149866549920602

>  <m_score__min__rmsd>  (26) 
7.149866549920602

>  <meeko>  (26) 
{"free_energy": -7.29, "intermolecular_energy": -9.08, "internal_energy": -3.29, "cluster_size": 3, "cluster_id": 4, "rank_in_cluster": 2}

>  <energy>  (26) 
-6.98

>  <cluster_rmsd>  (26) 
0.27

>  <cluster>  (26) 
7

$$$$

     RDKit          3D

 55 59  0  0  0  0  0  0  0  0999 V2000
  138.6680   75.1660  222.4020 O   0  0  0  0  0  0  0  0  0  0  0  0
  139.7920   75.5190  221.9450 C   0  0  0  0  0  0  0  0  0  0  0  0
  140.0620   76.9170  221.9100 N   0  0  0  0  0  0  0  0  0  0  0  0
  139.0380   77.8060  222.3950 C   0  0  0  0  0  0  0  0  0  0  0  0
  139.5820   79.0550  222.9570 C   0  0  0  0  0  0  0  0  0  0  0  0
  138.9800   79.7600  223.8180 O   0  0  0  0  0  0  0  0  0  0  0  0
  140.8590   79.4850  222.5000 N   0  0  0  0  0  0  0  0  0  0  0  0
  142.1800   79.1200  223.0210 C   0  0  0  0  0  0  0  0  0  0  0  0
  143.0230   80.3470  222.7650 C   0  0  0  0  0  0  0  0  0  0  0  0
  142.1730   81.3130  222.0050 C   0  0  0  0  0  0  0  0  0  0  0  0
  141.1300   80.4050  221.3880 C   0  0  1  0  0  0  0  0  0  0  0  0
  141.7200   79.6920  220.2250 C   0  0  0  0  0  0  0  0  0  0  0  0
  142.4220   80.2380  219.1630 C   0  0  0  0  0  0  0  0  0  0  0  0
  142.7750   79.2160  218.3320 N   0  0  0  0  0  0  0  0  0  0  0  0
  142.3130   78.0590  218.8490 C   0  0  0  0  0  0  0  0  0  0  0  0
  142.5140   76.7590  218.2130 C   0  0  0  0  0  0  0  0  0  0  0  0
  141.4800   75.8460  218.2370 C   0  0  0  0  0  0  0  0  0  0  0  0
  141.6180   74.5900  217.6440 C   0  0  0  0  0  0  0  0  0  0  0  0
  142.8110   74.2500  217.0190 C   0  0  0  0  0  0  0  0  0  0  0  0
  143.8430   75.1720  217.0000 C   0  0  0  0  0  0  0  0  0  0  0  0
  143.6970   76.4270  217.5950 C   0  0  0  0  0  0  0  0  0  0  0  0
  141.6800   78.3540  219.9870 N   0  0  0  0  0  0  0  0  0  0  0  0
  140.7700   74.5430  221.4760 C   0  0  0  0  0  0  0  0  0  0  0  0
  140.3660   73.2300  221.3400 C   0  0  0  0  0  0  0  0  0  0  0  0
  141.2360   72.2470  220.9000 C   0  0  0  0  0  0  0  0  0  0  0  0
  142.5320   72.6380  220.6010 C   0  0  0  0  0  0  0  0  0  0  0  0
  143.4670   71.7190  220.1540 C   0  0  0  0  0  0  0  0  0  0  0  0
  144.7710   72.0940  219.8500 C   0  0  0  0  0  0  0  0  0  0  0  0
  145.9320   70.8970  219.2840 Cl  0  0  0  0  0  0  0  0  0  0  0  0
  145.1510   73.4220  219.9940 C   0  0  0  0  0  0  0  0  0  0  0  0
  144.2260   74.3540  220.4400 C   0  0  0  0  0  0  0  0  0  0  0  0
  142.9360   73.9630  220.7380 C   0  0  0  0  0  0  0  0  0  0  0  0
  142.0410   74.8650  221.1700 N   0  0  0  0  0  0  0  0  0  0  0  0
  140.9850   77.2260  221.5360 H   0  0  0  0  0  0  0  0  0  0  0  0
  138.3686   78.0593  221.5597 H   0  0  0  0  0  0  0  0  0  0  0  0
  138.5044   77.2850  223.2037 H   0  0  0  0  0  0  0  0  0  0  0  0
  142.1286   78.8980  224.0971 H   0  0  0  0  0  0  0  0  0  0  0  0
  142.5893   78.2170  222.5445 H   0  0  0  0  0  0  0  0  0  0  0  0
  143.3400   80.7929  223.7193 H   0  0  0  0  0  0  0  0  0  0  0  0
  143.9276   80.0887  222.1950 H   0  0  0  0  0  0  0  0  0  0  0  0
  141.7114   82.0520  222.6764 H   0  0  0  0  0  0  0  0  0  0  0  0
  142.7321   81.9080  221.2678 H   0  0  0  0  0  0  0  0  0  0  0  0
  140.2306   80.9106  221.0065 H   0  0  0  0  0  0  0  0  0  0  0  0
  142.6530   81.3034  219.0164 H   0  0  0  0  0  0  0  0  0  0  0  0
  143.3120   79.3970  217.4640 H   0  0  0  0  0  0  0  0  0  0  0  0
  140.5334   76.1116  218.7304 H   0  0  0  0  0  0  0  0  0  0  0  0
  140.7851   73.8720  217.6715 H   0  0  0  0  0  0  0  0  0  0  0  0
  142.9335   73.2641  216.5469 H   0  0  0  0  0  0  0  0  0  0  0  0
  144.7924   74.9124  216.5089 H   0  0  0  0  0  0  0  0  0  0  0  0
  144.5267   77.1487  217.5694 H   0  0  0  0  0  0  0  0  0  0  0  0
  139.3290   72.9585  221.5869 H   0  0  0  0  0  0  0  0  0  0  0  0
  140.9129   71.2011  220.7923 H   0  0  0  0  0  0  0  0  0  0  0  0
  143.1705   70.6662  220.0366 H   0  0  0  0  0  0  0  0  0  0  0  0
  146.1790   73.7326  219.7558 H   0  0  0  0  0  0  0  0  0  0  0  0
  144.5209   75.4073  220.5566 H   0  0  0  0  0  0  0  0  0  0  0  0
  1  2  2  0
  2  3  1  0
  3  4  1  0
  4  5  1  0
  5  6  2  0
  5  7  1  0
  7  8  1  0
  8  9  1  0
  9 10  1  0
 10 11  1  0
 11 12  1  0
 12 13  2  0
 13 14  1  0
 14 15  1  0
 15 16  1  0
 16 17  2  0
 17 18  1  0
 18 19  2  0
 19 20  1  0
 20 21  2  0
 15 22  2  0
  2 23  1  0
 23 24  2  0
 24 25  1  0
 25 26  2  0
 26 27  1  0
 27 28  2  0
 28 29  1  0
 28 30  1  0
 30 31  2  0
 31 32  1  0
 32 33  2  0
 11  7  1  0
 22 12  1  0
 33 23  1  0
 21 16  1  0
 32 26  1  0
  3 34  1  0
  4 35  1  0
  4 36  1  0
  8 37  1  0
  8 38  1  0
  9 39  1  0
  9 40  1  0
 10 41  1  0
 10 42  1  0
 11 43  1  6
 13 44  1  0
 14 45  1  0
 17 46  1  0
 18 47  1  0
 19 48  1  0
 20 49  1  0
 21 50  1  0
 24 51  1  0
 25 52  1  0
 27 53  1  0
 30 54  1  0
 31 55  1  0
M  END
>  <smiles>  (27) 
O=C(NCC(=O)N1CCC[C@H]1c1c[nH]c(-c2ccccc2)n1)c1ccc2cc(Cl)ccc2n1

>  <score_type>  (27) 
oracle

>  <origin>  (27) 
autodockgpu

>  <m_score__min__energy>  (27) 
-9.5700000000000003

>  <m_primary>  (27) 
energy

>  <rmsd>  (27) 
6.610875859708549

>  <m_score__min__rmsd>  (27) 
6.610875859708549

>  <meeko>  (27) 
{"free_energy": -7.04, "intermolecular_energy": -8.83, "internal_energy": -4.11, "cluster_size": 23, "cluster_id": 7, "rank_in_cluster": 5}

>  <energy>  (27) 
-6.94

>  <cluster_rmsd>  (27) 
0.59

>  <cluster>  (27) 
7

$$$$

     RDKit          3D

 55 59  0  0  0  0  0  0  0  0999 V2000
  135.7220   76.1230  221.9740 O   0  0  0  0  0  0  0  0  0  0  0  0
  136.9350   75.9690  222.2930 C   0  0  0  0  0  0  0  0  0  0  0  0
  137.4190   74.6310  222.3550 N   0  0  0  0  0  0  0  0  0  0  0  0
  136.4920   73.5720  222.0520 C   0  0  0  0  0  0  0  0  0  0  0  0
  136.7260   72.3570  222.8530 C   0  0  0  0  0  0  0  0  0  0  0  0
  135.9150   71.9170  223.7180 O   0  0  0  0  0  0  0  0  0  0  0  0
  137.9380   71.6430  222.6330 N   0  0  0  0  0  0  0  0  0  0  0  0
  138.1930   70.5600  221.6790 C   0  0  0  0  0  0  0  0  0  0  0  0
  139.2400   69.7130  222.3640 C   0  0  0  0  0  0  0  0  0  0  0  0
  139.6160   70.4160  223.6270 C   0  0  0  0  0  0  0  0  0  0  0  0
  139.2140   71.8460  223.3300 C   0  0  1  0  0  0  0  0  0  0  0  0
  140.2270   72.4690  222.4380 C   0  0  0  0  0  0  0  0  0  0  0  0
  141.3450   71.8720  221.8780 C   0  0  0  0  0  0  0  0  0  0  0  0
  141.9860   72.8160  221.1310 N   0  0  0  0  0  0  0  0  0  0  0  0
  141.2990   73.9740  221.2140 C   0  0  0  0  0  0  0  0  0  0  0  0
  141.7070   75.2000  220.5310 C   0  0  0  0  0  0  0  0  0  0  0  0
  143.0090   75.3050  220.0880 C   0  0  0  0  0  0  0  0  0  0  0  0
  143.4510   76.4540  219.4300 C   0  0  0  0  0  0  0  0  0  0  0  0
  142.5730   77.5080  219.2160 C   0  0  0  0  0  0  0  0  0  0  0  0
  141.2690   77.3930  219.6650 C   0  0  0  0  0  0  0  0  0  0  0  0
  140.8330   76.2410  220.3220 C   0  0  0  0  0  0  0  0  0  0  0  0
  140.2430   73.7570  222.0010 N   0  0  0  0  0  0  0  0  0  0  0  0
  137.8020   77.1060  222.5830 C   0  0  0  0  0  0  0  0  0  0  0  0
  137.2190   78.3500  222.7260 C   0  0  0  0  0  0  0  0  0  0  0  0
  137.9760   79.4760  223.0030 C   0  0  0  0  0  0  0  0  0  0  0  0
  139.3460   79.3010  223.1290 C   0  0  0  0  0  0  0  0  0  0  0  0
  140.1770   80.3740  223.4060 C   0  0  0  0  0  0  0  0  0  0  0  0
  141.5520   80.2170  223.5360 C   0  0  0  0  0  0  0  0  0  0  0  0
  142.5760   81.6050  223.8880 Cl  0  0  0  0  0  0  0  0  0  0  0  0
  142.1120   78.9550  223.3880 C   0  0  0  0  0  0  0  0  0  0  0  0
  141.2930   77.8710  223.1120 C   0  0  0  0  0  0  0  0  0  0  0  0
  139.9300   78.0470  222.9850 C   0  0  0  0  0  0  0  0  0  0  0  0
  139.1370   76.9970  222.7170 N   0  0  0  0  0  0  0  0  0  0  0  0
  138.4180   74.4860  222.6170 H   0  0  0  0  0  0  0  0  0  0  0  0
  135.4715   73.9317  222.2502 H   0  0  0  0  0  0  0  0  0  0  0  0
  136.6335   73.3024  220.9950 H   0  0  0  0  0  0  0  0  0  0  0  0
  137.2782   69.9779  221.4938 H   0  0  0  0  0  0  0  0  0  0  0  0
  138.5214   70.9285  220.6960 H   0  0  0  0  0  0  0  0  0  0  0  0
  138.8299   68.7184  222.5935 H   0  0  0  0  0  0  0  0  0  0  0  0
  140.1181   69.5759  221.7159 H   0  0  0  0  0  0  0  0  0  0  0  0
  139.0592   70.0157  224.4871 H   0  0  0  0  0  0  0  0  0  0  0  0
  140.6765   70.3026  223.8962 H   0  0  0  0  0  0  0  0  0  0  0  0
  139.1366   72.5070  224.2058 H   0  0  0  0  0  0  0  0  0  0  0  0
  141.6587   70.8262  222.0117 H   0  0  0  0  0  0  0  0  0  0  0  0
  142.8570   72.5870  220.6170 H   0  0  0  0  0  0  0  0  0  0  0  0
  143.7082   74.4724  220.2554 H   0  0  0  0  0  0  0  0  0  0  0  0
  144.4921   76.5242  219.0820 H   0  0  0  0  0  0  0  0  0  0  0  0
  142.9081   78.4189  218.6984 H   0  0  0  0  0  0  0  0  0  0  0  0
  140.5650   78.2223  219.5016 H   0  0  0  0  0  0  0  0  0  0  0  0
  139.7928   76.1661  220.6717 H   0  0  0  0  0  0  0  0  0  0  0  0
  136.1288   78.4485  222.6174 H   0  0  0  0  0  0  0  0  0  0  0  0
  137.5109   80.4662  223.1181 H   0  0  0  0  0  0  0  0  0  0  0  0
  139.7379   81.3754  223.5261 H   0  0  0  0  0  0  0  0  0  0  0  0
  143.1985   78.8163  223.4891 H   0  0  0  0  0  0  0  0  0  0  0  0
  141.7304   76.8686  222.9940 H   0  0  0  0  0  0  0  0  0  0  0  0
  1  2  2  0
  2  3  1  0
  3  4  1  0
  4  5  1  0
  5  6  2  0
  5  7  1  0
  7  8  1  0
  8  9  1  0
  9 10  1  0
 10 11  1  0
 11 12  1  0
 12 13  2  0
 13 14  1  0
 14 15  1  0
 15 16  1  0
 16 17  2  0
 17 18  1  0
 18 19  2  0
 19 20  1  0
 20 21  2  0
 15 22  2  0
  2 23  1  0
 23 24  2  0
 24 25  1  0
 25 26  2  0
 26 27  1  0
 27 28  2  0
 28 29  1  0
 28 30  1  0
 30 31  2  0
 31 32  1  0
 32 33  2  0
 11  7  1  0
 22 12  1  0
 33 23  1  0
 21 16  1  0
 32 26  1  0
  3 34  1  0
  4 35  1  0
  4 36  1  0
  8 37  1  0
  8 38  1  0
  9 39  1  0
  9 40  1  0
 10 41  1  0
 10 42  1  0
 11 43  1  1
 13 44  1  0
 14 45  1  0
 17 46  1  0
 18 47  1  0
 19 48  1  0
 20 49  1  0
 21 50  1  0
 24 51  1  0
 25 52  1  0
 27 53  1  0
 30 54  1  0
 31 55  1  0
M  END
>  <smiles>  (28) 
O=C(NCC(=O)N1CCC[C@H]1c1c[nH]c(-c2ccccc2)n1)c1ccc2cc(Cl)ccc2n1

>  <score_type>  (28) 
oracle

>  <origin>  (28) 
autodockgpu

>  <m_score__min__energy>  (28) 
-9.5700000000000003

>  <m_primary>  (28) 
energy

>  <rmsd>  (28) 
7.583420189306006

>  <m_score__min__rmsd>  (28) 
7.583420189306006

>  <meeko>  (28) 
{"free_energy": -7.2, "intermolecular_energy": -8.99, "internal_energy": -3.36, "cluster_size": 1, "cluster_id": 6, "rank_in_cluster": 1}

>  <energy>  (28) 
-6.92

>  <cluster_rmsd>  (28) 
0.5

>  <cluster>  (28) 
7

$$$$

     RDKit          3D

 55 59  0  0  0  0  0  0  0  0999 V2000
  139.7780   78.3750  222.9270 O   0  0  0  0  0  0  0  0  0  0  0  0
  140.5160   77.5340  222.3400 C   0  0  0  0  0  0  0  0  0  0  0  0
  141.7860   77.9960  221.8900 N   0  0  0  0  0  0  0  0  0  0  0  0
  142.1210   79.3740  222.1390 C   0  0  0  0  0  0  0  0  0  0  0  0
  141.8090   80.2560  221.0000 C   0  0  0  0  0  0  0  0  0  0  0  0
  141.6350   81.5040  221.1040 O   0  0  0  0  0  0  0  0  0  0  0  0
  141.7000   79.6590  219.7120 N   0  0  0  0  0  0  0  0  0  0  0  0
  142.6030   79.8020  218.5660 C   0  0  0  0  0  0  0  0  0  0  0  0
  141.6920   79.6680  217.3680 C   0  0  0  0  0  0  0  0  0  0  0  0
  140.3300   79.3390  217.8870 C   0  0  0  0  0  0  0  0  0  0  0  0
  140.6380   78.7560  219.2500 C   0  0  1  0  0  0  0  0  0  0  0  0
  141.1380   77.3660  219.0920 C   0  0  0  0  0  0  0  0  0  0  0  0
  140.4710   76.2810  218.5460 C   0  0  0  0  0  0  0  0  0  0  0  0
  141.3100   75.2080  218.6040 N   0  0  0  0  0  0  0  0  0  0  0  0
  142.4730   75.5970  219.1660 C   0  0  0  0  0  0  0  0  0  0  0  0
  143.6010   74.6950  219.3820 C   0  0  0  0  0  0  0  0  0  0  0  0
  144.4300   74.9220  220.4620 C   0  0  0  0  0  0  0  0  0  0  0  0
  145.5220   74.0900  220.7150 C   0  0  0  0  0  0  0  0  0  0  0  0
  145.7820   73.0180  219.8720 C   0  0  0  0  0  0  0  0  0  0  0  0
  144.9460   72.7980  218.7910 C   0  0  0  0  0  0  0  0  0  0  0  0
  143.8550   73.6350  218.5450 C   0  0  0  0  0  0  0  0  0  0  0  0
  142.3610   76.8950  219.4570 N   0  0  0  0  0  0  0  0  0  0  0  0
  140.0910   76.1540  222.1320 C   0  0  0  0  0  0  0  0  0  0  0  0
  138.7380   75.8770  222.1630 C   0  0  0  0  0  0  0  0  0  0  0  0
  138.2570   74.5930  221.9740 C   0  0  0  0  0  0  0  0  0  0  0  0
  139.1940   73.5940  221.7530 C   0  0  0  0  0  0  0  0  0  0  0  0
  138.8000   72.2810  221.5540 C   0  0  0  0  0  0  0  0  0  0  0  0
  139.7250   71.2680  221.3310 C   0  0  0  0  0  0  0  0  0  0  0  0
  139.1860   69.6100  221.0820 Cl  0  0  0  0  0  0  0  0  0  0  0  0
  141.0800   71.5730  221.3040 C   0  0  0  0  0  0  0  0  0  0  0  0
  141.4900   72.8830  221.5010 C   0  0  0  0  0  0  0  0  0  0  0  0
  140.5560   73.8760  221.7210 C   0  0  0  0  0  0  0  0  0  0  0  0
  140.9540   75.1440  221.9130 N   0  0  0  0  0  0  0  0  0  0  0  0
  142.4080   77.3150  221.4030 H   0  0  0  0  0  0  0  0  0  0  0  0
  141.5542   79.7198  223.0160 H   0  0  0  0  0  0  0  0  0  0  0  0
  143.2070   79.4241  222.3069 H   0  0  0  0  0  0  0  0  0  0  0  0
  143.0951   80.7857  218.5756 H   0  0  0  0  0  0  0  0  0  0  0  0
  143.4134   79.0582  218.5685 H   0  0  0  0  0  0  0  0  0  0  0  0
  141.6639   80.6141  216.8075 H   0  0  0  0  0  0  0  0  0  0  0  0
  142.0524   78.8822  216.6878 H   0  0  0  0  0  0  0  0  0  0  0  0
  139.7067   80.2415  217.9710 H   0  0  0  0  0  0  0  0  0  0  0  0
  139.7617   78.6595  217.2348 H   0  0  0  0  0  0  0  0  0  0  0  0
  139.7839   78.6919  219.9402 H   0  0  0  0  0  0  0  0  0  0  0  0
  139.4490   76.2848  218.1392 H   0  0  0  0  0  0  0  0  0  0  0  0
  141.0130   74.2810  218.2470 H   0  0  0  0  0  0  0  0  0  0  0  0
  144.2274   75.7701  221.1325 H   0  0  0  0  0  0  0  0  0  0  0  0
  146.1743   74.2831  221.5794 H   0  0  0  0  0  0  0  0  0  0  0  0
  146.6386   72.3541  220.0601 H   0  0  0  0  0  0  0  0  0  0  0  0
  145.1435   71.9521  218.1161 H   0  0  0  0  0  0  0  0  0  0  0  0
  143.1997   73.4458  217.6820 H   0  0  0  0  0  0  0  0  0  0  0  0
  138.0261   76.6962  222.3421 H   0  0  0  0  0  0  0  0  0  0  0  0
  137.1792   74.3743  221.9980 H   0  0  0  0  0  0  0  0  0  0  0  0
  137.7283   72.0340  221.5729 H   0  0  0  0  0  0  0  0  0  0  0  0
  141.8226   70.7809  221.1276 H   0  0  0  0  0  0  0  0  0  0  0  0
  142.5614   73.1316  221.4820 H   0  0  0  0  0  0  0  0  0  0  0  0
  1  2  2  0
  2  3  1  0
  3  4  1  0
  4  5  1  0
  5  6  2  0
  5  7  1  0
  7  8  1  0
  8  9  1  0
  9 10  1  0
 10 11  1  0
 11 12  1  0
 12 13  2  0
 13 14  1  0
 14 15  1  0
 15 16  1  0
 16 17  2  0
 17 18  1  0
 18 19  2  0
 19 20  1  0
 20 21  2  0
 15 22  2  0
  2 23  1  0
 23 24  2  0
 24 25  1  0
 25 26  2  0
 26 27  1  0
 27 28  2  0
 28 29  1  0
 28 30  1  0
 30 31  2  0
 31 32  1  0
 32 33  2  0
 11  7  1  0
 22 12  1  0
 33 23  1  0
 21 16  1  0
 32 26  1  0
  3 34  1  0
  4 35  1  0
  4 36  1  0
  8 37  1  0
  8 38  1  0
  9 39  1  0
  9 40  1  0
 10 41  1  0
 10 42  1  0
 11 43  1  1
 13 44  1  0
 14 45  1  0
 17 46  1  0
 18 47  1  0
 19 48  1  0
 20 49  1  0
 21 50  1  0
 24 51  1  0
 25 52  1  0
 27 53  1  0
 30 54  1  0
 31 55  1  0
M  END
>  <smiles>  (29) 
O=C(NCC(=O)N1CCC[C@H]1c1c[nH]c(-c2ccccc2)n1)c1ccc2cc(Cl)ccc2n1

>  <score_type>  (29) 
oracle

>  <origin>  (29) 
autodockgpu

>  <m_score__min__energy>  (29) 
-9.5700000000000003

>  <m_primary>  (29) 
energy

>  <rmsd>  (29) 
6.875839803950198

>  <m_score__min__rmsd>  (29) 
6.875839803950198

>  <meeko>  (29) 
{"free_energy": -6.37, "intermolecular_energy": -8.16, "internal_energy": -3.94, "cluster_size": 6, "cluster_id": 5, "rank_in_cluster": 6}

>  <energy>  (29) 
-6.9

>  <cluster_rmsd>  (29) 
0.62

>  <cluster>  (29) 
7

$$$$

     RDKit          3D

 55 59  0  0  0  0  0  0  0  0999 V2000
  138.4090   75.4420  222.6840 O   0  0  0  0  0  0  0  0  0  0  0  0
  139.4830   75.8150  222.1330 C   0  0  0  0  0  0  0  0  0  0  0  0
  139.6940   77.2200  222.0200 N   0  0  0  0  0  0  0  0  0  0  0  0
  138.6720   78.0910  222.5400 C   0  0  0  0  0  0  0  0  0  0  0  0
  139.0150   79.5190  222.4100 C   0  0  0  0  0  0  0  0  0  0  0  0
  138.1820   80.4590  222.5560 O   0  0  0  0  0  0  0  0  0  0  0  0
  140.3650   79.8490  222.1030 N   0  0  0  0  0  0  0  0  0  0  0  0
  141.5840   79.4250  222.7980 C   0  0  0  0  0  0  0  0  0  0  0  0
  142.5320   80.5860  222.6090 C   0  0  0  0  0  0  0  0  0  0  0  0
  141.8480   81.5700  221.7160 C   0  0  0  0  0  0  0  0  0  0  0  0
  140.8310   80.7040  221.0040 C   0  0  1  0  0  0  0  0  0  0  0  0
  141.5120   79.9090  219.9490 C   0  0  0  0  0  0  0  0  0  0  0  0
  142.3680   80.3660  218.9610 C   0  0  0  0  0  0  0  0  0  0  0  0
  142.7550   79.2910  218.2180 N   0  0  0  0  0  0  0  0  0  0  0  0
  142.1630   78.1850  218.7160 C   0  0  0  0  0  0  0  0  0  0  0  0
  142.3590   76.8500  218.1570 C   0  0  0  0  0  0  0  0  0  0  0  0
  141.3050   75.9590  218.1920 C   0  0  0  0  0  0  0  0  0  0  0  0
  141.4370   74.6710  217.6720 C   0  0  0  0  0  0  0  0  0  0  0  0
  142.6430   74.2750  217.1100 C   0  0  0  0  0  0  0  0  0  0  0  0
  143.6950   75.1740  217.0800 C   0  0  0  0  0  0  0  0  0  0  0  0
  143.5550   76.4610  217.6020 C   0  0  0  0  0  0  0  0  0  0  0  0
  141.4180   78.5650  219.7560 N   0  0  0  0  0  0  0  0  0  0  0  0
  140.4640   74.8570  221.6350 C   0  0  0  0  0  0  0  0  0  0  0  0
  140.0840   73.5330  221.5290 C   0  0  0  0  0  0  0  0  0  0  0  0
  140.9580   72.5650  221.0640 C   0  0  0  0  0  0  0  0  0  0  0  0
  142.2320   72.9810  220.7100 C   0  0  0  0  0  0  0  0  0  0  0  0
  143.1690   72.0780  220.2350 C   0  0  0  0  0  0  0  0  0  0  0  0
  144.4510   72.4790  219.8750 C   0  0  0  0  0  0  0  0  0  0  0  0
  145.6150   71.3020  219.2760 Cl  0  0  0  0  0  0  0  0  0  0  0  0
  144.8060   73.8170  219.9910 C   0  0  0  0  0  0  0  0  0  0  0  0
  143.8790   74.7320  220.4640 C   0  0  0  0  0  0  0  0  0  0  0  0
  142.6120   74.3160  220.8170 C   0  0  0  0  0  0  0  0  0  0  0  0
  141.7140   75.2030  221.2750 N   0  0  0  0  0  0  0  0  0  0  0  0
  140.5750   77.5450  221.5670 H   0  0  0  0  0  0  0  0  0  0  0  0
  137.7377   77.9030  221.9907 H   0  0  0  0  0  0  0  0  0  0  0  0
  138.5668   77.8730  223.6130 H   0  0  0  0  0  0  0  0  0  0  0  0
  141.3855   79.2516  223.8660 H   0  0  0  0  0  0  0  0  0  0  0  0
  141.9880   78.4793  222.4076 H   0  0  0  0  0  0  0  0  0  0  0  0
  142.7578   81.0509  223.5800 H   0  0  0  0  0  0  0  0  0  0  0  0
  143.4810   80.2489  222.1664 H   0  0  0  0  0  0  0  0  0  0  0  0
  141.3576   82.3636  222.2989 H   0  0  0  0  0  0  0  0  0  0  0  0
  142.5321   82.0976  221.0351 H   0  0  0  0  0  0  0  0  0  0  0  0
  140.0205   81.2476  220.4964 H   0  0  0  0  0  0  0  0  0  0  0  0
  142.6796   81.4092  218.8041 H   0  0  0  0  0  0  0  0  0  0  0  0
  143.4030   79.4030  217.4160 H   0  0  0  0  0  0  0  0  0  0  0  0
  140.3476   76.2689  218.6362 H   0  0  0  0  0  0  0  0  0  0  0  0
  140.5885   73.9719  217.7072 H   0  0  0  0  0  0  0  0  0  0  0  0
  142.7607   73.2630  216.6952 H   0  0  0  0  0  0  0  0  0  0  0  0
  144.6554   74.8698  216.6383 H   0  0  0  0  0  0  0  0  0  0  0  0
  144.4010   77.1633  217.5693 H   0  0  0  0  0  0  0  0  0  0  0  0
  139.0642   73.2413  221.8206 H   0  0  0  0  0  0  0  0  0  0  0  0
  140.6544   71.5111  220.9791 H   0  0  0  0  0  0  0  0  0  0  0  0
  142.8922   71.0176  220.1402 H   0  0  0  0  0  0  0  0  0  0  0  0
  145.8164   74.1480  219.7092 H   0  0  0  0  0  0  0  0  0  0  0  0
  144.1542   75.7928  220.5582 H   0  0  0  0  0  0  0  0  0  0  0  0
  1  2  2  0
  2  3  1  0
  3  4  1  0
  4  5  1  0
  5  6  2  0
  5  7  1  0
  7  8  1  0
  8  9  1  0
  9 10  1  0
 10 11  1  0
 11 12  1  0
 12 13  2  0
 13 14  1  0
 14 15  1  0
 15 16  1  0
 16 17  2  0
 17 18  1  0
 18 19  2  0
 19 20  1  0
 20 21  2  0
 15 22  2  0
  2 23  1  0
 23 24  2  0
 24 25  1  0
 25 26  2  0
 26 27  1  0
 27 28  2  0
 28 29  1  0
 28 30  1  0
 30 31  2  0
 31 32  1  0
 32 33  2  0
 11  7  1  0
 22 12  1  0
 33 23  1  0
 21 16  1  0
 32 26  1  0
  3 34  1  0
  4 35  1  0
  4 36  1  0
  8 37  1  0
  8 38  1  0
  9 39  1  0
  9 40  1  0
 10 41  1  0
 10 42  1  0
 11 43  1  6
 13 44  1  0
 14 45  1  0
 17 46  1  0
 18 47  1  0
 19 48  1  0
 20 49  1  0
 21 50  1  0
 24 51  1  0
 25 52  1  0
 27 53  1  0
 30 54  1  0
 31 55  1  0
M  END
>  <smiles>  (30) 
O=C(NCC(=O)N1CCC[C@H]1c1c[nH]c(-c2ccccc2)n1)c1ccc2cc(Cl)ccc2n1

>  <score_type>  (30) 
oracle

>  <origin>  (30) 
autodockgpu

>  <m_score__min__energy>  (30) 
-9.5700000000000003

>  <m_primary>  (30) 
energy

>  <rmsd>  (30) 
6.619664689200225

>  <m_score__min__rmsd>  (30) 
6.619664689200225

>  <meeko>  (30) 
{"free_energy": -6.64, "intermolecular_energy": -8.43, "internal_energy": -4.02, "cluster_size": 23, "cluster_id": 7, "rank_in_cluster": 23}

>  <energy>  (30) 
-6.89

>  <cluster_rmsd>  (30) 
0.52

>  <cluster>  (30) 
7

$$$$

     RDKit          3D

 55 59  0  0  0  0  0  0  0  0999 V2000
  138.4590   70.4720  221.1490 O   0  0  0  0  0  0  0  0  0  0  0  0
  138.3700   71.1830  222.1900 C   0  0  0  0  0  0  0  0  0  0  0  0
  137.5990   72.3760  222.0890 N   0  0  0  0  0  0  0  0  0  0  0  0
  136.9880   72.6710  220.8190 C   0  0  0  0  0  0  0  0  0  0  0  0
  137.2820   74.0350  220.3440 C   0  0  0  0  0  0  0  0  0  0  0  0
  136.4510   74.7580  219.7220 O   0  0  0  0  0  0  0  0  0  0  0  0
  138.5780   74.5610  220.6040 N   0  0  0  0  0  0  0  0  0  0  0  0
  139.5510   75.0950  219.6460 C   0  0  0  0  0  0  0  0  0  0  0  0
  140.8890   74.7640  220.2650 C   0  0  0  0  0  0  0  0  0  0  0  0
  140.6160   74.1590  221.6030 C   0  0  0  0  0  0  0  0  0  0  0  0
  139.2290   74.6820  221.9150 C   0  0  1  0  0  0  0  0  0  0  0  0
  139.3220   76.1010  222.3460 C   0  0  0  0  0  0  0  0  0  0  0  0
  138.2840   76.9580  222.6730 C   0  0  0  0  0  0  0  0  0  0  0  0
  138.8320   78.1610  223.0110 N   0  0  0  0  0  0  0  0  0  0  0  0
  140.1740   78.0710  222.9030 C   0  0  0  0  0  0  0  0  0  0  0  0
  141.0780   79.1810  223.1910 C   0  0  0  0  0  0  0  0  0  0  0  0
  140.5360   80.3880  223.5860 C   0  0  0  0  0  0  0  0  0  0  0  0
  141.3540   81.4810  223.8740 C   0  0  0  0  0  0  0  0  0  0  0  0
  142.7330   81.3590  223.7630 C   0  0  0  0  0  0  0  0  0  0  0  0
  143.2680   80.1460  223.3650 C   0  0  0  0  0  0  0  0  0  0  0  0
  142.4430   79.0560  223.0790 C   0  0  0  0  0  0  0  0  0  0  0  0
  140.4600   76.8300  222.5020 N   0  0  0  0  0  0  0  0  0  0  0  0
  139.0240   70.8030  223.4370 C   0  0  0  0  0  0  0  0  0  0  0  0
  139.9380   71.6810  223.9870 C   0  0  0  0  0  0  0  0  0  0  0  0
  140.5990   71.3920  225.1690 C   0  0  0  0  0  0  0  0  0  0  0  0
  140.3050   70.1810  225.7770 C   0  0  0  0  0  0  0  0  0  0  0  0
  140.9200   69.8120  226.9620 C   0  0  0  0  0  0  0  0  0  0  0  0
  140.6370   68.6020  227.5850 C   0  0  0  0  0  0  0  0  0  0  0  0
  141.4400   68.1680  229.0910 Cl  0  0  0  0  0  0  0  0  0  0  0  0
  139.7140   67.7380  227.0110 C   0  0  0  0  0  0  0  0  0  0  0  0
  139.0890   68.0930  225.8260 C   0  0  0  0  0  0  0  0  0  0  0  0
  139.3830   69.2990  225.2210 C   0  0  0  0  0  0  0  0  0  0  0  0
  138.7780   69.6420  224.0730 N   0  0  0  0  0  0  0  0  0  0  0  0
  137.5150   72.9760  222.9390 H   0  0  0  0  0  0  0  0  0  0  0  0
  137.3610   71.9521  220.0746 H   0  0  0  0  0  0  0  0  0  0  0  0
  135.8986   72.5952  220.9513 H   0  0  0  0  0  0  0  0  0  0  0  0
  139.4423   74.6086  218.6654 H   0  0  0  0  0  0  0  0  0  0  0  0
  139.4217   76.1724  219.4657 H   0  0  0  0  0  0  0  0  0  0  0  0
  141.4315   74.0476  219.6305 H   0  0  0  0  0  0  0  0  0  0  0  0
  141.5094   75.6671  220.3628 H   0  0  0  0  0  0  0  0  0  0  0  0
  140.6258   73.0602  221.5531 H   0  0  0  0  0  0  0  0  0  0  0  0
  141.3663   74.4167  222.3650 H   0  0  0  0  0  0  0  0  0  0  0  0
  138.6958   74.1564  222.7209 H   0  0  0  0  0  0  0  0  0  0  0  0
  137.2117   76.7130  222.6622 H   0  0  0  0  0  0  0  0  0  0  0  0
  138.2320   78.9580  223.2930 H   0  0  0  0  0  0  0  0  0  0  0  0
  139.4443   80.4892  223.6748 H   0  0  0  0  0  0  0  0  0  0  0  0
  140.9081   82.4363  224.1880 H   0  0  0  0  0  0  0  0  0  0  0  0
  143.3895   82.2126  223.9877 H   0  0  0  0  0  0  0  0  0  0  0  0
  144.3589   80.0390  223.2726 H   0  0  0  0  0  0  0  0  0  0  0  0
  142.8844   78.0988  222.7646 H   0  0  0  0  0  0  0  0  0  0  0  0
  140.1455   72.6317  223.4741 H   0  0  0  0  0  0  0  0  0  0  0  0
  141.3256   72.0925  225.6065 H   0  0  0  0  0  0  0  0  0  0  0  0
  141.6508   70.4937  227.4217 H   0  0  0  0  0  0  0  0  0  0  0  0
  139.4803   66.7776  227.4938 H   0  0  0  0  0  0  0  0  0  0  0  0
  138.3571   67.4125  225.3664 H   0  0  0  0  0  0  0  0  0  0  0  0
  1  2  2  0
  2  3  1  0
  3  4  1  0
  4  5  1  0
  5  6  2  0
  5  7  1  0
  7  8  1  0
  8  9  1  0
  9 10  1  0
 10 11  1  0
 11 12  1  0
 12 13  2  0
 13 14  1  0
 14 15  1  0
 15 16  1  0
 16 17  2  0
 17 18  1  0
 18 19  2  0
 19 20  1  0
 20 21  2  0
 15 22  2  0
  2 23  1  0
 23 24  2  0
 24 25  1  0
 25 26  2  0
 26 27  1  0
 27 28  2  0
 28 29  1  0
 28 30  1  0
 30 31  2  0
 31 32  1  0
 32 33  2  0
 11  7  1  0
 22 12  1  0
 33 23  1  0
 21 16  1  0
 32 26  1  0
  3 34  1  0
  4 35  1  0
  4 36  1  0
  8 37  1  0
  8 38  1  0
  9 39  1  0
  9 40  1  0
 10 41  1  0
 10 42  1  0
 11 43  1  1
 13 44  1  0
 14 45  1  0
 17 46  1  0
 18 47  1  0
 19 48  1  0
 20 49  1  0
 21 50  1  0
 24 51  1  0
 25 52  1  0
 27 53  1  0
 30 54  1  0
 31 55  1  0
M  END
>  <smiles>  (31) 
O=C(NCC(=O)N1CCC[C@H]1c1c[nH]c(-c2ccccc2)n1)c1ccc2cc(Cl)ccc2n1

>  <score_type>  (31) 
oracle

>  <origin>  (31) 
autodockgpu

>  <m_score__min__energy>  (31) 
-9.5700000000000003

>  <m_primary>  (31) 
energy

>  <rmsd>  (31) 
3.322930080357217

>  <m_score__min__rmsd>  (31) 
3.322930080357217

>  <meeko>  (31) 
{"free_energy": -8.6, "intermolecular_energy": -10.39, "internal_energy": -1.67, "cluster_size": 3, "cluster_id": 2, "rank_in_cluster": 3}

>  <energy>  (31) 
-6.85

>  <cluster_rmsd>  (31) 
0.4

>  <cluster>  (31) 
7

$$$$

     RDKit          3D

 55 59  0  0  0  0  0  0  0  0999 V2000
  138.9580   75.9050  223.0650 O   0  0  0  0  0  0  0  0  0  0  0  0
  139.6120   76.0510  221.9930 C   0  0  0  0  0  0  0  0  0  0  0  0
  139.3830   77.2490  221.2590 N   0  0  0  0  0  0  0  0  0  0  0  0
  138.4320   78.1890  221.7940 C   0  0  0  0  0  0  0  0  0  0  0  0
  139.0700   79.3940  222.3540 C   0  0  0  0  0  0  0  0  0  0  0  0
  138.4480   80.2800  223.0080 O   0  0  0  0  0  0  0  0  0  0  0  0
  140.4670   79.5630  222.1410 N   0  0  0  0  0  0  0  0  0  0  0  0
  141.5760   78.8740  222.8050 C   0  0  0  0  0  0  0  0  0  0  0  0
  142.6870   79.8980  222.8150 C   0  0  0  0  0  0  0  0  0  0  0  0
  142.1950   81.0850  222.0520 C   0  0  0  0  0  0  0  0  0  0  0  0
  141.1050   80.4830  221.1900 C   0  0  1  0  0  0  0  0  0  0  0  0
  141.7210   79.7490  220.0540 C   0  0  0  0  0  0  0  0  0  0  0  0
  142.4890   80.2690  219.0250 C   0  0  0  0  0  0  0  0  0  0  0  0
  142.8420   79.2350  218.2100 N   0  0  0  0  0  0  0  0  0  0  0  0
  142.3170   78.0950  218.7040 C   0  0  0  0  0  0  0  0  0  0  0  0
  142.4990   76.7890  218.0760 C   0  0  0  0  0  0  0  0  0  0  0  0
  141.4390   75.9050  218.0700 C   0  0  0  0  0  0  0  0  0  0  0  0
  141.5590   74.6450  217.4830 C   0  0  0  0  0  0  0  0  0  0  0  0
  142.7600   74.2690  216.8960 C   0  0  0  0  0  0  0  0  0  0  0  0
  143.8180   75.1610  216.9070 C   0  0  0  0  0  0  0  0  0  0  0  0
  143.6900   76.4210  217.4960 C   0  0  0  0  0  0  0  0  0  0  0  0
  141.6440   78.4130  219.8120 N   0  0  0  0  0  0  0  0  0  0  0  0
  140.5570   75.0420  221.5280 C   0  0  0  0  0  0  0  0  0  0  0  0
  140.1170   73.7370  221.4220 C   0  0  0  0  0  0  0  0  0  0  0  0
  140.9540   72.7240  220.9860 C   0  0  0  0  0  0  0  0  0  0  0  0
  142.2560   73.0750  220.6620 C   0  0  0  0  0  0  0  0  0  0  0  0
  143.1600   72.1250  220.2180 C   0  0  0  0  0  0  0  0  0  0  0  0
  144.4680   72.4600  219.8890 C   0  0  0  0  0  0  0  0  0  0  0  0
  145.5890   71.2230  219.3280 Cl  0  0  0  0  0  0  0  0  0  0  0  0
  144.8850   73.7800  220.0040 C   0  0  0  0  0  0  0  0  0  0  0  0
  143.9910   74.7430  220.4470 C   0  0  0  0  0  0  0  0  0  0  0  0
  142.6960   74.3910  220.7690 C   0  0  0  0  0  0  0  0  0  0  0  0
  141.8310   75.3240  221.1980 N   0  0  0  0  0  0  0  0  0  0  0  0
  139.9130   77.3850  220.3710 H   0  0  0  0  0  0  0  0  0  0  0  0
  137.7497   78.4956  220.9875 H   0  0  0  0  0  0  0  0  0  0  0  0
  137.8971   77.6872  222.6138 H   0  0  0  0  0  0  0  0  0  0  0  0
  141.3001   78.5860  223.8301 H   0  0  0  0  0  0  0  0  0  0  0  0
  141.8626   77.9425  222.2950 H   0  0  0  0  0  0  0  0  0  0  0  0
  142.9255   80.1863  223.8494 H   0  0  0  0  0  0  0  0  0  0  0  0
  143.6009   79.4897  222.3588 H   0  0  0  0  0  0  0  0  0  0  0  0
  141.7905   81.8534  222.7273 H   0  0  0  0  0  0  0  0  0  0  0  0
  142.9808   81.5962  221.4765 H   0  0  0  0  0  0  0  0  0  0  0  0
  140.4070   81.2037  220.7390 H   0  0  0  0  0  0  0  0  0  0  0  0
  142.7642   81.3254  218.8900 H   0  0  0  0  0  0  0  0  0  0  0  0
  143.4240   79.3960  217.3670 H   0  0  0  0  0  0  0  0  0  0  0  0
  140.4860   76.1981  218.5347 H   0  0  0  0  0  0  0  0  0  0  0  0
  140.7050   73.9517  217.4852 H   0  0  0  0  0  0  0  0  0  0  0  0
  142.8686   73.2785  216.4300 H   0  0  0  0  0  0  0  0  0  0  0  0
  144.7740   74.8734  216.4450 H   0  0  0  0  0  0  0  0  0  0  0  0
  144.5410   77.1180  217.4958 H   0  0  0  0  0  0  0  0  0  0  0  0
  139.0775   73.4970  221.6902 H   0  0  0  0  0  0  0  0  0  0  0  0
  140.6015   71.6855  220.9003 H   0  0  0  0  0  0  0  0  0  0  0  0
  142.8347   71.0785  220.1232 H   0  0  0  0  0  0  0  0  0  0  0  0
  145.9170   74.0594  219.7455 H   0  0  0  0  0  0  0  0  0  0  0  0
  144.3148   75.7900  220.5420 H   0  0  0  0  0  0  0  0  0  0  0  0
  1  2  2  0
  2  3  1  0
  3  4  1  0
  4  5  1  0
  5  6  2  0
  5  7  1  0
  7  8  1  0
  8  9  1  0
  9 10  1  0
 10 11  1  0
 11 12  1  0
 12 13  2  0
 13 14  1  0
 14 15  1  0
 15 16  1  0
 16 17  2  0
 17 18  1  0
 18 19  2  0
 19 20  1  0
 20 21  2  0
 15 22  2  0
  2 23  1  0
 23 24  2  0
 24 25  1  0
 25 26  2  0
 26 27  1  0
 27 28  2  0
 28 29  1  0
 28 30  1  0
 30 31  2  0
 31 32  1  0
 32 33  2  0
 11  7  1  0
 22 12  1  0
 33 23  1  0
 21 16  1  0
 32 26  1  0
  3 34  1  0
  4 35  1  0
  4 36  1  0
  8 37  1  0
  8 38  1  0
  9 39  1  0
  9 40  1  0
 10 41  1  0
 10 42  1  0
 11 43  1  6
 13 44  1  0
 14 45  1  0
 17 46  1  0
 18 47  1  0
 19 48  1  0
 20 49  1  0
 21 50  1  0
 24 51  1  0
 25 52  1  0
 27 53  1  0
 30 54  1  0
 31 55  1  0
M  END
>  <smiles>  (32) 
O=C(NCC(=O)N1CCC[C@H]1c1c[nH]c(-c2ccccc2)n1)c1ccc2cc(Cl)ccc2n1

>  <score_type>  (32) 
oracle

>  <origin>  (32) 
autodockgpu

>  <m_score__min__energy>  (32) 
-9.5700000000000003

>  <m_primary>  (32) 
energy

>  <rmsd>  (32) 
6.6361134976324845

>  <m_score__min__rmsd>  (32) 
6.6361134976324845

>  <meeko>  (32) 
{"free_energy": -6.76, "intermolecular_energy": -8.55, "internal_energy": -4.21, "cluster_size": 23, "cluster_id": 7, "rank_in_cluster": 21}

>  <energy>  (32) 
-6.84

>  <cluster_rmsd>  (32) 
0.53

>  <cluster>  (32) 
7

$$$$

     RDKit          3D

 55 59  0  0  0  0  0  0  0  0999 V2000
  141.1460   74.5770  221.4480 O   0  0  0  0  0  0  0  0  0  0  0  0
  140.4460   75.5380  221.0200 C   0  0  0  0  0  0  0  0  0  0  0  0
  139.0450   75.4750  221.2700 N   0  0  0  0  0  0  0  0  0  0  0  0
  138.5470   74.3290  221.9860 C   0  0  0  0  0  0  0  0  0  0  0  0
  137.0760   74.3110  222.0890 C   0  0  0  0  0  0  0  0  0  0  0  0
  136.3560   73.3410  221.7150 O   0  0  0  0  0  0  0  0  0  0  0  0
  136.4390   75.4560  222.6440 N   0  0  0  0  0  0  0  0  0  0  0  0
  135.9260   75.6400  224.0040 C   0  0  0  0  0  0  0  0  0  0  0  0
  134.7540   76.5770  223.8270 C   0  0  0  0  0  0  0  0  0  0  0  0
  134.7240   76.9750  222.3870 C   0  0  0  0  0  0  0  0  0  0  0  0
  136.1530   76.7210  221.9550 C   0  0  1  0  0  0  0  0  0  0  0  0
  137.0220   77.8190  222.4530 C   0  0  0  0  0  0  0  0  0  0  0  0
  136.6300   79.0090  223.0440 C   0  0  0  0  0  0  0  0  0  0  0  0
  137.7590   79.7140  223.3420 N   0  0  0  0  0  0  0  0  0  0  0  0
  138.8330   78.9950  222.9540 C   0  0  0  0  0  0  0  0  0  0  0  0
  140.2090   79.4540  223.1250 C   0  0  0  0  0  0  0  0  0  0  0  0
  140.4410   80.8070  223.2670 C   0  0  0  0  0  0  0  0  0  0  0  0
  141.7360   81.3000  223.4330 C   0  0  0  0  0  0  0  0  0  0  0  0
  142.8100   80.4200  223.4560 C   0  0  0  0  0  0  0  0  0  0  0  0
  142.5690   79.0650  223.3130 C   0  0  0  0  0  0  0  0  0  0  0  0
  141.2700   78.5800  223.1470 C   0  0  0  0  0  0  0  0  0  0  0  0
  138.3810   77.8580  222.4210 N   0  0  0  0  0  0  0  0  0  0  0  0
  141.0400   76.6610  220.3030 C   0  0  0  0  0  0  0  0  0  0  0  0
  142.2000   76.4360  219.5880 C   0  0  0  0  0  0  0  0  0  0  0  0
  142.8230   77.4510  218.8810 C   0  0  0  0  0  0  0  0  0  0  0  0
  142.2320   78.7050  218.9230 C   0  0  0  0  0  0  0  0  0  0  0  0
  142.7880   79.7770  218.2450 C   0  0  0  0  0  0  0  0  0  0  0  0
  142.2090   81.0400  218.2760 C   0  0  0  0  0  0  0  0  0  0  0  0
  142.9460   82.3790  217.4010 Cl  0  0  0  0  0  0  0  0  0  0  0  0
  141.0420   81.2390  219.0030 C   0  0  0  0  0  0  0  0  0  0  0  0
  140.4730   80.1750  219.6860 C   0  0  0  0  0  0  0  0  0  0  0  0
  141.0620   78.9280  219.6440 C   0  0  0  0  0  0  0  0  0  0  0  0
  140.5110   77.8990  220.3070 N   0  0  0  0  0  0  0  0  0  0  0  0
  138.4520   76.2590  220.9230 H   0  0  0  0  0  0  0  0  0  0  0  0
  138.8732   73.4187  221.4617 H   0  0  0  0  0  0  0  0  0  0  0  0
  138.9488   74.3788  223.0088 H   0  0  0  0  0  0  0  0  0  0  0  0
  135.5990   74.6809  224.4320 H   0  0  0  0  0  0  0  0  0  0  0  0
  136.6856   76.0366  224.6937 H   0  0  0  0  0  0  0  0  0  0  0  0
  133.8181   76.0659  224.0969 H   0  0  0  0  0  0  0  0  0  0  0  0
  134.8567   77.4597  224.4753 H   0  0  0  0  0  0  0  0  0  0  0  0
  134.0183   76.3536  221.8161 H   0  0  0  0  0  0  0  0  0  0  0  0
  134.3902   78.0100  222.2218 H   0  0  0  0  0  0  0  0  0  0  0  0
  136.3168   76.6760  220.8682 H   0  0  0  0  0  0  0  0  0  0  0  0
  135.5952   79.3278  223.2379 H   0  0  0  0  0  0  0  0  0  0  0  0
  137.7010   80.6450  223.7950 H   0  0  0  0  0  0  0  0  0  0  0  0
  139.5927   81.5071  223.2491 H   0  0  0  0  0  0  0  0  0  0  0  0
  141.9053   82.3811  223.5452 H   0  0  0  0  0  0  0  0  0  0  0  0
  143.8362   80.7942  223.5858 H   0  0  0  0  0  0  0  0  0  0  0  0
  143.4129   78.3596  223.3303 H   0  0  0  0  0  0  0  0  0  0  0  0
  141.0959   77.4998  223.0340 H   0  0  0  0  0  0  0  0  0  0  0  0
  142.6392   75.4275  219.5799 H   0  0  0  0  0  0  0  0  0  0  0  0
  143.7463   77.2704  218.3110 H   0  0  0  0  0  0  0  0  0  0  0  0
  143.7115   79.6249  217.6671 H   0  0  0  0  0  0  0  0  0  0  0  0
  140.5729   82.2334  219.0365 H   0  0  0  0  0  0  0  0  0  0  0  0
  139.5489   80.3255  220.2633 H   0  0  0  0  0  0  0  0  0  0  0  0
  1  2  2  0
  2  3  1  0
  3  4  1  0
  4  5  1  0
  5  6  2  0
  5  7  1  0
  7  8  1  0
  8  9  1  0
  9 10  1  0
 10 11  1  0
 11 12  1  0
 12 13  2  0
 13 14  1  0
 14 15  1  0
 15 16  1  0
 16 17  2  0
 17 18  1  0
 18 19  2  0
 19 20  1  0
 20 21  2  0
 15 22  2  0
  2 23  1  0
 23 24  2  0
 24 25  1  0
 25 26  2  0
 26 27  1  0
 27 28  2  0
 28 29  1  0
 28 30  1  0
 30 31  2  0
 31 32  1  0
 32 33  2  0
 11  7  1  0
 22 12  1  0
 33 23  1  0
 21 16  1  0
 32 26  1  0
  3 34  1  0
  4 35  1  0
  4 36  1  0
  8 37  1  0
  8 38  1  0
  9 39  1  0
  9 40  1  0
 10 41  1  0
 10 42  1  0
 11 43  1  6
 13 44  1  0
 14 45  1  0
 17 46  1  0
 18 47  1  0
 19 48  1  0
 20 49  1  0
 21 50  1  0
 24 51  1  0
 25 52  1  0
 27 53  1  0
 30 54  1  0
 31 55  1  0
M  END
>  <smiles>  (33) 
O=C(NCC(=O)N1CCC[C@H]1c1c[nH]c(-c2ccccc2)n1)c1ccc2cc(Cl)ccc2n1

>  <score_type>  (33) 
oracle

>  <origin>  (33) 
autodockgpu

>  <m_score__min__energy>  (33) 
-9.5700000000000003

>  <m_primary>  (33) 
energy

>  <rmsd>  (33) 
7.933871938921468

>  <m_score__min__rmsd>  (33) 
7.933871938921468

>  <meeko>  (33) 
{"free_energy": -6.46, "intermolecular_energy": -8.25, "internal_energy": -3.74, "cluster_size": 1, "cluster_id": 12, "rank_in_cluster": 1}

>  <energy>  (33) 
-6.83

>  <cluster_rmsd>  (33) 
0.9

>  <cluster>  (33) 
7

$$$$

     RDKit          3D

 55 59  0  0  0  0  0  0  0  0999 V2000
  135.7330   76.3290  222.9210 O   0  0  0  0  0  0  0  0  0  0  0  0
  136.4080   75.2750  223.0980 C   0  0  0  0  0  0  0  0  0  0  0  0
  137.7630   75.2990  222.6610 N   0  0  0  0  0  0  0  0  0  0  0  0
  138.2490   76.5130  222.0590 C   0  0  0  0  0  0  0  0  0  0  0  0
  139.7170   76.5410  221.9250 C   0  0  0  0  0  0  0  0  0  0  0  0
  140.4400   77.5090  222.2970 O   0  0  0  0  0  0  0  0  0  0  0  0
  140.3480   75.4060  221.3420 N   0  0  0  0  0  0  0  0  0  0  0  0
  141.7820   75.1260  221.2250 C   0  0  0  0  0  0  0  0  0  0  0  0
  141.8920   74.3250  219.9480 C   0  0  0  0  0  0  0  0  0  0  0  0
  140.5010   74.0880  219.4580 C   0  0  0  0  0  0  0  0  0  0  0  0
  139.6830   74.2530  220.7220 C   0  0  1  0  0  0  0  0  0  0  0  0
  139.8160   73.0330  221.5600 C   0  0  0  0  0  0  0  0  0  0  0  0
  139.8880   71.7170  221.1370 C   0  0  0  0  0  0  0  0  0  0  0  0
  140.0050   70.9320  222.2450 N   0  0  0  0  0  0  0  0  0  0  0  0
  140.0090   71.7230  223.3380 C   0  0  0  0  0  0  0  0  0  0  0  0
  140.1210   71.2090  224.7000 C   0  0  0  0  0  0  0  0  0  0  0  0
  140.9320   71.8790  225.5940 C   0  0  0  0  0  0  0  0  0  0  0  0
  141.0740   71.4310  226.9080 C   0  0  0  0  0  0  0  0  0  0  0  0
  140.3930   70.2960  227.3270 C   0  0  0  0  0  0  0  0  0  0  0  0
  139.5820   69.6300  226.4250 C   0  0  0  0  0  0  0  0  0  0  0  0
  139.4450   70.0850  225.1120 C   0  0  0  0  0  0  0  0  0  0  0  0
  139.8950   72.9850  222.9170 N   0  0  0  0  0  0  0  0  0  0  0  0
  135.8300   74.0890  223.7200 C   0  0  0  0  0  0  0  0  0  0  0  0
  134.7960   74.2640  224.6190 C   0  0  0  0  0  0  0  0  0  0  0  0
  134.1950   73.1870  225.2490 C   0  0  0  0  0  0  0  0  0  0  0  0
  134.6780   71.9250  224.9400 C   0  0  0  0  0  0  0  0  0  0  0  0
  134.1340   70.7930  225.5240 C   0  0  0  0  0  0  0  0  0  0  0  0
  134.6060   69.5190  225.2250 C   0  0  0  0  0  0  0  0  0  0  0  0
  133.8890   68.1040  225.9890 Cl  0  0  0  0  0  0  0  0  0  0  0  0
  135.6460   69.3720  224.3170 C   0  0  0  0  0  0  0  0  0  0  0  0
  136.2000   70.4950  223.7230 C   0  0  0  0  0  0  0  0  0  0  0  0
  135.7190   71.7520  224.0330 C   0  0  0  0  0  0  0  0  0  0  0  0
  136.2560   72.8400  223.4580 N   0  0  0  0  0  0  0  0  0  0  0  0
  138.3350   74.4380  222.7990 H   0  0  0  0  0  0  0  0  0  0  0  0
  137.8035   76.6108  221.0580 H   0  0  0  0  0  0  0  0  0  0  0  0
  137.9625   77.3454  222.7186 H   0  0  0  0  0  0  0  0  0  0  0  0
  142.3586   76.0599  221.1523 H   0  0  0  0  0  0  0  0  0  0  0  0
  142.1826   74.5902  222.0982 H   0  0  0  0  0  0  0  0  0  0  0  0
  142.4658   74.8883  219.1973 H   0  0  0  0  0  0  0  0  0  0  0  0
  142.4122   73.3724  220.1265 H   0  0  0  0  0  0  0  0  0  0  0  0
  140.2143   74.8297  218.6979 H   0  0  0  0  0  0  0  0  0  0  0  0
  140.3657   73.1119  218.9692 H   0  0  0  0  0  0  0  0  0  0  0  0
  138.6031   74.3973  220.5707 H   0  0  0  0  0  0  0  0  0  0  0  0
  139.8565   71.3677  220.0944 H   0  0  0  0  0  0  0  0  0  0  0  0
  140.0740   69.9000  222.1620 H   0  0  0  0  0  0  0  0  0  0  0  0
  141.4738   72.7784  225.2660 H   0  0  0  0  0  0  0  0  0  0  0  0
  141.7233   71.9753  227.6095 H   0  0  0  0  0  0  0  0  0  0  0  0
  140.4965   69.9319  228.3598 H   0  0  0  0  0  0  0  0  0  0  0  0
  139.0378   68.7298  226.7467 H   0  0  0  0  0  0  0  0  0  0  0  0
  138.7962   69.5441  224.4073 H   0  0  0  0  0  0  0  0  0  0  0  0
  134.4419   75.2818  224.8395 H   0  0  0  0  0  0  0  0  0  0  0  0
  133.3704   73.3269  225.9634 H   0  0  0  0  0  0  0  0  0  0  0  0
  133.3082   70.9041  226.2421 H   0  0  0  0  0  0  0  0  0  0  0  0
  136.0279   68.3703  224.0705 H   0  0  0  0  0  0  0  0  0  0  0  0
  137.0245   70.3849  223.0032 H   0  0  0  0  0  0  0  0  0  0  0  0
  1  2  2  0
  2  3  1  0
  3  4  1  0
  4  5  1  0
  5  6  2  0
  5  7  1  0
  7  8  1  0
  8  9  1  0
  9 10  1  0
 10 11  1  0
 11 12  1  0
 12 13  2  0
 13 14  1  0
 14 15  1  0
 15 16  1  0
 16 17  2  0
 17 18  1  0
 18 19  2  0
 19 20  1  0
 20 21  2  0
 15 22  2  0
  2 23  1  0
 23 24  2  0
 24 25  1  0
 25 26  2  0
 26 27  1  0
 27 28  2  0
 28 29  1  0
 28 30  1  0
 30 31  2  0
 31 32  1  0
 32 33  2  0
 11  7  1  0
 22 12  1  0
 33 23  1  0
 21 16  1  0
 32 26  1  0
  3 34  1  0
  4 35  1  0
  4 36  1  0
  8 37  1  0
  8 38  1  0
  9 39  1  0
  9 40  1  0
 10 41  1  0
 10 42  1  0
 11 43  1  6
 13 44  1  0
 14 45  1  0
 17 46  1  0
 18 47  1  0
 19 48  1  0
 20 49  1  0
 21 50  1  0
 24 51  1  0
 25 52  1  0
 27 53  1  0
 30 54  1  0
 31 55  1  0
M  END
>  <smiles>  (34) 
O=C(NCC(=O)N1CCC[C@H]1c1c[nH]c(-c2ccccc2)n1)c1ccc2cc(Cl)ccc2n1

>  <score_type>  (34) 
oracle

>  <origin>  (34) 
autodockgpu

>  <m_score__min__energy>  (34) 
-9.5700000000000003

>  <m_primary>  (34) 
energy

>  <rmsd>  (34) 
7.255122094953

>  <m_score__min__rmsd>  (34) 
7.255122094953

>  <meeko>  (34) 
{"free_energy": -7.28, "intermolecular_energy": -9.07, "internal_energy": -3.27, "cluster_size": 3, "cluster_id": 4, "rank_in_cluster": 3}

>  <energy>  (34) 
-6.81

>  <cluster_rmsd>  (34) 
0.96

>  <cluster>  (34) 
7

$$$$

     RDKit          3D

 55 59  0  0  0  0  0  0  0  0999 V2000
  138.3760   75.4830  222.7020 O   0  0  0  0  0  0  0  0  0  0  0  0
  139.4530   75.8520  222.1520 C   0  0  0  0  0  0  0  0  0  0  0  0
  139.6660   77.2550  222.0340 N   0  0  0  0  0  0  0  0  0  0  0  0
  138.6450   78.1310  222.5470 C   0  0  0  0  0  0  0  0  0  0  0  0
  139.0370   79.5510  222.5140 C   0  0  0  0  0  0  0  0  0  0  0  0
  138.2430   80.5070  222.7510 O   0  0  0  0  0  0  0  0  0  0  0  0
  140.3900   79.8560  222.1970 N   0  0  0  0  0  0  0  0  0  0  0  0
  141.6070   79.3850  222.8630 C   0  0  0  0  0  0  0  0  0  0  0  0
  142.5820   80.5270  222.6900 C   0  0  0  0  0  0  0  0  0  0  0  0
  141.9110   81.5490  221.8320 C   0  0  0  0  0  0  0  0  0  0  0  0
  140.8630   80.7260  221.1120 C   0  0  1  0  0  0  0  0  0  0  0  0
  141.5100   79.9420  220.0280 C   0  0  0  0  0  0  0  0  0  0  0  0
  142.3340   80.4090  219.0180 C   0  0  0  0  0  0  0  0  0  0  0  0
  142.6960   79.3410  218.2520 N   0  0  0  0  0  0  0  0  0  0  0  0
  142.1220   78.2300  218.7600 C   0  0  0  0  0  0  0  0  0  0  0  0
  142.3000   76.9000  218.1820 C   0  0  0  0  0  0  0  0  0  0  0  0
  141.2420   76.0150  218.2260 C   0  0  0  0  0  0  0  0  0  0  0  0
  141.3570   74.7320  217.6890 C   0  0  0  0  0  0  0  0  0  0  0  0
  142.5510   74.3350  217.1010 C   0  0  0  0  0  0  0  0  0  0  0  0
  143.6070   75.2300  217.0620 C   0  0  0  0  0  0  0  0  0  0  0  0
  143.4840   76.5110  217.6010 C   0  0  0  0  0  0  0  0  0  0  0  0
  141.4100   78.6000  219.8270 N   0  0  0  0  0  0  0  0  0  0  0  0
  140.4330   74.8890  221.6610 C   0  0  0  0  0  0  0  0  0  0  0  0
  140.0590   73.5620  221.5830 C   0  0  0  0  0  0  0  0  0  0  0  0
  140.9320   72.5900  221.1260 C   0  0  0  0  0  0  0  0  0  0  0  0
  142.2010   73.0060  220.7520 C   0  0  0  0  0  0  0  0  0  0  0  0
  143.1380   72.0990  220.2840 C   0  0  0  0  0  0  0  0  0  0  0  0
  144.4140   72.4990  219.9050 C   0  0  0  0  0  0  0  0  0  0  0  0
  145.5780   71.3170  219.3150 Cl  0  0  0  0  0  0  0  0  0  0  0  0
  144.7640   73.8400  219.9930 C   0  0  0  0  0  0  0  0  0  0  0  0
  143.8370   74.7600  220.4590 C   0  0  0  0  0  0  0  0  0  0  0  0
  142.5750   74.3440  220.8320 C   0  0  0  0  0  0  0  0  0  0  0  0
  141.6780   75.2350  221.2830 N   0  0  0  0  0  0  0  0  0  0  0  0
  140.5490   77.5770  221.5820 H   0  0  0  0  0  0  0  0  0  0  0  0
  137.7363   78.0037  221.9404 H   0  0  0  0  0  0  0  0  0  0  0  0
  138.4763   77.8599  223.5996 H   0  0  0  0  0  0  0  0  0  0  0  0
  141.4189   79.1892  223.9290 H   0  0  0  0  0  0  0  0  0  0  0  0
  141.9818   78.4401  222.4426 H   0  0  0  0  0  0  0  0  0  0  0  0
  142.8323   80.9614  223.6691 H   0  0  0  0  0  0  0  0  0  0  0  0
  143.5165   80.1781  222.2263 H   0  0  0  0  0  0  0  0  0  0  0  0
  141.4480   82.3391  222.4414 H   0  0  0  0  0  0  0  0  0  0  0  0
  142.5988   82.0769  221.1551 H   0  0  0  0  0  0  0  0  0  0  0  0
  140.0596   81.3011  220.6286 H   0  0  0  0  0  0  0  0  0  0  0  0
  142.6412   81.4536  218.8618 H   0  0  0  0  0  0  0  0  0  0  0  0
  143.3180   79.4610  217.4310 H   0  0  0  0  0  0  0  0  0  0  0  0
  140.2946   76.3252  218.6909 H   0  0  0  0  0  0  0  0  0  0  0  0
  140.5049   74.0376  217.7313 H   0  0  0  0  0  0  0  0  0  0  0  0
  142.6560   73.3269  216.6736 H   0  0  0  0  0  0  0  0  0  0  0  0
  144.5574   74.9263  216.5989 H   0  0  0  0  0  0  0  0  0  0  0  0
  144.3332   77.2090  217.5612 H   0  0  0  0  0  0  0  0  0  0  0  0
  139.0440   73.2707  221.8911 H   0  0  0  0  0  0  0  0  0  0  0  0
  140.6323   71.5335  221.0623 H   0  0  0  0  0  0  0  0  0  0  0  0
  142.8653   71.0359  220.2106 H   0  0  0  0  0  0  0  0  0  0  0  0
  145.7700   74.1702  219.6950 H   0  0  0  0  0  0  0  0  0  0  0  0
  144.1081   75.8236  220.5315 H   0  0  0  0  0  0  0  0  0  0  0  0
  1  2  2  0
  2  3  1  0
  3  4  1  0
  4  5  1  0
  5  6  2  0
  5  7  1  0
  7  8  1  0
  8  9  1  0
  9 10  1  0
 10 11  1  0
 11 12  1  0
 12 13  2  0
 13 14  1  0
 14 15  1  0
 15 16  1  0
 16 17  2  0
 17 18  1  0
 18 19  2  0
 19 20  1  0
 20 21  2  0
 15 22  2  0
  2 23  1  0
 23 24  2  0
 24 25  1  0
 25 26  2  0
 26 27  1  0
 27 28  2  0
 28 29  1  0
 28 30  1  0
 30 31  2  0
 31 32  1  0
 32 33  2  0
 11  7  1  0
 22 12  1  0
 33 23  1  0
 21 16  1  0
 32 26  1  0
  3 34  1  0
  4 35  1  0
  4 36  1  0
  8 37  1  0
  8 38  1  0
  9 39  1  0
  9 40  1  0
 10 41  1  0
 10 42  1  0
 11 43  1  6
 13 44  1  0
 14 45  1  0
 17 46  1  0
 18 47  1  0
 19 48  1  0
 20 49  1  0
 21 50  1  0
 24 51  1  0
 25 52  1  0
 27 53  1  0
 30 54  1  0
 31 55  1  0
M  END
>  <smiles>  (35) 
O=C(NCC(=O)N1CCC[C@H]1c1c[nH]c(-c2ccccc2)n1)c1ccc2cc(Cl)ccc2n1

>  <score_type>  (35) 
oracle

>  <origin>  (35) 
autodockgpu

>  <m_score__min__energy>  (35) 
-9.5700000000000003

>  <m_primary>  (35) 
energy

>  <rmsd>  (35) 
6.609710841742099

>  <m_score__min__rmsd>  (35) 
6.609710841742099

>  <meeko>  (35) 
{"free_energy": -6.71, "intermolecular_energy": -8.5, "internal_energy": -4.05, "cluster_size": 23, "cluster_id": 7, "rank_in_cluster": 22}

>  <energy>  (35) 
-6.81

>  <cluster_rmsd>  (35) 
0.68

>  <cluster>  (35) 
7

$$$$

     RDKit          3D

 55 59  0  0  0  0  0  0  0  0999 V2000
  139.1380   75.9290  223.0930 O   0  0  0  0  0  0  0  0  0  0  0  0
  139.7310   76.0090  221.9800 C   0  0  0  0  0  0  0  0  0  0  0  0
  139.4380   77.1470  221.1750 N   0  0  0  0  0  0  0  0  0  0  0  0
  138.4980   78.1060  221.6930 C   0  0  0  0  0  0  0  0  0  0  0  0
  139.1290   79.1230  222.5540 C   0  0  0  0  0  0  0  0  0  0  0  0
  138.5480   79.6760  223.5320 O   0  0  0  0  0  0  0  0  0  0  0  0
  140.4700   79.4970  222.2610 N   0  0  0  0  0  0  0  0  0  0  0  0
  141.7050   79.0110  222.8840 C   0  0  0  0  0  0  0  0  0  0  0  0
  142.6410   80.1940  222.8040 C   0  0  0  0  0  0  0  0  0  0  0  0
  141.9340   81.2630  222.0360 C   0  0  0  0  0  0  0  0  0  0  0  0
  140.9090   80.4690  221.2520 C   0  0  1  0  0  0  0  0  0  0  0  0
  141.5760   79.7990  220.1050 C   0  0  0  0  0  0  0  0  0  0  0  0
  142.3510   80.3810  219.1160 C   0  0  0  0  0  0  0  0  0  0  0  0
  142.7570   79.3900  218.2710 N   0  0  0  0  0  0  0  0  0  0  0  0
  142.2560   78.2160  218.7100 C   0  0  0  0  0  0  0  0  0  0  0  0
  142.4950   76.9420  218.0380 C   0  0  0  0  0  0  0  0  0  0  0  0
  141.5100   75.9760  218.0830 C   0  0  0  0  0  0  0  0  0  0  0  0
  141.6860   74.7410  217.4580 C   0  0  0  0  0  0  0  0  0  0  0  0
  142.8680   74.4740  216.7800 C   0  0  0  0  0  0  0  0  0  0  0  0
  143.8510   75.4480  216.7390 C   0  0  0  0  0  0  0  0  0  0  0  0
  143.6670   76.6810  217.3670 C   0  0  0  0  0  0  0  0  0  0  0  0
  141.5470   78.4710  219.8120 N   0  0  0  0  0  0  0  0  0  0  0  0
  140.6720   74.9860  221.5370 C   0  0  0  0  0  0  0  0  0  0  0  0
  140.2550   73.6690  221.5460 C   0  0  0  0  0  0  0  0  0  0  0  0
  141.0890   72.6420  221.1400 C   0  0  0  0  0  0  0  0  0  0  0  0
  142.3650   72.9920  220.7240 C   0  0  0  0  0  0  0  0  0  0  0  0
  143.2650   72.0280  220.3000 C   0  0  0  0  0  0  0  0  0  0  0  0
  144.5480   72.3620  219.8800 C   0  0  0  0  0  0  0  0  0  0  0  0
  145.6630   71.1080  219.3490 Cl  0  0  0  0  0  0  0  0  0  0  0  0
  144.9410   73.6940  219.8790 C   0  0  0  0  0  0  0  0  0  0  0  0
  144.0520   74.6700  220.3000 C   0  0  0  0  0  0  0  0  0  0  0  0
  142.7830   74.3200  220.7140 C   0  0  0  0  0  0  0  0  0  0  0  0
  141.9220   75.2660  221.1220 N   0  0  0  0  0  0  0  0  0  0  0  0
  139.9190   77.2280  220.2530 H   0  0  0  0  0  0  0  0  0  0  0  0
  138.0137   78.6148  220.8465 H   0  0  0  0  0  0  0  0  0  0  0  0
  137.7727   77.5558  222.3104 H   0  0  0  0  0  0  0  0  0  0  0  0
  141.5281   78.7218  223.9304 H   0  0  0  0  0  0  0  0  0  0  0  0
  142.1079   78.1164  222.3867 H   0  0  0  0  0  0  0  0  0  0  0  0
  142.8825   80.5530  223.8153 H   0  0  0  0  0  0  0  0  0  0  0  0
  143.5831   79.9149  222.3095 H   0  0  0  0  0  0  0  0  0  0  0  0
  141.4491   81.9843  222.7103 H   0  0  0  0  0  0  0  0  0  0  0  0
  142.6013   81.8678  221.4044 H   0  0  0  0  0  0  0  0  0  0  0  0
  140.0851   81.0561  220.8202 H   0  0  0  0  0  0  0  0  0  0  0  0
  142.5953   81.4499  219.0276 H   0  0  0  0  0  0  0  0  0  0  0  0
  143.3530   79.6010  217.4500 H   0  0  0  0  0  0  0  0  0  0  0  0
  140.5723   76.1829  218.6196 H   0  0  0  0  0  0  0  0  0  0  0  0
  140.8913   73.9817  217.5022 H   0  0  0  0  0  0  0  0  0  0  0  0
  143.0208   73.5044  216.2836 H   0  0  0  0  0  0  0  0  0  0  0  0
  144.7908   75.2473  216.2037 H   0  0  0  0  0  0  0  0  0  0  0  0
  144.4588   77.4434  217.3253 H   0  0  0  0  0  0  0  0  0  0  0  0
  139.2356   73.4310  221.8840 H   0  0  0  0  0  0  0  0  0  0  0  0
  140.7546   71.5941  221.1469 H   0  0  0  0  0  0  0  0  0  0  0  0
  142.9571   70.9720  220.2954 H   0  0  0  0  0  0  0  0  0  0  0  0
  145.9517   73.9725  219.5461 H   0  0  0  0  0  0  0  0  0  0  0  0
  144.3586   75.7264  220.3042 H   0  0  0  0  0  0  0  0  0  0  0  0
  1  2  2  0
  2  3  1  0
  3  4  1  0
  4  5  1  0
  5  6  2  0
  5  7  1  0
  7  8  1  0
  8  9  1  0
  9 10  1  0
 10 11  1  0
 11 12  1  0
 12 13  2  0
 13 14  1  0
 14 15  1  0
 15 16  1  0
 16 17  2  0
 17 18  1  0
 18 19  2  0
 19 20  1  0
 20 21  2  0
 15 22  2  0
  2 23  1  0
 23 24  2  0
 24 25  1  0
 25 26  2  0
 26 27  1  0
 27 28  2  0
 28 29  1  0
 28 30  1  0
 30 31  2  0
 31 32  1  0
 32 33  2  0
 11  7  1  0
 22 12  1  0
 33 23  1  0
 21 16  1  0
 32 26  1  0
  3 34  1  0
  4 35  1  0
  4 36  1  0
  8 37  1  0
  8 38  1  0
  9 39  1  0
  9 40  1  0
 10 41  1  0
 10 42  1  0
 11 43  1  6
 13 44  1  0
 14 45  1  0
 17 46  1  0
 18 47  1  0
 19 48  1  0
 20 49  1  0
 21 50  1  0
 24 51  1  0
 25 52  1  0
 27 53  1  0
 30 54  1  0
 31 55  1  0
M  END
>  <smiles>  (36) 
O=C(NCC(=O)N1CCC[C@H]1c1c[nH]c(-c2ccccc2)n1)c1ccc2cc(Cl)ccc2n1

>  <score_type>  (36) 
oracle

>  <origin>  (36) 
autodockgpu

>  <m_score__min__energy>  (36) 
-9.5700000000000003

>  <m_primary>  (36) 
energy

>  <rmsd>  (36) 
6.622885408300995

>  <m_score__min__rmsd>  (36) 
6.622885408300995

>  <meeko>  (36) 
{"free_energy": -6.9, "intermolecular_energy": -8.69, "internal_energy": -4.1, "cluster_size": 23, "cluster_id": 7, "rank_in_cluster": 13}

>  <energy>  (36) 
-6.77

>  <cluster_rmsd>  (36) 
0.61

>  <cluster>  (36) 
7

$$$$

     RDKit          3D

 55 59  0  0  0  0  0  0  0  0999 V2000
  140.2800   73.9390  221.7580 O   0  0  0  0  0  0  0  0  0  0  0  0
  140.6080   75.1570  221.6860 C   0  0  0  0  0  0  0  0  0  0  0  0
  141.9180   75.4430  221.2040 N   0  0  0  0  0  0  0  0  0  0  0  0
  142.7540   74.3280  220.8420 C   0  0  0  0  0  0  0  0  0  0  0  0
  143.0200   74.2570  219.3940 C   0  0  0  0  0  0  0  0  0  0  0  0
  143.8500   73.4600  218.8690 O   0  0  0  0  0  0  0  0  0  0  0  0
  142.2960   75.1400  218.5440 N   0  0  0  0  0  0  0  0  0  0  0  0
  140.8820   75.0770  218.1630 C   0  0  0  0  0  0  0  0  0  0  0  0
  140.8550   75.6660  216.7720 C   0  0  0  0  0  0  0  0  0  0  0  0
  142.2380   76.1430  216.4700 C   0  0  0  0  0  0  0  0  0  0  0  0
  142.8250   76.3240  217.8550 C   0  0  1  0  0  0  0  0  0  0  0  0
  142.3010   77.5790  218.4520 C   0  0  0  0  0  0  0  0  0  0  0  0
  141.4650   78.5150  217.8650 C   0  0  0  0  0  0  0  0  0  0  0  0
  141.2440   79.5030  218.7780 N   0  0  0  0  0  0  0  0  0  0  0  0
  141.9160   79.2050  219.9100 C   0  0  0  0  0  0  0  0  0  0  0  0
  141.9000   80.0530  221.0990 C   0  0  0  0  0  0  0  0  0  0  0  0
  142.5940   79.6360  222.2160 C   0  0  0  0  0  0  0  0  0  0  0  0
  142.6120   80.4080  223.3790 C   0  0  0  0  0  0  0  0  0  0  0  0
  141.9240   81.6130  223.4170 C   0  0  0  0  0  0  0  0  0  0  0  0
  141.2300   82.0240  222.2920 C   0  0  0  0  0  0  0  0  0  0  0  0
  141.2170   81.2460  221.1320 C   0  0  0  0  0  0  0  0  0  0  0  0
  142.5490   78.0480  219.7050 N   0  0  0  0  0  0  0  0  0  0  0  0
  139.6920   76.2230  222.0760 C   0  0  0  0  0  0  0  0  0  0  0  0
  138.3580   76.0880  221.7430 C   0  0  0  0  0  0  0  0  0  0  0  0
  137.4270   77.0570  222.0790 C   0  0  0  0  0  0  0  0  0  0  0  0
  137.8920   78.1690  222.7640 C   0  0  0  0  0  0  0  0  0  0  0  0
  137.0290   79.1860  223.1390 C   0  0  0  0  0  0  0  0  0  0  0  0
  137.4780   80.3080  223.8260 C   0  0  0  0  0  0  0  0  0  0  0  0
  136.3510   81.5800  224.2860 Cl  0  0  0  0  0  0  0  0  0  0  0  0
  138.8250   80.4180  224.1480 C   0  0  0  0  0  0  0  0  0  0  0  0
  139.7010   79.4090  223.7800 C   0  0  0  0  0  0  0  0  0  0  0  0
  139.2360   78.3020  223.0980 C   0  0  0  0  0  0  0  0  0  0  0  0
  140.0850   77.3250  222.7410 N   0  0  0  0  0  0  0  0  0  0  0  0
  142.2050   76.4440  221.1380 H   0  0  0  0  0  0  0  0  0  0  0  0
  143.7138   74.4226  221.3710 H   0  0  0  0  0  0  0  0  0  0  0  0
  142.2196   73.4091  221.1249 H   0  0  0  0  0  0  0  0  0  0  0  0
  140.5247   74.0367  218.1547 H   0  0  0  0  0  0  0  0  0  0  0  0
  140.2287   75.6158  218.8650 H   0  0  0  0  0  0  0  0  0  0  0  0
  140.5528   74.8993  216.0434 H   0  0  0  0  0  0  0  0  0  0  0  0
  140.1333   76.4940  216.7114 H   0  0  0  0  0  0  0  0  0  0  0  0
  142.8008   75.3943  215.8932 H   0  0  0  0  0  0  0  0  0  0  0  0
  142.2657   77.0556  215.8565 H   0  0  0  0  0  0  0  0  0  0  0  0
  143.9212   76.4045  217.8978 H   0  0  0  0  0  0  0  0  0  0  0  0
  141.0537   78.4692  216.8458 H   0  0  0  0  0  0  0  0  0  0  0  0
  140.6400   80.3140  218.5490 H   0  0  0  0  0  0  0  0  0  0  0  0
  143.1408   78.6819  222.1899 H   0  0  0  0  0  0  0  0  0  0  0  0
  143.1694   80.0626  224.2622 H   0  0  0  0  0  0  0  0  0  0  0  0
  141.9302   82.2315  224.3267 H   0  0  0  0  0  0  0  0  0  0  0  0
  140.6809   82.9769  222.3118 H   0  0  0  0  0  0  0  0  0  0  0  0
  140.6612   81.5872  220.2462 H   0  0  0  0  0  0  0  0  0  0  0  0
  138.0278   75.1909  221.1988 H   0  0  0  0  0  0  0  0  0  0  0  0
  136.3649   76.9489  221.8138 H   0  0  0  0  0  0  0  0  0  0  0  0
  135.9615   79.1035  222.8867 H   0  0  0  0  0  0  0  0  0  0  0  0
  139.1939   81.3003  224.6915 H   0  0  0  0  0  0  0  0  0  0  0  0
  140.7687   79.4902  224.0317 H   0  0  0  0  0  0  0  0  0  0  0  0
  1  2  2  0
  2  3  1  0
  3  4  1  0
  4  5  1  0
  5  6  2  0
  5  7  1  0
  7  8  1  0
  8  9  1  0
  9 10  1  0
 10 11  1  0
 11 12  1  0
 12 13  2  0
 13 14  1  0
 14 15  1  0
 15 16  1  0
 16 17  2  0
 17 18  1  0
 18 19  2  0
 19 20  1  0
 20 21  2  0
 15 22  2  0
  2 23  1  0
 23 24  2  0
 24 25  1  0
 25 26  2  0
 26 27  1  0
 27 28  2  0
 28 29  1  0
 28 30  1  0
 30 31  2  0
 31 32  1  0
 32 33  2  0
 11  7  1  0
 22 12  1  0
 33 23  1  0
 21 16  1  0
 32 26  1  0
  3 34  1  0
  4 35  1  0
  4 36  1  0
  8 37  1  0
  8 38  1  0
  9 39  1  0
  9 40  1  0
 10 41  1  0
 10 42  1  0
 11 43  1  6
 13 44  1  0
 14 45  1  0
 17 46  1  0
 18 47  1  0
 19 48  1  0
 20 49  1  0
 21 50  1  0
 24 51  1  0
 25 52  1  0
 27 53  1  0
 30 54  1  0
 31 55  1  0
M  END
>  <smiles>  (37) 
O=C(NCC(=O)N1CCC[C@H]1c1c[nH]c(-c2ccccc2)n1)c1ccc2cc(Cl)ccc2n1

>  <score_type>  (37) 
oracle

>  <origin>  (37) 
autodockgpu

>  <m_score__min__energy>  (37) 
-9.5700000000000003

>  <m_primary>  (37) 
energy

>  <rmsd>  (37) 
6.066267146099508

>  <m_score__min__rmsd>  (37) 
6.066267146099508

>  <meeko>  (37) 
{"free_energy": -6.81, "intermolecular_energy": -8.6, "internal_energy": -3.67, "cluster_size": 4, "cluster_id": 9, "rank_in_cluster": 2}

>  <energy>  (37) 
-6.76

>  <cluster_rmsd>  (37) 
0.7

>  <cluster>  (37) 
7

$$$$

     RDKit          3D

 55 59  0  0  0  0  0  0  0  0999 V2000
  139.5460   74.4310  222.3820 O   0  0  0  0  0  0  0  0  0  0  0  0
  140.3840   74.9690  221.6040 C   0  0  0  0  0  0  0  0  0  0  0  0
  140.1630   76.3350  221.2660 N   0  0  0  0  0  0  0  0  0  0  0  0
  139.0110   76.9850  221.8340 C   0  0  0  0  0  0  0  0  0  0  0  0
  139.3170   78.3170  222.3860 C   0  0  0  0  0  0  0  0  0  0  0  0
  138.5490   78.9480  223.1680 O   0  0  0  0  0  0  0  0  0  0  0  0
  140.5520   78.9190  222.0140 N   0  0  0  0  0  0  0  0  0  0  0  0
  141.8760   78.7160  222.6080 C   0  0  0  0  0  0  0  0  0  0  0  0
  142.5650   80.0480  222.4220 C   0  0  0  0  0  0  0  0  0  0  0  0
  141.6420   80.9130  221.6280 C   0  0  0  0  0  0  0  0  0  0  0  0
  140.7630   79.8920  220.9350 C   0  0  1  0  0  0  0  0  0  0  0  0
  141.5080   79.2900  219.7990 C   0  0  0  0  0  0  0  0  0  0  0  0
  142.2690   79.9420  218.8430 C   0  0  0  0  0  0  0  0  0  0  0  0
  142.7670   78.9970  217.9950 N   0  0  0  0  0  0  0  0  0  0  0  0
  142.3370   77.7840  218.4000 C   0  0  0  0  0  0  0  0  0  0  0  0
  142.6840   76.5410  217.7150 C   0  0  0  0  0  0  0  0  0  0  0  0
  141.7770   75.5000  217.7370 C   0  0  0  0  0  0  0  0  0  0  0  0
  142.0570   74.2910  217.0990 C   0  0  0  0  0  0  0  0  0  0  0  0
  143.2640   74.1270  216.4320 C   0  0  0  0  0  0  0  0  0  0  0  0
  144.1680   75.1760  216.4160 C   0  0  0  0  0  0  0  0  0  0  0  0
  143.8800   76.3820  217.0560 C   0  0  0  0  0  0  0  0  0  0  0  0
  141.5800   77.9690  219.4840 N   0  0  0  0  0  0  0  0  0  0  0  0
  141.5260   74.2300  221.0770 C   0  0  0  0  0  0  0  0  0  0  0  0
  142.6870   74.9280  220.8100 C   0  0  0  0  0  0  0  0  0  0  0  0
  143.8130   74.2970  220.3100 C   0  0  0  0  0  0  0  0  0  0  0  0
  143.7240   72.9310  220.0860 C   0  0  0  0  0  0  0  0  0  0  0  0
  144.8030   72.2210  219.5860 C   0  0  0  0  0  0  0  0  0  0  0  0
  144.7310   70.8510  219.3560 C   0  0  0  0  0  0  0  0  0  0  0  0
  146.1240   69.9820  218.7200 Cl  0  0  0  0  0  0  0  0  0  0  0  0
  143.5510   70.1730  219.6330 C   0  0  0  0  0  0  0  0  0  0  0  0
  142.4630   70.8710  220.1340 C   0  0  0  0  0  0  0  0  0  0  0  0
  142.5530   72.2300  220.3560 C   0  0  0  0  0  0  0  0  0  0  0  0
  141.4980   72.9050  220.8400 N   0  0  0  0  0  0  0  0  0  0  0  0
  140.8460   76.7940  220.6240 H   0  0  0  0  0  0  0  0  0  0  0  0
  138.2488   77.0973  221.0488 H   0  0  0  0  0  0  0  0  0  0  0  0
  138.6546   76.3579  222.6644 H   0  0  0  0  0  0  0  0  0  0  0  0
  141.7918   78.4645  223.6755 H   0  0  0  0  0  0  0  0  0  0  0  0
  142.4267   77.8847  222.1436 H   0  0  0  0  0  0  0  0  0  0  0  0
  142.7657   80.5088  223.4004 H   0  0  0  0  0  0  0  0  0  0  0  0
  143.5267   79.9221  221.9031 H   0  0  0  0  0  0  0  0  0  0  0  0
  141.0502   81.5704  222.2820 H   0  0  0  0  0  0  0  0  0  0  0  0
  142.1602   81.5922  220.9351 H   0  0  0  0  0  0  0  0  0  0  0  0
  139.8282   80.2847  220.5085 H   0  0  0  0  0  0  0  0  0  0  0  0
  142.4408   81.0266  218.7792 H   0  0  0  0  0  0  0  0  0  0  0  0
  143.3710   79.2640  217.1960 H   0  0  0  0  0  0  0  0  0  0  0  0
  140.8202   75.6256  218.2649 H   0  0  0  0  0  0  0  0  0  0  0  0
  141.3244   73.4709  217.1243 H   0  0  0  0  0  0  0  0  0  0  0  0
  143.4982   73.1794  215.9247 H   0  0  0  0  0  0  0  0  0  0  0  0
  145.1272   75.0567  215.8910 H   0  0  0  0  0  0  0  0  0  0  0  0
  144.6095   77.2050  217.0333 H   0  0  0  0  0  0  0  0  0  0  0  0
  142.7179   76.0112  220.9991 H   0  0  0  0  0  0  0  0  0  0  0  0
  144.7377   74.8543  220.0996 H   0  0  0  0  0  0  0  0  0  0  0  0
  145.7399   72.7536  219.3654 H   0  0  0  0  0  0  0  0  0  0  0  0
  143.4801   69.0896  219.4561 H   0  0  0  0  0  0  0  0  0  0  0  0
  141.5254   70.3400  220.3552 H   0  0  0  0  0  0  0  0  0  0  0  0
  1  2  2  0
  2  3  1  0
  3  4  1  0
  4  5  1  0
  5  6  2  0
  5  7  1  0
  7  8  1  0
  8  9  1  0
  9 10  1  0
 10 11  1  0
 11 12  1  0
 12 13  2  0
 13 14  1  0
 14 15  1  0
 15 16  1  0
 16 17  2  0
 17 18  1  0
 18 19  2  0
 19 20  1  0
 20 21  2  0
 15 22  2  0
  2 23  1  0
 23 24  2  0
 24 25  1  0
 25 26  2  0
 26 27  1  0
 27 28  2  0
 28 29  1  0
 28 30  1  0
 30 31  2  0
 31 32  1  0
 32 33  2  0
 11  7  1  0
 22 12  1  0
 33 23  1  0
 21 16  1  0
 32 26  1  0
  3 34  1  0
  4 35  1  0
  4 36  1  0
  8 37  1  0
  8 38  1  0
  9 39  1  0
  9 40  1  0
 10 41  1  0
 10 42  1  0
 11 43  1  6
 13 44  1  0
 14 45  1  0
 17 46  1  0
 18 47  1  0
 19 48  1  0
 20 49  1  0
 21 50  1  0
 24 51  1  0
 25 52  1  0
 27 53  1  0
 30 54  1  0
 31 55  1  0
M  END
>  <smiles>  (38) 
O=C(NCC(=O)N1CCC[C@H]1c1c[nH]c(-c2ccccc2)n1)c1ccc2cc(Cl)ccc2n1

>  <score_type>  (38) 
oracle

>  <origin>  (38) 
autodockgpu

>  <m_score__min__energy>  (38) 
-9.5700000000000003

>  <m_primary>  (38) 
energy

>  <rmsd>  (38) 
6.8599216858827665

>  <m_score__min__rmsd>  (38) 
6.8599216858827665

>  <meeko>  (38) 
{"free_energy": -6.83, "intermolecular_energy": -8.62, "internal_energy": -3.74, "cluster_size": 23, "cluster_id": 7, "rank_in_cluster": 17}

>  <energy>  (38) 
-6.71

>  <cluster_rmsd>  (38) 
0.63

>  <cluster>  (38) 
7

$$$$

     RDKit          3D

 55 59  0  0  0  0  0  0  0  0999 V2000
  139.3030   78.3360  222.8490 O   0  0  0  0  0  0  0  0  0  0  0  0
  140.1260   77.4620  222.4550 C   0  0  0  0  0  0  0  0  0  0  0  0
  141.4720   77.8870  222.2620 N   0  0  0  0  0  0  0  0  0  0  0  0
  141.7810   79.2680  222.5300 C   0  0  0  0  0  0  0  0  0  0  0  0
  141.2680   80.1830  221.4950 C   0  0  0  0  0  0  0  0  0  0  0  0
  140.6710   81.2690  221.7490 O   0  0  0  0  0  0  0  0  0  0  0  0
  141.4600   79.8150  220.1340 N   0  0  0  0  0  0  0  0  0  0  0  0
  142.2190   80.5250  219.1000 C   0  0  0  0  0  0  0  0  0  0  0  0
  141.4850   80.1960  217.8210 C   0  0  0  0  0  0  0  0  0  0  0  0
  140.4100   79.2200  218.1700 C   0  0  0  0  0  0  0  0  0  0  0  0
  140.9260   78.6230  219.4630 C   0  0  1  0  0  0  0  0  0  0  0  0
  142.0020   77.6430  219.1590 C   0  0  0  0  0  0  0  0  0  0  0  0
  142.8880   77.6590  218.0950 C   0  0  0  0  0  0  0  0  0  0  0  0
  143.6980   76.5690  218.2150 N   0  0  0  0  0  0  0  0  0  0  0  0
  143.3390   75.8830  219.3210 C   0  0  0  0  0  0  0  0  0  0  0  0
  144.0020   74.6550  219.7530 C   0  0  0  0  0  0  0  0  0  0  0  0
  143.4740   73.4440  219.3530 C   0  0  0  0  0  0  0  0  0  0  0  0
  144.0680   72.2410  219.7380 C   0  0  0  0  0  0  0  0  0  0  0  0
  145.2050   72.2570  220.5330 C   0  0  0  0  0  0  0  0  0  0  0  0
  145.7280   73.4760  220.9300 C   0  0  0  0  0  0  0  0  0  0  0  0
  145.1280   74.6750  220.5410 C   0  0  0  0  0  0  0  0  0  0  0  0
  142.3190   76.5350  219.8820 N   0  0  0  0  0  0  0  0  0  0  0  0
  139.7210   76.0830  222.2090 C   0  0  0  0  0  0  0  0  0  0  0  0
  138.3700   75.7980  222.1680 C   0  0  0  0  0  0  0  0  0  0  0  0
  137.9080   74.5140  221.9390 C   0  0  0  0  0  0  0  0  0  0  0  0
  138.8600   73.5230  221.7520 C   0  0  0  0  0  0  0  0  0  0  0  0
  138.4850   72.2110  221.5170 C   0  0  0  0  0  0  0  0  0  0  0  0
  139.4270   71.2060  221.3270 C   0  0  0  0  0  0  0  0  0  0  0  0
  138.9110   69.5480  221.0300 Cl  0  0  0  0  0  0  0  0  0  0  0  0
  140.7790   71.5190  221.3720 C   0  0  0  0  0  0  0  0  0  0  0  0
  141.1700   72.8290  221.6060 C   0  0  0  0  0  0  0  0  0  0  0  0
  140.2210   73.8130  221.7920 C   0  0  0  0  0  0  0  0  0  0  0  0
  140.6000   75.0810  222.0190 N   0  0  0  0  0  0  0  0  0  0  0  0
  142.1650   77.1790  221.9360 H   0  0  0  0  0  0  0  0  0  0  0  0
  141.3350   79.5461  223.4963 H   0  0  0  0  0  0  0  0  0  0  0  0
  142.8767   79.3643  222.5413 H   0  0  0  0  0  0  0  0  0  0  0  0
  142.2146   81.6091  219.2861 H   0  0  0  0  0  0  0  0  0  0  0  0
  143.2775   80.2271  219.0706 H   0  0  0  0  0  0  0  0  0  0  0  0
  141.0424   81.1083  217.3946 H   0  0  0  0  0  0  0  0  0  0  0  0
  142.1716   79.7714  217.0738 H   0  0  0  0  0  0  0  0  0  0  0  0
  139.4455   79.7266  218.3218 H   0  0  0  0  0  0  0  0  0  0  0  0
  140.2196   78.4738  217.3846 H   0  0  0  0  0  0  0  0  0  0  0  0
  140.1817   78.0780  220.0622 H   0  0  0  0  0  0  0  0  0  0  0  0
  142.9306   78.4148  217.2969 H   0  0  0  0  0  0  0  0  0  0  0  0
  144.4430   76.3800  217.5200 H   0  0  0  0  0  0  0  0  0  0  0  0
  142.5729   73.4268  218.7223 H   0  0  0  0  0  0  0  0  0  0  0  0
  143.6360   71.2833  219.4122 H   0  0  0  0  0  0  0  0  0  0  0  0
  145.6833   71.3162  220.8430 H   0  0  0  0  0  0  0  0  0  0  0  0
  146.6289   73.5000  221.5607 H   0  0  0  0  0  0  0  0  0  0  0  0
  145.5561   75.6351  220.8649 H   0  0  0  0  0  0  0  0  0  0  0  0
  137.6446   76.6107  222.3210 H   0  0  0  0  0  0  0  0  0  0  0  0
  136.8318   74.2889  221.9066 H   0  0  0  0  0  0  0  0  0  0  0  0
  137.4153   71.9574  221.4797 H   0  0  0  0  0  0  0  0  0  0  0  0
  141.5346   70.7336  221.2231 H   0  0  0  0  0  0  0  0  0  0  0  0
  142.2394   73.0840  221.6434 H   0  0  0  0  0  0  0  0  0  0  0  0
  1  2  2  0
  2  3  1  0
  3  4  1  0
  4  5  1  0
  5  6  2  0
  5  7  1  0
  7  8  1  0
  8  9  1  0
  9 10  1  0
 10 11  1  0
 11 12  1  0
 12 13  2  0
 13 14  1  0
 14 15  1  0
 15 16  1  0
 16 17  2  0
 17 18  1  0
 18 19  2  0
 19 20  1  0
 20 21  2  0
 15 22  2  0
  2 23  1  0
 23 24  2  0
 24 25  1  0
 25 26  2  0
 26 27  1  0
 27 28  2  0
 28 29  1  0
 28 30  1  0
 30 31  2  0
 31 32  1  0
 32 33  2  0
 11  7  1  0
 22 12  1  0
 33 23  1  0
 21 16  1  0
 32 26  1  0
  3 34  1  0
  4 35  1  0
  4 36  1  0
  8 37  1  0
  8 38  1  0
  9 39  1  0
  9 40  1  0
 10 41  1  0
 10 42  1  0
 11 43  1  1
 13 44  1  0
 14 45  1  0
 17 46  1  0
 18 47  1  0
 19 48  1  0
 20 49  1  0
 21 50  1  0
 24 51  1  0
 25 52  1  0
 27 53  1  0
 30 54  1  0
 31 55  1  0
M  END
>  <smiles>  (39) 
O=C(NCC(=O)N1CCC[C@H]1c1c[nH]c(-c2ccccc2)n1)c1ccc2cc(Cl)ccc2n1

>  <score_type>  (39) 
oracle

>  <origin>  (39) 
autodockgpu

>  <m_score__min__energy>  (39) 
-9.5700000000000003

>  <m_primary>  (39) 
energy

>  <rmsd>  (39) 
6.896398063680566

>  <m_score__min__rmsd>  (39) 
6.896398063680566

>  <meeko>  (39) 
{"free_energy": -7.49, "intermolecular_energy": -9.28, "internal_energy": -3.18, "cluster_size": 6, "cluster_id": 5, "rank_in_cluster": 1}

>  <energy>  (39) 
-6.64

>  <cluster_rmsd>  (39) 
0.63

>  <cluster>  (39) 
7

$$$$

     RDKit          3D

 55 59  0  0  0  0  0  0  0  0999 V2000
  135.4160   77.0720  223.2620 O   0  0  0  0  0  0  0  0  0  0  0  0
  136.1690   78.0620  223.0340 C   0  0  0  0  0  0  0  0  0  0  0  0
  135.7340   79.3270  223.5230 N   0  0  0  0  0  0  0  0  0  0  0  0
  134.4810   79.3740  224.2320 C   0  0  0  0  0  0  0  0  0  0  0  0
  134.5640   80.1310  225.4940 C   0  0  0  0  0  0  0  0  0  0  0  0
  133.8100   79.9250  226.4880 O   0  0  0  0  0  0  0  0  0  0  0  0
  135.5530   81.1490  225.5900 N   0  0  0  0  0  0  0  0  0  0  0  0
  136.5670   81.3340  226.6320 C   0  0  0  0  0  0  0  0  0  0  0  0
  136.7600   82.8320  226.6890 C   0  0  0  0  0  0  0  0  0  0  0  0
  135.9300   83.4230  225.5960 C   0  0  0  0  0  0  0  0  0  0  0  0
  135.7690   82.2540  224.6470 C   0  0  1  0  0  0  0  0  0  0  0  0
  137.0250   82.0700  223.8740 C   0  0  0  0  0  0  0  0  0  0  0  0
  137.4070   82.7160  222.7100 C   0  0  0  0  0  0  0  0  0  0  0  0
  138.6330   82.2350  222.3540 N   0  0  0  0  0  0  0  0  0  0  0  0
  139.0180   81.3150  223.2620 C   0  0  0  0  0  0  0  0  0  0  0  0
  140.2870   80.5960  223.1870 C   0  0  0  0  0  0  0  0  0  0  0  0
  141.3110   81.1410  222.4390 C   0  0  0  0  0  0  0  0  0  0  0  0
  142.5440   80.4960  222.3340 C   0  0  0  0  0  0  0  0  0  0  0  0
  142.7490   79.2880  222.9880 C   0  0  0  0  0  0  0  0  0  0  0  0
  141.7160   78.7490  223.7360 C   0  0  0  0  0  0  0  0  0  0  0  0
  140.4850   79.4000  223.8360 C   0  0  0  0  0  0  0  0  0  0  0  0
  138.0460   81.2210  224.1720 N   0  0  0  0  0  0  0  0  0  0  0  0
  137.4240   77.9180  222.3060 C   0  0  0  0  0  0  0  0  0  0  0  0
  137.7640   78.8980  221.3940 C   0  0  0  0  0  0  0  0  0  0  0  0
  138.9390   78.8330  220.6650 C   0  0  0  0  0  0  0  0  0  0  0  0
  139.7610   77.7390  220.8890 C   0  0  0  0  0  0  0  0  0  0  0  0
  140.9560   77.5950  220.2030 C   0  0  0  0  0  0  0  0  0  0  0  0
  141.7930   76.5050  220.4160 C   0  0  0  0  0  0  0  0  0  0  0  0
  143.3040   76.3560  219.5240 Cl  0  0  0  0  0  0  0  0  0  0  0  0
  141.4280   75.5340  221.3400 C   0  0  0  0  0  0  0  0  0  0  0  0
  140.2360   75.6650  222.0350 C   0  0  0  0  0  0  0  0  0  0  0  0
  139.4180   76.7540  221.8090 C   0  0  0  0  0  0  0  0  0  0  0  0
  138.2630   76.8800  222.4830 N   0  0  0  0  0  0  0  0  0  0  0  0
  136.3430   80.1540  223.3430 H   0  0  0  0  0  0  0  0  0  0  0  0
  133.7296   79.8508  223.5855 H   0  0  0  0  0  0  0  0  0  0  0  0
  134.2060   78.3395  224.4851 H   0  0  0  0  0  0  0  0  0  0  0  0
  136.2101   80.9483  227.5984 H   0  0  0  0  0  0  0  0  0  0  0  0
  137.5006   80.7937  226.4163 H   0  0  0  0  0  0  0  0  0  0  0  0
  136.4299   83.2183  227.6646 H   0  0  0  0  0  0  0  0  0  0  0  0
  137.8204   83.0956  226.5620 H   0  0  0  0  0  0  0  0  0  0  0  0
  134.9560   83.7652  225.9757 H   0  0  0  0  0  0  0  0  0  0  0  0
  136.3822   84.3106  225.1296 H   0  0  0  0  0  0  0  0  0  0  0  0
  134.9674   82.3579  223.9009 H   0  0  0  0  0  0  0  0  0  0  0  0
  136.8268   83.4789  222.1702 H   0  0  0  0  0  0  0  0  0  0  0  0
  139.1150   82.5830  221.5040 H   0  0  0  0  0  0  0  0  0  0  0  0
  141.1530   82.0970  221.9184 H   0  0  0  0  0  0  0  0  0  0  0  0
  143.3512   80.9430  221.7351 H   0  0  0  0  0  0  0  0  0  0  0  0
  143.7156   78.7683  222.9130 H   0  0  0  0  0  0  0  0  0  0  0  0
  141.8675   77.7934  224.2594 H   0  0  0  0  0  0  0  0  0  0  0  0
  139.6745   78.9567  224.4332 H   0  0  0  0  0  0  0  0  0  0  0  0
  137.0851   79.7503  221.2434 H   0  0  0  0  0  0  0  0  0  0  0  0
  139.2087   79.6149  219.9398 H   0  0  0  0  0  0  0  0  0  0  0  0
  141.2501   78.3621  219.4715 H   0  0  0  0  0  0  0  0  0  0  0  0
  142.0807   74.6668  221.5189 H   0  0  0  0  0  0  0  0  0  0  0  0
  139.9411   74.8998  222.7681 H   0  0  0  0  0  0  0  0  0  0  0  0
  1  2  2  0
  2  3  1  0
  3  4  1  0
  4  5  1  0
  5  6  2  0
  5  7  1  0
  7  8  1  0
  8  9  1  0
  9 10  1  0
 10 11  1  0
 11 12  1  0
 12 13  2  0
 13 14  1  0
 14 15  1  0
 15 16  1  0
 16 17  2  0
 17 18  1  0
 18 19  2  0
 19 20  1  0
 20 21  2  0
 15 22  2  0
  2 23  1  0
 23 24  2  0
 24 25  1  0
 25 26  2  0
 26 27  1  0
 27 28  2  0
 28 29  1  0
 28 30  1  0
 30 31  2  0
 31 32  1  0
 32 33  2  0
 11  7  1  0
 22 12  1  0
 33 23  1  0
 21 16  1  0
 32 26  1  0
  3 34  1  0
  4 35  1  0
  4 36  1  0
  8 37  1  0
  8 38  1  0
  9 39  1  0
  9 40  1  0
 10 41  1  0
 10 42  1  0
 11 43  1  6
 13 44  1  0
 14 45  1  0
 17 46  1  0
 18 47  1  0
 19 48  1  0
 20 49  1  0
 21 50  1  0
 24 51  1  0
 25 52  1  0
 27 53  1  0
 30 54  1  0
 31 55  1  0
M  END
>  <smiles>  (40) 
O=C(NCC(=O)N1CCC[C@H]1c1c[nH]c(-c2ccccc2)n1)c1ccc2cc(Cl)ccc2n1

>  <score_type>  (40) 
oracle

>  <origin>  (40) 
autodockgpu

>  <m_score__min__energy>  (40) 
-9.5700000000000003

>  <m_primary>  (40) 
energy

>  <rmsd>  (40) 
8.643033786731687

>  <m_score__min__rmsd>  (40) 
8.643033786731687

>  <meeko>  (40) 
{"free_energy": -6.26, "intermolecular_energy": -8.05, "internal_energy": -3.88, "cluster_size": 1, "cluster_id": 13, "rank_in_cluster": 1}

>  <energy>  (40) 
-7.06

>  <cluster_rmsd>  (40) 
0.0

>  <cluster>  (40) 
8

$$$$

     RDKit          3D

 55 59  0  0  0  0  0  0  0  0999 V2000
  139.6670   73.5300  222.4140 O   0  0  0  0  0  0  0  0  0  0  0  0
  139.1310   72.3890  222.5160 C   0  0  0  0  0  0  0  0  0  0  0  0
  138.1730   72.0380  221.5220 N   0  0  0  0  0  0  0  0  0  0  0  0
  137.8950   73.0050  220.4920 C   0  0  0  0  0  0  0  0  0  0  0  0
  136.9120   74.0210  220.9070 C   0  0  0  0  0  0  0  0  0  0  0  0
  135.7900   73.7450  221.4220 O   0  0  0  0  0  0  0  0  0  0  0  0
  137.2530   75.3890  220.7150 N   0  0  0  0  0  0  0  0  0  0  0  0
  136.6130   76.5740  221.2930 C   0  0  0  0  0  0  0  0  0  0  0  0
  136.7970   77.6380  220.2360 C   0  0  0  0  0  0  0  0  0  0  0  0
  137.6340   77.0400  219.1530 C   0  0  0  0  0  0  0  0  0  0  0  0
  138.3400   75.9130  219.8780 C   0  0  1  0  0  0  0  0  0  0  0  0
  139.4410   76.4710  220.7050 C   0  0  0  0  0  0  0  0  0  0  0  0
  140.5610   75.8100  221.1830 C   0  0  0  0  0  0  0  0  0  0  0  0
  141.3000   76.7100  221.8920 N   0  0  0  0  0  0  0  0  0  0  0  0
  140.6710   77.9040  221.8660 C   0  0  0  0  0  0  0  0  0  0  0  0
  141.1890   79.0980  222.5290 C   0  0  0  0  0  0  0  0  0  0  0  0
  140.2990   80.0850  222.9000 C   0  0  0  0  0  0  0  0  0  0  0  0
  140.7390   81.2460  223.5370 C   0  0  0  0  0  0  0  0  0  0  0  0
  142.0910   81.4160  223.8030 C   0  0  0  0  0  0  0  0  0  0  0  0
  142.9780   80.4210  223.4270 C   0  0  0  0  0  0  0  0  0  0  0  0
  142.5290   79.2620  222.7910 C   0  0  0  0  0  0  0  0  0  0  0  0
  139.5550   77.7510  221.1510 N   0  0  0  0  0  0  0  0  0  0  0  0
  139.4770   71.4730  223.5970 C   0  0  0  0  0  0  0  0  0  0  0  0
  139.2740   70.1220  223.3950 C   0  0  0  0  0  0  0  0  0  0  0  0
  139.5780   69.1900  224.3730 C   0  0  0  0  0  0  0  0  0  0  0  0
  140.0950   69.6730  225.5660 C   0  0  0  0  0  0  0  0  0  0  0  0
  140.4270   68.8100  226.5980 C   0  0  0  0  0  0  0  0  0  0  0  0
  140.9450   69.2770  227.8000 C   0  0  0  0  0  0  0  0  0  0  0  0
  141.3550   68.1500  229.0890 Cl  0  0  0  0  0  0  0  0  0  0  0  0
  141.1400   70.6410  227.9770 C   0  0  0  0  0  0  0  0  0  0  0  0
  140.8130   71.5160  226.9530 C   0  0  0  0  0  0  0  0  0  0  0  0
  140.2990   71.0350  225.7660 C   0  0  0  0  0  0  0  0  0  0  0  0
  139.9820   71.8830  224.7750 N   0  0  0  0  0  0  0  0  0  0  0  0
  137.7210   71.1010  221.5910 H   0  0  0  0  0  0  0  0  0  0  0  0
  138.8335   73.5133  220.2258 H   0  0  0  0  0  0  0  0  0  0  0  0
  137.4659   72.4615  219.6373 H   0  0  0  0  0  0  0  0  0  0  0  0
  135.5450   76.3896  221.4810 H   0  0  0  0  0  0  0  0  0  0  0  0
  137.0464   76.8598  222.2628 H   0  0  0  0  0  0  0  0  0  0  0  0
  135.8199   77.9428  219.8331 H   0  0  0  0  0  0  0  0  0  0  0  0
  137.2820   78.5303  220.6585 H   0  0  0  0  0  0  0  0  0  0  0  0
  137.0098   76.6568  218.3324 H   0  0  0  0  0  0  0  0  0  0  0  0
  138.3199   77.7573  218.6786 H   0  0  0  0  0  0  0  0  0  0  0  0
  138.8037   75.1527  219.2323 H   0  0  0  0  0  0  0  0  0  0  0  0
  140.8090   74.7508  221.0200 H   0  0  0  0  0  0  0  0  0  0  0  0
  142.1910   76.4290  222.3440 H   0  0  0  0  0  0  0  0  0  0  0  0
  139.2270   79.9548  222.6906 H   0  0  0  0  0  0  0  0  0  0  0  0
  140.0173   82.0237  223.8273 H   0  0  0  0  0  0  0  0  0  0  0  0
  142.4519   82.3262  224.3043 H   0  0  0  0  0  0  0  0  0  0  0  0
  144.0514   80.5456  223.6324 H   0  0  0  0  0  0  0  0  0  0  0  0
  143.2465   78.4807  222.4997 H   0  0  0  0  0  0  0  0  0  0  0  0
  138.8613   69.7783  222.4350 H   0  0  0  0  0  0  0  0  0  0  0  0
  139.4166   68.1140  224.2109 H   0  0  0  0  0  0  0  0  0  0  0  0
  140.2769   67.7288  226.4625 H   0  0  0  0  0  0  0  0  0  0  0  0
  141.5509   71.0238  228.9229 H   0  0  0  0  0  0  0  0  0  0  0  0
  140.9637   72.5974  227.0869 H   0  0  0  0  0  0  0  0  0  0  0  0
  1  2  2  0
  2  3  1  0
  3  4  1  0
  4  5  1  0
  5  6  2  0
  5  7  1  0
  7  8  1  0
  8  9  1  0
  9 10  1  0
 10 11  1  0
 11 12  1  0
 12 13  2  0
 13 14  1  0
 14 15  1  0
 15 16  1  0
 16 17  2  0
 17 18  1  0
 18 19  2  0
 19 20  1  0
 20 21  2  0
 15 22  2  0
  2 23  1  0
 23 24  2  0
 24 25  1  0
 25 26  2  0
 26 27  1  0
 27 28  2  0
 28 29  1  0
 28 30  1  0
 30 31  2  0
 31 32  1  0
 32 33  2  0
 11  7  1  0
 22 12  1  0
 33 23  1  0
 21 16  1  0
 32 26  1  0
  3 34  1  0
  4 35  1  0
  4 36  1  0
  8 37  1  0
  8 38  1  0
  9 39  1  0
  9 40  1  0
 10 41  1  0
 10 42  1  0
 11 43  1  6
 13 44  1  0
 14 45  1  0
 17 46  1  0
 18 47  1  0
 19 48  1  0
 20 49  1  0
 21 50  1  0
 24 51  1  0
 25 52  1  0
 27 53  1  0
 30 54  1  0
 31 55  1  0
M  END
>  <smiles>  (41) 
O=C(NCC(=O)N1CCC[C@H]1c1c[nH]c(-c2ccccc2)n1)c1ccc2cc(Cl)ccc2n1

>  <score_type>  (41) 
oracle

>  <origin>  (41) 
autodockgpu

>  <m_score__min__energy>  (41) 
-9.5700000000000003

>  <m_primary>  (41) 
energy

>  <rmsd>  (41) 
2.8474417472787987

>  <m_score__min__rmsd>  (41) 
2.8474417472787987

>  <meeko>  (41) 
{"free_energy": -8.77, "intermolecular_energy": -10.56, "internal_energy": -1.48, "cluster_size": 1, "cluster_id": 3, "rank_in_cluster": 1}

>  <energy>  (41) 
-6.83

>  <cluster_rmsd>  (41) 
0.0

>  <cluster>  (41) 
9

$$$$

     RDKit          3D

 55 59  0  0  0  0  0  0  0  0999 V2000
  141.8420   78.1210  217.1780 O   0  0  0  0  0  0  0  0  0  0  0  0
  142.0340   78.3570  218.4050 C   0  0  0  0  0  0  0  0  0  0  0  0
  142.8860   77.4570  219.1070 N   0  0  0  0  0  0  0  0  0  0  0  0
  143.4540   76.3610  218.3660 C   0  0  0  0  0  0  0  0  0  0  0  0
  142.6260   75.1430  218.4160 C   0  0  0  0  0  0  0  0  0  0  0  0
  142.4520   74.3690  217.4300 O   0  0  0  0  0  0  0  0  0  0  0  0
  141.9900   74.8260  219.6490 N   0  0  0  0  0  0  0  0  0  0  0  0
  142.5810   74.2240  220.8470 C   0  0  0  0  0  0  0  0  0  0  0  0
  141.4450   73.4350  221.4550 C   0  0  0  0  0  0  0  0  0  0  0  0
  140.2270   73.7170  220.6360 C   0  0  0  0  0  0  0  0  0  0  0  0
  140.5770   75.0400  219.9870 C   0  0  1  0  0  0  0  0  0  0  0  0
  140.4150   76.1350  220.9790 C   0  0  0  0  0  0  0  0  0  0  0  0
  139.3510   76.3490  221.8390 C   0  0  0  0  0  0  0  0  0  0  0  0
  139.6280   77.4680  222.5680 N   0  0  0  0  0  0  0  0  0  0  0  0
  140.8290   77.9480  222.1840 C   0  0  0  0  0  0  0  0  0  0  0  0
  141.4370   79.1440  222.7630 C   0  0  0  0  0  0  0  0  0  0  0  0
  140.6150   80.0860  223.3460 C   0  0  0  0  0  0  0  0  0  0  0  0
  141.1430   81.2460  223.9140 C   0  0  0  0  0  0  0  0  0  0  0  0
  142.5150   81.4610  223.8950 C   0  0  0  0  0  0  0  0  0  0  0  0
  143.3320   80.5100  223.3070 C   0  0  0  0  0  0  0  0  0  0  0  0
  142.7960   79.3520  222.7410 C   0  0  0  0  0  0  0  0  0  0  0  0
  141.2950   77.1420  221.2290 N   0  0  0  0  0  0  0  0  0  0  0  0
  141.4140   79.4960  219.0730 C   0  0  0  0  0  0  0  0  0  0  0  0
  142.1390   80.6680  219.1700 C   0  0  0  0  0  0  0  0  0  0  0  0
  141.6190   81.7920  219.7890 C   0  0  0  0  0  0  0  0  0  0  0  0
  140.3380   81.6900  220.3100 C   0  0  0  0  0  0  0  0  0  0  0  0
  139.7410   82.7660  220.9450 C   0  0  0  0  0  0  0  0  0  0  0  0
  138.4570   82.6810  221.4730 C   0  0  0  0  0  0  0  0  0  0  0  0
  137.7320   84.0710  222.2750 Cl  0  0  0  0  0  0  0  0  0  0  0  0
  137.7500   81.4910  221.3620 C   0  0  0  0  0  0  0  0  0  0  0  0
  138.3340   80.4050  220.7280 C   0  0  0  0  0  0  0  0  0  0  0  0
  139.6100   80.5080  220.2110 C   0  0  0  0  0  0  0  0  0  0  0  0
  140.1750   79.4560  219.5970 N   0  0  0  0  0  0  0  0  0  0  0  0
  143.0540   77.6360  220.1200 H   0  0  0  0  0  0  0  0  0  0  0  0
  143.5638   76.6676  217.3153 H   0  0  0  0  0  0  0  0  0  0  0  0
  144.4235   76.1195  218.8262 H   0  0  0  0  0  0  0  0  0  0  0  0
  143.4183   73.5624  220.5802 H   0  0  0  0  0  0  0  0  0  0  0  0
  142.9950   74.9730  221.5381 H   0  0  0  0  0  0  0  0  0  0  0  0
  141.6762   72.3599  221.4297 H   0  0  0  0  0  0  0  0  0  0  0  0
  141.2863   73.7224  222.5049 H   0  0  0  0  0  0  0  0  0  0  0  0
  140.0636   72.9335  219.8814 H   0  0  0  0  0  0  0  0  0  0  0  0
  139.2971   73.7455  221.2230 H   0  0  0  0  0  0  0  0  0  0  0  0
  139.9565   75.3218  219.1235 H   0  0  0  0  0  0  0  0  0  0  0  0
  138.4461   75.7288  221.9197 H   0  0  0  0  0  0  0  0  0  0  0  0
  138.9620   77.8170  223.2820 H   0  0  0  0  0  0  0  0  0  0  0  0
  139.5277   79.9203  223.3634 H   0  0  0  0  0  0  0  0  0  0  0  0
  140.4747   81.9879  224.3754 H   0  0  0  0  0  0  0  0  0  0  0  0
  142.9451   82.3708  224.3392 H   0  0  0  0  0  0  0  0  0  0  0  0
  144.4202   80.6696  223.2856 H   0  0  0  0  0  0  0  0  0  0  0  0
  143.4598   78.6070  222.2781 H   0  0  0  0  0  0  0  0  0  0  0  0
  143.1530   80.7091  218.7456 H   0  0  0  0  0  0  0  0  0  0  0  0
  142.1967   82.7250  219.8642 H   0  0  0  0  0  0  0  0  0  0  0  0
  140.2960   83.7115  221.0341 H   0  0  0  0  0  0  0  0  0  0  0  0
  136.7334   81.4105  221.7743 H   0  0  0  0  0  0  0  0  0  0  0  0
  137.7795   79.4594  220.6367 H   0  0  0  0  0  0  0  0  0  0  0  0
  1  2  2  0
  2  3  1  0
  3  4  1  0
  4  5  1  0
  5  6  2  0
  5  7  1  0
  7  8  1  0
  8  9  1  0
  9 10  1  0
 10 11  1  0
 11 12  1  0
 12 13  2  0
 13 14  1  0
 14 15  1  0
 15 16  1  0
 16 17  2  0
 17 18  1  0
 18 19  2  0
 19 20  1  0
 20 21  2  0
 15 22  2  0
  2 23  1  0
 23 24  2  0
 24 25  1  0
 25 26  2  0
 26 27  1  0
 27 28  2  0
 28 29  1  0
 28 30  1  0
 30 31  2  0
 31 32  1  0
 32 33  2  0
 11  7  1  0
 22 12  1  0
 33 23  1  0
 21 16  1  0
 32 26  1  0
  3 34  1  0
  4 35  1  0
  4 36  1  0
  8 37  1  0
  8 38  1  0
  9 39  1  0
  9 40  1  0
 10 41  1  0
 10 42  1  0
 11 43  1  6
 13 44  1  0
 14 45  1  0
 17 46  1  0
 18 47  1  0
 19 48  1  0
 20 49  1  0
 21 50  1  0
 24 51  1  0
 25 52  1  0
 27 53  1  0
 30 54  1  0
 31 55  1  0
M  END
>  <smiles>  (42) 
O=C(NCC(=O)N1CCC[C@H]1c1c[nH]c(-c2ccccc2)n1)c1ccc2cc(Cl)ccc2n1

>  <score_type>  (42) 
oracle

>  <origin>  (42) 
autodockgpu

>  <m_score__min__energy>  (42) 
-9.5700000000000003

>  <m_primary>  (42) 
energy

>  <rmsd>  (42) 
8.537235862725526

>  <m_score__min__rmsd>  (42) 
8.537235862725526

>  <meeko>  (42) 
{"free_energy": -5.99, "intermolecular_energy": -7.78, "internal_energy": -4.32, "cluster_size": 3, "cluster_id": 10, "rank_in_cluster": 3}

>  <energy>  (42) 
-6.81

>  <cluster_rmsd>  (42) 
1.2

>  <cluster>  (42) 
9

$$$$

     RDKit          3D

 55 59  0  0  0  0  0  0  0  0999 V2000
  138.5240   75.2770  222.6230 O   0  0  0  0  0  0  0  0  0  0  0  0
  139.6110   75.6420  222.0910 C   0  0  0  0  0  0  0  0  0  0  0  0
  139.8450   77.0440  222.0040 N   0  0  0  0  0  0  0  0  0  0  0  0
  138.8320   77.9240  222.5250 C   0  0  0  0  0  0  0  0  0  0  0  0
  139.2930   79.3170  222.6580 C   0  0  0  0  0  0  0  0  0  0  0  0
  138.5590   80.2670  223.0560 O   0  0  0  0  0  0  0  0  0  0  0  0
  140.6450   79.6010  222.3160 N   0  0  0  0  0  0  0  0  0  0  0  0
  141.8670   79.0680  222.9250 C   0  0  0  0  0  0  0  0  0  0  0  0
  142.8670   80.1900  222.7750 C   0  0  0  0  0  0  0  0  0  0  0  0
  142.2010   81.2680  221.9840 C   0  0  0  0  0  0  0  0  0  0  0  0
  141.1120   80.5070  221.2590 C   0  0  1  0  0  0  0  0  0  0  0  0
  141.7060   79.7560  220.1220 C   0  0  0  0  0  0  0  0  0  0  0  0
  142.4500   80.2610  219.0680 C   0  0  0  0  0  0  0  0  0  0  0  0
  142.7900   79.2150  218.2630 N   0  0  0  0  0  0  0  0  0  0  0  0
  142.2790   78.0810  218.7880 C   0  0  0  0  0  0  0  0  0  0  0  0
  142.4520   76.7660  218.1780 C   0  0  0  0  0  0  0  0  0  0  0  0
  141.3940   75.8800  218.2060 C   0  0  0  0  0  0  0  0  0  0  0  0
  141.5060   74.6110  217.6370 C   0  0  0  0  0  0  0  0  0  0  0  0
  142.6970   74.2280  217.0340 C   0  0  0  0  0  0  0  0  0  0  0  0
  143.7530   75.1220  217.0110 C   0  0  0  0  0  0  0  0  0  0  0  0
  143.6330   76.3900  217.5820 C   0  0  0  0  0  0  0  0  0  0  0  0
  141.6290   78.4160  219.9050 N   0  0  0  0  0  0  0  0  0  0  0  0
  140.5820   74.6750  221.5900 C   0  0  0  0  0  0  0  0  0  0  0  0
  140.1860   73.3570  221.4690 C   0  0  0  0  0  0  0  0  0  0  0  0
  141.0510   72.3820  221.0010 C   0  0  0  0  0  0  0  0  0  0  0  0
  142.3320   72.7860  220.6590 C   0  0  0  0  0  0  0  0  0  0  0  0
  143.2610   71.8760  220.1810 C   0  0  0  0  0  0  0  0  0  0  0  0
  144.5500   72.2630  219.8330 C   0  0  0  0  0  0  0  0  0  0  0  0
  145.7030   71.0770  219.2300 Cl  0  0  0  0  0  0  0  0  0  0  0  0
  144.9220   73.5950  219.9640 C   0  0  0  0  0  0  0  0  0  0  0  0
  144.0030   74.5180  220.4400 C   0  0  0  0  0  0  0  0  0  0  0  0
  142.7280   74.1150  220.7810 C   0  0  0  0  0  0  0  0  0  0  0  0
  141.8390   75.0090  221.2420 N   0  0  0  0  0  0  0  0  0  0  0  0
  140.7380   77.3620  221.5680 H   0  0  0  0  0  0  0  0  0  0  0  0
  137.9672   77.9043  221.8455 H   0  0  0  0  0  0  0  0  0  0  0  0
  138.5711   77.5660  223.5319 H   0  0  0  0  0  0  0  0  0  0  0  0
  141.7033   78.8290  223.9862 H   0  0  0  0  0  0  0  0  0  0  0  0
  142.2038   78.1336  222.4523 H   0  0  0  0  0  0  0  0  0  0  0  0
  143.1567   80.5723  223.7649 H   0  0  0  0  0  0  0  0  0  0  0  0
  143.7778   79.8380  222.2685 H   0  0  0  0  0  0  0  0  0  0  0  0
  141.7771   82.0412  222.6416 H   0  0  0  0  0  0  0  0  0  0  0  0
  142.8840   81.8085  221.3121 H   0  0  0  0  0  0  0  0  0  0  0  0
  140.3121   81.1255  220.8257 H   0  0  0  0  0  0  0  0  0  0  0  0
  142.7180   81.3160  218.9094 H   0  0  0  0  0  0  0  0  0  0  0  0
  143.3530   79.3640  217.4060 H   0  0  0  0  0  0  0  0  0  0  0  0
  140.4492   76.1786  218.6837 H   0  0  0  0  0  0  0  0  0  0  0  0
  140.6537   73.9161  217.6659 H   0  0  0  0  0  0  0  0  0  0  0  0
  142.7992   73.2303  216.5821 H   0  0  0  0  0  0  0  0  0  0  0  0
  144.7008   74.8291  216.5358 H   0  0  0  0  0  0  0  0  0  0  0  0
  144.4826   77.0882  217.5553 H   0  0  0  0  0  0  0  0  0  0  0  0
  139.1606   73.0757  221.7507 H   0  0  0  0  0  0  0  0  0  0  0  0
  140.7352   71.3327  220.9049 H   0  0  0  0  0  0  0  0  0  0  0  0
  142.9712   70.8203  220.0741 H   0  0  0  0  0  0  0  0  0  0  0  0
  145.9386   73.9154  219.6920 H   0  0  0  0  0  0  0  0  0  0  0  0
  144.2912   75.5743  220.5460 H   0  0  0  0  0  0  0  0  0  0  0  0
  1  2  2  0
  2  3  1  0
  3  4  1  0
  4  5  1  0
  5  6  2  0
  5  7  1  0
  7  8  1  0
  8  9  1  0
  9 10  1  0
 10 11  1  0
 11 12  1  0
 12 13  2  0
 13 14  1  0
 14 15  1  0
 15 16  1  0
 16 17  2  0
 17 18  1  0
 18 19  2  0
 19 20  1  0
 20 21  2  0
 15 22  2  0
  2 23  1  0
 23 24  2  0
 24 25  1  0
 25 26  2  0
 26 27  1  0
 27 28  2  0
 28 29  1  0
 28 30  1  0
 30 31  2  0
 31 32  1  0
 32 33  2  0
 11  7  1  0
 22 12  1  0
 33 23  1  0
 21 16  1  0
 32 26  1  0
  3 34  1  0
  4 35  1  0
  4 36  1  0
  8 37  1  0
  8 38  1  0
  9 39  1  0
  9 40  1  0
 10 41  1  0
 10 42  1  0
 11 43  1  6
 13 44  1  0
 14 45  1  0
 17 46  1  0
 18 47  1  0
 19 48  1  0
 20 49  1  0
 21 50  1  0
 24 51  1  0
 25 52  1  0
 27 53  1  0
 30 54  1  0
 31 55  1  0
M  END
>  <smiles>  (43) 
O=C(NCC(=O)N1CCC[C@H]1c1c[nH]c(-c2ccccc2)n1)c1ccc2cc(Cl)ccc2n1

>  <score_type>  (43) 
oracle

>  <origin>  (43) 
autodockgpu

>  <m_score__min__energy>  (43) 
-9.5700000000000003

>  <m_primary>  (43) 
energy

>  <rmsd>  (43) 
6.596027839560341

>  <m_score__min__rmsd>  (43) 
6.596027839560341

>  <meeko>  (43) 
{"free_energy": -6.85, "intermolecular_energy": -8.64, "internal_energy": -4.1, "cluster_size": 23, "cluster_id": 7, "rank_in_cluster": 15}

>  <energy>  (43) 
-6.72

>  <cluster_rmsd>  (43) 
0.16

>  <cluster>  (43) 
9

$$$$

     RDKit          3D

 55 59  0  0  0  0  0  0  0  0999 V2000
  139.9900   74.7040  222.0360 O   0  0  0  0  0  0  0  0  0  0  0  0
  140.6180   75.7950  221.9210 C   0  0  0  0  0  0  0  0  0  0  0  0
  141.8300   75.7620  221.1720 N   0  0  0  0  0  0  0  0  0  0  0  0
  142.2350   74.4990  220.6120 C   0  0  0  0  0  0  0  0  0  0  0  0
  141.6850   74.2650  219.2650 C   0  0  0  0  0  0  0  0  0  0  0  0
  140.9260   73.2960  218.9740 O   0  0  0  0  0  0  0  0  0  0  0  0
  142.0340   75.1870  218.2390 N   0  0  0  0  0  0  0  0  0  0  0  0
  141.3380   75.4450  216.9750 C   0  0  0  0  0  0  0  0  0  0  0  0
  142.4460   75.8350  216.0240 C   0  0  0  0  0  0  0  0  0  0  0  0
  143.7080   75.8930  216.8210 C   0  0  0  0  0  0  0  0  0  0  0  0
  143.1900   76.0930  218.2290 C   0  0  1  0  0  0  0  0  0  0  0  0
  142.7710   77.5090  218.4050 C   0  0  0  0  0  0  0  0  0  0  0  0
  142.9720   78.5670  217.5340 C   0  0  0  0  0  0  0  0  0  0  0  0
  142.4230   79.6790  218.1010 N   0  0  0  0  0  0  0  0  0  0  0  0
  141.8910   79.3390  219.2930 C   0  0  0  0  0  0  0  0  0  0  0  0
  141.2190   80.2920  220.1730 C   0  0  0  0  0  0  0  0  0  0  0  0
  141.9720   80.9670  221.1120 C   0  0  0  0  0  0  0  0  0  0  0  0
  141.3800   81.8890  221.9770 C   0  0  0  0  0  0  0  0  0  0  0  0
  140.0160   82.1340  221.8960 C   0  0  0  0  0  0  0  0  0  0  0  0
  139.2690   81.4530  220.9500 C   0  0  0  0  0  0  0  0  0  0  0  0
  139.8680   80.5320  220.0880 C   0  0  0  0  0  0  0  0  0  0  0  0
  142.1050   78.0330  219.4690 N   0  0  0  0  0  0  0  0  0  0  0  0
  140.1290   77.0300  222.5230 C   0  0  0  0  0  0  0  0  0  0  0  0
  141.0520   77.8870  223.0910 C   0  0  0  0  0  0  0  0  0  0  0  0
  140.6650   79.0780  223.6820 C   0  0  0  0  0  0  0  0  0  0  0  0
  139.3100   79.3730  223.6790 C   0  0  0  0  0  0  0  0  0  0  0  0
  138.8360   80.5440  224.2480 C   0  0  0  0  0  0  0  0  0  0  0  0
  137.4810   80.8560  224.2550 C   0  0  0  0  0  0  0  0  0  0  0  0
  136.9170   82.3540  224.9880 Cl  0  0  0  0  0  0  0  0  0  0  0  0
  136.5750   79.9770  223.6760 C   0  0  0  0  0  0  0  0  0  0  0  0
  137.0340   78.8010  223.1020 C   0  0  0  0  0  0  0  0  0  0  0  0
  138.3830   78.5080  223.1060 C   0  0  0  0  0  0  0  0  0  0  0  0
  138.8270   77.3690  222.5500 N   0  0  0  0  0  0  0  0  0  0  0  0
  142.3610   76.6540  221.0670 H   0  0  0  0  0  0  0  0  0  0  0  0
  143.3331   74.4783  220.5510 H   0  0  0  0  0  0  0  0  0  0  0  0
  141.8460   73.7072  221.2690 H   0  0  0  0  0  0  0  0  0  0  0  0
  140.8192   74.5415  216.6222 H   0  0  0  0  0  0  0  0  0  0  0  0
  140.5645   76.2217  217.0671 H   0  0  0  0  0  0  0  0  0  0  0  0
  142.5386   75.0851  215.2246 H   0  0  0  0  0  0  0  0  0  0  0  0
  142.2347   76.8067  215.5537 H   0  0  0  0  0  0  0  0  0  0  0  0
  144.2771   74.9556  216.7351 H   0  0  0  0  0  0  0  0  0  0  0  0
  144.4023   76.6797  216.4907 H   0  0  0  0  0  0  0  0  0  0  0  0
  143.9144   75.8904  219.0317 H   0  0  0  0  0  0  0  0  0  0  0  0
  143.4823   78.5189  216.5607 H   0  0  0  0  0  0  0  0  0  0  0  0
  142.4580   80.5950  217.6170 H   0  0  0  0  0  0  0  0  0  0  0  0
  143.0532   80.7760  221.1798 H   0  0  0  0  0  0  0  0  0  0  0  0
  141.9926   82.4198  222.7206 H   0  0  0  0  0  0  0  0  0  0  0  0
  139.5367   82.8572  222.5722 H   0  0  0  0  0  0  0  0  0  0  0  0
  138.1876   81.6402  220.8763 H   0  0  0  0  0  0  0  0  0  0  0  0
  139.2598   79.9993  219.3421 H   0  0  0  0  0  0  0  0  0  0  0  0
  142.1182   77.6171  223.0733 H   0  0  0  0  0  0  0  0  0  0  0  0
  141.4001   79.7601  224.1340 H   0  0  0  0  0  0  0  0  0  0  0  0
  139.5498   81.2447  224.7058 H   0  0  0  0  0  0  0  0  0  0  0  0
  135.5004   80.2120  223.6727 H   0  0  0  0  0  0  0  0  0  0  0  0
  136.3216   78.1001  222.6425 H   0  0  0  0  0  0  0  0  0  0  0  0
  1  2  2  0
  2  3  1  0
  3  4  1  0
  4  5  1  0
  5  6  2  0
  5  7  1  0
  7  8  1  0
  8  9  1  0
  9 10  1  0
 10 11  1  0
 11 12  1  0
 12 13  2  0
 13 14  1  0
 14 15  1  0
 15 16  1  0
 16 17  2  0
 17 18  1  0
 18 19  2  0
 19 20  1  0
 20 21  2  0
 15 22  2  0
  2 23  1  0
 23 24  2  0
 24 25  1  0
 25 26  2  0
 26 27  1  0
 27 28  2  0
 28 29  1  0
 28 30  1  0
 30 31  2  0
 31 32  1  0
 32 33  2  0
 11  7  1  0
 22 12  1  0
 33 23  1  0
 21 16  1  0
 32 26  1  0
  3 34  1  0
  4 35  1  0
  4 36  1  0
  8 37  1  0
  8 38  1  0
  9 39  1  0
  9 40  1  0
 10 41  1  0
 10 42  1  0
 11 43  1  1
 13 44  1  0
 14 45  1  0
 17 46  1  0
 18 47  1  0
 19 48  1  0
 20 49  1  0
 21 50  1  0
 24 51  1  0
 25 52  1  0
 27 53  1  0
 30 54  1  0
 31 55  1  0
M  END
>  <smiles>  (44) 
O=C(NCC(=O)N1CCC[C@H]1c1c[nH]c(-c2ccccc2)n1)c1ccc2cc(Cl)ccc2n1

>  <score_type>  (44) 
oracle

>  <origin>  (44) 
autodockgpu

>  <m_score__min__energy>  (44) 
-9.5700000000000003

>  <m_primary>  (44) 
energy

>  <rmsd>  (44) 
6.533639955840302

>  <m_score__min__rmsd>  (44) 
6.533639955840302

>  <meeko>  (44) 
{"free_energy": -6.72, "intermolecular_energy": -8.51, "internal_energy": -3.64, "cluster_size": 4, "cluster_id": 9, "rank_in_cluster": 3}

>  <energy>  (44) 
-6.6

>  <cluster_rmsd>  (44) 
1.14

>  <cluster>  (44) 
9

$$$$

     RDKit          3D

 55 59  0  0  0  0  0  0  0  0999 V2000
  138.8930   75.2440  222.7210 O   0  0  0  0  0  0  0  0  0  0  0  0
  139.8810   75.5650  222.0000 C   0  0  0  0  0  0  0  0  0  0  0  0
  140.0120   76.9430  221.6670 N   0  0  0  0  0  0  0  0  0  0  0  0
  139.0160   77.8510  222.1740 C   0  0  0  0  0  0  0  0  0  0  0  0
  139.5970   78.9920  222.9030 C   0  0  0  0  0  0  0  0  0  0  0  0
  139.0610   79.5260  223.9170 O   0  0  0  0  0  0  0  0  0  0  0  0
  140.8330   79.5170  222.4330 N   0  0  0  0  0  0  0  0  0  0  0  0
  142.1810   79.2690  222.9530 C   0  0  0  0  0  0  0  0  0  0  0  0
  142.9210   80.5570  222.6720 C   0  0  0  0  0  0  0  0  0  0  0  0
  141.9920   81.4370  221.9010 C   0  0  0  0  0  0  0  0  0  0  0  0
  141.0240   80.4360  221.3040 C   0  0  1  0  0  0  0  0  0  0  0  0
  141.6660   79.7550  220.1500 C   0  0  0  0  0  0  0  0  0  0  0  0
  142.4120   80.3280  219.1340 C   0  0  0  0  0  0  0  0  0  0  0  0
  142.8040   79.3290  218.2930 N   0  0  0  0  0  0  0  0  0  0  0  0
  142.3230   78.1580  218.7600 C   0  0  0  0  0  0  0  0  0  0  0  0
  142.5540   76.8750  218.1000 C   0  0  0  0  0  0  0  0  0  0  0  0
  143.6930   76.7230  217.3350 C   0  0  0  0  0  0  0  0  0  0  0  0
  143.9630   75.5190  216.6830 C   0  0  0  0  0  0  0  0  0  0  0  0
  143.0770   74.4560  216.8020 C   0  0  0  0  0  0  0  0  0  0  0  0
  141.9380   74.6180  217.5720 C   0  0  0  0  0  0  0  0  0  0  0  0
  141.6740   75.8260  218.2210 C   0  0  0  0  0  0  0  0  0  0  0  0
  141.6400   78.4220  219.8760 N   0  0  0  0  0  0  0  0  0  0  0  0
  140.8430   74.5740  221.5320 C   0  0  0  0  0  0  0  0  0  0  0  0
  140.4350   73.2560  221.4530 C   0  0  0  0  0  0  0  0  0  0  0  0
  141.2900   72.2590  221.0170 C   0  0  0  0  0  0  0  0  0  0  0  0
  142.5760   72.6380  220.6630 C   0  0  0  0  0  0  0  0  0  0  0  0
  143.4960   71.7050  220.2160 C   0  0  0  0  0  0  0  0  0  0  0  0
  144.7890   72.0690  219.8570 C   0  0  0  0  0  0  0  0  0  0  0  0
  145.9310   70.8520  219.2930 Cl  0  0  0  0  0  0  0  0  0  0  0  0
  145.1730   73.4000  219.9450 C   0  0  0  0  0  0  0  0  0  0  0  0
  144.2630   74.3470  220.3900 C   0  0  0  0  0  0  0  0  0  0  0  0
  142.9840   73.9670  220.7430 C   0  0  0  0  0  0  0  0  0  0  0  0
  142.1030   74.8840  221.1740 N   0  0  0  0  0  0  0  0  0  0  0  0
  140.8210   77.2260  221.0720 H   0  0  0  0  0  0  0  0  0  0  0  0
  138.4301   78.2375  221.3271 H   0  0  0  0  0  0  0  0  0  0  0  0
  138.3898   77.2906  222.8838 H   0  0  0  0  0  0  0  0  0  0  0  0
  142.1520   79.0617  224.0329 H   0  0  0  0  0  0  0  0  0  0  0  0
  142.6605   78.3942  222.4896 H   0  0  0  0  0  0  0  0  0  0  0  0
  143.2045   81.0434  223.6170 H   0  0  0  0  0  0  0  0  0  0  0  0
  143.8415   80.3637  222.1016 H   0  0  0  0  0  0  0  0  0  0  0  0
  141.4740   82.1469  222.5627 H   0  0  0  0  0  0  0  0  0  0  0  0
  142.4976   82.0633  221.1513 H   0  0  0  0  0  0  0  0  0  0  0  0
  140.0846   80.8589  220.9183 H   0  0  0  0  0  0  0  0  0  0  0  0
  142.6463   81.3972  219.0249 H   0  0  0  0  0  0  0  0  0  0  0  0
  143.3780   79.5330  217.4540 H   0  0  0  0  0  0  0  0  0  0  0  0
  144.3974   77.5623  217.2380 H   0  0  0  0  0  0  0  0  0  0  0  0
  144.8746   75.4122  216.0768 H   0  0  0  0  0  0  0  0  0  0  0  0
  143.2770   73.5016  216.2930 H   0  0  0  0  0  0  0  0  0  0  0  0
  141.2300   73.7823  217.6742 H   0  0  0  0  0  0  0  0  0  0  0  0
  140.7634   75.9379  218.8279 H   0  0  0  0  0  0  0  0  0  0  0  0
  139.4070   72.9934  221.7434 H   0  0  0  0  0  0  0  0  0  0  0  0
  140.9633   71.2105  220.9539 H   0  0  0  0  0  0  0  0  0  0  0  0
  143.1965   70.6491  220.1430 H   0  0  0  0  0  0  0  0  0  0  0  0
  146.1927   73.7016  219.6635 H   0  0  0  0  0  0  0  0  0  0  0  0
  144.5612   75.4034  220.4618 H   0  0  0  0  0  0  0  0  0  0  0  0
  1  2  2  0
  2  3  1  0
  3  4  1  0
  4  5  1  0
  5  6  2  0
  5  7  1  0
  7  8  1  0
  8  9  1  0
  9 10  1  0
 10 11  1  0
 11 12  1  0
 12 13  2  0
 13 14  1  0
 14 15  1  0
 15 16  1  0
 16 17  2  0
 17 18  1  0
 18 19  2  0
 19 20  1  0
 20 21  2  0
 15 22  2  0
  2 23  1  0
 23 24  2  0
 24 25  1  0
 25 26  2  0
 26 27  1  0
 27 28  2  0
 28 29  1  0
 28 30  1  0
 30 31  2  0
 31 32  1  0
 32 33  2  0
 11  7  1  0
 22 12  1  0
 33 23  1  0
 21 16  1  0
 32 26  1  0
  3 34  1  0
  4 35  1  0
  4 36  1  0
  8 37  1  0
  8 38  1  0
  9 39  1  0
  9 40  1  0
 10 41  1  0
 10 42  1  0
 11 43  1  6
 13 44  1  0
 14 45  1  0
 17 46  1  0
 18 47  1  0
 19 48  1  0
 20 49  1  0
 21 50  1  0
 24 51  1  0
 25 52  1  0
 27 53  1  0
 30 54  1  0
 31 55  1  0
M  END
>  <smiles>  (45) 
O=C(NCC(=O)N1CCC[C@H]1c1c[nH]c(-c2ccccc2)n1)c1ccc2cc(Cl)ccc2n1

>  <score_type>  (45) 
oracle

>  <origin>  (45) 
autodockgpu

>  <m_score__min__energy>  (45) 
-9.5700000000000003

>  <m_primary>  (45) 
energy

>  <rmsd>  (45) 
6.70245888077649

>  <m_score__min__rmsd>  (45) 
6.70245888077649

>  <meeko>  (45) 
{"free_energy": -7.06, "intermolecular_energy": -8.85, "internal_energy": -3.94, "cluster_size": 23, "cluster_id": 7, "rank_in_cluster": 4}

>  <energy>  (45) 
-6.6

>  <cluster_rmsd>  (45) 
0.0

>  <cluster>  (45) 
10

$$$$

     RDKit          3D

 55 59  0  0  0  0  0  0  0  0999 V2000
  137.6380   70.6520  221.3220 O   0  0  0  0  0  0  0  0  0  0  0  0
  138.1320   71.2550  222.3170 C   0  0  0  0  0  0  0  0  0  0  0  0
  138.1410   72.6780  222.2660 N   0  0  0  0  0  0  0  0  0  0  0  0
  137.5920   73.3080  221.0940 C   0  0  0  0  0  0  0  0  0  0  0  0
  138.5290   73.3200  219.9560 C   0  0  0  0  0  0  0  0  0  0  0  0
  138.4330   72.5500  218.9570 O   0  0  0  0  0  0  0  0  0  0  0  0
  139.6000   74.2560  219.9920 N   0  0  0  0  0  0  0  0  0  0  0  0
  140.0420   75.1720  218.9360 C   0  0  0  0  0  0  0  0  0  0  0  0
  141.5300   75.3000  219.1650 C   0  0  0  0  0  0  0  0  0  0  0  0
  141.8480   74.5410  220.4120 C   0  0  0  0  0  0  0  0  0  0  0  0
  140.5090   74.5080  221.1180 C   0  0  1  0  0  0  0  0  0  0  0  0
  140.2460   75.8300  221.7440 C   0  0  0  0  0  0  0  0  0  0  0  0
  139.0560   76.2940  222.2790 C   0  0  0  0  0  0  0  0  0  0  0  0
  139.2760   77.5580  222.7410 N   0  0  0  0  0  0  0  0  0  0  0  0
  140.5640   77.8860  222.5090 C   0  0  0  0  0  0  0  0  0  0  0  0
  141.1430   79.1750  222.8790 C   0  0  0  0  0  0  0  0  0  0  0  0
  140.4490   80.3250  222.5620 C   0  0  0  0  0  0  0  0  0  0  0  0
  140.9560   81.5830  222.8930 C   0  0  0  0  0  0  0  0  0  0  0  0
  142.1750   81.6840  223.5510 C   0  0  0  0  0  0  0  0  0  0  0  0
  142.8640   80.5240  223.8650 C   0  0  0  0  0  0  0  0  0  0  0  0
  142.3500   79.2700  223.5310 C   0  0  0  0  0  0  0  0  0  0  0  0
  141.1400   76.8430  221.9080 N   0  0  0  0  0  0  0  0  0  0  0  0
  138.6660   70.5310  223.4650 C   0  0  0  0  0  0  0  0  0  0  0  0
  138.5170   69.1580  223.4960 C   0  0  0  0  0  0  0  0  0  0  0  0
  138.9980   68.4010  224.5510 C   0  0  0  0  0  0  0  0  0  0  0  0
  139.6360   69.0820  225.5780 C   0  0  0  0  0  0  0  0  0  0  0  0
  140.1470   68.4030  226.6710 C   0  0  0  0  0  0  0  0  0  0  0  0
  140.7900   69.0700  227.7090 C   0  0  0  0  0  0  0  0  0  0  0  0
  141.4270   68.1720  229.0830 Cl  0  0  0  0  0  0  0  0  0  0  0  0
  140.9260   70.4510  227.6520 C   0  0  0  0  0  0  0  0  0  0  0  0
  140.4200   71.1440  226.5640 C   0  0  0  0  0  0  0  0  0  0  0  0
  139.7850   70.4650  225.5430 C   0  0  0  0  0  0  0  0  0  0  0  0
  139.2950   71.1370  224.4900 N   0  0  0  0  0  0  0  0  0  0  0  0
  138.5460   73.1920  223.0790 H   0  0  0  0  0  0  0  0  0  0  0  0
  136.6843   72.7630  220.7954 H   0  0  0  0  0  0  0  0  0  0  0  0
  137.3748   74.3547  221.3534 H   0  0  0  0  0  0  0  0  0  0  0  0
  139.8339   74.7517  217.9410 H   0  0  0  0  0  0  0  0  0  0  0  0
  139.5227   76.1411  218.9704 H   0  0  0  0  0  0  0  0  0  0  0  0
  142.0811   74.8747  218.3132 H   0  0  0  0  0  0  0  0  0  0  0  0
  141.8222   76.3559  219.2634 H   0  0  0  0  0  0  0  0  0  0  0  0
  142.2021   73.5254  220.1812 H   0  0  0  0  0  0  0  0  0  0  0  0
  142.6516   74.9939  221.0113 H   0  0  0  0  0  0  0  0  0  0  0  0
  140.4206   73.7694  221.9283 H   0  0  0  0  0  0  0  0  0  0  0  0
  138.1052   75.7426  222.3233 H   0  0  0  0  0  0  0  0  0  0  0  0
  138.5140   78.1020  223.1870 H   0  0  0  0  0  0  0  0  0  0  0  0
  139.4830   80.2494  222.0413 H   0  0  0  0  0  0  0  0  0  0  0  0
  140.3920   82.4911  222.6336 H   0  0  0  0  0  0  0  0  0  0  0  0
  142.5864   82.6685  223.8183 H   0  0  0  0  0  0  0  0  0  0  0  0
  143.8307   80.5921  224.3854 H   0  0  0  0  0  0  0  0  0  0  0  0
  142.9097   78.3589  223.7890 H   0  0  0  0  0  0  0  0  0  0  0  0
  138.0043   68.6543  222.6632 H   0  0  0  0  0  0  0  0  0  0  0  0
  138.8795   67.3076  224.5739 H   0  0  0  0  0  0  0  0  0  0  0  0
  140.0420   67.3091  226.7200 H   0  0  0  0  0  0  0  0  0  0  0  0
  141.4323   70.9913  228.4655 H   0  0  0  0  0  0  0  0  0  0  0  0
  140.5244   72.2379  226.5135 H   0  0  0  0  0  0  0  0  0  0  0  0
  1  2  2  0
  2  3  1  0
  3  4  1  0
  4  5  1  0
  5  6  2  0
  5  7  1  0
  7  8  1  0
  8  9  1  0
  9 10  1  0
 10 11  1  0
 11 12  1  0
 12 13  2  0
 13 14  1  0
 14 15  1  0
 15 16  1  0
 16 17  2  0
 17 18  1  0
 18 19  2  0
 19 20  1  0
 20 21  2  0
 15 22  2  0
  2 23  1  0
 23 24  2  0
 24 25  1  0
 25 26  2  0
 26 27  1  0
 27 28  2  0
 28 29  1  0
 28 30  1  0
 30 31  2  0
 31 32  1  0
 32 33  2  0
 11  7  1  0
 22 12  1  0
 33 23  1  0
 21 16  1  0
 32 26  1  0
  3 34  1  0
  4 35  1  0
  4 36  1  0
  8 37  1  0
  8 38  1  0
  9 39  1  0
  9 40  1  0
 10 41  1  0
 10 42  1  0
 11 43  1  1
 13 44  1  0
 14 45  1  0
 17 46  1  0
 18 47  1  0
 19 48  1  0
 20 49  1  0
 21 50  1  0
 24 51  1  0
 25 52  1  0
 27 53  1  0
 30 54  1  0
 31 55  1  0
M  END
>  <smiles>  (46) 
O=C(NCC(=O)N1CCC[C@H]1c1c[nH]c(-c2ccccc2)n1)c1ccc2cc(Cl)ccc2n1

>  <score_type>  (46) 
oracle

>  <origin>  (46) 
autodockgpu

>  <m_score__min__energy>  (46) 
-9.5700000000000003

>  <m_primary>  (46) 
energy

>  <rmsd>  (46) 
2.4365891133840245

>  <m_score__min__rmsd>  (46) 
2.4365891133840245

>  <meeko>  (46) 
{"free_energy": -8.74, "intermolecular_energy": -10.53, "internal_energy": -1.74, "cluster_size": 3, "cluster_id": 2, "rank_in_cluster": 2}

>  <energy>  (46) 
-6.58

>  <cluster_rmsd>  (46) 
0.39

>  <cluster>  (46) 
10

$$$$

     RDKit          3D

 55 59  0  0  0  0  0  0  0  0999 V2000
  138.5680   75.2090  222.3380 O   0  0  0  0  0  0  0  0  0  0  0  0
  139.7300   75.5660  221.9920 C   0  0  0  0  0  0  0  0  0  0  0  0
  140.0280   76.9560  222.0820 N   0  0  0  0  0  0  0  0  0  0  0  0
  138.9880   77.8330  222.5550 C   0  0  0  0  0  0  0  0  0  0  0  0
  139.4940   79.1540  222.9660 C   0  0  0  0  0  0  0  0  0  0  0  0
  138.8410   79.9660  223.6840 O   0  0  0  0  0  0  0  0  0  0  0  0
  140.7940   79.5300  222.5270 N   0  0  0  0  0  0  0  0  0  0  0  0
  142.0910   79.1060  223.0620 C   0  0  0  0  0  0  0  0  0  0  0  0
  142.9900   80.2970  222.8210 C   0  0  0  0  0  0  0  0  0  0  0  0
  142.1920   81.3020  222.0570 C   0  0  0  0  0  0  0  0  0  0  0  0
  141.1170   80.4430  221.4230 C   0  0  1  0  0  0  0  0  0  0  0  0
  141.6910   79.7110  220.2630 C   0  0  0  0  0  0  0  0  0  0  0  0
  142.3730   80.2390  219.1790 C   0  0  0  0  0  0  0  0  0  0  0  0
  142.7150   79.2030  218.3620 N   0  0  0  0  0  0  0  0  0  0  0  0
  142.2660   78.0540  218.9070 C   0  0  0  0  0  0  0  0  0  0  0  0
  142.4600   76.7440  218.2920 C   0  0  0  0  0  0  0  0  0  0  0  0
  141.4000   75.8600  218.2720 C   0  0  0  0  0  0  0  0  0  0  0  0
  141.5310   74.5960  217.6960 C   0  0  0  0  0  0  0  0  0  0  0  0
  142.7420   74.2160  217.1330 C   0  0  0  0  0  0  0  0  0  0  0  0
  143.8010   75.1090  217.1580 C   0  0  0  0  0  0  0  0  0  0  0  0
  143.6620   76.3720  217.7360 C   0  0  0  0  0  0  0  0  0  0  0  0
  141.6510   78.3680  220.0500 N   0  0  0  0  0  0  0  0  0  0  0  0
  140.7220   74.6040  221.5250 C   0  0  0  0  0  0  0  0  0  0  0  0
  140.3350   73.2850  221.3890 C   0  0  0  0  0  0  0  0  0  0  0  0
  141.2190   72.3130  220.9500 C   0  0  0  0  0  0  0  0  0  0  0  0
  142.5100   72.7220  220.6530 C   0  0  0  0  0  0  0  0  0  0  0  0
  143.4580   71.8160  220.2070 C   0  0  0  0  0  0  0  0  0  0  0  0
  144.7580   72.2090  219.9050 C   0  0  0  0  0  0  0  0  0  0  0  0
  145.9350   71.0270  219.3410 Cl  0  0  0  0  0  0  0  0  0  0  0  0
  145.1190   73.5420  220.0490 C   0  0  0  0  0  0  0  0  0  0  0  0
  144.1810   74.4610  220.4930 C   0  0  0  0  0  0  0  0  0  0  0  0
  142.8960   74.0520  220.7900 C   0  0  0  0  0  0  0  0  0  0  0  0
  141.9880   74.9430  221.2200 N   0  0  0  0  0  0  0  0  0  0  0  0
  140.9820   77.2690  221.8000 H   0  0  0  0  0  0  0  0  0  0  0  0
  138.2540   77.9740  221.7479 H   0  0  0  0  0  0  0  0  0  0  0  0
  138.5373   77.3622  223.4411 H   0  0  0  0  0  0  0  0  0  0  0  0
  142.0171   78.8824  224.1365 H   0  0  0  0  0  0  0  0  0  0  0  0
  142.4665   78.1878  222.5867 H   0  0  0  0  0  0  0  0  0  0  0  0
  143.3155   80.7244  223.7809 H   0  0  0  0  0  0  0  0  0  0  0  0
  143.8887   80.0019  222.2595 H   0  0  0  0  0  0  0  0  0  0  0  0
  141.7553   82.0572  222.7271 H   0  0  0  0  0  0  0  0  0  0  0  0
  142.7850   81.8754  221.3293 H   0  0  0  0  0  0  0  0  0  0  0  0
  140.2443   80.9882  221.0342 H   0  0  0  0  0  0  0  0  0  0  0  0
  142.5979   81.3022  219.0084 H   0  0  0  0  0  0  0  0  0  0  0  0
  143.2370   79.3700  217.4810 H   0  0  0  0  0  0  0  0  0  0  0  0
  140.4384   76.1563  218.7165 H   0  0  0  0  0  0  0  0  0  0  0  0
  140.6773   73.9024  217.6879 H   0  0  0  0  0  0  0  0  0  0  0  0
  142.8586   73.2228  216.6749 H   0  0  0  0  0  0  0  0  0  0  0  0
  144.7654   74.8185  216.7159 H   0  0  0  0  0  0  0  0  0  0  0  0
  144.5128   77.0691  217.7468 H   0  0  0  0  0  0  0  0  0  0  0  0
  139.3014   73.0000  221.6349 H   0  0  0  0  0  0  0  0  0  0  0  0
  140.9102   71.2628  220.8418 H   0  0  0  0  0  0  0  0  0  0  0  0
  143.1760   70.7594  220.0886 H   0  0  0  0  0  0  0  0  0  0  0  0
  146.1430   73.8667  219.8122 H   0  0  0  0  0  0  0  0  0  0  0  0
  144.4609   75.5184  220.6090 H   0  0  0  0  0  0  0  0  0  0  0  0
  1  2  2  0
  2  3  1  0
  3  4  1  0
  4  5  1  0
  5  6  2  0
  5  7  1  0
  7  8  1  0
  8  9  1  0
  9 10  1  0
 10 11  1  0
 11 12  1  0
 12 13  2  0
 13 14  1  0
 14 15  1  0
 15 16  1  0
 16 17  2  0
 17 18  1  0
 18 19  2  0
 19 20  1  0
 20 21  2  0
 15 22  2  0
  2 23  1  0
 23 24  2  0
 24 25  1  0
 25 26  2  0
 26 27  1  0
 27 28  2  0
 28 29  1  0
 28 30  1  0
 30 31  2  0
 31 32  1  0
 32 33  2  0
 11  7  1  0
 22 12  1  0
 33 23  1  0
 21 16  1  0
 32 26  1  0
  3 34  1  0
  4 35  1  0
  4 36  1  0
  8 37  1  0
  8 38  1  0
  9 39  1  0
  9 40  1  0
 10 41  1  0
 10 42  1  0
 11 43  1  6
 13 44  1  0
 14 45  1  0
 17 46  1  0
 18 47  1  0
 19 48  1  0
 20 49  1  0
 21 50  1  0
 24 51  1  0
 25 52  1  0
 27 53  1  0
 30 54  1  0
 31 55  1  0
M  END
>  <smiles>  (47) 
O=C(NCC(=O)N1CCC[C@H]1c1c[nH]c(-c2ccccc2)n1)c1ccc2cc(Cl)ccc2n1

>  <score_type>  (47) 
oracle

>  <origin>  (47) 
autodockgpu

>  <m_score__min__energy>  (47) 
-9.5700000000000003

>  <m_primary>  (47) 
energy

>  <rmsd>  (47) 
6.6092818423536235

>  <m_score__min__rmsd>  (47) 
6.6092818423536235

>  <meeko>  (47) 
{"free_energy": -7.03, "intermolecular_energy": -8.82, "internal_energy": -4.14, "cluster_size": 23, "cluster_id": 7, "rank_in_cluster": 6}

>  <energy>  (47) 
-5.99

>  <cluster_rmsd>  (47) 
1.25

>  <cluster>  (47) 
10

$$$$

     RDKit          3D

 55 59  0  0  0  0  0  0  0  0999 V2000
  139.1310   75.7990  223.0950 O   0  0  0  0  0  0  0  0  0  0  0  0
  139.7810   75.9640  222.0230 C   0  0  0  0  0  0  0  0  0  0  0  0
  139.5770   77.1930  221.3320 N   0  0  0  0  0  0  0  0  0  0  0  0
  138.6560   78.1380  221.9070 C   0  0  0  0  0  0  0  0  0  0  0  0
  139.3280   79.2080  222.6650 C   0  0  0  0  0  0  0  0  0  0  0  0
  138.7850   79.8510  223.6090 O   0  0  0  0  0  0  0  0  0  0  0  0
  140.6680   79.5290  222.3080 N   0  0  0  0  0  0  0  0  0  0  0  0
  141.9110   79.0200  222.8940 C   0  0  0  0  0  0  0  0  0  0  0  0
  142.8810   80.1690  222.7430 C   0  0  0  0  0  0  0  0  0  0  0  0
  142.1770   81.2390  221.9750 C   0  0  0  0  0  0  0  0  0  0  0  0
  141.0960   80.4590  221.2550 C   0  0  1  0  0  0  0  0  0  0  0  0
  141.6930   79.7370  220.1020 C   0  0  0  0  0  0  0  0  0  0  0  0
  142.4240   80.2700  219.0530 C   0  0  0  0  0  0  0  0  0  0  0  0
  142.7710   79.2420  218.2260 N   0  0  0  0  0  0  0  0  0  0  0  0
  142.2780   78.0940  218.7340 C   0  0  0  0  0  0  0  0  0  0  0  0
  142.4650   76.7910  218.0990 C   0  0  0  0  0  0  0  0  0  0  0  0
  143.6870   76.5060  217.5250 C   0  0  0  0  0  0  0  0  0  0  0  0
  143.9190   75.2770  216.9060 C   0  0  0  0  0  0  0  0  0  0  0  0
  142.9100   74.3250  216.8630 C   0  0  0  0  0  0  0  0  0  0  0  0
  141.6870   74.6200  217.4410 C   0  0  0  0  0  0  0  0  0  0  0  0
  141.4620   75.8510  218.0590 C   0  0  0  0  0  0  0  0  0  0  0  0
  141.6310   78.3990  219.8600 N   0  0  0  0  0  0  0  0  0  0  0  0
  140.6960   74.9480  221.5160 C   0  0  0  0  0  0  0  0  0  0  0  0
  140.2160   73.6640  221.3510 C   0  0  0  0  0  0  0  0  0  0  0  0
  141.0230   72.6450  220.8740 C   0  0  0  0  0  0  0  0  0  0  0  0
  142.3360   72.9700  220.5690 C   0  0  0  0  0  0  0  0  0  0  0  0
  143.2120   72.0120  220.0850 C   0  0  0  0  0  0  0  0  0  0  0  0
  144.5320   72.3210  219.7740 C   0  0  0  0  0  0  0  0  0  0  0  0
  145.6160   71.0760  219.1620 Cl  0  0  0  0  0  0  0  0  0  0  0  0
  144.9880   73.6210  219.9490 C   0  0  0  0  0  0  0  0  0  0  0  0
  144.1230   74.5910  220.4310 C   0  0  0  0  0  0  0  0  0  0  0  0
  142.8170   74.2660  220.7350 C   0  0  0  0  0  0  0  0  0  0  0  0
  141.9790   75.2050  221.2020 N   0  0  0  0  0  0  0  0  0  0  0  0
  140.1050   77.3460  220.4450 H   0  0  0  0  0  0  0  0  0  0  0  0
  138.0721   78.5968  221.0955 H   0  0  0  0  0  0  0  0  0  0  0  0
  138.0163   77.5870  222.6120 H   0  0  0  0  0  0  0  0  0  0  0  0
  141.7681   78.7652  223.9545 H   0  0  0  0  0  0  0  0  0  0  0  0
  142.2643   78.0996  222.4061 H   0  0  0  0  0  0  0  0  0  0  0  0
  143.1757   80.5468  223.7332 H   0  0  0  0  0  0  0  0  0  0  0  0
  143.7926   79.8459  222.2191 H   0  0  0  0  0  0  0  0  0  0  0  0
  141.7433   81.9932  222.6481 H   0  0  0  0  0  0  0  0  0  0  0  0
  142.8366   81.8045  221.3004 H   0  0  0  0  0  0  0  0  0  0  0  0
  140.2745   81.0616  220.8401 H   0  0  0  0  0  0  0  0  0  0  0  0
  142.6787   81.3308  218.9122 H   0  0  0  0  0  0  0  0  0  0  0  0
  143.3270   79.4140  217.3680 H   0  0  0  0  0  0  0  0  0  0  0  0
  144.4893   77.2579  217.5557 H   0  0  0  0  0  0  0  0  0  0  0  0
  144.8986   75.0634  216.4535 H   0  0  0  0  0  0  0  0  0  0  0  0
  143.0792   73.3524  216.3778 H   0  0  0  0  0  0  0  0  0  0  0  0
  140.8803   73.8727  217.4127 H   0  0  0  0  0  0  0  0  0  0  0  0
  140.4842   76.0689  218.5133 H   0  0  0  0  0  0  0  0  0  0  0  0
  139.1681   73.4455  221.6044 H   0  0  0  0  0  0  0  0  0  0  0  0
  140.6393   71.6225  220.7427 H   0  0  0  0  0  0  0  0  0  0  0  0
  142.8547   70.9814  219.9432 H   0  0  0  0  0  0  0  0  0  0  0  0
  146.0294   73.8794  219.7066 H   0  0  0  0  0  0  0  0  0  0  0  0
  144.4787   75.6224  220.5715 H   0  0  0  0  0  0  0  0  0  0  0  0
  1  2  2  0
  2  3  1  0
  3  4  1  0
  4  5  1  0
  5  6  2  0
  5  7  1  0
  7  8  1  0
  8  9  1  0
  9 10  1  0
 10 11  1  0
 11 12  1  0
 12 13  2  0
 13 14  1  0
 14 15  1  0
 15 16  1  0
 16 17  2  0
 17 18  1  0
 18 19  2  0
 19 20  1  0
 20 21  2  0
 15 22  2  0
  2 23  1  0
 23 24  2  0
 24 25  1  0
 25 26  2  0
 26 27  1  0
 27 28  2  0
 28 29  1  0
 28 30  1  0
 30 31  2  0
 31 32  1  0
 32 33  2  0
 11  7  1  0
 22 12  1  0
 33 23  1  0
 21 16  1  0
 32 26  1  0
  3 34  1  0
  4 35  1  0
  4 36  1  0
  8 37  1  0
  8 38  1  0
  9 39  1  0
  9 40  1  0
 10 41  1  0
 10 42  1  0
 11 43  1  6
 13 44  1  0
 14 45  1  0
 17 46  1  0
 18 47  1  0
 19 48  1  0
 20 49  1  0
 21 50  1  0
 24 51  1  0
 25 52  1  0
 27 53  1  0
 30 54  1  0
 31 55  1  0
M  END
>  <smiles>  (48) 
O=C(NCC(=O)N1CCC[C@H]1c1c[nH]c(-c2ccccc2)n1)c1ccc2cc(Cl)ccc2n1

>  <score_type>  (48) 
oracle

>  <origin>  (48) 
autodockgpu

>  <m_score__min__energy>  (48) 
-9.5700000000000003

>  <m_primary>  (48) 
energy

>  <rmsd>  (48) 
6.744281989802634

>  <m_score__min__rmsd>  (48) 
6.744281989802634

>  <meeko>  (48) 
{"free_energy": -6.84, "intermolecular_energy": -8.63, "internal_energy": -4.18, "cluster_size": 23, "cluster_id": 7, "rank_in_cluster": 16}

>  <energy>  (48) 
-6.49

>  <cluster_rmsd>  (48) 
0.0

>  <cluster>  (48) 
11

$$$$

     RDKit          3D

 55 59  0  0  0  0  0  0  0  0999 V2000
  139.6330   74.2630  221.4650 O   0  0  0  0  0  0  0  0  0  0  0  0
  140.0880   75.4230  221.6820 C   0  0  0  0  0  0  0  0  0  0  0  0
  141.4780   75.6230  221.4430 N   0  0  0  0  0  0  0  0  0  0  0  0
  142.2440   74.4960  220.9780 C   0  0  0  0  0  0  0  0  0  0  0  0
  141.9490   74.1400  219.5780 C   0  0  0  0  0  0  0  0  0  0  0  0
  142.0770   72.9730  219.1070 O   0  0  0  0  0  0  0  0  0  0  0  0
  141.4940   75.1750  218.7150 N   0  0  0  0  0  0  0  0  0  0  0  0
  140.1280   75.4370  218.2520 C   0  0  0  0  0  0  0  0  0  0  0  0
  140.3190   76.0380  216.8790 C   0  0  0  0  0  0  0  0  0  0  0  0
  141.7890   76.1970  216.6700 C   0  0  0  0  0  0  0  0  0  0  0  0
  142.3140   76.2210  218.0900 C   0  0  1  0  0  0  0  0  0  0  0  0
  142.0480   77.5530  218.6940 C   0  0  0  0  0  0  0  0  0  0  0  0
  141.5290   78.6770  218.0720 C   0  0  0  0  0  0  0  0  0  0  0  0
  141.4560   79.6690  219.0060 N   0  0  0  0  0  0  0  0  0  0  0  0
  141.9120   79.1910  220.1820 C   0  0  0  0  0  0  0  0  0  0  0  0
  141.9750   79.9900  221.4020 C   0  0  0  0  0  0  0  0  0  0  0  0
  142.5950   79.4530  222.5120 C   0  0  0  0  0  0  0  0  0  0  0  0
  142.6830   80.1740  223.7040 C   0  0  0  0  0  0  0  0  0  0  0  0
  142.1400   81.4490  223.7800 C   0  0  0  0  0  0  0  0  0  0  0  0
  141.5200   81.9800  222.6620 C   0  0  0  0  0  0  0  0  0  0  0  0
  141.4360   81.2530  221.4730 C   0  0  0  0  0  0  0  0  0  0  0  0
  142.2670   77.9190  219.9850 N   0  0  0  0  0  0  0  0  0  0  0  0
  139.2330   76.5060  222.1550 C   0  0  0  0  0  0  0  0  0  0  0  0
  137.8690   76.3810  221.9830 C   0  0  0  0  0  0  0  0  0  0  0  0
  136.9930   77.3670  222.4050 C   0  0  0  0  0  0  0  0  0  0  0  0
  137.5450   78.4870  223.0080 C   0  0  0  0  0  0  0  0  0  0  0  0
  136.7410   79.5200  223.4600 C   0  0  0  0  0  0  0  0  0  0  0  0
  137.2790   80.6510  224.0660 C   0  0  0  0  0  0  0  0  0  0  0  0
  136.2250   81.9440  224.6280 Cl  0  0  0  0  0  0  0  0  0  0  0  0
  138.6550   80.7510  224.2270 C   0  0  0  0  0  0  0  0  0  0  0  0
  139.4720   79.7240  223.7800 C   0  0  0  0  0  0  0  0  0  0  0  0
  138.9210   78.6100  223.1800 C   0  0  0  0  0  0  0  0  0  0  0  0
  139.7130   77.6160  222.7470 N   0  0  0  0  0  0  0  0  0  0  0  0
  141.8700   76.5730  221.6180 H   0  0  0  0  0  0  0  0  0  0  0  0
  143.3133   74.7405  221.0601 H   0  0  0  0  0  0  0  0  0  0  0  0
  141.9725   73.6321  221.6025 H   0  0  0  0  0  0  0  0  0  0  0  0
  139.5487   74.5037  218.1936 H   0  0  0  0  0  0  0  0  0  0  0  0
  139.5694   76.0983  218.9307 H   0  0  0  0  0  0  0  0  0  0  0  0
  139.8990   75.3697  216.1128 H   0  0  0  0  0  0  0  0  0  0  0  0
  139.8053   77.0076  216.8011 H   0  0  0  0  0  0  0  0  0  0  0  0
  142.2054   75.3498  216.1053 H   0  0  0  0  0  0  0  0  0  0  0  0
  142.0576   77.0891  216.0851 H   0  0  0  0  0  0  0  0  0  0  0  0
  143.3960   76.0533  218.1958 H   0  0  0  0  0  0  0  0  0  0  0  0
  141.2300   78.7555  217.0163 H   0  0  0  0  0  0  0  0  0  0  0  0
  141.0920   80.6080  218.7570 H   0  0  0  0  0  0  0  0  0  0  0  0
  143.0259   78.4424  222.4565 H   0  0  0  0  0  0  0  0  0  0  0  0
  143.1810   79.7331  224.5801 H   0  0  0  0  0  0  0  0  0  0  0  0
  142.2013   82.0280  224.7133 H   0  0  0  0  0  0  0  0  0  0  0  0
  141.0870   82.9900  222.7111 H   0  0  0  0  0  0  0  0  0  0  0  0
  140.9393   81.6900  220.5942 H   0  0  0  0  0  0  0  0  0  0  0  0
  137.4688   75.4775  221.4997 H   0  0  0  0  0  0  0  0  0  0  0  0
  135.9063   77.2661  222.2678 H   0  0  0  0  0  0  0  0  0  0  0  0
  135.6505   79.4445  223.3370 H   0  0  0  0  0  0  0  0  0  0  0  0
  139.0935   81.6389  224.7059 H   0  0  0  0  0  0  0  0  0  0  0  0
  140.5625   79.7973  223.9039 H   0  0  0  0  0  0  0  0  0  0  0  0
  1  2  2  0
  2  3  1  0
  3  4  1  0
  4  5  1  0
  5  6  2  0
  5  7  1  0
  7  8  1  0
  8  9  1  0
  9 10  1  0
 10 11  1  0
 11 12  1  0
 12 13  2  0
 13 14  1  0
 14 15  1  0
 15 16  1  0
 16 17  2  0
 17 18  1  0
 18 19  2  0
 19 20  1  0
 20 21  2  0
 15 22  2  0
  2 23  1  0
 23 24  2  0
 24 25  1  0
 25 26  2  0
 26 27  1  0
 27 28  2  0
 28 29  1  0
 28 30  1  0
 30 31  2  0
 31 32  1  0
 32 33  2  0
 11  7  1  0
 22 12  1  0
 33 23  1  0
 21 16  1  0
 32 26  1  0
  3 34  1  0
  4 35  1  0
  4 36  1  0
  8 37  1  0
  8 38  1  0
  9 39  1  0
  9 40  1  0
 10 41  1  0
 10 42  1  0
 11 43  1  6
 13 44  1  0
 14 45  1  0
 17 46  1  0
 18 47  1  0
 19 48  1  0
 20 49  1  0
 21 50  1  0
 24 51  1  0
 25 52  1  0
 27 53  1  0
 30 54  1  0
 31 55  1  0
M  END
>  <smiles>  (49) 
O=C(NCC(=O)N1CCC[C@H]1c1c[nH]c(-c2ccccc2)n1)c1ccc2cc(Cl)ccc2n1

>  <score_type>  (49) 
oracle

>  <origin>  (49) 
autodockgpu

>  <m_score__min__energy>  (49) 
-9.5700000000000003

>  <m_primary>  (49) 
energy

>  <rmsd>  (49) 
6.143301091224324

>  <m_score__min__rmsd>  (49) 
6.143301091224324

>  <meeko>  (49) 
{"free_energy": -6.6, "intermolecular_energy": -8.39, "internal_energy": -3.78, "cluster_size": 4, "cluster_id": 9, "rank_in_cluster": 4}

>  <energy>  (49) 
-6.46

>  <cluster_rmsd>  (49) 
0.0

>  <cluster>  (49) 
12

$$$$

     RDKit          3D

 55 59  0  0  0  0  0  0  0  0999 V2000
  138.6690   71.9360  220.8750 O   0  0  0  0  0  0  0  0  0  0  0  0
  138.9960   72.3720  222.0150 C   0  0  0  0  0  0  0  0  0  0  0  0
  139.0590   73.7870  222.1680 N   0  0  0  0  0  0  0  0  0  0  0  0
  138.7480   74.5970  221.0190 C   0  0  0  0  0  0  0  0  0  0  0  0
  138.6780   76.0350  221.3320 C   0  0  0  0  0  0  0  0  0  0  0  0
  137.5950   76.6700  221.4860 O   0  0  0  0  0  0  0  0  0  0  0  0
  139.9050   76.7430  221.4680 N   0  0  0  0  0  0  0  0  0  0  0  0
  140.7790   76.8270  222.6420 C   0  0  0  0  0  0  0  0  0  0  0  0
  141.4040   78.1990  222.5310 C   0  0  0  0  0  0  0  0  0  0  0  0
  140.9430   78.7880  221.2380 C   0  0  0  0  0  0  0  0  0  0  0  0
  140.5680   77.5560  220.4400 C   0  0  1  0  0  0  0  0  0  0  0  0
  141.8020   76.8970  219.9390 C   0  0  0  0  0  0  0  0  0  0  0  0
  142.6600   77.3460  218.9480 C   0  0  0  0  0  0  0  0  0  0  0  0
  143.6570   76.4250  218.8180 N   0  0  0  0  0  0  0  0  0  0  0  0
  143.4400   75.4240  219.6960 C   0  0  0  0  0  0  0  0  0  0  0  0
  144.3210   74.2660  219.8260 C   0  0  0  0  0  0  0  0  0  0  0  0
  144.2200   73.2530  218.8940 C   0  0  0  0  0  0  0  0  0  0  0  0
  145.0370   72.1240  218.9700 C   0  0  0  0  0  0  0  0  0  0  0  0
  145.9650   72.0130  219.9970 C   0  0  0  0  0  0  0  0  0  0  0  0
  146.0590   73.0330  220.9280 C   0  0  0  0  0  0  0  0  0  0  0  0
  145.2380   74.1590  220.8450 C   0  0  0  0  0  0  0  0  0  0  0  0
  142.3230   75.7150  220.3660 N   0  0  0  0  0  0  0  0  0  0  0  0
  139.2930   71.4730  223.1250 C   0  0  0  0  0  0  0  0  0  0  0  0
  138.9590   70.1400  222.9900 C   0  0  0  0  0  0  0  0  0  0  0  0
  139.2100   69.2250  223.9980 C   0  0  0  0  0  0  0  0  0  0  0  0
  139.8120   69.7060  225.1510 C   0  0  0  0  0  0  0  0  0  0  0  0
  140.1000   68.8590  226.2090 C   0  0  0  0  0  0  0  0  0  0  0  0
  140.7030   69.3250  227.3730 C   0  0  0  0  0  0  0  0  0  0  0  0
  141.0530   68.2180  228.6970 Cl  0  0  0  0  0  0  0  0  0  0  0  0
  141.0300   70.6700  227.4820 C   0  0  0  0  0  0  0  0  0  0  0  0
  140.7490   71.5290  226.4310 C   0  0  0  0  0  0  0  0  0  0  0  0
  140.1490   71.0500  225.2840 C   0  0  0  0  0  0  0  0  0  0  0  0
  139.8770   71.8820  224.2670 N   0  0  0  0  0  0  0  0  0  0  0  0
  139.3280   74.1650  223.1020 H   0  0  0  0  0  0  0  0  0  0  0  0
  139.5273   74.4411  220.2585 H   0  0  0  0  0  0  0  0  0  0  0  0
  137.7555   74.2895  220.6578 H   0  0  0  0  0  0  0  0  0  0  0  0
  140.1969   76.7359  223.5709 H   0  0  0  0  0  0  0  0  0  0  0  0
  141.5268   76.0209  222.6733 H   0  0  0  0  0  0  0  0  0  0  0  0
  141.0789   78.8308  223.3707 H   0  0  0  0  0  0  0  0  0  0  0  0
  142.5016   78.1331  222.5621 H   0  0  0  0  0  0  0  0  0  0  0  0
  140.0744   79.4462  221.3869 H   0  0  0  0  0  0  0  0  0  0  0  0
  141.6980   79.4192  220.7465 H   0  0  0  0  0  0  0  0  0  0  0  0
  139.9434   77.7392  219.5533 H   0  0  0  0  0  0  0  0  0  0  0  0
  142.5558   78.2766  218.3709 H   0  0  0  0  0  0  0  0  0  0  0  0
  144.4190   76.5590  218.1260 H   0  0  0  0  0  0  0  0  0  0  0  0
  143.4852   73.3367  218.0797 H   0  0  0  0  0  0  0  0  0  0  0  0
  144.9461   71.3252  218.2192 H   0  0  0  0  0  0  0  0  0  0  0  0
  146.6150   71.1286  220.0695 H   0  0  0  0  0  0  0  0  0  0  0  0
  146.7913   72.9552  221.7451 H   0  0  0  0  0  0  0  0  0  0  0  0
  145.3246   74.9599  221.5941 H   0  0  0  0  0  0  0  0  0  0  0  0
  138.4824   69.7972  222.0598 H   0  0  0  0  0  0  0  0  0  0  0  0
  138.9437   68.1633  223.8892 H   0  0  0  0  0  0  0  0  0  0  0  0
  139.8457   67.7920  226.1266 H   0  0  0  0  0  0  0  0  0  0  0  0
  141.5087   71.0513  228.3960 H   0  0  0  0  0  0  0  0  0  0  0  0
  141.0050   72.5958  226.5113 H   0  0  0  0  0  0  0  0  0  0  0  0
  1  2  2  0
  2  3  1  0
  3  4  1  0
  4  5  1  0
  5  6  2  0
  5  7  1  0
  7  8  1  0
  8  9  1  0
  9 10  1  0
 10 11  1  0
 11 12  1  0
 12 13  2  0
 13 14  1  0
 14 15  1  0
 15 16  1  0
 16 17  2  0
 17 18  1  0
 18 19  2  0
 19 20  1  0
 20 21  2  0
 15 22  2  0
  2 23  1  0
 23 24  2  0
 24 25  1  0
 25 26  2  0
 26 27  1  0
 27 28  2  0
 28 29  1  0
 28 30  1  0
 30 31  2  0
 31 32  1  0
 32 33  2  0
 11  7  1  0
 22 12  1  0
 33 23  1  0
 21 16  1  0
 32 26  1  0
  3 34  1  0
  4 35  1  0
  4 36  1  0
  8 37  1  0
  8 38  1  0
  9 39  1  0
  9 40  1  0
 10 41  1  0
 10 42  1  0
 11 43  1  6
 13 44  1  0
 14 45  1  0
 17 46  1  0
 18 47  1  0
 19 48  1  0
 20 49  1  0
 21 50  1  0
 24 51  1  0
 25 52  1  0
 27 53  1  0
 30 54  1  0
 31 55  1  0
M  END
>  <smiles>  (50) 
O=C(NCC(=O)N1CCC[C@H]1c1c[nH]c(-c2ccccc2)n1)c1ccc2cc(Cl)ccc2n1

>  <score_type>  (50) 
oracle

>  <origin>  (50) 
autodockgpu

>  <m_score__min__energy>  (50) 
-9.5700000000000003

>  <m_primary>  (50) 
energy

>  <rmsd>  (50) 
5.3458785107716675

>  <m_score__min__rmsd>  (50) 
5.3458785107716675

>  <meeko>  (50) 
{"free_energy": -9.57, "intermolecular_energy": -11.36, "internal_energy": -1.69, "cluster_size": 2, "cluster_id": 1, "rank_in_cluster": 1}

>  <energy>  (50) 
-6.26

>  <cluster_rmsd>  (50) 
0.0

>  <cluster>  (50) 
13

$$$$
