
     RDKit          3D

 54 57  0  0  0  0  0  0  0  0999 V2000
  140.9870   71.9730  221.1600 O   0  0  0  0  0  0  0  0  0  0  0  0
  140.4320   72.4120  222.2220 C   0  0  0  0  0  0  0  0  0  0  0  0
  139.9590   73.7740  222.2880 N   0  0  0  0  0  0  0  0  0  0  0  0
  140.1260   74.6460  221.1180 C   0  0  0  0  0  0  0  0  0  0  0  0
  140.3670   76.0310  221.5160 C   0  0  0  0  0  0  0  0  0  0  0  0
  139.9210   76.4090  222.6410 O   0  0  0  0  0  0  0  0  0  0  0  0
  141.0610   77.0040  220.7570 N   0  0  0  0  0  0  0  0  0  0  0  0
  142.3130   76.6310  220.1470 C   0  0  0  0  0  0  0  0  0  0  0  0
  142.3100   76.8860  218.6520 C   0  0  0  0  0  0  0  0  0  0  0  0
  142.0500   78.3440  218.4750 C   0  0  0  0  0  0  0  0  0  0  0  0
  140.8140   78.8520  219.1630 C   0  0  0  0  0  0  0  0  0  0  0  0
  140.5910   78.3570  220.5460 C   0  0  2  0  0  0  0  0  0  0  0  0
  140.9690   79.2780  221.6540 C   0  0  0  0  0  0  0  0  0  0  0  0
  141.7830   78.6480  222.7580 C   0  0  0  0  0  0  0  0  0  0  0  0
  142.2190   79.8720  223.5670 C   0  0  0  0  0  0  0  0  0  0  0  0
  142.2040   81.0410  222.6330 C   0  0  0  0  0  0  0  0  0  0  0  0
  141.7660   80.4780  221.2700 C   0  0  0  0  0  0  0  0  0  0  0  0
  140.2620   71.5520  223.3920 C   0  0  0  0  0  0  0  0  0  0  0  0
  139.6340   70.3370  223.2350 C   0  0  0  0  0  0  0  0  0  0  0  0
  139.4260   69.4550  224.2730 C   0  0  0  0  0  0  0  0  0  0  0  0
  139.8760   69.8310  225.5180 C   0  0  0  0  0  0  0  0  0  0  0  0
  139.7190   69.0250  226.6250 C   0  0  0  0  0  0  0  0  0  0  0  0
  140.1570   69.3720  227.8770 C   0  0  0  0  0  0  0  0  0  0  0  0
  139.9630   68.5140  228.9300 F   0  0  0  0  0  0  0  0  0  0  0  0
  140.7860   70.5920  228.0340 C   0  0  0  0  0  0  0  0  0  0  0  0
  140.9460   71.4070  226.9210 C   0  0  0  0  0  0  0  0  0  0  0  0
  140.5110   71.0620  225.6740 C   0  0  0  0  0  0  0  0  0  0  0  0
  140.6950   71.8980  224.6220 N   0  0  0  0  0  0  0  0  0  0  0  0
  139.5080   74.1100  223.1690 H   0  0  0  0  0  0  0  0  0  0  0  0
  140.9815   74.2898  220.5253 H   0  0  0  0  0  0  0  0  0  0  0  0
  139.1998   74.6120  220.5256 H   0  0  0  0  0  0  0  0  0  0  0  0
  143.1217   77.2182  220.6066 H   0  0  0  0  0  0  0  0  0  0  0  0
  142.4646   75.5537  220.3095 H   0  0  0  0  0  0  0  0  0  0  0  0
  143.2846   76.6178  218.2182 H   0  0  0  0  0  0  0  0  0  0  0  0
  141.5448   76.2797  218.1452 H   0  0  0  0  0  0  0  0  0  0  0  0
  142.9143   78.8964  218.8723 H   0  0  0  0  0  0  0  0  0  0  0  0
  141.8918   78.5018  217.3979 H   0  0  0  0  0  0  0  0  0  0  0  0
  140.8781   79.9494  219.2041 H   0  0  0  0  0  0  0  0  0  0  0  0
  139.9673   78.4736  218.5714 H   0  0  0  0  0  0  0  0  0  0  0  0
  139.4931   78.3315  220.6082 H   0  0  0  0  0  0  0  0  0  0  0  0
  139.9596   79.5620  221.9863 H   0  0  0  0  0  0  0  0  0  0  0  0
  141.1719   77.9641  223.3653 H   0  0  0  0  0  0  0  0  0  0  0  0
  142.6203   78.0327  222.3970 H   0  0  0  0  0  0  0  0  0  0  0  0
  141.5199   80.0438  224.3987 H   0  0  0  0  0  0  0  0  0  0  0  0
  143.2216   79.7236  223.9944 H   0  0  0  0  0  0  0  0  0  0  0  0
  141.4897   81.8014  222.9815 H   0  0  0  0  0  0  0  0  0  0  0  0
  143.1891   81.5270  222.5744 H   0  0  0  0  0  0  0  0  0  0  0  0
  141.1498   81.2044  220.7199 H   0  0  0  0  0  0  0  0  0  0  0  0
  142.6082   80.2477  220.6010 H   0  0  0  0  0  0  0  0  0  0  0  0
  139.2810   70.0565  222.2317 H   0  0  0  0  0  0  0  0  0  0  0  0
  138.9214   68.4907  224.1132 H   0  0  0  0  0  0  0  0  0  0  0  0
  139.2170   68.0545  226.4976 H   0  0  0  0  0  0  0  0  0  0  0  0
  141.1527   70.9114  229.0207 H   0  0  0  0  0  0  0  0  0  0  0  0
  141.4475   72.3774  227.0506 H   0  0  0  0  0  0  0  0  0  0  0  0
  1  2  2  0
  2  3  1  0
  3  4  1  0
  4  5  1  0
  5  6  2  0
  5  7  1  0
  7  8  1  0
  8  9  1  0
  9 10  1  0
 10 11  1  0
 11 12  1  0
 12 13  1  0
 13 14  1  0
 14 15  1  0
 15 16  1  0
 16 17  1  0
  2 18  1  0
 18 19  2  0
 19 20  1  0
 20 21  2  0
 21 22  1  0
 22 23  2  0
 23 24  1  0
 23 25  1  0
 25 26  2  0
 26 27  1  0
 27 28  2  0
 12  7  1  0
 17 13  1  0
 28 18  1  0
 27 21  1  0
  3 29  1  0
  4 30  1  0
  4 31  1  0
  8 32  1  0
  8 33  1  0
  9 34  1  0
  9 35  1  0
 10 36  1  0
 10 37  1  0
 11 38  1  0
 11 39  1  0
 12 40  1  6
 13 41  1  0
 14 42  1  0
 14 43  1  0
 15 44  1  0
 15 45  1  0
 16 46  1  0
 16 47  1  0
 17 48  1  0
 17 49  1  0
 19 50  1  0
 20 51  1  0
 22 52  1  0
 25 53  1  0
 26 54  1  0
M  END
>  <smiles>  (1) 
O=C(NCC(=O)N1CCCCC1C1CCCC1)c1ccc2cc(F)ccc2n1

>  <score_type>  (1) 
oracle

>  <origin>  (1) 
autodockgpu

>  <m_score__min__energy>  (1) 
-9.0999999999999996

>  <m_primary>  (1) 
energy

>  <rmsd>  (1) 
2.1900535771129657

>  <m_score__min__rmsd>  (1) 
2.1900535771129657

>  <meeko>  (1) 
{"free_energy": -8.56, "intermolecular_energy": -10.05, "internal_energy": -1.65, "cluster_size": 42, "cluster_id": 1, "rank_in_cluster": 23}

>  <energy>  (1) 
-9.1

>  <cluster_rmsd>  (1) 
0.0

>  <cluster>  (1) 
1

$$$$

     RDKit          3D

 54 57  0  0  0  0  0  0  0  0999 V2000
  138.8800   72.1740  221.4060 O   0  0  0  0  0  0  0  0  0  0  0  0
  139.7520   72.3480  222.3220 C   0  0  0  0  0  0  0  0  0  0  0  0
  140.7450   73.3870  222.1950 N   0  0  0  0  0  0  0  0  0  0  0  0
  140.7380   74.2390  220.9980 C   0  0  0  0  0  0  0  0  0  0  0  0
  140.6380   75.6540  221.3530 C   0  0  0  0  0  0  0  0  0  0  0  0
  139.9640   75.9590  222.3820 O   0  0  0  0  0  0  0  0  0  0  0  0
  141.2320   76.7290  220.6490 N   0  0  0  0  0  0  0  0  0  0  0  0
  142.5500   76.5410  220.0970 C   0  0  0  0  0  0  0  0  0  0  0  0
  142.5850   76.8320  218.6090 C   0  0  0  0  0  0  0  0  0  0  0  0
  142.1410   78.2470  218.4470 C   0  0  0  0  0  0  0  0  0  0  0  0
  140.8170   78.5690  219.0820 C   0  0  0  0  0  0  0  0  0  0  0  0
  140.5960   78.0130  220.4410 C   0  0  2  0  0  0  0  0  0  0  0  0
  140.7940   78.9460  221.5840 C   0  0  0  0  0  0  0  0  0  0  0  0
  139.9210   78.6790  222.7870 C   0  0  0  0  0  0  0  0  0  0  0  0
  140.5390   79.6030  223.8380 C   0  0  0  0  0  0  0  0  0  0  0  0
  141.9650   79.8220  223.4430 C   0  0  0  0  0  0  0  0  0  0  0  0
  142.1700   79.0040  222.1570 C   0  0  0  0  0  0  0  0  0  0  0  0
  139.7670   71.5030  223.5160 C   0  0  0  0  0  0  0  0  0  0  0  0
  139.0860   70.3070  223.4890 C   0  0  0  0  0  0  0  0  0  0  0  0
  139.0390   69.4410  224.5600 C   0  0  0  0  0  0  0  0  0  0  0  0
  139.7140   69.8150  225.7010 C   0  0  0  0  0  0  0  0  0  0  0  0
  139.7320   69.0240  226.8290 C   0  0  0  0  0  0  0  0  0  0  0  0
  140.3950   69.3680  227.9790 C   0  0  0  0  0  0  0  0  0  0  0  0
  140.3660   68.5250  229.0610 F   0  0  0  0  0  0  0  0  0  0  0  0
  141.0780   70.5680  228.0040 C   0  0  0  0  0  0  0  0  0  0  0  0
  141.0620   71.3680  226.8690 C   0  0  0  0  0  0  0  0  0  0  0  0
  140.4030   71.0260  225.7240 C   0  0  0  0  0  0  0  0  0  0  0  0
  140.4210   71.8470  224.6440 N   0  0  0  0  0  0  0  0  0  0  0  0
  141.4490   73.5090  222.9570 H   0  0  0  0  0  0  0  0  0  0  0  0
  141.6697   74.0755  220.4365 H   0  0  0  0  0  0  0  0  0  0  0  0
  139.8631   73.9719  220.3871 H   0  0  0  0  0  0  0  0  0  0  0  0
  143.2500   77.2179  220.6086 H   0  0  0  0  0  0  0  0  0  0  0  0
  142.8360   75.4894  220.2462 H   0  0  0  0  0  0  0  0  0  0  0  0
  143.6065   76.7068  218.2206 H   0  0  0  0  0  0  0  0  0  0  0  0
  141.9332   76.1428  218.0520 H   0  0  0  0  0  0  0  0  0  0  0  0
  142.9041   78.8988  218.8975 H   0  0  0  0  0  0  0  0  0  0  0  0
  142.0140   78.4099  217.3666 H   0  0  0  0  0  0  0  0  0  0  0  0
  140.7326   79.6638  219.1482 H   0  0  0  0  0  0  0  0  0  0  0  0
  140.0575   78.0976  218.4409 H   0  0  0  0  0  0  0  0  0  0  0  0
  139.5096   77.8407  220.4467 H   0  0  0  0  0  0  0  0  0  0  0  0
  140.5340   79.8865  221.0761 H   0  0  0  0  0  0  0  0  0  0  0  0
  138.8726   78.9453  222.5873 H   0  0  0  0  0  0  0  0  0  0  0  0
  139.8911   77.6214  223.0880 H   0  0  0  0  0  0  0  0  0  0  0  0
  140.0015   80.5625  223.8604 H   0  0  0  0  0  0  0  0  0  0  0  0
  140.4735   79.1561  224.8410 H   0  0  0  0  0  0  0  0  0  0  0  0
  142.1508   80.8893  223.2525 H   0  0  0  0  0  0  0  0  0  0  0  0
  142.6591   79.5107  224.2375 H   0  0  0  0  0  0  0  0  0  0  0  0
  142.8646   79.5107  221.4708 H   0  0  0  0  0  0  0  0  0  0  0  0
  142.6112   78.0123  222.3355 H   0  0  0  0  0  0  0  0  0  0  0  0
  138.5533   70.0289  222.5676 H   0  0  0  0  0  0  0  0  0  0  0  0
  138.4860   68.4916  224.5060 H   0  0  0  0  0  0  0  0  0  0  0  0
  139.1872   68.0687  226.8059 H   0  0  0  0  0  0  0  0  0  0  0  0
  141.6239   70.8839  228.9052 H   0  0  0  0  0  0  0  0  0  0  0  0
  141.6067   72.3233  226.8941 H   0  0  0  0  0  0  0  0  0  0  0  0
  1  2  2  0
  2  3  1  0
  3  4  1  0
  4  5  1  0
  5  6  2  0
  5  7  1  0
  7  8  1  0
  8  9  1  0
  9 10  1  0
 10 11  1  0
 11 12  1  0
 12 13  1  0
 13 14  1  0
 14 15  1  0
 15 16  1  0
 16 17  1  0
  2 18  1  0
 18 19  2  0
 19 20  1  0
 20 21  2  0
 21 22  1  0
 22 23  2  0
 23 24  1  0
 23 25  1  0
 25 26  2  0
 26 27  1  0
 27 28  2  0
 12  7  1  0
 17 13  1  0
 28 18  1  0
 27 21  1  0
  3 29  1  0
  4 30  1  0
  4 31  1  0
  8 32  1  0
  8 33  1  0
  9 34  1  0
  9 35  1  0
 10 36  1  0
 10 37  1  0
 11 38  1  0
 11 39  1  0
 12 40  1  6
 13 41  1  0
 14 42  1  0
 14 43  1  0
 15 44  1  0
 15 45  1  0
 16 46  1  0
 16 47  1  0
 17 48  1  0
 17 49  1  0
 19 50  1  0
 20 51  1  0
 22 52  1  0
 25 53  1  0
 26 54  1  0
M  END
>  <smiles>  (2) 
O=C(NCC(=O)N1CCCCC1C1CCCC1)c1ccc2cc(F)ccc2n1

>  <score_type>  (2) 
oracle

>  <origin>  (2) 
autodockgpu

>  <m_score__min__energy>  (2) 
-9.0999999999999996

>  <m_primary>  (2) 
energy

>  <rmsd>  (2) 
2.2267844000903936

>  <m_score__min__rmsd>  (2) 
2.2267844000903936

>  <meeko>  (2) 
{"free_energy": -7.84, "intermolecular_energy": -9.33, "internal_energy": -1.45, "cluster_size": 42, "cluster_id": 1, "rank_in_cluster": 40}

>  <energy>  (2) 
-8.99

>  <cluster_rmsd>  (2) 
0.22

>  <cluster>  (2) 
1

$$$$

     RDKit          3D

 54 57  0  0  0  0  0  0  0  0999 V2000
  140.9100   71.8440  221.2190 O   0  0  0  0  0  0  0  0  0  0  0  0
  140.3560   72.3110  222.2710 C   0  0  0  0  0  0  0  0  0  0  0  0
  139.8610   73.6660  222.2930 N   0  0  0  0  0  0  0  0  0  0  0  0
  140.0050   74.4990  221.0910 C   0  0  0  0  0  0  0  0  0  0  0  0
  140.1010   75.9160  221.4340 C   0  0  0  0  0  0  0  0  0  0  0  0
  139.3760   76.3460  222.3820 O   0  0  0  0  0  0  0  0  0  0  0  0
  140.9380   76.8680  220.8030 N   0  0  0  0  0  0  0  0  0  0  0  0
  142.2080   76.4240  220.2840 C   0  0  0  0  0  0  0  0  0  0  0  0
  142.3650   76.7620  218.8140 C   0  0  0  0  0  0  0  0  0  0  0  0
  142.2390   78.2440  218.7070 C   0  0  0  0  0  0  0  0  0  0  0  0
  140.9890   78.8160  219.3140 C   0  0  0  0  0  0  0  0  0  0  0  0
  140.5980   78.2650  220.6370 C   0  0  2  0  0  0  0  0  0  0  0  0
  140.9430   79.0870  221.8310 C   0  0  0  0  0  0  0  0  0  0  0  0
  141.4720   78.3090  223.0110 C   0  0  0  0  0  0  0  0  0  0  0  0
  141.9650   79.4280  223.9310 C   0  0  0  0  0  0  0  0  0  0  0  0
  142.2740   80.6050  223.0620 C   0  0  0  0  0  0  0  0  0  0  0  0
  141.9670   80.1510  221.6240 C   0  0  0  0  0  0  0  0  0  0  0  0
  140.2090   71.4890  223.4710 C   0  0  0  0  0  0  0  0  0  0  0  0
  139.5860   70.2660  223.3650 C   0  0  0  0  0  0  0  0  0  0  0  0
  139.4000   69.4180  224.4350 C   0  0  0  0  0  0  0  0  0  0  0  0
  139.8680   69.8390  225.6600 C   0  0  0  0  0  0  0  0  0  0  0  0
  139.7330   69.0700  226.7950 C   0  0  0  0  0  0  0  0  0  0  0  0
  140.1890   69.4610  228.0280 C   0  0  0  0  0  0  0  0  0  0  0  0
  140.0170   68.6370  229.1120 F   0  0  0  0  0  0  0  0  0  0  0  0
  140.8140   70.6880  228.1330 C   0  0  0  0  0  0  0  0  0  0  0  0
  140.9510   71.4670  226.9920 C   0  0  0  0  0  0  0  0  0  0  0  0
  140.4980   71.0780  225.7640 C   0  0  0  0  0  0  0  0  0  0  0  0
  140.6600   71.8790  224.6820 N   0  0  0  0  0  0  0  0  0  0  0  0
  139.4120   74.0250  223.1650 H   0  0  0  0  0  0  0  0  0  0  0  0
  140.9165   74.1980  220.5539 H   0  0  0  0  0  0  0  0  0  0  0  0
  139.1153   74.3545  220.4605 H   0  0  0  0  0  0  0  0  0  0  0  0
  143.0145   76.9131  220.8499 H   0  0  0  0  0  0  0  0  0  0  0  0
  142.2573   75.3303  220.3905 H   0  0  0  0  0  0  0  0  0  0  0  0
  143.3516   76.4370  218.4522 H   0  0  0  0  0  0  0  0  0  0  0  0
  141.6047   76.2521  218.2041 H   0  0  0  0  0  0  0  0  0  0  0  0
  143.1038   78.6983  219.2128 H   0  0  0  0  0  0  0  0  0  0  0  0
  142.1944   78.4740  217.6322 H   0  0  0  0  0  0  0  0  0  0  0  0
  141.1368   79.8998  219.4308 H   0  0  0  0  0  0  0  0  0  0  0  0
  140.1740   78.5451  218.6267 H   0  0  0  0  0  0  0  0  0  0  0  0
  139.5005   78.3292  220.5988 H   0  0  0  0  0  0  0  0  0  0  0  0
  139.9516   79.5221  222.0257 H   0  0  0  0  0  0  0  0  0  0  0  0
  140.6770   77.7184  223.4898 H   0  0  0  0  0  0  0  0  0  0  0  0
  142.2482   77.5753  222.7479 H   0  0  0  0  0  0  0  0  0  0  0  0
  141.1830   79.6907  224.6586 H   0  0  0  0  0  0  0  0  0  0  0  0
  142.8559   79.1103  224.4925 H   0  0  0  0  0  0  0  0  0  0  0  0
  141.6415   81.4619  223.3372 H   0  0  0  0  0  0  0  0  0  0  0  0
  143.3197   80.9281  223.1719 H   0  0  0  0  0  0  0  0  0  0  0  0
  141.5631   80.9795  221.0236 H   0  0  0  0  0  0  0  0  0  0  0  0
  142.8550   79.8032  221.0758 H   0  0  0  0  0  0  0  0  0  0  0  0
  139.2186   69.9502  222.3775 H   0  0  0  0  0  0  0  0  0  0  0  0
  138.8990   68.4460  224.3159 H   0  0  0  0  0  0  0  0  0  0  0  0
  139.2345   68.0933  226.7080 H   0  0  0  0  0  0  0  0  0  0  0  0
  141.1960   71.0414  229.1021 H   0  0  0  0  0  0  0  0  0  0  0  0
  141.4482   72.4441  227.0815 H   0  0  0  0  0  0  0  0  0  0  0  0
  1  2  2  0
  2  3  1  0
  3  4  1  0
  4  5  1  0
  5  6  2  0
  5  7  1  0
  7  8  1  0
  8  9  1  0
  9 10  1  0
 10 11  1  0
 11 12  1  0
 12 13  1  0
 13 14  1  0
 14 15  1  0
 15 16  1  0
 16 17  1  0
  2 18  1  0
 18 19  2  0
 19 20  1  0
 20 21  2  0
 21 22  1  0
 22 23  2  0
 23 24  1  0
 23 25  1  0
 25 26  2  0
 26 27  1  0
 27 28  2  0
 12  7  1  0
 17 13  1  0
 28 18  1  0
 27 21  1  0
  3 29  1  0
  4 30  1  0
  4 31  1  0
  8 32  1  0
  8 33  1  0
  9 34  1  0
  9 35  1  0
 10 36  1  0
 10 37  1  0
 11 38  1  0
 11 39  1  0
 12 40  1  6
 13 41  1  0
 14 42  1  0
 14 43  1  0
 15 44  1  0
 15 45  1  0
 16 46  1  0
 16 47  1  0
 17 48  1  0
 17 49  1  0
 19 50  1  0
 20 51  1  0
 22 52  1  0
 25 53  1  0
 26 54  1  0
M  END
>  <smiles>  (3) 
O=C(NCC(=O)N1CCCCC1C1CCCC1)c1ccc2cc(F)ccc2n1

>  <score_type>  (3) 
oracle

>  <origin>  (3) 
autodockgpu

>  <m_score__min__energy>  (3) 
-9.0999999999999996

>  <m_primary>  (3) 
energy

>  <rmsd>  (3) 
2.1476159807874526

>  <m_score__min__rmsd>  (3) 
2.1476159807874526

>  <meeko>  (3) 
{"free_energy": -8.7, "intermolecular_energy": -10.19, "internal_energy": -1.6, "cluster_size": 42, "cluster_id": 1, "rank_in_cluster": 17}

>  <energy>  (3) 
-8.97

>  <cluster_rmsd>  (3) 
0.24

>  <cluster>  (3) 
1

$$$$

     RDKit          3D

 54 57  0  0  0  0  0  0  0  0999 V2000
  140.8120   71.8110  221.1110 O   0  0  0  0  0  0  0  0  0  0  0  0
  140.3340   72.3130  222.1830 C   0  0  0  0  0  0  0  0  0  0  0  0
  139.9300   73.6970  222.2220 N   0  0  0  0  0  0  0  0  0  0  0  0
  140.0760   74.5190  221.0130 C   0  0  0  0  0  0  0  0  0  0  0  0
  141.4510   74.9880  220.8520 C   0  0  0  0  0  0  0  0  0  0  0  0
  142.3880   74.1870  221.1490 O   0  0  0  0  0  0  0  0  0  0  0  0
  141.8420   76.2670  220.3870 N   0  0  0  0  0  0  0  0  0  0  0  0
  143.0760   76.3810  219.6520 C   0  0  0  0  0  0  0  0  0  0  0  0
  142.8680   77.0330  218.2980 C   0  0  0  0  0  0  0  0  0  0  0  0
  142.2870   78.3810  218.5660 C   0  0  0  0  0  0  0  0  0  0  0  0
  141.0470   78.3750  219.4170 C   0  0  0  0  0  0  0  0  0  0  0  0
  141.0750   77.4770  220.6000 C   0  0  2  0  0  0  0  0  0  0  0  0
  141.3590   78.1150  221.9150 C   0  0  0  0  0  0  0  0  0  0  0  0
  142.2180   79.3550  221.8530 C   0  0  0  0  0  0  0  0  0  0  0  0
  142.0970   79.8950  223.2790 C   0  0  0  0  0  0  0  0  0  0  0  0
  140.8040   79.3840  223.8320 C   0  0  0  0  0  0  0  0  0  0  0  0
  140.1710   78.5510  222.7050 C   0  0  0  0  0  0  0  0  0  0  0  0
  140.1860   71.5030  223.3910 C   0  0  0  0  0  0  0  0  0  0  0  0
  139.5290   70.2960  223.3030 C   0  0  0  0  0  0  0  0  0  0  0  0
  139.3370   69.4600  224.3810 C   0  0  0  0  0  0  0  0  0  0  0  0
  139.8360   69.8760  225.5960 C   0  0  0  0  0  0  0  0  0  0  0  0
  139.7000   69.1170  226.7380 C   0  0  0  0  0  0  0  0  0  0  0  0
  140.1860   69.5030  227.9610 C   0  0  0  0  0  0  0  0  0  0  0  0
  140.0100   68.6910  229.0520 F   0  0  0  0  0  0  0  0  0  0  0  0
  140.8450   70.7140  228.0480 C   0  0  0  0  0  0  0  0  0  0  0  0
  140.9840   71.4820  226.8990 C   0  0  0  0  0  0  0  0  0  0  0  0
  140.5010   71.0980  225.6820 C   0  0  0  0  0  0  0  0  0  0  0  0
  140.6660   71.8880  224.5920 N   0  0  0  0  0  0  0  0  0  0  0  0
  139.5420   74.0860  223.1120 H   0  0  0  0  0  0  0  0  0  0  0  0
  139.7975   73.9175  220.1351 H   0  0  0  0  0  0  0  0  0  0  0  0
  139.4191   75.3961  221.1083 H   0  0  0  0  0  0  0  0  0  0  0  0
  143.7828   76.9895  220.2352 H   0  0  0  0  0  0  0  0  0  0  0  0
  143.4697   75.3673  219.4861 H   0  0  0  0  0  0  0  0  0  0  0  0
  143.8285   77.1304  217.7708 H   0  0  0  0  0  0  0  0  0  0  0  0
  142.2024   76.4304  217.6626 H   0  0  0  0  0  0  0  0  0  0  0  0
  143.0497   78.9871  219.0768 H   0  0  0  0  0  0  0  0  0  0  0  0
  141.9904   78.7903  217.5890 H   0  0  0  0  0  0  0  0  0  0  0  0
  140.8805   79.4010  219.7769 H   0  0  0  0  0  0  0  0  0  0  0  0
  140.2447   77.9898  218.7705 H   0  0  0  0  0  0  0  0  0  0  0  0
  140.0198   77.1798  220.6907 H   0  0  0  0  0  0  0  0  0  0  0  0
  141.8732   77.2724  222.4004 H   0  0  0  0  0  0  0  0  0  0  0  0
  143.2609   79.1072  221.6063 H   0  0  0  0  0  0  0  0  0  0  0  0
  141.9078   80.0720  221.0786 H   0  0  0  0  0  0  0  0  0  0  0  0
  142.9376   79.5366  223.8913 H   0  0  0  0  0  0  0  0  0  0  0  0
  142.1195   80.9947  223.2856 H   0  0  0  0  0  0  0  0  0  0  0  0
  140.9864   78.7566  224.7169 H   0  0  0  0  0  0  0  0  0  0  0  0
  140.1449   80.2054  224.1497 H   0  0  0  0  0  0  0  0  0  0  0  0
  139.6242   77.6865  223.1095 H   0  0  0  0  0  0  0  0  0  0  0  0
  139.4319   79.1088  222.1113 H   0  0  0  0  0  0  0  0  0  0  0  0
  139.1381   69.9839  222.3233 H   0  0  0  0  0  0  0  0  0  0  0  0
  138.8079   68.5013  224.2762 H   0  0  0  0  0  0  0  0  0  0  0  0
  139.1752   68.1530  226.6651 H   0  0  0  0  0  0  0  0  0  0  0  0
  141.2517   71.0633  229.0085 H   0  0  0  0  0  0  0  0  0  0  0  0
  141.5086   72.4460  226.9738 H   0  0  0  0  0  0  0  0  0  0  0  0
  1  2  2  0
  2  3  1  0
  3  4  1  0
  4  5  1  0
  5  6  2  0
  5  7  1  0
  7  8  1  0
  8  9  1  0
  9 10  1  0
 10 11  1  0
 11 12  1  0
 12 13  1  0
 13 14  1  0
 14 15  1  0
 15 16  1  0
 16 17  1  0
  2 18  1  0
 18 19  2  0
 19 20  1  0
 20 21  2  0
 21 22  1  0
 22 23  2  0
 23 24  1  0
 23 25  1  0
 25 26  2  0
 26 27  1  0
 27 28  2  0
 12  7  1  0
 17 13  1  0
 28 18  1  0
 27 21  1  0
  3 29  1  0
  4 30  1  0
  4 31  1  0
  8 32  1  0
  8 33  1  0
  9 34  1  0
  9 35  1  0
 10 36  1  0
 10 37  1  0
 11 38  1  0
 11 39  1  0
 12 40  1  1
 13 41  1  0
 14 42  1  0
 14 43  1  0
 15 44  1  0
 15 45  1  0
 16 46  1  0
 16 47  1  0
 17 48  1  0
 17 49  1  0
 19 50  1  0
 20 51  1  0
 22 52  1  0
 25 53  1  0
 26 54  1  0
M  END
>  <smiles>  (4) 
O=C(NCC(=O)N1CCCCC1C1CCCC1)c1ccc2cc(F)ccc2n1

>  <score_type>  (4) 
oracle

>  <origin>  (4) 
autodockgpu

>  <m_score__min__energy>  (4) 
-9.0999999999999996

>  <m_primary>  (4) 
energy

>  <rmsd>  (4) 
2.2113755686257686

>  <m_score__min__rmsd>  (4) 
2.2113755686257686

>  <meeko>  (4) 
{"free_energy": -8.63, "intermolecular_energy": -10.12, "internal_energy": -1.34, "cluster_size": 42, "cluster_id": 1, "rank_in_cluster": 19}

>  <energy>  (4) 
-8.97

>  <cluster_rmsd>  (4) 
0.23

>  <cluster>  (4) 
1

$$$$

     RDKit          3D

 54 57  0  0  0  0  0  0  0  0999 V2000
  138.4780   73.0350  221.8360 O   0  0  0  0  0  0  0  0  0  0  0  0
  139.6130   72.7320  222.3360 C   0  0  0  0  0  0  0  0  0  0  0  0
  140.8060   73.4210  221.9080 N   0  0  0  0  0  0  0  0  0  0  0  0
  140.6970   74.4750  220.8900 C   0  0  0  0  0  0  0  0  0  0  0  0
  141.9970   75.0780  220.6070 C   0  0  0  0  0  0  0  0  0  0  0  0
  143.0350   74.4010  220.8760 O   0  0  0  0  0  0  0  0  0  0  0  0
  142.2120   76.3630  220.0500 N   0  0  0  0  0  0  0  0  0  0  0  0
  143.3090   76.5360  219.1320 C   0  0  0  0  0  0  0  0  0  0  0  0
  142.8500   77.1150  217.8070 C   0  0  0  0  0  0  0  0  0  0  0  0
  142.2110   78.4250  218.1210 C   0  0  0  0  0  0  0  0  0  0  0  0
  141.1170   78.3640  219.1500 C   0  0  0  0  0  0  0  0  0  0  0  0
  141.3930   77.5200  220.3410 C   0  0  2  0  0  0  0  0  0  0  0  0
  141.8190   78.2310  221.5780 C   0  0  0  0  0  0  0  0  0  0  0  0
  141.7840   79.7380  221.4940 C   0  0  0  0  0  0  0  0  0  0  0  0
  142.0060   80.1420  222.9540 C   0  0  0  0  0  0  0  0  0  0  0  0
  141.5430   78.9980  223.7990 C   0  0  0  0  0  0  0  0  0  0  0  0
  141.0380   77.9310  222.8130 C   0  0  0  0  0  0  0  0  0  0  0  0
  139.7320   71.6830  223.3490 C   0  0  0  0  0  0  0  0  0  0  0  0
  139.2370   70.4310  223.0660 C   0  0  0  0  0  0  0  0  0  0  0  0
  139.3000   69.3760  223.9510 C   0  0  0  0  0  0  0  0  0  0  0  0
  139.8910   69.6150  225.1720 C   0  0  0  0  0  0  0  0  0  0  0  0
  140.0050   68.6320  226.1300 C   0  0  0  0  0  0  0  0  0  0  0  0
  140.5890   68.8380  227.3540 C   0  0  0  0  0  0  0  0  0  0  0  0
  140.6650   67.8070  228.2560 F   0  0  0  0  0  0  0  0  0  0  0  0
  141.0840   70.0960  227.6370 C   0  0  0  0  0  0  0  0  0  0  0  0
  140.9700   71.0900  226.6740 C   0  0  0  0  0  0  0  0  0  0  0  0
  140.3900   70.8850  225.4550 C   0  0  0  0  0  0  0  0  0  0  0  0
  140.3060   71.8920  224.5510 N   0  0  0  0  0  0  0  0  0  0  0  0
  141.7240   73.1540  222.3320 H   0  0  0  0  0  0  0  0  0  0  0  0
  140.2957   74.0380  219.9637 H   0  0  0  0  0  0  0  0  0  0  0  0
  140.0274   75.2590  221.2732 H   0  0  0  0  0  0  0  0  0  0  0  0
  144.0457   77.2177  219.5822 H   0  0  0  0  0  0  0  0  0  0  0  0
  143.7511   75.5476  218.9380 H   0  0  0  0  0  0  0  0  0  0  0  0
  143.7101   77.2617  217.1372 H   0  0  0  0  0  0  0  0  0  0  0  0
  142.1470   76.4394  217.2978 H   0  0  0  0  0  0  0  0  0  0  0  0
  142.9914   79.1059  218.4916 H   0  0  0  0  0  0  0  0  0  0  0  0
  141.7395   78.7700  217.1890 H   0  0  0  0  0  0  0  0  0  0  0  0
  140.9262   79.3891  219.5002 H   0  0  0  0  0  0  0  0  0  0  0  0
  140.2593   77.8954  218.6453 H   0  0  0  0  0  0  0  0  0  0  0  0
  140.3901   77.1496  220.6000 H   0  0  0  0  0  0  0  0  0  0  0  0
  142.8438   77.8378  221.6500 H   0  0  0  0  0  0  0  0  0  0  0  0
  142.5865   80.1212  220.8466 H   0  0  0  0  0  0  0  0  0  0  0  0
  140.8558   80.1371  221.0591 H   0  0  0  0  0  0  0  0  0  0  0  0
  143.0735   80.3369  223.1340 H   0  0  0  0  0  0  0  0  0  0  0  0
  141.4500   81.0596  223.1965 H   0  0  0  0  0  0  0  0  0  0  0  0
  142.3758   78.6025  224.3990 H   0  0  0  0  0  0  0  0  0  0  0  0
  140.7559   79.3055  224.5032 H   0  0  0  0  0  0  0  0  0  0  0  0
  141.2524   76.9170  223.1815 H   0  0  0  0  0  0  0  0  0  0  0  0
  139.9492   77.9591  222.6589 H   0  0  0  0  0  0  0  0  0  0  0  0
  138.7679   70.2636  222.0852 H   0  0  0  0  0  0  0  0  0  0  0  0
  138.8957   68.3860  223.6932 H   0  0  0  0  0  0  0  0  0  0  0  0
  139.6079   67.6318  225.9022 H   0  0  0  0  0  0  0  0  0  0  0  0
  141.5593   70.3064  228.6064 H   0  0  0  0  0  0  0  0  0  0  0  0
  141.3658   72.0902  226.9042 H   0  0  0  0  0  0  0  0  0  0  0  0
  1  2  2  0
  2  3  1  0
  3  4  1  0
  4  5  1  0
  5  6  2  0
  5  7  1  0
  7  8  1  0
  8  9  1  0
  9 10  1  0
 10 11  1  0
 11 12  1  0
 12 13  1  0
 13 14  1  0
 14 15  1  0
 15 16  1  0
 16 17  1  0
  2 18  1  0
 18 19  2  0
 19 20  1  0
 20 21  2  0
 21 22  1  0
 22 23  2  0
 23 24  1  0
 23 25  1  0
 25 26  2  0
 26 27  1  0
 27 28  2  0
 12  7  1  0
 17 13  1  0
 28 18  1  0
 27 21  1  0
  3 29  1  0
  4 30  1  0
  4 31  1  0
  8 32  1  0
  8 33  1  0
  9 34  1  0
  9 35  1  0
 10 36  1  0
 10 37  1  0
 11 38  1  0
 11 39  1  0
 12 40  1  1
 13 41  1  0
 14 42  1  0
 14 43  1  0
 15 44  1  0
 15 45  1  0
 16 46  1  0
 16 47  1  0
 17 48  1  0
 17 49  1  0
 19 50  1  0
 20 51  1  0
 22 52  1  0
 25 53  1  0
 26 54  1  0
M  END
>  <smiles>  (5) 
O=C(NCC(=O)N1CCCCC1C1CCCC1)c1ccc2cc(F)ccc2n1

>  <score_type>  (5) 
oracle

>  <origin>  (5) 
autodockgpu

>  <m_score__min__energy>  (5) 
-9.0999999999999996

>  <m_primary>  (5) 
energy

>  <rmsd>  (5) 
2.3649435509967285

>  <m_score__min__rmsd>  (5) 
2.3649435509967285

>  <meeko>  (5) 
{"free_energy": -7.75, "intermolecular_energy": -9.24, "internal_energy": -1.76, "cluster_size": 42, "cluster_id": 1, "rank_in_cluster": 41}

>  <energy>  (5) 
-8.97

>  <cluster_rmsd>  (5) 
0.24

>  <cluster>  (5) 
1

$$$$

     RDKit          3D

 54 57  0  0  0  0  0  0  0  0999 V2000
  140.4160   71.6760  221.0230 O   0  0  0  0  0  0  0  0  0  0  0  0
  140.0860   72.2180  222.1310 C   0  0  0  0  0  0  0  0  0  0  0  0
  139.7830   73.6270  222.1920 N   0  0  0  0  0  0  0  0  0  0  0  0
  139.8610   74.4290  220.9630 C   0  0  0  0  0  0  0  0  0  0  0  0
  140.5570   75.6930  221.1950 C   0  0  0  0  0  0  0  0  0  0  0  0
  141.8250   75.6800  221.1920 O   0  0  0  0  0  0  0  0  0  0  0  0
  139.9430   76.9480  221.4260 N   0  0  0  0  0  0  0  0  0  0  0  0
  139.1160   77.5060  220.3860 C   0  0  0  0  0  0  0  0  0  0  0  0
  137.7220   77.8330  220.8870 C   0  0  0  0  0  0  0  0  0  0  0  0
  137.8950   78.8050  222.0050 C   0  0  0  0  0  0  0  0  0  0  0  0
  138.8250   78.3540  223.0960 C   0  0  0  0  0  0  0  0  0  0  0  0
  140.0860   77.7090  222.6490 C   0  0  2  0  0  0  0  0  0  0  0  0
  141.3090   78.5590  222.6580 C   0  0  0  0  0  0  0  0  0  0  0  0
  141.3390   79.6490  221.6150 C   0  0  0  0  0  0  0  0  0  0  0  0
  142.5500   80.4750  222.0530 C   0  0  0  0  0  0  0  0  0  0  0  0
  142.7290   80.2420  223.5200 C   0  0  0  0  0  0  0  0  0  0  0  0
  141.5990   79.2820  223.9300 C   0  0  0  0  0  0  0  0  0  0  0  0
  140.0070   71.4280  223.3590 C   0  0  0  0  0  0  0  0  0  0  0  0
  139.4310   70.1780  223.3060 C   0  0  0  0  0  0  0  0  0  0  0  0
  139.3090   69.3570  224.4060 C   0  0  0  0  0  0  0  0  0  0  0  0
  139.7930   69.8330  225.6040 C   0  0  0  0  0  0  0  0  0  0  0  0
  139.7220   69.0940  226.7640 C   0  0  0  0  0  0  0  0  0  0  0  0
  140.1950   69.5400  227.9720 C   0  0  0  0  0  0  0  0  0  0  0  0
  140.0870   68.7440  229.0830 F   0  0  0  0  0  0  0  0  0  0  0  0
  140.7720   70.7940  228.0230 C   0  0  0  0  0  0  0  0  0  0  0  0
  140.8460   71.5420  226.8550 C   0  0  0  0  0  0  0  0  0  0  0  0
  140.3750   71.0990  225.6530 C   0  0  0  0  0  0  0  0  0  0  0  0
  140.4740   71.8720  224.5440 N   0  0  0  0  0  0  0  0  0  0  0  0
  139.5160   74.0470  223.1110 H   0  0  0  0  0  0  0  0  0  0  0  0
  140.4038   73.8570  220.1961 H   0  0  0  0  0  0  0  0  0  0  0  0
  138.8368   74.6535  220.6302 H   0  0  0  0  0  0  0  0  0  0  0  0
  139.5859   78.4285  220.0143 H   0  0  0  0  0  0  0  0  0  0  0  0
  139.0239   76.7577  219.5850 H   0  0  0  0  0  0  0  0  0  0  0  0
  137.1235   78.2825  220.0809 H   0  0  0  0  0  0  0  0  0  0  0  0
  137.1958   76.9274  221.2230 H   0  0  0  0  0  0  0  0  0  0  0  0
  138.2894   79.7422  221.5853 H   0  0  0  0  0  0  0  0  0  0  0  0
  136.9051   78.9197  222.4707 H   0  0  0  0  0  0  0  0  0  0  0  0
  139.0922   79.2358  223.6968 H   0  0  0  0  0  0  0  0  0  0  0  0
  138.2765   77.5802  223.6532 H   0  0  0  0  0  0  0  0  0  0  0  0
  140.2765   76.9883  223.4579 H   0  0  0  0  0  0  0  0  0  0  0  0
  142.0565   77.7751  222.4664 H   0  0  0  0  0  0  0  0  0  0  0  0
  141.4822   79.2335  220.6066 H   0  0  0  0  0  0  0  0  0  0  0  0
  140.4061   80.2285  221.5521 H   0  0  0  0  0  0  0  0  0  0  0  0
  143.4473   80.1496  221.5063 H   0  0  0  0  0  0  0  0  0  0  0  0
  142.3951   81.5431  221.8405 H   0  0  0  0  0  0  0  0  0  0  0  0
  143.7103   79.7865  223.7191 H   0  0  0  0  0  0  0  0  0  0  0  0
  142.6886   81.1829  224.0884 H   0  0  0  0  0  0  0  0  0  0  0  0
  141.9333   78.5871  224.7144 H   0  0  0  0  0  0  0  0  0  0  0  0
  140.7216   79.7938  224.3522 H   0  0  0  0  0  0  0  0  0  0  0  0
  139.0500   69.8177  222.3390 H   0  0  0  0  0  0  0  0  0  0  0  0
  138.8444   68.3628  224.3302 H   0  0  0  0  0  0  0  0  0  0  0  0
  139.2627   68.0955  226.7196 H   0  0  0  0  0  0  0  0  0  0  0  0
  141.1651   71.1924  228.9700 H   0  0  0  0  0  0  0  0  0  0  0  0
  141.3065   72.5399  226.9009 H   0  0  0  0  0  0  0  0  0  0  0  0
  1  2  2  0
  2  3  1  0
  3  4  1  0
  4  5  1  0
  5  6  2  0
  5  7  1  0
  7  8  1  0
  8  9  1  0
  9 10  1  0
 10 11  1  0
 11 12  1  0
 12 13  1  0
 13 14  1  0
 14 15  1  0
 15 16  1  0
 16 17  1  0
  2 18  1  0
 18 19  2  0
 19 20  1  0
 20 21  2  0
 21 22  1  0
 22 23  2  0
 23 24  1  0
 23 25  1  0
 25 26  2  0
 26 27  1  0
 27 28  2  0
 12  7  1  0
 17 13  1  0
 28 18  1  0
 27 21  1  0
  3 29  1  0
  4 30  1  0
  4 31  1  0
  8 32  1  0
  8 33  1  0
  9 34  1  0
  9 35  1  0
 10 36  1  0
 10 37  1  0
 11 38  1  0
 11 39  1  0
 12 40  1  1
 13 41  1  0
 14 42  1  0
 14 43  1  0
 15 44  1  0
 15 45  1  0
 16 46  1  0
 16 47  1  0
 17 48  1  0
 17 49  1  0
 19 50  1  0
 20 51  1  0
 22 52  1  0
 25 53  1  0
 26 54  1  0
M  END
>  <smiles>  (6) 
O=C(NCC(=O)N1CCCCC1C1CCCC1)c1ccc2cc(F)ccc2n1

>  <score_type>  (6) 
oracle

>  <origin>  (6) 
autodockgpu

>  <m_score__min__energy>  (6) 
-9.0999999999999996

>  <m_primary>  (6) 
energy

>  <rmsd>  (6) 
2.8234923233124105

>  <m_score__min__rmsd>  (6) 
2.8234923233124105

>  <meeko>  (6) 
{"free_energy": -8.34, "intermolecular_energy": -9.83, "internal_energy": -1.37, "cluster_size": 42, "cluster_id": 1, "rank_in_cluster": 27}

>  <energy>  (6) 
-8.93

>  <cluster_rmsd>  (6) 
0.57

>  <cluster>  (6) 
1

$$$$

     RDKit          3D

 54 57  0  0  0  0  0  0  0  0999 V2000
  140.7560   72.0760  221.0610 O   0  0  0  0  0  0  0  0  0  0  0  0
  140.2980   72.5780  222.1420 C   0  0  0  0  0  0  0  0  0  0  0  0
  139.9280   73.9710  222.2000 N   0  0  0  0  0  0  0  0  0  0  0  0
  140.0880   74.8030  220.9990 C   0  0  0  0  0  0  0  0  0  0  0  0
  141.4730   75.2370  220.8330 C   0  0  0  0  0  0  0  0  0  0  0  0
  142.3900   74.4520  221.2190 O   0  0  0  0  0  0  0  0  0  0  0  0
  141.8950   76.4670  220.2720 N   0  0  0  0  0  0  0  0  0  0  0  0
  143.0010   76.4550  219.3480 C   0  0  0  0  0  0  0  0  0  0  0  0
  142.6370   77.0990  218.0240 C   0  0  0  0  0  0  0  0  0  0  0  0
  142.2260   78.4990  218.3370 C   0  0  0  0  0  0  0  0  0  0  0  0
  141.1430   78.6210  219.3720 C   0  0  0  0  0  0  0  0  0  0  0  0
  141.2810   77.7460  220.5630 C   0  0  2  0  0  0  0  0  0  0  0  0
  141.8250   78.3780  221.7970 C   0  0  0  0  0  0  0  0  0  0  0  0
  142.0660   79.8650  221.7000 C   0  0  0  0  0  0  0  0  0  0  0  0
  142.3540   80.2350  223.1570 C   0  0  0  0  0  0  0  0  0  0  0  0
  141.6870   79.2020  224.0100 C   0  0  0  0  0  0  0  0  0  0  0  0
  140.9990   78.2360  223.0300 C   0  0  0  0  0  0  0  0  0  0  0  0
  140.1370   71.7570  223.3420 C   0  0  0  0  0  0  0  0  0  0  0  0
  139.3930   70.6020  223.2590 C   0  0  0  0  0  0  0  0  0  0  0  0
  139.1830   69.7610  224.3300 C   0  0  0  0  0  0  0  0  0  0  0  0
  139.7550   70.1180  225.5310 C   0  0  0  0  0  0  0  0  0  0  0  0
  139.6070   69.3500  226.6660 C   0  0  0  0  0  0  0  0  0  0  0  0
  140.1640   69.6780  227.8750 C   0  0  0  0  0  0  0  0  0  0  0  0
  139.9710   68.8600  228.9590 F   0  0  0  0  0  0  0  0  0  0  0  0
  140.9090   70.8380  227.9570 C   0  0  0  0  0  0  0  0  0  0  0  0
  141.0610   71.6150  226.8160 C   0  0  0  0  0  0  0  0  0  0  0  0
  140.5070   71.2890  225.6120 C   0  0  0  0  0  0  0  0  0  0  0  0
  140.6870   72.0850  224.5290 N   0  0  0  0  0  0  0  0  0  0  0  0
  139.5560   74.3590  223.0960 H   0  0  0  0  0  0  0  0  0  0  0  0
  139.7874   74.2193  220.1164 H   0  0  0  0  0  0  0  0  0  0  0  0
  139.4557   75.6963  221.1094 H   0  0  0  0  0  0  0  0  0  0  0  0
  143.8423   77.0068  219.7927 H   0  0  0  0  0  0  0  0  0  0  0  0
  143.2731   75.4069  219.1546 H   0  0  0  0  0  0  0  0  0  0  0  0
  143.5057   77.0991  217.3491 H   0  0  0  0  0  0  0  0  0  0  0  0
  141.8284   76.5484  217.5210 H   0  0  0  0  0  0  0  0  0  0  0  0
  143.1105   79.0420  218.7014 H   0  0  0  0  0  0  0  0  0  0  0  0
  141.8137   78.9163  217.4065 H   0  0  0  0  0  0  0  0  0  0  0  0
  141.1264   79.6642  219.7206 H   0  0  0  0  0  0  0  0  0  0  0  0
  140.2173   78.2991  218.8726 H   0  0  0  0  0  0  0  0  0  0  0  0
  140.2314   77.5489  220.8265 H   0  0  0  0  0  0  0  0  0  0  0  0
  142.7604   77.8048  221.8780 H   0  0  0  0  0  0  0  0  0  0  0  0
  142.9267   80.0892  221.0528 H   0  0  0  0  0  0  0  0  0  0  0  0
  141.2274   80.4228  221.2576 H   0  0  0  0  0  0  0  0  0  0  0  0
  143.4387   80.2332  223.3400 H   0  0  0  0  0  0  0  0  0  0  0  0
  141.9745   81.2410  223.3893 H   0  0  0  0  0  0  0  0  0  0  0  0
  142.4317   78.6667  224.6173 H   0  0  0  0  0  0  0  0  0  0  0  0
  140.9670   79.6542  224.7079 H   0  0  0  0  0  0  0  0  0  0  0  0
  141.0240   77.2031  223.4076 H   0  0  0  0  0  0  0  0  0  0  0  0
  139.9340   78.4605  222.8706 H   0  0  0  0  0  0  0  0  0  0  0  0
  138.9441   70.3374  222.2902 H   0  0  0  0  0  0  0  0  0  0  0  0
  138.5841   68.8437  224.2301 H   0  0  0  0  0  0  0  0  0  0  0  0
  139.0119   68.4273  226.5983 H   0  0  0  0  0  0  0  0  0  0  0  0
  141.3729   71.1406  228.9074 H   0  0  0  0  0  0  0  0  0  0  0  0
  141.6564   72.5373  226.8860 H   0  0  0  0  0  0  0  0  0  0  0  0
  1  2  2  0
  2  3  1  0
  3  4  1  0
  4  5  1  0
  5  6  2  0
  5  7  1  0
  7  8  1  0
  8  9  1  0
  9 10  1  0
 10 11  1  0
 11 12  1  0
 12 13  1  0
 13 14  1  0
 14 15  1  0
 15 16  1  0
 16 17  1  0
  2 18  1  0
 18 19  2  0
 19 20  1  0
 20 21  2  0
 21 22  1  0
 22 23  2  0
 23 24  1  0
 23 25  1  0
 25 26  2  0
 26 27  1  0
 27 28  2  0
 12  7  1  0
 17 13  1  0
 28 18  1  0
 27 21  1  0
  3 29  1  0
  4 30  1  0
  4 31  1  0
  8 32  1  0
  8 33  1  0
  9 34  1  0
  9 35  1  0
 10 36  1  0
 10 37  1  0
 11 38  1  0
 11 39  1  0
 12 40  1  1
 13 41  1  0
 14 42  1  0
 14 43  1  0
 15 44  1  0
 15 45  1  0
 16 46  1  0
 16 47  1  0
 17 48  1  0
 17 49  1  0
 19 50  1  0
 20 51  1  0
 22 52  1  0
 25 53  1  0
 26 54  1  0
M  END
>  <smiles>  (7) 
O=C(NCC(=O)N1CCCCC1C1CCCC1)c1ccc2cc(F)ccc2n1

>  <score_type>  (7) 
oracle

>  <origin>  (7) 
autodockgpu

>  <m_score__min__energy>  (7) 
-9.0999999999999996

>  <m_primary>  (7) 
energy

>  <rmsd>  (7) 
2.2493454463271467

>  <m_score__min__rmsd>  (7) 
2.2493454463271467

>  <meeko>  (7) 
{"free_energy": -8.55, "intermolecular_energy": -10.04, "internal_energy": -1.35, "cluster_size": 42, "cluster_id": 1, "rank_in_cluster": 24}

>  <energy>  (7) 
-8.91

>  <cluster_rmsd>  (7) 
0.31

>  <cluster>  (7) 
1

$$$$

     RDKit          3D

 54 57  0  0  0  0  0  0  0  0999 V2000
  141.1480   71.6460  221.3880 O   0  0  0  0  0  0  0  0  0  0  0  0
  140.5350   72.1840  222.3700 C   0  0  0  0  0  0  0  0  0  0  0  0
  140.0860   73.5530  222.2880 N   0  0  0  0  0  0  0  0  0  0  0  0
  140.3450   74.3170  221.0590 C   0  0  0  0  0  0  0  0  0  0  0  0
  140.4300   75.7500  221.3320 C   0  0  0  0  0  0  0  0  0  0  0  0
  139.6670   76.2280  222.2250 O   0  0  0  0  0  0  0  0  0  0  0  0
  141.2940   76.6680  220.6870 N   0  0  0  0  0  0  0  0  0  0  0  0
  142.3730   76.1440  219.8860 C   0  0  0  0  0  0  0  0  0  0  0  0
  142.3390   76.6870  218.4700 C   0  0  0  0  0  0  0  0  0  0  0  0
  142.4380   78.1710  218.5860 C   0  0  0  0  0  0  0  0  0  0  0  0
  141.4130   78.8030  219.4860 C   0  0  0  0  0  0  0  0  0  0  0  0
  141.1620   78.1070  220.7730 C   0  0  2  0  0  0  0  0  0  0  0  0
  141.8260   78.6740  221.9800 C   0  0  0  0  0  0  0  0  0  0  0  0
  142.2360   80.1220  221.8630 C   0  0  0  0  0  0  0  0  0  0  0  0
  142.6230   80.4600  223.3040 C   0  0  0  0  0  0  0  0  0  0  0  0
  141.8740   79.5150  224.1900 C   0  0  0  0  0  0  0  0  0  0  0  0
  141.0380   78.6340  223.2460 C   0  0  0  0  0  0  0  0  0  0  0  0
  140.2740   71.4320  223.5970 C   0  0  0  0  0  0  0  0  0  0  0  0
  139.5810   70.2460  223.5110 C   0  0  0  0  0  0  0  0  0  0  0  0
  139.2850   69.4630  224.6060 C   0  0  0  0  0  0  0  0  0  0  0  0
  139.7140   69.9130  225.8350 C   0  0  0  0  0  0  0  0  0  0  0  0
  139.4710   69.2090  226.9940 C   0  0  0  0  0  0  0  0  0  0  0  0
  139.8860   69.6310  228.2320 C   0  0  0  0  0  0  0  0  0  0  0  0
  139.6060   68.8720  229.3400 F   0  0  0  0  0  0  0  0  0  0  0  0
  140.5820   70.8210  228.3160 C   0  0  0  0  0  0  0  0  0  0  0  0
  140.8280   71.5340  227.1500 C   0  0  0  0  0  0  0  0  0  0  0  0
  140.4160   71.1150  225.9180 C   0  0  0  0  0  0  0  0  0  0  0  0
  140.6850   71.8510  224.8110 N   0  0  0  0  0  0  0  0  0  0  0  0
  139.5870   73.9720  223.1050 H   0  0  0  0  0  0  0  0  0  0  0  0
  141.2955   73.9789  220.6206 H   0  0  0  0  0  0  0  0  0  0  0  0
  139.5117   74.1455  220.3617 H   0  0  0  0  0  0  0  0  0  0  0  0
  143.3299   76.4230  220.3514 H   0  0  0  0  0  0  0  0  0  0  0  0
  142.2616   75.0508  219.8356 H   0  0  0  0  0  0  0  0  0  0  0  0
  143.1873   76.2931  217.8910 H   0  0  0  0  0  0  0  0  0  0  0  0
  141.4169   76.3881  217.9501 H   0  0  0  0  0  0  0  0  0  0  0  0
  143.4359   78.4178  218.9776 H   0  0  0  0  0  0  0  0  0  0  0  0
  142.2554   78.5731  217.5786 H   0  0  0  0  0  0  0  0  0  0  0  0
  141.7503   79.8245  219.7156 H   0  0  0  0  0  0  0  0  0  0  0  0
  140.4632   78.7573  218.9330 H   0  0  0  0  0  0  0  0  0  0  0  0
  140.0981   78.3249  220.9480 H   0  0  0  0  0  0  0  0  0  0  0  0
  142.6901   77.9950  222.0281 H   0  0  0  0  0  0  0  0  0  0  0  0
  143.0907   80.2416  221.1810 H   0  0  0  0  0  0  0  0  0  0  0  0
  141.4516   80.7732  221.4499 H   0  0  0  0  0  0  0  0  0  0  0  0
  143.7064   80.3315  223.4445 H   0  0  0  0  0  0  0  0  0  0  0  0
  142.3737   81.5043  223.5433 H   0  0  0  0  0  0  0  0  0  0  0  0
  142.5745   78.8973  224.7712 H   0  0  0  0  0  0  0  0  0  0  0  0
  141.2408   80.0510  224.9123 H   0  0  0  0  0  0  0  0  0  0  0  0
  140.9561   77.6066  223.6304 H   0  0  0  0  0  0  0  0  0  0  0  0
  140.0012   78.9817  223.1270 H   0  0  0  0  0  0  0  0  0  0  0  0
  139.2469   69.9063  222.5196 H   0  0  0  0  0  0  0  0  0  0  0  0
  138.7299   68.5190  224.5028 H   0  0  0  0  0  0  0  0  0  0  0  0
  138.9167   68.2615  226.9235 H   0  0  0  0  0  0  0  0  0  0  0  0
  140.9347   71.1968  229.2878 H   0  0  0  0  0  0  0  0  0  0  0  0
  141.3814   72.4819  227.2227 H   0  0  0  0  0  0  0  0  0  0  0  0
  1  2  2  0
  2  3  1  0
  3  4  1  0
  4  5  1  0
  5  6  2  0
  5  7  1  0
  7  8  1  0
  8  9  1  0
  9 10  1  0
 10 11  1  0
 11 12  1  0
 12 13  1  0
 13 14  1  0
 14 15  1  0
 15 16  1  0
 16 17  1  0
  2 18  1  0
 18 19  2  0
 19 20  1  0
 20 21  2  0
 21 22  1  0
 22 23  2  0
 23 24  1  0
 23 25  1  0
 25 26  2  0
 26 27  1  0
 27 28  2  0
 12  7  1  0
 17 13  1  0
 28 18  1  0
 27 21  1  0
  3 29  1  0
  4 30  1  0
  4 31  1  0
  8 32  1  0
  8 33  1  0
  9 34  1  0
  9 35  1  0
 10 36  1  0
 10 37  1  0
 11 38  1  0
 11 39  1  0
 12 40  1  1
 13 41  1  0
 14 42  1  0
 14 43  1  0
 15 44  1  0
 15 45  1  0
 16 46  1  0
 16 47  1  0
 17 48  1  0
 17 49  1  0
 19 50  1  0
 20 51  1  0
 22 52  1  0
 25 53  1  0
 26 54  1  0
M  END
>  <smiles>  (8) 
O=C(NCC(=O)N1CCCCC1C1CCCC1)c1ccc2cc(F)ccc2n1

>  <score_type>  (8) 
oracle

>  <origin>  (8) 
autodockgpu

>  <m_score__min__energy>  (8) 
-9.0999999999999996

>  <m_primary>  (8) 
energy

>  <rmsd>  (8) 
2.159199127419353

>  <m_score__min__rmsd>  (8) 
2.159199127419353

>  <meeko>  (8) 
{"free_energy": -8.85, "intermolecular_energy": -10.34, "internal_energy": -1.6, "cluster_size": 42, "cluster_id": 1, "rank_in_cluster": 8}

>  <energy>  (8) 
-8.85

>  <cluster_rmsd>  (8) 
0.35

>  <cluster>  (8) 
1

$$$$

     RDKit          3D

 54 57  0  0  0  0  0  0  0  0999 V2000
  140.8990   71.6000  221.2680 O   0  0  0  0  0  0  0  0  0  0  0  0
  140.3990   72.1040  222.3300 C   0  0  0  0  0  0  0  0  0  0  0  0
  139.9830   73.4850  222.3560 N   0  0  0  0  0  0  0  0  0  0  0  0
  140.1420   74.3020  221.1460 C   0  0  0  0  0  0  0  0  0  0  0  0
  140.4540   75.6900  221.4780 C   0  0  0  0  0  0  0  0  0  0  0  0
  139.8870   76.1980  222.4920 O   0  0  0  0  0  0  0  0  0  0  0  0
  141.3430   76.5330  220.7680 N   0  0  0  0  0  0  0  0  0  0  0  0
  142.4450   75.9280  220.0630 C   0  0  0  0  0  0  0  0  0  0  0  0
  142.4580   76.3170  218.5970 C   0  0  0  0  0  0  0  0  0  0  0  0
  142.5600   77.8040  218.5580 C   0  0  0  0  0  0  0  0  0  0  0  0
  141.5090   78.5290  219.3520 C   0  0  0  0  0  0  0  0  0  0  0  0
  141.2140   77.9740  220.6970 C   0  0  2  0  0  0  0  0  0  0  0  0
  141.8410   78.6660  221.8570 C   0  0  0  0  0  0  0  0  0  0  0  0
  142.2000   80.1130  221.6210 C   0  0  0  0  0  0  0  0  0  0  0  0
  142.5550   80.5850  223.0320 C   0  0  0  0  0  0  0  0  0  0  0  0
  141.8290   79.6920  223.9880 C   0  0  0  0  0  0  0  0  0  0  0  0
  141.0380   78.7040  223.1140 C   0  0  0  0  0  0  0  0  0  0  0  0
  140.2390   71.2980  223.5400 C   0  0  0  0  0  0  0  0  0  0  0  0
  139.5830   70.0910  223.4490 C   0  0  0  0  0  0  0  0  0  0  0  0
  139.3800   69.2590  224.5280 C   0  0  0  0  0  0  0  0  0  0  0  0
  139.8660   69.6790  225.7460 C   0  0  0  0  0  0  0  0  0  0  0  0
  139.7180   68.9240  226.8900 C   0  0  0  0  0  0  0  0  0  0  0  0
  140.1910   69.3150  228.1160 C   0  0  0  0  0  0  0  0  0  0  0  0
  140.0040   68.5070  229.2090 F   0  0  0  0  0  0  0  0  0  0  0  0
  140.8490   70.5260  228.2060 C   0  0  0  0  0  0  0  0  0  0  0  0
  141.0010   71.2900  227.0560 C   0  0  0  0  0  0  0  0  0  0  0  0
  140.5300   70.9010  225.8350 C   0  0  0  0  0  0  0  0  0  0  0  0
  140.7070   71.6870  224.7440 N   0  0  0  0  0  0  0  0  0  0  0  0
  139.5780   73.8740  223.2380 H   0  0  0  0  0  0  0  0  0  0  0  0
  140.9596   73.8867  220.5385 H   0  0  0  0  0  0  0  0  0  0  0  0
  139.1939   74.2838  220.5886 H   0  0  0  0  0  0  0  0  0  0  0  0
  143.3871   76.2558  220.5266 H   0  0  0  0  0  0  0  0  0  0  0  0
  142.3323   74.8356  220.1257 H   0  0  0  0  0  0  0  0  0  0  0  0
  143.3223   75.8628  218.0903 H   0  0  0  0  0  0  0  0  0  0  0  0
  141.5514   75.9654  218.0826 H   0  0  0  0  0  0  0  0  0  0  0  0
  143.5457   78.0899  218.9537 H   0  0  0  0  0  0  0  0  0  0  0  0
  142.4122   78.0972  217.5081 H   0  0  0  0  0  0  0  0  0  0  0  0
  141.8429   79.5689  219.4825 H   0  0  0  0  0  0  0  0  0  0  0  0
  140.5773   78.4254  218.7766 H   0  0  0  0  0  0  0  0  0  0  0  0
  140.1460   78.2095  220.8145 H   0  0  0  0  0  0  0  0  0  0  0  0
  142.7289   78.0267  221.9713 H   0  0  0  0  0  0  0  0  0  0  0  0
  143.0590   80.2061  220.9402 H   0  0  0  0  0  0  0  0  0  0  0  0
  141.3986   80.6976  221.1456 H   0  0  0  0  0  0  0  0  0  0  0  0
  143.6403   80.5087  223.1939 H   0  0  0  0  0  0  0  0  0  0  0  0
  142.2646   81.6358  223.1789 H   0  0  0  0  0  0  0  0  0  0  0  0
  142.5435   79.1522  224.6269 H   0  0  0  0  0  0  0  0  0  0  0  0
  141.1676   80.2636  224.6557 H   0  0  0  0  0  0  0  0  0  0  0  0
  140.9882   77.7105  223.5835 H   0  0  0  0  0  0  0  0  0  0  0  0
  139.9910   79.0017  222.9553 H   0  0  0  0  0  0  0  0  0  0  0  0
  139.2022   69.7755  222.4664 H   0  0  0  0  0  0  0  0  0  0  0  0
  138.8521   68.2999  224.4211 H   0  0  0  0  0  0  0  0  0  0  0  0
  139.1942   67.9596  226.8154 H   0  0  0  0  0  0  0  0  0  0  0  0
  141.2450   70.8786  229.1698 H   0  0  0  0  0  0  0  0  0  0  0  0
  141.5256   72.2538  227.1326 H   0  0  0  0  0  0  0  0  0  0  0  0
  1  2  2  0
  2  3  1  0
  3  4  1  0
  4  5  1  0
  5  6  2  0
  5  7  1  0
  7  8  1  0
  8  9  1  0
  9 10  1  0
 10 11  1  0
 11 12  1  0
 12 13  1  0
 13 14  1  0
 14 15  1  0
 15 16  1  0
 16 17  1  0
  2 18  1  0
 18 19  2  0
 19 20  1  0
 20 21  2  0
 21 22  1  0
 22 23  2  0
 23 24  1  0
 23 25  1  0
 25 26  2  0
 26 27  1  0
 27 28  2  0
 12  7  1  0
 17 13  1  0
 28 18  1  0
 27 21  1  0
  3 29  1  0
  4 30  1  0
  4 31  1  0
  8 32  1  0
  8 33  1  0
  9 34  1  0
  9 35  1  0
 10 36  1  0
 10 37  1  0
 11 38  1  0
 11 39  1  0
 12 40  1  1
 13 41  1  0
 14 42  1  0
 14 43  1  0
 15 44  1  0
 15 45  1  0
 16 46  1  0
 16 47  1  0
 17 48  1  0
 17 49  1  0
 19 50  1  0
 20 51  1  0
 22 52  1  0
 25 53  1  0
 26 54  1  0
M  END
>  <smiles>  (9) 
O=C(NCC(=O)N1CCCCC1C1CCCC1)c1ccc2cc(F)ccc2n1

>  <score_type>  (9) 
oracle

>  <origin>  (9) 
autodockgpu

>  <m_score__min__energy>  (9) 
-9.0999999999999996

>  <m_primary>  (9) 
energy

>  <rmsd>  (9) 
2.0584367041065463

>  <m_score__min__rmsd>  (9) 
2.0584367041065463

>  <meeko>  (9) 
{"free_energy": -8.97, "intermolecular_energy": -10.46, "internal_energy": -1.54, "cluster_size": 42, "cluster_id": 1, "rank_in_cluster": 3}

>  <energy>  (9) 
-8.85

>  <cluster_rmsd>  (9) 
0.35

>  <cluster>  (9) 
1

$$$$

     RDKit          3D

 54 57  0  0  0  0  0  0  0  0999 V2000
  141.3490   72.4890  221.9370 O   0  0  0  0  0  0  0  0  0  0  0  0
  140.2900   72.4240  222.6480 C   0  0  0  0  0  0  0  0  0  0  0  0
  139.1580   73.2670  222.3500 N   0  0  0  0  0  0  0  0  0  0  0  0
  139.2420   74.2010  221.2190 C   0  0  0  0  0  0  0  0  0  0  0  0
  139.7920   75.4900  221.6330 C   0  0  0  0  0  0  0  0  0  0  0  0
  139.1880   76.1240  222.5500 O   0  0  0  0  0  0  0  0  0  0  0  0
  140.9510   76.1070  221.1020 N   0  0  0  0  0  0  0  0  0  0  0  0
  142.0990   75.2800  220.8240 C   0  0  0  0  0  0  0  0  0  0  0  0
  142.5580   75.4190  219.3850 C   0  0  0  0  0  0  0  0  0  0  0  0
  142.8840   76.8610  219.1850 C   0  0  0  0  0  0  0  0  0  0  0  0
  141.7790   77.8130  219.5470 C   0  0  0  0  0  0  0  0  0  0  0  0
  141.0580   77.5210  220.8130 C   0  0  2  0  0  0  0  0  0  0  0  0
  141.4500   78.3250  222.0050 C   0  0  0  0  0  0  0  0  0  0  0  0
  142.1830   79.6080  221.6980 C   0  0  0  0  0  0  0  0  0  0  0  0
  142.1970   80.2990  223.0630 C   0  0  0  0  0  0  0  0  0  0  0  0
  141.0350   79.7610  223.8370 C   0  0  0  0  0  0  0  0  0  0  0  0
  140.3390   78.7610  222.8990 C   0  0  0  0  0  0  0  0  0  0  0  0
  140.1980   71.4970  223.7760 C   0  0  0  0  0  0  0  0  0  0  0  0
  139.6000   70.2730  223.5810 C   0  0  0  0  0  0  0  0  0  0  0  0
  139.4650   69.3310  224.5770 C   0  0  0  0  0  0  0  0  0  0  0  0
  139.9600   69.6560  225.8210 C   0  0  0  0  0  0  0  0  0  0  0  0
  139.8770   68.7880  226.8880 C   0  0  0  0  0  0  0  0  0  0  0  0
  140.3610   69.0820  228.1370 C   0  0  0  0  0  0  0  0  0  0  0  0
  140.2400   68.1640  229.1490 F   0  0  0  0  0  0  0  0  0  0  0  0
  140.9610   70.3110  228.3310 C   0  0  0  0  0  0  0  0  0  0  0  0
  141.0470   71.1880  227.2590 C   0  0  0  0  0  0  0  0  0  0  0  0
  140.5650   70.8960  226.0150 C   0  0  0  0  0  0  0  0  0  0  0  0
  140.6760   71.7920  225.0030 N   0  0  0  0  0  0  0  0  0  0  0  0
  138.3030   73.1950  222.9470 H   0  0  0  0  0  0  0  0  0  0  0  0
  139.8908   73.7672  220.4438 H   0  0  0  0  0  0  0  0  0  0  0  0
  138.2265   74.3663  220.8298 H   0  0  0  0  0  0  0  0  0  0  0  0
  142.9219   75.5774  221.4906 H   0  0  0  0  0  0  0  0  0  0  0  0
  141.8136   74.2311  220.9921 H   0  0  0  0  0  0  0  0  0  0  0  0
  143.4495   74.7992  219.2083 H   0  0  0  0  0  0  0  0  0  0  0  0
  141.7792   75.0850  218.6837 H   0  0  0  0  0  0  0  0  0  0  0  0
  143.7605   77.1027  219.8041 H   0  0  0  0  0  0  0  0  0  0  0  0
  143.0644   76.9912  218.1077 H   0  0  0  0  0  0  0  0  0  0  0  0
  142.2157   78.8190  219.6324 H   0  0  0  0  0  0  0  0  0  0  0  0
  141.0289   77.7150  218.7484 H   0  0  0  0  0  0  0  0  0  0  0  0
  140.0435   77.8837  220.5910 H   0  0  0  0  0  0  0  0  0  0  0  0
  142.0926   77.5832  222.5017 H   0  0  0  0  0  0  0  0  0  0  0  0
  143.2039   79.4095  221.3398 H   0  0  0  0  0  0  0  0  0  0  0  0
  141.7161   80.2066  220.9020 H   0  0  0  0  0  0  0  0  0  0  0  0
  143.1370   80.0769  223.5894 H   0  0  0  0  0  0  0  0  0  0  0  0
  142.1229   81.3908  222.9513 H   0  0  0  0  0  0  0  0  0  0  0  0
  141.3831   79.2535  224.7487 H   0  0  0  0  0  0  0  0  0  0  0  0
  140.3523   80.5627  224.1552 H   0  0  0  0  0  0  0  0  0  0  0  0
  139.9252   77.9110  223.4615 H   0  0  0  0  0  0  0  0  0  0  0  0
  139.4848   79.1922  222.3564 H   0  0  0  0  0  0  0  0  0  0  0  0
  139.2105   70.0350  222.5802 H   0  0  0  0  0  0  0  0  0  0  0  0
  138.9826   68.3608  224.3872 H   0  0  0  0  0  0  0  0  0  0  0  0
  139.3985   67.8102  226.7300 H   0  0  0  0  0  0  0  0  0  0  0  0
  141.3630   70.5892  229.3164 H   0  0  0  0  0  0  0  0  0  0  0  0
  141.5263   72.1651  227.4189 H   0  0  0  0  0  0  0  0  0  0  0  0
  1  2  2  0
  2  3  1  0
  3  4  1  0
  4  5  1  0
  5  6  2  0
  5  7  1  0
  7  8  1  0
  8  9  1  0
  9 10  1  0
 10 11  1  0
 11 12  1  0
 12 13  1  0
 13 14  1  0
 14 15  1  0
 15 16  1  0
 16 17  1  0
  2 18  1  0
 18 19  2  0
 19 20  1  0
 20 21  2  0
 21 22  1  0
 22 23  2  0
 23 24  1  0
 23 25  1  0
 25 26  2  0
 26 27  1  0
 27 28  2  0
 12  7  1  0
 17 13  1  0
 28 18  1  0
 27 21  1  0
  3 29  1  0
  4 30  1  0
  4 31  1  0
  8 32  1  0
  8 33  1  0
  9 34  1  0
  9 35  1  0
 10 36  1  0
 10 37  1  0
 11 38  1  0
 11 39  1  0
 12 40  1  6
 13 41  1  0
 14 42  1  0
 14 43  1  0
 15 44  1  0
 15 45  1  0
 16 46  1  0
 16 47  1  0
 17 48  1  0
 17 49  1  0
 19 50  1  0
 20 51  1  0
 22 52  1  0
 25 53  1  0
 26 54  1  0
M  END
>  <smiles>  (10) 
O=C(NCC(=O)N1CCCCC1C1CCCC1)c1ccc2cc(F)ccc2n1

>  <score_type>  (10) 
oracle

>  <origin>  (10) 
autodockgpu

>  <m_score__min__energy>  (10) 
-9.0999999999999996

>  <m_primary>  (10) 
energy

>  <rmsd>  (10) 
2.031734733371628

>  <m_score__min__rmsd>  (10) 
2.031734733371628

>  <meeko>  (10) 
{"free_energy": -8.93, "intermolecular_energy": -10.42, "internal_energy": -1.38, "cluster_size": 42, "cluster_id": 1, "rank_in_cluster": 6}

>  <energy>  (10) 
-8.83

>  <cluster_rmsd>  (10) 
0.66

>  <cluster>  (10) 
1

$$$$

     RDKit          3D

 54 57  0  0  0  0  0  0  0  0999 V2000
  140.8410   71.9560  221.2070 O   0  0  0  0  0  0  0  0  0  0  0  0
  140.2770   72.3610  222.2790 C   0  0  0  0  0  0  0  0  0  0  0  0
  139.7170   73.6890  222.3520 N   0  0  0  0  0  0  0  0  0  0  0  0
  139.8060   74.5660  221.1760 C   0  0  0  0  0  0  0  0  0  0  0  0
  140.2400   75.9110  221.5480 C   0  0  0  0  0  0  0  0  0  0  0  0
  141.4490   76.0680  221.8950 O   0  0  0  0  0  0  0  0  0  0  0  0
  139.4290   77.0720  221.5570 N   0  0  0  0  0  0  0  0  0  0  0  0
  138.6960   77.4040  220.3600 C   0  0  0  0  0  0  0  0  0  0  0  0
  137.2120   77.5550  220.6320 C   0  0  0  0  0  0  0  0  0  0  0  0
  137.0780   78.6360  221.6500 C   0  0  0  0  0  0  0  0  0  0  0  0
  137.8890   78.4300  222.8990 C   0  0  0  0  0  0  0  0  0  0  0  0
  139.2810   77.9510  222.6980 C   0  0  2  0  0  0  0  0  0  0  0  0
  140.3580   78.9760  222.7790 C   0  0  0  0  0  0  0  0  0  0  0  0
  141.4660   78.6630  223.7560 C   0  0  0  0  0  0  0  0  0  0  0  0
  142.5030   79.7340  223.4110 C   0  0  0  0  0  0  0  0  0  0  0  0
  142.2640   80.1330  221.9890 C   0  0  0  0  0  0  0  0  0  0  0  0
  141.0830   79.2720  221.5100 C   0  0  0  0  0  0  0  0  0  0  0  0
  140.1860   71.4950  223.4540 C   0  0  0  0  0  0  0  0  0  0  0  0
  139.5910   70.2600  223.3210 C   0  0  0  0  0  0  0  0  0  0  0  0
  139.4560   69.3710  224.3650 C   0  0  0  0  0  0  0  0  0  0  0  0
  139.9480   69.7610  225.5910 C   0  0  0  0  0  0  0  0  0  0  0  0
  139.8650   68.9500  226.7010 C   0  0  0  0  0  0  0  0  0  0  0  0
  140.3450   69.3100  227.9340 C   0  0  0  0  0  0  0  0  0  0  0  0
  140.2250   68.4450  228.9930 F   0  0  0  0  0  0  0  0  0  0  0  0
  140.9420   70.5480  228.0660 C   0  0  0  0  0  0  0  0  0  0  0  0
  141.0270   71.3690  226.9490 C   0  0  0  0  0  0  0  0  0  0  0  0
  140.5490   71.0120  225.7220 C   0  0  0  0  0  0  0  0  0  0  0  0
  140.6600   71.8540  224.6640 N   0  0  0  0  0  0  0  0  0  0  0  0
  139.2620   73.9980  223.2400 H   0  0  0  0  0  0  0  0  0  0  0  0
  140.5293   74.1399  220.4652 H   0  0  0  0  0  0  0  0  0  0  0  0
  138.8076   74.6372  220.7197 H   0  0  0  0  0  0  0  0  0  0  0  0
  139.0824   78.3519  219.9573 H   0  0  0  0  0  0  0  0  0  0  0  0
  138.8297   76.5842  219.6388 H   0  0  0  0  0  0  0  0  0  0  0  0
  136.6826   77.8340  219.7090 H   0  0  0  0  0  0  0  0  0  0  0  0
  136.7748   76.6120  220.9921 H   0  0  0  0  0  0  0  0  0  0  0  0
  137.3956   79.5824  221.1880 H   0  0  0  0  0  0  0  0  0  0  0  0
  136.0233   78.6380  221.9625 H   0  0  0  0  0  0  0  0  0  0  0  0
  137.9371   79.3911  223.4318 H   0  0  0  0  0  0  0  0  0  0  0  0
  137.3776   77.6320  223.4574 H   0  0  0  0  0  0  0  0  0  0  0  0
  139.4487   77.3430  223.5992 H   0  0  0  0  0  0  0  0  0  0  0  0
  139.7470   79.8337  223.0969 H   0  0  0  0  0  0  0  0  0  0  0  0
  141.1215   78.7600  224.7961 H   0  0  0  0  0  0  0  0  0  0  0  0
  141.8477   77.6341  223.6804 H   0  0  0  0  0  0  0  0  0  0  0  0
  142.3818   80.6042  224.0729 H   0  0  0  0  0  0  0  0  0  0  0  0
  143.5245   79.3483  223.5439 H   0  0  0  0  0  0  0  0  0  0  0  0
  142.0098   81.2015  221.9277 H   0  0  0  0  0  0  0  0  0  0  0  0
  143.1583   79.9786  221.3674 H   0  0  0  0  0  0  0  0  0  0  0  0
  140.4443   79.8293  220.8089 H   0  0  0  0  0  0  0  0  0  0  0  0
  141.3939   78.3692  220.9638 H   0  0  0  0  0  0  0  0  0  0  0  0
  139.2047   69.9691  222.3330 H   0  0  0  0  0  0  0  0  0  0  0  0
  138.9756   68.3913  224.2253 H   0  0  0  0  0  0  0  0  0  0  0  0
  139.3898   67.9638  226.5930 H   0  0  0  0  0  0  0  0  0  0  0  0
  141.3422   70.8774  229.0362 H   0  0  0  0  0  0  0  0  0  0  0  0
  141.5027   72.3547  227.0589 H   0  0  0  0  0  0  0  0  0  0  0  0
  1  2  2  0
  2  3  1  0
  3  4  1  0
  4  5  1  0
  5  6  2  0
  5  7  1  0
  7  8  1  0
  8  9  1  0
  9 10  1  0
 10 11  1  0
 11 12  1  0
 12 13  1  0
 13 14  1  0
 14 15  1  0
 15 16  1  0
 16 17  1  0
  2 18  1  0
 18 19  2  0
 19 20  1  0
 20 21  2  0
 21 22  1  0
 22 23  2  0
 23 24  1  0
 23 25  1  0
 25 26  2  0
 26 27  1  0
 27 28  2  0
 12  7  1  0
 17 13  1  0
 28 18  1  0
 27 21  1  0
  3 29  1  0
  4 30  1  0
  4 31  1  0
  8 32  1  0
  8 33  1  0
  9 34  1  0
  9 35  1  0
 10 36  1  0
 10 37  1  0
 11 38  1  0
 11 39  1  0
 12 40  1  1
 13 41  1  0
 14 42  1  0
 14 43  1  0
 15 44  1  0
 15 45  1  0
 16 46  1  0
 16 47  1  0
 17 48  1  0
 17 49  1  0
 19 50  1  0
 20 51  1  0
 22 52  1  0
 25 53  1  0
 26 54  1  0
M  END
>  <smiles>  (11) 
O=C(NCC(=O)N1CCCCC1C1CCCC1)c1ccc2cc(F)ccc2n1

>  <score_type>  (11) 
oracle

>  <origin>  (11) 
autodockgpu

>  <m_score__min__energy>  (11) 
-9.0999999999999996

>  <m_primary>  (11) 
energy

>  <rmsd>  (11) 
2.9204227112667325

>  <m_score__min__rmsd>  (11) 
2.9204227112667325

>  <meeko>  (11) 
{"free_energy": -8.08, "intermolecular_energy": -9.57, "internal_energy": -1.35, "cluster_size": 42, "cluster_id": 1, "rank_in_cluster": 36}

>  <energy>  (11) 
-8.83

>  <cluster_rmsd>  (11) 
0.36

>  <cluster>  (11) 
1

$$$$

     RDKit          3D

 54 57  0  0  0  0  0  0  0  0999 V2000
  138.8750   71.3780  221.1740 O   0  0  0  0  0  0  0  0  0  0  0  0
  139.1830   71.9420  222.2770 C   0  0  0  0  0  0  0  0  0  0  0  0
  139.2660   73.3800  222.3630 N   0  0  0  0  0  0  0  0  0  0  0  0
  138.9910   74.1840  221.1650 C   0  0  0  0  0  0  0  0  0  0  0  0
  139.3710   75.5820  221.3630 C   0  0  0  0  0  0  0  0  0  0  0  0
  138.5010   76.3690  221.8420 O   0  0  0  0  0  0  0  0  0  0  0  0
  140.6360   76.1470  221.0690 N   0  0  0  0  0  0  0  0  0  0  0  0
  141.8060   75.3170  221.2070 C   0  0  0  0  0  0  0  0  0  0  0  0
  142.6200   75.2730  219.9290 C   0  0  0  0  0  0  0  0  0  0  0  0
  143.0050   76.6820  219.6260 C   0  0  0  0  0  0  0  0  0  0  0  0
  141.8560   77.6500  219.5620 C   0  0  0  0  0  0  0  0  0  0  0  0
  140.8320   77.5130  220.6290 C   0  0  2  0  0  0  0  0  0  0  0  0
  140.9150   78.4760  221.7620 C   0  0  0  0  0  0  0  0  0  0  0  0
  141.3550   77.8800  223.0770 C   0  0  0  0  0  0  0  0  0  0  0  0
  141.5900   79.1300  223.9280 C   0  0  0  0  0  0  0  0  0  0  0  0
  141.8890   80.2520  222.9830 C   0  0  0  0  0  0  0  0  0  0  0  0
  141.8360   79.6340  221.5760 C   0  0  0  0  0  0  0  0  0  0  0  0
  139.4590   71.1500  223.4750 C   0  0  0  0  0  0  0  0  0  0  0  0
  139.2000   69.7980  223.4490 C   0  0  0  0  0  0  0  0  0  0  0  0
  139.4260   68.9650  224.5220 C   0  0  0  0  0  0  0  0  0  0  0  0
  139.9350   69.5380  225.6670 C   0  0  0  0  0  0  0  0  0  0  0  0
  140.1970   68.7960  226.7980 C   0  0  0  0  0  0  0  0  0  0  0  0
  140.7040   69.3370  227.9520 C   0  0  0  0  0  0  0  0  0  0  0  0
  140.9380   68.5320  229.0380 F   0  0  0  0  0  0  0  0  0  0  0  0
  140.9630   70.6940  227.9770 C   0  0  0  0  0  0  0  0  0  0  0  0
  140.7000   71.4440  226.8390 C   0  0  0  0  0  0  0  0  0  0  0  0
  140.1960   70.9060  225.6900 C   0  0  0  0  0  0  0  0  0  0  0  0
  139.9580   71.6870  224.6070 N   0  0  0  0  0  0  0  0  0  0  0  0
  139.5210   73.8180  223.2770 H   0  0  0  0  0  0  0  0  0  0  0  0
  139.5627   73.7738  220.3195 H   0  0  0  0  0  0  0  0  0  0  0  0
  137.9108   74.1440  220.9612 H   0  0  0  0  0  0  0  0  0  0  0  0
  142.4343   75.7191  222.0154 H   0  0  0  0  0  0  0  0  0  0  0  0
  141.4737   74.2936  221.4357 H   0  0  0  0  0  0  0  0  0  0  0  0
  143.5189   74.6553  220.0716 H   0  0  0  0  0  0  0  0  0  0  0  0
  142.0426   74.8311  219.1035 H   0  0  0  0  0  0  0  0  0  0  0  0
  143.6970   77.0237  220.4098 H   0  0  0  0  0  0  0  0  0  0  0  0
  143.4565   76.6707  218.6230 H   0  0  0  0  0  0  0  0  0  0  0  0
  142.2692   78.6678  219.6201 H   0  0  0  0  0  0  0  0  0  0  0  0
  141.3342   77.4306  218.6188 H   0  0  0  0  0  0  0  0  0  0  0  0
  139.9135   77.8206  220.1077 H   0  0  0  0  0  0  0  0  0  0  0  0
  139.8646   78.8021  221.7795 H   0  0  0  0  0  0  0  0  0  0  0  0
  140.5697   77.2431  223.5102 H   0  0  0  0  0  0  0  0  0  0  0  0
  142.2357   77.2259  222.9957 H   0  0  0  0  0  0  0  0  0  0  0  0
  140.6899   79.3613  224.5165 H   0  0  0  0  0  0  0  0  0  0  0  0
  142.4220   78.9760  224.6309 H   0  0  0  0  0  0  0  0  0  0  0  0
  141.1359   81.0477  223.0814 H   0  0  0  0  0  0  0  0  0  0  0  0
  142.8683   80.7082  223.1902 H   0  0  0  0  0  0  0  0  0  0  0  0
  141.4321   80.3486  220.8437 H   0  0  0  0  0  0  0  0  0  0  0  0
  142.8244   79.3480  221.1870 H   0  0  0  0  0  0  0  0  0  0  0  0
  138.7923   69.3616  222.5253 H   0  0  0  0  0  0  0  0  0  0  0  0
  139.2094   67.8879  224.4673 H   0  0  0  0  0  0  0  0  0  0  0  0
  139.9893   67.7161  226.7743 H   0  0  0  0  0  0  0  0  0  0  0  0
  141.3697   71.1707  228.8811 H   0  0  0  0  0  0  0  0  0  0  0  0
  140.9077   72.5239  226.8642 H   0  0  0  0  0  0  0  0  0  0  0  0
  1  2  2  0
  2  3  1  0
  3  4  1  0
  4  5  1  0
  5  6  2  0
  5  7  1  0
  7  8  1  0
  8  9  1  0
  9 10  1  0
 10 11  1  0
 11 12  1  0
 12 13  1  0
 13 14  1  0
 14 15  1  0
 15 16  1  0
 16 17  1  0
  2 18  1  0
 18 19  2  0
 19 20  1  0
 20 21  2  0
 21 22  1  0
 22 23  2  0
 23 24  1  0
 23 25  1  0
 25 26  2  0
 26 27  1  0
 27 28  2  0
 12  7  1  0
 17 13  1  0
 28 18  1  0
 27 21  1  0
  3 29  1  0
  4 30  1  0
  4 31  1  0
  8 32  1  0
  8 33  1  0
  9 34  1  0
  9 35  1  0
 10 36  1  0
 10 37  1  0
 11 38  1  0
 11 39  1  0
 12 40  1  6
 13 41  1  0
 14 42  1  0
 14 43  1  0
 15 44  1  0
 15 45  1  0
 16 46  1  0
 16 47  1  0
 17 48  1  0
 17 49  1  0
 19 50  1  0
 20 51  1  0
 22 52  1  0
 25 53  1  0
 26 54  1  0
M  END
>  <smiles>  (12) 
O=C(NCC(=O)N1CCCCC1C1CCCC1)c1ccc2cc(F)ccc2n1

>  <score_type>  (12) 
oracle

>  <origin>  (12) 
autodockgpu

>  <m_score__min__energy>  (12) 
-9.0999999999999996

>  <m_primary>  (12) 
energy

>  <rmsd>  (12) 
1.9634593664068543

>  <m_score__min__rmsd>  (12) 
1.9634593664068543

>  <meeko>  (12) 
{"free_energy": -8.26, "intermolecular_energy": -9.75, "internal_energy": -1.57, "cluster_size": 42, "cluster_id": 1, "rank_in_cluster": 30}

>  <energy>  (12) 
-8.77

>  <cluster_rmsd>  (12) 
0.73

>  <cluster>  (12) 
1

$$$$

     RDKit          3D

 54 57  0  0  0  0  0  0  0  0999 V2000
  140.9590   73.8760  220.3410 O   0  0  0  0  0  0  0  0  0  0  0  0
  140.4380   74.6180  221.2400 C   0  0  0  0  0  0  0  0  0  0  0  0
  139.4140   74.0960  222.1120 N   0  0  0  0  0  0  0  0  0  0  0  0
  138.9800   72.7020  221.9500 C   0  0  0  0  0  0  0  0  0  0  0  0
  139.7480   71.8030  222.8100 C   0  0  0  0  0  0  0  0  0  0  0  0
  141.0100   71.8040  222.6900 O   0  0  0  0  0  0  0  0  0  0  0  0
  139.2090   70.9200  223.7780 N   0  0  0  0  0  0  0  0  0  0  0  0
  137.7980   70.6300  223.7290 C   0  0  0  0  0  0  0  0  0  0  0  0
  137.5320   69.1390  223.6500 C   0  0  0  0  0  0  0  0  0  0  0  0
  138.1540   68.5350  224.8640 C   0  0  0  0  0  0  0  0  0  0  0  0
  139.6080   68.8670  225.0580 C   0  0  0  0  0  0  0  0  0  0  0  0
  139.9890   70.2820  224.8170 C   0  0  2  0  0  0  0  0  0  0  0  0
  140.1570   71.1420  226.0220 C   0  0  0  0  0  0  0  0  0  0  0  0
  139.9610   70.4390  227.3430 C   0  0  0  0  0  0  0  0  0  0  0  0
  140.4520   71.4920  228.3380 C   0  0  0  0  0  0  0  0  0  0  0  0
  141.4120   72.3730  227.6040 C   0  0  0  0  0  0  0  0  0  0  0  0
  141.4820   71.8110  226.1740 C   0  0  0  0  0  0  0  0  0  0  0  0
  140.8630   76.0070  221.4070 C   0  0  0  0  0  0  0  0  0  0  0  0
  141.6890   76.5660  220.4580 C   0  0  0  0  0  0  0  0  0  0  0  0
  142.1440   77.8640  220.5230 C   0  0  0  0  0  0  0  0  0  0  0  0
  141.7390   78.6190  221.6020 C   0  0  0  0  0  0  0  0  0  0  0  0
  142.1360   79.9280  221.7650 C   0  0  0  0  0  0  0  0  0  0  0  0
  141.7500   80.7050  222.8270 C   0  0  0  0  0  0  0  0  0  0  0  0
  142.1880   82.0020  222.9190 F   0  0  0  0  0  0  0  0  0  0  0  0
  140.9210   80.1430  223.7790 C   0  0  0  0  0  0  0  0  0  0  0  0
  140.5190   78.8240  223.6180 C   0  0  0  0  0  0  0  0  0  0  0  0
  140.9030   78.0500  222.5610 C   0  0  0  0  0  0  0  0  0  0  0  0
  140.4800   76.7670  222.4540 N   0  0  0  0  0  0  0  0  0  0  0  0
  139.0020   74.7230  222.8390 H   0  0  0  0  0  0  0  0  0  0  0  0
  137.9145   72.6257  222.2126 H   0  0  0  0  0  0  0  0  0  0  0  0
  139.1451   72.4064  220.9034 H   0  0  0  0  0  0  0  0  0  0  0  0
  137.3207   71.0293  224.6361 H   0  0  0  0  0  0  0  0  0  0  0  0
  137.3836   71.0997  222.8248 H   0  0  0  0  0  0  0  0  0  0  0  0
  136.4491   68.9457  223.6412 H   0  0  0  0  0  0  0  0  0  0  0  0
  137.9525   68.7072  222.7298 H   0  0  0  0  0  0  0  0  0  0  0  0
  137.6009   68.8914  225.7455 H   0  0  0  0  0  0  0  0  0  0  0  0
  138.1001   67.4445  224.7302 H   0  0  0  0  0  0  0  0  0  0  0  0
  139.8747   68.6184  226.0958 H   0  0  0  0  0  0  0  0  0  0  0  0
  140.1503   68.2803  224.3019 H   0  0  0  0  0  0  0  0  0  0  0  0
  141.0162   70.1839  224.4360 H   0  0  0  0  0  0  0  0  0  0  0  0
  139.3625   71.8740  225.8147 H   0  0  0  0  0  0  0  0  0  0  0  0
  138.9023   70.1924  227.5116 H   0  0  0  0  0  0  0  0  0  0  0  0
  140.4900   69.4774  227.4170 H   0  0  0  0  0  0  0  0  0  0  0  0
  139.6035   72.0851  228.7098 H   0  0  0  0  0  0  0  0  0  0  0  0
  140.9375   71.0179  229.2037 H   0  0  0  0  0  0  0  0  0  0  0  0
  141.0473   73.4107  227.5909 H   0  0  0  0  0  0  0  0  0  0  0  0
  142.4014   72.3849  228.0847 H   0  0  0  0  0  0  0  0  0  0  0  0
  141.6067   72.6172  225.4361 H   0  0  0  0  0  0  0  0  0  0  0  0
  142.3345   71.1354  226.0107 H   0  0  0  0  0  0  0  0  0  0  0  0
  142.0010   75.9449  219.6054 H   0  0  0  0  0  0  0  0  0  0  0  0
  142.8027   78.2804  219.7466 H   0  0  0  0  0  0  0  0  0  0  0  0
  142.7957   80.3723  221.0052 H   0  0  0  0  0  0  0  0  0  0  0  0
  140.5862   80.7293  224.6474 H   0  0  0  0  0  0  0  0  0  0  0  0
  139.8593   78.3812  224.3787 H   0  0  0  0  0  0  0  0  0  0  0  0
  1  2  2  0
  2  3  1  0
  3  4  1  0
  4  5  1  0
  5  6  2  0
  5  7  1  0
  7  8  1  0
  8  9  1  0
  9 10  1  0
 10 11  1  0
 11 12  1  0
 12 13  1  0
 13 14  1  0
 14 15  1  0
 15 16  1  0
 16 17  1  0
  2 18  1  0
 18 19  2  0
 19 20  1  0
 20 21  2  0
 21 22  1  0
 22 23  2  0
 23 24  1  0
 23 25  1  0
 25 26  2  0
 26 27  1  0
 27 28  2  0
 12  7  1  0
 17 13  1  0
 28 18  1  0
 27 21  1  0
  3 29  1  0
  4 30  1  0
  4 31  1  0
  8 32  1  0
  8 33  1  0
  9 34  1  0
  9 35  1  0
 10 36  1  0
 10 37  1  0
 11 38  1  0
 11 39  1  0
 12 40  1  6
 13 41  1  0
 14 42  1  0
 14 43  1  0
 15 44  1  0
 15 45  1  0
 16 46  1  0
 16 47  1  0
 17 48  1  0
 17 49  1  0
 19 50  1  0
 20 51  1  0
 22 52  1  0
 25 53  1  0
 26 54  1  0
M  END
>  <smiles>  (13) 
O=C(NCC(=O)N1CCCCC1C1CCCC1)c1ccc2cc(F)ccc2n1

>  <score_type>  (13) 
oracle

>  <origin>  (13) 
autodockgpu

>  <m_score__min__energy>  (13) 
-9.0999999999999996

>  <m_primary>  (13) 
energy

>  <rmsd>  (13) 
8.661528631780872

>  <m_score__min__rmsd>  (13) 
8.661528631780872

>  <meeko>  (13) 
{"free_energy": -8.51, "intermolecular_energy": -10.0, "internal_energy": -1.54, "cluster_size": 7, "cluster_id": 2, "rank_in_cluster": 2}

>  <energy>  (13) 
-8.75

>  <cluster_rmsd>  (13) 
0.6

>  <cluster>  (13) 
1

$$$$

     RDKit          3D

 54 57  0  0  0  0  0  0  0  0999 V2000
  140.9900   71.6350  221.2740 O   0  0  0  0  0  0  0  0  0  0  0  0
  140.4440   72.1300  222.3160 C   0  0  0  0  0  0  0  0  0  0  0  0
  139.9920   73.5010  222.3210 N   0  0  0  0  0  0  0  0  0  0  0  0
  140.1690   74.3160  221.1110 C   0  0  0  0  0  0  0  0  0  0  0  0
  140.4380   75.7130  221.4460 C   0  0  0  0  0  0  0  0  0  0  0  0
  139.8360   76.2080  222.4460 O   0  0  0  0  0  0  0  0  0  0  0  0
  141.3190   76.5770  220.7520 N   0  0  0  0  0  0  0  0  0  0  0  0
  142.4110   75.9930  220.0140 C   0  0  0  0  0  0  0  0  0  0  0  0
  142.4070   76.4290  218.5620 C   0  0  0  0  0  0  0  0  0  0  0  0
  142.5100   77.9170  218.5690 C   0  0  0  0  0  0  0  0  0  0  0  0
  141.4710   78.6170  219.3990 C   0  0  0  0  0  0  0  0  0  0  0  0
  141.1910   78.0190  220.7290 C   0  0  2  0  0  0  0  0  0  0  0  0
  141.8340   78.6730  221.9040 C   0  0  0  0  0  0  0  0  0  0  0  0
  142.2000   80.1240  221.7070 C   0  0  0  0  0  0  0  0  0  0  0  0
  142.5720   80.5520  223.1280 C   0  0  0  0  0  0  0  0  0  0  0  0
  141.8490   79.6360  224.0640 C   0  0  0  0  0  0  0  0  0  0  0  0
  141.0430   78.6790  223.1680 C   0  0  0  0  0  0  0  0  0  0  0  0
  140.2640   71.3270  223.5250 C   0  0  0  0  0  0  0  0  0  0  0  0
  139.5960   70.1270  223.4290 C   0  0  0  0  0  0  0  0  0  0  0  0
  139.3750   69.2970  224.5060 C   0  0  0  0  0  0  0  0  0  0  0  0
  139.8560   69.7120  225.7280 C   0  0  0  0  0  0  0  0  0  0  0  0
  139.6900   68.9600  226.8700 C   0  0  0  0  0  0  0  0  0  0  0  0
  140.1580   69.3450  228.1010 C   0  0  0  0  0  0  0  0  0  0  0  0
  139.9530   68.5400  229.1920 F   0  0  0  0  0  0  0  0  0  0  0  0
  140.8290   70.5490  228.1950 C   0  0  0  0  0  0  0  0  0  0  0  0
  140.9980   71.3110  227.0470 C   0  0  0  0  0  0  0  0  0  0  0  0
  140.5330   70.9270  225.8220 C   0  0  0  0  0  0  0  0  0  0  0  0
  140.7270   71.7110  224.7320 N   0  0  0  0  0  0  0  0  0  0  0  0
  139.5490   73.8830  223.1870 H   0  0  0  0  0  0  0  0  0  0  0  0
  141.0145   73.9174  220.5311 H   0  0  0  0  0  0  0  0  0  0  0  0
  139.2396   74.2726  220.5242 H   0  0  0  0  0  0  0  0  0  0  0  0
  143.3595   76.3037  220.4763 H   0  0  0  0  0  0  0  0  0  0  0  0
  142.2964   74.8994  220.0426 H   0  0  0  0  0  0  0  0  0  0  0  0
  143.2648   75.9907  218.0308 H   0  0  0  0  0  0  0  0  0  0  0  0
  141.4938   76.0948  218.0477 H   0  0  0  0  0  0  0  0  0  0  0  0
  143.5012   78.1895  218.9605 H   0  0  0  0  0  0  0  0  0  0  0  0
  142.3484   78.2433  217.5310 H   0  0  0  0  0  0  0  0  0  0  0  0
  141.8088   79.6515  219.5592 H   0  0  0  0  0  0  0  0  0  0  0  0
  140.5321   78.5336  218.8320 H   0  0  0  0  0  0  0  0  0  0  0  0
  140.1247   78.2515  220.8668 H   0  0  0  0  0  0  0  0  0  0  0  0
  142.7188   78.0253  221.9915 H   0  0  0  0  0  0  0  0  0  0  0  0
  143.0528   80.2318  221.0206 H   0  0  0  0  0  0  0  0  0  0  0  0
  141.3978   80.7273  221.2570 H   0  0  0  0  0  0  0  0  0  0  0  0
  143.6583   80.4638  223.2770 H   0  0  0  0  0  0  0  0  0  0  0  0
  142.2906   81.5999  223.3087 H   0  0  0  0  0  0  0  0  0  0  0  0
  142.5656   79.0729  224.6799 H   0  0  0  0  0  0  0  0  0  0  0  0
  141.1977   80.1918  224.7546 H   0  0  0  0  0  0  0  0  0  0  0  0
  140.9906   77.6724  223.6084 H   0  0  0  0  0  0  0  0  0  0  0  0
  139.9967   78.9880  223.0278 H   0  0  0  0  0  0  0  0  0  0  0  0
  139.2200   69.8155  222.4433 H   0  0  0  0  0  0  0  0  0  0  0  0
  138.8375   68.3437  224.3948 H   0  0  0  0  0  0  0  0  0  0  0  0
  139.1550   68.0021  226.7911 H   0  0  0  0  0  0  0  0  0  0  0  0
  141.2220   70.8974  229.1615 H   0  0  0  0  0  0  0  0  0  0  0  0
  141.5317   72.2694  227.1280 H   0  0  0  0  0  0  0  0  0  0  0  0
  1  2  2  0
  2  3  1  0
  3  4  1  0
  4  5  1  0
  5  6  2  0
  5  7  1  0
  7  8  1  0
  8  9  1  0
  9 10  1  0
 10 11  1  0
 11 12  1  0
 12 13  1  0
 13 14  1  0
 14 15  1  0
 15 16  1  0
 16 17  1  0
  2 18  1  0
 18 19  2  0
 19 20  1  0
 20 21  2  0
 21 22  1  0
 22 23  2  0
 23 24  1  0
 23 25  1  0
 25 26  2  0
 26 27  1  0
 27 28  2  0
 12  7  1  0
 17 13  1  0
 28 18  1  0
 27 21  1  0
  3 29  1  0
  4 30  1  0
  4 31  1  0
  8 32  1  0
  8 33  1  0
  9 34  1  0
  9 35  1  0
 10 36  1  0
 10 37  1  0
 11 38  1  0
 11 39  1  0
 12 40  1  1
 13 41  1  0
 14 42  1  0
 14 43  1  0
 15 44  1  0
 15 45  1  0
 16 46  1  0
 16 47  1  0
 17 48  1  0
 17 49  1  0
 19 50  1  0
 20 51  1  0
 22 52  1  0
 25 53  1  0
 26 54  1  0
M  END
>  <smiles>  (14) 
O=C(NCC(=O)N1CCCCC1C1CCCC1)c1ccc2cc(F)ccc2n1

>  <score_type>  (14) 
oracle

>  <origin>  (14) 
autodockgpu

>  <m_score__min__energy>  (14) 
-9.0999999999999996

>  <m_primary>  (14) 
energy

>  <rmsd>  (14) 
2.073406666506777

>  <m_score__min__rmsd>  (14) 
2.073406666506777

>  <meeko>  (14) 
{"free_energy": -8.97, "intermolecular_energy": -10.46, "internal_energy": -1.53, "cluster_size": 42, "cluster_id": 1, "rank_in_cluster": 4}

>  <energy>  (14) 
-8.75

>  <cluster_rmsd>  (14) 
0.61

>  <cluster>  (14) 
1

$$$$

     RDKit          3D

 54 57  0  0  0  0  0  0  0  0999 V2000
  141.2270   72.0640  221.6250 O   0  0  0  0  0  0  0  0  0  0  0  0
  140.3080   72.2370  222.4950 C   0  0  0  0  0  0  0  0  0  0  0  0
  139.3320   73.2850  222.3270 N   0  0  0  0  0  0  0  0  0  0  0  0
  139.4100   74.1510  221.1420 C   0  0  0  0  0  0  0  0  0  0  0  0
  140.6390   74.9430  221.1420 C   0  0  0  0  0  0  0  0  0  0  0  0
  140.9230   75.5930  222.1920 O   0  0  0  0  0  0  0  0  0  0  0  0
  141.5540   75.0530  220.0670 N   0  0  0  0  0  0  0  0  0  0  0  0
  141.0480   74.9400  218.7230 C   0  0  0  0  0  0  0  0  0  0  0  0
  141.4200   76.1430  217.8770 C   0  0  0  0  0  0  0  0  0  0  0  0
  142.9100   76.2120  217.8770 C   0  0  0  0  0  0  0  0  0  0  0  0
  143.5410   76.2300  219.2410 C   0  0  0  0  0  0  0  0  0  0  0  0
  142.9750   75.2790  220.2310 C   0  0  2  0  0  0  0  0  0  0  0  0
  143.7360   74.0190  220.4560 C   0  0  0  0  0  0  0  0  0  0  0  0
  143.5240   72.9480  219.4140 C   0  0  0  0  0  0  0  0  0  0  0  0
  144.6110   71.9330  219.7750 C   0  0  0  0  0  0  0  0  0  0  0  0
  145.6890   72.6850  220.4900 C   0  0  0  0  0  0  0  0  0  0  0  0
  145.2210   74.1490  220.5270 C   0  0  0  0  0  0  0  0  0  0  0  0
  140.2230   71.3800  223.6780 C   0  0  0  0  0  0  0  0  0  0  0  0
  139.6330   70.1430  223.5580 C   0  0  0  0  0  0  0  0  0  0  0  0
  139.5050   69.2620  224.6110 C   0  0  0  0  0  0  0  0  0  0  0  0
  139.9980   69.6660  225.8310 C   0  0  0  0  0  0  0  0  0  0  0  0
  139.9210   68.8640  226.9500 C   0  0  0  0  0  0  0  0  0  0  0  0
  140.4040   69.2370  228.1780 C   0  0  0  0  0  0  0  0  0  0  0  0
  140.2890   68.3820  229.2440 F   0  0  0  0  0  0  0  0  0  0  0  0
  140.9950   70.4800  228.2970 C   0  0  0  0  0  0  0  0  0  0  0  0
  141.0740   71.2910  227.1720 C   0  0  0  0  0  0  0  0  0  0  0  0
  140.5950   70.9200  225.9490 C   0  0  0  0  0  0  0  0  0  0  0  0
  140.7000   71.7530  224.8840 N   0  0  0  0  0  0  0  0  0  0  0  0
  138.5900   73.4070  223.0530 H   0  0  0  0  0  0  0  0  0  0  0  0
  139.3877   73.5243  220.2383 H   0  0  0  0  0  0  0  0  0  0  0  0
  138.5530   74.8404  221.1591 H   0  0  0  0  0  0  0  0  0  0  0  0
  141.4682   74.0353  218.2594 H   0  0  0  0  0  0  0  0  0  0  0  0
  139.9506   74.8851  218.7747 H   0  0  0  0  0  0  0  0  0  0  0  0
  141.0448   76.0172  216.8506 H   0  0  0  0  0  0  0  0  0  0  0  0
  140.9776   77.0662  218.2794 H   0  0  0  0  0  0  0  0  0  0  0  0
  143.2930   75.3351  217.3345 H   0  0  0  0  0  0  0  0  0  0  0  0
  143.1753   77.1675  217.4009 H   0  0  0  0  0  0  0  0  0  0  0  0
  144.6090   75.9956  219.1212 H   0  0  0  0  0  0  0  0  0  0  0  0
  143.3440   77.2334  219.6464 H   0  0  0  0  0  0  0  0  0  0  0  0
  143.1090   75.8234  221.1774 H   0  0  0  0  0  0  0  0  0  0  0  0
  143.3131   73.7437  221.4334 H   0  0  0  0  0  0  0  0  0  0  0  0
  142.5205   72.5047  219.4949 H   0  0  0  0  0  0  0  0  0  0  0  0
  143.5876   73.3169  218.3796 H   0  0  0  0  0  0  0  0  0  0  0  0
  144.1967   71.1521  220.4296 H   0  0  0  0  0  0  0  0  0  0  0  0
  145.0057   71.4419  218.8733 H   0  0  0  0  0  0  0  0  0  0  0  0
  145.8147   72.2966  221.5115 H   0  0  0  0  0  0  0  0  0  0  0  0
  146.6601   72.5820  219.9837 H   0  0  0  0  0  0  0  0  0  0  0  0
  145.5321   74.6417  221.4600 H   0  0  0  0  0  0  0  0  0  0  0  0
  145.6450   74.7640  219.7195 H   0  0  0  0  0  0  0  0  0  0  0  0
  139.2444   69.8420  222.5739 H   0  0  0  0  0  0  0  0  0  0  0  0
  139.0294   68.2786  224.4816 H   0  0  0  0  0  0  0  0  0  0  0  0
  139.4484   67.8754  226.8527 H   0  0  0  0  0  0  0  0  0  0  0  0
  141.3950   70.8207  229.2634 H   0  0  0  0  0  0  0  0  0  0  0  0
  141.5453   72.2799  227.2716 H   0  0  0  0  0  0  0  0  0  0  0  0
  1  2  2  0
  2  3  1  0
  3  4  1  0
  4  5  1  0
  5  6  2  0
  5  7  1  0
  7  8  1  0
  8  9  1  0
  9 10  1  0
 10 11  1  0
 11 12  1  0
 12 13  1  0
 13 14  1  0
 14 15  1  0
 15 16  1  0
 16 17  1  0
  2 18  1  0
 18 19  2  0
 19 20  1  0
 20 21  2  0
 21 22  1  0
 22 23  2  0
 23 24  1  0
 23 25  1  0
 25 26  2  0
 26 27  1  0
 27 28  2  0
 12  7  1  0
 17 13  1  0
 28 18  1  0
 27 21  1  0
  3 29  1  0
  4 30  1  0
  4 31  1  0
  8 32  1  0
  8 33  1  0
  9 34  1  0
  9 35  1  0
 10 36  1  0
 10 37  1  0
 11 38  1  0
 11 39  1  0
 12 40  1  1
 13 41  1  0
 14 42  1  0
 14 43  1  0
 15 44  1  0
 15 45  1  0
 16 46  1  0
 16 47  1  0
 17 48  1  0
 17 49  1  0
 19 50  1  0
 20 51  1  0
 22 52  1  0
 25 53  1  0
 26 54  1  0
M  END
>  <smiles>  (15) 
O=C(NCC(=O)N1CCCCC1C1CCCC1)c1ccc2cc(F)ccc2n1

>  <score_type>  (15) 
oracle

>  <origin>  (15) 
autodockgpu

>  <m_score__min__energy>  (15) 
-9.0999999999999996

>  <m_primary>  (15) 
energy

>  <rmsd>  (15) 
1.782756209819377

>  <m_score__min__rmsd>  (15) 
1.782756209819377

>  <meeko>  (15) 
{"free_energy": -8.22, "intermolecular_energy": -9.71, "internal_energy": -1.67, "cluster_size": 42, "cluster_id": 1, "rank_in_cluster": 33}

>  <energy>  (15) 
-8.74

>  <cluster_rmsd>  (15) 
0.69

>  <cluster>  (15) 
1

$$$$

     RDKit          3D

 54 57  0  0  0  0  0  0  0  0999 V2000
  138.9330   72.0420  221.3600 O   0  0  0  0  0  0  0  0  0  0  0  0
  139.7820   72.2460  222.2910 C   0  0  0  0  0  0  0  0  0  0  0  0
  140.7600   73.2990  222.1680 N   0  0  0  0  0  0  0  0  0  0  0  0
  140.7650   74.1320  220.9580 C   0  0  0  0  0  0  0  0  0  0  0  0
  140.5350   75.5390  221.2800 C   0  0  0  0  0  0  0  0  0  0  0  0
  139.6690   75.8100  222.1650 O   0  0  0  0  0  0  0  0  0  0  0  0
  141.1980   76.6440  220.6900 N   0  0  0  0  0  0  0  0  0  0  0  0
  142.4940   76.4270  220.0970 C   0  0  0  0  0  0  0  0  0  0  0  0
  142.5350   76.8820  218.6510 C   0  0  0  0  0  0  0  0  0  0  0  0
  142.1920   78.3340  218.6570 C   0  0  0  0  0  0  0  0  0  0  0  0
  140.9010   78.6740  219.3470 C   0  0  0  0  0  0  0  0  0  0  0  0
  140.6530   77.9840  220.6390 C   0  0  2  0  0  0  0  0  0  0  0  0
  140.9280   78.7660  221.8760 C   0  0  0  0  0  0  0  0  0  0  0  0
  141.3870   77.9490  223.0600 C   0  0  0  0  0  0  0  0  0  0  0  0
  141.8280   79.0350  224.0430 C   0  0  0  0  0  0  0  0  0  0  0  0
  142.1880   80.2390  223.2310 C   0  0  0  0  0  0  0  0  0  0  0  0
  141.9640   79.8330  221.7650 C   0  0  0  0  0  0  0  0  0  0  0  0
  139.7860   71.4210  223.4990 C   0  0  0  0  0  0  0  0  0  0  0  0
  139.0960   70.2300  223.4890 C   0  0  0  0  0  0  0  0  0  0  0  0
  139.0380   69.3810  224.5730 C   0  0  0  0  0  0  0  0  0  0  0  0
  139.7110   69.7680  225.7100 C   0  0  0  0  0  0  0  0  0  0  0  0
  139.7180   68.9960  226.8510 C   0  0  0  0  0  0  0  0  0  0  0  0
  140.3790   69.3540  227.9990 C   0  0  0  0  0  0  0  0  0  0  0  0
  140.3380   68.5290  229.0950 F   0  0  0  0  0  0  0  0  0  0  0  0
  141.0700   70.5490  228.0070 C   0  0  0  0  0  0  0  0  0  0  0  0
  141.0650   71.3310  226.8600 C   0  0  0  0  0  0  0  0  0  0  0  0
  140.4080   70.9750  225.7170 C   0  0  0  0  0  0  0  0  0  0  0  0
  140.4380   71.7780  224.6240 N   0  0  0  0  0  0  0  0  0  0  0  0
  141.4460   73.4460  222.9430 H   0  0  0  0  0  0  0  0  0  0  0  0
  141.7405   74.0335  220.4594 H   0  0  0  0  0  0  0  0  0  0  0  0
  139.9540   73.7901  220.2982 H   0  0  0  0  0  0  0  0  0  0  0  0
  143.2461   76.9902  220.6690 H   0  0  0  0  0  0  0  0  0  0  0  0
  142.7050   75.3477  220.1219 H   0  0  0  0  0  0  0  0  0  0  0  0
  143.5410   76.7304  218.2327 H   0  0  0  0  0  0  0  0  0  0  0  0
  141.8298   76.3080  218.0319 H   0  0  0  0  0  0  0  0  0  0  0  0
  143.0041   78.8753  219.1645 H   0  0  0  0  0  0  0  0  0  0  0  0
  142.0667   78.6268  217.6041 H   0  0  0  0  0  0  0  0  0  0  0  0
  140.8961   79.7574  219.5374 H   0  0  0  0  0  0  0  0  0  0  0  0
  140.1037   78.3329  218.6703 H   0  0  0  0  0  0  0  0  0  0  0  0
  139.5572   77.8878  220.6447 H   0  0  0  0  0  0  0  0  0  0  0  0
  139.9271   79.1973  222.0248 H   0  0  0  0  0  0  0  0  0  0  0  0
  140.5646   77.3462  223.4727 H   0  0  0  0  0  0  0  0  0  0  0  0
  142.1764   77.2220  222.8183 H   0  0  0  0  0  0  0  0  0  0  0  0
  141.0061   79.2765  224.7330 H   0  0  0  0  0  0  0  0  0  0  0  0
  142.6845   78.6963  224.6443 H   0  0  0  0  0  0  0  0  0  0  0  0
  141.5417   81.0884  223.4970 H   0  0  0  0  0  0  0  0  0  0  0  0
  143.2261   80.5551  223.4111 H   0  0  0  0  0  0  0  0  0  0  0  0
  141.5970   80.6821  221.1697 H   0  0  0  0  0  0  0  0  0  0  0  0
  142.8820   79.4997  221.2588 H   0  0  0  0  0  0  0  0  0  0  0  0
  138.5645   69.9416  222.5701 H   0  0  0  0  0  0  0  0  0  0  0  0
  138.4782   68.4350  224.5316 H   0  0  0  0  0  0  0  0  0  0  0  0
  139.1659   68.0446  226.8413 H   0  0  0  0  0  0  0  0  0  0  0  0
  141.6144   70.8755  228.9054 H   0  0  0  0  0  0  0  0  0  0  0  0
  141.6165   72.2827  226.8724 H   0  0  0  0  0  0  0  0  0  0  0  0
  1  2  2  0
  2  3  1  0
  3  4  1  0
  4  5  1  0
  5  6  2  0
  5  7  1  0
  7  8  1  0
  8  9  1  0
  9 10  1  0
 10 11  1  0
 11 12  1  0
 12 13  1  0
 13 14  1  0
 14 15  1  0
 15 16  1  0
 16 17  1  0
  2 18  1  0
 18 19  2  0
 19 20  1  0
 20 21  2  0
 21 22  1  0
 22 23  2  0
 23 24  1  0
 23 25  1  0
 25 26  2  0
 26 27  1  0
 27 28  2  0
 12  7  1  0
 17 13  1  0
 28 18  1  0
 27 21  1  0
  3 29  1  0
  4 30  1  0
  4 31  1  0
  8 32  1  0
  8 33  1  0
  9 34  1  0
  9 35  1  0
 10 36  1  0
 10 37  1  0
 11 38  1  0
 11 39  1  0
 12 40  1  6
 13 41  1  0
 14 42  1  0
 14 43  1  0
 15 44  1  0
 15 45  1  0
 16 46  1  0
 16 47  1  0
 17 48  1  0
 17 49  1  0
 19 50  1  0
 20 51  1  0
 22 52  1  0
 25 53  1  0
 26 54  1  0
M  END
>  <smiles>  (16) 
O=C(NCC(=O)N1CCCCC1C1CCCC1)c1ccc2cc(F)ccc2n1

>  <score_type>  (16) 
oracle

>  <origin>  (16) 
autodockgpu

>  <m_score__min__energy>  (16) 
-9.0999999999999996

>  <m_primary>  (16) 
energy

>  <rmsd>  (16) 
2.2216405456092327

>  <m_score__min__rmsd>  (16) 
2.2216405456092327

>  <meeko>  (16) 
{"free_energy": -8.06, "intermolecular_energy": -9.56, "internal_energy": -1.47, "cluster_size": 42, "cluster_id": 1, "rank_in_cluster": 37}

>  <energy>  (16) 
-8.7

>  <cluster_rmsd>  (16) 
0.61

>  <cluster>  (16) 
1

$$$$

     RDKit          3D

 54 57  0  0  0  0  0  0  0  0999 V2000
  140.6990   74.0170  220.1380 O   0  0  0  0  0  0  0  0  0  0  0  0
  140.3270   74.6920  221.1560 C   0  0  0  0  0  0  0  0  0  0  0  0
  139.4490   74.1050  222.1390 N   0  0  0  0  0  0  0  0  0  0  0  0
  138.9910   72.7210  221.9510 C   0  0  0  0  0  0  0  0  0  0  0  0
  139.7420   71.7940  222.7950 C   0  0  0  0  0  0  0  0  0  0  0  0
  141.0010   71.7520  222.6540 O   0  0  0  0  0  0  0  0  0  0  0  0
  139.1900   70.9260  223.7690 N   0  0  0  0  0  0  0  0  0  0  0  0
  137.7730   70.6650  223.7290 C   0  0  0  0  0  0  0  0  0  0  0  0
  137.4760   69.1800  223.6570 C   0  0  0  0  0  0  0  0  0  0  0  0
  138.0920   68.5680  224.8700 C   0  0  0  0  0  0  0  0  0  0  0  0
  139.5530   68.8700  225.0560 C   0  0  0  0  0  0  0  0  0  0  0  0
  139.9620   70.2760  224.8070 C   0  0  2  0  0  0  0  0  0  0  0  0
  140.1540   71.1370  226.0070 C   0  0  0  0  0  0  0  0  0  0  0  0
  139.9800   70.4360  227.3330 C   0  0  0  0  0  0  0  0  0  0  0  0
  140.4920   71.4880  228.3180 C   0  0  0  0  0  0  0  0  0  0  0  0
  141.4410   72.3660  227.5650 C   0  0  0  0  0  0  0  0  0  0  0  0
  141.4830   71.8020  226.1350 C   0  0  0  0  0  0  0  0  0  0  0  0
  140.7770   76.0700  221.3490 C   0  0  0  0  0  0  0  0  0  0  0  0
  141.6460   76.6180  220.4330 C   0  0  0  0  0  0  0  0  0  0  0  0
  142.1280   77.9050  220.5250 C   0  0  0  0  0  0  0  0  0  0  0  0
  141.7050   78.6600  221.5970 C   0  0  0  0  0  0  0  0  0  0  0  0
  142.1260   79.9580  221.7850 C   0  0  0  0  0  0  0  0  0  0  0  0
  141.7220   80.7350  222.8410 C   0  0  0  0  0  0  0  0  0  0  0  0
  142.1860   82.0200  222.9590 F   0  0  0  0  0  0  0  0  0  0  0  0
  140.8500   80.1840  223.7600 C   0  0  0  0  0  0  0  0  0  0  0  0
  140.4240   78.8750  223.5740 C   0  0  0  0  0  0  0  0  0  0  0  0
  140.8250   78.1020  222.5230 C   0  0  0  0  0  0  0  0  0  0  0  0
  140.3770   76.8290  222.3900 N   0  0  0  0  0  0  0  0  0  0  0  0
  139.1580   74.6780  222.9630 H   0  0  0  0  0  0  0  0  0  0  0  0
  137.9240   72.6582  222.2110 H   0  0  0  0  0  0  0  0  0  0  0  0
  139.1524   72.4417  220.8994 H   0  0  0  0  0  0  0  0  0  0  0  0
  137.3092   71.0773  224.6373 H   0  0  0  0  0  0  0  0  0  0  0  0
  137.3631   71.1399  222.8254 H   0  0  0  0  0  0  0  0  0  0  0  0
  136.3894   69.0090  223.6547 H   0  0  0  0  0  0  0  0  0  0  0  0
  137.8825   68.7362  222.7362 H   0  0  0  0  0  0  0  0  0  0  0  0
  137.5508   68.9391  225.7528 H   0  0  0  0  0  0  0  0  0  0  0  0
  138.0152   67.4784  224.7400 H   0  0  0  0  0  0  0  0  0  0  0  0
  139.8192   68.6204  226.0937 H   0  0  0  0  0  0  0  0  0  0  0  0
  140.0796   68.2687  224.3003 H   0  0  0  0  0  0  0  0  0  0  0  0
  140.9850   70.1549  224.4212 H   0  0  0  0  0  0  0  0  0  0  0  0
  139.3582   71.8710  225.8123 H   0  0  0  0  0  0  0  0  0  0  0  0
  138.9238   70.1928  227.5210 H   0  0  0  0  0  0  0  0  0  0  0  0
  140.5076   69.4730  227.3983 H   0  0  0  0  0  0  0  0  0  0  0  0
  139.6522   72.0837  228.7051 H   0  0  0  0  0  0  0  0  0  0  0  0
  140.9919   71.0133  229.1751 H   0  0  0  0  0  0  0  0  0  0  0  0
  141.0788   73.4046  227.5573 H   0  0  0  0  0  0  0  0  0  0  0  0
  142.4391   72.3760  228.0273 H   0  0  0  0  0  0  0  0  0  0  0  0
  141.5970   72.6070  225.3941 H   0  0  0  0  0  0  0  0  0  0  0  0
  142.3302   71.1232  225.9577 H   0  0  0  0  0  0  0  0  0  0  0  0
  141.9717   75.9972  219.5853 H   0  0  0  0  0  0  0  0  0  0  0  0
  142.8212   78.3127  219.7745 H   0  0  0  0  0  0  0  0  0  0  0  0
  142.8209   80.3933  221.0518 H   0  0  0  0  0  0  0  0  0  0  0  0
  140.4999   80.7704  224.6222 H   0  0  0  0  0  0  0  0  0  0  0  0
  139.7303   78.4406  224.3089 H   0  0  0  0  0  0  0  0  0  0  0  0
  1  2  2  0
  2  3  1  0
  3  4  1  0
  4  5  1  0
  5  6  2  0
  5  7  1  0
  7  8  1  0
  8  9  1  0
  9 10  1  0
 10 11  1  0
 11 12  1  0
 12 13  1  0
 13 14  1  0
 14 15  1  0
 15 16  1  0
 16 17  1  0
  2 18  1  0
 18 19  2  0
 19 20  1  0
 20 21  2  0
 21 22  1  0
 22 23  2  0
 23 24  1  0
 23 25  1  0
 25 26  2  0
 26 27  1  0
 27 28  2  0
 12  7  1  0
 17 13  1  0
 28 18  1  0
 27 21  1  0
  3 29  1  0
  4 30  1  0
  4 31  1  0
  8 32  1  0
  8 33  1  0
  9 34  1  0
  9 35  1  0
 10 36  1  0
 10 37  1  0
 11 38  1  0
 11 39  1  0
 12 40  1  6
 13 41  1  0
 14 42  1  0
 14 43  1  0
 15 44  1  0
 15 45  1  0
 16 46  1  0
 16 47  1  0
 17 48  1  0
 17 49  1  0
 19 50  1  0
 20 51  1  0
 22 52  1  0
 25 53  1  0
 26 54  1  0
M  END
>  <smiles>  (17) 
O=C(NCC(=O)N1CCCCC1C1CCCC1)c1ccc2cc(F)ccc2n1

>  <score_type>  (17) 
oracle

>  <origin>  (17) 
autodockgpu

>  <m_score__min__energy>  (17) 
-9.0999999999999996

>  <m_primary>  (17) 
energy

>  <rmsd>  (17) 
8.678459320714223

>  <m_score__min__rmsd>  (17) 
8.678459320714223

>  <meeko>  (17) 
{"free_energy": -8.47, "intermolecular_energy": -9.96, "internal_energy": -1.54, "cluster_size": 7, "cluster_id": 2, "rank_in_cluster": 5}

>  <energy>  (17) 
-8.7

>  <cluster_rmsd>  (17) 
0.41

>  <cluster>  (17) 
1

$$$$

     RDKit          3D

 54 57  0  0  0  0  0  0  0  0999 V2000
  141.1960   71.7150  221.3930 O   0  0  0  0  0  0  0  0  0  0  0  0
  140.5590   72.2390  222.3670 C   0  0  0  0  0  0  0  0  0  0  0  0
  140.0770   73.5960  222.2770 N   0  0  0  0  0  0  0  0  0  0  0  0
  140.3300   74.3640  221.0510 C   0  0  0  0  0  0  0  0  0  0  0  0
  140.4790   75.7900  221.3370 C   0  0  0  0  0  0  0  0  0  0  0  0
  139.7650   76.2850  222.2600 O   0  0  0  0  0  0  0  0  0  0  0  0
  141.3570   76.6820  220.6750 N   0  0  0  0  0  0  0  0  0  0  0  0
  142.4530   76.1280  219.9190 C   0  0  0  0  0  0  0  0  0  0  0  0
  142.4490   76.6140  218.4820 C   0  0  0  0  0  0  0  0  0  0  0  0
  142.5450   78.1010  218.5410 C   0  0  0  0  0  0  0  0  0  0  0  0
  141.5010   78.7680  219.3930 C   0  0  0  0  0  0  0  0  0  0  0  0
  141.2220   78.1230  220.7010 C   0  0  2  0  0  0  0  0  0  0  0  0
  141.8600   78.7390  221.8980 C   0  0  0  0  0  0  0  0  0  0  0  0
  142.2020   80.2020  221.7590 C   0  0  0  0  0  0  0  0  0  0  0  0
  142.5740   80.5790  223.1950 C   0  0  0  0  0  0  0  0  0  0  0  0
  141.8710   79.6130  224.0960 C   0  0  0  0  0  0  0  0  0  0  0  0
  141.0760   78.6810  223.1660 C   0  0  0  0  0  0  0  0  0  0  0  0
  140.3020   71.4810  223.5920 C   0  0  0  0  0  0  0  0  0  0  0  0
  139.6240   70.2870  223.5020 C   0  0  0  0  0  0  0  0  0  0  0  0
  139.3330   69.5000  224.5950 C   0  0  0  0  0  0  0  0  0  0  0  0
  139.7530   69.9530  225.8260 C   0  0  0  0  0  0  0  0  0  0  0  0
  139.5140   69.2440  226.9830 C   0  0  0  0  0  0  0  0  0  0  0  0
  139.9190   69.6690  228.2230 C   0  0  0  0  0  0  0  0  0  0  0  0
  139.6440   68.9060  229.3290 F   0  0  0  0  0  0  0  0  0  0  0  0
  140.6000   70.8680  228.3110 C   0  0  0  0  0  0  0  0  0  0  0  0
  140.8420   71.5850  227.1470 C   0  0  0  0  0  0  0  0  0  0  0  0
  140.4390   71.1630  225.9130 C   0  0  0  0  0  0  0  0  0  0  0  0
  140.7030   71.9040  224.8080 N   0  0  0  0  0  0  0  0  0  0  0  0
  139.5580   74.0030  223.0880 H   0  0  0  0  0  0  0  0  0  0  0  0
  141.2535   73.9946  220.5813 H   0  0  0  0  0  0  0  0  0  0  0  0
  139.4706   74.2337  220.3769 H   0  0  0  0  0  0  0  0  0  0  0  0
  143.3995   76.4267  220.3932 H   0  0  0  0  0  0  0  0  0  0  0  0
  142.3433   75.0335  219.9100 H   0  0  0  0  0  0  0  0  0  0  0  0
  143.3096   76.1984  217.9373 H   0  0  0  0  0  0  0  0  0  0  0  0
  141.5383   76.2935  217.9548 H   0  0  0  0  0  0  0  0  0  0  0  0
  143.5343   78.3641  218.9437 H   0  0  0  0  0  0  0  0  0  0  0  0
  142.3834   78.4622  217.5146 H   0  0  0  0  0  0  0  0  0  0  0  0
  141.8339   79.7979  219.5893 H   0  0  0  0  0  0  0  0  0  0  0  0
  140.5633   78.7005  218.8219 H   0  0  0  0  0  0  0  0  0  0  0  0
  140.1543   78.3451  220.8445 H   0  0  0  0  0  0  0  0  0  0  0  0
  142.7552   78.1022  221.9543 H   0  0  0  0  0  0  0  0  0  0  0  0
  143.0498   80.3511  221.0741 H   0  0  0  0  0  0  0  0  0  0  0  0
  141.3880   80.8099  221.3373 H   0  0  0  0  0  0  0  0  0  0  0  0
  143.6624   80.5036  223.3357 H   0  0  0  0  0  0  0  0  0  0  0  0
  142.2760   81.6138  223.4194 H   0  0  0  0  0  0  0  0  0  0  0  0
  142.6002   79.0369  224.6846 H   0  0  0  0  0  0  0  0  0  0  0  0
  141.2146   80.1291  224.8120 H   0  0  0  0  0  0  0  0  0  0  0  0
  141.0421   77.6566  223.5652 H   0  0  0  0  0  0  0  0  0  0  0  0
  140.0242   78.9789  223.0437 H   0  0  0  0  0  0  0  0  0  0  0  0
  139.2983   69.9440  222.5089 H   0  0  0  0  0  0  0  0  0  0  0  0
  138.7883   68.5502  224.4889 H   0  0  0  0  0  0  0  0  0  0  0  0
  138.9716   68.2899  226.9088 H   0  0  0  0  0  0  0  0  0  0  0  0
  140.9438   71.2472  229.2846 H   0  0  0  0  0  0  0  0  0  0  0  0
  141.3845   72.5389  227.2228 H   0  0  0  0  0  0  0  0  0  0  0  0
  1  2  2  0
  2  3  1  0
  3  4  1  0
  4  5  1  0
  5  6  2  0
  5  7  1  0
  7  8  1  0
  8  9  1  0
  9 10  1  0
 10 11  1  0
 11 12  1  0
 12 13  1  0
 13 14  1  0
 14 15  1  0
 15 16  1  0
 16 17  1  0
  2 18  1  0
 18 19  2  0
 19 20  1  0
 20 21  2  0
 21 22  1  0
 22 23  2  0
 23 24  1  0
 23 25  1  0
 25 26  2  0
 26 27  1  0
 27 28  2  0
 12  7  1  0
 17 13  1  0
 28 18  1  0
 27 21  1  0
  3 29  1  0
  4 30  1  0
  4 31  1  0
  8 32  1  0
  8 33  1  0
  9 34  1  0
  9 35  1  0
 10 36  1  0
 10 37  1  0
 11 38  1  0
 11 39  1  0
 12 40  1  1
 13 41  1  0
 14 42  1  0
 14 43  1  0
 15 44  1  0
 15 45  1  0
 16 46  1  0
 16 47  1  0
 17 48  1  0
 17 49  1  0
 19 50  1  0
 20 51  1  0
 22 52  1  0
 25 53  1  0
 26 54  1  0
M  END
>  <smiles>  (18) 
O=C(NCC(=O)N1CCCCC1C1CCCC1)c1ccc2cc(F)ccc2n1

>  <score_type>  (18) 
oracle

>  <origin>  (18) 
autodockgpu

>  <m_score__min__energy>  (18) 
-9.0999999999999996

>  <m_primary>  (18) 
energy

>  <rmsd>  (18) 
2.1785625262016755

>  <m_score__min__rmsd>  (18) 
2.1785625262016755

>  <meeko>  (18) 
{"free_energy": -8.91, "intermolecular_energy": -10.4, "internal_energy": -1.55, "cluster_size": 42, "cluster_id": 1, "rank_in_cluster": 7}

>  <energy>  (18) 
-8.68

>  <cluster_rmsd>  (18) 
0.43

>  <cluster>  (18) 
1

$$$$

     RDKit          3D

 54 57  0  0  0  0  0  0  0  0999 V2000
  138.4880   72.7490  221.7820 O   0  0  0  0  0  0  0  0  0  0  0  0
  139.5990   72.5530  222.3790 C   0  0  0  0  0  0  0  0  0  0  0  0
  140.7800   73.2800  221.9790 N   0  0  0  0  0  0  0  0  0  0  0  0
  140.6840   74.2470  220.8770 C   0  0  0  0  0  0  0  0  0  0  0  0
  141.9400   74.9720  220.6950 C   0  0  0  0  0  0  0  0  0  0  0  0
  143.0180   74.3710  220.9870 O   0  0  0  0  0  0  0  0  0  0  0  0
  142.0700   76.2980  220.2160 N   0  0  0  0  0  0  0  0  0  0  0  0
  143.1780   76.6060  219.3470 C   0  0  0  0  0  0  0  0  0  0  0  0
  142.7160   77.2220  218.0400 C   0  0  0  0  0  0  0  0  0  0  0  0
  141.9660   78.4600  218.4010 C   0  0  0  0  0  0  0  0  0  0  0  0
  140.8500   78.2570  219.3860 C   0  0  0  0  0  0  0  0  0  0  0  0
  141.1540   77.3710  220.5390 C   0  0  2  0  0  0  0  0  0  0  0  0
  141.4850   78.0430  221.8270 C   0  0  0  0  0  0  0  0  0  0  0  0
  142.1920   79.3700  221.6940 C   0  0  0  0  0  0  0  0  0  0  0  0
  142.1430   79.9000  223.1280 C   0  0  0  0  0  0  0  0  0  0  0  0
  140.9720   79.2500  223.7950 C   0  0  0  0  0  0  0  0  0  0  0  0
  140.3340   78.3470  222.7260 C   0  0  0  0  0  0  0  0  0  0  0  0
  139.7040   71.5910  223.4760 C   0  0  0  0  0  0  0  0  0  0  0  0
  139.1830   70.3290  223.3020 C   0  0  0  0  0  0  0  0  0  0  0  0
  139.2310   69.3520  224.2720 C   0  0  0  0  0  0  0  0  0  0  0  0
  139.8340   69.6810  225.4660 C   0  0  0  0  0  0  0  0  0  0  0  0
  139.9350   68.7800  226.5040 C   0  0  0  0  0  0  0  0  0  0  0  0
  140.5290   69.0770  227.7030 C   0  0  0  0  0  0  0  0  0  0  0  0
  140.5910   68.1240  228.6890 F   0  0  0  0  0  0  0  0  0  0  0  0
  141.0520   70.3440  227.8770 C   0  0  0  0  0  0  0  0  0  0  0  0
  140.9510   71.2550  226.8330 C   0  0  0  0  0  0  0  0  0  0  0  0
  140.3600   70.9600  225.6390 C   0  0  0  0  0  0  0  0  0  0  0  0
  140.2900   71.8890  224.6540 N   0  0  0  0  0  0  0  0  0  0  0  0
  141.6780   73.1010  222.4820 H   0  0  0  0  0  0  0  0  0  0  0  0
  140.4431   73.7090  219.9483 H   0  0  0  0  0  0  0  0  0  0  0  0
  139.8958   74.9744  221.1213 H   0  0  0  0  0  0  0  0  0  0  0  0
  143.8450   77.3155  219.8586 H   0  0  0  0  0  0  0  0  0  0  0  0
  143.7017   75.6668  219.1155 H   0  0  0  0  0  0  0  0  0  0  0  0
  143.5823   77.4719  217.4098 H   0  0  0  0  0  0  0  0  0  0  0  0
  142.0842   76.5241  217.4710 H   0  0  0  0  0  0  0  0  0  0  0  0
  142.6784   79.1773  218.8344 H   0  0  0  0  0  0  0  0  0  0  0  0
  141.4977   78.8195  217.4729 H   0  0  0  0  0  0  0  0  0  0  0  0
  140.5685   79.2431  219.7840 H   0  0  0  0  0  0  0  0  0  0  0  0
  140.0482   77.7525  218.8269 H   0  0  0  0  0  0  0  0  0  0  0  0
  140.1758   76.9107  220.7419 H   0  0  0  0  0  0  0  0  0  0  0  0
  142.1320   77.2647  222.2579 H   0  0  0  0  0  0  0  0  0  0  0  0
  143.2290   79.2381  221.3516 H   0  0  0  0  0  0  0  0  0  0  0  0
  141.7347   80.0447  220.9554 H   0  0  0  0  0  0  0  0  0  0  0  0
  143.0713   79.6412  223.6583 H   0  0  0  0  0  0  0  0  0  0  0  0
  142.0424   80.9953  223.1384 H   0  0  0  0  0  0  0  0  0  0  0  0
  141.3045   78.6503  224.6551 H   0  0  0  0  0  0  0  0  0  0  0  0
  140.2577   79.9939  224.1776 H   0  0  0  0  0  0  0  0  0  0  0  0
  139.9266   77.4286  223.1738 H   0  0  0  0  0  0  0  0  0  0  0  0
  139.4856   78.8165  222.2066 H   0  0  0  0  0  0  0  0  0  0  0  0
  138.7047   70.0887  222.3410 H   0  0  0  0  0  0  0  0  0  0  0  0
  138.8060   68.3520  224.1004 H   0  0  0  0  0  0  0  0  0  0  0  0
  139.5180   67.7719  226.3631 H   0  0  0  0  0  0  0  0  0  0  0  0
  141.5383   70.6256  228.8226 H   0  0  0  0  0  0  0  0  0  0  0  0
  141.3677   72.2630  226.9758 H   0  0  0  0  0  0  0  0  0  0  0  0
  1  2  2  0
  2  3  1  0
  3  4  1  0
  4  5  1  0
  5  6  2  0
  5  7  1  0
  7  8  1  0
  8  9  1  0
  9 10  1  0
 10 11  1  0
 11 12  1  0
 12 13  1  0
 13 14  1  0
 14 15  1  0
 15 16  1  0
 16 17  1  0
  2 18  1  0
 18 19  2  0
 19 20  1  0
 20 21  2  0
 21 22  1  0
 22 23  2  0
 23 24  1  0
 23 25  1  0
 25 26  2  0
 26 27  1  0
 27 28  2  0
 12  7  1  0
 17 13  1  0
 28 18  1  0
 27 21  1  0
  3 29  1  0
  4 30  1  0
  4 31  1  0
  8 32  1  0
  8 33  1  0
  9 34  1  0
  9 35  1  0
 10 36  1  0
 10 37  1  0
 11 38  1  0
 11 39  1  0
 12 40  1  1
 13 41  1  0
 14 42  1  0
 14 43  1  0
 15 44  1  0
 15 45  1  0
 16 46  1  0
 16 47  1  0
 17 48  1  0
 17 49  1  0
 19 50  1  0
 20 51  1  0
 22 52  1  0
 25 53  1  0
 26 54  1  0
M  END
>  <smiles>  (19) 
O=C(NCC(=O)N1CCCCC1C1CCCC1)c1ccc2cc(F)ccc2n1

>  <score_type>  (19) 
oracle

>  <origin>  (19) 
autodockgpu

>  <m_score__min__energy>  (19) 
-9.0999999999999996

>  <m_primary>  (19) 
energy

>  <rmsd>  (19) 
2.310287017826145

>  <m_score__min__rmsd>  (19) 
2.310287017826145

>  <meeko>  (19) 
{"free_energy": -7.72, "intermolecular_energy": -9.21, "internal_energy": -1.7, "cluster_size": 42, "cluster_id": 1, "rank_in_cluster": 42}

>  <energy>  (19) 
-8.63

>  <cluster_rmsd>  (19) 
0.75

>  <cluster>  (19) 
1

$$$$

     RDKit          3D

 54 57  0  0  0  0  0  0  0  0999 V2000
  140.9300   71.6220  221.2870 O   0  0  0  0  0  0  0  0  0  0  0  0
  140.4030   72.1200  222.3380 C   0  0  0  0  0  0  0  0  0  0  0  0
  139.9620   73.4940  222.3520 N   0  0  0  0  0  0  0  0  0  0  0  0
  140.1280   74.3100  221.1410 C   0  0  0  0  0  0  0  0  0  0  0  0
  140.4310   75.7000  221.4740 C   0  0  0  0  0  0  0  0  0  0  0  0
  139.8410   76.2120  222.4720 O   0  0  0  0  0  0  0  0  0  0  0  0
  141.3340   76.5410  220.7790 N   0  0  0  0  0  0  0  0  0  0  0  0
  142.4390   75.9320  220.0830 C   0  0  0  0  0  0  0  0  0  0  0  0
  142.4720   76.3310  218.6200 C   0  0  0  0  0  0  0  0  0  0  0  0
  142.5850   77.8180  218.5920 C   0  0  0  0  0  0  0  0  0  0  0  0
  141.5320   78.5450  219.3790 C   0  0  0  0  0  0  0  0  0  0  0  0
  141.2170   77.9830  220.7170 C   0  0  2  0  0  0  0  0  0  0  0  0
  141.8360   78.6620  221.8890 C   0  0  0  0  0  0  0  0  0  0  0  0
  142.1970   80.1120  221.6710 C   0  0  0  0  0  0  0  0  0  0  0  0
  142.5430   80.5690  223.0900 C   0  0  0  0  0  0  0  0  0  0  0  0
  141.8100   79.6650  224.0310 C   0  0  0  0  0  0  0  0  0  0  0  0
  141.0250   78.6870  223.1410 C   0  0  0  0  0  0  0  0  0  0  0  0
  140.2350   71.3160  223.5480 C   0  0  0  0  0  0  0  0  0  0  0  0
  139.5880   70.1050  223.4530 C   0  0  0  0  0  0  0  0  0  0  0  0
  139.3790   69.2740  224.5320 C   0  0  0  0  0  0  0  0  0  0  0  0
  139.8500   69.6990  225.7540 C   0  0  0  0  0  0  0  0  0  0  0  0
  139.6940   68.9460  226.8970 C   0  0  0  0  0  0  0  0  0  0  0  0
  140.1520   69.3430  228.1280 C   0  0  0  0  0  0  0  0  0  0  0  0
  139.9590   68.5360  229.2200 F   0  0  0  0  0  0  0  0  0  0  0  0
  140.8010   70.5590  228.2220 C   0  0  0  0  0  0  0  0  0  0  0  0
  140.9590   71.3210  227.0720 C   0  0  0  0  0  0  0  0  0  0  0  0
  140.5040   70.9270  225.8470 C   0  0  0  0  0  0  0  0  0  0  0  0
  140.6870   71.7110  224.7560 N   0  0  0  0  0  0  0  0  0  0  0  0
  139.5340   73.8790  223.2240 H   0  0  0  0  0  0  0  0  0  0  0  0
  140.9527   73.8974  220.5413 H   0  0  0  0  0  0  0  0  0  0  0  0
  139.1851   74.2865  220.5750 H   0  0  0  0  0  0  0  0  0  0  0  0
  143.3783   76.2489  220.5598 H   0  0  0  0  0  0  0  0  0  0  0  0
  142.3170   74.8401  220.1369 H   0  0  0  0  0  0  0  0  0  0  0  0
  143.3389   75.8740  218.1204 H   0  0  0  0  0  0  0  0  0  0  0  0
  141.5690   75.9895  218.0928 H   0  0  0  0  0  0  0  0  0  0  0  0
  143.5686   78.0941  218.9998 H   0  0  0  0  0  0  0  0  0  0  0  0
  142.4501   78.1190  217.5426 H   0  0  0  0  0  0  0  0  0  0  0  0
  141.8728   79.5812  219.5207 H   0  0  0  0  0  0  0  0  0  0  0  0
  140.6060   78.4527  218.7925 H   0  0  0  0  0  0  0  0  0  0  0  0
  140.1496   78.2262  220.8242 H   0  0  0  0  0  0  0  0  0  0  0  0
  142.7225   78.0207  222.0025 H   0  0  0  0  0  0  0  0  0  0  0  0
  143.0605   80.2122  220.9969 H   0  0  0  0  0  0  0  0  0  0  0  0
  141.3988   80.7019  221.1967 H   0  0  0  0  0  0  0  0  0  0  0  0
  143.6272   80.4908  223.2584 H   0  0  0  0  0  0  0  0  0  0  0  0
  142.2523   81.6182  223.2467 H   0  0  0  0  0  0  0  0  0  0  0  0
  142.5200   79.1180  224.6687 H   0  0  0  0  0  0  0  0  0  0  0  0
  141.1439   80.2293  224.7003 H   0  0  0  0  0  0  0  0  0  0  0  0
  140.9717   77.6885  223.5994 H   0  0  0  0  0  0  0  0  0  0  0  0
  139.9793   78.9870  222.9785 H   0  0  0  0  0  0  0  0  0  0  0  0
  139.2196   69.7848  222.4672 H   0  0  0  0  0  0  0  0  0  0  0  0
  138.8578   68.3116  224.4218 H   0  0  0  0  0  0  0  0  0  0  0  0
  139.1766   67.9784  226.8189 H   0  0  0  0  0  0  0  0  0  0  0  0
  141.1850   70.9165  229.1888 H   0  0  0  0  0  0  0  0  0  0  0  0
  141.4757   72.2888  227.1521 H   0  0  0  0  0  0  0  0  0  0  0  0
  1  2  2  0
  2  3  1  0
  3  4  1  0
  4  5  1  0
  5  6  2  0
  5  7  1  0
  7  8  1  0
  8  9  1  0
  9 10  1  0
 10 11  1  0
 11 12  1  0
 12 13  1  0
 13 14  1  0
 14 15  1  0
 15 16  1  0
 16 17  1  0
  2 18  1  0
 18 19  2  0
 19 20  1  0
 20 21  2  0
 21 22  1  0
 22 23  2  0
 23 24  1  0
 23 25  1  0
 25 26  2  0
 26 27  1  0
 27 28  2  0
 12  7  1  0
 17 13  1  0
 28 18  1  0
 27 21  1  0
  3 29  1  0
  4 30  1  0
  4 31  1  0
  8 32  1  0
  8 33  1  0
  9 34  1  0
  9 35  1  0
 10 36  1  0
 10 37  1  0
 11 38  1  0
 11 39  1  0
 12 40  1  1
 13 41  1  0
 14 42  1  0
 14 43  1  0
 15 44  1  0
 15 45  1  0
 16 46  1  0
 16 47  1  0
 17 48  1  0
 17 49  1  0
 19 50  1  0
 20 51  1  0
 22 52  1  0
 25 53  1  0
 26 54  1  0
M  END
>  <smiles>  (20) 
O=C(NCC(=O)N1CCCCC1C1CCCC1)c1ccc2cc(F)ccc2n1

>  <score_type>  (20) 
oracle

>  <origin>  (20) 
autodockgpu

>  <m_score__min__energy>  (20) 
-9.0999999999999996

>  <m_primary>  (20) 
energy

>  <rmsd>  (20) 
2.068316404021552

>  <m_score__min__rmsd>  (20) 
2.068316404021552

>  <meeko>  (20) 
{"free_energy": -8.99, "intermolecular_energy": -10.48, "internal_energy": -1.52, "cluster_size": 42, "cluster_id": 1, "rank_in_cluster": 2}

>  <energy>  (20) 
-8.6

>  <cluster_rmsd>  (20) 
0.69

>  <cluster>  (20) 
1

$$$$

     RDKit          3D

 54 57  0  0  0  0  0  0  0  0999 V2000
  141.2050   72.9880  222.1560 O   0  0  0  0  0  0  0  0  0  0  0  0
  140.1000   72.7000  222.7280 C   0  0  0  0  0  0  0  0  0  0  0  0
  138.8770   73.3450  222.3190 N   0  0  0  0  0  0  0  0  0  0  0  0
  138.9200   74.3370  221.2360 C   0  0  0  0  0  0  0  0  0  0  0  0
  139.4840   75.6040  221.6970 C   0  0  0  0  0  0  0  0  0  0  0  0
  138.9540   76.1550  222.7070 O   0  0  0  0  0  0  0  0  0  0  0  0
  140.5830   76.2830  221.1160 N   0  0  0  0  0  0  0  0  0  0  0  0
  141.8190   75.5620  220.9440 C   0  0  0  0  0  0  0  0  0  0  0  0
  142.2950   75.5950  219.5040 C   0  0  0  0  0  0  0  0  0  0  0  0
  142.4680   77.0340  219.1510 C   0  0  0  0  0  0  0  0  0  0  0  0
  141.2590   77.8930  219.3930 C   0  0  0  0  0  0  0  0  0  0  0  0
  140.5440   77.6610  220.6740 C   0  0  2  0  0  0  0  0  0  0  0  0
  140.8180   78.6260  221.7750 C   0  0  0  0  0  0  0  0  0  0  0  0
  141.3510   78.0110  223.0470 C   0  0  0  0  0  0  0  0  0  0  0  0
  141.7670   79.2480  223.8460 C   0  0  0  0  0  0  0  0  0  0  0  0
  142.0440   80.3350  222.8570 C   0  0  0  0  0  0  0  0  0  0  0  0
  141.7960   79.7110  221.4730 C   0  0  0  0  0  0  0  0  0  0  0  0
  140.0480   71.7140  223.8080 C   0  0  0  0  0  0  0  0  0  0  0  0
  139.3880   70.5270  223.5890 C   0  0  0  0  0  0  0  0  0  0  0  0
  139.2830   69.5350  224.5390 C   0  0  0  0  0  0  0  0  0  0  0  0
  139.8750   69.7690  225.7600 C   0  0  0  0  0  0  0  0  0  0  0  0
  139.8290   68.8450  226.7820 C   0  0  0  0  0  0  0  0  0  0  0  0
  140.4090   69.0480  228.0080 C   0  0  0  0  0  0  0  0  0  0  0  0
  140.3200   68.0790  228.9740 F   0  0  0  0  0  0  0  0  0  0  0  0
  141.0710   70.2410  228.2260 C   0  0  0  0  0  0  0  0  0  0  0  0
  141.1190   71.1750  227.2000 C   0  0  0  0  0  0  0  0  0  0  0  0
  140.5420   70.9730  225.9790 C   0  0  0  0  0  0  0  0  0  0  0  0
  140.6210   71.9200  225.0120 N   0  0  0  0  0  0  0  0  0  0  0  0
  137.9860   73.0930  222.8030 H   0  0  0  0  0  0  0  0  0  0  0  0
  139.5408   73.9458  220.4165 H   0  0  0  0  0  0  0  0  0  0  0  0
  137.8912   74.5201  220.8925 H   0  0  0  0  0  0  0  0  0  0  0  0
  142.5890   76.0176  221.5840 H   0  0  0  0  0  0  0  0  0  0  0  0
  141.6439   74.5122  221.2222 H   0  0  0  0  0  0  0  0  0  0  0  0
  143.2522   75.0617  219.4073 H   0  0  0  0  0  0  0  0  0  0  0  0
  141.5740   75.1038  218.8341 H   0  0  0  0  0  0  0  0  0  0  0  0
  143.2984   77.4357  219.7502 H   0  0  0  0  0  0  0  0  0  0  0  0
  142.6583   77.0660  218.0681 H   0  0  0  0  0  0  0  0  0  0  0  0
  141.5830   78.9440  219.3735 H   0  0  0  0  0  0  0  0  0  0  0  0
  140.5431   77.6292  218.6006 H   0  0  0  0  0  0  0  0  0  0  0  0
  139.5021   77.8834  220.4000 H   0  0  0  0  0  0  0  0  0  0  0  0
  139.8021   79.0297  221.8973 H   0  0  0  0  0  0  0  0  0  0  0  0
  140.5716   77.4392  223.5720 H   0  0  0  0  0  0  0  0  0  0  0  0
  142.1673   77.2917  222.8847 H   0  0  0  0  0  0  0  0  0  0  0  0
  140.9546   79.5512  224.5229 H   0  0  0  0  0  0  0  0  0  0  0  0
  142.6564   79.0387  224.4584 H   0  0  0  0  0  0  0  0  0  0  0  0
  141.3658   81.1853  223.0215 H   0  0  0  0  0  0  0  0  0  0  0  0
  143.0707   80.7183  222.9517 H   0  0  0  0  0  0  0  0  0  0  0  0
  141.3693   80.4475  220.7762 H   0  0  0  0  0  0  0  0  0  0  0  0
  142.7135   79.3494  220.9857 H   0  0  0  0  0  0  0  0  0  0  0  0
  138.9211   70.3619  222.6068 H   0  0  0  0  0  0  0  0  0  0  0  0
  138.7490   68.5960  224.3311 H   0  0  0  0  0  0  0  0  0  0  0  0
  139.3002   67.8968  226.6051 H   0  0  0  0  0  0  0  0  0  0  0  0
  141.5509   70.4468  229.1941 H   0  0  0  0  0  0  0  0  0  0  0  0
  141.6471   72.1231  227.3792 H   0  0  0  0  0  0  0  0  0  0  0  0
  1  2  2  0
  2  3  1  0
  3  4  1  0
  4  5  1  0
  5  6  2  0
  5  7  1  0
  7  8  1  0
  8  9  1  0
  9 10  1  0
 10 11  1  0
 11 12  1  0
 12 13  1  0
 13 14  1  0
 14 15  1  0
 15 16  1  0
 16 17  1  0
  2 18  1  0
 18 19  2  0
 19 20  1  0
 20 21  2  0
 21 22  1  0
 22 23  2  0
 23 24  1  0
 23 25  1  0
 25 26  2  0
 26 27  1  0
 27 28  2  0
 12  7  1  0
 17 13  1  0
 28 18  1  0
 27 21  1  0
  3 29  1  0
  4 30  1  0
  4 31  1  0
  8 32  1  0
  8 33  1  0
  9 34  1  0
  9 35  1  0
 10 36  1  0
 10 37  1  0
 11 38  1  0
 11 39  1  0
 12 40  1  6
 13 41  1  0
 14 42  1  0
 14 43  1  0
 15 44  1  0
 15 45  1  0
 16 46  1  0
 16 47  1  0
 17 48  1  0
 17 49  1  0
 19 50  1  0
 20 51  1  0
 22 52  1  0
 25 53  1  0
 26 54  1  0
M  END
>  <smiles>  (21) 
O=C(NCC(=O)N1CCCCC1C1CCCC1)c1ccc2cc(F)ccc2n1

>  <score_type>  (21) 
oracle

>  <origin>  (21) 
autodockgpu

>  <m_score__min__energy>  (21) 
-9.0999999999999996

>  <m_primary>  (21) 
energy

>  <rmsd>  (21) 
2.0239177511919584

>  <m_score__min__rmsd>  (21) 
2.0239177511919584

>  <meeko>  (21) 
{"free_energy": -8.6, "intermolecular_energy": -10.1, "internal_energy": -1.44, "cluster_size": 42, "cluster_id": 1, "rank_in_cluster": 20}

>  <energy>  (21) 
-8.58

>  <cluster_rmsd>  (21) 
0.54

>  <cluster>  (21) 
1

$$$$

     RDKit          3D

 54 57  0  0  0  0  0  0  0  0999 V2000
  141.2930   72.4250  221.8850 O   0  0  0  0  0  0  0  0  0  0  0  0
  140.2510   72.3680  222.6210 C   0  0  0  0  0  0  0  0  0  0  0  0
  139.1140   73.2110  222.3420 N   0  0  0  0  0  0  0  0  0  0  0  0
  139.1720   74.1340  221.2000 C   0  0  0  0  0  0  0  0  0  0  0  0
  139.6560   75.4520  221.6070 C   0  0  0  0  0  0  0  0  0  0  0  0
  138.9470   76.1180  222.4190 O   0  0  0  0  0  0  0  0  0  0  0  0
  140.8590   76.0640  221.1750 N   0  0  0  0  0  0  0  0  0  0  0  0
  142.0160   75.2290  220.9720 C   0  0  0  0  0  0  0  0  0  0  0  0
  142.5850   75.3840  219.5740 C   0  0  0  0  0  0  0  0  0  0  0  0
  142.9390   76.8250  219.4220 C   0  0  0  0  0  0  0  0  0  0  0  0
  141.8190   77.7840  219.7140 C   0  0  0  0  0  0  0  0  0  0  0  0
  141.0020   77.4810  220.9170 C   0  0  2  0  0  0  0  0  0  0  0  0
  141.3090   78.2620  222.1470 C   0  0  0  0  0  0  0  0  0  0  0  0
  142.2910   79.3930  221.9580 C   0  0  0  0  0  0  0  0  0  0  0  0
  142.1830   80.1330  223.2930 C   0  0  0  0  0  0  0  0  0  0  0  0
  140.8300   79.8280  223.8530 C   0  0  0  0  0  0  0  0  0  0  0  0
  140.1490   78.9140  222.8210 C   0  0  0  0  0  0  0  0  0  0  0  0
  140.1850   71.4520  223.7590 C   0  0  0  0  0  0  0  0  0  0  0  0
  139.5990   70.2190  223.5840 C   0  0  0  0  0  0  0  0  0  0  0  0
  139.4870   69.2860  224.5910 C   0  0  0  0  0  0  0  0  0  0  0  0
  139.9940   69.6290  225.8250 C   0  0  0  0  0  0  0  0  0  0  0  0
  139.9350   68.7710  226.9010 C   0  0  0  0  0  0  0  0  0  0  0  0
  140.4310   69.0830  228.1410 C   0  0  0  0  0  0  0  0  0  0  0  0
  140.3340   68.1740  229.1640 F   0  0  0  0  0  0  0  0  0  0  0  0
  141.0180   70.3210  228.3160 C   0  0  0  0  0  0  0  0  0  0  0  0
  141.0800   71.1890  227.2340 C   0  0  0  0  0  0  0  0  0  0  0  0
  140.5870   70.8780  225.9990 C   0  0  0  0  0  0  0  0  0  0  0  0
  140.6740   71.7650  224.9760 N   0  0  0  0  0  0  0  0  0  0  0  0
  138.2730   73.1460  222.9590 H   0  0  0  0  0  0  0  0  0  0  0  0
  139.8518   73.7215  220.4399 H   0  0  0  0  0  0  0  0  0  0  0  0
  138.1564   74.2473  220.7930 H   0  0  0  0  0  0  0  0  0  0  0  0
  142.7887   75.5074  221.7037 H   0  0  0  0  0  0  0  0  0  0  0  0
  141.7080   74.1809  221.1013 H   0  0  0  0  0  0  0  0  0  0  0  0
  143.4814   74.7574  219.4562 H   0  0  0  0  0  0  0  0  0  0  0  0
  141.8590   75.0685  218.8102 H   0  0  0  0  0  0  0  0  0  0  0  0
  143.7682   77.0479  220.1095 H   0  0  0  0  0  0  0  0  0  0  0  0
  143.2016   76.9691  218.3636 H   0  0  0  0  0  0  0  0  0  0  0  0
  142.2577   78.7838  219.8477 H   0  0  0  0  0  0  0  0  0  0  0  0
  141.1306   77.7064  218.8596 H   0  0  0  0  0  0  0  0  0  0  0  0
  140.0113   77.8586  220.6240 H   0  0  0  0  0  0  0  0  0  0  0  0
  141.7194   77.4474  222.7618 H   0  0  0  0  0  0  0  0  0  0  0  0
  143.3103   79.0141  221.7922 H   0  0  0  0  0  0  0  0  0  0  0  0
  142.0784   80.0238  221.0823 H   0  0  0  0  0  0  0  0  0  0  0  0
  142.9651   79.7836  223.9831 H   0  0  0  0  0  0  0  0  0  0  0  0
  142.3155   81.2161  223.1537 H   0  0  0  0  0  0  0  0  0  0  0  0
  140.9226   79.3122  224.8202 H   0  0  0  0  0  0  0  0  0  0  0  0
  140.2480   80.7444  224.0304 H   0  0  0  0  0  0  0  0  0  0  0  0
  139.5061   78.1694  223.3132 H   0  0  0  0  0  0  0  0  0  0  0  0
  139.4876   79.4542  222.1277 H   0  0  0  0  0  0  0  0  0  0  0  0
  139.2003   69.9661  222.5905 H   0  0  0  0  0  0  0  0  0  0  0  0
  139.0129   68.3087  224.4172 H   0  0  0  0  0  0  0  0  0  0  0  0
  139.4665   67.7860  226.7585 H   0  0  0  0  0  0  0  0  0  0  0  0
  141.4285   70.6136  229.2937 H   0  0  0  0  0  0  0  0  0  0  0  0
  141.5484   72.1738  227.3784 H   0  0  0  0  0  0  0  0  0  0  0  0
  1  2  2  0
  2  3  1  0
  3  4  1  0
  4  5  1  0
  5  6  2  0
  5  7  1  0
  7  8  1  0
  8  9  1  0
  9 10  1  0
 10 11  1  0
 11 12  1  0
 12 13  1  0
 13 14  1  0
 14 15  1  0
 15 16  1  0
 16 17  1  0
  2 18  1  0
 18 19  2  0
 19 20  1  0
 20 21  2  0
 21 22  1  0
 22 23  2  0
 23 24  1  0
 23 25  1  0
 25 26  2  0
 26 27  1  0
 27 28  2  0
 12  7  1  0
 17 13  1  0
 28 18  1  0
 27 21  1  0
  3 29  1  0
  4 30  1  0
  4 31  1  0
  8 32  1  0
  8 33  1  0
  9 34  1  0
  9 35  1  0
 10 36  1  0
 10 37  1  0
 11 38  1  0
 11 39  1  0
 12 40  1  6
 13 41  1  0
 14 42  1  0
 14 43  1  0
 15 44  1  0
 15 45  1  0
 16 46  1  0
 16 47  1  0
 17 48  1  0
 17 49  1  0
 19 50  1  0
 20 51  1  0
 22 52  1  0
 25 53  1  0
 26 54  1  0
M  END
>  <smiles>  (22) 
O=C(NCC(=O)N1CCCCC1C1CCCC1)c1ccc2cc(F)ccc2n1

>  <score_type>  (22) 
oracle

>  <origin>  (22) 
autodockgpu

>  <m_score__min__energy>  (22) 
-9.0999999999999996

>  <m_primary>  (22) 
energy

>  <rmsd>  (22) 
2.0535141660295984

>  <m_score__min__rmsd>  (22) 
2.0535141660295984

>  <meeko>  (22) 
{"free_energy": -8.83, "intermolecular_energy": -10.32, "internal_energy": -1.41, "cluster_size": 42, "cluster_id": 1, "rank_in_cluster": 10}

>  <energy>  (22) 
-8.57

>  <cluster_rmsd>  (22) 
0.48

>  <cluster>  (22) 
1

$$$$

     RDKit          3D

 54 57  0  0  0  0  0  0  0  0999 V2000
  141.1380   71.7140  221.5530 O   0  0  0  0  0  0  0  0  0  0  0  0
  140.2700   71.9580  222.4570 C   0  0  0  0  0  0  0  0  0  0  0  0
  139.3520   73.0600  222.3090 N   0  0  0  0  0  0  0  0  0  0  0  0
  139.4290   73.8970  221.1030 C   0  0  0  0  0  0  0  0  0  0  0  0
  140.5740   74.8040  221.1590 C   0  0  0  0  0  0  0  0  0  0  0  0
  140.7490   75.4710  222.2230 O   0  0  0  0  0  0  0  0  0  0  0  0
  141.5190   75.0110  220.1250 N   0  0  0  0  0  0  0  0  0  0  0  0
  141.0570   74.9850  218.7600 C   0  0  0  0  0  0  0  0  0  0  0  0
  141.4260   76.2530  218.0150 C   0  0  0  0  0  0  0  0  0  0  0  0
  142.9130   76.3540  218.0680 C   0  0  0  0  0  0  0  0  0  0  0  0
  143.5010   76.2880  219.4490 C   0  0  0  0  0  0  0  0  0  0  0  0
  142.9280   75.2560  220.3500 C   0  0  2  0  0  0  0  0  0  0  0  0
  143.7120   73.9990  220.5100 C   0  0  0  0  0  0  0  0  0  0  0  0
  143.5020   72.9720  219.4230 C   0  0  0  0  0  0  0  0  0  0  0  0
  144.6090   71.9600  219.7260 C   0  0  0  0  0  0  0  0  0  0  0  0
  145.6850   72.6970  220.4590 C   0  0  0  0  0  0  0  0  0  0  0  0
  145.1950   74.1500  220.5670 C   0  0  0  0  0  0  0  0  0  0  0  0
  140.1870   71.1300  223.6600 C   0  0  0  0  0  0  0  0  0  0  0  0
  139.5790   69.8980  223.5750 C   0  0  0  0  0  0  0  0  0  0  0  0
  139.4500   69.0440  224.6490 C   0  0  0  0  0  0  0  0  0  0  0  0
  139.9620   69.4690  225.8550 C   0  0  0  0  0  0  0  0  0  0  0  0
  139.8860   68.6940  226.9920 C   0  0  0  0  0  0  0  0  0  0  0  0
  140.3860   69.0890  228.2070 C   0  0  0  0  0  0  0  0  0  0  0  0
  140.2720   68.2600  229.2940 F   0  0  0  0  0  0  0  0  0  0  0  0
  140.9950   70.3250  228.2900 C   0  0  0  0  0  0  0  0  0  0  0  0
  141.0730   71.1090  227.1470 C   0  0  0  0  0  0  0  0  0  0  0  0
  140.5760   70.7170  225.9380 C   0  0  0  0  0  0  0  0  0  0  0  0
  140.6810   71.5230  224.8520 N   0  0  0  0  0  0  0  0  0  0  0  0
  138.6510   73.2390  223.0630 H   0  0  0  0  0  0  0  0  0  0  0  0
  139.5294   73.2469  220.2213 H   0  0  0  0  0  0  0  0  0  0  0  0
  138.5110   74.4997  221.0391 H   0  0  0  0  0  0  0  0  0  0  0  0
  141.5124   74.1254  218.2465 H   0  0  0  0  0  0  0  0  0  0  0  0
  139.9601   74.9033  218.7724 H   0  0  0  0  0  0  0  0  0  0  0  0
  141.0856   76.1936  216.9707 H   0  0  0  0  0  0  0  0  0  0  0  0
  140.9497   77.1350  218.4680 H   0  0  0  0  0  0  0  0  0  0  0  0
  143.3333   75.5266  217.4774 H   0  0  0  0  0  0  0  0  0  0  0  0
  143.1700   77.3466  217.6696 H   0  0  0  0  0  0  0  0  0  0  0  0
  144.5776   76.0864  219.3475 H   0  0  0  0  0  0  0  0  0  0  0  0
  143.2675   77.2551  219.9182 H   0  0  0  0  0  0  0  0  0  0  0  0
  143.0202   75.7347  221.3361 H   0  0  0  0  0  0  0  0  0  0  0  0
  143.3077   73.6736  221.4799 H   0  0  0  0  0  0  0  0  0  0  0  0
  142.5065   72.5098  219.4963 H   0  0  0  0  0  0  0  0  0  0  0  0
  143.5459   73.3870  218.4052 H   0  0  0  0  0  0  0  0  0  0  0  0
  144.2154   71.1452  220.3515 H   0  0  0  0  0  0  0  0  0  0  0  0
  144.9990   71.5147  218.7988 H   0  0  0  0  0  0  0  0  0  0  0  0
  145.8311   72.2661  221.4605 H   0  0  0  0  0  0  0  0  0  0  0  0
  146.6503   72.6321  219.9356 H   0  0  0  0  0  0  0  0  0  0  0  0
  145.5114   74.6061  221.5167 H   0  0  0  0  0  0  0  0  0  0  0  0
  145.5981   74.8069  219.7822 H   0  0  0  0  0  0  0  0  0  0  0  0
  139.1763   69.5795  222.6022 H   0  0  0  0  0  0  0  0  0  0  0  0
  138.9591   68.0648  224.5474 H   0  0  0  0  0  0  0  0  0  0  0  0
  139.4002   67.7096  226.9219 H   0  0  0  0  0  0  0  0  0  0  0  0
  141.4106   70.6820  229.2438 H   0  0  0  0  0  0  0  0  0  0  0  0
  141.5587   72.0933  227.2193 H   0  0  0  0  0  0  0  0  0  0  0  0
  1  2  2  0
  2  3  1  0
  3  4  1  0
  4  5  1  0
  5  6  2  0
  5  7  1  0
  7  8  1  0
  8  9  1  0
  9 10  1  0
 10 11  1  0
 11 12  1  0
 12 13  1  0
 13 14  1  0
 14 15  1  0
 15 16  1  0
 16 17  1  0
  2 18  1  0
 18 19  2  0
 19 20  1  0
 20 21  2  0
 21 22  1  0
 22 23  2  0
 23 24  1  0
 23 25  1  0
 25 26  2  0
 26 27  1  0
 27 28  2  0
 12  7  1  0
 17 13  1  0
 28 18  1  0
 27 21  1  0
  3 29  1  0
  4 30  1  0
  4 31  1  0
  8 32  1  0
  8 33  1  0
  9 34  1  0
  9 35  1  0
 10 36  1  0
 10 37  1  0
 11 38  1  0
 11 39  1  0
 12 40  1  1
 13 41  1  0
 14 42  1  0
 14 43  1  0
 15 44  1  0
 15 45  1  0
 16 46  1  0
 16 47  1  0
 17 48  1  0
 17 49  1  0
 19 50  1  0
 20 51  1  0
 22 52  1  0
 25 53  1  0
 26 54  1  0
M  END
>  <smiles>  (23) 
O=C(NCC(=O)N1CCCCC1C1CCCC1)c1ccc2cc(F)ccc2n1

>  <score_type>  (23) 
oracle

>  <origin>  (23) 
autodockgpu

>  <m_score__min__energy>  (23) 
-9.0999999999999996

>  <m_primary>  (23) 
energy

>  <rmsd>  (23) 
1.7561180342946956

>  <m_score__min__rmsd>  (23) 
1.7561180342946956

>  <meeko>  (23) 
{"free_energy": -8.2, "intermolecular_energy": -9.69, "internal_energy": -1.66, "cluster_size": 42, "cluster_id": 1, "rank_in_cluster": 35}

>  <energy>  (23) 
-8.56

>  <cluster_rmsd>  (23) 
0.52

>  <cluster>  (23) 
1

$$$$

     RDKit          3D

 54 57  0  0  0  0  0  0  0  0999 V2000
  141.2360   72.0700  221.6160 O   0  0  0  0  0  0  0  0  0  0  0  0
  140.3340   72.2700  222.4960 C   0  0  0  0  0  0  0  0  0  0  0  0
  139.3880   73.3480  222.3380 N   0  0  0  0  0  0  0  0  0  0  0  0
  139.4790   74.2100  221.1520 C   0  0  0  0  0  0  0  0  0  0  0  0
  140.7500   74.9300  221.1130 C   0  0  0  0  0  0  0  0  0  0  0  0
  141.1060   75.5590  222.1540 O   0  0  0  0  0  0  0  0  0  0  0  0
  141.6360   74.9900  220.0090 N   0  0  0  0  0  0  0  0  0  0  0  0
  141.1110   74.7160  218.6950 C   0  0  0  0  0  0  0  0  0  0  0  0
  141.3900   75.8510  217.7290 C   0  0  0  0  0  0  0  0  0  0  0  0
  142.8720   76.0110  217.6830 C   0  0  0  0  0  0  0  0  0  0  0  0
  143.5270   76.2010  219.0230 C   0  0  0  0  0  0  0  0  0  0  0  0
  143.0420   75.3180  220.1140 C   0  0  2  0  0  0  0  0  0  0  0  0
  143.8860   74.1340  220.4400 C   0  0  0  0  0  0  0  0  0  0  0  0
  144.0270   73.1230  219.3270 C   0  0  0  0  0  0  0  0  0  0  0  0
  145.1280   72.2090  219.8680 C   0  0  0  0  0  0  0  0  0  0  0  0
  145.9350   73.0200  220.8320 C   0  0  0  0  0  0  0  0  0  0  0  0
  145.2960   74.4190  220.8350 C   0  0  0  0  0  0  0  0  0  0  0  0
  140.2370   71.4180  223.6810 C   0  0  0  0  0  0  0  0  0  0  0  0
  139.6460   70.1810  223.5590 C   0  0  0  0  0  0  0  0  0  0  0  0
  139.5060   69.3040  224.6130 C   0  0  0  0  0  0  0  0  0  0  0  0
  139.9890   69.7100  225.8370 C   0  0  0  0  0  0  0  0  0  0  0  0
  139.9000   68.9120  226.9570 C   0  0  0  0  0  0  0  0  0  0  0  0
  140.3720   69.2880  228.1890 C   0  0  0  0  0  0  0  0  0  0  0  0
  140.2460   68.4360  229.2560 F   0  0  0  0  0  0  0  0  0  0  0  0
  140.9640   70.5300  228.3090 C   0  0  0  0  0  0  0  0  0  0  0  0
  141.0550   71.3380  227.1830 C   0  0  0  0  0  0  0  0  0  0  0  0
  140.5860   70.9640  225.9570 C   0  0  0  0  0  0  0  0  0  0  0  0
  140.7020   71.7930  224.8900 N   0  0  0  0  0  0  0  0  0  0  0  0
  138.6590   73.4930  223.0730 H   0  0  0  0  0  0  0  0  0  0  0  0
  139.3925   73.5873  220.2494 H   0  0  0  0  0  0  0  0  0  0  0  0
  138.6642   74.9477  221.1966 H   0  0  0  0  0  0  0  0  0  0  0  0
  141.5777   73.7975  218.3095 H   0  0  0  0  0  0  0  0  0  0  0  0
  140.0205   74.5998  218.7800 H   0  0  0  0  0  0  0  0  0  0  0  0
  141.0030   75.6035  216.7295 H   0  0  0  0  0  0  0  0  0  0  0  0
  140.8988   76.7802  218.0534 H   0  0  0  0  0  0  0  0  0  0  0  0
  143.2992   75.1104  217.2178 H   0  0  0  0  0  0  0  0  0  0  0  0
  143.0669   76.9294  217.1098 H   0  0  0  0  0  0  0  0  0  0  0  0
  144.6053   76.0223  218.8992 H   0  0  0  0  0  0  0  0  0  0  0  0
  143.2742   77.2251  219.3349 H   0  0  0  0  0  0  0  0  0  0  0  0
  143.1598   75.9599  220.9995 H   0  0  0  0  0  0  0  0  0  0  0  0
  143.3054   73.7452  221.2896 H   0  0  0  0  0  0  0  0  0  0  0  0
  143.0897   72.5695  219.1682 H   0  0  0  0  0  0  0  0  0  0  0  0
  144.2603   73.5687  218.3488 H   0  0  0  0  0  0  0  0  0  0  0  0
  144.6827   71.3444  220.3819 H   0  0  0  0  0  0  0  0  0  0  0  0
  145.7586   71.8280  219.0512 H   0  0  0  0  0  0  0  0  0  0  0  0
  145.8912   72.5761  221.8375 H   0  0  0  0  0  0  0  0  0  0  0  0
  146.9955   73.0584  220.5423 H   0  0  0  0  0  0  0  0  0  0  0  0
  145.3438   74.8751  221.8348 H   0  0  0  0  0  0  0  0  0  0  0  0
  145.8016   75.1322  220.1674 H   0  0  0  0  0  0  0  0  0  0  0  0
  139.2668   69.8775  222.5720 H   0  0  0  0  0  0  0  0  0  0  0  0
  139.0288   68.3216  224.4820 H   0  0  0  0  0  0  0  0  0  0  0  0
  139.4267   67.9239  226.8582 H   0  0  0  0  0  0  0  0  0  0  0  0
  141.3560   70.8728  229.2780 H   0  0  0  0  0  0  0  0  0  0  0  0
  141.5274   72.3262  227.2841 H   0  0  0  0  0  0  0  0  0  0  0  0
  1  2  2  0
  2  3  1  0
  3  4  1  0
  4  5  1  0
  5  6  2  0
  5  7  1  0
  7  8  1  0
  8  9  1  0
  9 10  1  0
 10 11  1  0
 11 12  1  0
 12 13  1  0
 13 14  1  0
 14 15  1  0
 15 16  1  0
 16 17  1  0
  2 18  1  0
 18 19  2  0
 19 20  1  0
 20 21  2  0
 21 22  1  0
 22 23  2  0
 23 24  1  0
 23 25  1  0
 25 26  2  0
 26 27  1  0
 27 28  2  0
 12  7  1  0
 17 13  1  0
 28 18  1  0
 27 21  1  0
  3 29  1  0
  4 30  1  0
  4 31  1  0
  8 32  1  0
  8 33  1  0
  9 34  1  0
  9 35  1  0
 10 36  1  0
 10 37  1  0
 11 38  1  0
 11 39  1  0
 12 40  1  1
 13 41  1  0
 14 42  1  0
 14 43  1  0
 15 44  1  0
 15 45  1  0
 16 46  1  0
 16 47  1  0
 17 48  1  0
 17 49  1  0
 19 50  1  0
 20 51  1  0
 22 52  1  0
 25 53  1  0
 26 54  1  0
M  END
>  <smiles>  (24) 
O=C(NCC(=O)N1CCCCC1C1CCCC1)c1ccc2cc(F)ccc2n1

>  <score_type>  (24) 
oracle

>  <origin>  (24) 
autodockgpu

>  <m_score__min__energy>  (24) 
-9.0999999999999996

>  <m_primary>  (24) 
energy

>  <rmsd>  (24) 
1.7903512255190388

>  <m_score__min__rmsd>  (24) 
1.7903512255190388

>  <meeko>  (24) 
{"free_energy": -8.26, "intermolecular_energy": -9.75, "internal_energy": -1.62, "cluster_size": 42, "cluster_id": 1, "rank_in_cluster": 29}

>  <energy>  (24) 
-8.55

>  <cluster_rmsd>  (24) 
0.74

>  <cluster>  (24) 
1

$$$$

     RDKit          3D

 54 57  0  0  0  0  0  0  0  0999 V2000
  139.7620   71.2090  221.1290 O   0  0  0  0  0  0  0  0  0  0  0  0
  139.7160   71.7800  222.2700 C   0  0  0  0  0  0  0  0  0  0  0  0
  139.5900   73.2150  222.3620 N   0  0  0  0  0  0  0  0  0  0  0  0
  139.5160   74.0060  221.1260 C   0  0  0  0  0  0  0  0  0  0  0  0
  140.5260   75.0630  221.1110 C   0  0  0  0  0  0  0  0  0  0  0  0
  140.6800   75.7500  222.1650 O   0  0  0  0  0  0  0  0  0  0  0  0
  141.3610   75.3960  220.0160 N   0  0  0  0  0  0  0  0  0  0  0  0
  140.7460   75.6420  218.7360 C   0  0  0  0  0  0  0  0  0  0  0  0
  141.1290   77.0000  218.1790 C   0  0  0  0  0  0  0  0  0  0  0  0
  142.6160   77.0010  218.0600 C   0  0  0  0  0  0  0  0  0  0  0  0
  143.3500   76.6520  219.3240 C   0  0  0  0  0  0  0  0  0  0  0  0
  142.8020   75.5110  220.1000 C   0  0  2  0  0  0  0  0  0  0  0  0
  143.4940   74.2010  219.9420 C   0  0  0  0  0  0  0  0  0  0  0  0
  144.9110   74.1600  220.4630 C   0  0  0  0  0  0  0  0  0  0  0  0
  145.2270   72.6640  220.4000 C   0  0  0  0  0  0  0  0  0  0  0  0
  143.9220   71.9380  220.4760 C   0  0  0  0  0  0  0  0  0  0  0  0
  142.8450   73.0290  220.5970 C   0  0  0  0  0  0  0  0  0  0  0  0
  139.7890   71.0000  223.5050 C   0  0  0  0  0  0  0  0  0  0  0  0
  139.2910   69.7170  223.5080 C   0  0  0  0  0  0  0  0  0  0  0  0
  139.3130   68.9010  224.6180 C   0  0  0  0  0  0  0  0  0  0  0  0
  139.8650   69.4190  225.7680 C   0  0  0  0  0  0  0  0  0  0  0  0
  139.9380   68.6900  226.9340 C   0  0  0  0  0  0  0  0  0  0  0  0
  140.4820   69.1770  228.0950 C   0  0  0  0  0  0  0  0  0  0  0  0
  140.5170   68.3880  229.2160 F   0  0  0  0  0  0  0  0  0  0  0  0
  140.9820   70.4650  228.0900 C   0  0  0  0  0  0  0  0  0  0  0  0
  140.9100   71.2040  226.9170 C   0  0  0  0  0  0  0  0  0  0  0  0
  140.3690   70.7190  225.7610 C   0  0  0  0  0  0  0  0  0  0  0  0
  140.3260   71.4850  224.6430 N   0  0  0  0  0  0  0  0  0  0  0  0
  139.5550   73.6590  223.3070 H   0  0  0  0  0  0  0  0  0  0  0  0
  139.6799   73.3415  220.2649 H   0  0  0  0  0  0  0  0  0  0  0  0
  138.5222   74.4744  221.0723 H   0  0  0  0  0  0  0  0  0  0  0  0
  141.0698   74.8632  218.0298 H   0  0  0  0  0  0  0  0  0  0  0  0
  139.6546   75.6234  218.8717 H   0  0  0  0  0  0  0  0  0  0  0  0
  140.6680   77.1502  217.1916 H   0  0  0  0  0  0  0  0  0  0  0  0
  140.7803   77.8127  218.8332 H   0  0  0  0  0  0  0  0  0  0  0  0
  142.8979   76.2701  217.2878 H   0  0  0  0  0  0  0  0  0  0  0  0
  142.9056   78.0320  217.8085 H   0  0  0  0  0  0  0  0  0  0  0  0
  144.3881   76.4080  219.0541 H   0  0  0  0  0  0  0  0  0  0  0  0
  143.2501   77.5310  219.9778 H   0  0  0  0  0  0  0  0  0  0  0  0
  143.0453   75.7973  221.1339 H   0  0  0  0  0  0  0  0  0  0  0  0
  143.4465   74.1195  218.8460 H   0  0  0  0  0  0  0  0  0  0  0  0
  145.5903   74.7399  219.8209 H   0  0  0  0  0  0  0  0  0  0  0  0
  145.0290   74.5975  221.4653 H   0  0  0  0  0  0  0  0  0  0  0  0
  145.7377   72.4252  219.4554 H   0  0  0  0  0  0  0  0  0  0  0  0
  145.8898   72.3676  221.2263 H   0  0  0  0  0  0  0  0  0  0  0  0
  143.7620   71.3404  219.5664 H   0  0  0  0  0  0  0  0  0  0  0  0
  143.8932   71.2430  221.3281 H   0  0  0  0  0  0  0  0  0  0  0  0
  141.9246   72.7386  220.0693 H   0  0  0  0  0  0  0  0  0  0  0  0
  142.5344   73.2240  221.6341 H   0  0  0  0  0  0  0  0  0  0  0  0
  138.8539   69.3236  222.5784 H   0  0  0  0  0  0  0  0  0  0  0  0
  138.9068   67.8792  224.5867 H   0  0  0  0  0  0  0  0  0  0  0  0
  139.5396   67.6647  226.9342 H   0  0  0  0  0  0  0  0  0  0  0  0
  141.4285   70.8966  228.9980 H   0  0  0  0  0  0  0  0  0  0  0  0
  141.3079   72.2295  226.9190 H   0  0  0  0  0  0  0  0  0  0  0  0
  1  2  2  0
  2  3  1  0
  3  4  1  0
  4  5  1  0
  5  6  2  0
  5  7  1  0
  7  8  1  0
  8  9  1  0
  9 10  1  0
 10 11  1  0
 11 12  1  0
 12 13  1  0
 13 14  1  0
 14 15  1  0
 15 16  1  0
 16 17  1  0
  2 18  1  0
 18 19  2  0
 19 20  1  0
 20 21  2  0
 21 22  1  0
 22 23  2  0
 23 24  1  0
 23 25  1  0
 25 26  2  0
 26 27  1  0
 27 28  2  0
 12  7  1  0
 17 13  1  0
 28 18  1  0
 27 21  1  0
  3 29  1  0
  4 30  1  0
  4 31  1  0
  8 32  1  0
  8 33  1  0
  9 34  1  0
  9 35  1  0
 10 36  1  0
 10 37  1  0
 11 38  1  0
 11 39  1  0
 12 40  1  1
 13 41  1  0
 14 42  1  0
 14 43  1  0
 15 44  1  0
 15 45  1  0
 16 46  1  0
 16 47  1  0
 17 48  1  0
 17 49  1  0
 19 50  1  0
 20 51  1  0
 22 52  1  0
 25 53  1  0
 26 54  1  0
M  END
>  <smiles>  (25) 
O=C(NCC(=O)N1CCCCC1C1CCCC1)c1ccc2cc(F)ccc2n1

>  <score_type>  (25) 
oracle

>  <origin>  (25) 
autodockgpu

>  <m_score__min__energy>  (25) 
-9.0999999999999996

>  <m_primary>  (25) 
energy

>  <rmsd>  (25) 
1.620314363343229

>  <m_score__min__rmsd>  (25) 
1.620314363343229

>  <meeko>  (25) 
{"free_energy": -8.01, "intermolecular_energy": -9.5, "internal_energy": -1.82, "cluster_size": 42, "cluster_id": 1, "rank_in_cluster": 39}

>  <energy>  (25) 
-8.39

>  <cluster_rmsd>  (25) 
0.73

>  <cluster>  (25) 
1

$$$$

     RDKit          3D

 54 57  0  0  0  0  0  0  0  0999 V2000
  141.3050   72.7120  221.9900 O   0  0  0  0  0  0  0  0  0  0  0  0
  140.2300   72.5550  222.6600 C   0  0  0  0  0  0  0  0  0  0  0  0
  139.0500   73.3180  222.3350 N   0  0  0  0  0  0  0  0  0  0  0  0
  139.1040   74.2770  221.2230 C   0  0  0  0  0  0  0  0  0  0  0  0
  139.5980   75.5790  221.6670 C   0  0  0  0  0  0  0  0  0  0  0  0
  139.0270   76.1220  222.6590 O   0  0  0  0  0  0  0  0  0  0  0  0
  140.6710   76.3000  221.0870 N   0  0  0  0  0  0  0  0  0  0  0  0
  141.9100   75.6060  220.8440 C   0  0  0  0  0  0  0  0  0  0  0  0
  142.3430   75.7150  219.3950 C   0  0  0  0  0  0  0  0  0  0  0  0
  142.4870   77.1710  219.1070 C   0  0  0  0  0  0  0  0  0  0  0  0
  141.2750   78.0010  219.4270 C   0  0  0  0  0  0  0  0  0  0  0  0
  140.6020   77.6980  220.7150 C   0  0  2  0  0  0  0  0  0  0  0  0
  140.8960   78.6120  221.8540 C   0  0  0  0  0  0  0  0  0  0  0  0
  141.4270   77.9370  223.0950 C   0  0  0  0  0  0  0  0  0  0  0  0
  141.8670   79.1330  223.9420 C   0  0  0  0  0  0  0  0  0  0  0  0
  142.1550   80.2560  222.9970 C   0  0  0  0  0  0  0  0  0  0  0  0
  141.8890   79.6930  221.5900 C   0  0  0  0  0  0  0  0  0  0  0  0
  140.1680   71.6030  223.7690 C   0  0  0  0  0  0  0  0  0  0  0  0
  139.5670   70.3820  223.5610 C   0  0  0  0  0  0  0  0  0  0  0  0
  139.4580   69.4180  224.5380 C   0  0  0  0  0  0  0  0  0  0  0  0
  139.9830   69.7150  225.7760 C   0  0  0  0  0  0  0  0  0  0  0  0
  139.9270   68.8230  226.8250 C   0  0  0  0  0  0  0  0  0  0  0  0
  140.4410   69.0890  228.0680 C   0  0  0  0  0  0  0  0  0  0  0  0
  140.3470   68.1480  229.0620 F   0  0  0  0  0  0  0  0  0  0  0  0
  141.0440   70.3150  228.2760 C   0  0  0  0  0  0  0  0  0  0  0  0
  141.1020   71.2170  227.2220 C   0  0  0  0  0  0  0  0  0  0  0  0
  140.5900   70.9520  225.9840 C   0  0  0  0  0  0  0  0  0  0  0  0
  140.6750   71.8700  224.9900 N   0  0  0  0  0  0  0  0  0  0  0  0
  138.1820   73.1720  222.8980 H   0  0  0  0  0  0  0  0  0  0  0  0
  139.7756   73.8855  220.4447 H   0  0  0  0  0  0  0  0  0  0  0  0
  138.0856   74.4085  220.8287 H   0  0  0  0  0  0  0  0  0  0  0  0
  142.6927   76.0409  221.4829 H   0  0  0  0  0  0  0  0  0  0  0  0
  141.7562   74.5416  221.0752 H   0  0  0  0  0  0  0  0  0  0  0  0
  143.3038   75.2007  219.2454 H   0  0  0  0  0  0  0  0  0  0  0  0
  141.6089   75.2463  218.7231 H   0  0  0  0  0  0  0  0  0  0  0  0
  143.3306   77.5550  219.6994 H   0  0  0  0  0  0  0  0  0  0  0  0
  142.6431   77.2575  218.0216 H   0  0  0  0  0  0  0  0  0  0  0  0
  141.5856   79.0560  219.4493 H   0  0  0  0  0  0  0  0  0  0  0  0
  140.5386   77.7658  218.6444 H   0  0  0  0  0  0  0  0  0  0  0  0
  139.5499   77.9204  220.4833 H   0  0  0  0  0  0  0  0  0  0  0  0
  139.8872   79.0252  222.0007 H   0  0  0  0  0  0  0  0  0  0  0  0
  140.6422   77.3557  223.6010 H   0  0  0  0  0  0  0  0  0  0  0  0
  142.2311   77.2129  222.8973 H   0  0  0  0  0  0  0  0  0  0  0  0
  141.0636   79.4202  224.6363 H   0  0  0  0  0  0  0  0  0  0  0  0
  142.7567   78.8848  224.5394 H   0  0  0  0  0  0  0  0  0  0  0  0
  141.4910   81.1090  223.2009 H   0  0  0  0  0  0  0  0  0  0  0  0
  143.1879   80.6198  223.1007 H   0  0  0  0  0  0  0  0  0  0  0  0
  141.4698   80.4639  220.9267 H   0  0  0  0  0  0  0  0  0  0  0  0
  142.7977   79.3376  221.0822 H   0  0  0  0  0  0  0  0  0  0  0  0
  139.1534   70.1659  222.5649 H   0  0  0  0  0  0  0  0  0  0  0  0
  138.9721   68.4516  224.3381 H   0  0  0  0  0  0  0  0  0  0  0  0
  139.4456   67.8484  226.6566 H   0  0  0  0  0  0  0  0  0  0  0  0
  141.4697   70.5712  229.2574 H   0  0  0  0  0  0  0  0  0  0  0  0
  141.5832   72.1914  227.3923 H   0  0  0  0  0  0  0  0  0  0  0  0
  1  2  2  0
  2  3  1  0
  3  4  1  0
  4  5  1  0
  5  6  2  0
  5  7  1  0
  7  8  1  0
  8  9  1  0
  9 10  1  0
 10 11  1  0
 11 12  1  0
 12 13  1  0
 13 14  1  0
 14 15  1  0
 15 16  1  0
 16 17  1  0
  2 18  1  0
 18 19  2  0
 19 20  1  0
 20 21  2  0
 21 22  1  0
 22 23  2  0
 23 24  1  0
 23 25  1  0
 25 26  2  0
 26 27  1  0
 27 28  2  0
 12  7  1  0
 17 13  1  0
 28 18  1  0
 27 21  1  0
  3 29  1  0
  4 30  1  0
  4 31  1  0
  8 32  1  0
  8 33  1  0
  9 34  1  0
  9 35  1  0
 10 36  1  0
 10 37  1  0
 11 38  1  0
 11 39  1  0
 12 40  1  6
 13 41  1  0
 14 42  1  0
 14 43  1  0
 15 44  1  0
 15 45  1  0
 16 46  1  0
 16 47  1  0
 17 48  1  0
 17 49  1  0
 19 50  1  0
 20 51  1  0
 22 52  1  0
 25 53  1  0
 26 54  1  0
M  END
>  <smiles>  (26) 
O=C(NCC(=O)N1CCCCC1C1CCCC1)c1ccc2cc(F)ccc2n1

>  <score_type>  (26) 
oracle

>  <origin>  (26) 
autodockgpu

>  <m_score__min__energy>  (26) 
-9.0999999999999996

>  <m_primary>  (26) 
energy

>  <rmsd>  (26) 
2.0137729617999014

>  <m_score__min__rmsd>  (26) 
2.0137729617999014

>  <meeko>  (26) 
{"free_energy": -8.75, "intermolecular_energy": -10.24, "internal_energy": -1.46, "cluster_size": 42, "cluster_id": 1, "rank_in_cluster": 13}

>  <energy>  (26) 
-8.38

>  <cluster_rmsd>  (26) 
0.58

>  <cluster>  (26) 
1

$$$$

     RDKit          3D

 54 57  0  0  0  0  0  0  0  0999 V2000
  138.9140   71.3320  221.1800 O   0  0  0  0  0  0  0  0  0  0  0  0
  139.2200   71.9030  222.2800 C   0  0  0  0  0  0  0  0  0  0  0  0
  139.2990   73.3420  222.3580 N   0  0  0  0  0  0  0  0  0  0  0  0
  139.0230   74.1380  221.1540 C   0  0  0  0  0  0  0  0  0  0  0  0
  139.3890   75.5400  221.3490 C   0  0  0  0  0  0  0  0  0  0  0  0
  138.5150   76.3170  221.8380 O   0  0  0  0  0  0  0  0  0  0  0  0
  140.6430   76.1200  221.0400 N   0  0  0  0  0  0  0  0  0  0  0  0
  141.8260   75.3100  221.1870 C   0  0  0  0  0  0  0  0  0  0  0  0
  142.6370   75.2580  219.9070 C   0  0  0  0  0  0  0  0  0  0  0  0
  142.9990   76.6680  219.5810 C   0  0  0  0  0  0  0  0  0  0  0  0
  141.8350   77.6170  219.5060 C   0  0  0  0  0  0  0  0  0  0  0  0
  140.8170   77.4810  220.5790 C   0  0  2  0  0  0  0  0  0  0  0  0
  140.8890   78.4640  221.6960 C   0  0  0  0  0  0  0  0  0  0  0  0
  141.2650   77.8810  223.0360 C   0  0  0  0  0  0  0  0  0  0  0  0
  141.5080   79.1400  223.8720 C   0  0  0  0  0  0  0  0  0  0  0  0
  141.8720   80.2340  222.9180 C   0  0  0  0  0  0  0  0  0  0  0  0
  141.8500   79.5910  221.5210 C   0  0  0  0  0  0  0  0  0  0  0  0
  139.4970   71.1180  223.4820 C   0  0  0  0  0  0  0  0  0  0  0  0
  139.2130   69.7710  223.4740 C   0  0  0  0  0  0  0  0  0  0  0  0
  139.4380   68.9450  224.5530 C   0  0  0  0  0  0  0  0  0  0  0  0
  139.9720   69.5210  225.6850 C   0  0  0  0  0  0  0  0  0  0  0  0
  140.2350   68.7860  226.8210 C   0  0  0  0  0  0  0  0  0  0  0  0
  140.7670   69.3300  227.9620 C   0  0  0  0  0  0  0  0  0  0  0  0
  141.0010   68.5320  229.0530 F   0  0  0  0  0  0  0  0  0  0  0  0
  141.0510   70.6820  227.9690 C   0  0  0  0  0  0  0  0  0  0  0  0
  140.7870   71.4250  226.8270 C   0  0  0  0  0  0  0  0  0  0  0  0
  140.2580   70.8850  225.6910 C   0  0  0  0  0  0  0  0  0  0  0  0
  140.0210   71.6580  224.6020 N   0  0  0  0  0  0  0  0  0  0  0  0
  139.5520   73.7860  223.2690 H   0  0  0  0  0  0  0  0  0  0  0  0
  139.6034   73.7296  220.3136 H   0  0  0  0  0  0  0  0  0  0  0  0
  137.9446   74.0866  220.9434 H   0  0  0  0  0  0  0  0  0  0  0  0
  142.4506   75.7342  221.9870 H   0  0  0  0  0  0  0  0  0  0  0  0
  141.5098   74.2854  221.4326 H   0  0  0  0  0  0  0  0  0  0  0  0
  143.5458   74.6566  220.0565 H   0  0  0  0  0  0  0  0  0  0  0  0
  142.0644   74.7940  219.0904 H   0  0  0  0  0  0  0  0  0  0  0  0
  143.6881   77.0325  220.3570 H   0  0  0  0  0  0  0  0  0  0  0  0
  143.4473   76.6481  218.5767 H   0  0  0  0  0  0  0  0  0  0  0  0
  142.2326   78.6418  219.5465 H   0  0  0  0  0  0  0  0  0  0  0  0
  141.3134   77.3748  218.5683 H   0  0  0  0  0  0  0  0  0  0  0  0
  139.8915   77.7659  220.0572 H   0  0  0  0  0  0  0  0  0  0  0  0
  139.8490   78.8215  221.6703 H   0  0  0  0  0  0  0  0  0  0  0  0
  140.4464   77.2759  223.4528 H   0  0  0  0  0  0  0  0  0  0  0  0
  142.1279   77.1999  222.9977 H   0  0  0  0  0  0  0  0  0  0  0  0
  140.5957   79.4086  224.4247 H   0  0  0  0  0  0  0  0  0  0  0  0
  142.3106   78.9755  224.6060 H   0  0  0  0  0  0  0  0  0  0  0  0
  141.1394   81.0525  222.9752 H   0  0  0  0  0  0  0  0  0  0  0  0
  142.8565   80.6657  223.1512 H   0  0  0  0  0  0  0  0  0  0  0  0
  141.4932   80.3027  220.7620 H   0  0  0  0  0  0  0  0  0  0  0  0
  142.8423   79.2693  221.1720 H   0  0  0  0  0  0  0  0  0  0  0  0
  138.7851   69.3325  222.5604 H   0  0  0  0  0  0  0  0  0  0  0  0
  139.2015   67.8715  224.5127 H   0  0  0  0  0  0  0  0  0  0  0  0
  140.0069   67.7099  226.8120 H   0  0  0  0  0  0  0  0  0  0  0  0
  141.4782   71.1604  228.8627 H   0  0  0  0  0  0  0  0  0  0  0  0
  141.0152   72.5010  226.8381 H   0  0  0  0  0  0  0  0  0  0  0  0
  1  2  2  0
  2  3  1  0
  3  4  1  0
  4  5  1  0
  5  6  2  0
  5  7  1  0
  7  8  1  0
  8  9  1  0
  9 10  1  0
 10 11  1  0
 11 12  1  0
 12 13  1  0
 13 14  1  0
 14 15  1  0
 15 16  1  0
 16 17  1  0
  2 18  1  0
 18 19  2  0
 19 20  1  0
 20 21  2  0
 21 22  1  0
 22 23  2  0
 23 24  1  0
 23 25  1  0
 25 26  2  0
 26 27  1  0
 27 28  2  0
 12  7  1  0
 17 13  1  0
 28 18  1  0
 27 21  1  0
  3 29  1  0
  4 30  1  0
  4 31  1  0
  8 32  1  0
  8 33  1  0
  9 34  1  0
  9 35  1  0
 10 36  1  0
 10 37  1  0
 11 38  1  0
 11 39  1  0
 12 40  1  6
 13 41  1  0
 14 42  1  0
 14 43  1  0
 15 44  1  0
 15 45  1  0
 16 46  1  0
 16 47  1  0
 17 48  1  0
 17 49  1  0
 19 50  1  0
 20 51  1  0
 22 52  1  0
 25 53  1  0
 26 54  1  0
M  END
>  <smiles>  (27) 
O=C(NCC(=O)N1CCCCC1C1CCCC1)c1ccc2cc(F)ccc2n1

>  <score_type>  (27) 
oracle

>  <origin>  (27) 
autodockgpu

>  <m_score__min__energy>  (27) 
-9.0999999999999996

>  <m_primary>  (27) 
energy

>  <rmsd>  (27) 
1.953897320448057

>  <m_score__min__rmsd>  (27) 
1.953897320448057

>  <meeko>  (27) 
{"free_energy": -8.29, "intermolecular_energy": -9.78, "internal_energy": -1.58, "cluster_size": 42, "cluster_id": 1, "rank_in_cluster": 28}

>  <energy>  (27) 
-8.34

>  <cluster_rmsd>  (27) 
1.28

>  <cluster>  (27) 
1

$$$$

     RDKit          3D

 54 57  0  0  0  0  0  0  0  0999 V2000
  141.1080   71.8810  221.2610 O   0  0  0  0  0  0  0  0  0  0  0  0
  140.5260   72.3490  222.2970 C   0  0  0  0  0  0  0  0  0  0  0  0
  140.0490   73.7100  222.3130 N   0  0  0  0  0  0  0  0  0  0  0  0
  140.2410   74.5490  221.1230 C   0  0  0  0  0  0  0  0  0  0  0  0
  140.3580   75.9610  221.4800 C   0  0  0  0  0  0  0  0  0  0  0  0
  139.8270   76.3420  222.5660 O   0  0  0  0  0  0  0  0  0  0  0  0
  141.0170   76.9580  220.7190 N   0  0  0  0  0  0  0  0  0  0  0  0
  142.2760   76.6250  220.1000 C   0  0  0  0  0  0  0  0  0  0  0  0
  142.2550   76.8850  218.6060 C   0  0  0  0  0  0  0  0  0  0  0  0
  141.9490   78.3350  218.4360 C   0  0  0  0  0  0  0  0  0  0  0  0
  140.7030   78.8030  219.1340 C   0  0  0  0  0  0  0  0  0  0  0  0
  140.5040   78.2960  220.5160 C   0  0  2  0  0  0  0  0  0  0  0  0
  140.8600   79.2240  221.6250 C   0  0  0  0  0  0  0  0  0  0  0  0
  139.9020   79.2250  222.7920 C   0  0  0  0  0  0  0  0  0  0  0  0
  140.6690   80.0450  223.8310 C   0  0  0  0  0  0  0  0  0  0  0  0
  142.1230   79.9200  223.5000 C   0  0  0  0  0  0  0  0  0  0  0  0
  142.1900   79.0070  222.2640 C   0  0  0  0  0  0  0  0  0  0  0  0
  140.3310   71.5210  223.4870 C   0  0  0  0  0  0  0  0  0  0  0  0
  139.6550   70.3290  223.3600 C   0  0  0  0  0  0  0  0  0  0  0  0
  139.4200   69.4780  224.4190 C   0  0  0  0  0  0  0  0  0  0  0  0
  139.8940   69.8640  225.6530 C   0  0  0  0  0  0  0  0  0  0  0  0
  139.7140   69.0890  226.7780 C   0  0  0  0  0  0  0  0  0  0  0  0
  140.1740   69.4450  228.0190 C   0  0  0  0  0  0  0  0  0  0  0  0
  139.9540   68.6180  229.0920 F   0  0  0  0  0  0  0  0  0  0  0  0
  140.8520   70.6420  228.1450 C   0  0  0  0  0  0  0  0  0  0  0  0
  141.0360   71.4260  227.0140 C   0  0  0  0  0  0  0  0  0  0  0  0
  140.5780   71.0720  225.7780 C   0  0  0  0  0  0  0  0  0  0  0  0
  140.7860   71.8770  224.7060 N   0  0  0  0  0  0  0  0  0  0  0  0
  139.5760   74.0700  223.1730 H   0  0  0  0  0  0  0  0  0  0  0  0
  141.1594   74.2330  220.6066 H   0  0  0  0  0  0  0  0  0  0  0  0
  139.3647   74.4285  220.4692 H   0  0  0  0  0  0  0  0  0  0  0  0
  143.0696   77.2348  220.5565 H   0  0  0  0  0  0  0  0  0  0  0  0
  142.4616   75.5523  220.2579 H   0  0  0  0  0  0  0  0  0  0  0  0
  143.2345   76.6484  218.1647 H   0  0  0  0  0  0  0  0  0  0  0  0
  141.5054   76.2571  218.1021 H   0  0  0  0  0  0  0  0  0  0  0  0
  142.7987   78.9123  218.8293 H   0  0  0  0  0  0  0  0  0  0  0  0
  141.7783   78.4911  217.3606 H   0  0  0  0  0  0  0  0  0  0  0  0
  140.7346   79.9016  219.1794 H   0  0  0  0  0  0  0  0  0  0  0  0
  139.8641   78.4020  218.5462 H   0  0  0  0  0  0  0  0  0  0  0  0
  139.4078   78.2358  220.5845 H   0  0  0  0  0  0  0  0  0  0  0  0
  140.8376   80.1693  221.0629 H   0  0  0  0  0  0  0  0  0  0  0  0
  138.9492   79.7064  222.5267 H   0  0  0  0  0  0  0  0  0  0  0  0
  139.6231   78.2189  223.1383 H   0  0  0  0  0  0  0  0  0  0  0  0
  140.3599   81.0996  223.7831 H   0  0  0  0  0  0  0  0  0  0  0  0
  140.4650   79.6795  224.8482 H   0  0  0  0  0  0  0  0  0  0  0  0
  142.5508   80.9073  223.2715 H   0  0  0  0  0  0  0  0  0  0  0  0
  142.6976   79.5070  224.3422 H   0  0  0  0  0  0  0  0  0  0  0  0
  143.0071   79.3082  221.5919 H   0  0  0  0  0  0  0  0  0  0  0  0
  142.3903   77.9536  222.5093 H   0  0  0  0  0  0  0  0  0  0  0  0
  139.2841   70.0412  222.3652 H   0  0  0  0  0  0  0  0  0  0  0  0
  138.8770   68.5310  224.2840 H   0  0  0  0  0  0  0  0  0  0  0  0
  139.1738   68.1364  226.6749 H   0  0  0  0  0  0  0  0  0  0  0  0
  141.2385   70.9675  229.1221 H   0  0  0  0  0  0  0  0  0  0  0  0
  141.5768   72.3781  227.1192 H   0  0  0  0  0  0  0  0  0  0  0  0
  1  2  2  0
  2  3  1  0
  3  4  1  0
  4  5  1  0
  5  6  2  0
  5  7  1  0
  7  8  1  0
  8  9  1  0
  9 10  1  0
 10 11  1  0
 11 12  1  0
 12 13  1  0
 13 14  1  0
 14 15  1  0
 15 16  1  0
 16 17  1  0
  2 18  1  0
 18 19  2  0
 19 20  1  0
 20 21  2  0
 21 22  1  0
 22 23  2  0
 23 24  1  0
 23 25  1  0
 25 26  2  0
 26 27  1  0
 27 28  2  0
 12  7  1  0
 17 13  1  0
 28 18  1  0
 27 21  1  0
  3 29  1  0
  4 30  1  0
  4 31  1  0
  8 32  1  0
  8 33  1  0
  9 34  1  0
  9 35  1  0
 10 36  1  0
 10 37  1  0
 11 38  1  0
 11 39  1  0
 12 40  1  6
 13 41  1  0
 14 42  1  0
 14 43  1  0
 15 44  1  0
 15 45  1  0
 16 46  1  0
 16 47  1  0
 17 48  1  0
 17 49  1  0
 19 50  1  0
 20 51  1  0
 22 52  1  0
 25 53  1  0
 26 54  1  0
M  END
>  <smiles>  (28) 
O=C(NCC(=O)N1CCCCC1C1CCCC1)c1ccc2cc(F)ccc2n1

>  <score_type>  (28) 
oracle

>  <origin>  (28) 
autodockgpu

>  <m_score__min__energy>  (28) 
-9.0999999999999996

>  <m_primary>  (28) 
energy

>  <rmsd>  (28) 
2.189758867597291

>  <m_score__min__rmsd>  (28) 
2.189758867597291

>  <meeko>  (28) 
{"free_energy": -8.38, "intermolecular_energy": -9.87, "internal_energy": -1.68, "cluster_size": 42, "cluster_id": 1, "rank_in_cluster": 26}

>  <energy>  (28) 
-8.29

>  <cluster_rmsd>  (28) 
0.94

>  <cluster>  (28) 
1

$$$$

     RDKit          3D

 54 57  0  0  0  0  0  0  0  0999 V2000
  140.9380   72.2580  221.4980 O   0  0  0  0  0  0  0  0  0  0  0  0
  140.0590   72.3630  222.4190 C   0  0  0  0  0  0  0  0  0  0  0  0
  139.0150   73.3530  222.3210 N   0  0  0  0  0  0  0  0  0  0  0  0
  138.9770   74.2390  221.1490 C   0  0  0  0  0  0  0  0  0  0  0  0
  139.4290   75.5870  221.4860 C   0  0  0  0  0  0  0  0  0  0  0  0
  138.6300   76.3360  222.1260 O   0  0  0  0  0  0  0  0  0  0  0  0
  140.6900   76.1450  221.1650 N   0  0  0  0  0  0  0  0  0  0  0  0
  141.8220   75.2580  221.0540 C   0  0  0  0  0  0  0  0  0  0  0  0
  142.5150   75.3940  219.7120 C   0  0  0  0  0  0  0  0  0  0  0  0
  142.9460   76.8170  219.6030 C   0  0  0  0  0  0  0  0  0  0  0  0
  141.8500   77.8260  219.8070 C   0  0  0  0  0  0  0  0  0  0  0  0
  140.9190   77.5550  220.9320 C   0  0  2  0  0  0  0  0  0  0  0  0
  141.1550   78.3150  222.1910 C   0  0  0  0  0  0  0  0  0  0  0  0
  142.2270   79.3750  222.1070 C   0  0  0  0  0  0  0  0  0  0  0  0
  142.0380   80.1230  223.4280 C   0  0  0  0  0  0  0  0  0  0  0  0
  140.6170   79.9150  223.8480 C   0  0  0  0  0  0  0  0  0  0  0  0
  139.9810   79.0480  222.7480 C   0  0  0  0  0  0  0  0  0  0  0  0
  140.0890   71.4860  223.5890 C   0  0  0  0  0  0  0  0  0  0  0  0
  139.5930   70.2080  223.4720 C   0  0  0  0  0  0  0  0  0  0  0  0
  139.5770   69.3050  224.5130 C   0  0  0  0  0  0  0  0  0  0  0  0
  140.0860   69.7300  225.7200 C   0  0  0  0  0  0  0  0  0  0  0  0
  140.1160   68.9090  226.8270 C   0  0  0  0  0  0  0  0  0  0  0  0
  140.6170   69.3020  228.0420 C   0  0  0  0  0  0  0  0  0  0  0  0
  140.6130   68.4250  229.0970 F   0  0  0  0  0  0  0  0  0  0  0  0
  141.1130   70.5850  228.1590 C   0  0  0  0  0  0  0  0  0  0  0  0
  141.0840   71.4160  227.0460 C   0  0  0  0  0  0  0  0  0  0  0  0
  140.5860   71.0250  225.8360 C   0  0  0  0  0  0  0  0  0  0  0  0
  140.5820   71.8780  224.7820 N   0  0  0  0  0  0  0  0  0  0  0  0
  138.3070   73.4200  223.0880 H   0  0  0  0  0  0  0  0  0  0  0  0
  139.6318   73.8268  220.3671 H   0  0  0  0  0  0  0  0  0  0  0  0
  137.9375   74.3005  220.7945 H   0  0  0  0  0  0  0  0  0  0  0  0
  142.5409   75.4967  221.8517 H   0  0  0  0  0  0  0  0  0  0  0  0
  141.4568   74.2246  221.1469 H   0  0  0  0  0  0  0  0  0  0  0  0
  143.3887   74.7273  219.6657 H   0  0  0  0  0  0  0  0  0  0  0  0
  141.8432   75.1165  218.8864 H   0  0  0  0  0  0  0  0  0  0  0  0
  143.7229   76.9981  220.3604 H   0  0  0  0  0  0  0  0  0  0  0  0
  143.3042   76.9536  218.5719 H   0  0  0  0  0  0  0  0  0  0  0  0
  142.3213   78.8034  219.9877 H   0  0  0  0  0  0  0  0  0  0  0  0
  141.2351   77.7854  218.8958 H   0  0  0  0  0  0  0  0  0  0  0  0
  139.9754   77.9785  220.5576 H   0  0  0  0  0  0  0  0  0  0  0  0
  141.4444   77.4751  222.8397 H   0  0  0  0  0  0  0  0  0  0  0  0
  143.2290   78.9259  222.0417 H   0  0  0  0  0  0  0  0  0  0  0  0
  142.1470   80.0176  221.2178 H   0  0  0  0  0  0  0  0  0  0  0  0
  142.7204   79.7206  224.1911 H   0  0  0  0  0  0  0  0  0  0  0  0
  142.2597   81.1938  223.3084 H   0  0  0  0  0  0  0  0  0  0  0  0
  140.5754   79.3964  224.8172 H   0  0  0  0  0  0  0  0  0  0  0  0
  140.0856   80.8703  223.9703 H   0  0  0  0  0  0  0  0  0  0  0  0
  139.2415   78.3513  223.1696 H   0  0  0  0  0  0  0  0  0  0  0  0
  139.4319   79.6314  221.9942 H   0  0  0  0  0  0  0  0  0  0  0  0
  139.1891   69.8912  222.4991 H   0  0  0  0  0  0  0  0  0  0  0  0
  139.1751   68.2890  224.3854 H   0  0  0  0  0  0  0  0  0  0  0  0
  139.7184   67.8879  226.7312 H   0  0  0  0  0  0  0  0  0  0  0  0
  141.5233   70.9424  229.1150 H   0  0  0  0  0  0  0  0  0  0  0  0
  141.4809   72.4372  227.1440 H   0  0  0  0  0  0  0  0  0  0  0  0
  1  2  2  0
  2  3  1  0
  3  4  1  0
  4  5  1  0
  5  6  2  0
  5  7  1  0
  7  8  1  0
  8  9  1  0
  9 10  1  0
 10 11  1  0
 11 12  1  0
 12 13  1  0
 13 14  1  0
 14 15  1  0
 15 16  1  0
 16 17  1  0
  2 18  1  0
 18 19  2  0
 19 20  1  0
 20 21  2  0
 21 22  1  0
 22 23  2  0
 23 24  1  0
 23 25  1  0
 25 26  2  0
 26 27  1  0
 27 28  2  0
 12  7  1  0
 17 13  1  0
 28 18  1  0
 27 21  1  0
  3 29  1  0
  4 30  1  0
  4 31  1  0
  8 32  1  0
  8 33  1  0
  9 34  1  0
  9 35  1  0
 10 36  1  0
 10 37  1  0
 11 38  1  0
 11 39  1  0
 12 40  1  6
 13 41  1  0
 14 42  1  0
 14 43  1  0
 15 44  1  0
 15 45  1  0
 16 46  1  0
 16 47  1  0
 17 48  1  0
 17 49  1  0
 19 50  1  0
 20 51  1  0
 22 52  1  0
 25 53  1  0
 26 54  1  0
M  END
>  <smiles>  (29) 
O=C(NCC(=O)N1CCCCC1C1CCCC1)c1ccc2cc(F)ccc2n1

>  <score_type>  (29) 
oracle

>  <origin>  (29) 
autodockgpu

>  <m_score__min__energy>  (29) 
-9.0999999999999996

>  <m_primary>  (29) 
energy

>  <rmsd>  (29) 
2.0290128784080874

>  <m_score__min__rmsd>  (29) 
2.0290128784080874

>  <meeko>  (29) 
{"free_energy": -8.77, "intermolecular_energy": -10.26, "internal_energy": -1.44, "cluster_size": 42, "cluster_id": 1, "rank_in_cluster": 12}

>  <energy>  (29) 
-8.26

>  <cluster_rmsd>  (29) 
1.74

>  <cluster>  (29) 
1

$$$$

     RDKit          3D

 54 57  0  0  0  0  0  0  0  0999 V2000
  141.3590   72.2240  221.6460 O   0  0  0  0  0  0  0  0  0  0  0  0
  140.4370   72.4400  222.5030 C   0  0  0  0  0  0  0  0  0  0  0  0
  139.5390   73.5570  222.3420 N   0  0  0  0  0  0  0  0  0  0  0  0
  139.7000   74.4410  221.1800 C   0  0  0  0  0  0  0  0  0  0  0  0
  140.0160   75.8080  221.5900 C   0  0  0  0  0  0  0  0  0  0  0  0
  139.4730   76.2480  222.6480 O   0  0  0  0  0  0  0  0  0  0  0  0
  140.8830   76.6980  220.9110 N   0  0  0  0  0  0  0  0  0  0  0  0
  142.1520   76.1970  220.4470 C   0  0  0  0  0  0  0  0  0  0  0  0
  142.3400   76.4320  218.9600 C   0  0  0  0  0  0  0  0  0  0  0  0
  142.2460   77.9060  218.7520 C   0  0  0  0  0  0  0  0  0  0  0  0
  140.9970   78.5410  219.2970 C   0  0  0  0  0  0  0  0  0  0  0  0
  140.5740   78.0880  220.6460 C   0  0  2  0  0  0  0  0  0  0  0  0
  140.9150   78.9820  221.7880 C   0  0  0  0  0  0  0  0  0  0  0  0
  141.4630   78.2800  223.0070 C   0  0  0  0  0  0  0  0  0  0  0  0
  141.9470   79.4570  223.8580 C   0  0  0  0  0  0  0  0  0  0  0  0
  142.2340   80.5860  222.9200 C   0  0  0  0  0  0  0  0  0  0  0  0
  141.9220   80.0460  221.5130 C   0  0  0  0  0  0  0  0  0  0  0  0
  140.2710   71.5660  223.6640 C   0  0  0  0  0  0  0  0  0  0  0  0
  139.6130   70.3680  223.5010 C   0  0  0  0  0  0  0  0  0  0  0  0
  139.4050   69.4750  224.5300 C   0  0  0  0  0  0  0  0  0  0  0  0
  139.8880   69.8220  225.7710 C   0  0  0  0  0  0  0  0  0  0  0  0
  139.7340   69.0030  226.8690 C   0  0  0  0  0  0  0  0  0  0  0  0
  140.2050   69.3210  228.1170 C   0  0  0  0  0  0  0  0  0  0  0  0
  140.0120   68.4510  229.1610 F   0  0  0  0  0  0  0  0  0  0  0  0
  140.8650   70.5230  228.2790 C   0  0  0  0  0  0  0  0  0  0  0  0
  141.0220   71.3520  227.1760 C   0  0  0  0  0  0  0  0  0  0  0  0
  140.5540   71.0360  225.9330 C   0  0  0  0  0  0  0  0  0  0  0  0
  140.7360   71.8830  224.8900 N   0  0  0  0  0  0  0  0  0  0  0  0
  138.7930   73.7130  223.0580 H   0  0  0  0  0  0  0  0  0  0  0  0
  140.5164   74.0586  220.5497 H   0  0  0  0  0  0  0  0  0  0  0  0
  138.7516   74.4570  220.6229 H   0  0  0  0  0  0  0  0  0  0  0  0
  142.9582   76.7086  220.9932 H   0  0  0  0  0  0  0  0  0  0  0  0
  142.1787   75.1123  220.6282 H   0  0  0  0  0  0  0  0  0  0  0  0
  143.3256   76.0644  218.6383 H   0  0  0  0  0  0  0  0  0  0  0  0
  141.5797   75.8968  218.3722 H   0  0  0  0  0  0  0  0  0  0  0  0
  143.1111   78.3766  219.2421 H   0  0  0  0  0  0  0  0  0  0  0  0
  142.2246   78.0645  217.6637 H   0  0  0  0  0  0  0  0  0  0  0  0
  141.1640   79.6273  219.3434 H   0  0  0  0  0  0  0  0  0  0  0  0
  140.1883   78.2396  218.6150 H   0  0  0  0  0  0  0  0  0  0  0  0
  139.4788   78.1701  220.5846 H   0  0  0  0  0  0  0  0  0  0  0  0
  139.9189   79.4141  221.9646 H   0  0  0  0  0  0  0  0  0  0  0  0
  140.6796   77.7073  223.5249 H   0  0  0  0  0  0  0  0  0  0  0  0
  142.2475   77.5430  222.7804 H   0  0  0  0  0  0  0  0  0  0  0  0
  141.1664   79.7508  224.5752 H   0  0  0  0  0  0  0  0  0  0  0  0
  142.8458   79.1841  224.4304 H   0  0  0  0  0  0  0  0  0  0  0  0
  141.5924   81.4492  223.1508 H   0  0  0  0  0  0  0  0  0  0  0  0
  143.2762   80.9281  223.0023 H   0  0  0  0  0  0  0  0  0  0  0  0
  141.5020   80.8333  220.8698 H   0  0  0  0  0  0  0  0  0  0  0  0
  142.8107   79.6792  220.9786 H   0  0  0  0  0  0  0  0  0  0  0  0
  139.2347   70.1108  222.5006 H   0  0  0  0  0  0  0  0  0  0  0  0
  138.8752   68.5250  224.3662 H   0  0  0  0  0  0  0  0  0  0  0  0
  139.2069   68.0465  226.7375 H   0  0  0  0  0  0  0  0  0  0  0  0
  141.2588   70.8182  229.2628 H   0  0  0  0  0  0  0  0  0  0  0  0
  141.5484   72.3085  227.3101 H   0  0  0  0  0  0  0  0  0  0  0  0
  1  2  2  0
  2  3  1  0
  3  4  1  0
  4  5  1  0
  5  6  2  0
  5  7  1  0
  7  8  1  0
  8  9  1  0
  9 10  1  0
 10 11  1  0
 11 12  1  0
 12 13  1  0
 13 14  1  0
 14 15  1  0
 15 16  1  0
 16 17  1  0
  2 18  1  0
 18 19  2  0
 19 20  1  0
 20 21  2  0
 21 22  1  0
 22 23  2  0
 23 24  1  0
 23 25  1  0
 25 26  2  0
 26 27  1  0
 27 28  2  0
 12  7  1  0
 17 13  1  0
 28 18  1  0
 27 21  1  0
  3 29  1  0
  4 30  1  0
  4 31  1  0
  8 32  1  0
  8 33  1  0
  9 34  1  0
  9 35  1  0
 10 36  1  0
 10 37  1  0
 11 38  1  0
 11 39  1  0
 12 40  1  6
 13 41  1  0
 14 42  1  0
 14 43  1  0
 15 44  1  0
 15 45  1  0
 16 46  1  0
 16 47  1  0
 17 48  1  0
 17 49  1  0
 19 50  1  0
 20 51  1  0
 22 52  1  0
 25 53  1  0
 26 54  1  0
M  END
>  <smiles>  (30) 
O=C(NCC(=O)N1CCCCC1C1CCCC1)c1ccc2cc(F)ccc2n1

>  <score_type>  (30) 
oracle

>  <origin>  (30) 
autodockgpu

>  <m_score__min__energy>  (30) 
-9.0999999999999996

>  <m_primary>  (30) 
energy

>  <rmsd>  (30) 
2.1019668710795227

>  <m_score__min__rmsd>  (30) 
2.1019668710795227

>  <meeko>  (30) 
{"free_energy": -8.85, "intermolecular_energy": -10.34, "internal_energy": -1.43, "cluster_size": 42, "cluster_id": 1, "rank_in_cluster": 9}

>  <energy>  (30) 
-8.26

>  <cluster_rmsd>  (30) 
0.93

>  <cluster>  (30) 
1

$$$$

     RDKit          3D

 54 57  0  0  0  0  0  0  0  0999 V2000
  140.9210   73.5670  220.3970 O   0  0  0  0  0  0  0  0  0  0  0  0
  140.4850   74.3220  221.3290 C   0  0  0  0  0  0  0  0  0  0  0  0
  139.5670   73.8060  222.3160 N   0  0  0  0  0  0  0  0  0  0  0  0
  139.1430   72.4020  222.2320 C   0  0  0  0  0  0  0  0  0  0  0  0
  139.9380   71.5520  223.1160 C   0  0  0  0  0  0  0  0  0  0  0  0
  141.1980   71.5690  222.9770 O   0  0  0  0  0  0  0  0  0  0  0  0
  139.4290   70.7020  224.1280 N   0  0  0  0  0  0  0  0  0  0  0  0
  138.0210   70.7670  224.4320 C   0  0  0  0  0  0  0  0  0  0  0  0
  137.3580   69.4080  224.3220 C   0  0  0  0  0  0  0  0  0  0  0  0
  138.0660   68.5150  225.2850 C   0  0  0  0  0  0  0  0  0  0  0  0
  139.5580   68.4600  225.1140 C   0  0  0  0  0  0  0  0  0  0  0  0
  140.2330   69.7620  224.8800 C   0  0  2  0  0  0  0  0  0  0  0  0
  140.9030   70.3870  226.0540 C   0  0  0  0  0  0  0  0  0  0  0  0
  140.9290   71.8960  226.0470 C   0  0  0  0  0  0  0  0  0  0  0  0
  141.4220   72.2110  227.4610 C   0  0  0  0  0  0  0  0  0  0  0  0
  141.0570   71.0420  228.3210 C   0  0  0  0  0  0  0  0  0  0  0  0
  140.3350   70.0520  227.3920 C   0  0  0  0  0  0  0  0  0  0  0  0
  140.9010   75.7210  221.4200 C   0  0  0  0  0  0  0  0  0  0  0  0
  141.7290   76.2300  220.4450 C   0  0  0  0  0  0  0  0  0  0  0  0
  142.1760   77.5330  220.4390 C   0  0  0  0  0  0  0  0  0  0  0  0
  141.7620   78.3450  221.4720 C   0  0  0  0  0  0  0  0  0  0  0  0
  142.1510   79.6640  221.5630 C   0  0  0  0  0  0  0  0  0  0  0  0
  141.7550   80.4970  222.5780 C   0  0  0  0  0  0  0  0  0  0  0  0
  142.1850   81.7990  222.5990 F   0  0  0  0  0  0  0  0  0  0  0  0
  140.9250   79.9850  223.5560 C   0  0  0  0  0  0  0  0  0  0  0  0
  140.5310   78.6560  223.4670 C   0  0  0  0  0  0  0  0  0  0  0  0
  140.9240   77.8260  222.4580 C   0  0  0  0  0  0  0  0  0  0  0  0
  140.5080   76.5360  222.4210 N   0  0  0  0  0  0  0  0  0  0  0  0
  139.2240   74.4440  223.0690 H   0  0  0  0  0  0  0  0  0  0  0  0
  138.0845   72.3296  222.5224 H   0  0  0  0  0  0  0  0  0  0  0  0
  139.2879   72.0575  221.1974 H   0  0  0  0  0  0  0  0  0  0  0  0
  137.8953   71.1425  225.4583 H   0  0  0  0  0  0  0  0  0  0  0  0
  137.5446   71.4398  223.7037 H   0  0  0  0  0  0  0  0  0  0  0  0
  136.2924   69.4821  224.5847 H   0  0  0  0  0  0  0  0  0  0  0  0
  137.4190   69.0163  223.2959 H   0  0  0  0  0  0  0  0  0  0  0  0
  137.8512   68.8713  226.3033 H   0  0  0  0  0  0  0  0  0  0  0  0
  137.6948   67.4973  225.0937 H   0  0  0  0  0  0  0  0  0  0  0  0
  139.9856   68.0179  226.0260 H   0  0  0  0  0  0  0  0  0  0  0  0
  139.7314   67.8672  224.2037 H   0  0  0  0  0  0  0  0  0  0  0  0
  141.0772   69.4720  224.2372 H   0  0  0  0  0  0  0  0  0  0  0  0
  141.9041   69.9494  225.9260 H   0  0  0  0  0  0  0  0  0  0  0  0
  141.6243   72.2804  225.2862 H   0  0  0  0  0  0  0  0  0  0  0  0
  139.9601   72.3556  225.8019 H   0  0  0  0  0  0  0  0  0  0  0  0
  142.5129   72.3522  227.4582 H   0  0  0  0  0  0  0  0  0  0  0  0
  140.9634   73.1362  227.8401 H   0  0  0  0  0  0  0  0  0  0  0  0
  141.9611   70.5806  228.7450 H   0  0  0  0  0  0  0  0  0  0  0  0
  140.4213   71.3428  229.1669 H   0  0  0  0  0  0  0  0  0  0  0  0
  140.5595   69.0115  227.6693 H   0  0  0  0  0  0  0  0  0  0  0  0
  139.2388   70.1326  227.4343 H   0  0  0  0  0  0  0  0  0  0  0  0
  142.0494   75.5635  219.6307 H   0  0  0  0  0  0  0  0  0  0  0  0
  142.8356   77.9092  219.6431 H   0  0  0  0  0  0  0  0  0  0  0  0
  142.8121   80.0689  220.7826 H   0  0  0  0  0  0  0  0  0  0  0  0
  140.5828   80.6170  224.3887 H   0  0  0  0  0  0  0  0  0  0  0  0
  139.8698   78.2530  224.2483 H   0  0  0  0  0  0  0  0  0  0  0  0
  1  2  2  0
  2  3  1  0
  3  4  1  0
  4  5  1  0
  5  6  2  0
  5  7  1  0
  7  8  1  0
  8  9  1  0
  9 10  1  0
 10 11  1  0
 11 12  1  0
 12 13  1  0
 13 14  1  0
 14 15  1  0
 15 16  1  0
 16 17  1  0
  2 18  1  0
 18 19  2  0
 19 20  1  0
 20 21  2  0
 21 22  1  0
 22 23  2  0
 23 24  1  0
 23 25  1  0
 25 26  2  0
 26 27  1  0
 27 28  2  0
 12  7  1  0
 17 13  1  0
 28 18  1  0
 27 21  1  0
  3 29  1  0
  4 30  1  0
  4 31  1  0
  8 32  1  0
  8 33  1  0
  9 34  1  0
  9 35  1  0
 10 36  1  0
 10 37  1  0
 11 38  1  0
 11 39  1  0
 12 40  1  6
 13 41  1  0
 14 42  1  0
 14 43  1  0
 15 44  1  0
 15 45  1  0
 16 46  1  0
 16 47  1  0
 17 48  1  0
 17 49  1  0
 19 50  1  0
 20 51  1  0
 22 52  1  0
 25 53  1  0
 26 54  1  0
M  END
>  <smiles>  (31) 
O=C(NCC(=O)N1CCCCC1C1CCCC1)c1ccc2cc(F)ccc2n1

>  <score_type>  (31) 
oracle

>  <origin>  (31) 
autodockgpu

>  <m_score__min__energy>  (31) 
-9.0999999999999996

>  <m_primary>  (31) 
energy

>  <rmsd>  (31) 
8.738915934965618

>  <m_score__min__rmsd>  (31) 
8.738915934965618

>  <meeko>  (31) 
{"free_energy": -8.39, "intermolecular_energy": -9.89, "internal_energy": -1.56, "cluster_size": 7, "cluster_id": 2, "rank_in_cluster": 6}

>  <energy>  (31) 
-8.25

>  <cluster_rmsd>  (31) 
1.72

>  <cluster>  (31) 
1

$$$$

     RDKit          3D

 54 57  0  0  0  0  0  0  0  0999 V2000
  141.2440   72.1640  221.6120 O   0  0  0  0  0  0  0  0  0  0  0  0
  140.3260   72.3370  222.4830 C   0  0  0  0  0  0  0  0  0  0  0  0
  139.3570   73.3930  222.3210 N   0  0  0  0  0  0  0  0  0  0  0  0
  139.4410   74.2650  221.1410 C   0  0  0  0  0  0  0  0  0  0  0  0
  140.7120   74.9850  221.1010 C   0  0  0  0  0  0  0  0  0  0  0  0
  141.0570   75.6330  222.1350 O   0  0  0  0  0  0  0  0  0  0  0  0
  141.6070   75.0280  220.0040 N   0  0  0  0  0  0  0  0  0  0  0  0
  141.0910   74.7450  218.6890 C   0  0  0  0  0  0  0  0  0  0  0  0
  141.3860   75.8680  217.7130 C   0  0  0  0  0  0  0  0  0  0  0  0
  142.8700   76.0160  217.6790 C   0  0  0  0  0  0  0  0  0  0  0  0
  143.5150   76.2140  219.0220 C   0  0  0  0  0  0  0  0  0  0  0  0
  143.0150   75.3450  220.1170 C   0  0  2  0  0  0  0  0  0  0  0  0
  143.8470   74.1590  220.4620 C   0  0  0  0  0  0  0  0  0  0  0  0
  143.9220   73.0980  219.3900 C   0  0  0  0  0  0  0  0  0  0  0  0
  145.0260   72.1840  219.9270 C   0  0  0  0  0  0  0  0  0  0  0  0
  145.8870   73.0180  220.8220 C   0  0  0  0  0  0  0  0  0  0  0  0
  145.2770   74.4290  220.7880 C   0  0  0  0  0  0  0  0  0  0  0  0
  140.2360   71.4750  223.6610 C   0  0  0  0  0  0  0  0  0  0  0  0
  139.6500   70.2360  223.5310 C   0  0  0  0  0  0  0  0  0  0  0  0
  139.5170   69.3500  224.5780 C   0  0  0  0  0  0  0  0  0  0  0  0
  140.0010   69.7490  225.8040 C   0  0  0  0  0  0  0  0  0  0  0  0
  139.9190   68.9410  226.9180 C   0  0  0  0  0  0  0  0  0  0  0  0
  140.3920   69.3090  228.1510 C   0  0  0  0  0  0  0  0  0  0  0  0
  140.2730   68.4480  229.2120 F   0  0  0  0  0  0  0  0  0  0  0  0
  140.9790   70.5530  228.2800 C   0  0  0  0  0  0  0  0  0  0  0  0
  141.0640   71.3700  227.1600 C   0  0  0  0  0  0  0  0  0  0  0  0
  140.5930   71.0040  225.9320 C   0  0  0  0  0  0  0  0  0  0  0  0
  140.7030   71.8420  224.8720 N   0  0  0  0  0  0  0  0  0  0  0  0
  138.6160   73.5150  223.0480 H   0  0  0  0  0  0  0  0  0  0  0  0
  139.3492   73.6498  220.2338 H   0  0  0  0  0  0  0  0  0  0  0  0
  138.6265   75.0022  221.1960 H   0  0  0  0  0  0  0  0  0  0  0  0
  141.5540   73.8192  218.3167 H   0  0  0  0  0  0  0  0  0  0  0  0
  139.9989   74.6382  218.7665 H   0  0  0  0  0  0  0  0  0  0  0  0
  141.0059   75.6127  216.7128 H   0  0  0  0  0  0  0  0  0  0  0  0
  140.8984   76.8042  218.0224 H   0  0  0  0  0  0  0  0  0  0  0  0
  143.2941   75.1076  217.2264 H   0  0  0  0  0  0  0  0  0  0  0  0
  143.0769   76.9274  217.0989 H   0  0  0  0  0  0  0  0  0  0  0  0
  144.5930   76.0266  218.9088 H   0  0  0  0  0  0  0  0  0  0  0  0
  143.2668   77.2428  219.3221 H   0  0  0  0  0  0  0  0  0  0  0  0
  143.1314   75.9936  220.9978 H   0  0  0  0  0  0  0  0  0  0  0  0
  143.2939   73.8211  221.3508 H   0  0  0  0  0  0  0  0  0  0  0  0
  142.9681   72.5589  219.2933 H   0  0  0  0  0  0  0  0  0  0  0  0
  144.1241   73.4956  218.3845 H   0  0  0  0  0  0  0  0  0  0  0  0
  144.5846   71.3521  220.4954 H   0  0  0  0  0  0  0  0  0  0  0  0
  145.6156   71.7547  219.1035 H   0  0  0  0  0  0  0  0  0  0  0  0
  145.8744   72.6192  221.8471 H   0  0  0  0  0  0  0  0  0  0  0  0
  146.9357   73.0206  220.4900 H   0  0  0  0  0  0  0  0  0  0  0  0
  145.3743   74.9271  221.7639 H   0  0  0  0  0  0  0  0  0  0  0  0
  145.7696   75.1008  220.0696 H   0  0  0  0  0  0  0  0  0  0  0  0
  139.2692   69.9387  222.5428 H   0  0  0  0  0  0  0  0  0  0  0  0
  139.0445   68.3662  224.4404 H   0  0  0  0  0  0  0  0  0  0  0  0
  139.4506   67.9514  226.8122 H   0  0  0  0  0  0  0  0  0  0  0  0
  141.3714   70.8899  229.2508 H   0  0  0  0  0  0  0  0  0  0  0  0
  141.5332   72.3591  227.2676 H   0  0  0  0  0  0  0  0  0  0  0  0
  1  2  2  0
  2  3  1  0
  3  4  1  0
  4  5  1  0
  5  6  2  0
  5  7  1  0
  7  8  1  0
  8  9  1  0
  9 10  1  0
 10 11  1  0
 11 12  1  0
 12 13  1  0
 13 14  1  0
 14 15  1  0
 15 16  1  0
 16 17  1  0
  2 18  1  0
 18 19  2  0
 19 20  1  0
 20 21  2  0
 21 22  1  0
 22 23  2  0
 23 24  1  0
 23 25  1  0
 25 26  2  0
 26 27  1  0
 27 28  2  0
 12  7  1  0
 17 13  1  0
 28 18  1  0
 27 21  1  0
  3 29  1  0
  4 30  1  0
  4 31  1  0
  8 32  1  0
  8 33  1  0
  9 34  1  0
  9 35  1  0
 10 36  1  0
 10 37  1  0
 11 38  1  0
 11 39  1  0
 12 40  1  1
 13 41  1  0
 14 42  1  0
 14 43  1  0
 15 44  1  0
 15 45  1  0
 16 46  1  0
 16 47  1  0
 17 48  1  0
 17 49  1  0
 19 50  1  0
 20 51  1  0
 22 52  1  0
 25 53  1  0
 26 54  1  0
M  END
>  <smiles>  (32) 
O=C(NCC(=O)N1CCCCC1C1CCCC1)c1ccc2cc(F)ccc2n1

>  <score_type>  (32) 
oracle

>  <origin>  (32) 
autodockgpu

>  <m_score__min__energy>  (32) 
-9.0999999999999996

>  <m_primary>  (32) 
energy

>  <rmsd>  (32) 
1.78440006665119

>  <m_score__min__rmsd>  (32) 
1.78440006665119

>  <meeko>  (32) 
{"free_energy": -8.25, "intermolecular_energy": -9.74, "internal_energy": -1.64, "cluster_size": 42, "cluster_id": 1, "rank_in_cluster": 31}

>  <energy>  (32) 
-8.25

>  <cluster_rmsd>  (32) 
1.71

>  <cluster>  (32) 
1

$$$$

     RDKit          3D

 54 57  0  0  0  0  0  0  0  0999 V2000
  140.2140   71.7450  221.0430 O   0  0  0  0  0  0  0  0  0  0  0  0
  139.9890   72.2580  222.1910 C   0  0  0  0  0  0  0  0  0  0  0  0
  139.7330   73.6720  222.3200 N   0  0  0  0  0  0  0  0  0  0  0  0
  139.7360   74.5120  221.1140 C   0  0  0  0  0  0  0  0  0  0  0  0
  139.9330   75.9210  221.4480 C   0  0  0  0  0  0  0  0  0  0  0  0
  139.2170   76.4170  222.3680 O   0  0  0  0  0  0  0  0  0  0  0  0
  140.8630   76.7960  220.8340 N   0  0  0  0  0  0  0  0  0  0  0  0
  142.1280   76.2570  220.4030 C   0  0  0  0  0  0  0  0  0  0  0  0
  142.3860   76.5320  218.9340 C   0  0  0  0  0  0  0  0  0  0  0  0
  142.3600   78.0140  218.7720 C   0  0  0  0  0  0  0  0  0  0  0  0
  141.1170   78.6830  219.2890 C   0  0  0  0  0  0  0  0  0  0  0  0
  140.6210   78.2050  220.6050 C   0  0  2  0  0  0  0  0  0  0  0  0
  140.9510   79.0460  221.7890 C   0  0  0  0  0  0  0  0  0  0  0  0
  141.4560   78.2870  222.9920 C   0  0  0  0  0  0  0  0  0  0  0  0
  141.9420   79.4190  223.9000 C   0  0  0  0  0  0  0  0  0  0  0  0
  142.2730   80.5780  223.0140 C   0  0  0  0  0  0  0  0  0  0  0  0
  141.9850   80.1000  221.5800 C   0  0  0  0  0  0  0  0  0  0  0  0
  139.9860   71.4300  223.3960 C   0  0  0  0  0  0  0  0  0  0  0  0
  139.5320   70.1340  223.3080 C   0  0  0  0  0  0  0  0  0  0  0  0
  139.4890   69.2730  224.3830 C   0  0  0  0  0  0  0  0  0  0  0  0
  139.9260   69.7600  225.5950 C   0  0  0  0  0  0  0  0  0  0  0  0
  139.9250   68.9850  226.7340 C   0  0  0  0  0  0  0  0  0  0  0  0
  140.3550   69.4400  227.9550 C   0  0  0  0  0  0  0  0  0  0  0  0
  140.3230   68.6060  229.0440 F   0  0  0  0  0  0  0  0  0  0  0  0
  140.8100   70.7410  228.0420 C   0  0  0  0  0  0  0  0  0  0  0  0
  140.8120   71.5250  226.8960 C   0  0  0  0  0  0  0  0  0  0  0  0
  140.3850   71.0730  225.6820 C   0  0  0  0  0  0  0  0  0  0  0  0
  140.4100   71.8830  224.5940 N   0  0  0  0  0  0  0  0  0  0  0  0
  139.5530   74.0680  223.2700 H   0  0  0  0  0  0  0  0  0  0  0  0
  140.5500   74.1838  220.4509 H   0  0  0  0  0  0  0  0  0  0  0  0
  138.7611   74.4067  220.6155 H   0  0  0  0  0  0  0  0  0  0  0  0
  142.9317   76.7157  220.9977 H   0  0  0  0  0  0  0  0  0  0  0  0
  142.1023   75.1668  220.5475 H   0  0  0  0  0  0  0  0  0  0  0  0
  143.3684   76.1343  218.6394 H   0  0  0  0  0  0  0  0  0  0  0  0
  141.6293   76.0482  218.2989 H   0  0  0  0  0  0  0  0  0  0  0  0
  143.2230   78.4323  219.3107 H   0  0  0  0  0  0  0  0  0  0  0  0
  142.3885   78.2077  217.6896 H   0  0  0  0  0  0  0  0  0  0  0  0
  141.3262   79.7592  219.3786 H   0  0  0  0  0  0  0  0  0  0  0  0
  140.3250   78.4377  218.5661 H   0  0  0  0  0  0  0  0  0  0  0  0
  139.5335   78.3354  220.5039 H   0  0  0  0  0  0  0  0  0  0  0  0
  139.9590   79.4898  221.9590 H   0  0  0  0  0  0  0  0  0  0  0  0
  140.6494   77.7105  223.4685 H   0  0  0  0  0  0  0  0  0  0  0  0
  142.2318   77.5441  222.7547 H   0  0  0  0  0  0  0  0  0  0  0  0
  141.1503   79.7002  224.6101 H   0  0  0  0  0  0  0  0  0  0  0  0
  142.8213   79.1057  224.4819 H   0  0  0  0  0  0  0  0  0  0  0  0
  141.6426   81.4442  223.2637 H   0  0  0  0  0  0  0  0  0  0  0  0
  143.3193   80.8956  223.1341 H   0  0  0  0  0  0  0  0  0  0  0  0
  141.5958   80.9202  220.9588 H   0  0  0  0  0  0  0  0  0  0  0  0
  142.8792   79.7366  221.0524 H   0  0  0  0  0  0  0  0  0  0  0  0
  139.1860   69.7669  222.3305 H   0  0  0  0  0  0  0  0  0  0  0  0
  139.1216   68.2415  224.2778 H   0  0  0  0  0  0  0  0  0  0  0  0
  139.5612   67.9495  226.6609 H   0  0  0  0  0  0  0  0  0  0  0  0
  141.1640   71.1483  229.0006 H   0  0  0  0  0  0  0  0  0  0  0  0
  141.1755   72.5605  226.9708 H   0  0  0  0  0  0  0  0  0  0  0  0
  1  2  2  0
  2  3  1  0
  3  4  1  0
  4  5  1  0
  5  6  2  0
  5  7  1  0
  7  8  1  0
  8  9  1  0
  9 10  1  0
 10 11  1  0
 11 12  1  0
 12 13  1  0
 13 14  1  0
 14 15  1  0
 15 16  1  0
 16 17  1  0
  2 18  1  0
 18 19  2  0
 19 20  1  0
 20 21  2  0
 21 22  1  0
 22 23  2  0
 23 24  1  0
 23 25  1  0
 25 26  2  0
 26 27  1  0
 27 28  2  0
 12  7  1  0
 17 13  1  0
 28 18  1  0
 27 21  1  0
  3 29  1  0
  4 30  1  0
  4 31  1  0
  8 32  1  0
  8 33  1  0
  9 34  1  0
  9 35  1  0
 10 36  1  0
 10 37  1  0
 11 38  1  0
 11 39  1  0
 12 40  1  6
 13 41  1  0
 14 42  1  0
 14 43  1  0
 15 44  1  0
 15 45  1  0
 16 46  1  0
 16 47  1  0
 17 48  1  0
 17 49  1  0
 19 50  1  0
 20 51  1  0
 22 52  1  0
 25 53  1  0
 26 54  1  0
M  END
>  <smiles>  (33) 
O=C(NCC(=O)N1CCCCC1C1CCCC1)c1ccc2cc(F)ccc2n1

>  <score_type>  (33) 
oracle

>  <origin>  (33) 
autodockgpu

>  <m_score__min__energy>  (33) 
-9.0999999999999996

>  <m_primary>  (33) 
energy

>  <rmsd>  (33) 
2.051200371361177

>  <m_score__min__rmsd>  (33) 
2.051200371361177

>  <meeko>  (33) 
{"free_energy": -8.57, "intermolecular_energy": -10.06, "internal_energy": -1.62, "cluster_size": 42, "cluster_id": 1, "rank_in_cluster": 22}

>  <energy>  (33) 
-8.22

>  <cluster_rmsd>  (33) 
1.71

>  <cluster>  (33) 
1

$$$$

     RDKit          3D

 54 57  0  0  0  0  0  0  0  0999 V2000
  137.4190   75.4290  222.1380 O   0  0  0  0  0  0  0  0  0  0  0  0
  138.6670   75.6380  222.3110 C   0  0  0  0  0  0  0  0  0  0  0  0
  139.6070   74.5470  222.2290 N   0  0  0  0  0  0  0  0  0  0  0  0
  139.1090   73.1940  221.9440 C   0  0  0  0  0  0  0  0  0  0  0  0
  139.7730   72.1950  222.7790 C   0  0  0  0  0  0  0  0  0  0  0  0
  141.0380   72.1320  222.7330 O   0  0  0  0  0  0  0  0  0  0  0  0
  139.1290   71.2800  223.6480 N   0  0  0  0  0  0  0  0  0  0  0  0
  137.6970   71.1460  223.5610 C   0  0  0  0  0  0  0  0  0  0  0  0
  137.2790   69.7070  223.3270 C   0  0  0  0  0  0  0  0  0  0  0  0
  137.8150   68.9210  224.4750 C   0  0  0  0  0  0  0  0  0  0  0  0
  139.2910   69.0770  224.7120 C   0  0  0  0  0  0  0  0  0  0  0  0
  139.8210   70.4610  224.6210 C   0  0  2  0  0  0  0  0  0  0  0  0
  140.0580   71.1720  225.9080 C   0  0  0  0  0  0  0  0  0  0  0  0
  140.0010   70.3000  227.1390 C   0  0  0  0  0  0  0  0  0  0  0  0
  140.5340   71.2430  228.2200 C   0  0  0  0  0  0  0  0  0  0  0  0
  141.3950   72.2550  227.5310 C   0  0  0  0  0  0  0  0  0  0  0  0
  141.3640   71.8790  226.0400 C   0  0  0  0  0  0  0  0  0  0  0  0
  139.1720   76.9810  222.5960 C   0  0  0  0  0  0  0  0  0  0  0  0
  138.2690   78.0100  222.7420 C   0  0  0  0  0  0  0  0  0  0  0  0
  138.6430   79.3080  223.0120 C   0  0  0  0  0  0  0  0  0  0  0  0
  139.9900   79.5630  223.1360 C   0  0  0  0  0  0  0  0  0  0  0  0
  140.4720   80.8250  223.4040 C   0  0  0  0  0  0  0  0  0  0  0  0
  141.8080   81.1100  223.5330 C   0  0  0  0  0  0  0  0  0  0  0  0
  142.2090   82.3940  223.8010 F   0  0  0  0  0  0  0  0  0  0  0  0
  142.7120   80.0760  223.3860 C   0  0  0  0  0  0  0  0  0  0  0  0
  142.2300   78.8020  223.1150 C   0  0  0  0  0  0  0  0  0  0  0  0
  140.9010   78.5180  222.9870 C   0  0  0  0  0  0  0  0  0  0  0  0
  140.4860   77.2540  222.7220 N   0  0  0  0  0  0  0  0  0  0  0  0
  140.6230   74.7430  222.3750 H   0  0  0  0  0  0  0  0  0  0  0  0
  138.0270   73.1622  222.1397 H   0  0  0  0  0  0  0  0  0  0  0  0
  139.3218   72.9614  220.8901 H   0  0  0  0  0  0  0  0  0  0  0  0
  137.2486   71.4985  224.5016 H   0  0  0  0  0  0  0  0  0  0  0  0
  137.3487   71.7463  222.7075 H   0  0  0  0  0  0  0  0  0  0  0  0
  136.1822   69.6302  223.2924 H   0  0  0  0  0  0  0  0  0  0  0  0
  137.6672   69.3296  222.3694 H   0  0  0  0  0  0  0  0  0  0  0  0
  137.2867   69.2411  225.3852 H   0  0  0  0  0  0  0  0  0  0  0  0
  137.6516   67.8617  224.2278 H   0  0  0  0  0  0  0  0  0  0  0  0
  139.5121   68.6973  225.7204 H   0  0  0  0  0  0  0  0  0  0  0  0
  139.7826   68.5168  223.9030 H   0  0  0  0  0  0  0  0  0  0  0  0
  140.8390   70.2939  224.2392 H   0  0  0  0  0  0  0  0  0  0  0  0
  139.2229   71.8863  225.8591 H   0  0  0  0  0  0  0  0  0  0  0  0
  138.9705   69.9832  227.3573 H   0  0  0  0  0  0  0  0  0  0  0  0
  140.5705   69.3634  227.0465 H   0  0  0  0  0  0  0  0  0  0  0  0
  139.6980   71.7431  228.7309 H   0  0  0  0  0  0  0  0  0  0  0  0
  141.1083   70.6885  228.9767 H   0  0  0  0  0  0  0  0  0  0  0  0
  140.9916   73.2674  227.6800 H   0  0  0  0  0  0  0  0  0  0  0  0
  142.4204   72.2552  227.9292 H   0  0  0  0  0  0  0  0  0  0  0  0
  141.3957   72.7759  225.4039 H   0  0  0  0  0  0  0  0  0  0  0  0
  142.2242   71.2699  225.7252 H   0  0  0  0  0  0  0  0  0  0  0  0
  137.1973   77.7848  222.6381 H   0  0  0  0  0  0  0  0  0  0  0  0
  137.8961   80.1077  223.1239 H   0  0  0  0  0  0  0  0  0  0  0  0
  139.7493   81.6461  223.5206 H   0  0  0  0  0  0  0  0  0  0  0  0
  143.7926   80.2581  223.4817 H   0  0  0  0  0  0  0  0  0  0  0  0
  142.9541   77.9823  222.9979 H   0  0  0  0  0  0  0  0  0  0  0  0
  1  2  2  0
  2  3  1  0
  3  4  1  0
  4  5  1  0
  5  6  2  0
  5  7  1  0
  7  8  1  0
  8  9  1  0
  9 10  1  0
 10 11  1  0
 11 12  1  0
 12 13  1  0
 13 14  1  0
 14 15  1  0
 15 16  1  0
 16 17  1  0
  2 18  1  0
 18 19  2  0
 19 20  1  0
 20 21  2  0
 21 22  1  0
 22 23  2  0
 23 24  1  0
 23 25  1  0
 25 26  2  0
 26 27  1  0
 27 28  2  0
 12  7  1  0
 17 13  1  0
 28 18  1  0
 27 21  1  0
  3 29  1  0
  4 30  1  0
  4 31  1  0
  8 32  1  0
  8 33  1  0
  9 34  1  0
  9 35  1  0
 10 36  1  0
 10 37  1  0
 11 38  1  0
 11 39  1  0
 12 40  1  6
 13 41  1  0
 14 42  1  0
 14 43  1  0
 15 44  1  0
 15 45  1  0
 16 46  1  0
 16 47  1  0
 17 48  1  0
 17 49  1  0
 19 50  1  0
 20 51  1  0
 22 52  1  0
 25 53  1  0
 26 54  1  0
M  END
>  <smiles>  (34) 
O=C(NCC(=O)N1CCCCC1C1CCCC1)c1ccc2cc(F)ccc2n1

>  <score_type>  (34) 
oracle

>  <origin>  (34) 
autodockgpu

>  <m_score__min__energy>  (34) 
-9.0999999999999996

>  <m_primary>  (34) 
energy

>  <rmsd>  (34) 
8.705460223674805

>  <m_score__min__rmsd>  (34) 
8.705460223674805

>  <meeko>  (34) 
{"free_energy": -8.1, "intermolecular_energy": -9.59, "internal_energy": -1.69, "cluster_size": 7, "cluster_id": 2, "rank_in_cluster": 7}

>  <energy>  (34) 
-8.22

>  <cluster_rmsd>  (34) 
1.18

>  <cluster>  (34) 
1

$$$$

     RDKit          3D

 54 57  0  0  0  0  0  0  0  0999 V2000
  141.2550   72.7750  221.9800 O   0  0  0  0  0  0  0  0  0  0  0  0
  140.1830   72.6080  222.6530 C   0  0  0  0  0  0  0  0  0  0  0  0
  138.9980   73.3690  222.3360 N   0  0  0  0  0  0  0  0  0  0  0  0
  139.0440   74.3360  221.2310 C   0  0  0  0  0  0  0  0  0  0  0  0
  139.5500   75.6320  221.6790 C   0  0  0  0  0  0  0  0  0  0  0  0
  138.9930   76.1690  222.6830 O   0  0  0  0  0  0  0  0  0  0  0  0
  140.6170   76.3530  221.0910 N   0  0  0  0  0  0  0  0  0  0  0  0
  141.8580   75.6620  220.8460 C   0  0  0  0  0  0  0  0  0  0  0  0
  142.2830   75.7640  219.3940 C   0  0  0  0  0  0  0  0  0  0  0  0
  142.4220   77.2200  219.0990 C   0  0  0  0  0  0  0  0  0  0  0  0
  141.2090   78.0470  219.4190 C   0  0  0  0  0  0  0  0  0  0  0  0
  140.5430   77.7490  220.7120 C   0  0  2  0  0  0  0  0  0  0  0  0
  140.8400   78.6700  221.8450 C   0  0  0  0  0  0  0  0  0  0  0  0
  141.3750   78.0020  223.0880 C   0  0  0  0  0  0  0  0  0  0  0  0
  141.8160   79.2030  223.9270 C   0  0  0  0  0  0  0  0  0  0  0  0
  142.1000   80.3210  222.9750 C   0  0  0  0  0  0  0  0  0  0  0  0
  141.8310   79.7500  221.5720 C   0  0  0  0  0  0  0  0  0  0  0  0
  140.1290   71.6490  223.7550 C   0  0  0  0  0  0  0  0  0  0  0  0
  139.5390   70.4240  223.5380 C   0  0  0  0  0  0  0  0  0  0  0  0
  139.4380   69.4520  224.5090 C   0  0  0  0  0  0  0  0  0  0  0  0
  139.9600   69.7460  225.7490 C   0  0  0  0  0  0  0  0  0  0  0  0
  139.9130   68.8460  226.7920 C   0  0  0  0  0  0  0  0  0  0  0  0
  140.4240   69.1090  228.0370 C   0  0  0  0  0  0  0  0  0  0  0  0
  140.3370   68.1600  229.0240 F   0  0  0  0  0  0  0  0  0  0  0  0
  141.0150   70.3390  228.2530 C   0  0  0  0  0  0  0  0  0  0  0  0
  141.0650   71.2480  227.2050 C   0  0  0  0  0  0  0  0  0  0  0  0
  140.5570   70.9870  225.9660 C   0  0  0  0  0  0  0  0  0  0  0  0
  140.6330   71.9130  224.9780 N   0  0  0  0  0  0  0  0  0  0  0  0
  138.1330   73.2150  222.9020 H   0  0  0  0  0  0  0  0  0  0  0  0
  139.7044   73.9470  220.4419 H   0  0  0  0  0  0  0  0  0  0  0  0
  138.0217   74.4758  220.8497 H   0  0  0  0  0  0  0  0  0  0  0  0
  142.6422   76.1038  221.4783 H   0  0  0  0  0  0  0  0  0  0  0  0
  141.7097   74.5985  221.0846 H   0  0  0  0  0  0  0  0  0  0  0  0
  143.2442   75.2512  219.2417 H   0  0  0  0  0  0  0  0  0  0  0  0
  141.5470   75.2899  218.7280 H   0  0  0  0  0  0  0  0  0  0  0  0
  143.2662   77.6091  219.6872 H   0  0  0  0  0  0  0  0  0  0  0  0
  142.5748   77.3024  218.0128 H   0  0  0  0  0  0  0  0  0  0  0  0
  141.5157   79.1033  219.4336 H   0  0  0  0  0  0  0  0  0  0  0  0
  140.4701   77.8046  218.6410 H   0  0  0  0  0  0  0  0  0  0  0  0
  139.4893   77.9675  220.4842 H   0  0  0  0  0  0  0  0  0  0  0  0
  139.8315   79.0838  221.9924 H   0  0  0  0  0  0  0  0  0  0  0  0
  140.5921   77.4226  223.5993 H   0  0  0  0  0  0  0  0  0  0  0  0
  142.1792   77.2775  222.8921 H   0  0  0  0  0  0  0  0  0  0  0  0
  141.0142   79.4931  224.6220 H   0  0  0  0  0  0  0  0  0  0  0  0
  142.7077   78.9591  224.5232 H   0  0  0  0  0  0  0  0  0  0  0  0
  141.4355   81.1743  223.1759 H   0  0  0  0  0  0  0  0  0  0  0  0
  143.1328   80.6866  223.0739 H   0  0  0  0  0  0  0  0  0  0  0  0
  141.4093   80.5167  220.9054 H   0  0  0  0  0  0  0  0  0  0  0  0
  142.7387   79.3927  221.0636 H   0  0  0  0  0  0  0  0  0  0  0  0
  139.1280   70.2110  222.5401 H   0  0  0  0  0  0  0  0  0  0  0  0
  138.9608   68.4826  224.3027 H   0  0  0  0  0  0  0  0  0  0  0  0
  139.4418   67.8676  226.6168 H   0  0  0  0  0  0  0  0  0  0  0  0
  141.4377   70.5931  229.2363 H   0  0  0  0  0  0  0  0  0  0  0  0
  141.5369   72.2257  227.3821 H   0  0  0  0  0  0  0  0  0  0  0  0
  1  2  2  0
  2  3  1  0
  3  4  1  0
  4  5  1  0
  5  6  2  0
  5  7  1  0
  7  8  1  0
  8  9  1  0
  9 10  1  0
 10 11  1  0
 11 12  1  0
 12 13  1  0
 13 14  1  0
 14 15  1  0
 15 16  1  0
 16 17  1  0
  2 18  1  0
 18 19  2  0
 19 20  1  0
 20 21  2  0
 21 22  1  0
 22 23  2  0
 23 24  1  0
 23 25  1  0
 25 26  2  0
 26 27  1  0
 27 28  2  0
 12  7  1  0
 17 13  1  0
 28 18  1  0
 27 21  1  0
  3 29  1  0
  4 30  1  0
  4 31  1  0
  8 32  1  0
  8 33  1  0
  9 34  1  0
  9 35  1  0
 10 36  1  0
 10 37  1  0
 11 38  1  0
 11 39  1  0
 12 40  1  6
 13 41  1  0
 14 42  1  0
 14 43  1  0
 15 44  1  0
 15 45  1  0
 16 46  1  0
 16 47  1  0
 17 48  1  0
 17 49  1  0
 19 50  1  0
 20 51  1  0
 22 52  1  0
 25 53  1  0
 26 54  1  0
M  END
>  <smiles>  (35) 
O=C(NCC(=O)N1CCCCC1C1CCCC1)c1ccc2cc(F)ccc2n1

>  <score_type>  (35) 
oracle

>  <origin>  (35) 
autodockgpu

>  <m_score__min__energy>  (35) 
-9.0999999999999996

>  <m_primary>  (35) 
energy

>  <rmsd>  (35) 
2.011595698123923

>  <m_score__min__rmsd>  (35) 
2.011595698123923

>  <meeko>  (35) 
{"free_energy": -8.75, "intermolecular_energy": -10.24, "internal_energy": -1.46, "cluster_size": 42, "cluster_id": 1, "rank_in_cluster": 14}

>  <energy>  (35) 
-8.2

>  <cluster_rmsd>  (35) 
1.72

>  <cluster>  (35) 
1

$$$$

     RDKit          3D

 54 57  0  0  0  0  0  0  0  0999 V2000
  141.3160   73.8980  220.4340 O   0  0  0  0  0  0  0  0  0  0  0  0
  140.6730   74.6530  221.2380 C   0  0  0  0  0  0  0  0  0  0  0  0
  139.6020   74.1170  222.0430 N   0  0  0  0  0  0  0  0  0  0  0  0
  139.2630   72.6920  221.9230 C   0  0  0  0  0  0  0  0  0  0  0  0
  139.8080   71.9200  223.0380 C   0  0  0  0  0  0  0  0  0  0  0  0
  141.0520   72.0100  223.2680 O   0  0  0  0  0  0  0  0  0  0  0  0
  139.0700   71.0720  223.8990 N   0  0  0  0  0  0  0  0  0  0  0  0
  137.6310   71.1200  223.8370 C   0  0  0  0  0  0  0  0  0  0  0  0
  137.0310   69.7510  223.5800 C   0  0  0  0  0  0  0  0  0  0  0  0
  137.4840   68.8760  224.7000 C   0  0  0  0  0  0  0  0  0  0  0  0
  138.9710   68.8400  224.9110 C   0  0  0  0  0  0  0  0  0  0  0  0
  139.6690   70.1490  224.8400 C   0  0  2  0  0  0  0  0  0  0  0  0
  140.0150   70.7930  226.1380 C   0  0  0  0  0  0  0  0  0  0  0  0
  140.3830   69.8380  227.2470 C   0  0  0  0  0  0  0  0  0  0  0  0
  140.9240   70.7890  228.3170 C   0  0  0  0  0  0  0  0  0  0  0  0
  141.4080   72.0140  227.6080 C   0  0  0  0  0  0  0  0  0  0  0  0
  141.1530   71.7570  226.1130 C   0  0  0  0  0  0  0  0  0  0  0  0
  141.0030   76.0730  221.3630 C   0  0  0  0  0  0  0  0  0  0  0  0
  141.5160   76.7320  220.2680 C   0  0  0  0  0  0  0  0  0  0  0  0
  141.8570   78.0660  220.2830 C   0  0  0  0  0  0  0  0  0  0  0  0
  141.6680   78.7510  221.4620 C   0  0  0  0  0  0  0  0  0  0  0  0
  141.9770   80.0880  221.5860 C   0  0  0  0  0  0  0  0  0  0  0  0
  141.8000   80.7970  222.7470 C   0  0  0  0  0  0  0  0  0  0  0  0
  142.1320   82.1280  222.7910 F   0  0  0  0  0  0  0  0  0  0  0  0
  141.2860   80.1350  223.8440 C   0  0  0  0  0  0  0  0  0  0  0  0
  140.9740   78.7870  223.7230 C   0  0  0  0  0  0  0  0  0  0  0  0
  141.1500   78.0810  222.5690 C   0  0  0  0  0  0  0  0  0  0  0  0
  140.8270   76.7650  222.5070 N   0  0  0  0  0  0  0  0  0  0  0  0
  139.0900   74.7550  222.6930 H   0  0  0  0  0  0  0  0  0  0  0  0
  138.1684   72.5838  221.9136 H   0  0  0  0  0  0  0  0  0  0  0  0
  139.7004   72.3088  220.9892 H   0  0  0  0  0  0  0  0  0  0  0  0
  137.2462   71.5032  224.7936 H   0  0  0  0  0  0  0  0  0  0  0  0
  137.3471   71.7791  223.0033 H   0  0  0  0  0  0  0  0  0  0  0  0
  135.9329   69.8134  223.5661 H   0  0  0  0  0  0  0  0  0  0  0  0
  137.3517   69.3512  222.6067 H   0  0  0  0  0  0  0  0  0  0  0  0
  137.0157   69.2375  225.6273 H   0  0  0  0  0  0  0  0  0  0  0  0
  137.1848   67.8518  224.4326 H   0  0  0  0  0  0  0  0  0  0  0  0
  139.1597   68.4112  225.9062 H   0  0  0  0  0  0  0  0  0  0  0  0
  139.3747   68.2424  224.0804 H   0  0  0  0  0  0  0  0  0  0  0  0
  140.6512   69.8649  224.4342 H   0  0  0  0  0  0  0  0  0  0  0  0
  139.0617   71.3085  226.3265 H   0  0  0  0  0  0  0  0  0  0  0  0
  139.5023   69.2875  227.6095 H   0  0  0  0  0  0  0  0  0  0  0  0
  141.0974   69.0586  226.9432 H   0  0  0  0  0  0  0  0  0  0  0  0
  140.1257   71.0534  229.0261 H   0  0  0  0  0  0  0  0  0  0  0  0
  141.7383   70.3172  228.8865 H   0  0  0  0  0  0  0  0  0  0  0  0
  140.8489   72.8990  227.9460 H   0  0  0  0  0  0  0  0  0  0  0  0
  142.4716   72.2075  227.8113 H   0  0  0  0  0  0  0  0  0  0  0  0
  140.8756   72.6853  225.5922 H   0  0  0  0  0  0  0  0  0  0  0  0
  142.0359   71.3778  225.5775 H   0  0  0  0  0  0  0  0  0  0  0  0
  141.6604   76.1653  219.3363 H   0  0  0  0  0  0  0  0  0  0  0  0
  142.2635   78.5635  219.3901 H   0  0  0  0  0  0  0  0  0  0  0  0
  142.3861   80.6131  220.7103 H   0  0  0  0  0  0  0  0  0  0  0  0
  141.1267   80.6645  224.7949 H   0  0  0  0  0  0  0  0  0  0  0  0
  140.5653   78.2635  224.5999 H   0  0  0  0  0  0  0  0  0  0  0  0
  1  2  2  0
  2  3  1  0
  3  4  1  0
  4  5  1  0
  5  6  2  0
  5  7  1  0
  7  8  1  0
  8  9  1  0
  9 10  1  0
 10 11  1  0
 11 12  1  0
 12 13  1  0
 13 14  1  0
 14 15  1  0
 15 16  1  0
 16 17  1  0
  2 18  1  0
 18 19  2  0
 19 20  1  0
 20 21  2  0
 21 22  1  0
 22 23  2  0
 23 24  1  0
 23 25  1  0
 25 26  2  0
 26 27  1  0
 27 28  2  0
 12  7  1  0
 17 13  1  0
 28 18  1  0
 27 21  1  0
  3 29  1  0
  4 30  1  0
  4 31  1  0
  8 32  1  0
  8 33  1  0
  9 34  1  0
  9 35  1  0
 10 36  1  0
 10 37  1  0
 11 38  1  0
 11 39  1  0
 12 40  1  6
 13 41  1  0
 14 42  1  0
 14 43  1  0
 15 44  1  0
 15 45  1  0
 16 46  1  0
 16 47  1  0
 17 48  1  0
 17 49  1  0
 19 50  1  0
 20 51  1  0
 22 52  1  0
 25 53  1  0
 26 54  1  0
M  END
>  <smiles>  (36) 
O=C(NCC(=O)N1CCCCC1C1CCCC1)c1ccc2cc(F)ccc2n1

>  <score_type>  (36) 
oracle

>  <origin>  (36) 
autodockgpu

>  <m_score__min__energy>  (36) 
-9.0999999999999996

>  <m_primary>  (36) 
energy

>  <rmsd>  (36) 
8.70924749935517

>  <m_score__min__rmsd>  (36) 
8.70924749935517

>  <meeko>  (36) 
{"free_energy": -8.5, "intermolecular_energy": -9.99, "internal_energy": -1.39, "cluster_size": 7, "cluster_id": 2, "rank_in_cluster": 3}

>  <energy>  (36) 
-8.08

>  <cluster_rmsd>  (36) 
1.47

>  <cluster>  (36) 
1

$$$$

     RDKit          3D

 54 57  0  0  0  0  0  0  0  0999 V2000
  141.2350   72.1910  221.5820 O   0  0  0  0  0  0  0  0  0  0  0  0
  140.3290   72.3790  222.4620 C   0  0  0  0  0  0  0  0  0  0  0  0
  139.3760   73.4510  222.3090 N   0  0  0  0  0  0  0  0  0  0  0  0
  139.4620   74.3210  221.1280 C   0  0  0  0  0  0  0  0  0  0  0  0
  140.7370   75.0350  221.0860 C   0  0  0  0  0  0  0  0  0  0  0  0
  141.0810   75.6910  222.1150 O   0  0  0  0  0  0  0  0  0  0  0  0
  141.6360   75.0650  219.9920 N   0  0  0  0  0  0  0  0  0  0  0  0
  141.1230   74.7740  218.6770 C   0  0  0  0  0  0  0  0  0  0  0  0
  141.4280   75.8880  217.6940 C   0  0  0  0  0  0  0  0  0  0  0  0
  142.9130   76.0270  217.6630 C   0  0  0  0  0  0  0  0  0  0  0  0
  143.5550   76.2320  219.0070 C   0  0  0  0  0  0  0  0  0  0  0  0
  143.0450   75.3750  220.1080 C   0  0  2  0  0  0  0  0  0  0  0  0
  143.8690   74.1860  220.4640 C   0  0  0  0  0  0  0  0  0  0  0  0
  143.9740   73.1340  219.3870 C   0  0  0  0  0  0  0  0  0  0  0  0
  145.0640   72.2170  219.9450 C   0  0  0  0  0  0  0  0  0  0  0  0
  145.9000   73.0440  220.8690 C   0  0  0  0  0  0  0  0  0  0  0  0
  145.2900   74.4550  220.8310 C   0  0  0  0  0  0  0  0  0  0  0  0
  140.2360   71.5180  223.6400 C   0  0  0  0  0  0  0  0  0  0  0  0
  139.6510   70.2790  223.5110 C   0  0  0  0  0  0  0  0  0  0  0  0
  139.5160   69.3940  224.5590 C   0  0  0  0  0  0  0  0  0  0  0  0
  139.9960   69.7950  225.7850 C   0  0  0  0  0  0  0  0  0  0  0  0
  139.9120   68.9890  226.9000 C   0  0  0  0  0  0  0  0  0  0  0  0
  140.3810   69.3590  228.1340 C   0  0  0  0  0  0  0  0  0  0  0  0
  140.2600   68.4990  229.1960 F   0  0  0  0  0  0  0  0  0  0  0  0
  140.9680   70.6030  228.2630 C   0  0  0  0  0  0  0  0  0  0  0  0
  141.0550   71.4180  227.1420 C   0  0  0  0  0  0  0  0  0  0  0  0
  140.5880   71.0510  225.9130 C   0  0  0  0  0  0  0  0  0  0  0  0
  140.7000   71.8880  224.8520 N   0  0  0  0  0  0  0  0  0  0  0  0
  138.6440   73.5850  223.0430 H   0  0  0  0  0  0  0  0  0  0  0  0
  139.3661   73.7052  220.2216 H   0  0  0  0  0  0  0  0  0  0  0  0
  138.6508   75.0619  221.1827 H   0  0  0  0  0  0  0  0  0  0  0  0
  141.5824   73.8429  218.3137 H   0  0  0  0  0  0  0  0  0  0  0  0
  140.0301   74.6731  218.7510 H   0  0  0  0  0  0  0  0  0  0  0  0
  141.0492   75.6278  216.6946 H   0  0  0  0  0  0  0  0  0  0  0  0
  140.9454   76.8294  217.9956 H   0  0  0  0  0  0  0  0  0  0  0  0
  143.3331   75.1125  217.2189 H   0  0  0  0  0  0  0  0  0  0  0  0
  143.1272   76.9323  217.0760 H   0  0  0  0  0  0  0  0  0  0  0  0
  144.6321   76.0364  218.8992 H   0  0  0  0  0  0  0  0  0  0  0  0
  143.3129   77.2649  219.2977 H   0  0  0  0  0  0  0  0  0  0  0  0
  143.1610   76.0300  220.9841 H   0  0  0  0  0  0  0  0  0  0  0  0
  143.2918   73.8396  221.3340 H   0  0  0  0  0  0  0  0  0  0  0  0
  143.0236   72.5947  219.2608 H   0  0  0  0  0  0  0  0  0  0  0  0
  144.2026   73.5400  218.3905 H   0  0  0  0  0  0  0  0  0  0  0  0
  144.6087   71.3800  220.4946 H   0  0  0  0  0  0  0  0  0  0  0  0
  145.6755   71.7951  219.1338 H   0  0  0  0  0  0  0  0  0  0  0  0
  145.8608   72.6365  221.8900 H   0  0  0  0  0  0  0  0  0  0  0  0
  146.9570   73.0502  220.5645 H   0  0  0  0  0  0  0  0  0  0  0  0
  145.3604   74.9446  221.8135 H   0  0  0  0  0  0  0  0  0  0  0  0
  145.8011   75.1337  220.1324 H   0  0  0  0  0  0  0  0  0  0  0  0
  139.2724   69.9801  222.5224 H   0  0  0  0  0  0  0  0  0  0  0  0
  139.0449   68.4095  224.4215 H   0  0  0  0  0  0  0  0  0  0  0  0
  139.4450   67.9987  226.7944 H   0  0  0  0  0  0  0  0  0  0  0  0
  141.3586   70.9411  229.2341 H   0  0  0  0  0  0  0  0  0  0  0  0
  141.5231   72.4076  227.2497 H   0  0  0  0  0  0  0  0  0  0  0  0
  1  2  2  0
  2  3  1  0
  3  4  1  0
  4  5  1  0
  5  6  2  0
  5  7  1  0
  7  8  1  0
  8  9  1  0
  9 10  1  0
 10 11  1  0
 11 12  1  0
 12 13  1  0
 13 14  1  0
 14 15  1  0
 15 16  1  0
 16 17  1  0
  2 18  1  0
 18 19  2  0
 19 20  1  0
 20 21  2  0
 21 22  1  0
 22 23  2  0
 23 24  1  0
 23 25  1  0
 25 26  2  0
 26 27  1  0
 27 28  2  0
 12  7  1  0
 17 13  1  0
 28 18  1  0
 27 21  1  0
  3 29  1  0
  4 30  1  0
  4 31  1  0
  8 32  1  0
  8 33  1  0
  9 34  1  0
  9 35  1  0
 10 36  1  0
 10 37  1  0
 11 38  1  0
 11 39  1  0
 12 40  1  1
 13 41  1  0
 14 42  1  0
 14 43  1  0
 15 44  1  0
 15 45  1  0
 16 46  1  0
 16 47  1  0
 17 48  1  0
 17 49  1  0
 19 50  1  0
 20 51  1  0
 22 52  1  0
 25 53  1  0
 26 54  1  0
M  END
>  <smiles>  (37) 
O=C(NCC(=O)N1CCCCC1C1CCCC1)c1ccc2cc(F)ccc2n1

>  <score_type>  (37) 
oracle

>  <origin>  (37) 
autodockgpu

>  <m_score__min__energy>  (37) 
-9.0999999999999996

>  <m_primary>  (37) 
energy

>  <rmsd>  (37) 
1.8033195609859531

>  <m_score__min__rmsd>  (37) 
1.8033195609859531

>  <meeko>  (37) 
{"free_energy": -8.25, "intermolecular_energy": -9.74, "internal_energy": -1.64, "cluster_size": 42, "cluster_id": 1, "rank_in_cluster": 32}

>  <energy>  (37) 
-8.06

>  <cluster_rmsd>  (37) 
0.86

>  <cluster>  (37) 
1

$$$$

     RDKit          3D

 54 57  0  0  0  0  0  0  0  0999 V2000
  141.2010   72.0920  221.4770 O   0  0  0  0  0  0  0  0  0  0  0  0
  140.3810   72.3960  222.4080 C   0  0  0  0  0  0  0  0  0  0  0  0
  139.5840   73.5950  222.3130 N   0  0  0  0  0  0  0  0  0  0  0  0
  139.7290   74.4580  221.1340 C   0  0  0  0  0  0  0  0  0  0  0  0
  139.9510   75.8510  221.5170 C   0  0  0  0  0  0  0  0  0  0  0  0
  139.2850   76.3090  222.4930 O   0  0  0  0  0  0  0  0  0  0  0  0
  140.8530   76.7490  220.8960 N   0  0  0  0  0  0  0  0  0  0  0  0
  142.1240   76.2400  220.4460 C   0  0  0  0  0  0  0  0  0  0  0  0
  142.3570   76.5270  218.9750 C   0  0  0  0  0  0  0  0  0  0  0  0
  142.2970   78.0090  218.8210 C   0  0  0  0  0  0  0  0  0  0  0  0
  141.0470   78.6490  219.3570 C   0  0  0  0  0  0  0  0  0  0  0  0
  140.5790   78.1530  220.6770 C   0  0  2  0  0  0  0  0  0  0  0  0
  140.9060   78.9960  221.8610 C   0  0  0  0  0  0  0  0  0  0  0  0
  141.4250   78.2400  223.0600 C   0  0  0  0  0  0  0  0  0  0  0  0
  141.9030   79.3750  223.9670 C   0  0  0  0  0  0  0  0  0  0  0  0
  142.2180   80.5390  223.0820 C   0  0  0  0  0  0  0  0  0  0  0  0
  141.9280   80.0610  221.6490 C   0  0  0  0  0  0  0  0  0  0  0  0
  140.2310   71.5430  223.5860 C   0  0  0  0  0  0  0  0  0  0  0  0
  139.5780   70.3390  223.4530 C   0  0  0  0  0  0  0  0  0  0  0  0
  139.3860   69.4640  224.5000 C   0  0  0  0  0  0  0  0  0  0  0  0
  139.8790   69.8380  225.7300 C   0  0  0  0  0  0  0  0  0  0  0  0
  139.7410   69.0390  226.8440 C   0  0  0  0  0  0  0  0  0  0  0  0
  140.2220   69.3830  228.0810 C   0  0  0  0  0  0  0  0  0  0  0  0
  140.0450   68.5320  229.1430 F   0  0  0  0  0  0  0  0  0  0  0  0
  140.8770   70.5920  228.2140 C   0  0  0  0  0  0  0  0  0  0  0  0
  141.0180   71.4000  227.0940 C   0  0  0  0  0  0  0  0  0  0  0  0
  140.5400   71.0580  225.8620 C   0  0  0  0  0  0  0  0  0  0  0  0
  140.7060   71.8870  224.8010 N   0  0  0  0  0  0  0  0  0  0  0  0
  138.9210   73.8230  223.0880 H   0  0  0  0  0  0  0  0  0  0  0  0
  140.5858   74.1096  220.5386 H   0  0  0  0  0  0  0  0  0  0  0  0
  138.7992   74.4038  220.5487 H   0  0  0  0  0  0  0  0  0  0  0  0
  142.9250   76.7138  221.0324 H   0  0  0  0  0  0  0  0  0  0  0  0
  142.1241   75.1489  220.5856 H   0  0  0  0  0  0  0  0  0  0  0  0
  143.3438   76.1519  218.6658 H   0  0  0  0  0  0  0  0  0  0  0  0
  141.6029   76.0298  218.3472 H   0  0  0  0  0  0  0  0  0  0  0  0
  143.1578   78.4431  219.3508 H   0  0  0  0  0  0  0  0  0  0  0  0
  142.3072   78.2083  217.7392 H   0  0  0  0  0  0  0  0  0  0  0  0
  141.2344   79.7289  219.4498 H   0  0  0  0  0  0  0  0  0  0  0  0
  140.2509   78.3916  218.6429 H   0  0  0  0  0  0  0  0  0  0  0  0
  139.4876   78.2593  220.5901 H   0  0  0  0  0  0  0  0  0  0  0  0
  139.9103   79.4295  222.0363 H   0  0  0  0  0  0  0  0  0  0  0  0
  140.6270   77.6540  223.5394 H   0  0  0  0  0  0  0  0  0  0  0  0
  142.2074   77.5058  222.8175 H   0  0  0  0  0  0  0  0  0  0  0  0
  141.1116   79.6467  224.6811 H   0  0  0  0  0  0  0  0  0  0  0  0
  142.7883   79.0699  224.5442 H   0  0  0  0  0  0  0  0  0  0  0  0
  141.5801   81.3983  223.3364 H   0  0  0  0  0  0  0  0  0  0  0  0
  143.2615   80.8671  223.1978 H   0  0  0  0  0  0  0  0  0  0  0  0
  141.5273   80.8783  221.0314 H   0  0  0  0  0  0  0  0  0  0  0  0
  142.8233   79.7079  221.1163 H   0  0  0  0  0  0  0  0  0  0  0  0
  139.1901   70.0614  222.4618 H   0  0  0  0  0  0  0  0  0  0  0  0
  138.8613   68.5075  224.3592 H   0  0  0  0  0  0  0  0  0  0  0  0
  139.2188   68.0770  226.7355 H   0  0  0  0  0  0  0  0  0  0  0  0
  141.2788   70.9081  229.1880 H   0  0  0  0  0  0  0  0  0  0  0  0
  141.5400   72.3619  227.2046 H   0  0  0  0  0  0  0  0  0  0  0  0
  1  2  2  0
  2  3  1  0
  3  4  1  0
  4  5  1  0
  5  6  2  0
  5  7  1  0
  7  8  1  0
  8  9  1  0
  9 10  1  0
 10 11  1  0
 11 12  1  0
 12 13  1  0
 13 14  1  0
 14 15  1  0
 15 16  1  0
 16 17  1  0
  2 18  1  0
 18 19  2  0
 19 20  1  0
 20 21  2  0
 21 22  1  0
 22 23  2  0
 23 24  1  0
 23 25  1  0
 25 26  2  0
 26 27  1  0
 27 28  2  0
 12  7  1  0
 17 13  1  0
 28 18  1  0
 27 21  1  0
  3 29  1  0
  4 30  1  0
  4 31  1  0
  8 32  1  0
  8 33  1  0
  9 34  1  0
  9 35  1  0
 10 36  1  0
 10 37  1  0
 11 38  1  0
 11 39  1  0
 12 40  1  6
 13 41  1  0
 14 42  1  0
 14 43  1  0
 15 44  1  0
 15 45  1  0
 16 46  1  0
 16 47  1  0
 17 48  1  0
 17 49  1  0
 19 50  1  0
 20 51  1  0
 22 52  1  0
 25 53  1  0
 26 54  1  0
M  END
>  <smiles>  (38) 
O=C(NCC(=O)N1CCCCC1C1CCCC1)c1ccc2cc(F)ccc2n1

>  <score_type>  (38) 
oracle

>  <origin>  (38) 
autodockgpu

>  <m_score__min__energy>  (38) 
-9.0999999999999996

>  <m_primary>  (38) 
energy

>  <rmsd>  (38) 
2.110883443343402

>  <m_score__min__rmsd>  (38) 
2.110883443343402

>  <meeko>  (38) 
{"free_energy": -8.83, "intermolecular_energy": -10.32, "internal_energy": -1.49, "cluster_size": 42, "cluster_id": 1, "rank_in_cluster": 11}

>  <energy>  (38) 
-8.03

>  <cluster_rmsd>  (38) 
1.7

>  <cluster>  (38) 
1

$$$$

     RDKit          3D

 54 57  0  0  0  0  0  0  0  0999 V2000
  141.1110   72.6050  221.8550 O   0  0  0  0  0  0  0  0  0  0  0  0
  140.0800   72.5050  222.6010 C   0  0  0  0  0  0  0  0  0  0  0  0
  138.9100   73.3080  222.3400 N   0  0  0  0  0  0  0  0  0  0  0  0
  138.9220   74.2400  221.2050 C   0  0  0  0  0  0  0  0  0  0  0  0
  139.4150   75.5570  221.6040 C   0  0  0  0  0  0  0  0  0  0  0  0
  138.7180   76.2260  222.4250 O   0  0  0  0  0  0  0  0  0  0  0  0
  140.6130   76.1650  221.1560 N   0  0  0  0  0  0  0  0  0  0  0  0
  141.8230   75.3810  221.1670 C   0  0  0  0  0  0  0  0  0  0  0  0
  142.4840   75.3470  219.8020 C   0  0  0  0  0  0  0  0  0  0  0  0
  142.7750   76.7640  219.4400 C   0  0  0  0  0  0  0  0  0  0  0  0
  141.5900   77.6870  219.5000 C   0  0  0  0  0  0  0  0  0  0  0  0
  140.7030   77.5290  220.6810 C   0  0  2  0  0  0  0  0  0  0  0  0
  140.8800   78.5140  221.7850 C   0  0  0  0  0  0  0  0  0  0  0  0
  141.3730   77.9320  223.0870 C   0  0  0  0  0  0  0  0  0  0  0  0
  141.6960   79.1910  223.8940 C   0  0  0  0  0  0  0  0  0  0  0  0
  141.9780   80.2810  222.9090 C   0  0  0  0  0  0  0  0  0  0  0  0
  141.8270   79.6360  221.5210 C   0  0  0  0  0  0  0  0  0  0  0  0
  140.0600   71.5800  223.7340 C   0  0  0  0  0  0  0  0  0  0  0  0
  139.4860   70.3400  223.5660 C   0  0  0  0  0  0  0  0  0  0  0  0
  139.4180   69.3980  224.5680 C   0  0  0  0  0  0  0  0  0  0  0  0
  139.9550   69.7390  225.7900 C   0  0  0  0  0  0  0  0  0  0  0  0
  139.9390   68.8720  226.8610 C   0  0  0  0  0  0  0  0  0  0  0  0
  140.4660   69.1820  228.0880 C   0  0  0  0  0  0  0  0  0  0  0  0
  140.4110   68.2640  229.1060 F   0  0  0  0  0  0  0  0  0  0  0  0
  141.0400   70.4270  228.2560 C   0  0  0  0  0  0  0  0  0  0  0  0
  141.0580   71.3030  227.1790 C   0  0  0  0  0  0  0  0  0  0  0  0
  140.5340   70.9950  225.9570 C   0  0  0  0  0  0  0  0  0  0  0  0
  140.5800   71.8910  224.9390 N   0  0  0  0  0  0  0  0  0  0  0  0
  138.0790   73.2080  222.9660 H   0  0  0  0  0  0  0  0  0  0  0  0
  139.5750   73.8366  220.4171 H   0  0  0  0  0  0  0  0  0  0  0  0
  137.8914   74.3520  220.8370 H   0  0  0  0  0  0  0  0  0  0  0  0
  142.5248   75.8193  221.8918 H   0  0  0  0  0  0  0  0  0  0  0  0
  141.5601   74.3499  221.4456 H   0  0  0  0  0  0  0  0  0  0  0  0
  143.4171   74.7661  219.8455 H   0  0  0  0  0  0  0  0  0  0  0  0
  141.8323   74.8702  219.0550 H   0  0  0  0  0  0  0  0  0  0  0  0
  143.5399   77.1439  220.1332 H   0  0  0  0  0  0  0  0  0  0  0  0
  143.1060   76.7535  218.3910 H   0  0  0  0  0  0  0  0  0  0  0  0
  141.9673   78.7203  219.4979 H   0  0  0  0  0  0  0  0  0  0  0  0
  140.9708   77.4332  218.6270 H   0  0  0  0  0  0  0  0  0  0  0  0
  139.7182   77.7929  220.2681 H   0  0  0  0  0  0  0  0  0  0  0  0
  139.8436   78.8763  221.8527 H   0  0  0  0  0  0  0  0  0  0  0  0
  140.5927   77.3316  223.5777 H   0  0  0  0  0  0  0  0  0  0  0  0
  142.2258   77.2467  222.9726 H   0  0  0  0  0  0  0  0  0  0  0  0
  140.8383   79.4653  224.5258 H   0  0  0  0  0  0  0  0  0  0  0  0
  142.5607   79.0239  224.5531 H   0  0  0  0  0  0  0  0  0  0  0  0
  141.2577   81.1035  223.0303 H   0  0  0  0  0  0  0  0  0  0  0  0
  142.9817   80.7078  223.0516 H   0  0  0  0  0  0  0  0  0  0  0  0
  141.4065   80.3482  220.7958 H   0  0  0  0  0  0  0  0  0  0  0  0
  142.7821   79.3089  221.0843 H   0  0  0  0  0  0  0  0  0  0  0  0
  139.0608   70.0894  222.5829 H   0  0  0  0  0  0  0  0  0  0  0  0
  138.9545   68.4147  224.3998 H   0  0  0  0  0  0  0  0  0  0  0  0
  139.4804   67.8815  226.7245 H   0  0  0  0  0  0  0  0  0  0  0  0
  141.4742   70.7186  229.2237 H   0  0  0  0  0  0  0  0  0  0  0  0
  141.5168   72.2932  227.3173 H   0  0  0  0  0  0  0  0  0  0  0  0
  1  2  2  0
  2  3  1  0
  3  4  1  0
  4  5  1  0
  5  6  2  0
  5  7  1  0
  7  8  1  0
  8  9  1  0
  9 10  1  0
 10 11  1  0
 11 12  1  0
 12 13  1  0
 13 14  1  0
 14 15  1  0
 15 16  1  0
 16 17  1  0
  2 18  1  0
 18 19  2  0
 19 20  1  0
 20 21  2  0
 21 22  1  0
 22 23  2  0
 23 24  1  0
 23 25  1  0
 25 26  2  0
 26 27  1  0
 27 28  2  0
 12  7  1  0
 17 13  1  0
 28 18  1  0
 27 21  1  0
  3 29  1  0
  4 30  1  0
  4 31  1  0
  8 32  1  0
  8 33  1  0
  9 34  1  0
  9 35  1  0
 10 36  1  0
 10 37  1  0
 11 38  1  0
 11 39  1  0
 12 40  1  6
 13 41  1  0
 14 42  1  0
 14 43  1  0
 15 44  1  0
 15 45  1  0
 16 46  1  0
 16 47  1  0
 17 48  1  0
 17 49  1  0
 19 50  1  0
 20 51  1  0
 22 52  1  0
 25 53  1  0
 26 54  1  0
M  END
>  <smiles>  (39) 
O=C(NCC(=O)N1CCCCC1C1CCCC1)c1ccc2cc(F)ccc2n1

>  <score_type>  (39) 
oracle

>  <origin>  (39) 
autodockgpu

>  <m_score__min__energy>  (39) 
-9.0999999999999996

>  <m_primary>  (39) 
energy

>  <rmsd>  (39) 
2.0432690526416395

>  <m_score__min__rmsd>  (39) 
2.0432690526416395

>  <meeko>  (39) 
{"free_energy": -8.74, "intermolecular_energy": -10.23, "internal_energy": -1.47, "cluster_size": 42, "cluster_id": 1, "rank_in_cluster": 15}

>  <energy>  (39) 
-8.01

>  <cluster_rmsd>  (39) 
1.63

>  <cluster>  (39) 
1

$$$$

     RDKit          3D

 54 57  0  0  0  0  0  0  0  0999 V2000
  135.8080   77.3910  223.2190 O   0  0  0  0  0  0  0  0  0  0  0  0
  136.1490   76.1890  223.4850 C   0  0  0  0  0  0  0  0  0  0  0  0
  137.3780   75.6470  222.9590 N   0  0  0  0  0  0  0  0  0  0  0  0
  138.2300   76.4960  222.1160 C   0  0  0  0  0  0  0  0  0  0  0  0
  139.5310   75.8740  221.8760 C   0  0  0  0  0  0  0  0  0  0  0  0
  139.7020   74.6860  222.2830 O   0  0  0  0  0  0  0  0  0  0  0  0
  140.6320   76.4790  221.2220 N   0  0  0  0  0  0  0  0  0  0  0  0
  141.8220   75.6920  221.0170 C   0  0  0  0  0  0  0  0  0  0  0  0
  142.2300   75.6570  219.5560 C   0  0  0  0  0  0  0  0  0  0  0  0
  142.4550   77.0740  219.1480 C   0  0  0  0  0  0  0  0  0  0  0  0
  141.3020   77.9990  219.4180 C   0  0  0  0  0  0  0  0  0  0  0  0
  140.6390   77.8430  220.7380 C   0  0  2  0  0  0  0  0  0  0  0  0
  141.0120   78.8260  221.7930 C   0  0  0  0  0  0  0  0  0  0  0  0
  141.4610   78.2220  223.1010 C   0  0  0  0  0  0  0  0  0  0  0  0
  142.0090   79.4420  223.8430 C   0  0  0  0  0  0  0  0  0  0  0  0
  142.4170   80.4380  222.8040 C   0  0  0  0  0  0  0  0  0  0  0  0
  142.1110   79.7750  221.4500 C   0  0  0  0  0  0  0  0  0  0  0  0
  135.3070   75.3370  224.3230 C   0  0  0  0  0  0  0  0  0  0  0  0
  135.4160   73.9700  224.1980 C   0  0  0  0  0  0  0  0  0  0  0  0
  134.6690   73.0820  224.9410 C   0  0  0  0  0  0  0  0  0  0  0  0
  133.7760   73.6140  225.8450 C   0  0  0  0  0  0  0  0  0  0  0  0
  132.9790   72.8160  226.6370 C   0  0  0  0  0  0  0  0  0  0  0  0
  132.0810   73.3150  227.5460 C   0  0  0  0  0  0  0  0  0  0  0  0
  131.3230   72.4550  228.2990 F   0  0  0  0  0  0  0  0  0  0  0  0
  131.9730   74.6860  227.6700 C   0  0  0  0  0  0  0  0  0  0  0  0
  132.7730   75.4940  226.8730 C   0  0  0  0  0  0  0  0  0  0  0  0
  133.6670   74.9980  225.9690 C   0  0  0  0  0  0  0  0  0  0  0  0
  134.4250   75.8330  225.2160 N   0  0  0  0  0  0  0  0  0  0  0  0
  137.6350   74.6610  223.1900 H   0  0  0  0  0  0  0  0  0  0  0  0
  137.7284   76.6605  221.1510 H   0  0  0  0  0  0  0  0  0  0  0  0
  138.3933   77.4502  222.6384 H   0  0  0  0  0  0  0  0  0  0  0  0
  142.6428   76.1278  221.6055 H   0  0  0  0  0  0  0  0  0  0  0  0
  141.6096   74.6613  221.3373 H   0  0  0  0  0  0  0  0  0  0  0  0
  143.1548   75.0742  219.4330 H   0  0  0  0  0  0  0  0  0  0  0  0
  141.4551   75.1817  218.9366 H   0  0  0  0  0  0  0  0  0  0  0  0
  143.3319   77.4520  219.6940 H   0  0  0  0  0  0  0  0  0  0  0  0
  142.5940   77.0633  218.0569 H   0  0  0  0  0  0  0  0  0  0  0  0
  141.6751   79.0315  219.3484 H   0  0  0  0  0  0  0  0  0  0  0  0
  140.5367   77.7463  218.6694 H   0  0  0  0  0  0  0  0  0  0  0  0
  139.5974   78.1101  220.5061 H   0  0  0  0  0  0  0  0  0  0  0  0
  140.0477   79.3479  221.8809 H   0  0  0  0  0  0  0  0  0  0  0  0
  140.6172   77.7702  223.6431 H   0  0  0  0  0  0  0  0  0  0  0  0
  142.1916   77.4078  222.9859 H   0  0  0  0  0  0  0  0  0  0  0  0
  141.2312   79.8703  224.4922 H   0  0  0  0  0  0  0  0  0  0  0  0
  142.8632   79.1646  224.4782 H   0  0  0  0  0  0  0  0  0  0  0  0
  141.8391   81.3673  222.9155 H   0  0  0  0  0  0  0  0  0  0  0  0
  143.4799   80.7066  222.8939 H   0  0  0  0  0  0  0  0  0  0  0  0
  141.7777   80.5179  220.7104 H   0  0  0  0  0  0  0  0  0  0  0  0
  142.9850   79.2861  220.9949 H   0  0  0  0  0  0  0  0  0  0  0  0
  136.1347   73.5671  223.4692 H   0  0  0  0  0  0  0  0  0  0  0  0
  134.7810   71.9947  224.8176 H   0  0  0  0  0  0  0  0  0  0  0  0
  133.0674   71.7243  226.5351 H   0  0  0  0  0  0  0  0  0  0  0  0
  131.2664   75.1298  228.3868 H   0  0  0  0  0  0  0  0  0  0  0  0
  132.6818   76.5855  226.9751 H   0  0  0  0  0  0  0  0  0  0  0  0
  1  2  2  0
  2  3  1  0
  3  4  1  0
  4  5  1  0
  5  6  2  0
  5  7  1  0
  7  8  1  0
  8  9  1  0
  9 10  1  0
 10 11  1  0
 11 12  1  0
 12 13  1  0
 13 14  1  0
 14 15  1  0
 15 16  1  0
 16 17  1  0
  2 18  1  0
 18 19  2  0
 19 20  1  0
 20 21  2  0
 21 22  1  0
 22 23  2  0
 23 24  1  0
 23 25  1  0
 25 26  2  0
 26 27  1  0
 27 28  2  0
 12  7  1  0
 17 13  1  0
 28 18  1  0
 27 21  1  0
  3 29  1  0
  4 30  1  0
  4 31  1  0
  8 32  1  0
  8 33  1  0
  9 34  1  0
  9 35  1  0
 10 36  1  0
 10 37  1  0
 11 38  1  0
 11 39  1  0
 12 40  1  6
 13 41  1  0
 14 42  1  0
 14 43  1  0
 15 44  1  0
 15 45  1  0
 16 46  1  0
 16 47  1  0
 17 48  1  0
 17 49  1  0
 19 50  1  0
 20 51  1  0
 22 52  1  0
 25 53  1  0
 26 54  1  0
M  END
>  <smiles>  (40) 
O=C(NCC(=O)N1CCCCC1C1CCCC1)c1ccc2cc(F)ccc2n1

>  <score_type>  (40) 
oracle

>  <origin>  (40) 
autodockgpu

>  <m_score__min__energy>  (40) 
-9.0999999999999996

>  <m_primary>  (40) 
energy

>  <rmsd>  (40) 
5.899923329139682

>  <m_score__min__rmsd>  (40) 
5.899923329139682

>  <meeko>  (40) 
{"free_energy": -7.5, "intermolecular_energy": -8.99, "internal_energy": -1.78, "cluster_size": 1, "cluster_id": 3, "rank_in_cluster": 1}

>  <energy>  (40) 
-7.84

>  <cluster_rmsd>  (40) 
0.9

>  <cluster>  (40) 
1

$$$$

     RDKit          3D

 54 57  0  0  0  0  0  0  0  0999 V2000
  139.5910   71.5900  221.0570 O   0  0  0  0  0  0  0  0  0  0  0  0
  139.5650   72.1420  222.2080 C   0  0  0  0  0  0  0  0  0  0  0  0
  139.3440   73.5620  222.3300 N   0  0  0  0  0  0  0  0  0  0  0  0
  139.1510   74.3630  221.1130 C   0  0  0  0  0  0  0  0  0  0  0  0
  139.5100   75.7620  221.3350 C   0  0  0  0  0  0  0  0  0  0  0  0
  138.6750   76.4980  221.9410 O   0  0  0  0  0  0  0  0  0  0  0  0
  140.7180   76.3830  220.9330 N   0  0  0  0  0  0  0  0  0  0  0  0
  141.9060   75.5710  220.8400 C   0  0  0  0  0  0  0  0  0  0  0  0
  142.5460   75.6640  219.4680 C   0  0  0  0  0  0  0  0  0  0  0  0
  142.8700   77.1030  219.2510 C   0  0  0  0  0  0  0  0  0  0  0  0
  141.7120   78.0450  219.4280 C   0  0  0  0  0  0  0  0  0  0  0  0
  140.8390   77.7870  220.6010 C   0  0  2  0  0  0  0  0  0  0  0  0
  141.0580   78.6450  221.7990 C   0  0  0  0  0  0  0  0  0  0  0  0
  141.4140   77.8990  223.0630 C   0  0  0  0  0  0  0  0  0  0  0  0
  141.8240   79.0390  223.9970 C   0  0  0  0  0  0  0  0  0  0  0  0
  142.2750   80.1730  223.1320 C   0  0  0  0  0  0  0  0  0  0  0  0
  142.1330   79.6730  221.6840 C   0  0  0  0  0  0  0  0  0  0  0  0
  139.7570   71.3530  223.4240 C   0  0  0  0  0  0  0  0  0  0  0  0
  139.4230   70.0180  223.4070 C   0  0  0  0  0  0  0  0  0  0  0  0
  139.5670   69.1890  224.4980 C   0  0  0  0  0  0  0  0  0  0  0  0
  140.0690   69.7500  225.6510 C   0  0  0  0  0  0  0  0  0  0  0  0
  140.2520   69.0120  226.8010 C   0  0  0  0  0  0  0  0  0  0  0  0
  140.7500   69.5410  227.9640 C   0  0  0  0  0  0  0  0  0  0  0  0
  140.9040   68.7400  229.0670 F   0  0  0  0  0  0  0  0  0  0  0  0
  141.0840   70.8810  227.9800 C   0  0  0  0  0  0  0  0  0  0  0  0
  140.9010   71.6280  226.8240 C   0  0  0  0  0  0  0  0  0  0  0  0
  140.4050   71.1020  225.6660 C   0  0  0  0  0  0  0  0  0  0  0  0
  140.2470   71.8790  224.5650 N   0  0  0  0  0  0  0  0  0  0  0  0
  139.3280   73.9910  223.2830 H   0  0  0  0  0  0  0  0  0  0  0  0
  139.7830   73.9539  220.3110 H   0  0  0  0  0  0  0  0  0  0  0  0
  138.0882   74.3178  220.8328 H   0  0  0  0  0  0  0  0  0  0  0  0
  142.6302   75.9119  221.5945 H   0  0  0  0  0  0  0  0  0  0  0  0
  141.6185   74.5234  221.0128 H   0  0  0  0  0  0  0  0  0  0  0  0
  143.4636   75.0582  219.4344 H   0  0  0  0  0  0  0  0  0  0  0  0
  141.8708   75.2852  218.6866 H   0  0  0  0  0  0  0  0  0  0  0  0
  143.6553   77.3883  219.9665 H   0  0  0  0  0  0  0  0  0  0  0  0
  143.1846   77.1940  218.2009 H   0  0  0  0  0  0  0  0  0  0  0  0
  142.1176   79.0627  219.5272 H   0  0  0  0  0  0  0  0  0  0  0  0
  141.0732   77.9004  218.5442 H   0  0  0  0  0  0  0  0  0  0  0  0
  139.8566   78.1189  220.2338 H   0  0  0  0  0  0  0  0  0  0  0  0
  140.0639   79.1128  221.8534 H   0  0  0  0  0  0  0  0  0  0  0  0
  140.5484   77.3483  223.4598 H   0  0  0  0  0  0  0  0  0  0  0  0
  142.1939   77.1358  222.9241 H   0  0  0  0  0  0  0  0  0  0  0  0
  140.9666   79.3506  224.6116 H   0  0  0  0  0  0  0  0  0  0  0  0
  142.6282   78.7198  224.6762 H   0  0  0  0  0  0  0  0  0  0  0  0
  141.6411   81.0568  223.2966 H   0  0  0  0  0  0  0  0  0  0  0  0
  143.3091   80.4711  223.3594 H   0  0  0  0  0  0  0  0  0  0  0  0
  141.8321   80.4885  221.0099 H   0  0  0  0  0  0  0  0  0  0  0  0
  143.0703   79.2808  221.2625 H   0  0  0  0  0  0  0  0  0  0  0  0
  139.0211   69.5916  222.4761 H   0  0  0  0  0  0  0  0  0  0  0  0
  139.2928   68.1248  224.4501 H   0  0  0  0  0  0  0  0  0  0  0  0
  139.9851   67.9450  226.7848 H   0  0  0  0  0  0  0  0  0  0  0  0
  141.4872   71.3474  228.8910 H   0  0  0  0  0  0  0  0  0  0  0  0
  141.1685   72.6948  226.8421 H   0  0  0  0  0  0  0  0  0  0  0  0
  1  2  2  0
  2  3  1  0
  3  4  1  0
  4  5  1  0
  5  6  2  0
  5  7  1  0
  7  8  1  0
  8  9  1  0
  9 10  1  0
 10 11  1  0
 11 12  1  0
 12 13  1  0
 13 14  1  0
 14 15  1  0
 15 16  1  0
 16 17  1  0
  2 18  1  0
 18 19  2  0
 19 20  1  0
 20 21  2  0
 21 22  1  0
 22 23  2  0
 23 24  1  0
 23 25  1  0
 25 26  2  0
 26 27  1  0
 27 28  2  0
 12  7  1  0
 17 13  1  0
 28 18  1  0
 27 21  1  0
  3 29  1  0
  4 30  1  0
  4 31  1  0
  8 32  1  0
  8 33  1  0
  9 34  1  0
  9 35  1  0
 10 36  1  0
 10 37  1  0
 11 38  1  0
 11 39  1  0
 12 40  1  6
 13 41  1  0
 14 42  1  0
 14 43  1  0
 15 44  1  0
 15 45  1  0
 16 46  1  0
 16 47  1  0
 17 48  1  0
 17 49  1  0
 19 50  1  0
 20 51  1  0
 22 52  1  0
 25 53  1  0
 26 54  1  0
M  END
>  <smiles>  (41) 
O=C(NCC(=O)N1CCCCC1C1CCCC1)c1ccc2cc(F)ccc2n1

>  <score_type>  (41) 
oracle

>  <origin>  (41) 
autodockgpu

>  <m_score__min__energy>  (41) 
-9.0999999999999996

>  <m_primary>  (41) 
energy

>  <rmsd>  (41) 
1.949253536419754

>  <m_score__min__rmsd>  (41) 
1.949253536419754

>  <meeko>  (41) 
{"free_energy": -8.39, "intermolecular_energy": -9.88, "internal_energy": -1.56, "cluster_size": 42, "cluster_id": 1, "rank_in_cluster": 25}

>  <energy>  (41) 
-7.75

>  <cluster_rmsd>  (41) 
1.23

>  <cluster>  (41) 
1

$$$$

     RDKit          3D

 54 57  0  0  0  0  0  0  0  0999 V2000
  141.2730   73.8290  220.4920 O   0  0  0  0  0  0  0  0  0  0  0  0
  140.6450   74.5990  221.2940 C   0  0  0  0  0  0  0  0  0  0  0  0
  139.5570   74.0890  222.0920 N   0  0  0  0  0  0  0  0  0  0  0  0
  139.1830   72.6730  221.9690 C   0  0  0  0  0  0  0  0  0  0  0  0
  139.7680   71.8730  223.0430 C   0  0  0  0  0  0  0  0  0  0  0  0
  141.0280   71.8950  223.1780 O   0  0  0  0  0  0  0  0  0  0  0  0
  139.0520   71.0660  223.9600 N   0  0  0  0  0  0  0  0  0  0  0  0
  137.6110   71.0970  223.9190 C   0  0  0  0  0  0  0  0  0  0  0  0
  137.0220   69.7110  223.7450 C   0  0  0  0  0  0  0  0  0  0  0  0
  137.5000   68.9020  224.9030 C   0  0  0  0  0  0  0  0  0  0  0  0
  138.9910   68.8910  225.0910 C   0  0  0  0  0  0  0  0  0  0  0  0
  139.6750   70.2000  224.9390 C   0  0  2  0  0  0  0  0  0  0  0  0
  140.0350   70.9160  226.1940 C   0  0  0  0  0  0  0  0  0  0  0  0
  140.4060   70.0240  227.3550 C   0  0  0  0  0  0  0  0  0  0  0  0
  140.9620   71.0320  228.3630 C   0  0  0  0  0  0  0  0  0  0  0  0
  141.4470   72.2120  227.5800 C   0  0  0  0  0  0  0  0  0  0  0  0
  141.1770   71.8700  226.1050 C   0  0  0  0  0  0  0  0  0  0  0  0
  141.0100   76.0090  221.4220 C   0  0  0  0  0  0  0  0  0  0  0  0
  141.6500   76.6260  220.3710 C   0  0  0  0  0  0  0  0  0  0  0  0
  142.0350   77.9490  220.3930 C   0  0  0  0  0  0  0  0  0  0  0  0
  141.7550   78.6670  221.5340 C   0  0  0  0  0  0  0  0  0  0  0  0
  142.0960   79.9960  221.6610 C   0  0  0  0  0  0  0  0  0  0  0  0
  141.8300   80.7370  222.7840 C   0  0  0  0  0  0  0  0  0  0  0  0
  142.2020   82.0560  222.8350 F   0  0  0  0  0  0  0  0  0  0  0  0
  141.1880   80.1170  223.8380 C   0  0  0  0  0  0  0  0  0  0  0  0
  140.8430   78.7780  223.7140 C   0  0  0  0  0  0  0  0  0  0  0  0
  141.1070   78.0390  222.5970 C   0  0  0  0  0  0  0  0  0  0  0  0
  140.7460   76.7340  222.5290 N   0  0  0  0  0  0  0  0  0  0  0  0
  139.0580   74.7390  222.7410 H   0  0  0  0  0  0  0  0  0  0  0  0
  138.0873   72.5868  222.0143 H   0  0  0  0  0  0  0  0  0  0  0  0
  139.5642   72.2958  221.0086 H   0  0  0  0  0  0  0  0  0  0  0  0
  137.2373   71.5269  224.8600 H   0  0  0  0  0  0  0  0  0  0  0  0
  137.3069   71.7081  223.0564 H   0  0  0  0  0  0  0  0  0  0  0  0
  135.9232   69.7619  223.7442 H   0  0  0  0  0  0  0  0  0  0  0  0
  137.3329   69.2626  222.7899 H   0  0  0  0  0  0  0  0  0  0  0  0
  137.0428   69.3091  225.8169 H   0  0  0  0  0  0  0  0  0  0  0  0
  137.2060   67.8622  224.6969 H   0  0  0  0  0  0  0  0  0  0  0  0
  139.1999   68.5176  226.1044 H   0  0  0  0  0  0  0  0  0  0  0  0
  139.3870   68.2538  224.2865 H   0  0  0  0  0  0  0  0  0  0  0  0
  140.6534   69.9027  224.5335 H   0  0  0  0  0  0  0  0  0  0  0  0
  139.0862   71.4477  226.3589 H   0  0  0  0  0  0  0  0  0  0  0  0
  139.5247   69.5020  227.7559 H   0  0  0  0  0  0  0  0  0  0  0  0
  141.1126   69.2231  227.0918 H   0  0  0  0  0  0  0  0  0  0  0  0
  140.1716   71.3418  229.0625 H   0  0  0  0  0  0  0  0  0  0  0  0
  141.7789   70.5888  228.9514 H   0  0  0  0  0  0  0  0  0  0  0  0
  140.8959   73.1185  227.8709 H   0  0  0  0  0  0  0  0  0  0  0  0
  142.5133   72.4109  227.7627 H   0  0  0  0  0  0  0  0  0  0  0  0
  140.8999   72.7683  225.5338 H   0  0  0  0  0  0  0  0  0  0  0  0
  142.0533   71.4549  225.5855 H   0  0  0  0  0  0  0  0  0  0  0  0
  141.8647   76.0338  219.4692 H   0  0  0  0  0  0  0  0  0  0  0  0
  142.5446   78.4120  219.5351 H   0  0  0  0  0  0  0  0  0  0  0  0
  142.6070   80.4871  220.8198 H   0  0  0  0  0  0  0  0  0  0  0  0
  140.9546   80.6733  224.7578 H   0  0  0  0  0  0  0  0  0  0  0  0
  140.3322   78.2889  224.5566 H   0  0  0  0  0  0  0  0  0  0  0  0
  1  2  2  0
  2  3  1  0
  3  4  1  0
  4  5  1  0
  5  6  2  0
  5  7  1  0
  7  8  1  0
  8  9  1  0
  9 10  1  0
 10 11  1  0
 11 12  1  0
 12 13  1  0
 13 14  1  0
 14 15  1  0
 15 16  1  0
 16 17  1  0
  2 18  1  0
 18 19  2  0
 19 20  1  0
 20 21  2  0
 21 22  1  0
 22 23  2  0
 23 24  1  0
 23 25  1  0
 25 26  2  0
 26 27  1  0
 27 28  2  0
 12  7  1  0
 17 13  1  0
 28 18  1  0
 27 21  1  0
  3 29  1  0
  4 30  1  0
  4 31  1  0
  8 32  1  0
  8 33  1  0
  9 34  1  0
  9 35  1  0
 10 36  1  0
 10 37  1  0
 11 38  1  0
 11 39  1  0
 12 40  1  6
 13 41  1  0
 14 42  1  0
 14 43  1  0
 15 44  1  0
 15 45  1  0
 16 46  1  0
 16 47  1  0
 17 48  1  0
 17 49  1  0
 19 50  1  0
 20 51  1  0
 22 52  1  0
 25 53  1  0
 26 54  1  0
M  END
>  <smiles>  (42) 
O=C(NCC(=O)N1CCCCC1C1CCCC1)c1ccc2cc(F)ccc2n1

>  <score_type>  (42) 
oracle

>  <origin>  (42) 
autodockgpu

>  <m_score__min__energy>  (42) 
-9.0999999999999996

>  <m_primary>  (42) 
energy

>  <rmsd>  (42) 
8.700721857830505

>  <m_score__min__rmsd>  (42) 
8.700721857830505

>  <meeko>  (42) 
{"free_energy": -8.57, "intermolecular_energy": -10.06, "internal_energy": -1.45, "cluster_size": 7, "cluster_id": 2, "rank_in_cluster": 1}

>  <energy>  (42) 
-7.72

>  <cluster_rmsd>  (42) 
1.18

>  <cluster>  (42) 
1

$$$$

     RDKit          3D

 54 57  0  0  0  0  0  0  0  0999 V2000
  140.9280   72.0280  221.1620 O   0  0  0  0  0  0  0  0  0  0  0  0
  140.3910   72.4570  222.2380 C   0  0  0  0  0  0  0  0  0  0  0  0
  139.9370   73.8230  222.3320 N   0  0  0  0  0  0  0  0  0  0  0  0
  140.1010   74.7120  221.1730 C   0  0  0  0  0  0  0  0  0  0  0  0
  140.2620   76.1040  221.5880 C   0  0  0  0  0  0  0  0  0  0  0  0
  139.7120   76.4650  222.6720 O   0  0  0  0  0  0  0  0  0  0  0  0
  140.9850   77.1000  220.8880 N   0  0  0  0  0  0  0  0  0  0  0  0
  142.2370   76.7330  220.2740 C   0  0  0  0  0  0  0  0  0  0  0  0
  142.2580   77.0640  218.7940 C   0  0  0  0  0  0  0  0  0  0  0  0
  142.0290   78.5340  218.6890 C   0  0  0  0  0  0  0  0  0  0  0  0
  140.7950   79.0320  219.3890 C   0  0  0  0  0  0  0  0  0  0  0  0
  140.5440   78.4710  220.7410 C   0  0  2  0  0  0  0  0  0  0  0  0
  140.9260   79.3260  221.9000 C   0  0  0  0  0  0  0  0  0  0  0  0
  141.7870   78.6480  222.9390 C   0  0  0  0  0  0  0  0  0  0  0  0
  142.2100   79.8260  223.8170 C   0  0  0  0  0  0  0  0  0  0  0  0
  142.1380   81.0540  222.9650 C   0  0  0  0  0  0  0  0  0  0  0  0
  141.6810   80.5720  221.5790 C   0  0  0  0  0  0  0  0  0  0  0  0
  140.2250   71.5800  223.3960 C   0  0  0  0  0  0  0  0  0  0  0  0
  139.5870   70.3730  223.2260 C   0  0  0  0  0  0  0  0  0  0  0  0
  139.3810   69.4760  224.2520 C   0  0  0  0  0  0  0  0  0  0  0  0
  139.8460   69.8300  225.4990 C   0  0  0  0  0  0  0  0  0  0  0  0
  139.6920   69.0080  226.5950 C   0  0  0  0  0  0  0  0  0  0  0  0
  140.1450   69.3330  227.8480 C   0  0  0  0  0  0  0  0  0  0  0  0
  139.9530   68.4600  228.8890 F   0  0  0  0  0  0  0  0  0  0  0  0
  140.7850   70.5450  228.0170 C   0  0  0  0  0  0  0  0  0  0  0  0
  140.9410   71.3760  226.9160 C   0  0  0  0  0  0  0  0  0  0  0  0
  140.4920   71.0540  225.6680 C   0  0  0  0  0  0  0  0  0  0  0  0
  140.6720   71.9040  224.6270 N   0  0  0  0  0  0  0  0  0  0  0  0
  139.5020   74.1510  223.2230 H   0  0  0  0  0  0  0  0  0  0  0  0
  140.9918   74.4018  220.6071 H   0  0  0  0  0  0  0  0  0  0  0  0
  139.1977   74.6386  220.5495 H   0  0  0  0  0  0  0  0  0  0  0  0
  143.0514   77.2792  220.7724 H   0  0  0  0  0  0  0  0  0  0  0  0
  142.3649   75.6459  220.3827 H   0  0  0  0  0  0  0  0  0  0  0  0
  143.2326   76.7985  218.3584 H   0  0  0  0  0  0  0  0  0  0  0  0
  141.4875   76.5000  218.2479 H   0  0  0  0  0  0  0  0  0  0  0  0
  142.8994   79.0477  219.1231 H   0  0  0  0  0  0  0  0  0  0  0  0
  141.8864   78.7493  217.6197 H   0  0  0  0  0  0  0  0  0  0  0  0
  140.8816   80.1241  219.4882 H   0  0  0  0  0  0  0  0  0  0  0  0
  139.9482   78.7029  218.7688 H   0  0  0  0  0  0  0  0  0  0  0  0
  139.4450   78.4642  220.7876 H   0  0  0  0  0  0  0  0  0  0  0  0
  139.9179   79.5566  222.2750 H   0  0  0  0  0  0  0  0  0  0  0  0
  141.2117   77.9072  223.5137 H   0  0  0  0  0  0  0  0  0  0  0  0
  142.6312   78.0834  222.5164 H   0  0  0  0  0  0  0  0  0  0  0  0
  141.5288   79.9212  224.6754 H   0  0  0  0  0  0  0  0  0  0  0  0
  143.2274   79.6787  224.2085 H   0  0  0  0  0  0  0  0  0  0  0  0
  141.4120   81.7678  223.3815 H   0  0  0  0  0  0  0  0  0  0  0  0
  143.1074   81.5715  222.9157 H   0  0  0  0  0  0  0  0  0  0  0  0
  141.0317   81.3159  221.0941 H   0  0  0  0  0  0  0  0  0  0  0  0
  142.5117   80.4112  220.8760 H   0  0  0  0  0  0  0  0  0  0  0  0
  139.2233   70.1109  222.2215 H   0  0  0  0  0  0  0  0  0  0  0  0
  138.8672   68.5183  224.0821 H   0  0  0  0  0  0  0  0  0  0  0  0
  139.1805   68.0439  226.4577 H   0  0  0  0  0  0  0  0  0  0  0  0
  141.1638   70.8461  229.0048 H   0  0  0  0  0  0  0  0  0  0  0  0
  141.4510   72.3405  227.0562 H   0  0  0  0  0  0  0  0  0  0  0  0
  1  2  2  0
  2  3  1  0
  3  4  1  0
  4  5  1  0
  5  6  2  0
  5  7  1  0
  7  8  1  0
  8  9  1  0
  9 10  1  0
 10 11  1  0
 11 12  1  0
 12 13  1  0
 13 14  1  0
 14 15  1  0
 15 16  1  0
 16 17  1  0
  2 18  1  0
 18 19  2  0
 19 20  1  0
 20 21  2  0
 21 22  1  0
 22 23  2  0
 23 24  1  0
 23 25  1  0
 25 26  2  0
 26 27  1  0
 27 28  2  0
 12  7  1  0
 17 13  1  0
 28 18  1  0
 27 21  1  0
  3 29  1  0
  4 30  1  0
  4 31  1  0
  8 32  1  0
  8 33  1  0
  9 34  1  0
  9 35  1  0
 10 36  1  0
 10 37  1  0
 11 38  1  0
 11 39  1  0
 12 40  1  6
 13 41  1  0
 14 42  1  0
 14 43  1  0
 15 44  1  0
 15 45  1  0
 16 46  1  0
 16 47  1  0
 17 48  1  0
 17 49  1  0
 19 50  1  0
 20 51  1  0
 22 52  1  0
 25 53  1  0
 26 54  1  0
M  END
>  <smiles>  (43) 
O=C(NCC(=O)N1CCCCC1C1CCCC1)c1ccc2cc(F)ccc2n1

>  <score_type>  (43) 
oracle

>  <origin>  (43) 
autodockgpu

>  <m_score__min__energy>  (43) 
-9.0999999999999996

>  <m_primary>  (43) 
energy

>  <rmsd>  (43) 
2.2517705958102288

>  <m_score__min__rmsd>  (43) 
2.2517705958102288

>  <meeko>  (43) 
{"free_energy": -8.58, "intermolecular_energy": -10.07, "internal_energy": -1.68, "cluster_size": 42, "cluster_id": 1, "rank_in_cluster": 21}

>  <energy>  (43) 
-8.57

>  <cluster_rmsd>  (43) 
0.0

>  <cluster>  (43) 
2

$$$$

     RDKit          3D

 54 57  0  0  0  0  0  0  0  0999 V2000
  139.7610   70.9840  221.3620 O   0  0  0  0  0  0  0  0  0  0  0  0
  139.7030   71.6980  222.4190 C   0  0  0  0  0  0  0  0  0  0  0  0
  139.3500   73.0950  222.3370 N   0  0  0  0  0  0  0  0  0  0  0  0
  139.0600   73.6820  221.0220 C   0  0  0  0  0  0  0  0  0  0  0  0
  139.3800   75.1080  220.9930 C   0  0  0  0  0  0  0  0  0  0  0  0
  138.4260   75.9310  221.1250 O   0  0  0  0  0  0  0  0  0  0  0  0
  140.6720   75.6650  220.8320 N   0  0  0  0  0  0  0  0  0  0  0  0
  141.8130   74.8670  221.2080 C   0  0  0  0  0  0  0  0  0  0  0  0
  142.8010   74.7240  220.0660 C   0  0  0  0  0  0  0  0  0  0  0  0
  143.2220   76.1080  219.6990 C   0  0  0  0  0  0  0  0  0  0  0  0
  142.0910   77.0480  219.3880 C   0  0  0  0  0  0  0  0  0  0  0  0
  140.9260   76.9890  220.3060 C   0  0  2  0  0  0  0  0  0  0  0  0
  140.8440   78.0490  221.3500 C   0  0  0  0  0  0  0  0  0  0  0  0
  141.0780   77.5730  222.7640 C   0  0  0  0  0  0  0  0  0  0  0  0
  141.1910   78.8940  223.5270 C   0  0  0  0  0  0  0  0  0  0  0  0
  141.6360   79.9300  222.5440 C   0  0  0  0  0  0  0  0  0  0  0  0
  141.7910   79.1920  221.2040 C   0  0  0  0  0  0  0  0  0  0  0  0
  139.9910   71.1220  223.7320 C   0  0  0  0  0  0  0  0  0  0  0  0
  140.6640   71.8870  224.6580 C   0  0  0  0  0  0  0  0  0  0  0  0
  140.9820   71.4380  225.9210 C   0  0  0  0  0  0  0  0  0  0  0  0
  140.5980   70.1570  226.2470 C   0  0  0  0  0  0  0  0  0  0  0  0
  140.8670   69.6080  227.4830 C   0  0  0  0  0  0  0  0  0  0  0  0
  140.4970   68.3360  227.8380 C   0  0  0  0  0  0  0  0  0  0  0  0
  140.8010   67.8610  229.0880 F   0  0  0  0  0  0  0  0  0  0  0  0
  139.8220   67.5690  226.9080 C   0  0  0  0  0  0  0  0  0  0  0  0
  139.5500   68.1180  225.6620 C   0  0  0  0  0  0  0  0  0  0  0  0
  139.9170   69.3840  225.3080 C   0  0  0  0  0  0  0  0  0  0  0  0
  139.6250   69.8710  224.0760 N   0  0  0  0  0  0  0  0  0  0  0  0
  139.3100   73.6590  223.2160 H   0  0  0  0  0  0  0  0  0  0  0  0
  139.6601   73.1648  220.2588 H   0  0  0  0  0  0  0  0  0  0  0  0
  137.9853   73.5638  220.8192 H   0  0  0  0  0  0  0  0  0  0  0  0
  142.3189   75.3474  222.0585 H   0  0  0  0  0  0  0  0  0  0  0  0
  141.4541   73.8627  221.4775 H   0  0  0  0  0  0  0  0  0  0  0  0
  143.6718   74.1339  220.3877 H   0  0  0  0  0  0  0  0  0  0  0  0
  142.3482   74.2039  219.2090 H   0  0  0  0  0  0  0  0  0  0  0  0
  143.7936   76.5265  220.5405 H   0  0  0  0  0  0  0  0  0  0  0  0
  143.8132   76.0179  218.7758 H   0  0  0  0  0  0  0  0  0  0  0  0
  142.4885   78.0733  219.4139 H   0  0  0  0  0  0  0  0  0  0  0  0
  141.7096   76.7384  218.4038 H   0  0  0  0  0  0  0  0  0  0  0  0
  140.0906   77.2358  219.6343 H   0  0  0  0  0  0  0  0  0  0  0  0
  139.8053   78.3689  221.1807 H   0  0  0  0  0  0  0  0  0  0  0  0
  140.2324   76.9714  223.1287 H   0  0  0  0  0  0  0  0  0  0  0  0
  141.9564   76.9199  222.8735 H   0  0  0  0  0  0  0  0  0  0  0  0
  140.2142   79.1702  223.9508 H   0  0  0  0  0  0  0  0  0  0  0  0
  141.9070   78.8076  224.3576 H   0  0  0  0  0  0  0  0  0  0  0  0
  140.8821   80.7265  222.4584 H   0  0  0  0  0  0  0  0  0  0  0  0
  142.5764   80.4082  222.8555 H   0  0  0  0  0  0  0  0  0  0  0  0
  141.5068   79.8377  220.3600 H   0  0  0  0  0  0  0  0  0  0  0  0
  142.8245   78.8795  220.9939 H   0  0  0  0  0  0  0  0  0  0  0  0
  140.9626   72.9073  224.3754 H   0  0  0  0  0  0  0  0  0  0  0  0
  141.5196   72.0758  226.6381 H   0  0  0  0  0  0  0  0  0  0  0  0
  141.4052   70.2209  228.2211 H   0  0  0  0  0  0  0  0  0  0  0  0
  139.5063   66.5434  227.1499 H   0  0  0  0  0  0  0  0  0  0  0  0
  139.0130   67.5031  224.9248 H   0  0  0  0  0  0  0  0  0  0  0  0
  1  2  2  0
  2  3  1  0
  3  4  1  0
  4  5  1  0
  5  6  2  0
  5  7  1  0
  7  8  1  0
  8  9  1  0
  9 10  1  0
 10 11  1  0
 11 12  1  0
 12 13  1  0
 13 14  1  0
 14 15  1  0
 15 16  1  0
 16 17  1  0
  2 18  1  0
 18 19  2  0
 19 20  1  0
 20 21  2  0
 21 22  1  0
 22 23  2  0
 23 24  1  0
 23 25  1  0
 25 26  2  0
 26 27  1  0
 27 28  2  0
 12  7  1  0
 17 13  1  0
 28 18  1  0
 27 21  1  0
  3 29  1  0
  4 30  1  0
  4 31  1  0
  8 32  1  0
  8 33  1  0
  9 34  1  0
  9 35  1  0
 10 36  1  0
 10 37  1  0
 11 38  1  0
 11 39  1  0
 12 40  1  6
 13 41  1  0
 14 42  1  0
 14 43  1  0
 15 44  1  0
 15 45  1  0
 16 46  1  0
 16 47  1  0
 17 48  1  0
 17 49  1  0
 19 50  1  0
 20 51  1  0
 22 52  1  0
 25 53  1  0
 26 54  1  0
M  END
>  <smiles>  (44) 
O=C(NCC(=O)N1CCCCC1C1CCCC1)c1ccc2cc(F)ccc2n1

>  <score_type>  (44) 
oracle

>  <origin>  (44) 
autodockgpu

>  <m_score__min__energy>  (44) 
-9.0999999999999996

>  <m_primary>  (44) 
energy

>  <rmsd>  (44) 
2.9374825220915324

>  <m_score__min__rmsd>  (44) 
2.9374825220915324

>  <meeko>  (44) 
{"free_energy": -8.22, "intermolecular_energy": -9.71, "internal_energy": -1.39, "cluster_size": 42, "cluster_id": 1, "rank_in_cluster": 34}

>  <energy>  (44) 
-8.51

>  <cluster_rmsd>  (44) 
0.37

>  <cluster>  (44) 
2

$$$$

     RDKit          3D

 54 57  0  0  0  0  0  0  0  0999 V2000
  141.3170   72.0850  221.5000 O   0  0  0  0  0  0  0  0  0  0  0  0
  140.4690   72.3820  222.4080 C   0  0  0  0  0  0  0  0  0  0  0  0
  139.6610   73.5710  222.2890 N   0  0  0  0  0  0  0  0  0  0  0  0
  139.8270   74.4330  221.1100 C   0  0  0  0  0  0  0  0  0  0  0  0
  140.2950   75.7650  221.4870 C   0  0  0  0  0  0  0  0  0  0  0  0
  139.8170   76.2840  222.5410 O   0  0  0  0  0  0  0  0  0  0  0  0
  141.2440   76.5420  220.7790 N   0  0  0  0  0  0  0  0  0  0  0  0
  142.3290   75.8600  220.1190 C   0  0  0  0  0  0  0  0  0  0  0  0
  142.4000   76.2090  218.6450 C   0  0  0  0  0  0  0  0  0  0  0  0
  142.5820   77.6880  218.5710 C   0  0  0  0  0  0  0  0  0  0  0  0
  141.5520   78.4880  219.3190 C   0  0  0  0  0  0  0  0  0  0  0  0
  141.1940   77.9840  220.6700 C   0  0  2  0  0  0  0  0  0  0  0  0
  141.8280   78.6730  221.8280 C   0  0  0  0  0  0  0  0  0  0  0  0
  142.1880   80.1200  221.5940 C   0  0  0  0  0  0  0  0  0  0  0  0
  142.5510   80.5880  223.0040 C   0  0  0  0  0  0  0  0  0  0  0  0
  141.8280   79.6940  223.9610 C   0  0  0  0  0  0  0  0  0  0  0  0
  141.0310   78.7100  223.0890 C   0  0  0  0  0  0  0  0  0  0  0  0
  140.2980   71.5310  223.5850 C   0  0  0  0  0  0  0  0  0  0  0  0
  139.6580   70.3210  223.4390 C   0  0  0  0  0  0  0  0  0  0  0  0
  139.4480   69.4480  224.4840 C   0  0  0  0  0  0  0  0  0  0  0  0
  139.9100   69.8280  225.7240 C   0  0  0  0  0  0  0  0  0  0  0  0
  139.7520   69.0300  226.8370 C   0  0  0  0  0  0  0  0  0  0  0  0
  140.2010   69.3810  228.0840 C   0  0  0  0  0  0  0  0  0  0  0  0
  140.0060   68.5310  229.1430 F   0  0  0  0  0  0  0  0  0  0  0  0
  140.8440   70.5950  228.2290 C   0  0  0  0  0  0  0  0  0  0  0  0
  141.0040   71.4020  227.1100 C   0  0  0  0  0  0  0  0  0  0  0  0
  140.5580   71.0540  225.8680 C   0  0  0  0  0  0  0  0  0  0  0  0
  140.7430   71.8810  224.8090 N   0  0  0  0  0  0  0  0  0  0  0  0
  138.9750   73.7940  223.0450 H   0  0  0  0  0  0  0  0  0  0  0  0
  140.5611   73.9742  220.4313 H   0  0  0  0  0  0  0  0  0  0  0  0
  138.8500   74.5358  220.6151 H   0  0  0  0  0  0  0  0  0  0  0  0
  143.2756   76.1487  220.5992 H   0  0  0  0  0  0  0  0  0  0  0  0
  142.1556   74.7773  220.2060 H   0  0  0  0  0  0  0  0  0  0  0  0
  143.2515   75.6968  218.1733 H   0  0  0  0  0  0  0  0  0  0  0  0
  141.4893   75.8921  218.1157 H   0  0  0  0  0  0  0  0  0  0  0  0
  143.5716   77.9322  218.9846 H   0  0  0  0  0  0  0  0  0  0  0  0
  142.4757   77.9605  217.5106 H   0  0  0  0  0  0  0  0  0  0  0  0
  141.9379   79.5118  219.4326 H   0  0  0  0  0  0  0  0  0  0  0  0
  140.6307   78.4191  218.7220 H   0  0  0  0  0  0  0  0  0  0  0  0
  140.1372   78.2773  220.7549 H   0  0  0  0  0  0  0  0  0  0  0  0
  142.7155   78.0322  221.9358 H   0  0  0  0  0  0  0  0  0  0  0  0
  143.0436   80.2135  220.9090 H   0  0  0  0  0  0  0  0  0  0  0  0
  141.3850   80.7070  221.1243 H   0  0  0  0  0  0  0  0  0  0  0  0
  143.6370   80.5093  223.1603 H   0  0  0  0  0  0  0  0  0  0  0  0
  142.2637   81.6390  223.1550 H   0  0  0  0  0  0  0  0  0  0  0  0
  142.5446   79.1512  224.5950 H   0  0  0  0  0  0  0  0  0  0  0  0
  141.1709   80.2652  224.6332 H   0  0  0  0  0  0  0  0  0  0  0  0
  140.9812   77.7156  223.5566 H   0  0  0  0  0  0  0  0  0  0  0  0
  139.9839   79.0102  222.9360 H   0  0  0  0  0  0  0  0  0  0  0  0
  139.2967   70.0373  222.4395 H   0  0  0  0  0  0  0  0  0  0  0  0
  138.9328   68.4877  224.3339 H   0  0  0  0  0  0  0  0  0  0  0  0
  139.2402   68.0635  226.7187 H   0  0  0  0  0  0  0  0  0  0  0  0
  141.2217   70.9161  229.2110 H   0  0  0  0  0  0  0  0  0  0  0  0
  141.5150   72.3686  227.2307 H   0  0  0  0  0  0  0  0  0  0  0  0
  1  2  2  0
  2  3  1  0
  3  4  1  0
  4  5  1  0
  5  6  2  0
  5  7  1  0
  7  8  1  0
  8  9  1  0
  9 10  1  0
 10 11  1  0
 11 12  1  0
 12 13  1  0
 13 14  1  0
 14 15  1  0
 15 16  1  0
 16 17  1  0
  2 18  1  0
 18 19  2  0
 19 20  1  0
 20 21  2  0
 21 22  1  0
 22 23  2  0
 23 24  1  0
 23 25  1  0
 25 26  2  0
 26 27  1  0
 27 28  2  0
 12  7  1  0
 17 13  1  0
 28 18  1  0
 27 21  1  0
  3 29  1  0
  4 30  1  0
  4 31  1  0
  8 32  1  0
  8 33  1  0
  9 34  1  0
  9 35  1  0
 10 36  1  0
 10 37  1  0
 11 38  1  0
 11 39  1  0
 12 40  1  1
 13 41  1  0
 14 42  1  0
 14 43  1  0
 15 44  1  0
 15 45  1  0
 16 46  1  0
 16 47  1  0
 17 48  1  0
 17 49  1  0
 19 50  1  0
 20 51  1  0
 22 52  1  0
 25 53  1  0
 26 54  1  0
M  END
>  <smiles>  (45) 
O=C(NCC(=O)N1CCCCC1C1CCCC1)c1ccc2cc(F)ccc2n1

>  <score_type>  (45) 
oracle

>  <origin>  (45) 
autodockgpu

>  <m_score__min__energy>  (45) 
-9.0999999999999996

>  <m_primary>  (45) 
energy

>  <rmsd>  (45) 
2.0463697110213883

>  <m_score__min__rmsd>  (45) 
2.0463697110213883

>  <meeko>  (45) 
{"free_energy": -9.1, "intermolecular_energy": -10.6, "internal_energy": -1.35, "cluster_size": 42, "cluster_id": 1, "rank_in_cluster": 1}

>  <energy>  (45) 
-8.5

>  <cluster_rmsd>  (45) 
0.14

>  <cluster>  (45) 
2

$$$$

     RDKit          3D

 54 57  0  0  0  0  0  0  0  0999 V2000
  140.3910   71.4140  221.1550 O   0  0  0  0  0  0  0  0  0  0  0  0
  140.1080   71.9240  222.2910 C   0  0  0  0  0  0  0  0  0  0  0  0
  139.8160   73.3320  222.4060 N   0  0  0  0  0  0  0  0  0  0  0  0
  139.8500   74.1690  221.1990 C   0  0  0  0  0  0  0  0  0  0  0  0
  140.1960   75.5520  221.5200 C   0  0  0  0  0  0  0  0  0  0  0  0
  139.5950   76.1020  222.4910 O   0  0  0  0  0  0  0  0  0  0  0  0
  141.1520   76.3470  220.8420 N   0  0  0  0  0  0  0  0  0  0  0  0
  142.3070   75.6950  220.2780 C   0  0  0  0  0  0  0  0  0  0  0  0
  142.4560   75.9930  218.7980 C   0  0  0  0  0  0  0  0  0  0  0  0
  142.5730   77.4750  218.6770 C   0  0  0  0  0  0  0  0  0  0  0  0
  141.4620   78.2510  219.3270 C   0  0  0  0  0  0  0  0  0  0  0  0
  141.0420   77.7800  220.6720 C   0  0  2  0  0  0  0  0  0  0  0  0
  141.5690   78.5410  221.8400 C   0  0  0  0  0  0  0  0  0  0  0  0
  142.1950   79.8730  221.5050 C   0  0  0  0  0  0  0  0  0  0  0  0
  142.3790   80.4930  222.8920 C   0  0  0  0  0  0  0  0  0  0  0  0
  141.3650   79.8600  223.7920 C   0  0  0  0  0  0  0  0  0  0  0  0
  140.5830   78.8750  222.9070 C   0  0  0  0  0  0  0  0  0  0  0  0
  140.0730   71.0980  223.4980 C   0  0  0  0  0  0  0  0  0  0  0  0
  139.5440   69.8300  223.4170 C   0  0  0  0  0  0  0  0  0  0  0  0
  139.4660   68.9740  224.4940 C   0  0  0  0  0  0  0  0  0  0  0  0
  139.9460   69.4360  225.7000 C   0  0  0  0  0  0  0  0  0  0  0  0
  139.9160   68.6630  226.8400 C   0  0  0  0  0  0  0  0  0  0  0  0
  140.3870   69.0940  228.0540 C   0  0  0  0  0  0  0  0  0  0  0  0
  140.3210   68.2640  229.1450 F   0  0  0  0  0  0  0  0  0  0  0  0
  140.9170   70.3670  228.1340 C   0  0  0  0  0  0  0  0  0  0  0  0
  140.9490   71.1490  226.9870 C   0  0  0  0  0  0  0  0  0  0  0  0
  140.4810   70.7200  225.7780 C   0  0  0  0  0  0  0  0  0  0  0  0
  140.5370   71.5270  224.6890 N   0  0  0  0  0  0  0  0  0  0  0  0
  139.5880   73.7260  223.3460 H   0  0  0  0  0  0  0  0  0  0  0  0
  140.6002   73.7644  220.5037 H   0  0  0  0  0  0  0  0  0  0  0  0
  138.8495   74.1591  220.7420 H   0  0  0  0  0  0  0  0  0  0  0  0
  143.2067   76.0466  220.8043 H   0  0  0  0  0  0  0  0  0  0  0  0
  142.1784   74.6090  220.3967 H   0  0  0  0  0  0  0  0  0  0  0  0
  143.3590   75.5063  218.4009 H   0  0  0  0  0  0  0  0  0  0  0  0
  141.5969   75.6126  218.2260 H   0  0  0  0  0  0  0  0  0  0  0  0
  143.5218   77.7822  219.1411 H   0  0  0  0  0  0  0  0  0  0  0  0
  142.5214   77.7025  217.6020 H   0  0  0  0  0  0  0  0  0  0  0  0
  141.7924   79.2957  219.4238 H   0  0  0  0  0  0  0  0  0  0  0  0
  140.5849   78.1161  218.6771 H   0  0  0  0  0  0  0  0  0  0  0  0
  139.9696   78.0247  220.6782 H   0  0  0  0  0  0  0  0  0  0  0  0
  142.3075   77.8079  222.1966 H   0  0  0  0  0  0  0  0  0  0  0  0
  143.1601   79.7441  220.9932 H   0  0  0  0  0  0  0  0  0  0  0  0
  141.5926   80.4875  220.8198 H   0  0  0  0  0  0  0  0  0  0  0  0
  143.3939   80.2904  223.2648 H   0  0  0  0  0  0  0  0  0  0  0  0
  142.2446   81.5841  222.8553 H   0  0  0  0  0  0  0  0  0  0  0  0
  141.8625   79.3253  224.6146 H   0  0  0  0  0  0  0  0  0  0  0  0
  140.7028   80.6098  224.2494 H   0  0  0  0  0  0  0  0  0  0  0  0
  140.2918   77.9780  223.4731 H   0  0  0  0  0  0  0  0  0  0  0  0
  139.6416   79.2900  222.5176 H   0  0  0  0  0  0  0  0  0  0  0  0
  139.1648   69.4828  222.4446 H   0  0  0  0  0  0  0  0  0  0  0  0
  139.0389   67.9651  224.3951 H   0  0  0  0  0  0  0  0  0  0  0  0
  139.4933   67.6497  226.7733 H   0  0  0  0  0  0  0  0  0  0  0  0
  141.3061   70.7537  229.0875 H   0  0  0  0  0  0  0  0  0  0  0  0
  141.3715   72.1623  227.0555 H   0  0  0  0  0  0  0  0  0  0  0  0
  1  2  2  0
  2  3  1  0
  3  4  1  0
  4  5  1  0
  5  6  2  0
  5  7  1  0
  7  8  1  0
  8  9  1  0
  9 10  1  0
 10 11  1  0
 11 12  1  0
 12 13  1  0
 13 14  1  0
 14 15  1  0
 15 16  1  0
 16 17  1  0
  2 18  1  0
 18 19  2  0
 19 20  1  0
 20 21  2  0
 21 22  1  0
 22 23  2  0
 23 24  1  0
 23 25  1  0
 25 26  2  0
 26 27  1  0
 27 28  2  0
 12  7  1  0
 17 13  1  0
 28 18  1  0
 27 21  1  0
  3 29  1  0
  4 30  1  0
  4 31  1  0
  8 32  1  0
  8 33  1  0
  9 34  1  0
  9 35  1  0
 10 36  1  0
 10 37  1  0
 11 38  1  0
 11 39  1  0
 12 40  1  6
 13 41  1  0
 14 42  1  0
 14 43  1  0
 15 44  1  0
 15 45  1  0
 16 46  1  0
 16 47  1  0
 17 48  1  0
 17 49  1  0
 19 50  1  0
 20 51  1  0
 22 52  1  0
 25 53  1  0
 26 54  1  0
M  END
>  <smiles>  (46) 
O=C(NCC(=O)N1CCCCC1C1CCCC1)c1ccc2cc(F)ccc2n1

>  <score_type>  (46) 
oracle

>  <origin>  (46) 
autodockgpu

>  <m_score__min__energy>  (46) 
-9.0999999999999996

>  <m_primary>  (46) 
energy

>  <rmsd>  (46) 
1.9275280655082705

>  <m_score__min__rmsd>  (46) 
1.9275280655082705

>  <meeko>  (46) 
{"free_energy": -8.68, "intermolecular_energy": -10.17, "internal_energy": -1.56, "cluster_size": 42, "cluster_id": 1, "rank_in_cluster": 18}

>  <energy>  (46) 
-8.49

>  <cluster_rmsd>  (46) 
0.36

>  <cluster>  (46) 
2

$$$$

     RDKit          3D

 54 57  0  0  0  0  0  0  0  0999 V2000
  140.8170   71.6140  221.2170 O   0  0  0  0  0  0  0  0  0  0  0  0
  140.3480   72.1160  222.2930 C   0  0  0  0  0  0  0  0  0  0  0  0
  139.9510   73.5030  222.3380 N   0  0  0  0  0  0  0  0  0  0  0  0
  140.0950   74.3270  221.1300 C   0  0  0  0  0  0  0  0  0  0  0  0
  140.4390   75.7070  221.4660 C   0  0  0  0  0  0  0  0  0  0  0  0
  139.8870   76.2230  222.4840 O   0  0  0  0  0  0  0  0  0  0  0  0
  141.3420   76.5330  220.7540 N   0  0  0  0  0  0  0  0  0  0  0  0
  142.4450   75.9090  220.0670 C   0  0  0  0  0  0  0  0  0  0  0  0
  142.4760   76.2800  218.5960 C   0  0  0  0  0  0  0  0  0  0  0  0
  142.5920   77.7660  218.5410 C   0  0  0  0  0  0  0  0  0  0  0  0
  141.5410   78.5100  219.3160 C   0  0  0  0  0  0  0  0  0  0  0  0
  141.2280   77.9740  220.6650 C   0  0  2  0  0  0  0  0  0  0  0  0
  141.8510   78.6730  221.8230 C   0  0  0  0  0  0  0  0  0  0  0  0
  142.1760   80.1290  221.5910 C   0  0  0  0  0  0  0  0  0  0  0  0
  142.5350   80.6020  223.0010 C   0  0  0  0  0  0  0  0  0  0  0  0
  141.8370   79.6890  223.9590 C   0  0  0  0  0  0  0  0  0  0  0  0
  141.0590   78.6890  223.0870 C   0  0  0  0  0  0  0  0  0  0  0  0
  140.2020   71.3040  223.5010 C   0  0  0  0  0  0  0  0  0  0  0  0
  139.5900   70.0750  223.4010 C   0  0  0  0  0  0  0  0  0  0  0  0
  139.4040   69.2350  224.4780 C   0  0  0  0  0  0  0  0  0  0  0  0
  139.8620   69.6700  225.7010 C   0  0  0  0  0  0  0  0  0  0  0  0
  139.7270   68.9090  226.8420 C   0  0  0  0  0  0  0  0  0  0  0  0
  140.1730   69.3150  228.0740 C   0  0  0  0  0  0  0  0  0  0  0  0
  140.0020   68.5000  229.1640 F   0  0  0  0  0  0  0  0  0  0  0  0
  140.7870   70.5490  228.1720 C   0  0  0  0  0  0  0  0  0  0  0  0
  140.9240   71.3180  227.0250 C   0  0  0  0  0  0  0  0  0  0  0  0
  140.4810   70.9150  225.7980 C   0  0  0  0  0  0  0  0  0  0  0  0
  140.6420   71.7080  224.7100 N   0  0  0  0  0  0  0  0  0  0  0  0
  139.5700   73.8910  223.2310 H   0  0  0  0  0  0  0  0  0  0  0  0
  140.8905   73.9028  220.4997 H   0  0  0  0  0  0  0  0  0  0  0  0
  139.1339   74.3294  220.5950 H   0  0  0  0  0  0  0  0  0  0  0  0
  143.3857   76.2335  220.5358 H   0  0  0  0  0  0  0  0  0  0  0  0
  142.3211   74.8186  220.1418 H   0  0  0  0  0  0  0  0  0  0  0  0
  143.3411   75.8120  218.1034 H   0  0  0  0  0  0  0  0  0  0  0  0
  141.5717   75.9302  218.0765 H   0  0  0  0  0  0  0  0  0  0  0  0
  143.5766   78.0473  218.9428 H   0  0  0  0  0  0  0  0  0  0  0  0
  142.4564   78.0481  217.4865 H   0  0  0  0  0  0  0  0  0  0  0  0
  141.8836   79.5483  219.4372 H   0  0  0  0  0  0  0  0  0  0  0  0
  140.6138   78.4081  218.7330 H   0  0  0  0  0  0  0  0  0  0  0  0
  140.1615   78.2221  220.7695 H   0  0  0  0  0  0  0  0  0  0  0  0
  142.7528   78.0516  221.9261 H   0  0  0  0  0  0  0  0  0  0  0  0
  143.0258   80.2442  220.9021 H   0  0  0  0  0  0  0  0  0  0  0  0
  141.3572   80.6982  221.1268 H   0  0  0  0  0  0  0  0  0  0  0  0
  143.6232   80.5478  223.1521 H   0  0  0  0  0  0  0  0  0  0  0  0
  142.2245   81.6458  223.1561 H   0  0  0  0  0  0  0  0  0  0  0  0
  142.5686   79.1612  224.5884 H   0  0  0  0  0  0  0  0  0  0  0  0
  141.1700   80.2430  224.6359 H   0  0  0  0  0  0  0  0  0  0  0  0
  141.0337   77.6925  223.5522 H   0  0  0  0  0  0  0  0  0  0  0  0
  140.0048   78.9661  222.9388 H   0  0  0  0  0  0  0  0  0  0  0  0
  139.2320   69.7474  222.4138 H   0  0  0  0  0  0  0  0  0  0  0  0
  138.9105   68.2584  224.3649 H   0  0  0  0  0  0  0  0  0  0  0  0
  139.2373   67.9274  226.7607 H   0  0  0  0  0  0  0  0  0  0  0  0
  141.1599   70.9146  229.1402 H   0  0  0  0  0  0  0  0  0  0  0  0
  141.4131   72.2997  227.1084 H   0  0  0  0  0  0  0  0  0  0  0  0
  1  2  2  0
  2  3  1  0
  3  4  1  0
  4  5  1  0
  5  6  2  0
  5  7  1  0
  7  8  1  0
  8  9  1  0
  9 10  1  0
 10 11  1  0
 11 12  1  0
 12 13  1  0
 13 14  1  0
 14 15  1  0
 15 16  1  0
 16 17  1  0
  2 18  1  0
 18 19  2  0
 19 20  1  0
 20 21  2  0
 21 22  1  0
 22 23  2  0
 23 24  1  0
 23 25  1  0
 25 26  2  0
 26 27  1  0
 27 28  2  0
 12  7  1  0
 17 13  1  0
 28 18  1  0
 27 21  1  0
  3 29  1  0
  4 30  1  0
  4 31  1  0
  8 32  1  0
  8 33  1  0
  9 34  1  0
  9 35  1  0
 10 36  1  0
 10 37  1  0
 11 38  1  0
 11 39  1  0
 12 40  1  1
 13 41  1  0
 14 42  1  0
 14 43  1  0
 15 44  1  0
 15 45  1  0
 16 46  1  0
 16 47  1  0
 17 48  1  0
 17 49  1  0
 19 50  1  0
 20 51  1  0
 22 52  1  0
 25 53  1  0
 26 54  1  0
M  END
>  <smiles>  (47) 
O=C(NCC(=O)N1CCCCC1C1CCCC1)c1ccc2cc(F)ccc2n1

>  <score_type>  (47) 
oracle

>  <origin>  (47) 
autodockgpu

>  <m_score__min__energy>  (47) 
-9.0999999999999996

>  <m_primary>  (47) 
energy

>  <rmsd>  (47) 
2.042071753019694

>  <m_score__min__rmsd>  (47) 
2.042071753019694

>  <meeko>  (47) 
{"free_energy": -8.97, "intermolecular_energy": -10.46, "internal_energy": -1.52, "cluster_size": 42, "cluster_id": 1, "rank_in_cluster": 5}

>  <energy>  (47) 
-8.47

>  <cluster_rmsd>  (47) 
0.4

>  <cluster>  (47) 
2

$$$$

     RDKit          3D

 54 57  0  0  0  0  0  0  0  0999 V2000
  140.2660   71.0050  221.2660 O   0  0  0  0  0  0  0  0  0  0  0  0
  139.9480   71.5590  222.3720 C   0  0  0  0  0  0  0  0  0  0  0  0
  139.5990   72.9590  222.4120 N   0  0  0  0  0  0  0  0  0  0  0  0
  139.6160   73.7350  221.1650 C   0  0  0  0  0  0  0  0  0  0  0  0
  140.5730   74.8370  221.2380 C   0  0  0  0  0  0  0  0  0  0  0  0
  140.6200   75.5100  222.3110 O   0  0  0  0  0  0  0  0  0  0  0  0
  141.4660   75.2290  220.2100 N   0  0  0  0  0  0  0  0  0  0  0  0
  140.9130   75.6820  218.9590 C   0  0  0  0  0  0  0  0  0  0  0  0
  141.4230   77.0600  218.5830 C   0  0  0  0  0  0  0  0  0  0  0  0
  142.9080   76.9490  218.4950 C   0  0  0  0  0  0  0  0  0  0  0  0
  143.5720   76.3870  219.7210 C   0  0  0  0  0  0  0  0  0  0  0  0
  142.9080   75.2100  220.3370 C   0  0  2  0  0  0  0  0  0  0  0  0
  143.4950   73.8760  220.0310 C   0  0  0  0  0  0  0  0  0  0  0  0
  144.9870   73.7710  220.2380 C   0  0  0  0  0  0  0  0  0  0  0  0
  145.2200   72.2650  220.1040 C   0  0  0  0  0  0  0  0  0  0  0  0
  143.9320   71.5910  220.4550 C   0  0  0  0  0  0  0  0  0  0  0  0
  142.9520   72.7230  220.8060 C   0  0  0  0  0  0  0  0  0  0  0  0
  139.9290   70.7940  223.6180 C   0  0  0  0  0  0  0  0  0  0  0  0
  139.2990   69.5700  223.6340 C   0  0  0  0  0  0  0  0  0  0  0  0
  139.2270   68.7730  224.7550 C   0  0  0  0  0  0  0  0  0  0  0  0
  139.8210   69.2470  225.9030 C   0  0  0  0  0  0  0  0  0  0  0  0
  139.8070   68.5310  227.0810 C   0  0  0  0  0  0  0  0  0  0  0  0
  140.3910   68.9760  228.2390 C   0  0  0  0  0  0  0  0  0  0  0  0
  140.3340   68.2040  229.3720 F   0  0  0  0  0  0  0  0  0  0  0  0
  141.0220   70.2040  228.2220 C   0  0  0  0  0  0  0  0  0  0  0  0
  141.0380   70.9290  227.0380 C   0  0  0  0  0  0  0  0  0  0  0  0
  140.4580   70.4870  225.8840 C   0  0  0  0  0  0  0  0  0  0  0  0
  140.5050   71.2360  224.7550 N   0  0  0  0  0  0  0  0  0  0  0  0
  139.3430   73.3890  223.3290 H   0  0  0  0  0  0  0  0  0  0  0  0
  139.8966   73.0713  220.3338 H   0  0  0  0  0  0  0  0  0  0  0  0
  138.6127   74.1567  221.0049 H   0  0  0  0  0  0  0  0  0  0  0  0
  141.1928   74.9708  218.1678 H   0  0  0  0  0  0  0  0  0  0  0  0
  139.8202   75.7407  219.0699 H   0  0  0  0  0  0  0  0  0  0  0  0
  141.0063   77.3684  217.6128 H   0  0  0  0  0  0  0  0  0  0  0  0
  141.1224   77.8133  219.3261 H   0  0  0  0  0  0  0  0  0  0  0  0
  143.1525   76.2965  217.6439 H   0  0  0  0  0  0  0  0  0  0  0  0
  143.2888   77.9745  218.3792 H   0  0  0  0  0  0  0  0  0  0  0  0
  144.5946   76.0905  219.4444 H   0  0  0  0  0  0  0  0  0  0  0  0
  143.5247   77.1847  220.4770 H   0  0  0  0  0  0  0  0  0  0  0  0
  143.1412   75.3458  221.4034 H   0  0  0  0  0  0  0  0  0  0  0  0
  143.2121   73.8105  218.9700 H   0  0  0  0  0  0  0  0  0  0  0  0
  145.5380   74.3310  219.4680 H   0  0  0  0  0  0  0  0  0  0  0  0
  145.3333   74.1906  221.1940 H   0  0  0  0  0  0  0  0  0  0  0  0
  145.5069   72.0174  219.0713 H   0  0  0  0  0  0  0  0  0  0  0  0
  146.0312   71.9324  220.7683 H   0  0  0  0  0  0  0  0  0  0  0  0
  143.5571   71.0108  219.5990 H   0  0  0  0  0  0  0  0  0  0  0  0
  144.0566   70.8879  221.2918 H   0  0  0  0  0  0  0  0  0  0  0  0
  141.9290   72.4760  220.4859 H   0  0  0  0  0  0  0  0  0  0  0  0
  142.8779   72.9181  221.8860 H   0  0  0  0  0  0  0  0  0  0  0  0
  138.8301   69.2109  222.7060 H   0  0  0  0  0  0  0  0  0  0  0  0
  138.7165   67.7989  224.7339 H   0  0  0  0  0  0  0  0  0  0  0  0
  139.3021   67.5538  227.0925 H   0  0  0  0  0  0  0  0  0  0  0  0
  141.5026   70.6002  229.1287 H   0  0  0  0  0  0  0  0  0  0  0  0
  141.5423   71.9066  227.0294 H   0  0  0  0  0  0  0  0  0  0  0  0
  1  2  2  0
  2  3  1  0
  3  4  1  0
  4  5  1  0
  5  6  2  0
  5  7  1  0
  7  8  1  0
  8  9  1  0
  9 10  1  0
 10 11  1  0
 11 12  1  0
 12 13  1  0
 13 14  1  0
 14 15  1  0
 15 16  1  0
 16 17  1  0
  2 18  1  0
 18 19  2  0
 19 20  1  0
 20 21  2  0
 21 22  1  0
 22 23  2  0
 23 24  1  0
 23 25  1  0
 25 26  2  0
 26 27  1  0
 27 28  2  0
 12  7  1  0
 17 13  1  0
 28 18  1  0
 27 21  1  0
  3 29  1  0
  4 30  1  0
  4 31  1  0
  8 32  1  0
  8 33  1  0
  9 34  1  0
  9 35  1  0
 10 36  1  0
 10 37  1  0
 11 38  1  0
 11 39  1  0
 12 40  1  1
 13 41  1  0
 14 42  1  0
 14 43  1  0
 15 44  1  0
 15 45  1  0
 16 46  1  0
 16 47  1  0
 17 48  1  0
 17 49  1  0
 19 50  1  0
 20 51  1  0
 22 52  1  0
 25 53  1  0
 26 54  1  0
M  END
>  <smiles>  (48) 
O=C(NCC(=O)N1CCCCC1C1CCCC1)c1ccc2cc(F)ccc2n1

>  <score_type>  (48) 
oracle

>  <origin>  (48) 
autodockgpu

>  <m_score__min__energy>  (48) 
-9.0999999999999996

>  <m_primary>  (48) 
energy

>  <rmsd>  (48) 
1.8087748408493713

>  <m_score__min__rmsd>  (48) 
1.8087748408493713

>  <meeko>  (48) 
{"free_energy": -8.03, "intermolecular_energy": -9.52, "internal_energy": -1.77, "cluster_size": 42, "cluster_id": 1, "rank_in_cluster": 38}

>  <energy>  (48) 
-8.39

>  <cluster_rmsd>  (48) 
0.48

>  <cluster>  (48) 
2

$$$$

     RDKit          3D

 54 57  0  0  0  0  0  0  0  0999 V2000
  140.9410   72.1590  221.3590 O   0  0  0  0  0  0  0  0  0  0  0  0
  140.1350   72.3890  222.3230 C   0  0  0  0  0  0  0  0  0  0  0  0
  139.2310   73.5120  222.2640 N   0  0  0  0  0  0  0  0  0  0  0  0
  139.2510   74.3840  221.0820 C   0  0  0  0  0  0  0  0  0  0  0  0
  139.8710   75.6730  221.3820 C   0  0  0  0  0  0  0  0  0  0  0  0
  139.2350   76.4760  222.1290 O   0  0  0  0  0  0  0  0  0  0  0  0
  141.1320   76.1160  220.9140 N   0  0  0  0  0  0  0  0  0  0  0  0
  142.2110   75.1630  220.8500 C   0  0  0  0  0  0  0  0  0  0  0  0
  142.8180   75.0900  219.4620 C   0  0  0  0  0  0  0  0  0  0  0  0
  143.3050   76.4630  219.1430 C   0  0  0  0  0  0  0  0  0  0  0  0
  142.2730   77.5470  219.2810 C   0  0  0  0  0  0  0  0  0  0  0  0
  141.4090   77.4710  220.4870 C   0  0  2  0  0  0  0  0  0  0  0  0
  141.7650   78.3710  221.6200 C   0  0  0  0  0  0  0  0  0  0  0  0
  141.1390   79.7440  221.5670 C   0  0  0  0  0  0  0  0  0  0  0  0
  141.4720   80.2970  222.9540 C   0  0  0  0  0  0  0  0  0  0  0  0
  141.6590   79.1220  223.8600 C   0  0  0  0  0  0  0  0  0  0  0  0
  141.4180   77.8800  222.9850 C   0  0  0  0  0  0  0  0  0  0  0  0
  140.1090   71.5270  223.5030 C   0  0  0  0  0  0  0  0  0  0  0  0
  139.5460   70.2750  223.3960 C   0  0  0  0  0  0  0  0  0  0  0  0
  139.4730   69.3880  224.4480 C   0  0  0  0  0  0  0  0  0  0  0  0
  139.9950   69.7980  225.6540 C   0  0  0  0  0  0  0  0  0  0  0  0
  139.9740   68.9910  226.7700 C   0  0  0  0  0  0  0  0  0  0  0  0
  140.4850   69.3710  227.9850 C   0  0  0  0  0  0  0  0  0  0  0  0
  140.4260   68.5080  229.0500 F   0  0  0  0  0  0  0  0  0  0  0  0
  141.0500   70.6270  228.0910 C   0  0  0  0  0  0  0  0  0  0  0  0
  141.0730   71.4440  226.9680 C   0  0  0  0  0  0  0  0  0  0  0  0
  140.5640   71.0670  225.7590 C   0  0  0  0  0  0  0  0  0  0  0  0
  140.6140   71.9060  224.6950 N   0  0  0  0  0  0  0  0  0  0  0  0
  138.5810   73.6800  223.0650 H   0  0  0  0  0  0  0  0  0  0  0  0
  139.8217   73.8897  220.2820 H   0  0  0  0  0  0  0  0  0  0  0  0
  138.2128   74.5638  220.7663 H   0  0  0  0  0  0  0  0  0  0  0  0
  142.9921   75.4614  221.5647 H   0  0  0  0  0  0  0  0  0  0  0  0
  141.8055   74.1710  221.0979 H   0  0  0  0  0  0  0  0  0  0  0  0
  143.6554   74.3769  219.4500 H   0  0  0  0  0  0  0  0  0  0  0  0
  142.0806   74.7463  218.7217 H   0  0  0  0  0  0  0  0  0  0  0  0
  144.1388   76.6963  219.8214 H   0  0  0  0  0  0  0  0  0  0  0  0
  143.5982   76.4485  218.0829 H   0  0  0  0  0  0  0  0  0  0  0  0
  142.7995   78.5125  219.3040 H   0  0  0  0  0  0  0  0  0  0  0  0
  141.5965   77.4248  218.4222 H   0  0  0  0  0  0  0  0  0  0  0  0
  140.4620   77.8939  220.1205 H   0  0  0  0  0  0  0  0  0  0  0  0
  142.8547   78.4003  221.4728 H   0  0  0  0  0  0  0  0  0  0  0  0
  141.5887   80.3582  220.7730 H   0  0  0  0  0  0  0  0  0  0  0  0
  140.0628   79.7331  221.3397 H   0  0  0  0  0  0  0  0  0  0  0  0
  142.3962   80.8921  222.9115 H   0  0  0  0  0  0  0  0  0  0  0  0
  140.6663   80.9504  223.3198 H   0  0  0  0  0  0  0  0  0  0  0  0
  142.6803   79.1112  224.2685 H   0  0  0  0  0  0  0  0  0  0  0  0
  140.9695   79.1556  224.7164 H   0  0  0  0  0  0  0  0  0  0  0  0
  142.0726   77.0489  223.2863 H   0  0  0  0  0  0  0  0  0  0  0  0
  140.3946   77.4838  223.0603 H   0  0  0  0  0  0  0  0  0  0  0  0
  139.1344   69.9679  222.4232 H   0  0  0  0  0  0  0  0  0  0  0  0
  139.0168   68.3941  224.3291 H   0  0  0  0  0  0  0  0  0  0  0  0
  139.5246   67.9908  226.6825 H   0  0  0  0  0  0  0  0  0  0  0  0
  141.4732   70.9732  229.0455 H   0  0  0  0  0  0  0  0  0  0  0  0
  141.5234   72.4436  227.0573 H   0  0  0  0  0  0  0  0  0  0  0  0
  1  2  2  0
  2  3  1  0
  3  4  1  0
  4  5  1  0
  5  6  2  0
  5  7  1  0
  7  8  1  0
  8  9  1  0
  9 10  1  0
 10 11  1  0
 11 12  1  0
 12 13  1  0
 13 14  1  0
 14 15  1  0
 15 16  1  0
 16 17  1  0
  2 18  1  0
 18 19  2  0
 19 20  1  0
 20 21  2  0
 21 22  1  0
 22 23  2  0
 23 24  1  0
 23 25  1  0
 25 26  2  0
 26 27  1  0
 27 28  2  0
 12  7  1  0
 17 13  1  0
 28 18  1  0
 27 21  1  0
  3 29  1  0
  4 30  1  0
  4 31  1  0
  8 32  1  0
  8 33  1  0
  9 34  1  0
  9 35  1  0
 10 36  1  0
 10 37  1  0
 11 38  1  0
 11 39  1  0
 12 40  1  6
 13 41  1  0
 14 42  1  0
 14 43  1  0
 15 44  1  0
 15 45  1  0
 16 46  1  0
 16 47  1  0
 17 48  1  0
 17 49  1  0
 19 50  1  0
 20 51  1  0
 22 52  1  0
 25 53  1  0
 26 54  1  0
M  END
>  <smiles>  (49) 
O=C(NCC(=O)N1CCCCC1C1CCCC1)c1ccc2cc(F)ccc2n1

>  <score_type>  (49) 
oracle

>  <origin>  (49) 
autodockgpu

>  <m_score__min__energy>  (49) 
-9.0999999999999996

>  <m_primary>  (49) 
energy

>  <rmsd>  (49) 
2.044122944346627

>  <m_score__min__rmsd>  (49) 
2.044122944346627

>  <meeko>  (49) 
{"free_energy": -8.7, "intermolecular_energy": -10.19, "internal_energy": -1.34, "cluster_size": 42, "cluster_id": 1, "rank_in_cluster": 16}

>  <energy>  (49) 
-8.1

>  <cluster_rmsd>  (49) 
1.43

>  <cluster>  (49) 
2

$$$$

     RDKit          3D

 54 57  0  0  0  0  0  0  0  0999 V2000
  140.9260   74.0300  220.2840 O   0  0  0  0  0  0  0  0  0  0  0  0
  140.4350   74.7580  221.2120 C   0  0  0  0  0  0  0  0  0  0  0  0
  139.4510   74.2180  222.1180 N   0  0  0  0  0  0  0  0  0  0  0  0
  139.0230   72.8210  221.9590 C   0  0  0  0  0  0  0  0  0  0  0  0
  139.7850   71.9280  222.8290 C   0  0  0  0  0  0  0  0  0  0  0  0
  141.0500   71.9890  222.7780 O   0  0  0  0  0  0  0  0  0  0  0  0
  139.2370   70.9900  223.7380 N   0  0  0  0  0  0  0  0  0  0  0  0
  137.8220   70.7230  223.6760 C   0  0  0  0  0  0  0  0  0  0  0  0
  137.5350   69.2440  223.4980 C   0  0  0  0  0  0  0  0  0  0  0  0
  138.1530   68.5520  224.6650 C   0  0  0  0  0  0  0  0  0  0  0  0
  139.6120   68.8500  224.8750 C   0  0  0  0  0  0  0  0  0  0  0  0
  140.0120   70.2720  224.7290 C   0  0  2  0  0  0  0  0  0  0  0  0
  140.1960   71.0470  225.9870 C   0  0  0  0  0  0  0  0  0  0  0  0
  140.1660   70.2260  227.2540 C   0  0  0  0  0  0  0  0  0  0  0  0
  140.6380   71.2390  228.2990 C   0  0  0  0  0  0  0  0  0  0  0  0
  141.4560   72.2620  227.5770 C   0  0  0  0  0  0  0  0  0  0  0  0
  141.4640   71.8240  226.1030 C   0  0  0  0  0  0  0  0  0  0  0  0
  140.8550   76.1490  221.3780 C   0  0  0  0  0  0  0  0  0  0  0  0
  141.6750   76.7110  220.4260 C   0  0  0  0  0  0  0  0  0  0  0  0
  142.1260   78.0110  220.4900 C   0  0  0  0  0  0  0  0  0  0  0  0
  141.7210   78.7640  221.5700 C   0  0  0  0  0  0  0  0  0  0  0  0
  142.1140   80.0750  221.7320 C   0  0  0  0  0  0  0  0  0  0  0  0
  141.7280   80.8500  222.7950 C   0  0  0  0  0  0  0  0  0  0  0  0
  142.1610   82.1490  222.8860 F   0  0  0  0  0  0  0  0  0  0  0  0
  140.9050   80.2850  223.7500 C   0  0  0  0  0  0  0  0  0  0  0  0
  140.5070   78.9640  223.5900 C   0  0  0  0  0  0  0  0  0  0  0  0
  140.8910   78.1920  222.5320 C   0  0  0  0  0  0  0  0  0  0  0  0
  140.4720   76.9070  222.4260 N   0  0  0  0  0  0  0  0  0  0  0  0
  139.0640   74.8330  222.8690 H   0  0  0  0  0  0  0  0  0  0  0  0
  137.9555   72.7426  222.2124 H   0  0  0  0  0  0  0  0  0  0  0  0
  139.1993   72.5214  220.9154 H   0  0  0  0  0  0  0  0  0  0  0  0
  137.3535   71.0667  224.6100 H   0  0  0  0  0  0  0  0  0  0  0  0
  137.4109   71.2580  222.8073 H   0  0  0  0  0  0  0  0  0  0  0  0
  136.4496   69.0664  223.4814 H   0  0  0  0  0  0  0  0  0  0  0  0
  137.9458   68.8694  222.5488 H   0  0  0  0  0  0  0  0  0  0  0  0
  137.6079   68.8557  225.5709 H   0  0  0  0  0  0  0  0  0  0  0  0
  138.0840   67.4739  224.4577 H   0  0  0  0  0  0  0  0  0  0  0  0
  139.8785   68.5279  225.8925 H   0  0  0  0  0  0  0  0  0  0  0  0
  140.1435   68.3085  224.0785 H   0  0  0  0  0  0  0  0  0  0  0  0
  141.0368   70.1844  224.3391 H   0  0  0  0  0  0  0  0  0  0  0  0
  139.3268   71.7153  225.8985 H   0  0  0  0  0  0  0  0  0  0  0  0
  139.1495   69.8680  227.4746 H   0  0  0  0  0  0  0  0  0  0  0  0
  140.7819   69.3158  227.2080 H   0  0  0  0  0  0  0  0  0  0  0  0
  139.7720   71.7179  228.7792 H   0  0  0  0  0  0  0  0  0  0  0  0
  141.2295   70.7462  229.0847 H   0  0  0  0  0  0  0  0  0  0  0  0
  141.0009   73.2583  227.6785 H   0  0  0  0  0  0  0  0  0  0  0  0
  142.4749   72.3293  227.9860 H   0  0  0  0  0  0  0  0  0  0  0  0
  141.4593   72.6943  225.4302 H   0  0  0  0  0  0  0  0  0  0  0  0
  142.3577   71.2469  225.8231 H   0  0  0  0  0  0  0  0  0  0  0  0
  141.9855   76.0914  219.5718 H   0  0  0  0  0  0  0  0  0  0  0  0
  142.7814   78.4298  219.7121 H   0  0  0  0  0  0  0  0  0  0  0  0
  142.7701   80.5218  220.9705 H   0  0  0  0  0  0  0  0  0  0  0  0
  140.5715   80.8698  224.6199 H   0  0  0  0  0  0  0  0  0  0  0  0
  139.8509   78.5187  224.3524 H   0  0  0  0  0  0  0  0  0  0  0  0
  1  2  2  0
  2  3  1  0
  3  4  1  0
  4  5  1  0
  5  6  2  0
  5  7  1  0
  7  8  1  0
  8  9  1  0
  9 10  1  0
 10 11  1  0
 11 12  1  0
 12 13  1  0
 13 14  1  0
 14 15  1  0
 15 16  1  0
 16 17  1  0
  2 18  1  0
 18 19  2  0
 19 20  1  0
 20 21  2  0
 21 22  1  0
 22 23  2  0
 23 24  1  0
 23 25  1  0
 25 26  2  0
 26 27  1  0
 27 28  2  0
 12  7  1  0
 17 13  1  0
 28 18  1  0
 27 21  1  0
  3 29  1  0
  4 30  1  0
  4 31  1  0
  8 32  1  0
  8 33  1  0
  9 34  1  0
  9 35  1  0
 10 36  1  0
 10 37  1  0
 11 38  1  0
 11 39  1  0
 12 40  1  6
 13 41  1  0
 14 42  1  0
 14 43  1  0
 15 44  1  0
 15 45  1  0
 16 46  1  0
 16 47  1  0
 17 48  1  0
 17 49  1  0
 19 50  1  0
 20 51  1  0
 22 52  1  0
 25 53  1  0
 26 54  1  0
M  END
>  <smiles>  (50) 
O=C(NCC(=O)N1CCCCC1C1CCCC1)c1ccc2cc(F)ccc2n1

>  <score_type>  (50) 
oracle

>  <origin>  (50) 
autodockgpu

>  <m_score__min__energy>  (50) 
-9.0999999999999996

>  <m_primary>  (50) 
energy

>  <rmsd>  (50) 
8.696701575241692

>  <m_score__min__rmsd>  (50) 
8.696701575241692

>  <meeko>  (50) 
{"free_energy": -8.49, "intermolecular_energy": -9.98, "internal_energy": -1.53, "cluster_size": 7, "cluster_id": 2, "rank_in_cluster": 4}

>  <energy>  (50) 
-7.5

>  <cluster_rmsd>  (50) 
0.0

>  <cluster>  (50) 
3

$$$$

     RDKit          3D

 54 57  0  0  0  0  0  0  0  0999 V2000
  139.1040   71.5050  220.8250 O   0  0  0  0  0  0  0  0  0  0  0  0
  139.1380   72.0370  221.9870 C   0  0  0  0  0  0  0  0  0  0  0  0
  138.8540   73.4580  222.0720 N   0  0  0  0  0  0  0  0  0  0  0  0
  138.5430   74.2530  220.9370 C   0  0  0  0  0  0  0  0  0  0  0  0
  139.5250   75.1480  220.3570 C   0  0  0  0  0  0  0  0  0  0  0  0
  139.0680   75.8500  219.3560 O   0  0  0  0  0  0  0  0  0  0  0  0
  140.8690   75.3930  220.6720 N   0  0  0  0  0  0  0  0  0  0  0  0
  141.8570   74.3150  220.9110 C   0  0  0  0  0  0  0  0  0  0  0  0
  143.1950   74.8800  220.4600 C   0  0  0  0  0  0  0  0  0  0  0  0
  143.1180   75.7830  219.2770 C   0  0  0  0  0  0  0  0  0  0  0  0
  142.1750   76.9540  219.5030 C   0  0  0  0  0  0  0  0  0  0  0  0
  141.4480   76.7270  220.8180 C   0  0  1  0  0  0  0  0  0  0  0  0
  140.5330   77.8050  221.2300 C   0  0  0  0  0  0  0  0  0  0  0  0
  140.2830   77.6760  222.7180 C   0  0  0  0  0  0  0  0  0  0  0  0
  141.4440   78.3430  223.4300 C   0  0  0  0  0  0  0  0  0  0  0  0
  142.2060   79.0980  222.3840 C   0  0  0  0  0  0  0  0  0  0  0  0
  141.2630   79.1550  221.2090 C   0  0  0  0  0  0  0  0  0  0  0  0
  139.4460   71.2630  223.1810 C   0  0  0  0  0  0  0  0  0  0  0  0
  139.1950   69.9060  223.1410 C   0  0  0  0  0  0  0  0  0  0  0  0
  139.5000   69.1860  224.3000 C   0  0  0  0  0  0  0  0  0  0  0  0
  140.0230   69.8180  225.4130 C   0  0  0  0  0  0  0  0  0  0  0  0
  140.3290   69.1030  226.5710 C   0  0  0  0  0  0  0  0  0  0  0  0
  140.8420   69.8060  227.6270 C   0  0  0  0  0  0  0  0  0  0  0  0
  141.1410   69.1180  228.7550 F   0  0  0  0  0  0  0  0  0  0  0  0
  141.0770   71.1600  227.6240 C   0  0  0  0  0  0  0  0  0  0  0  0
  140.7770   71.8610  226.4870 C   0  0  0  0  0  0  0  0  0  0  0  0
  140.2570   71.1860  225.4020 C   0  0  0  0  0  0  0  0  0  0  0  0
  139.9620   71.8700  224.2860 N   0  0  0  0  0  0  0  0  0  0  0  0
  138.9010   73.8300  223.0570 H   0  0  0  0  0  0  0  0  0  0  0  0
  138.2465   73.5559  220.1394 H   0  0  0  0  0  0  0  0  0  0  0  0
  137.7867   74.9482  221.3303 H   0  0  0  0  0  0  0  0  0  0  0  0
  141.8905   74.0546  221.9792 H   0  0  0  0  0  0  0  0  0  0  0  0
  141.5977   73.3964  220.3643 H   0  0  0  0  0  0  0  0  0  0  0  0
  143.6282   75.4469  221.2972 H   0  0  0  0  0  0  0  0  0  0  0  0
  143.8113   74.0205  220.1576 H   0  0  0  0  0  0  0  0  0  0  0  0
  144.1238   76.1749  219.0655 H   0  0  0  0  0  0  0  0  0  0  0  0
  142.7284   75.1965  218.4318 H   0  0  0  0  0  0  0  0  0  0  0  0
  142.7490   77.8911  219.5511 H   0  0  0  0  0  0  0  0  0  0  0  0
  141.4534   77.0276  218.6761 H   0  0  0  0  0  0  0  0  0  0  0  0
  142.1275   76.7666  221.6821 H   0  0  0  0  0  0  0  0  0  0  0  0
  139.6499   77.7458  220.5768 H   0  0  0  0  0  0  0  0  0  0  0  0
  139.3402   78.1753  222.9860 H   0  0  0  0  0  0  0  0  0  0  0  0
  140.2035   76.6182  223.0092 H   0  0  0  0  0  0  0  0  0  0  0  0
  141.0712   79.0332  224.2011 H   0  0  0  0  0  0  0  0  0  0  0  0
  142.0834   77.6010  223.9306 H   0  0  0  0  0  0  0  0  0  0  0  0
  142.4527   80.1106  222.7358 H   0  0  0  0  0  0  0  0  0  0  0  0
  143.1640   78.6194  222.1328 H   0  0  0  0  0  0  0  0  0  0  0  0
  140.5491   79.9839  221.3243 H   0  0  0  0  0  0  0  0  0  0  0  0
  141.7908   79.3282  220.2596 H   0  0  0  0  0  0  0  0  0  0  0  0
  138.7784   69.4185  222.2473 H   0  0  0  0  0  0  0  0  0  0  0  0
  139.3213   68.1009  224.3268 H   0  0  0  0  0  0  0  0  0  0  0  0
  140.1644   68.0171  226.6328 H   0  0  0  0  0  0  0  0  0  0  0  0
  141.4934   71.6650  228.5080 H   0  0  0  0  0  0  0  0  0  0  0  0
  140.9480   72.9466  226.4392 H   0  0  0  0  0  0  0  0  0  0  0  0
  1  2  2  0
  2  3  1  0
  3  4  1  0
  4  5  1  0
  5  6  2  0
  5  7  1  0
  7  8  1  0
  8  9  1  0
  9 10  1  0
 10 11  1  0
 11 12  1  0
 12 13  1  0
 13 14  1  0
 14 15  1  0
 15 16  1  0
 16 17  1  0
  2 18  1  0
 18 19  2  0
 19 20  1  0
 20 21  2  0
 21 22  1  0
 22 23  2  0
 23 24  1  0
 23 25  1  0
 25 26  2  0
 26 27  1  0
 27 28  2  0
 12  7  1  0
 17 13  1  0
 28 18  1  0
 27 21  1  0
  3 29  1  0
  4 30  1  0
  4 31  1  0
  8 32  1  0
  8 33  1  0
  9 34  1  0
  9 35  1  0
 10 36  1  0
 10 37  1  0
 11 38  1  0
 11 39  1  0
 12 40  1  1
 13 41  1  0
 14 42  1  0
 14 43  1  0
 15 44  1  0
 15 45  1  0
 16 46  1  0
 16 47  1  0
 17 48  1  0
 17 49  1  0
 19 50  1  0
 20 51  1  0
 22 52  1  0
 25 53  1  0
 26 54  1  0
M  END
>  <smiles>  (51) 
O=C(NCC(=O)N1CCCCC1C1CCCC1)c1ccc2cc(F)ccc2n1

>  <score_type>  (51) 
oracle

>  <origin>  (51) 
autodockgpu

>  <m_score__min__energy>  (51) 
-9.0899999999999999

>  <m_primary>  (51) 
energy

>  <rmsd>  (51) 
1.9906979799410962

>  <m_score__min__rmsd>  (51) 
1.9906979799410962

>  <meeko>  (51) 
{"free_energy": -7.59, "intermolecular_energy": -9.08, "internal_energy": -1.82, "cluster_size": 40, "cluster_id": 1, "rank_in_cluster": 39}

>  <energy>  (51) 
-9.09

>  <cluster_rmsd>  (51) 
0.0

>  <cluster>  (51) 
1

$$$$

     RDKit          3D

 54 57  0  0  0  0  0  0  0  0999 V2000
  141.3270   71.8940  221.7380 O   0  0  0  0  0  0  0  0  0  0  0  0
  140.3870   72.0810  222.5830 C   0  0  0  0  0  0  0  0  0  0  0  0
  139.5110   73.2170  222.3570 N   0  0  0  0  0  0  0  0  0  0  0  0
  139.6590   74.0990  221.2540 C   0  0  0  0  0  0  0  0  0  0  0  0
  140.9340   74.7190  220.9560 C   0  0  0  0  0  0  0  0  0  0  0  0
  141.4620   75.3460  221.9710 O   0  0  0  0  0  0  0  0  0  0  0  0
  141.6970   74.7710  219.7810 N   0  0  0  0  0  0  0  0  0  0  0  0
  141.1090   74.9990  218.4390 C   0  0  0  0  0  0  0  0  0  0  0  0
  142.1830   75.7220  217.6420 C   0  0  0  0  0  0  0  0  0  0  0  0
  143.0080   76.6760  218.4360 C   0  0  0  0  0  0  0  0  0  0  0  0
  143.6860   76.0070  219.6210 C   0  0  0  0  0  0  0  0  0  0  0  0
  143.1470   74.5910  219.7360 C   0  0  1  0  0  0  0  0  0  0  0  0
  143.7460   73.7680  220.8000 C   0  0  0  0  0  0  0  0  0  0  0  0
  143.7320   72.3220  220.3520 C   0  0  0  0  0  0  0  0  0  0  0  0
  144.9420   72.1140  219.4620 C   0  0  0  0  0  0  0  0  0  0  0  0
  145.8020   73.3300  219.6220 C   0  0  0  0  0  0  0  0  0  0  0  0
  145.2620   74.0040  220.8600 C   0  0  0  0  0  0  0  0  0  0  0  0
  140.1910   71.2010  223.7270 C   0  0  0  0  0  0  0  0  0  0  0  0
  139.4660   70.0460  223.5230 C   0  0  0  0  0  0  0  0  0  0  0  0
  139.2920   69.2180  224.6360 C   0  0  0  0  0  0  0  0  0  0  0  0
  139.8270   69.5590  225.8650 C   0  0  0  0  0  0  0  0  0  0  0  0
  139.6570   68.7370  226.9780 C   0  0  0  0  0  0  0  0  0  0  0  0
  140.2180   69.1480  228.1570 C   0  0  0  0  0  0  0  0  0  0  0  0
  140.0570   68.3540  229.2420 F   0  0  0  0  0  0  0  0  0  0  0  0
  140.9350   70.3090  228.3160 C   0  0  0  0  0  0  0  0  0  0  0  0
  141.1030   71.1170  227.2230 C   0  0  0  0  0  0  0  0  0  0  0  0
  140.5500   70.7340  226.0180 C   0  0  0  0  0  0  0  0  0  0  0  0
  140.7110   71.5220  224.9440 N   0  0  0  0  0  0  0  0  0  0  0  0
  138.7610   73.3120  223.0920 H   0  0  0  0  0  0  0  0  0  0  0  0
  139.3723   73.5289  220.3580 H   0  0  0  0  0  0  0  0  0  0  0  0
  139.0372   74.9575  221.5478 H   0  0  0  0  0  0  0  0  0  0  0  0
  140.8563   74.0405  217.9622 H   0  0  0  0  0  0  0  0  0  0  0  0
  140.1792   75.5842  218.4951 H   0  0  0  0  0  0  0  0  0  0  0  0
  142.8545   74.9669  217.2074 H   0  0  0  0  0  0  0  0  0  0  0  0
  141.6582   76.3205  216.8829 H   0  0  0  0  0  0  0  0  0  0  0  0
  143.7816   77.1040  217.7815 H   0  0  0  0  0  0  0  0  0  0  0  0
  142.3371   77.4544  218.8284 H   0  0  0  0  0  0  0  0  0  0  0  0
  144.7740   75.9799  219.4615 H   0  0  0  0  0  0  0  0  0  0  0  0
  143.4810   76.5688  220.5442 H   0  0  0  0  0  0  0  0  0  0  0  0
  143.4380   73.9644  218.8800 H   0  0  0  0  0  0  0  0  0  0  0  0
  143.2040   73.9981  221.7292 H   0  0  0  0  0  0  0  0  0  0  0  0
  143.7887   71.6565  221.2260 H   0  0  0  0  0  0  0  0  0  0  0  0
  142.8041   72.0918  219.8079 H   0  0  0  0  0  0  0  0  0  0  0  0
  145.4934   71.2149  219.7744 H   0  0  0  0  0  0  0  0  0  0  0  0
  144.6442   71.9728  218.4125 H   0  0  0  0  0  0  0  0  0  0  0  0
  146.8560   73.0472  219.7599 H   0  0  0  0  0  0  0  0  0  0  0  0
  145.7742   73.9853  218.7389 H   0  0  0  0  0  0  0  0  0  0  0  0
  145.6898   73.5511  221.7666 H   0  0  0  0  0  0  0  0  0  0  0  0
  145.5163   75.0735  220.8971 H   0  0  0  0  0  0  0  0  0  0  0  0
  139.0475   69.7901  222.5385 H   0  0  0  0  0  0  0  0  0  0  0  0
  138.7220   68.2829  224.5329 H   0  0  0  0  0  0  0  0  0  0  0  0
  139.0938   67.7945  226.9114 H   0  0  0  0  0  0  0  0  0  0  0  0
  141.3617   70.5817  229.2925 H   0  0  0  0  0  0  0  0  0  0  0  0
  141.6697   72.0563  227.3043 H   0  0  0  0  0  0  0  0  0  0  0  0
  1  2  2  0
  2  3  1  0
  3  4  1  0
  4  5  1  0
  5  6  2  0
  5  7  1  0
  7  8  1  0
  8  9  1  0
  9 10  1  0
 10 11  1  0
 11 12  1  0
 12 13  1  0
 13 14  1  0
 14 15  1  0
 15 16  1  0
 16 17  1  0
  2 18  1  0
 18 19  2  0
 19 20  1  0
 20 21  2  0
 21 22  1  0
 22 23  2  0
 23 24  1  0
 23 25  1  0
 25 26  2  0
 26 27  1  0
 27 28  2  0
 12  7  1  0
 17 13  1  0
 28 18  1  0
 27 21  1  0
  3 29  1  0
  4 30  1  0
  4 31  1  0
  8 32  1  0
  8 33  1  0
  9 34  1  0
  9 35  1  0
 10 36  1  0
 10 37  1  0
 11 38  1  0
 11 39  1  0
 12 40  1  6
 13 41  1  0
 14 42  1  0
 14 43  1  0
 15 44  1  0
 15 45  1  0
 16 46  1  0
 16 47  1  0
 17 48  1  0
 17 49  1  0
 19 50  1  0
 20 51  1  0
 22 52  1  0
 25 53  1  0
 26 54  1  0
M  END
>  <smiles>  (52) 
O=C(NCC(=O)N1CCCCC1C1CCCC1)c1ccc2cc(F)ccc2n1

>  <score_type>  (52) 
oracle

>  <origin>  (52) 
autodockgpu

>  <m_score__min__energy>  (52) 
-9.0899999999999999

>  <m_primary>  (52) 
energy

>  <rmsd>  (52) 
2.0461239564819302

>  <m_score__min__rmsd>  (52) 
2.0461239564819302

>  <meeko>  (52) 
{"free_energy": -8.2, "intermolecular_energy": -9.69, "internal_energy": -1.63, "cluster_size": 40, "cluster_id": 1, "rank_in_cluster": 22}

>  <energy>  (52) 
-9.07

>  <cluster_rmsd>  (52) 
0.16

>  <cluster>  (52) 
1

$$$$

     RDKit          3D

 54 57  0  0  0  0  0  0  0  0999 V2000
  141.1320   71.6330  221.5830 O   0  0  0  0  0  0  0  0  0  0  0  0
  140.2960   71.9270  222.5040 C   0  0  0  0  0  0  0  0  0  0  0  0
  139.5060   73.1320  222.3210 N   0  0  0  0  0  0  0  0  0  0  0  0
  139.6280   73.9680  221.1790 C   0  0  0  0  0  0  0  0  0  0  0  0
  140.8510   74.6970  220.9100 C   0  0  0  0  0  0  0  0  0  0  0  0
  141.2990   75.3660  221.9370 O   0  0  0  0  0  0  0  0  0  0  0  0
  141.6340   74.8150  219.7530 N   0  0  0  0  0  0  0  0  0  0  0  0
  141.0750   75.1610  218.4250 C   0  0  0  0  0  0  0  0  0  0  0  0
  142.1810   75.9110  217.7000 C   0  0  0  0  0  0  0  0  0  0  0  0
  143.0190   76.7770  218.5760 C   0  0  0  0  0  0  0  0  0  0  0  0
  143.6590   76.0010  219.7150 C   0  0  0  0  0  0  0  0  0  0  0  0
  143.0790   74.5970  219.7140 C   0  0  1  0  0  0  0  0  0  0  0  0
  143.6380   73.6780  220.7210 C   0  0  0  0  0  0  0  0  0  0  0  0
  143.6290   72.2770  220.1470 C   0  0  0  0  0  0  0  0  0  0  0  0
  144.8650   72.1360  219.2820 C   0  0  0  0  0  0  0  0  0  0  0  0
  145.7280   73.3260  219.5760 C   0  0  0  0  0  0  0  0  0  0  0  0
  145.1520   73.8940  220.8490 C   0  0  0  0  0  0  0  0  0  0  0  0
  140.1310   71.0980  223.6910 C   0  0  0  0  0  0  0  0  0  0  0  0
  139.4400   69.9130  223.5460 C   0  0  0  0  0  0  0  0  0  0  0  0
  139.2960   69.1360  224.6990 C   0  0  0  0  0  0  0  0  0  0  0  0
  139.8250   69.5520  225.9070 C   0  0  0  0  0  0  0  0  0  0  0  0
  139.6840   68.7800  227.0600 C   0  0  0  0  0  0  0  0  0  0  0  0
  140.2370   69.2650  228.2140 C   0  0  0  0  0  0  0  0  0  0  0  0
  140.1050   68.5210  229.3380 F   0  0  0  0  0  0  0  0  0  0  0  0
  140.9200   70.4540  228.3130 C   0  0  0  0  0  0  0  0  0  0  0  0
  141.0580   71.2120  227.1810 C   0  0  0  0  0  0  0  0  0  0  0  0
  140.5130   70.7540  225.9990 C   0  0  0  0  0  0  0  0  0  0  0  0
  140.6460   71.4930  224.8880 N   0  0  0  0  0  0  0  0  0  0  0  0
  138.8410   73.3140  223.1170 H   0  0  0  0  0  0  0  0  0  0  0  0
  139.4476   73.3276  220.3030 H   0  0  0  0  0  0  0  0  0  0  0  0
  138.9108   74.7738  221.3940 H   0  0  0  0  0  0  0  0  0  0  0  0
  140.8035   74.2491  217.8730 H   0  0  0  0  0  0  0  0  0  0  0  0
  140.1613   75.7672  218.5128 H   0  0  0  0  0  0  0  0  0  0  0  0
  142.8381   75.1721  217.2180 H   0  0  0  0  0  0  0  0  0  0  0  0
  141.6853   76.5803  216.9814 H   0  0  0  0  0  0  0  0  0  0  0  0
  143.8145   77.2312  217.9670 H   0  0  0  0  0  0  0  0  0  0  0  0
  142.3635   77.5420  219.0177 H   0  0  0  0  0  0  0  0  0  0  0  0
  144.7482   75.9545  219.5687 H   0  0  0  0  0  0  0  0  0  0  0  0
  143.4553   76.4968  220.6756 H   0  0  0  0  0  0  0  0  0  0  0  0
  143.3659   74.0293  218.8166 H   0  0  0  0  0  0  0  0  0  0  0  0
  143.0680   73.8305  221.6493 H   0  0  0  0  0  0  0  0  0  0  0  0
  143.6525   71.5369  220.9604 H   0  0  0  0  0  0  0  0  0  0  0  0
  142.7180   72.1047  219.5551 H   0  0  0  0  0  0  0  0  0  0  0  0
  145.3998   71.2077  219.5317 H   0  0  0  0  0  0  0  0  0  0  0  0
  144.6009   72.0899  218.2152 H   0  0  0  0  0  0  0  0  0  0  0  0
  146.7749   73.0221  219.7229 H   0  0  0  0  0  0  0  0  0  0  0  0
  145.7341   74.0561  218.7533 H   0  0  0  0  0  0  0  0  0  0  0  0
  145.5473   73.3602  221.7258 H   0  0  0  0  0  0  0  0  0  0  0  0
  145.4113   74.9541  220.9868 H   0  0  0  0  0  0  0  0  0  0  0  0
  139.0255   69.5972  222.5773 H   0  0  0  0  0  0  0  0  0  0  0  0
  138.7543   68.1802  224.6446 H   0  0  0  0  0  0  0  0  0  0  0  0
  139.1492   67.8189  227.0424 H   0  0  0  0  0  0  0  0  0  0  0  0
  141.3428   70.7864  229.2725 H   0  0  0  0  0  0  0  0  0  0  0  0
  141.5951   72.1714  227.2134 H   0  0  0  0  0  0  0  0  0  0  0  0
  1  2  2  0
  2  3  1  0
  3  4  1  0
  4  5  1  0
  5  6  2  0
  5  7  1  0
  7  8  1  0
  8  9  1  0
  9 10  1  0
 10 11  1  0
 11 12  1  0
 12 13  1  0
 13 14  1  0
 14 15  1  0
 15 16  1  0
 16 17  1  0
  2 18  1  0
 18 19  2  0
 19 20  1  0
 20 21  2  0
 21 22  1  0
 22 23  2  0
 23 24  1  0
 23 25  1  0
 25 26  2  0
 26 27  1  0
 27 28  2  0
 12  7  1  0
 17 13  1  0
 28 18  1  0
 27 21  1  0
  3 29  1  0
  4 30  1  0
  4 31  1  0
  8 32  1  0
  8 33  1  0
  9 34  1  0
  9 35  1  0
 10 36  1  0
 10 37  1  0
 11 38  1  0
 11 39  1  0
 12 40  1  6
 13 41  1  0
 14 42  1  0
 14 43  1  0
 15 44  1  0
 15 45  1  0
 16 46  1  0
 16 47  1  0
 17 48  1  0
 17 49  1  0
 19 50  1  0
 20 51  1  0
 22 52  1  0
 25 53  1  0
 26 54  1  0
M  END
>  <smiles>  (53) 
O=C(NCC(=O)N1CCCCC1C1CCCC1)c1ccc2cc(F)ccc2n1

>  <score_type>  (53) 
oracle

>  <origin>  (53) 
autodockgpu

>  <m_score__min__energy>  (53) 
-9.0899999999999999

>  <m_primary>  (53) 
energy

>  <rmsd>  (53) 
2.013779736281254

>  <m_score__min__rmsd>  (53) 
2.013779736281254

>  <meeko>  (53) 
{"free_energy": -8.16, "intermolecular_energy": -9.65, "internal_energy": -1.7, "cluster_size": 40, "cluster_id": 1, "rank_in_cluster": 27}

>  <energy>  (53) 
-9.06

>  <cluster_rmsd>  (53) 
0.17

>  <cluster>  (53) 
1

$$$$

     RDKit          3D

 54 57  0  0  0  0  0  0  0  0999 V2000
  140.0570   72.4240  220.6880 O   0  0  0  0  0  0  0  0  0  0  0  0
  139.6890   72.7310  221.8730 C   0  0  0  0  0  0  0  0  0  0  0  0
  139.1310   74.0570  222.0700 N   0  0  0  0  0  0  0  0  0  0  0  0
  138.9790   74.9950  221.0150 C   0  0  0  0  0  0  0  0  0  0  0  0
  140.0650   75.2720  220.0960 C   0  0  0  0  0  0  0  0  0  0  0  0
  139.7660   75.0410  218.8470 O   0  0  0  0  0  0  0  0  0  0  0  0
  141.3710   75.7370  220.3040 N   0  0  0  0  0  0  0  0  0  0  0  0
  142.5620   74.8540  220.2810 C   0  0  0  0  0  0  0  0  0  0  0  0
  143.7050   75.7250  219.7830 C   0  0  0  0  0  0  0  0  0  0  0  0
  143.3140   76.7340  218.7590 C   0  0  0  0  0  0  0  0  0  0  0  0
  142.2110   77.6580  219.2480 C   0  0  0  0  0  0  0  0  0  0  0  0
  141.7110   77.1310  220.5830 C   0  0  1  0  0  0  0  0  0  0  0  0
  140.6760   77.9470  221.2400 C   0  0  0  0  0  0  0  0  0  0  0  0
  140.6620   77.6050  222.7150 C   0  0  0  0  0  0  0  0  0  0  0  0
  141.7640   78.4100  223.3750 C   0  0  0  0  0  0  0  0  0  0  0  0
  142.2200   79.4170  222.3630 C   0  0  0  0  0  0  0  0  0  0  0  0
  141.1300   79.4110  221.3200 C   0  0  0  0  0  0  0  0  0  0  0  0
  139.8200   71.8020  222.9870 C   0  0  0  0  0  0  0  0  0  0  0  0
  139.4250   70.4970  222.7750 C   0  0  0  0  0  0  0  0  0  0  0  0
  139.5600   69.6250  223.8590 C   0  0  0  0  0  0  0  0  0  0  0  0
  140.0640   70.0670  225.0680 C   0  0  0  0  0  0  0  0  0  0  0  0
  140.2010   69.2010  226.1530 C   0  0  0  0  0  0  0  0  0  0  0  0
  140.7080   69.7190  227.3130 C   0  0  0  0  0  0  0  0  0  0  0  0
  140.8440   68.8840  228.3700 F   0  0  0  0  0  0  0  0  0  0  0  0
  141.0900   71.0290  227.4810 C   0  0  0  0  0  0  0  0  0  0  0  0
  140.9560   71.8800  226.4170 C   0  0  0  0  0  0  0  0  0  0  0  0
  140.4480   71.3910  225.2310 C   0  0  0  0  0  0  0  0  0  0  0  0
  140.3140   72.2210  224.1850 N   0  0  0  0  0  0  0  0  0  0  0  0
  138.8520   74.2430  223.0690 H   0  0  0  0  0  0  0  0  0  0  0  0
  138.1350   74.6430  220.4037 H   0  0  0  0  0  0  0  0  0  0  0  0
  138.8715   75.9478  221.5542 H   0  0  0  0  0  0  0  0  0  0  0  0
  142.7792   74.4753  221.2907 H   0  0  0  0  0  0  0  0  0  0  0  0
  142.4068   73.9767  219.6358 H   0  0  0  0  0  0  0  0  0  0  0  0
  144.1310   76.2585  220.6455 H   0  0  0  0  0  0  0  0  0  0  0  0
  144.4236   75.0490  219.2966 H   0  0  0  0  0  0  0  0  0  0  0  0
  144.1962   77.3402  218.5055 H   0  0  0  0  0  0  0  0  0  0  0  0
  142.9324   76.1911  217.8817 H   0  0  0  0  0  0  0  0  0  0  0  0
  142.6064   78.6767  219.3738 H   0  0  0  0  0  0  0  0  0  0  0  0
  141.3885   77.6891  218.5183 H   0  0  0  0  0  0  0  0  0  0  0  0
  142.4768   77.1977  221.3698 H   0  0  0  0  0  0  0  0  0  0  0  0
  139.7378   77.7821  220.6899 H   0  0  0  0  0  0  0  0  0  0  0  0
  139.6884   77.8694  223.1535 H   0  0  0  0  0  0  0  0  0  0  0  0
  140.8229   76.5274  222.8664 H   0  0  0  0  0  0  0  0  0  0  0  0
  141.3784   78.9191  224.2706 H   0  0  0  0  0  0  0  0  0  0  0  0
  142.5940   77.7620  223.6932 H   0  0  0  0  0  0  0  0  0  0  0  0
  142.3177   80.4129  222.8198 H   0  0  0  0  0  0  0  0  0  0  0  0
  143.2074   79.1755  221.9427 H   0  0  0  0  0  0  0  0  0  0  0  0
  140.2961   80.0596  221.6265 H   0  0  0  0  0  0  0  0  0  0  0  0
  141.4804   79.7919  220.3494 H   0  0  0  0  0  0  0  0  0  0  0  0
  139.0259   70.1615  221.8064 H   0  0  0  0  0  0  0  0  0  0  0  0
  139.2610   68.5722  223.7485 H   0  0  0  0  0  0  0  0  0  0  0  0
  139.9124   68.1421  226.0786 H   0  0  0  0  0  0  0  0  0  0  0  0
  141.4915   71.3829  228.4420 H   0  0  0  0  0  0  0  0  0  0  0  0
  141.2486   72.9366  226.5062 H   0  0  0  0  0  0  0  0  0  0  0  0
  1  2  2  0
  2  3  1  0
  3  4  1  0
  4  5  1  0
  5  6  2  0
  5  7  1  0
  7  8  1  0
  8  9  1  0
  9 10  1  0
 10 11  1  0
 11 12  1  0
 12 13  1  0
 13 14  1  0
 14 15  1  0
 15 16  1  0
 16 17  1  0
  2 18  1  0
 18 19  2  0
 19 20  1  0
 20 21  2  0
 21 22  1  0
 22 23  2  0
 23 24  1  0
 23 25  1  0
 25 26  2  0
 26 27  1  0
 27 28  2  0
 12  7  1  0
 17 13  1  0
 28 18  1  0
 27 21  1  0
  3 29  1  0
  4 30  1  0
  4 31  1  0
  8 32  1  0
  8 33  1  0
  9 34  1  0
  9 35  1  0
 10 36  1  0
 10 37  1  0
 11 38  1  0
 11 39  1  0
 12 40  1  1
 13 41  1  0
 14 42  1  0
 14 43  1  0
 15 44  1  0
 15 45  1  0
 16 46  1  0
 16 47  1  0
 17 48  1  0
 17 49  1  0
 19 50  1  0
 20 51  1  0
 22 52  1  0
 25 53  1  0
 26 54  1  0
M  END
>  <smiles>  (54) 
O=C(NCC(=O)N1CCCCC1C1CCCC1)c1ccc2cc(F)ccc2n1

>  <score_type>  (54) 
oracle

>  <origin>  (54) 
autodockgpu

>  <m_score__min__energy>  (54) 
-9.0899999999999999

>  <m_primary>  (54) 
energy

>  <rmsd>  (54) 
2.1755212464123987

>  <m_score__min__rmsd>  (54) 
2.1755212464123987

>  <meeko>  (54) 
{"free_energy": -7.72, "intermolecular_energy": -9.21, "internal_energy": -1.72, "cluster_size": 40, "cluster_id": 1, "rank_in_cluster": 38}

>  <energy>  (54) 
-9.01

>  <cluster_rmsd>  (54) 
0.27

>  <cluster>  (54) 
1

$$$$

     RDKit          3D

 54 57  0  0  0  0  0  0  0  0999 V2000
  141.4110   72.4790  221.5890 O   0  0  0  0  0  0  0  0  0  0  0  0
  140.4700   72.6040  222.4450 C   0  0  0  0  0  0  0  0  0  0  0  0
  139.6170   73.7740  222.3250 N   0  0  0  0  0  0  0  0  0  0  0  0
  139.7880   74.7530  221.3110 C   0  0  0  0  0  0  0  0  0  0  0  0
  140.3280   76.0630  221.6170 C   0  0  0  0  0  0  0  0  0  0  0  0
  139.8530   76.5820  222.7160 O   0  0  0  0  0  0  0  0  0  0  0  0
  141.2600   76.8700  220.9490 N   0  0  0  0  0  0  0  0  0  0  0  0
  142.3360   76.3260  220.0870 C   0  0  0  0  0  0  0  0  0  0  0  0
  142.5820   77.3850  219.0240 C   0  0  0  0  0  0  0  0  0  0  0  0
  141.3600   78.1150  218.5840 C   0  0  0  0  0  0  0  0  0  0  0  0
  140.6360   78.7830  219.7410 C   0  0  0  0  0  0  0  0  0  0  0  0
  141.2920   78.3290  221.0340 C   0  0  1  0  0  0  0  0  0  0  0  0
  140.7550   78.9330  222.2650 C   0  0  0  0  0  0  0  0  0  0  0  0
  141.8040   78.8200  223.3500 C   0  0  0  0  0  0  0  0  0  0  0  0
  142.7700   79.9730  223.1650 C   0  0  0  0  0  0  0  0  0  0  0  0
  142.1370   80.9040  222.1760 C   0  0  0  0  0  0  0  0  0  0  0  0
  140.6960   80.4600  222.1220 C   0  0  0  0  0  0  0  0  0  0  0  0
  140.2510   71.6240  223.5000 C   0  0  0  0  0  0  0  0  0  0  0  0
  139.5800   70.4670  223.1630 C   0  0  0  0  0  0  0  0  0  0  0  0
  139.3830   69.5430  224.1930 C   0  0  0  0  0  0  0  0  0  0  0  0
  139.8430   69.7950  225.4720 C   0  0  0  0  0  0  0  0  0  0  0  0
  139.6490   68.8760  226.5030 C   0  0  0  0  0  0  0  0  0  0  0  0
  140.1360   69.2040  227.7390 C   0  0  0  0  0  0  0  0  0  0  0  0
  139.9510   68.3160  228.7450 F   0  0  0  0  0  0  0  0  0  0  0  0
  140.8000   70.3700  228.0310 C   0  0  0  0  0  0  0  0  0  0  0  0
  140.9910   71.2730  227.0200 C   0  0  0  0  0  0  0  0  0  0  0  0
  140.5130   70.9760  225.7600 C   0  0  0  0  0  0  0  0  0  0  0  0
  140.6980   71.8570  224.7650 N   0  0  0  0  0  0  0  0  0  0  0  0
  138.8670   73.8150  223.0630 H   0  0  0  0  0  0  0  0  0  0  0  0
  140.4551   74.3087  220.5576 H   0  0  0  0  0  0  0  0  0  0  0  0
  138.7519   74.9820  221.0209 H   0  0  0  0  0  0  0  0  0  0  0  0
  143.2491   76.1531  220.6755 H   0  0  0  0  0  0  0  0  0  0  0  0
  142.0527   75.3606  219.6423 H   0  0  0  0  0  0  0  0  0  0  0  0
  143.2937   78.1195  219.4291 H   0  0  0  0  0  0  0  0  0  0  0  0
  142.9660   76.8564  218.1391 H   0  0  0  0  0  0  0  0  0  0  0  0
  141.6523   78.8872  217.8572 H   0  0  0  0  0  0  0  0  0  0  0  0
  140.6732   77.3807  218.1378 H   0  0  0  0  0  0  0  0  0  0  0  0
  140.7132   79.8763  219.6477 H   0  0  0  0  0  0  0  0  0  0  0  0
  139.5717   78.5051  219.7358 H   0  0  0  0  0  0  0  0  0  0  0  0
  142.3255   78.6941  221.1265 H   0  0  0  0  0  0  0  0  0  0  0  0
  139.7879   78.4491  222.4663 H   0  0  0  0  0  0  0  0  0  0  0  0
  141.3293   78.8819  224.3404 H   0  0  0  0  0  0  0  0  0  0  0  0
  142.3305   77.8565  223.2837 H   0  0  0  0  0  0  0  0  0  0  0  0
  142.9332   80.4894  224.1224 H   0  0  0  0  0  0  0  0  0  0  0  0
  143.7484   79.6189  222.8081 H   0  0  0  0  0  0  0  0  0  0  0  0
  142.2117   81.9467  222.5183 H   0  0  0  0  0  0  0  0  0  0  0  0
  142.6262   80.8699  221.1914 H   0  0  0  0  0  0  0  0  0  0  0  0
  140.1214   80.9053  222.9475 H   0  0  0  0  0  0  0  0  0  0  0  0
  140.1980   80.7727  221.1924 H   0  0  0  0  0  0  0  0  0  0  0  0
  139.2199   70.2818  222.1403 H   0  0  0  0  0  0  0  0  0  0  0  0
  138.8542   68.6016  223.9828 H   0  0  0  0  0  0  0  0  0  0  0  0
  139.1249   67.9246  226.3293 H   0  0  0  0  0  0  0  0  0  0  0  0
  141.1677   70.5725  229.0477 H   0  0  0  0  0  0  0  0  0  0  0  0
  141.5172   72.2203  227.2090 H   0  0  0  0  0  0  0  0  0  0  0  0
  1  2  2  0
  2  3  1  0
  3  4  1  0
  4  5  1  0
  5  6  2  0
  5  7  1  0
  7  8  1  0
  8  9  1  0
  9 10  1  0
 10 11  1  0
 11 12  1  0
 12 13  1  0
 13 14  1  0
 14 15  1  0
 15 16  1  0
 16 17  1  0
  2 18  1  0
 18 19  2  0
 19 20  1  0
 20 21  2  0
 21 22  1  0
 22 23  2  0
 23 24  1  0
 23 25  1  0
 25 26  2  0
 26 27  1  0
 27 28  2  0
 12  7  1  0
 17 13  1  0
 28 18  1  0
 27 21  1  0
  3 29  1  0
  4 30  1  0
  4 31  1  0
  8 32  1  0
  8 33  1  0
  9 34  1  0
  9 35  1  0
 10 36  1  0
 10 37  1  0
 11 38  1  0
 11 39  1  0
 12 40  1  6
 13 41  1  0
 14 42  1  0
 14 43  1  0
 15 44  1  0
 15 45  1  0
 16 46  1  0
 16 47  1  0
 17 48  1  0
 17 49  1  0
 19 50  1  0
 20 51  1  0
 22 52  1  0
 25 53  1  0
 26 54  1  0
M  END
>  <smiles>  (55) 
O=C(NCC(=O)N1CCCCC1C1CCCC1)c1ccc2cc(F)ccc2n1

>  <score_type>  (55) 
oracle

>  <origin>  (55) 
autodockgpu

>  <m_score__min__energy>  (55) 
-9.0899999999999999

>  <m_primary>  (55) 
energy

>  <rmsd>  (55) 
2.217539401434405

>  <m_score__min__rmsd>  (55) 
2.217539401434405

>  <meeko>  (55) 
{"free_energy": -8.88, "intermolecular_energy": -10.37, "internal_energy": -1.11, "cluster_size": 40, "cluster_id": 1, "rank_in_cluster": 6}

>  <energy>  (55) 
-8.98

>  <cluster_rmsd>  (55) 
0.3

>  <cluster>  (55) 
1

$$$$

     RDKit          3D

 54 57  0  0  0  0  0  0  0  0999 V2000
  141.2040   71.7030  221.6190 O   0  0  0  0  0  0  0  0  0  0  0  0
  140.3400   71.9870  222.5170 C   0  0  0  0  0  0  0  0  0  0  0  0
  139.5480   73.1870  222.3170 N   0  0  0  0  0  0  0  0  0  0  0  0
  139.6950   74.0300  221.1840 C   0  0  0  0  0  0  0  0  0  0  0  0
  140.9390   74.7280  220.9240 C   0  0  0  0  0  0  0  0  0  0  0  0
  141.3960   75.3830  221.9560 O   0  0  0  0  0  0  0  0  0  0  0  0
  141.7320   74.8290  219.7730 N   0  0  0  0  0  0  0  0  0  0  0  0
  141.1790   75.1110  218.4270 C   0  0  0  0  0  0  0  0  0  0  0  0
  142.2710   75.8680  217.6880 C   0  0  0  0  0  0  0  0  0  0  0  0
  143.0720   76.7900  218.5420 C   0  0  0  0  0  0  0  0  0  0  0  0
  143.7210   76.0740  219.7160 C   0  0  0  0  0  0  0  0  0  0  0  0
  143.1830   74.6540  219.7580 C   0  0  1  0  0  0  0  0  0  0  0  0
  143.7570   73.7890  220.8030 C   0  0  0  0  0  0  0  0  0  0  0  0
  143.7210   72.3570  220.3120 C   0  0  0  0  0  0  0  0  0  0  0  0
  144.9360   72.1530  219.4280 C   0  0  0  0  0  0  0  0  0  0  0  0
  145.8160   73.3490  219.6330 C   0  0  0  0  0  0  0  0  0  0  0  0
  145.2750   73.9950  220.8850 C   0  0  0  0  0  0  0  0  0  0  0  0
  140.1480   71.1520  223.6950 C   0  0  0  0  0  0  0  0  0  0  0  0
  139.4390   69.9790  223.5330 C   0  0  0  0  0  0  0  0  0  0  0  0
  139.2690   69.1950  224.6780 C   0  0  0  0  0  0  0  0  0  0  0  0
  139.7910   69.5930  225.8950 C   0  0  0  0  0  0  0  0  0  0  0  0
  139.6240   68.8140  227.0400 C   0  0  0  0  0  0  0  0  0  0  0  0
  140.1720   69.2800  228.2040 C   0  0  0  0  0  0  0  0  0  0  0  0
  140.0140   68.5290  229.3200 F   0  0  0  0  0  0  0  0  0  0  0  0
  140.8720   70.4570  228.3210 C   0  0  0  0  0  0  0  0  0  0  0  0
  141.0360   71.2210  227.1970 C   0  0  0  0  0  0  0  0  0  0  0  0
  140.4970   70.7830  226.0050 C   0  0  0  0  0  0  0  0  0  0  0  0
  140.6560   71.5280  224.9010 N   0  0  0  0  0  0  0  0  0  0  0  0
  138.8590   73.3610  223.0950 H   0  0  0  0  0  0  0  0  0  0  0  0
  139.4986   73.4034  220.3015 H   0  0  0  0  0  0  0  0  0  0  0  0
  138.9998   74.8532  221.4057 H   0  0  0  0  0  0  0  0  0  0  0  0
  140.9414   74.1724  217.9049 H   0  0  0  0  0  0  0  0  0  0  0  0
  140.2467   75.6921  218.4830 H   0  0  0  0  0  0  0  0  0  0  0  0
  142.9558   75.1327  217.2404 H   0  0  0  0  0  0  0  0  0  0  0  0
  141.7644   76.4959  216.9403 H   0  0  0  0  0  0  0  0  0  0  0  0
  143.8611   77.2462  217.9262 H   0  0  0  0  0  0  0  0  0  0  0  0
  142.3886   77.5502  218.9484 H   0  0  0  0  0  0  0  0  0  0  0  0
  144.8129   76.0554  219.5841 H   0  0  0  0  0  0  0  0  0  0  0  0
  143.4908   76.5969  220.6560 H   0  0  0  0  0  0  0  0  0  0  0  0
  143.4972   74.0641  218.8843 H   0  0  0  0  0  0  0  0  0  0  0  0
  143.2102   74.0018  221.7335 H   0  0  0  0  0  0  0  0  0  0  0  0
  143.7566   71.6651  221.1664 H   0  0  0  0  0  0  0  0  0  0  0  0
  142.7946   72.1603  219.7524 H   0  0  0  0  0  0  0  0  0  0  0  0
  145.4680   71.2352  219.7189 H   0  0  0  0  0  0  0  0  0  0  0  0
  144.6469   72.0478  218.3719 H   0  0  0  0  0  0  0  0  0  0  0  0
  146.8635   73.0435  219.7727 H   0  0  0  0  0  0  0  0  0  0  0  0
  145.8090   74.0308  218.7698 H   0  0  0  0  0  0  0  0  0  0  0  0
  145.6850   73.5073  221.7817 H   0  0  0  0  0  0  0  0  0  0  0  0
  145.5480   75.0582  220.9568 H   0  0  0  0  0  0  0  0  0  0  0  0
  139.0304   69.6777  222.5572 H   0  0  0  0  0  0  0  0  0  0  0  0
  138.7124   68.2487  224.6098 H   0  0  0  0  0  0  0  0  0  0  0  0
  139.0733   67.8623  227.0084 H   0  0  0  0  0  0  0  0  0  0  0  0
  141.2878   70.7754  229.2883 H   0  0  0  0  0  0  0  0  0  0  0  0
  141.5895   72.1704  227.2436 H   0  0  0  0  0  0  0  0  0  0  0  0
  1  2  2  0
  2  3  1  0
  3  4  1  0
  4  5  1  0
  5  6  2  0
  5  7  1  0
  7  8  1  0
  8  9  1  0
  9 10  1  0
 10 11  1  0
 11 12  1  0
 12 13  1  0
 13 14  1  0
 14 15  1  0
 15 16  1  0
 16 17  1  0
  2 18  1  0
 18 19  2  0
 19 20  1  0
 20 21  2  0
 21 22  1  0
 22 23  2  0
 23 24  1  0
 23 25  1  0
 25 26  2  0
 26 27  1  0
 27 28  2  0
 12  7  1  0
 17 13  1  0
 28 18  1  0
 27 21  1  0
  3 29  1  0
  4 30  1  0
  4 31  1  0
  8 32  1  0
  8 33  1  0
  9 34  1  0
  9 35  1  0
 10 36  1  0
 10 37  1  0
 11 38  1  0
 11 39  1  0
 12 40  1  6
 13 41  1  0
 14 42  1  0
 14 43  1  0
 15 44  1  0
 15 45  1  0
 16 46  1  0
 16 47  1  0
 17 48  1  0
 17 49  1  0
 19 50  1  0
 20 51  1  0
 22 52  1  0
 25 53  1  0
 26 54  1  0
M  END
>  <smiles>  (56) 
O=C(NCC(=O)N1CCCCC1C1CCCC1)c1ccc2cc(F)ccc2n1

>  <score_type>  (56) 
oracle

>  <origin>  (56) 
autodockgpu

>  <m_score__min__energy>  (56) 
-9.0899999999999999

>  <m_primary>  (56) 
energy

>  <rmsd>  (56) 
2.052768759863431

>  <m_score__min__rmsd>  (56) 
2.052768759863431

>  <meeko>  (56) 
{"free_energy": -8.21, "intermolecular_energy": -9.71, "internal_energy": -1.69, "cluster_size": 40, "cluster_id": 1, "rank_in_cluster": 19}

>  <energy>  (56) 
-8.88

>  <cluster_rmsd>  (56) 
0.52

>  <cluster>  (56) 
1

$$$$

     RDKit          3D

 54 57  0  0  0  0  0  0  0  0999 V2000
  140.1600   71.9990  220.8760 O   0  0  0  0  0  0  0  0  0  0  0  0
  139.6150   72.3110  221.9890 C   0  0  0  0  0  0  0  0  0  0  0  0
  138.8330   73.5340  222.0230 N   0  0  0  0  0  0  0  0  0  0  0  0
  138.6560   74.3690  220.8880 C   0  0  0  0  0  0  0  0  0  0  0  0
  139.4440   75.5730  220.7120 C   0  0  0  0  0  0  0  0  0  0  0  0
  138.7330   76.6240  220.4060 O   0  0  0  0  0  0  0  0  0  0  0  0
  140.8220   75.8100  220.8050 N   0  0  0  0  0  0  0  0  0  0  0  0
  141.8420   74.7430  220.6740 C   0  0  0  0  0  0  0  0  0  0  0  0
  143.0670   75.4200  220.0790 C   0  0  0  0  0  0  0  0  0  0  0  0
  142.7620   76.4980  219.0970 C   0  0  0  0  0  0  0  0  0  0  0  0
  141.8750   77.5840  219.6850 C   0  0  0  0  0  0  0  0  0  0  0  0
  141.4130   77.1240  221.0570 C   0  0  1  0  0  0  0  0  0  0  0  0
  140.5890   78.0880  221.8060 C   0  0  0  0  0  0  0  0  0  0  0  0
  141.1700   78.2340  223.1960 C   0  0  0  0  0  0  0  0  0  0  0  0
  142.3120   79.2270  223.1060 C   0  0  0  0  0  0  0  0  0  0  0  0
  142.2140   79.8660  221.7540 C   0  0  0  0  0  0  0  0  0  0  0  0
  140.8280   79.5090  221.2770 C   0  0  0  0  0  0  0  0  0  0  0  0
  139.7640   71.4860  223.1800 C   0  0  0  0  0  0  0  0  0  0  0  0
  139.3590   70.1690  223.0950 C   0  0  0  0  0  0  0  0  0  0  0  0
  139.5130   69.3980  224.2500 C   0  0  0  0  0  0  0  0  0  0  0  0
  140.0420   69.9450  225.4050 C   0  0  0  0  0  0  0  0  0  0  0  0
  140.1970   69.1790  226.5600 C   0  0  0  0  0  0  0  0  0  0  0  0
  140.7290   69.7980  227.6590 C   0  0  0  0  0  0  0  0  0  0  0  0
  140.8830   69.0610  228.7840 F   0  0  0  0  0  0  0  0  0  0  0  0
  141.1200   71.1150  227.7000 C   0  0  0  0  0  0  0  0  0  0  0  0
  140.9680   71.8660  226.5660 C   0  0  0  0  0  0  0  0  0  0  0  0
  140.4340   71.2760  225.4390 C   0  0  0  0  0  0  0  0  0  0  0  0
  140.2840   72.0090  224.3250 N   0  0  0  0  0  0  0  0  0  0  0  0
  138.4160   73.7320  222.9710 H   0  0  0  0  0  0  0  0  0  0  0  0
  138.8458   73.7403  220.0056 H   0  0  0  0  0  0  0  0  0  0  0  0
  137.6412   74.7661  221.0381 H   0  0  0  0  0  0  0  0  0  0  0  0
  142.0798   74.3159  221.6594 H   0  0  0  0  0  0  0  0  0  0  0  0
  141.4869   73.9154  220.0423 H   0  0  0  0  0  0  0  0  0  0  0  0
  143.6500   75.8597  220.9017 H   0  0  0  0  0  0  0  0  0  0  0  0
  143.6175   74.6426  219.5288 H   0  0  0  0  0  0  0  0  0  0  0  0
  143.7075   76.9539  218.7679 H   0  0  0  0  0  0  0  0  0  0  0  0
  142.2201   76.0416  218.2556 H   0  0  0  0  0  0  0  0  0  0  0  0
  142.4442   78.5207  219.7778 H   0  0  0  0  0  0  0  0  0  0  0  0
  141.0086   77.7640  219.0315 H   0  0  0  0  0  0  0  0  0  0  0  0
  142.2451   77.0496  221.7725 H   0  0  0  0  0  0  0  0  0  0  0  0
  139.5475   77.7396  221.7442 H   0  0  0  0  0  0  0  0  0  0  0  0
  140.4007   78.6070  223.8881 H   0  0  0  0  0  0  0  0  0  0  0  0
  141.5266   77.2639  223.5726 H   0  0  0  0  0  0  0  0  0  0  0  0
  142.2166   79.9884  223.8941 H   0  0  0  0  0  0  0  0  0  0  0  0
  143.2836   78.7295  223.2416 H   0  0  0  0  0  0  0  0  0  0  0  0
  142.3322   80.9571  221.8284 H   0  0  0  0  0  0  0  0  0  0  0  0
  142.9992   79.5198  221.0658 H   0  0  0  0  0  0  0  0  0  0  0  0
  140.0841   80.2067  221.6890 H   0  0  0  0  0  0  0  0  0  0  0  0
  140.7363   79.5669  220.1824 H   0  0  0  0  0  0  0  0  0  0  0  0
  138.9383   69.7498  222.1691 H   0  0  0  0  0  0  0  0  0  0  0  0
  139.2092   68.3408  224.2406 H   0  0  0  0  0  0  0  0  0  0  0  0
  139.9034   68.1193  226.5869 H   0  0  0  0  0  0  0  0  0  0  0  0
  141.5424   71.5523  228.6167 H   0  0  0  0  0  0  0  0  0  0  0  0
  141.2672   72.9244  226.5533 H   0  0  0  0  0  0  0  0  0  0  0  0
  1  2  2  0
  2  3  1  0
  3  4  1  0
  4  5  1  0
  5  6  2  0
  5  7  1  0
  7  8  1  0
  8  9  1  0
  9 10  1  0
 10 11  1  0
 11 12  1  0
 12 13  1  0
 13 14  1  0
 14 15  1  0
 15 16  1  0
 16 17  1  0
  2 18  1  0
 18 19  2  0
 19 20  1  0
 20 21  2  0
 21 22  1  0
 22 23  2  0
 23 24  1  0
 23 25  1  0
 25 26  2  0
 26 27  1  0
 27 28  2  0
 12  7  1  0
 17 13  1  0
 28 18  1  0
 27 21  1  0
  3 29  1  0
  4 30  1  0
  4 31  1  0
  8 32  1  0
  8 33  1  0
  9 34  1  0
  9 35  1  0
 10 36  1  0
 10 37  1  0
 11 38  1  0
 11 39  1  0
 12 40  1  1
 13 41  1  0
 14 42  1  0
 14 43  1  0
 15 44  1  0
 15 45  1  0
 16 46  1  0
 16 47  1  0
 17 48  1  0
 17 49  1  0
 19 50  1  0
 20 51  1  0
 22 52  1  0
 25 53  1  0
 26 54  1  0
M  END
>  <smiles>  (57) 
O=C(NCC(=O)N1CCCCC1C1CCCC1)c1ccc2cc(F)ccc2n1

>  <score_type>  (57) 
oracle

>  <origin>  (57) 
autodockgpu

>  <m_score__min__energy>  (57) 
-9.0899999999999999

>  <m_primary>  (57) 
energy

>  <rmsd>  (57) 
1.9544954291974554

>  <m_score__min__rmsd>  (57) 
1.9544954291974554

>  <meeko>  (57) 
{"free_energy": -7.94, "intermolecular_energy": -9.43, "internal_energy": -1.41, "cluster_size": 40, "cluster_id": 1, "rank_in_cluster": 34}

>  <energy>  (57) 
-8.8

>  <cluster_rmsd>  (57) 
0.51

>  <cluster>  (57) 
1

$$$$

     RDKit          3D

 54 57  0  0  0  0  0  0  0  0999 V2000
  141.3540   72.4640  221.7950 O   0  0  0  0  0  0  0  0  0  0  0  0
  140.3530   72.4950  222.5890 C   0  0  0  0  0  0  0  0  0  0  0  0
  139.3460   73.5110  222.3440 N   0  0  0  0  0  0  0  0  0  0  0  0
  139.4320   74.4430  221.2760 C   0  0  0  0  0  0  0  0  0  0  0  0
  139.9190   75.7900  221.4940 C   0  0  0  0  0  0  0  0  0  0  0  0
  139.0700   76.5590  222.1180 O   0  0  0  0  0  0  0  0  0  0  0  0
  141.1280   76.4150  221.1540 N   0  0  0  0  0  0  0  0  0  0  0  0
  142.2270   75.7240  220.4390 C   0  0  0  0  0  0  0  0  0  0  0  0
  142.9250   76.8030  219.6260 C   0  0  0  0  0  0  0  0  0  0  0  0
  142.0180   77.8520  219.0810 C   0  0  0  0  0  0  0  0  0  0  0  0
  141.2150   78.5440  220.1700 C   0  0  0  0  0  0  0  0  0  0  0  0
  141.4520   77.8030  221.4750 C   0  0  1  0  0  0  0  0  0  0  0  0
  140.7960   78.3800  222.6610 C   0  0  0  0  0  0  0  0  0  0  0  0
  141.8340   78.5400  223.7520 C   0  0  0  0  0  0  0  0  0  0  0  0
  142.5710   79.8370  223.4860 C   0  0  0  0  0  0  0  0  0  0  0  0
  141.7890   80.5630  222.4340 C   0  0  0  0  0  0  0  0  0  0  0  0
  140.4560   79.8560  222.4110 C   0  0  0  0  0  0  0  0  0  0  0  0
  140.2170   71.5580  223.6960 C   0  0  0  0  0  0  0  0  0  0  0  0
  139.5920   70.3550  223.4360 C   0  0  0  0  0  0  0  0  0  0  0  0
  139.4740   69.4730  224.5140 C   0  0  0  0  0  0  0  0  0  0  0  0
  139.9630   69.8080  225.7630 C   0  0  0  0  0  0  0  0  0  0  0  0
  139.8470   68.9320  226.8420 C   0  0  0  0  0  0  0  0  0  0  0  0
  140.3570   69.3410  228.0440 C   0  0  0  0  0  0  0  0  0  0  0  0
  140.2490   68.4960  229.0960 F   0  0  0  0  0  0  0  0  0  0  0  0
  140.9730   70.5510  228.2580 C   0  0  0  0  0  0  0  0  0  0  0  0
  141.0870   71.4120  227.2000 C   0  0  0  0  0  0  0  0  0  0  0  0
  140.5830   71.0320  225.9720 C   0  0  0  0  0  0  0  0  0  0  0  0
  140.6930   71.8720  224.9320 N   0  0  0  0  0  0  0  0  0  0  0  0
  138.5520   73.4810  223.0360 H   0  0  0  0  0  0  0  0  0  0  0  0
  140.0914   73.9914  220.5202 H   0  0  0  0  0  0  0  0  0  0  0  0
  138.3761   74.6085  221.0160 H   0  0  0  0  0  0  0  0  0  0  0  0
  142.9267   75.2702  221.1563 H   0  0  0  0  0  0  0  0  0  0  0  0
  141.8506   74.9114  219.8003 H   0  0  0  0  0  0  0  0  0  0  0  0
  143.6677   77.2934  220.2725 H   0  0  0  0  0  0  0  0  0  0  0  0
  143.3751   76.2981  218.7585 H   0  0  0  0  0  0  0  0  0  0  0  0
  142.6238   78.6051  218.5557 H   0  0  0  0  0  0  0  0  0  0  0  0
  141.3073   77.3611  218.3999 H   0  0  0  0  0  0  0  0  0  0  0  0
  141.5446   79.5887  220.2694 H   0  0  0  0  0  0  0  0  0  0  0  0
  140.1445   78.5367  219.9168 H   0  0  0  0  0  0  0  0  0  0  0  0
  142.4924   77.8922  221.8208 H   0  0  0  0  0  0  0  0  0  0  0  0
  139.9333   77.7392  222.8959 H   0  0  0  0  0  0  0  0  0  0  0  0
  141.3431   78.5809  224.7355 H   0  0  0  0  0  0  0  0  0  0  0  0
  142.5312   77.6892  223.7540 H   0  0  0  0  0  0  0  0  0  0  0  0
  142.6229   80.4398  224.4046 H   0  0  0  0  0  0  0  0  0  0  0  0
  143.6027   79.6474  223.1547 H   0  0  0  0  0  0  0  0  0  0  0  0
  141.6643   81.6225  222.7020 H   0  0  0  0  0  0  0  0  0  0  0  0
  142.2890   80.5523  221.4543 H   0  0  0  0  0  0  0  0  0  0  0  0
  139.7978   80.2424  223.2031 H   0  0  0  0  0  0  0  0  0  0  0  0
  139.9208   80.0057  221.4617 H   0  0  0  0  0  0  0  0  0  0  0  0
  139.2081   70.1044  222.4361 H   0  0  0  0  0  0  0  0  0  0  0  0
  138.9852   68.4987  224.3665 H   0  0  0  0  0  0  0  0  0  0  0  0
  139.3640   67.9499  226.7310 H   0  0  0  0  0  0  0  0  0  0  0  0
  141.3631   70.8197  229.2508 H   0  0  0  0  0  0  0  0  0  0  0  0
  141.5724   72.3910  227.3261 H   0  0  0  0  0  0  0  0  0  0  0  0
  1  2  2  0
  2  3  1  0
  3  4  1  0
  4  5  1  0
  5  6  2  0
  5  7  1  0
  7  8  1  0
  8  9  1  0
  9 10  1  0
 10 11  1  0
 11 12  1  0
 12 13  1  0
 13 14  1  0
 14 15  1  0
 15 16  1  0
 16 17  1  0
  2 18  1  0
 18 19  2  0
 19 20  1  0
 20 21  2  0
 21 22  1  0
 22 23  2  0
 23 24  1  0
 23 25  1  0
 25 26  2  0
 26 27  1  0
 27 28  2  0
 12  7  1  0
 17 13  1  0
 28 18  1  0
 27 21  1  0
  3 29  1  0
  4 30  1  0
  4 31  1  0
  8 32  1  0
  8 33  1  0
  9 34  1  0
  9 35  1  0
 10 36  1  0
 10 37  1  0
 11 38  1  0
 11 39  1  0
 12 40  1  1
 13 41  1  0
 14 42  1  0
 14 43  1  0
 15 44  1  0
 15 45  1  0
 16 46  1  0
 16 47  1  0
 17 48  1  0
 17 49  1  0
 19 50  1  0
 20 51  1  0
 22 52  1  0
 25 53  1  0
 26 54  1  0
M  END
>  <smiles>  (58) 
O=C(NCC(=O)N1CCCCC1C1CCCC1)c1ccc2cc(F)ccc2n1

>  <score_type>  (58) 
oracle

>  <origin>  (58) 
autodockgpu

>  <m_score__min__energy>  (58) 
-9.0899999999999999

>  <m_primary>  (58) 
energy

>  <rmsd>  (58) 
2.1908220116715302

>  <m_score__min__rmsd>  (58) 
2.1908220116715302

>  <meeko>  (58) 
{"free_energy": -9.09, "intermolecular_energy": -10.58, "internal_energy": -1.04, "cluster_size": 40, "cluster_id": 1, "rank_in_cluster": 1}

>  <energy>  (58) 
-8.78

>  <cluster_rmsd>  (58) 
0.61

>  <cluster>  (58) 
1

$$$$

     RDKit          3D

 54 57  0  0  0  0  0  0  0  0999 V2000
  136.1880   77.5670  222.8840 O   0  0  0  0  0  0  0  0  0  0  0  0
  136.3410   76.3580  223.2690 C   0  0  0  0  0  0  0  0  0  0  0  0
  137.4800   75.6320  222.7360 N   0  0  0  0  0  0  0  0  0  0  0  0
  138.4070   76.2100  221.8280 C   0  0  0  0  0  0  0  0  0  0  0  0
  139.7940   75.7890  221.8040 C   0  0  0  0  0  0  0  0  0  0  0  0
  139.9910   74.6060  222.3170 O   0  0  0  0  0  0  0  0  0  0  0  0
  140.9550   76.4210  221.3360 N   0  0  0  0  0  0  0  0  0  0  0  0
  142.0010   75.7220  220.5530 C   0  0  0  0  0  0  0  0  0  0  0  0
  142.6030   76.7800  219.6420 C   0  0  0  0  0  0  0  0  0  0  0  0
  141.6310   77.7910  219.1410 C   0  0  0  0  0  0  0  0  0  0  0  0
  140.9110   78.5110  220.2690 C   0  0  0  0  0  0  0  0  0  0  0  0
  141.2770   77.8270  221.5750 C   0  0  1  0  0  0  0  0  0  0  0  0
  140.7150   78.4380  222.7920 C   0  0  0  0  0  0  0  0  0  0  0  0
  141.8280   78.6000  223.8040 C   0  0  0  0  0  0  0  0  0  0  0  0
  142.5670   79.8780  223.4620 C   0  0  0  0  0  0  0  0  0  0  0  0
  141.7260   80.5980  222.4520 C   0  0  0  0  0  0  0  0  0  0  0  0
  140.3830   79.9150  222.5360 C   0  0  0  0  0  0  0  0  0  0  0  0
  135.4200   75.7230  224.2020 C   0  0  0  0  0  0  0  0  0  0  0  0
  134.5690   76.5440  224.9130 C   0  0  0  0  0  0  0  0  0  0  0  0
  133.6950   75.9100  225.8010 C   0  0  0  0  0  0  0  0  0  0  0  0
  133.6990   74.5350  225.9420 C   0  0  0  0  0  0  0  0  0  0  0  0
  132.8290   73.8980  226.8270 C   0  0  0  0  0  0  0  0  0  0  0  0
  132.8990   72.5340  226.9070 C   0  0  0  0  0  0  0  0  0  0  0  0
  132.0560   71.9090  227.7630 F   0  0  0  0  0  0  0  0  0  0  0  0
  133.7630   71.7530  226.1770 C   0  0  0  0  0  0  0  0  0  0  0  0
  134.6170   72.3780  225.3090 C   0  0  0  0  0  0  0  0  0  0  0  0
  134.5750   73.7530  225.2030 C   0  0  0  0  0  0  0  0  0  0  0  0
  135.4110   74.3690  224.3530 N   0  0  0  0  0  0  0  0  0  0  0  0
  137.5430   74.6430  223.0920 H   0  0  0  0  0  0  0  0  0  0  0  0
  138.0087   76.0302  220.8185 H   0  0  0  0  0  0  0  0  0  0  0  0
  138.4769   77.2485  222.1840 H   0  0  0  0  0  0  0  0  0  0  0  0
  142.7699   75.3085  221.2221 H   0  0  0  0  0  0  0  0  0  0  0  0
  141.5867   74.8790  219.9806 H   0  0  0  0  0  0  0  0  0  0  0  0
  143.3895   77.3077  220.2015 H   0  0  0  0  0  0  0  0  0  0  0  0
  142.9855   76.2495  218.7575 H   0  0  0  0  0  0  0  0  0  0  0  0
  142.1733   78.5336  218.5373 H   0  0  0  0  0  0  0  0  0  0  0  0
  140.8740   77.2614  218.5440 H   0  0  0  0  0  0  0  0  0  0  0  0
  141.2251   79.5648  220.2992 H   0  0  0  0  0  0  0  0  0  0  0  0
  139.8230   78.4742  220.1114 H   0  0  0  0  0  0  0  0  0  0  0  0
  142.3415   77.9491  221.8240 H   0  0  0  0  0  0  0  0  0  0  0  0
  139.8604   77.8173  223.0993 H   0  0  0  0  0  0  0  0  0  0  0  0
  141.4074   78.6685  224.8181 H   0  0  0  0  0  0  0  0  0  0  0  0
  142.5093   77.7369  223.7744 H   0  0  0  0  0  0  0  0  0  0  0  0
  142.6927   80.4970  224.3626 H   0  0  0  0  0  0  0  0  0  0  0  0
  143.5700   79.6635  223.0645 H   0  0  0  0  0  0  0  0  0  0  0  0
  141.6381   81.6646  222.7064 H   0  0  0  0  0  0  0  0  0  0  0  0
  142.1563   80.5595  221.4404 H   0  0  0  0  0  0  0  0  0  0  0  0
  139.7882   80.3284  223.3638 H   0  0  0  0  0  0  0  0  0  0  0  0
  139.7854   80.0561  221.6233 H   0  0  0  0  0  0  0  0  0  0  0  0
  134.5778   77.6368  224.7880 H   0  0  0  0  0  0  0  0  0  0  0  0
  132.9942   76.5140  226.3960 H   0  0  0  0  0  0  0  0  0  0  0  0
  132.1144   74.4702  227.4369 H   0  0  0  0  0  0  0  0  0  0  0  0
  133.7679   70.6585  226.2871 H   0  0  0  0  0  0  0  0  0  0  0  0
  135.3261   71.7929  224.7050 H   0  0  0  0  0  0  0  0  0  0  0  0
  1  2  2  0
  2  3  1  0
  3  4  1  0
  4  5  1  0
  5  6  2  0
  5  7  1  0
  7  8  1  0
  8  9  1  0
  9 10  1  0
 10 11  1  0
 11 12  1  0
 12 13  1  0
 13 14  1  0
 14 15  1  0
 15 16  1  0
 16 17  1  0
  2 18  1  0
 18 19  2  0
 19 20  1  0
 20 21  2  0
 21 22  1  0
 22 23  2  0
 23 24  1  0
 23 25  1  0
 25 26  2  0
 26 27  1  0
 27 28  2  0
 12  7  1  0
 17 13  1  0
 28 18  1  0
 27 21  1  0
  3 29  1  0
  4 30  1  0
  4 31  1  0
  8 32  1  0
  8 33  1  0
  9 34  1  0
  9 35  1  0
 10 36  1  0
 10 37  1  0
 11 38  1  0
 11 39  1  0
 12 40  1  1
 13 41  1  0
 14 42  1  0
 14 43  1  0
 15 44  1  0
 15 45  1  0
 16 46  1  0
 16 47  1  0
 17 48  1  0
 17 49  1  0
 19 50  1  0
 20 51  1  0
 22 52  1  0
 25 53  1  0
 26 54  1  0
M  END
>  <smiles>  (59) 
O=C(NCC(=O)N1CCCCC1C1CCCC1)c1ccc2cc(F)ccc2n1

>  <score_type>  (59) 
oracle

>  <origin>  (59) 
autodockgpu

>  <m_score__min__energy>  (59) 
-9.0899999999999999

>  <m_primary>  (59) 
energy

>  <rmsd>  (59) 
5.995688338910136

>  <m_score__min__rmsd>  (59) 
5.995688338910136

>  <meeko>  (59) 
{"free_energy": -7.6, "intermolecular_energy": -9.09, "internal_energy": -1.82, "cluster_size": 2, "cluster_id": 4, "rank_in_cluster": 1}

>  <energy>  (59) 
-8.78

>  <cluster_rmsd>  (59) 
0.62

>  <cluster>  (59) 
1

$$$$

     RDKit          3D

 54 57  0  0  0  0  0  0  0  0999 V2000
  141.5580   72.0020  221.6150 O   0  0  0  0  0  0  0  0  0  0  0  0
  140.6530   72.3430  222.4510 C   0  0  0  0  0  0  0  0  0  0  0  0
  139.9650   73.5980  222.2060 N   0  0  0  0  0  0  0  0  0  0  0  0
  140.2540   74.4330  221.0950 C   0  0  0  0  0  0  0  0  0  0  0  0
  140.8010   73.8870  219.8680 C   0  0  0  0  0  0  0  0  0  0  0  0
  140.2200   72.7850  219.4820 O   0  0  0  0  0  0  0  0  0  0  0  0
  141.8360   74.3240  219.0300 N   0  0  0  0  0  0  0  0  0  0  0  0
  141.6210   74.7470  217.6260 C   0  0  0  0  0  0  0  0  0  0  0  0
  142.6860   75.7960  217.3490 C   0  0  0  0  0  0  0  0  0  0  0  0
  143.0120   76.6700  218.5110 C   0  0  0  0  0  0  0  0  0  0  0  0
  143.4550   75.8740  219.7270 C   0  0  0  0  0  0  0  0  0  0  0  0
  143.2400   74.4000  219.4310 C   0  0  1  0  0  0  0  0  0  0  0  0
  143.6790   73.4700  220.4850 C   0  0  0  0  0  0  0  0  0  0  0  0
  143.8710   72.1020  219.8660 C   0  0  0  0  0  0  0  0  0  0  0  0
  145.2470   72.0850  219.2300 C   0  0  0  0  0  0  0  0  0  0  0  0
  145.9570   73.3110  219.7170 C   0  0  0  0  0  0  0  0  0  0  0  0
  145.1280   73.7750  220.8890 C   0  0  0  0  0  0  0  0  0  0  0  0
  140.3170   71.5180  223.6040 C   0  0  0  0  0  0  0  0  0  0  0  0
  139.5540   70.3910  223.3770 C   0  0  0  0  0  0  0  0  0  0  0  0
  139.2450   69.6160  224.4990 C   0  0  0  0  0  0  0  0  0  0  0  0
  139.6900   69.9780  225.7570 C   0  0  0  0  0  0  0  0  0  0  0  0
  139.3840   69.2090  226.8790 C   0  0  0  0  0  0  0  0  0  0  0  0
  139.8630   69.6380  228.0870 C   0  0  0  0  0  0  0  0  0  0  0  0
  139.5710   68.8960  229.1810 F   0  0  0  0  0  0  0  0  0  0  0  0
  140.6220   70.7700  228.2670 C   0  0  0  0  0  0  0  0  0  0  0  0
  140.9220   71.5260  227.1660 C   0  0  0  0  0  0  0  0  0  0  0  0
  140.4550   71.1230  225.9320 C   0  0  0  0  0  0  0  0  0  0  0  0
  140.7470   71.8610  224.8500 N   0  0  0  0  0  0  0  0  0  0  0  0
  139.2350   73.8170  222.9340 H   0  0  0  0  0  0  0  0  0  0  0  0
  139.3100   74.9277  220.8227 H   0  0  0  0  0  0  0  0  0  0  0  0
  141.0802   75.0546  221.4704 H   0  0  0  0  0  0  0  0  0  0  0  0
  141.7381   73.8914  216.9447 H   0  0  0  0  0  0  0  0  0  0  0  0
  140.6072   75.1445  217.4708 H   0  0  0  0  0  0  0  0  0  0  0  0
  143.6060   75.2779  217.0404 H   0  0  0  0  0  0  0  0  0  0  0  0
  142.2794   76.4547  216.5675 H   0  0  0  0  0  0  0  0  0  0  0  0
  143.8232   77.3544  218.2219 H   0  0  0  0  0  0  0  0  0  0  0  0
  142.0993   77.2200  218.7840 H   0  0  0  0  0  0  0  0  0  0  0  0
  144.5200   76.0623  219.9280 H   0  0  0  0  0  0  0  0  0  0  0  0
  142.8729   76.1737  220.6110 H   0  0  0  0  0  0  0  0  0  0  0  0
  143.8976   74.0374  218.6272 H   0  0  0  0  0  0  0  0  0  0  0  0
  142.9459   73.5397  221.3022 H   0  0  0  0  0  0  0  0  0  0  0  0
  143.8051   71.3250  220.6418 H   0  0  0  0  0  0  0  0  0  0  0  0
  143.0922   71.9009  219.1156 H   0  0  0  0  0  0  0  0  0  0  0  0
  145.7955   71.1818  219.5356 H   0  0  0  0  0  0  0  0  0  0  0  0
  145.1773   72.0759  218.1322 H   0  0  0  0  0  0  0  0  0  0  0  0
  146.9817   73.0684  220.0351 H   0  0  0  0  0  0  0  0  0  0  0  0
  146.0537   74.0807  218.9371 H   0  0  0  0  0  0  0  0  0  0  0  0
  145.4012   73.2229  221.8004 H   0  0  0  0  0  0  0  0  0  0  0  0
  145.2826   74.8409  221.1127 H   0  0  0  0  0  0  0  0  0  0  0  0
  139.2080   70.1174  222.3693 H   0  0  0  0  0  0  0  0  0  0  0  0
  138.6394   68.7056  224.3792 H   0  0  0  0  0  0  0  0  0  0  0  0
  138.7808   68.2928  226.7964 H   0  0  0  0  0  0  0  0  0  0  0  0
  140.9779   71.0598  229.2667 H   0  0  0  0  0  0  0  0  0  0  0  0
  141.5258   72.4403  227.2636 H   0  0  0  0  0  0  0  0  0  0  0  0
  1  2  2  0
  2  3  1  0
  3  4  1  0
  4  5  1  0
  5  6  2  0
  5  7  1  0
  7  8  1  0
  8  9  1  0
  9 10  1  0
 10 11  1  0
 11 12  1  0
 12 13  1  0
 13 14  1  0
 14 15  1  0
 15 16  1  0
 16 17  1  0
  2 18  1  0
 18 19  2  0
 19 20  1  0
 20 21  2  0
 21 22  1  0
 22 23  2  0
 23 24  1  0
 23 25  1  0
 25 26  2  0
 26 27  1  0
 27 28  2  0
 12  7  1  0
 17 13  1  0
 28 18  1  0
 27 21  1  0
  3 29  1  0
  4 30  1  0
  4 31  1  0
  8 32  1  0
  8 33  1  0
  9 34  1  0
  9 35  1  0
 10 36  1  0
 10 37  1  0
 11 38  1  0
 11 39  1  0
 12 40  1  6
 13 41  1  0
 14 42  1  0
 14 43  1  0
 15 44  1  0
 15 45  1  0
 16 46  1  0
 16 47  1  0
 17 48  1  0
 17 49  1  0
 19 50  1  0
 20 51  1  0
 22 52  1  0
 25 53  1  0
 26 54  1  0
M  END
>  <smiles>  (60) 
O=C(NCC(=O)N1CCCCC1C1CCCC1)c1ccc2cc(F)ccc2n1

>  <score_type>  (60) 
oracle

>  <origin>  (60) 
autodockgpu

>  <m_score__min__energy>  (60) 
-9.0899999999999999

>  <m_primary>  (60) 
energy

>  <rmsd>  (60) 
2.4106231176050024

>  <m_score__min__rmsd>  (60) 
2.4106231176050024

>  <meeko>  (60) 
{"free_energy": -7.71, "intermolecular_energy": -9.21, "internal_energy": -1.5, "cluster_size": 5, "cluster_id": 3, "rank_in_cluster": 4}

>  <energy>  (60) 
-8.75

>  <cluster_rmsd>  (60) 
0.62

>  <cluster>  (60) 
1

$$$$

     RDKit          3D

 54 57  0  0  0  0  0  0  0  0999 V2000
  139.7180   70.9580  221.2520 O   0  0  0  0  0  0  0  0  0  0  0  0
  139.7740   71.4840  222.4160 C   0  0  0  0  0  0  0  0  0  0  0  0
  139.8370   72.9320  222.4850 N   0  0  0  0  0  0  0  0  0  0  0  0
  139.8330   73.7610  221.3320 C   0  0  0  0  0  0  0  0  0  0  0  0
  140.9680   74.6020  221.0090 C   0  0  0  0  0  0  0  0  0  0  0  0
  141.3300   75.3910  221.9830 O   0  0  0  0  0  0  0  0  0  0  0  0
  141.7410   74.7240  219.8450 N   0  0  0  0  0  0  0  0  0  0  0  0
  141.1600   74.9900  218.5080 C   0  0  0  0  0  0  0  0  0  0  0  0
  142.2200   75.7760  217.7520 C   0  0  0  0  0  0  0  0  0  0  0  0
  143.0090   76.7190  218.5940 C   0  0  0  0  0  0  0  0  0  0  0  0
  143.6940   76.0230  219.7580 C   0  0  0  0  0  0  0  0  0  0  0  0
  143.1960   74.5880  219.8090 C   0  0  1  0  0  0  0  0  0  0  0  0
  143.8090   73.7400  220.8460 C   0  0  0  0  0  0  0  0  0  0  0  0
  143.5860   72.2910  220.4710 C   0  0  0  0  0  0  0  0  0  0  0  0
  144.6650   71.9120  219.4750 C   0  0  0  0  0  0  0  0  0  0  0  0
  145.6670   73.0250  219.4900 C   0  0  0  0  0  0  0  0  0  0  0  0
  145.3390   73.8010  220.7410 C   0  0  0  0  0  0  0  0  0  0  0  0
  139.7760   70.6760  223.6290 C   0  0  0  0  0  0  0  0  0  0  0  0
  139.2020   69.4240  223.5580 C   0  0  0  0  0  0  0  0  0  0  0  0
  139.2160   68.6690  224.7350 C   0  0  0  0  0  0  0  0  0  0  0  0
  139.7810   69.1690  225.8930 C   0  0  0  0  0  0  0  0  0  0  0  0
  139.7980   68.4200  227.0690 C   0  0  0  0  0  0  0  0  0  0  0  0
  140.3760   68.9900  228.1710 C   0  0  0  0  0  0  0  0  0  0  0  0
  140.3970   68.2680  229.3170 F   0  0  0  0  0  0  0  0  0  0  0  0
  140.9390   70.2440  228.1960 C   0  0  0  0  0  0  0  0  0  0  0  0
  140.9220   70.9800  227.0420 C   0  0  0  0  0  0  0  0  0  0  0  0
  140.3470   70.4370  225.9120 C   0  0  0  0  0  0  0  0  0  0  0  0
  140.3280   71.1540  224.7780 N   0  0  0  0  0  0  0  0  0  0  0  0
  139.8840   73.2970  223.4730 H   0  0  0  0  0  0  0  0  0  0  0  0
  139.6828   73.0950  220.4695 H   0  0  0  0  0  0  0  0  0  0  0  0
  139.0490   74.4958  221.5674 H   0  0  0  0  0  0  0  0  0  0  0  0
  140.9399   74.0450  217.9898 H   0  0  0  0  0  0  0  0  0  0  0  0
  140.2133   75.5457  218.5782 H   0  0  0  0  0  0  0  0  0  0  0  0
  142.9172   75.0593  217.2936 H   0  0  0  0  0  0  0  0  0  0  0  0
  141.6855   76.3900  217.0122 H   0  0  0  0  0  0  0  0  0  0  0  0
  143.7765   77.1954  217.9663 H   0  0  0  0  0  0  0  0  0  0  0  0
  142.3113   77.4604  219.0105 H   0  0  0  0  0  0  0  0  0  0  0  0
  144.7840   76.0344  219.6101 H   0  0  0  0  0  0  0  0  0  0  0  0
  143.4630   76.5404  220.7008 H   0  0  0  0  0  0  0  0  0  0  0  0
  143.5136   74.0053  218.9317 H   0  0  0  0  0  0  0  0  0  0  0  0
  143.3980   74.0645  221.8134 H   0  0  0  0  0  0  0  0  0  0  0  0
  143.6592   71.6551  221.3655 H   0  0  0  0  0  0  0  0  0  0  0  0
  142.5862   72.1511  220.0342 H   0  0  0  0  0  0  0  0  0  0  0  0
  145.1423   70.9668  219.7731 H   0  0  0  0  0  0  0  0  0  0  0  0
  144.2448   71.7684  218.4686 H   0  0  0  0  0  0  0  0  0  0  0  0
  146.6915   72.6271  219.5351 H   0  0  0  0  0  0  0  0  0  0  0  0
  145.6198   73.6468  218.5838 H   0  0  0  0  0  0  0  0  0  0  0  0
  145.8073   73.3352  221.6206 H   0  0  0  0  0  0  0  0  0  0  0  0
  145.7129   74.8347  220.7002 H   0  0  0  0  0  0  0  0  0  0  0  0
  138.7579   69.0407  222.6275 H   0  0  0  0  0  0  0  0  0  0  0  0
  138.7711   67.6630  224.7393 H   0  0  0  0  0  0  0  0  0  0  0  0
  139.3637   67.4102  227.1095 H   0  0  0  0  0  0  0  0  0  0  0  0
  141.3898   70.6441  229.1162 H   0  0  0  0  0  0  0  0  0  0  0  0
  141.3600   71.9887  227.0163 H   0  0  0  0  0  0  0  0  0  0  0  0
  1  2  2  0
  2  3  1  0
  3  4  1  0
  4  5  1  0
  5  6  2  0
  5  7  1  0
  7  8  1  0
  8  9  1  0
  9 10  1  0
 10 11  1  0
 11 12  1  0
 12 13  1  0
 13 14  1  0
 14 15  1  0
 15 16  1  0
 16 17  1  0
  2 18  1  0
 18 19  2  0
 19 20  1  0
 20 21  2  0
 21 22  1  0
 22 23  2  0
 23 24  1  0
 23 25  1  0
 25 26  2  0
 26 27  1  0
 27 28  2  0
 12  7  1  0
 17 13  1  0
 28 18  1  0
 27 21  1  0
  3 29  1  0
  4 30  1  0
  4 31  1  0
  8 32  1  0
  8 33  1  0
  9 34  1  0
  9 35  1  0
 10 36  1  0
 10 37  1  0
 11 38  1  0
 11 39  1  0
 12 40  1  6
 13 41  1  0
 14 42  1  0
 14 43  1  0
 15 44  1  0
 15 45  1  0
 16 46  1  0
 16 47  1  0
 17 48  1  0
 17 49  1  0
 19 50  1  0
 20 51  1  0
 22 52  1  0
 25 53  1  0
 26 54  1  0
M  END
>  <smiles>  (61) 
O=C(NCC(=O)N1CCCCC1C1CCCC1)c1ccc2cc(F)ccc2n1

>  <score_type>  (61) 
oracle

>  <origin>  (61) 
autodockgpu

>  <m_score__min__energy>  (61) 
-9.0899999999999999

>  <m_primary>  (61) 
energy

>  <rmsd>  (61) 
1.987595068097457

>  <m_score__min__rmsd>  (61) 
1.987595068097457

>  <meeko>  (61) 
{"free_energy": -7.93, "intermolecular_energy": -9.42, "internal_energy": -1.84, "cluster_size": 5, "cluster_id": 3, "rank_in_cluster": 2}

>  <energy>  (61) 
-8.74

>  <cluster_rmsd>  (61) 
0.62

>  <cluster>  (61) 
1

$$$$

     RDKit          3D

 54 57  0  0  0  0  0  0  0  0999 V2000
  140.7320   72.0020  221.0910 O   0  0  0  0  0  0  0  0  0  0  0  0
  140.2680   72.4130  222.2090 C   0  0  0  0  0  0  0  0  0  0  0  0
  139.9090   73.8160  222.3000 N   0  0  0  0  0  0  0  0  0  0  0  0
  140.0480   74.7210  221.2150 C   0  0  0  0  0  0  0  0  0  0  0  0
  141.2910   75.4280  220.9820 C   0  0  0  0  0  0  0  0  0  0  0  0
  142.3540   74.7000  221.1850 O   0  0  0  0  0  0  0  0  0  0  0  0
  141.5570   76.7460  220.5830 N   0  0  0  0  0  0  0  0  0  0  0  0
  142.4490   77.0880  219.4500 C   0  0  0  0  0  0  0  0  0  0  0  0
  141.9020   78.3870  218.8790 C   0  0  0  0  0  0  0  0  0  0  0  0
  140.4170   78.5070  218.9230 C   0  0  0  0  0  0  0  0  0  0  0  0
  139.8650   78.3540  220.3300 C   0  0  0  0  0  0  0  0  0  0  0  0
  141.0050   77.9290  221.2410 C   0  0  1  0  0  0  0  0  0  0  0  0
  140.6620   77.7950  222.6670 C   0  0  0  0  0  0  0  0  0  0  0  0
  141.8440   78.2640  223.4890 C   0  0  0  0  0  0  0  0  0  0  0  0
  141.7610   79.7760  223.5760 C   0  0  0  0  0  0  0  0  0  0  0  0
  140.4050   80.1570  223.0650 C   0  0  0  0  0  0  0  0  0  0  0  0
  139.6330   78.8610  223.0650 C   0  0  0  0  0  0  0  0  0  0  0  0
  140.1030   71.5220  223.3500 C   0  0  0  0  0  0  0  0  0  0  0  0
  139.4910   70.3070  223.1240 C   0  0  0  0  0  0  0  0  0  0  0  0
  139.3440   69.4710  224.2340 C   0  0  0  0  0  0  0  0  0  0  0  0
  139.7960   69.8610  225.4820 C   0  0  0  0  0  0  0  0  0  0  0  0
  139.6530   69.0300  226.5930 C   0  0  0  0  0  0  0  0  0  0  0  0
  140.1270   69.4920  227.7900 C   0  0  0  0  0  0  0  0  0  0  0  0
  139.9910   68.6910  228.8730 F   0  0  0  0  0  0  0  0  0  0  0  0
  140.7330   70.7120  227.9710 C   0  0  0  0  0  0  0  0  0  0  0  0
  140.8740   71.5280  226.8800 C   0  0  0  0  0  0  0  0  0  0  0  0
  140.4070   71.0950  225.6570 C   0  0  0  0  0  0  0  0  0  0  0  0
  140.5430   71.8910  224.5850 N   0  0  0  0  0  0  0  0  0  0  0  0
  139.5380   74.0860  223.2490 H   0  0  0  0  0  0  0  0  0  0  0  0
  139.8404   74.1458  220.3007 H   0  0  0  0  0  0  0  0  0  0  0  0
  139.3584   75.5327  221.4900 H   0  0  0  0  0  0  0  0  0  0  0  0
  143.4816   77.2278  219.8025 H   0  0  0  0  0  0  0  0  0  0  0  0
  142.4734   76.2888  218.6946 H   0  0  0  0  0  0  0  0  0  0  0  0
  142.3309   79.2216  219.4530 H   0  0  0  0  0  0  0  0  0  0  0  0
  142.1849   78.4041  217.8161 H   0  0  0  0  0  0  0  0  0  0  0  0
  140.1310   79.4965  218.5370 H   0  0  0  0  0  0  0  0  0  0  0  0
  139.9968   77.6975  218.3080 H   0  0  0  0  0  0  0  0  0  0  0  0
  139.4504   79.3130  220.6742 H   0  0  0  0  0  0  0  0  0  0  0  0
  139.0639   77.6003  220.3452 H   0  0  0  0  0  0  0  0  0  0  0  0
  141.7697   78.7130  221.3436 H   0  0  0  0  0  0  0  0  0  0  0  0
  140.3369   76.7560  222.8244 H   0  0  0  0  0  0  0  0  0  0  0  0
  141.7991   77.8259  224.4970 H   0  0  0  0  0  0  0  0  0  0  0  0
  142.7905   77.9520  223.0235 H   0  0  0  0  0  0  0  0  0  0  0  0
  141.8800   80.1038  224.6192 H   0  0  0  0  0  0  0  0  0  0  0  0
  142.5573   80.2530  222.9858 H   0  0  0  0  0  0  0  0  0  0  0  0
  139.9304   80.8940  223.7295 H   0  0  0  0  0  0  0  0  0  0  0  0
  140.4452   80.6239  222.0698 H   0  0  0  0  0  0  0  0  0  0  0  0
  139.2252   78.6523  224.0651 H   0  0  0  0  0  0  0  0  0  0  0  0
  138.7745   78.8879  222.3778 H   0  0  0  0  0  0  0  0  0  0  0  0
  139.1379   70.0122  222.1248 H   0  0  0  0  0  0  0  0  0  0  0  0
  138.8623   68.4894  224.1138 H   0  0  0  0  0  0  0  0  0  0  0  0
  139.1775   68.0416  226.5098 H   0  0  0  0  0  0  0  0  0  0  0  0
  141.0940   71.0238  228.9622 H   0  0  0  0  0  0  0  0  0  0  0  0
  141.3524   72.5136  226.9780 H   0  0  0  0  0  0  0  0  0  0  0  0
  1  2  2  0
  2  3  1  0
  3  4  1  0
  4  5  1  0
  5  6  2  0
  5  7  1  0
  7  8  1  0
  8  9  1  0
  9 10  1  0
 10 11  1  0
 11 12  1  0
 12 13  1  0
 13 14  1  0
 14 15  1  0
 15 16  1  0
 16 17  1  0
  2 18  1  0
 18 19  2  0
 19 20  1  0
 20 21  2  0
 21 22  1  0
 22 23  2  0
 23 24  1  0
 23 25  1  0
 25 26  2  0
 26 27  1  0
 27 28  2  0
 12  7  1  0
 17 13  1  0
 28 18  1  0
 27 21  1  0
  3 29  1  0
  4 30  1  0
  4 31  1  0
  8 32  1  0
  8 33  1  0
  9 34  1  0
  9 35  1  0
 10 36  1  0
 10 37  1  0
 11 38  1  0
 11 39  1  0
 12 40  1  1
 13 41  1  0
 14 42  1  0
 14 43  1  0
 15 44  1  0
 15 45  1  0
 16 46  1  0
 16 47  1  0
 17 48  1  0
 17 49  1  0
 19 50  1  0
 20 51  1  0
 22 52  1  0
 25 53  1  0
 26 54  1  0
M  END
>  <smiles>  (62) 
O=C(NCC(=O)N1CCCCC1C1CCCC1)c1ccc2cc(F)ccc2n1

>  <score_type>  (62) 
oracle

>  <origin>  (62) 
autodockgpu

>  <m_score__min__energy>  (62) 
-9.0899999999999999

>  <m_primary>  (62) 
energy

>  <rmsd>  (62) 
2.3188731608071715

>  <m_score__min__rmsd>  (62) 
2.3188731608071715

>  <meeko>  (62) 
{"free_energy": -8.19, "intermolecular_energy": -9.68, "internal_energy": -1.49, "cluster_size": 40, "cluster_id": 1, "rank_in_cluster": 23}

>  <energy>  (62) 
-8.69

>  <cluster_rmsd>  (62) 
0.64

>  <cluster>  (62) 
1

$$$$

     RDKit          3D

 54 57  0  0  0  0  0  0  0  0999 V2000
  141.1360   71.6550  221.5480 O   0  0  0  0  0  0  0  0  0  0  0  0
  140.3260   71.9570  222.4900 C   0  0  0  0  0  0  0  0  0  0  0  0
  139.5730   73.1890  222.3450 N   0  0  0  0  0  0  0  0  0  0  0  0
  139.7000   74.0440  221.2170 C   0  0  0  0  0  0  0  0  0  0  0  0
  140.9460   74.7270  220.9310 C   0  0  0  0  0  0  0  0  0  0  0  0
  141.4110   75.4120  221.9390 O   0  0  0  0  0  0  0  0  0  0  0  0
  141.7340   74.7890  219.7730 N   0  0  0  0  0  0  0  0  0  0  0  0
  141.1730   75.0060  218.4180 C   0  0  0  0  0  0  0  0  0  0  0  0
  142.2530   75.7440  217.6440 C   0  0  0  0  0  0  0  0  0  0  0  0
  143.0450   76.7120  218.4540 C   0  0  0  0  0  0  0  0  0  0  0  0
  143.7060   76.0560  219.6550 C   0  0  0  0  0  0  0  0  0  0  0  0
  143.1870   74.6320  219.7610 C   0  0  1  0  0  0  0  0  0  0  0  0
  143.7750   73.8200  220.8400 C   0  0  0  0  0  0  0  0  0  0  0  0
  143.7240   72.3650  220.4250 C   0  0  0  0  0  0  0  0  0  0  0  0
  144.9230   72.1080  219.5330 C   0  0  0  0  0  0  0  0  0  0  0  0
  145.8120   73.3080  219.6590 C   0  0  0  0  0  0  0  0  0  0  0  0
  145.2960   74.0220  220.8840 C   0  0  0  0  0  0  0  0  0  0  0  0
  140.1570   71.1110  223.6640 C   0  0  0  0  0  0  0  0  0  0  0  0
  139.5340   69.8930  223.4840 C   0  0  0  0  0  0  0  0  0  0  0  0
  139.3850   69.1000  224.6250 C   0  0  0  0  0  0  0  0  0  0  0  0
  139.8420   69.5320  225.8560 C   0  0  0  0  0  0  0  0  0  0  0  0
  139.6950   68.7450  226.9980 C   0  0  0  0  0  0  0  0  0  0  0  0
  140.1760   69.2470  228.1760 C   0  0  0  0  0  0  0  0  0  0  0  0
  140.0360   68.4880  229.2890 F   0  0  0  0  0  0  0  0  0  0  0  0
  140.7920   70.4690  228.3100 C   0  0  0  0  0  0  0  0  0  0  0  0
  140.9360   71.2420  227.1900 C   0  0  0  0  0  0  0  0  0  0  0  0
  140.4630   70.7680  225.9840 C   0  0  0  0  0  0  0  0  0  0  0  0
  140.6030   71.5220  224.8830 N   0  0  0  0  0  0  0  0  0  0  0  0
  138.9290   73.3780  223.1570 H   0  0  0  0  0  0  0  0  0  0  0  0
  139.4702   73.4308  220.3331 H   0  0  0  0  0  0  0  0  0  0  0  0
  139.0227   74.8739  221.4668 H   0  0  0  0  0  0  0  0  0  0  0  0
  140.9458   74.0430  217.9374 H   0  0  0  0  0  0  0  0  0  0  0  0
  140.2334   75.5770  218.4523 H   0  0  0  0  0  0  0  0  0  0  0  0
  142.9458   74.9987  217.2262 H   0  0  0  0  0  0  0  0  0  0  0  0
  141.7361   76.3330  216.8721 H   0  0  0  0  0  0  0  0  0  0  0  0
  143.8265   77.1505  217.8161 H   0  0  0  0  0  0  0  0  0  0  0  0
  142.3536   77.4808  218.8293 H   0  0  0  0  0  0  0  0  0  0  0  0
  144.7977   76.0458  219.5202 H   0  0  0  0  0  0  0  0  0  0  0  0
  143.4711   76.6162  220.5721 H   0  0  0  0  0  0  0  0  0  0  0  0
  143.5071   74.0086  218.9131 H   0  0  0  0  0  0  0  0  0  0  0  0
  143.2458   74.0838  221.7676 H   0  0  0  0  0  0  0  0  0  0  0  0
  143.7705   71.7183  221.3136 H   0  0  0  0  0  0  0  0  0  0  0  0
  142.7875   72.1449  219.8915 H   0  0  0  0  0  0  0  0  0  0  0  0
  145.4557   71.2041  219.8634 H   0  0  0  0  0  0  0  0  0  0  0  0
  144.6153   71.9487  218.4890 H   0  0  0  0  0  0  0  0  0  0  0  0
  146.8603   73.0045  219.7966 H   0  0  0  0  0  0  0  0  0  0  0  0
  145.7932   73.9432  218.7611 H   0  0  0  0  0  0  0  0  0  0  0  0
  145.7198   73.5803  221.7979 H   0  0  0  0  0  0  0  0  0  0  0  0
  145.5747   75.0861  220.8942 H   0  0  0  0  0  0  0  0  0  0  0  0
  139.1747   69.5646  222.4975 H   0  0  0  0  0  0  0  0  0  0  0  0
  138.8969   68.1177  224.5423 H   0  0  0  0  0  0  0  0  0  0  0  0
  139.2108   67.7583  226.9531 H   0  0  0  0  0  0  0  0  0  0  0  0
  141.1580   70.8148  229.2880 H   0  0  0  0  0  0  0  0  0  0  0  0
  141.4219   72.2270  227.2505 H   0  0  0  0  0  0  0  0  0  0  0  0
  1  2  2  0
  2  3  1  0
  3  4  1  0
  4  5  1  0
  5  6  2  0
  5  7  1  0
  7  8  1  0
  8  9  1  0
  9 10  1  0
 10 11  1  0
 11 12  1  0
 12 13  1  0
 13 14  1  0
 14 15  1  0
 15 16  1  0
 16 17  1  0
  2 18  1  0
 18 19  2  0
 19 20  1  0
 20 21  2  0
 21 22  1  0
 22 23  2  0
 23 24  1  0
 23 25  1  0
 25 26  2  0
 26 27  1  0
 27 28  2  0
 12  7  1  0
 17 13  1  0
 28 18  1  0
 27 21  1  0
  3 29  1  0
  4 30  1  0
  4 31  1  0
  8 32  1  0
  8 33  1  0
  9 34  1  0
  9 35  1  0
 10 36  1  0
 10 37  1  0
 11 38  1  0
 11 39  1  0
 12 40  1  6
 13 41  1  0
 14 42  1  0
 14 43  1  0
 15 44  1  0
 15 45  1  0
 16 46  1  0
 16 47  1  0
 17 48  1  0
 17 49  1  0
 19 50  1  0
 20 51  1  0
 22 52  1  0
 25 53  1  0
 26 54  1  0
M  END
>  <smiles>  (63) 
O=C(NCC(=O)N1CCCCC1C1CCCC1)c1ccc2cc(F)ccc2n1

>  <score_type>  (63) 
oracle

>  <origin>  (63) 
autodockgpu

>  <m_score__min__energy>  (63) 
-9.0899999999999999

>  <m_primary>  (63) 
energy

>  <rmsd>  (63) 
2.0322023122363384

>  <m_score__min__rmsd>  (63) 
2.0322023122363384

>  <meeko>  (63) 
{"free_energy": -8.16, "intermolecular_energy": -9.65, "internal_energy": -1.71, "cluster_size": 40, "cluster_id": 1, "rank_in_cluster": 28}

>  <energy>  (63) 
-8.51

>  <cluster_rmsd>  (63) 
0.72

>  <cluster>  (63) 
1

$$$$

     RDKit          3D

 54 57  0  0  0  0  0  0  0  0999 V2000
  139.5950   71.6260  220.9410 O   0  0  0  0  0  0  0  0  0  0  0  0
  139.5440   72.1360  222.1120 C   0  0  0  0  0  0  0  0  0  0  0  0
  139.2990   73.5640  222.2020 N   0  0  0  0  0  0  0  0  0  0  0  0
  139.1140   74.3890  221.0610 C   0  0  0  0  0  0  0  0  0  0  0  0
  139.6950   75.7150  220.9910 C   0  0  0  0  0  0  0  0  0  0  0  0
  138.8140   76.6760  221.0390 O   0  0  0  0  0  0  0  0  0  0  0  0
  141.0230   76.1490  220.8800 N   0  0  0  0  0  0  0  0  0  0  0  0
  142.1310   75.2710  220.4350 C   0  0  0  0  0  0  0  0  0  0  0  0
  143.1230   76.1870  219.7370 C   0  0  0  0  0  0  0  0  0  0  0  0
  142.5010   77.3050  218.9730 C   0  0  0  0  0  0  0  0  0  0  0  0
  141.6060   78.1730  219.8430 C   0  0  0  0  0  0  0  0  0  0  0  0
  141.4740   77.5030  221.2000 C   0  0  1  0  0  0  0  0  0  0  0  0
  140.6860   78.2440  222.2000 C   0  0  0  0  0  0  0  0  0  0  0  0
  141.4830   78.3060  223.4850 C   0  0  0  0  0  0  0  0  0  0  0  0
  142.4620   79.4560  223.3540 C   0  0  0  0  0  0  0  0  0  0  0  0
  142.0480   80.2300  222.1390 C   0  0  0  0  0  0  0  0  0  0  0  0
  140.6530   79.7370  221.8450 C   0  0  0  0  0  0  0  0  0  0  0  0
  139.7230   71.3310  223.3130 C   0  0  0  0  0  0  0  0  0  0  0  0
  139.3870   69.9940  223.2370 C   0  0  0  0  0  0  0  0  0  0  0  0
  139.5690   69.2440  224.4020 C   0  0  0  0  0  0  0  0  0  0  0  0
  140.0580   69.8280  225.5560 C   0  0  0  0  0  0  0  0  0  0  0  0
  140.2410   69.0830  226.7210 C   0  0  0  0  0  0  0  0  0  0  0  0
  140.7300   69.7390  227.8180 C   0  0  0  0  0  0  0  0  0  0  0  0
  140.9100   69.0220  228.9520 F   0  0  0  0  0  0  0  0  0  0  0  0
  141.0520   71.0750  227.8480 C   0  0  0  0  0  0  0  0  0  0  0  0
  140.8730   71.8060  226.7050 C   0  0  0  0  0  0  0  0  0  0  0  0
  140.3820   71.1780  225.5800 C   0  0  0  0  0  0  0  0  0  0  0  0
  140.2050   71.8910  224.4570 N   0  0  0  0  0  0  0  0  0  0  0  0
  139.2730   73.9170  223.1940 H   0  0  0  0  0  0  0  0  0  0  0  0
  139.5128   73.8282  220.2028 H   0  0  0  0  0  0  0  0  0  0  0  0
  138.0351   74.6014  221.0912 H   0  0  0  0  0  0  0  0  0  0  0  0
  142.6033   74.7808  221.2991 H   0  0  0  0  0  0  0  0  0  0  0  0
  141.7748   74.4726  219.7674 H   0  0  0  0  0  0  0  0  0  0  0  0
  143.7865   76.6199  220.5002 H   0  0  0  0  0  0  0  0  0  0  0  0
  143.6582   75.5667  219.0030 H   0  0  0  0  0  0  0  0  0  0  0  0
  143.3001   77.9325  218.5514 H   0  0  0  0  0  0  0  0  0  0  0  0
  141.8756   76.8644  218.1826 H   0  0  0  0  0  0  0  0  0  0  0  0
  142.0550   79.1702  219.9616 H   0  0  0  0  0  0  0  0  0  0  0  0
  140.6164   78.2877  219.3766 H   0  0  0  0  0  0  0  0  0  0  0  0
  142.4283   77.4799  221.7466 H   0  0  0  0  0  0  0  0  0  0  0  0
  139.6999   77.7599  222.2578 H   0  0  0  0  0  0  0  0  0  0  0  0
  140.8098   78.4801  224.3373 H   0  0  0  0  0  0  0  0  0  0  0  0
  142.0156   77.3593  223.6586 H   0  0  0  0  0  0  0  0  0  0  0  0
  142.4170   80.0971  224.2467 H   0  0  0  0  0  0  0  0  0  0  0  0
  143.4953   79.0905  223.2602 H   0  0  0  0  0  0  0  0  0  0  0  0
  142.0445   81.3102  222.3468 H   0  0  0  0  0  0  0  0  0  0  0  0
  142.7342   80.0839  221.2918 H   0  0  0  0  0  0  0  0  0  0  0  0
  139.9152   80.2672  222.4651 H   0  0  0  0  0  0  0  0  0  0  0  0
  140.3617   79.9102  220.7985 H   0  0  0  0  0  0  0  0  0  0  0  0
  138.9979   69.5445  222.3115 H   0  0  0  0  0  0  0  0  0  0  0  0
  139.3194   68.1727  224.4010 H   0  0  0  0  0  0  0  0  0  0  0  0
  140.0016   68.0100  226.7566 H   0  0  0  0  0  0  0  0  0  0  0  0
  141.4421   71.5428  228.7639 H   0  0  0  0  0  0  0  0  0  0  0  0
  141.1171   72.8784  226.6841 H   0  0  0  0  0  0  0  0  0  0  0  0
  1  2  2  0
  2  3  1  0
  3  4  1  0
  4  5  1  0
  5  6  2  0
  5  7  1  0
  7  8  1  0
  8  9  1  0
  9 10  1  0
 10 11  1  0
 11 12  1  0
 12 13  1  0
 13 14  1  0
 14 15  1  0
 15 16  1  0
 16 17  1  0
  2 18  1  0
 18 19  2  0
 19 20  1  0
 20 21  2  0
 21 22  1  0
 22 23  2  0
 23 24  1  0
 23 25  1  0
 25 26  2  0
 26 27  1  0
 27 28  2  0
 12  7  1  0
 17 13  1  0
 28 18  1  0
 27 21  1  0
  3 29  1  0
  4 30  1  0
  4 31  1  0
  8 32  1  0
  8 33  1  0
  9 34  1  0
  9 35  1  0
 10 36  1  0
 10 37  1  0
 11 38  1  0
 11 39  1  0
 12 40  1  1
 13 41  1  0
 14 42  1  0
 14 43  1  0
 15 44  1  0
 15 45  1  0
 16 46  1  0
 16 47  1  0
 17 48  1  0
 17 49  1  0
 19 50  1  0
 20 51  1  0
 22 52  1  0
 25 53  1  0
 26 54  1  0
M  END
>  <smiles>  (64) 
O=C(NCC(=O)N1CCCCC1C1CCCC1)c1ccc2cc(F)ccc2n1

>  <score_type>  (64) 
oracle

>  <origin>  (64) 
autodockgpu

>  <m_score__min__energy>  (64) 
-9.0899999999999999

>  <m_primary>  (64) 
energy

>  <rmsd>  (64) 
1.9860278820952275

>  <m_score__min__rmsd>  (64) 
1.9860278820952275

>  <meeko>  (64) 
{"free_energy": -8.31, "intermolecular_energy": -9.8, "internal_energy": -1.4, "cluster_size": 40, "cluster_id": 1, "rank_in_cluster": 17}

>  <energy>  (64) 
-8.47

>  <cluster_rmsd>  (64) 
0.65

>  <cluster>  (64) 
1

$$$$

     RDKit          3D

 54 57  0  0  0  0  0  0  0  0999 V2000
  141.1110   73.9040  220.3790 O   0  0  0  0  0  0  0  0  0  0  0  0
  140.6270   74.6950  221.2580 C   0  0  0  0  0  0  0  0  0  0  0  0
  139.6350   74.1490  222.1660 N   0  0  0  0  0  0  0  0  0  0  0  0
  139.2010   72.7980  222.1130 C   0  0  0  0  0  0  0  0  0  0  0  0
  139.6160   71.8360  223.1150 C   0  0  0  0  0  0  0  0  0  0  0  0
  140.9010   71.6150  223.1280 O   0  0  0  0  0  0  0  0  0  0  0  0
  138.8900   71.1030  224.0640 N   0  0  0  0  0  0  0  0  0  0  0  0
  137.4090   71.0620  224.1020 C   0  0  0  0  0  0  0  0  0  0  0  0
  137.0530   69.6940  224.6620 C   0  0  0  0  0  0  0  0  0  0  0  0
  137.9710   68.5970  224.2470 C   0  0  0  0  0  0  0  0  0  0  0  0
  139.4180   68.8830  224.6150 C   0  0  0  0  0  0  0  0  0  0  0  0
  139.5010   70.3100  225.1300 C   0  0  1  0  0  0  0  0  0  0  0  0
  140.8300   70.7400  225.5970 C   0  0  0  0  0  0  0  0  0  0  0  0
  140.6440   71.8390  226.6210 C   0  0  0  0  0  0  0  0  0  0  0  0
  140.3550   71.1710  227.9510 C   0  0  0  0  0  0  0  0  0  0  0  0
  140.6530   69.7140  227.7700 C   0  0  0  0  0  0  0  0  0  0  0  0
  141.4510   69.6580  226.4910 C   0  0  0  0  0  0  0  0  0  0  0  0
  141.0440   76.0880  221.3560 C   0  0  0  0  0  0  0  0  0  0  0  0
  141.7750   76.6070  220.3080 C   0  0  0  0  0  0  0  0  0  0  0  0
  142.1630   77.9450  220.4260 C   0  0  0  0  0  0  0  0  0  0  0  0
  141.8210   78.6880  221.5400 C   0  0  0  0  0  0  0  0  0  0  0  0
  142.2050   80.0230  221.6620 C   0  0  0  0  0  0  0  0  0  0  0  0
  141.8260   80.6870  222.7970 C   0  0  0  0  0  0  0  0  0  0  0  0
  142.1950   81.9840  222.9220 F   0  0  0  0  0  0  0  0  0  0  0  0
  141.0950   80.1300  223.8190 C   0  0  0  0  0  0  0  0  0  0  0  0
  140.7170   78.8190  223.6990 C   0  0  0  0  0  0  0  0  0  0  0  0
  141.0830   78.1190  222.5680 C   0  0  0  0  0  0  0  0  0  0  0  0
  140.7150   76.8340  222.4470 N   0  0  0  0  0  0  0  0  0  0  0  0
  139.2780   74.8550  222.8610 H   0  0  0  0  0  0  0  0  0  0  0  0
  138.1016   72.8224  222.1407 H   0  0  0  0  0  0  0  0  0  0  0  0
  139.6930   72.4237  221.2031 H   0  0  0  0  0  0  0  0  0  0  0  0
  137.0193   71.8574  224.7543 H   0  0  0  0  0  0  0  0  0  0  0  0
  136.9713   71.2207  223.1054 H   0  0  0  0  0  0  0  0  0  0  0  0
  137.0688   69.7579  225.7600 H   0  0  0  0  0  0  0  0  0  0  0  0
  136.0613   69.4403  224.2592 H   0  0  0  0  0  0  0  0  0  0  0  0
  137.6573   67.6669  224.7434 H   0  0  0  0  0  0  0  0  0  0  0  0
  137.9143   68.5079  223.1521 H   0  0  0  0  0  0  0  0  0  0  0  0
  139.7487   68.1844  225.3976 H   0  0  0  0  0  0  0  0  0  0  0  0
  140.0669   68.7569  223.7358 H   0  0  0  0  0  0  0  0  0  0  0  0
  138.9584   70.4425  226.0777 H   0  0  0  0  0  0  0  0  0  0  0  0
  141.4185   70.9968  224.7038 H   0  0  0  0  0  0  0  0  0  0  0  0
  141.5597   72.4440  226.6946 H   0  0  0  0  0  0  0  0  0  0  0  0
  139.8178   72.5052  226.3319 H   0  0  0  0  0  0  0  0  0  0  0  0
  140.9974   71.5953  228.7367 H   0  0  0  0  0  0  0  0  0  0  0  0
  139.3098   71.3280  228.2557 H   0  0  0  0  0  0  0  0  0  0  0  0
  141.2420   69.3279  228.6150 H   0  0  0  0  0  0  0  0  0  0  0  0
  139.7421   69.0989  227.7267 H   0  0  0  0  0  0  0  0  0  0  0  0
  142.5113   69.8769  226.6854 H   0  0  0  0  0  0  0  0  0  0  0  0
  141.4189   68.6628  226.0235 H   0  0  0  0  0  0  0  0  0  0  0  0
  142.0382   76.0018  219.4280 H   0  0  0  0  0  0  0  0  0  0  0  0
  142.7486   78.4129  219.6209 H   0  0  0  0  0  0  0  0  0  0  0  0
  142.7901   80.5231  220.8761 H   0  0  0  0  0  0  0  0  0  0  0  0
  140.8217   80.7194  224.7067 H   0  0  0  0  0  0  0  0  0  0  0  0
  140.1307   78.3319  224.4921 H   0  0  0  0  0  0  0  0  0  0  0  0
  1  2  2  0
  2  3  1  0
  3  4  1  0
  4  5  1  0
  5  6  2  0
  5  7  1  0
  7  8  1  0
  8  9  1  0
  9 10  1  0
 10 11  1  0
 11 12  1  0
 12 13  1  0
 13 14  1  0
 14 15  1  0
 15 16  1  0
 16 17  1  0
  2 18  1  0
 18 19  2  0
 19 20  1  0
 20 21  2  0
 21 22  1  0
 22 23  2  0
 23 24  1  0
 23 25  1  0
 25 26  2  0
 26 27  1  0
 27 28  2  0
 12  7  1  0
 17 13  1  0
 28 18  1  0
 27 21  1  0
  3 29  1  0
  4 30  1  0
  4 31  1  0
  8 32  1  0
  8 33  1  0
  9 34  1  0
  9 35  1  0
 10 36  1  0
 10 37  1  0
 11 38  1  0
 11 39  1  0
 12 40  1  1
 13 41  1  0
 14 42  1  0
 14 43  1  0
 15 44  1  0
 15 45  1  0
 16 46  1  0
 16 47  1  0
 17 48  1  0
 17 49  1  0
 19 50  1  0
 20 51  1  0
 22 52  1  0
 25 53  1  0
 26 54  1  0
M  END
>  <smiles>  (65) 
O=C(NCC(=O)N1CCCCC1C1CCCC1)c1ccc2cc(F)ccc2n1

>  <score_type>  (65) 
oracle

>  <origin>  (65) 
autodockgpu

>  <m_score__min__energy>  (65) 
-9.0899999999999999

>  <m_primary>  (65) 
energy

>  <rmsd>  (65) 
8.74761372850691

>  <m_score__min__rmsd>  (65) 
8.74761372850691

>  <meeko>  (65) 
{"free_energy": -8.28, "intermolecular_energy": -9.77, "internal_energy": -1.43, "cluster_size": 3, "cluster_id": 2, "rank_in_cluster": 2}

>  <energy>  (65) 
-8.37

>  <cluster_rmsd>  (65) 
0.78

>  <cluster>  (65) 
1

$$$$

     RDKit          3D

 54 57  0  0  0  0  0  0  0  0999 V2000
  139.2550   71.4800  220.7850 O   0  0  0  0  0  0  0  0  0  0  0  0
  139.2110   72.0090  221.9480 C   0  0  0  0  0  0  0  0  0  0  0  0
  138.8670   73.4180  222.0210 N   0  0  0  0  0  0  0  0  0  0  0  0
  138.5810   74.2030  220.8730 C   0  0  0  0  0  0  0  0  0  0  0  0
  139.5930   75.0460  220.2690 C   0  0  0  0  0  0  0  0  0  0  0  0
  139.1840   75.6720  219.2000 O   0  0  0  0  0  0  0  0  0  0  0  0
  140.9260   75.3050  220.6200 N   0  0  0  0  0  0  0  0  0  0  0  0
  141.9240   74.2380  220.8660 C   0  0  0  0  0  0  0  0  0  0  0  0
  143.2630   74.8310  220.4560 C   0  0  0  0  0  0  0  0  0  0  0  0
  143.2010   75.7510  219.2850 C   0  0  0  0  0  0  0  0  0  0  0  0
  142.2350   76.9040  219.5060 C   0  0  0  0  0  0  0  0  0  0  0  0
  141.4800   76.6460  220.7990 C   0  0  1  0  0  0  0  0  0  0  0  0
  140.5390   77.7040  221.2070 C   0  0  0  0  0  0  0  0  0  0  0  0
  140.3280   77.6050  222.7020 C   0  0  0  0  0  0  0  0  0  0  0  0
  141.4810   78.3270  223.3700 C   0  0  0  0  0  0  0  0  0  0  0  0
  142.1950   79.0800  222.2880 C   0  0  0  0  0  0  0  0  0  0  0  0
  141.2230   79.0750  221.1340 C   0  0  0  0  0  0  0  0  0  0  0  0
  139.4920   71.2450  223.1560 C   0  0  0  0  0  0  0  0  0  0  0  0
  139.2200   69.8920  223.1290 C   0  0  0  0  0  0  0  0  0  0  0  0
  139.4980   69.1810  224.2990 C   0  0  0  0  0  0  0  0  0  0  0  0
  140.0180   69.8180  225.4110 C   0  0  0  0  0  0  0  0  0  0  0  0
  140.2980   69.1120  226.5810 C   0  0  0  0  0  0  0  0  0  0  0  0
  140.8110   69.8190  227.6350 C   0  0  0  0  0  0  0  0  0  0  0  0
  141.0850   69.1400  228.7750 F   0  0  0  0  0  0  0  0  0  0  0  0
  141.0680   71.1690  227.6180 C   0  0  0  0  0  0  0  0  0  0  0  0
  140.7940   71.8610  226.4700 C   0  0  0  0  0  0  0  0  0  0  0  0
  140.2750   71.1820  225.3870 C   0  0  0  0  0  0  0  0  0  0  0  0
  140.0050   71.8560  224.2590 N   0  0  0  0  0  0  0  0  0  0  0  0
  138.8530   73.7890  223.0070 H   0  0  0  0  0  0  0  0  0  0  0  0
  138.2509   73.5032  220.0911 H   0  0  0  0  0  0  0  0  0  0  0  0
  137.8570   74.9361  221.2582 H   0  0  0  0  0  0  0  0  0  0  0  0
  141.9361   73.9611  221.9305 H   0  0  0  0  0  0  0  0  0  0  0  0
  141.6920   73.3241  220.2995 H   0  0  0  0  0  0  0  0  0  0  0  0
  143.6666   75.3917  221.3120 H   0  0  0  0  0  0  0  0  0  0  0  0
  143.8996   73.9858  220.1554 H   0  0  0  0  0  0  0  0  0  0  0  0
  144.2055   76.1611  219.1041 H   0  0  0  0  0  0  0  0  0  0  0  0
  142.8413   75.1721  218.4216 H   0  0  0  0  0  0  0  0  0  0  0  0
  142.7933   77.8487  219.5824 H   0  0  0  0  0  0  0  0  0  0  0  0
  141.5324   76.9794  218.6630 H   0  0  0  0  0  0  0  0  0  0  0  0
  142.1382   76.6833  221.6796 H   0  0  0  0  0  0  0  0  0  0  0  0
  139.6428   77.5993  220.5778 H   0  0  0  0  0  0  0  0  0  0  0  0
  139.3754   78.0797  222.9797 H   0  0  0  0  0  0  0  0  0  0  0  0
  140.2910   76.5528  223.0207 H   0  0  0  0  0  0  0  0  0  0  0  0
  141.1026   79.0241  224.1321 H   0  0  0  0  0  0  0  0  0  0  0  0
  142.1555   77.6191  223.8740 H   0  0  0  0  0  0  0  0  0  0  0  0
  142.4156   80.1089  222.6084 H   0  0  0  0  0  0  0  0  0  0  0  0
  143.1631   78.6277  222.0268 H   0  0  0  0  0  0  0  0  0  0  0  0
  140.4850   79.8831  221.2449 H   0  0  0  0  0  0  0  0  0  0  0  0
  141.7229   79.2398  220.1681 H   0  0  0  0  0  0  0  0  0  0  0  0
  138.8071   69.4007  222.2356 H   0  0  0  0  0  0  0  0  0  0  0  0
  139.3006   68.0995  224.3363 H   0  0  0  0  0  0  0  0  0  0  0  0
  140.1139   68.0300  226.6538 H   0  0  0  0  0  0  0  0  0  0  0  0
  141.4816   71.6780  228.5011 H   0  0  0  0  0  0  0  0  0  0  0  0
  140.9847   72.9428  226.4114 H   0  0  0  0  0  0  0  0  0  0  0  0
  1  2  2  0
  2  3  1  0
  3  4  1  0
  4  5  1  0
  5  6  2  0
  5  7  1  0
  7  8  1  0
  8  9  1  0
  9 10  1  0
 10 11  1  0
 11 12  1  0
 12 13  1  0
 13 14  1  0
 14 15  1  0
 15 16  1  0
 16 17  1  0
  2 18  1  0
 18 19  2  0
 19 20  1  0
 20 21  2  0
 21 22  1  0
 22 23  2  0
 23 24  1  0
 23 25  1  0
 25 26  2  0
 26 27  1  0
 27 28  2  0
 12  7  1  0
 17 13  1  0
 28 18  1  0
 27 21  1  0
  3 29  1  0
  4 30  1  0
  4 31  1  0
  8 32  1  0
  8 33  1  0
  9 34  1  0
  9 35  1  0
 10 36  1  0
 10 37  1  0
 11 38  1  0
 11 39  1  0
 12 40  1  1
 13 41  1  0
 14 42  1  0
 14 43  1  0
 15 44  1  0
 15 45  1  0
 16 46  1  0
 16 47  1  0
 17 48  1  0
 17 49  1  0
 19 50  1  0
 20 51  1  0
 22 52  1  0
 25 53  1  0
 26 54  1  0
M  END
>  <smiles>  (66) 
O=C(NCC(=O)N1CCCCC1C1CCCC1)c1ccc2cc(F)ccc2n1

>  <score_type>  (66) 
oracle

>  <origin>  (66) 
autodockgpu

>  <m_score__min__energy>  (66) 
-9.0899999999999999

>  <m_primary>  (66) 
energy

>  <rmsd>  (66) 
2.0067770677591628

>  <m_score__min__rmsd>  (66) 
2.0067770677591628

>  <meeko>  (66) 
{"free_energy": -7.59, "intermolecular_energy": -9.08, "internal_energy": -1.82, "cluster_size": 40, "cluster_id": 1, "rank_in_cluster": 40}

>  <energy>  (66) 
-8.36

>  <cluster_rmsd>  (66) 
0.8

>  <cluster>  (66) 
1

$$$$

     RDKit          3D

 54 57  0  0  0  0  0  0  0  0999 V2000
  141.2440   72.0850  221.3870 O   0  0  0  0  0  0  0  0  0  0  0  0
  140.5270   72.4530  222.3790 C   0  0  0  0  0  0  0  0  0  0  0  0
  139.9680   73.7920  222.3310 N   0  0  0  0  0  0  0  0  0  0  0  0
  140.1820   74.6800  221.2430 C   0  0  0  0  0  0  0  0  0  0  0  0
  140.1550   76.1170  221.4320 C   0  0  0  0  0  0  0  0  0  0  0  0
  139.1450   76.5320  222.1460 O   0  0  0  0  0  0  0  0  0  0  0  0
  141.0090   77.1350  220.9850 N   0  0  0  0  0  0  0  0  0  0  0  0
  142.0070   76.9440  219.9070 C   0  0  0  0  0  0  0  0  0  0  0  0
  142.1380   78.2980  219.2270 C   0  0  0  0  0  0  0  0  0  0  0  0
  140.8700   79.0770  219.1500 C   0  0  0  0  0  0  0  0  0  0  0  0
  140.2470   79.3060  220.5180 C   0  0  0  0  0  0  0  0  0  0  0  0
  141.0280   78.4890  221.5340 C   0  0  1  0  0  0  0  0  0  0  0  0
  140.5990   78.6420  222.9350 C   0  0  0  0  0  0  0  0  0  0  0  0
  141.8340   78.6880  223.8110 C   0  0  0  0  0  0  0  0  0  0  0  0
  142.3570   80.1100  223.7790 C   0  0  0  0  0  0  0  0  0  0  0  0
  141.2880   80.9420  223.1370 C   0  0  0  0  0  0  0  0  0  0  0  0
  140.0640   80.0610  223.1720 C   0  0  0  0  0  0  0  0  0  0  0  0
  140.2740   71.5770  223.5150 C   0  0  0  0  0  0  0  0  0  0  0  0
  139.5870   70.4050  223.2720 C   0  0  0  0  0  0  0  0  0  0  0  0
  139.3570   69.5820  224.3790 C   0  0  0  0  0  0  0  0  0  0  0  0
  139.8020   69.9420  225.6370 C   0  0  0  0  0  0  0  0  0  0  0  0
  139.5750   69.1240  226.7440 C   0  0  0  0  0  0  0  0  0  0  0  0
  140.0480   69.5550  227.9530 C   0  0  0  0  0  0  0  0  0  0  0  0
  139.8320   68.7660  229.0320 F   0  0  0  0  0  0  0  0  0  0  0  0
  140.7290   70.7330  228.1500 C   0  0  0  0  0  0  0  0  0  0  0  0
  140.9520   71.5360  227.0640 C   0  0  0  0  0  0  0  0  0  0  0  0
  140.4890   71.1330  225.8280 C   0  0  0  0  0  0  0  0  0  0  0  0
  140.7050   71.9170  224.7610 N   0  0  0  0  0  0  0  0  0  0  0  0
  139.3910   74.0290  223.1800 H   0  0  0  0  0  0  0  0  0  0  0  0
  141.1735   74.4377  220.8328 H   0  0  0  0  0  0  0  0  0  0  0  0
  139.2987   74.5039  220.6115 H   0  0  0  0  0  0  0  0  0  0  0  0
  142.9734   76.6312  220.3293 H   0  0  0  0  0  0  0  0  0  0  0  0
  141.6970   76.1611  219.1992 H   0  0  0  0  0  0  0  0  0  0  0  0
  142.8736   78.8939  219.7872 H   0  0  0  0  0  0  0  0  0  0  0  0
  142.4456   78.0984  218.1899 H   0  0  0  0  0  0  0  0  0  0  0  0
  141.0826   80.0536  218.6906 H   0  0  0  0  0  0  0  0  0  0  0  0
  140.1552   78.4961  218.5487 H   0  0  0  0  0  0  0  0  0  0  0  0
  140.2997   80.3735  220.7779 H   0  0  0  0  0  0  0  0  0  0  0  0
  139.1907   78.9991  220.5124 H   0  0  0  0  0  0  0  0  0  0  0  0
  142.0607   78.8490  221.6517 H   0  0  0  0  0  0  0  0  0  0  0  0
  139.8805   77.8352  223.1420 H   0  0  0  0  0  0  0  0  0  0  0  0
  141.5748   78.4054  224.8420 H   0  0  0  0  0  0  0  0  0  0  0  0
  142.5967   77.9844  223.4459 H   0  0  0  0  0  0  0  0  0  0  0  0
  142.5531   80.4659  224.8012 H   0  0  0  0  0  0  0  0  0  0  0  0
  143.3014   80.1741  223.2187 H   0  0  0  0  0  0  0  0  0  0  0  0
  141.1190   81.8677  223.7066 H   0  0  0  0  0  0  0  0  0  0  0  0
  141.5532   81.2552  222.1164 H   0  0  0  0  0  0  0  0  0  0  0  0
  139.5647   80.1291  224.1498 H   0  0  0  0  0  0  0  0  0  0  0  0
  139.3173   80.3555  222.4198 H   0  0  0  0  0  0  0  0  0  0  0  0
  139.2398   70.1334  222.2642 H   0  0  0  0  0  0  0  0  0  0  0  0
  138.8141   68.6345  224.2466 H   0  0  0  0  0  0  0  0  0  0  0  0
  139.0366   68.1696  226.6484 H   0  0  0  0  0  0  0  0  0  0  0  0
  141.0840   71.0216  229.1503 H   0  0  0  0  0  0  0  0  0  0  0  0
  141.4920   72.4879  227.1748 H   0  0  0  0  0  0  0  0  0  0  0  0
  1  2  2  0
  2  3  1  0
  3  4  1  0
  4  5  1  0
  5  6  2  0
  5  7  1  0
  7  8  1  0
  8  9  1  0
  9 10  1  0
 10 11  1  0
 11 12  1  0
 12 13  1  0
 13 14  1  0
 14 15  1  0
 15 16  1  0
 16 17  1  0
  2 18  1  0
 18 19  2  0
 19 20  1  0
 20 21  2  0
 21 22  1  0
 22 23  2  0
 23 24  1  0
 23 25  1  0
 25 26  2  0
 26 27  1  0
 27 28  2  0
 12  7  1  0
 17 13  1  0
 28 18  1  0
 27 21  1  0
  3 29  1  0
  4 30  1  0
  4 31  1  0
  8 32  1  0
  8 33  1  0
  9 34  1  0
  9 35  1  0
 10 36  1  0
 10 37  1  0
 11 38  1  0
 11 39  1  0
 12 40  1  1
 13 41  1  0
 14 42  1  0
 14 43  1  0
 15 44  1  0
 15 45  1  0
 16 46  1  0
 16 47  1  0
 17 48  1  0
 17 49  1  0
 19 50  1  0
 20 51  1  0
 22 52  1  0
 25 53  1  0
 26 54  1  0
M  END
>  <smiles>  (67) 
O=C(NCC(=O)N1CCCCC1C1CCCC1)c1ccc2cc(F)ccc2n1

>  <score_type>  (67) 
oracle

>  <origin>  (67) 
autodockgpu

>  <m_score__min__energy>  (67) 
-9.0899999999999999

>  <m_primary>  (67) 
energy

>  <rmsd>  (67) 
2.4527074646239333

>  <m_score__min__rmsd>  (67) 
2.4527074646239333

>  <meeko>  (67) 
{"free_energy": -8.78, "intermolecular_energy": -10.27, "internal_energy": -1.3, "cluster_size": 40, "cluster_id": 1, "rank_in_cluster": 9}

>  <energy>  (67) 
-8.31

>  <cluster_rmsd>  (67) 
0.72

>  <cluster>  (67) 
1

$$$$

     RDKit          3D

 54 57  0  0  0  0  0  0  0  0999 V2000
  139.8420   71.7820  221.0130 O   0  0  0  0  0  0  0  0  0  0  0  0
  139.7700   72.2540  222.1990 C   0  0  0  0  0  0  0  0  0  0  0  0
  139.5780   73.6870  222.3310 N   0  0  0  0  0  0  0  0  0  0  0  0
  139.4650   74.5570  221.2140 C   0  0  0  0  0  0  0  0  0  0  0  0
  140.5500   74.7040  220.2650 C   0  0  0  0  0  0  0  0  0  0  0  0
  140.5070   73.8450  219.2830 O   0  0  0  0  0  0  0  0  0  0  0  0
  141.6330   75.5930  220.2120 N   0  0  0  0  0  0  0  0  0  0  0  0
  143.0310   75.1590  219.9780 C   0  0  0  0  0  0  0  0  0  0  0  0
  143.7010   76.3170  219.2560 C   0  0  0  0  0  0  0  0  0  0  0  0
  142.8170   77.0510  218.3070 C   0  0  0  0  0  0  0  0  0  0  0  0
  141.5660   77.5910  218.9820 C   0  0  0  0  0  0  0  0  0  0  0  0
  141.5170   77.0390  220.3960 C   0  0  1  0  0  0  0  0  0  0  0  0
  140.3950   77.5130  221.2240 C   0  0  0  0  0  0  0  0  0  0  0  0
  140.7970   77.4100  222.6800 C   0  0  0  0  0  0  0  0  0  0  0  0
  141.6100   78.6450  223.0120 C   0  0  0  0  0  0  0  0  0  0  0  0
  141.4400   79.5890  221.8600 C   0  0  0  0  0  0  0  0  0  0  0  0
  140.2570   79.0370  221.1040 C   0  0  0  0  0  0  0  0  0  0  0  0
  139.8750   71.4020  223.3760 C   0  0  0  0  0  0  0  0  0  0  0  0
  139.4630   70.0910  223.2500 C   0  0  0  0  0  0  0  0  0  0  0  0
  139.5740   69.2940  224.3930 C   0  0  0  0  0  0  0  0  0  0  0  0
  140.0730   69.8110  225.5740 C   0  0  0  0  0  0  0  0  0  0  0  0
  140.1870   69.0200  226.7170 C   0  0  0  0  0  0  0  0  0  0  0  0
  140.6900   69.6100  227.8440 C   0  0  0  0  0  0  0  0  0  0  0  0
  140.8030   68.8480  228.9570 F   0  0  0  0  0  0  0  0  0  0  0  0
  141.0910   70.9220  227.9250 C   0  0  0  0  0  0  0  0  0  0  0  0
  140.9800   71.6990  226.8030 C   0  0  0  0  0  0  0  0  0  0  0  0
  140.4760   71.1380  225.6480 C   0  0  0  0  0  0  0  0  0  0  0  0
  140.3650   71.8950  224.5460 N   0  0  0  0  0  0  0  0  0  0  0  0
  139.5310   74.0060  223.3340 H   0  0  0  0  0  0  0  0  0  0  0  0
  138.5920   74.2146  220.6390 H   0  0  0  0  0  0  0  0  0  0  0  0
  139.4231   75.5496  221.6862 H   0  0  0  0  0  0  0  0  0  0  0  0
  143.5363   74.9583  220.9342 H   0  0  0  0  0  0  0  0  0  0  0  0
  143.0768   74.2305  219.3900 H   0  0  0  0  0  0  0  0  0  0  0  0
  144.0606   77.0307  220.0119 H   0  0  0  0  0  0  0  0  0  0  0  0
  144.5119   75.8816  218.6536 H   0  0  0  0  0  0  0  0  0  0  0  0
  143.3798   77.8939  217.8795 H   0  0  0  0  0  0  0  0  0  0  0  0
  142.4992   76.3428  217.5276 H   0  0  0  0  0  0  0  0  0  0  0  0
  141.6033   78.6900  219.0119 H   0  0  0  0  0  0  0  0  0  0  0  0
  140.6693   77.2859  218.4226 H   0  0  0  0  0  0  0  0  0  0  0  0
  142.3376   77.4221  221.0203 H   0  0  0  0  0  0  0  0  0  0  0  0
  139.5061   76.9412  220.9193 H   0  0  0  0  0  0  0  0  0  0  0  0
  139.9004   77.3675  223.3159 H   0  0  0  0  0  0  0  0  0  0  0  0
  141.3850   76.4975  222.8578 H   0  0  0  0  0  0  0  0  0  0  0  0
  141.2390   79.1062  223.9392 H   0  0  0  0  0  0  0  0  0  0  0  0
  142.6696   78.3937  223.1673 H   0  0  0  0  0  0  0  0  0  0  0  0
  141.2337   80.6086  222.2177 H   0  0  0  0  0  0  0  0  0  0  0  0
  142.3433   79.6614  221.2364 H   0  0  0  0  0  0  0  0  0  0  0  0
  139.3141   79.3780  221.5564 H   0  0  0  0  0  0  0  0  0  0  0  0
  140.2391   79.3722  220.0565 H   0  0  0  0  0  0  0  0  0  0  0  0
  139.0690   69.6950  222.3024 H   0  0  0  0  0  0  0  0  0  0  0  0
  139.2599   68.2406  224.3521 H   0  0  0  0  0  0  0  0  0  0  0  0
  139.8841   67.9625  226.7124 H   0  0  0  0  0  0  0  0  0  0  0  0
  141.4893   71.3356  228.8632 H   0  0  0  0  0  0  0  0  0  0  0  0
  141.2881   72.7548  226.8224 H   0  0  0  0  0  0  0  0  0  0  0  0
  1  2  2  0
  2  3  1  0
  3  4  1  0
  4  5  1  0
  5  6  2  0
  5  7  1  0
  7  8  1  0
  8  9  1  0
  9 10  1  0
 10 11  1  0
 11 12  1  0
 12 13  1  0
 13 14  1  0
 14 15  1  0
 15 16  1  0
 16 17  1  0
  2 18  1  0
 18 19  2  0
 19 20  1  0
 20 21  2  0
 21 22  1  0
 22 23  2  0
 23 24  1  0
 23 25  1  0
 25 26  2  0
 26 27  1  0
 27 28  2  0
 12  7  1  0
 17 13  1  0
 28 18  1  0
 27 21  1  0
  3 29  1  0
  4 30  1  0
  4 31  1  0
  8 32  1  0
  8 33  1  0
  9 34  1  0
  9 35  1  0
 10 36  1  0
 10 37  1  0
 11 38  1  0
 11 39  1  0
 12 40  1  1
 13 41  1  0
 14 42  1  0
 14 43  1  0
 15 44  1  0
 15 45  1  0
 16 46  1  0
 16 47  1  0
 17 48  1  0
 17 49  1  0
 19 50  1  0
 20 51  1  0
 22 52  1  0
 25 53  1  0
 26 54  1  0
M  END
>  <smiles>  (68) 
O=C(NCC(=O)N1CCCCC1C1CCCC1)c1ccc2cc(F)ccc2n1

>  <score_type>  (68) 
oracle

>  <origin>  (68) 
autodockgpu

>  <m_score__min__energy>  (68) 
-9.0899999999999999

>  <m_primary>  (68) 
energy

>  <rmsd>  (68) 
2.0747379121046094

>  <m_score__min__rmsd>  (68) 
2.0747379121046094

>  <meeko>  (68) 
{"free_energy": -7.75, "intermolecular_energy": -9.24, "internal_energy": -1.59, "cluster_size": 40, "cluster_id": 1, "rank_in_cluster": 37}

>  <energy>  (68) 
-8.24

>  <cluster_rmsd>  (68) 
1.88

>  <cluster>  (68) 
1

$$$$

     RDKit          3D

 54 57  0  0  0  0  0  0  0  0999 V2000
  138.8340   70.8870  221.5670 O   0  0  0  0  0  0  0  0  0  0  0  0
  139.4820   71.2990  222.5890 C   0  0  0  0  0  0  0  0  0  0  0  0
  140.0980   72.6100  222.4980 N   0  0  0  0  0  0  0  0  0  0  0  0
  140.0020   73.4300  221.3430 C   0  0  0  0  0  0  0  0  0  0  0  0
  141.0440   74.3800  221.0080 C   0  0  0  0  0  0  0  0  0  0  0  0
  141.3100   75.2250  221.9670 O   0  0  0  0  0  0  0  0  0  0  0  0
  141.8100   74.5580  219.8480 N   0  0  0  0  0  0  0  0  0  0  0  0
  141.2180   74.8150  218.5140 C   0  0  0  0  0  0  0  0  0  0  0  0
  142.2380   75.6640  217.7720 C   0  0  0  0  0  0  0  0  0  0  0  0
  142.9780   76.6330  218.6290 C   0  0  0  0  0  0  0  0  0  0  0  0
  143.6960   75.9540  219.7830 C   0  0  0  0  0  0  0  0  0  0  0  0
  143.2700   74.4960  219.8120 C   0  0  1  0  0  0  0  0  0  0  0  0
  143.9240   73.6640  220.8370 C   0  0  0  0  0  0  0  0  0  0  0  0
  143.7690   72.2100  220.4430 C   0  0  0  0  0  0  0  0  0  0  0  0
  144.8630   71.8960  219.4410 C   0  0  0  0  0  0  0  0  0  0  0  0
  145.8120   73.0560  219.4700 C   0  0  0  0  0  0  0  0  0  0  0  0
  145.4490   73.7980  220.7320 C   0  0  0  0  0  0  0  0  0  0  0  0
  139.6050   70.4960  223.7990 C   0  0  0  0  0  0  0  0  0  0  0  0
  139.1020   69.2120  223.7630 C   0  0  0  0  0  0  0  0  0  0  0  0
  139.2330   68.4630  224.9360 C   0  0  0  0  0  0  0  0  0  0  0  0
  139.8370   68.9990  226.0580 C   0  0  0  0  0  0  0  0  0  0  0  0
  139.9700   68.2560  227.2300 C   0  0  0  0  0  0  0  0  0  0  0  0
  140.5790   68.8620  228.2950 C   0  0  0  0  0  0  0  0  0  0  0  0
  140.7120   68.1460  229.4370 F   0  0  0  0  0  0  0  0  0  0  0  0
  141.0680   70.1460  228.2870 C   0  0  0  0  0  0  0  0  0  0  0  0
  140.9380   70.8760  227.1360 C   0  0  0  0  0  0  0  0  0  0  0  0
  140.3270   70.2980  226.0420 C   0  0  0  0  0  0  0  0  0  0  0  0
  140.1980   71.0090  224.9120 N   0  0  0  0  0  0  0  0  0  0  0  0
  140.6170   72.8840  223.3730 H   0  0  0  0  0  0  0  0  0  0  0  0
  139.9129   72.7490  220.4837 H   0  0  0  0  0  0  0  0  0  0  0  0
  139.1502   74.0833  221.5830 H   0  0  0  0  0  0  0  0  0  0  0  0
  141.0459   73.8682  217.9812 H   0  0  0  0  0  0  0  0  0  0  0  0
  140.2447   75.3218  218.5909 H   0  0  0  0  0  0  0  0  0  0  0  0
  142.9708   74.9899  217.3045 H   0  0  0  0  0  0  0  0  0  0  0  0
  141.6741   76.2614  217.0405 H   0  0  0  0  0  0  0  0  0  0  0  0
  143.7210   77.1568  218.0097 H   0  0  0  0  0  0  0  0  0  0  0  0
  142.2440   77.3326  219.0554 H   0  0  0  0  0  0  0  0  0  0  0  0
  144.7841   76.0216  219.6366 H   0  0  0  0  0  0  0  0  0  0  0  0
  143.4391   76.4449  220.7333 H   0  0  0  0  0  0  0  0  0  0  0  0
  143.6167   73.9436  218.9262 H   0  0  0  0  0  0  0  0  0  0  0  0
  143.4994   73.9563  221.8088 H   0  0  0  0  0  0  0  0  0  0  0  0
  143.8738   71.5665  221.3290 H   0  0  0  0  0  0  0  0  0  0  0  0
  142.7761   72.0284  220.0057 H   0  0  0  0  0  0  0  0  0  0  0  0
  145.3851   70.9706  219.7258 H   0  0  0  0  0  0  0  0  0  0  0  0
  144.4485   71.7461  218.4332 H   0  0  0  0  0  0  0  0  0  0  0  0
  146.8543   72.7067  219.5087 H   0  0  0  0  0  0  0  0  0  0  0  0
  145.7342   73.6871  218.5724 H   0  0  0  0  0  0  0  0  0  0  0  0
  145.9396   73.3423  221.6048 H   0  0  0  0  0  0  0  0  0  0  0  0
  145.7739   74.8486  220.7054 H   0  0  0  0  0  0  0  0  0  0  0  0
  138.6245   68.8005  222.8615 H   0  0  0  0  0  0  0  0  0  0  0  0
  138.8500   67.4323  224.9667 H   0  0  0  0  0  0  0  0  0  0  0  0
  139.5996   67.2223  227.2961 H   0  0  0  0  0  0  0  0  0  0  0  0
  141.5494   70.5745  229.1784 H   0  0  0  0  0  0  0  0  0  0  0  0
  141.3151   71.9080  227.0841 H   0  0  0  0  0  0  0  0  0  0  0  0
  1  2  2  0
  2  3  1  0
  3  4  1  0
  4  5  1  0
  5  6  2  0
  5  7  1  0
  7  8  1  0
  8  9  1  0
  9 10  1  0
 10 11  1  0
 11 12  1  0
 12 13  1  0
 13 14  1  0
 14 15  1  0
 15 16  1  0
 16 17  1  0
  2 18  1  0
 18 19  2  0
 19 20  1  0
 20 21  2  0
 21 22  1  0
 22 23  2  0
 23 24  1  0
 23 25  1  0
 25 26  2  0
 26 27  1  0
 27 28  2  0
 12  7  1  0
 17 13  1  0
 28 18  1  0
 27 21  1  0
  3 29  1  0
  4 30  1  0
  4 31  1  0
  8 32  1  0
  8 33  1  0
  9 34  1  0
  9 35  1  0
 10 36  1  0
 10 37  1  0
 11 38  1  0
 11 39  1  0
 12 40  1  6
 13 41  1  0
 14 42  1  0
 14 43  1  0
 15 44  1  0
 15 45  1  0
 16 46  1  0
 16 47  1  0
 17 48  1  0
 17 49  1  0
 19 50  1  0
 20 51  1  0
 22 52  1  0
 25 53  1  0
 26 54  1  0
M  END
>  <smiles>  (69) 
O=C(NCC(=O)N1CCCCC1C1CCCC1)c1ccc2cc(F)ccc2n1

>  <score_type>  (69) 
oracle

>  <origin>  (69) 
autodockgpu

>  <m_score__min__energy>  (69) 
-9.0899999999999999

>  <m_primary>  (69) 
energy

>  <rmsd>  (69) 
2.061187369238936

>  <m_score__min__rmsd>  (69) 
2.061187369238936

>  <meeko>  (69) 
{"free_energy": -7.67, "intermolecular_energy": -9.16, "internal_energy": -1.85, "cluster_size": 5, "cluster_id": 3, "rank_in_cluster": 5}

>  <energy>  (69) 
-8.21

>  <cluster_rmsd>  (69) 
1.9

>  <cluster>  (69) 
1

$$$$

     RDKit          3D

 54 57  0  0  0  0  0  0  0  0999 V2000
  141.2460   71.9570  221.3770 O   0  0  0  0  0  0  0  0  0  0  0  0
  140.5540   72.3730  222.3680 C   0  0  0  0  0  0  0  0  0  0  0  0
  140.0590   73.7370  222.3030 N   0  0  0  0  0  0  0  0  0  0  0  0
  140.3100   74.5980  221.2020 C   0  0  0  0  0  0  0  0  0  0  0  0
  140.2090   76.0370  221.3370 C   0  0  0  0  0  0  0  0  0  0  0  0
  139.1310   76.4310  221.9570 O   0  0  0  0  0  0  0  0  0  0  0  0
  141.0540   77.0760  220.9210 N   0  0  0  0  0  0  0  0  0  0  0  0
  142.0520   76.9280  219.8360 C   0  0  0  0  0  0  0  0  0  0  0  0
  142.1700   78.3040  219.2000 C   0  0  0  0  0  0  0  0  0  0  0  0
  140.8950   79.0730  219.1480 C   0  0  0  0  0  0  0  0  0  0  0  0
  140.2720   79.2540  220.5230 C   0  0  0  0  0  0  0  0  0  0  0  0
  141.0610   78.4130  221.5130 C   0  0  1  0  0  0  0  0  0  0  0  0
  140.6330   78.5190  222.9180 C   0  0  0  0  0  0  0  0  0  0  0  0
  141.8680   78.6170  223.7880 C   0  0  0  0  0  0  0  0  0  0  0  0
  142.3110   80.0670  223.7790 C   0  0  0  0  0  0  0  0  0  0  0  0
  141.1950   80.8490  223.1560 C   0  0  0  0  0  0  0  0  0  0  0  0
  140.0220   79.9010  223.1820 C   0  0  0  0  0  0  0  0  0  0  0  0
  140.2660   71.5270  223.5180 C   0  0  0  0  0  0  0  0  0  0  0  0
  139.5490   70.3700  223.2920 C   0  0  0  0  0  0  0  0  0  0  0  0
  139.2860   69.5760  224.4120 C   0  0  0  0  0  0  0  0  0  0  0  0
  139.7300   69.9480  225.6670 C   0  0  0  0  0  0  0  0  0  0  0  0
  139.4710   69.1590  226.7870 C   0  0  0  0  0  0  0  0  0  0  0  0
  139.9460   69.5990  227.9930 C   0  0  0  0  0  0  0  0  0  0  0  0
  139.6980   68.8380  229.0850 F   0  0  0  0  0  0  0  0  0  0  0  0
  140.6590   70.7610  228.1730 C   0  0  0  0  0  0  0  0  0  0  0  0
  140.9130   71.5360  227.0730 C   0  0  0  0  0  0  0  0  0  0  0  0
  140.4490   71.1230  225.8420 C   0  0  0  0  0  0  0  0  0  0  0  0
  140.6970   71.8790  224.7610 N   0  0  0  0  0  0  0  0  0  0  0  0
  139.5010   74.0140  223.1520 H   0  0  0  0  0  0  0  0  0  0  0  0
  141.3370   74.3873  220.8691 H   0  0  0  0  0  0  0  0  0  0  0  0
  139.4806   74.3622  220.5190 H   0  0  0  0  0  0  0  0  0  0  0  0
  143.0217   76.6102  220.2467 H   0  0  0  0  0  0  0  0  0  0  0  0
  141.7479   76.1654  219.1039 H   0  0  0  0  0  0  0  0  0  0  0  0
  142.9001   78.8885  219.7790 H   0  0  0  0  0  0  0  0  0  0  0  0
  142.4791   78.1406  218.1570 H   0  0  0  0  0  0  0  0  0  0  0  0
  141.0979   80.0652  218.7185 H   0  0  0  0  0  0  0  0  0  0  0  0
  140.1848   78.5043  218.5297 H   0  0  0  0  0  0  0  0  0  0  0  0
  140.3157   80.3134  220.8157 H   0  0  0  0  0  0  0  0  0  0  0  0
  139.2185   78.9378  220.5088 H   0  0  0  0  0  0  0  0  0  0  0  0
  142.0905   78.7783  221.6421 H   0  0  0  0  0  0  0  0  0  0  0  0
  139.9609   77.6707  223.1148 H   0  0  0  0  0  0  0  0  0  0  0  0
  141.6311   78.3020  224.8150 H   0  0  0  0  0  0  0  0  0  0  0  0
  142.6662   77.9632  223.4067 H   0  0  0  0  0  0  0  0  0  0  0  0
  142.4918   80.4155  224.8066 H   0  0  0  0  0  0  0  0  0  0  0  0
  143.2477   80.1933  223.2163 H   0  0  0  0  0  0  0  0  0  0  0  0
  140.9783   81.7545  223.7417 H   0  0  0  0  0  0  0  0  0  0  0  0
  141.4369   81.1934  222.1397 H   0  0  0  0  0  0  0  0  0  0  0  0
  139.5256   79.9247  224.1634 H   0  0  0  0  0  0  0  0  0  0  0  0
  139.2556   80.1663  222.4388 H   0  0  0  0  0  0  0  0  0  0  0  0
  139.2036   70.0881  222.2864 H   0  0  0  0  0  0  0  0  0  0  0  0
  138.7176   68.6418  224.2929 H   0  0  0  0  0  0  0  0  0  0  0  0
  138.9063   68.2186  226.7046 H   0  0  0  0  0  0  0  0  0  0  0  0
  141.0145   71.0589  229.1704 H   0  0  0  0  0  0  0  0  0  0  0  0
  141.4789   72.4743  227.1700 H   0  0  0  0  0  0  0  0  0  0  0  0
  1  2  2  0
  2  3  1  0
  3  4  1  0
  4  5  1  0
  5  6  2  0
  5  7  1  0
  7  8  1  0
  8  9  1  0
  9 10  1  0
 10 11  1  0
 11 12  1  0
 12 13  1  0
 13 14  1  0
 14 15  1  0
 15 16  1  0
 16 17  1  0
  2 18  1  0
 18 19  2  0
 19 20  1  0
 20 21  2  0
 21 22  1  0
 22 23  2  0
 23 24  1  0
 23 25  1  0
 25 26  2  0
 26 27  1  0
 27 28  2  0
 12  7  1  0
 17 13  1  0
 28 18  1  0
 27 21  1  0
  3 29  1  0
  4 30  1  0
  4 31  1  0
  8 32  1  0
  8 33  1  0
  9 34  1  0
  9 35  1  0
 10 36  1  0
 10 37  1  0
 11 38  1  0
 11 39  1  0
 12 40  1  1
 13 41  1  0
 14 42  1  0
 14 43  1  0
 15 44  1  0
 15 45  1  0
 16 46  1  0
 16 47  1  0
 17 48  1  0
 17 49  1  0
 19 50  1  0
 20 51  1  0
 22 52  1  0
 25 53  1  0
 26 54  1  0
M  END
>  <smiles>  (70) 
O=C(NCC(=O)N1CCCCC1C1CCCC1)c1ccc2cc(F)ccc2n1

>  <score_type>  (70) 
oracle

>  <origin>  (70) 
autodockgpu

>  <m_score__min__energy>  (70) 
-9.0899999999999999

>  <m_primary>  (70) 
energy

>  <rmsd>  (70) 
2.4529484254123926

>  <m_score__min__rmsd>  (70) 
2.4529484254123926

>  <meeko>  (70) 
{"free_energy": -8.69, "intermolecular_energy": -10.18, "internal_energy": -1.34, "cluster_size": 40, "cluster_id": 1, "rank_in_cluster": 12}

>  <energy>  (70) 
-8.21

>  <cluster_rmsd>  (70) 
1.88

>  <cluster>  (70) 
1

$$$$

     RDKit          3D

 54 57  0  0  0  0  0  0  0  0999 V2000
  141.4150   72.7650  221.9200 O   0  0  0  0  0  0  0  0  0  0  0  0
  140.3510   72.6490  222.6190 C   0  0  0  0  0  0  0  0  0  0  0  0
  139.2730   73.5820  222.3430 N   0  0  0  0  0  0  0  0  0  0  0  0
  139.3590   74.5880  221.3440 C   0  0  0  0  0  0  0  0  0  0  0  0
  139.9720   75.8720  221.6240 C   0  0  0  0  0  0  0  0  0  0  0  0
  139.3010   76.5970  222.4760 O   0  0  0  0  0  0  0  0  0  0  0  0
  141.1440   76.4720  221.1450 N   0  0  0  0  0  0  0  0  0  0  0  0
  142.2270   75.7180  220.4700 C   0  0  0  0  0  0  0  0  0  0  0  0
  142.8550   76.6960  219.4900 C   0  0  0  0  0  0  0  0  0  0  0  0
  141.8950   77.6450  218.8600 C   0  0  0  0  0  0  0  0  0  0  0  0
  141.1240   78.4560  219.8890 C   0  0  0  0  0  0  0  0  0  0  0  0
  141.4440   77.8980  221.2660 C   0  0  1  0  0  0  0  0  0  0  0  0
  140.8280   78.6110  222.3980 C   0  0  0  0  0  0  0  0  0  0  0  0
  141.8310   78.6650  223.5310 C   0  0  0  0  0  0  0  0  0  0  0  0
  142.7590   79.8320  223.2560 C   0  0  0  0  0  0  0  0  0  0  0  0
  142.1350   80.6190  222.1440 C   0  0  0  0  0  0  0  0  0  0  0  0
  140.7170   80.1080  222.0820 C   0  0  0  0  0  0  0  0  0  0  0  0
  140.2130   71.6310  223.6510 C   0  0  0  0  0  0  0  0  0  0  0  0
  139.5890   70.4510  223.2990 C   0  0  0  0  0  0  0  0  0  0  0  0
  139.4690   69.4900  224.3070 C   0  0  0  0  0  0  0  0  0  0  0  0
  139.9560   69.7290  225.5790 C   0  0  0  0  0  0  0  0  0  0  0  0
  139.8380   68.7730  226.5880 C   0  0  0  0  0  0  0  0  0  0  0  0
  140.3460   69.0900  227.8180 C   0  0  0  0  0  0  0  0  0  0  0  0
  140.2360   68.1670  228.8020 F   0  0  0  0  0  0  0  0  0  0  0  0
  140.9620   70.2800  228.1250 C   0  0  0  0  0  0  0  0  0  0  0  0
  141.0770   71.2190  227.1350 C   0  0  0  0  0  0  0  0  0  0  0  0
  140.5760   70.9340  225.8820 C   0  0  0  0  0  0  0  0  0  0  0  0
  140.6870   71.8500  224.9080 N   0  0  0  0  0  0  0  0  0  0  0  0
  138.4300   73.4310  222.9560 H   0  0  0  0  0  0  0  0  0  0  0  0
  139.9219   74.1493  220.5069 H   0  0  0  0  0  0  0  0  0  0  0  0
  138.3046   74.8554  221.1806 H   0  0  0  0  0  0  0  0  0  0  0  0
  142.9725   75.3770  221.2034 H   0  0  0  0  0  0  0  0  0  0  0  0
  141.8434   74.8212  219.9614 H   0  0  0  0  0  0  0  0  0  0  0  0
  143.6135   77.2826  220.0291 H   0  0  0  0  0  0  0  0  0  0  0  0
  143.2771   76.0916  218.6736 H   0  0  0  0  0  0  0  0  0  0  0  0
  142.4546   78.3360  218.2124 H   0  0  0  0  0  0  0  0  0  0  0  0
  141.1674   77.0541  218.2843 H   0  0  0  0  0  0  0  0  0  0  0  0
  141.4273   79.5120  219.8349 H   0  0  0  0  0  0  0  0  0  0  0  0
  140.0435   78.3915  219.6933 H   0  0  0  0  0  0  0  0  0  0  0  0
  142.4967   78.0545  221.5440 H   0  0  0  0  0  0  0  0  0  0  0  0
  139.8720   78.1109  222.6125 H   0  0  0  0  0  0  0  0  0  0  0  0
  141.3101   78.8156  224.4881 H   0  0  0  0  0  0  0  0  0  0  0  0
  142.3970   77.7240  223.5954 H   0  0  0  0  0  0  0  0  0  0  0  0
  142.8590   80.4580  224.1550 H   0  0  0  0  0  0  0  0  0  0  0  0
  143.7654   79.4836  222.9807 H   0  0  0  0  0  0  0  0  0  0  0  0
  142.1526   81.6954  222.3698 H   0  0  0  0  0  0  0  0  0  0  0  0
  142.6692   80.4984  221.1900 H   0  0  0  0  0  0  0  0  0  0  0  0
  140.0886   80.6163  222.8281 H   0  0  0  0  0  0  0  0  0  0  0  0
  140.2505   80.2931  221.1032 H   0  0  0  0  0  0  0  0  0  0  0  0
  139.2075   70.2767  222.2821 H   0  0  0  0  0  0  0  0  0  0  0  0
  138.9801   68.5299  224.0852 H   0  0  0  0  0  0  0  0  0  0  0  0
  139.3553   67.8022  226.4019 H   0  0  0  0  0  0  0  0  0  0  0  0
  141.3510   70.4722  229.1358 H   0  0  0  0  0  0  0  0  0  0  0  0
  141.5615   72.1859  227.3360 H   0  0  0  0  0  0  0  0  0  0  0  0
  1  2  2  0
  2  3  1  0
  3  4  1  0
  4  5  1  0
  5  6  2  0
  5  7  1  0
  7  8  1  0
  8  9  1  0
  9 10  1  0
 10 11  1  0
 11 12  1  0
 12 13  1  0
 13 14  1  0
 14 15  1  0
 15 16  1  0
 16 17  1  0
  2 18  1  0
 18 19  2  0
 19 20  1  0
 20 21  2  0
 21 22  1  0
 22 23  2  0
 23 24  1  0
 23 25  1  0
 25 26  2  0
 26 27  1  0
 27 28  2  0
 12  7  1  0
 17 13  1  0
 28 18  1  0
 27 21  1  0
  3 29  1  0
  4 30  1  0
  4 31  1  0
  8 32  1  0
  8 33  1  0
  9 34  1  0
  9 35  1  0
 10 36  1  0
 10 37  1  0
 11 38  1  0
 11 39  1  0
 12 40  1  1
 13 41  1  0
 14 42  1  0
 14 43  1  0
 15 44  1  0
 15 45  1  0
 16 46  1  0
 16 47  1  0
 17 48  1  0
 17 49  1  0
 19 50  1  0
 20 51  1  0
 22 52  1  0
 25 53  1  0
 26 54  1  0
M  END
>  <smiles>  (71) 
O=C(NCC(=O)N1CCCCC1C1CCCC1)c1ccc2cc(F)ccc2n1

>  <score_type>  (71) 
oracle

>  <origin>  (71) 
autodockgpu

>  <m_score__min__energy>  (71) 
-9.0899999999999999

>  <m_primary>  (71) 
energy

>  <rmsd>  (71) 
2.150526129289872

>  <m_score__min__rmsd>  (71) 
2.150526129289872

>  <meeko>  (71) 
{"free_energy": -9.01, "intermolecular_energy": -10.5, "internal_energy": -1.05, "cluster_size": 40, "cluster_id": 1, "rank_in_cluster": 4}

>  <energy>  (71) 
-8.21

>  <cluster_rmsd>  (71) 
1.02

>  <cluster>  (71) 
1

$$$$

     RDKit          3D

 54 57  0  0  0  0  0  0  0  0999 V2000
  140.6660   71.3490  221.3210 O   0  0  0  0  0  0  0  0  0  0  0  0
  140.1570   71.7750  222.4140 C   0  0  0  0  0  0  0  0  0  0  0  0
  139.6660   73.1410  222.4270 N   0  0  0  0  0  0  0  0  0  0  0  0
  139.7260   73.9940  221.2940 C   0  0  0  0  0  0  0  0  0  0  0  0
  140.9260   74.7440  220.9820 C   0  0  0  0  0  0  0  0  0  0  0  0
  141.3530   75.4840  221.9680 O   0  0  0  0  0  0  0  0  0  0  0  0
  141.7050   74.8200  219.8180 N   0  0  0  0  0  0  0  0  0  0  0  0
  141.1390   75.1040  218.4780 C   0  0  0  0  0  0  0  0  0  0  0  0
  142.2360   75.8330  217.7190 C   0  0  0  0  0  0  0  0  0  0  0  0
  143.0670   76.7440  218.5540 C   0  0  0  0  0  0  0  0  0  0  0  0
  143.7170   76.0240  219.7240 C   0  0  0  0  0  0  0  0  0  0  0  0
  143.1520   74.6160  219.7850 C   0  0  1  0  0  0  0  0  0  0  0  0
  143.7230   73.7470  220.8290 C   0  0  0  0  0  0  0  0  0  0  0  0
  143.5690   72.3070  220.3890 C   0  0  0  0  0  0  0  0  0  0  0  0
  144.7200   71.9960  219.4530 C   0  0  0  0  0  0  0  0  0  0  0  0
  145.6850   73.1360  219.5720 C   0  0  0  0  0  0  0  0  0  0  0  0
  145.2540   73.8540  220.8260 C   0  0  0  0  0  0  0  0  0  0  0  0
  140.0700   70.9360  223.6020 C   0  0  0  0  0  0  0  0  0  0  0  0
  139.4530   69.7090  223.4690 C   0  0  0  0  0  0  0  0  0  0  0  0
  139.3810   68.9240  224.6230 C   0  0  0  0  0  0  0  0  0  0  0  0
  139.9070   69.3720  225.8210 C   0  0  0  0  0  0  0  0  0  0  0  0
  139.8380   68.5920  226.9750 C   0  0  0  0  0  0  0  0  0  0  0  0
  140.3810   69.1100  228.1190 C   0  0  0  0  0  0  0  0  0  0  0  0
  140.3180   68.3580  229.2430 F   0  0  0  0  0  0  0  0  0  0  0  0
  140.9880   70.3400  228.2070 C   0  0  0  0  0  0  0  0  0  0  0  0
  141.0560   71.1060  227.0740 C   0  0  0  0  0  0  0  0  0  0  0  0
  140.5180   70.6150  225.9020 C   0  0  0  0  0  0  0  0  0  0  0  0
  140.5820   71.3620  224.7900 N   0  0  0  0  0  0  0  0  0  0  0  0
  139.2640   73.4260  223.3590 H   0  0  0  0  0  0  0  0  0  0  0  0
  139.5156   73.3635  220.4175 H   0  0  0  0  0  0  0  0  0  0  0  0
  139.0082   74.7865  221.5523 H   0  0  0  0  0  0  0  0  0  0  0  0
  140.8749   74.1670  217.9659 H   0  0  0  0  0  0  0  0  0  0  0  0
  140.2196   75.7045  218.5426 H   0  0  0  0  0  0  0  0  0  0  0  0
  142.8994   75.0805  217.2678 H   0  0  0  0  0  0  0  0  0  0  0  0
  141.7320   76.4660  216.9738 H   0  0  0  0  0  0  0  0  0  0  0  0
  143.8567   77.1790  217.9238 H   0  0  0  0  0  0  0  0  0  0  0  0
  142.4051   77.5212  218.9637 H   0  0  0  0  0  0  0  0  0  0  0  0
  144.8064   75.9824  219.5774 H   0  0  0  0  0  0  0  0  0  0  0  0
  143.5097   76.5585  220.6628 H   0  0  0  0  0  0  0  0  0  0  0  0
  143.4430   74.0132  218.9121 H   0  0  0  0  0  0  0  0  0  0  0  0
  143.2411   74.0238  221.7783 H   0  0  0  0  0  0  0  0  0  0  0  0
  143.6042   71.6404  221.2633 H   0  0  0  0  0  0  0  0  0  0  0  0
  142.6040   72.1554  219.8833 H   0  0  0  0  0  0  0  0  0  0  0  0
  145.2060   71.0543  219.7481 H   0  0  0  0  0  0  0  0  0  0  0  0
  144.3695   71.8780  218.4170 H   0  0  0  0  0  0  0  0  0  0  0  0
  146.7163   72.7660  219.6689 H   0  0  0  0  0  0  0  0  0  0  0  0
  145.6769   73.7898  218.6874 H   0  0  0  0  0  0  0  0  0  0  0  0
  145.6786   73.3680  221.7168 H   0  0  0  0  0  0  0  0  0  0  0  0
  145.5984   74.8985  220.8470 H   0  0  0  0  0  0  0  0  0  0  0  0
  139.0407   69.3677  222.5080 H   0  0  0  0  0  0  0  0  0  0  0  0
  138.8993   67.9361  224.5778 H   0  0  0  0  0  0  0  0  0  0  0  0
  139.3653   67.5988  226.9658 H   0  0  0  0  0  0  0  0  0  0  0  0
  141.4066   70.6983  229.1590 H   0  0  0  0  0  0  0  0  0  0  0  0
  141.5321   72.0974  227.0978 H   0  0  0  0  0  0  0  0  0  0  0  0
  1  2  2  0
  2  3  1  0
  3  4  1  0
  4  5  1  0
  5  6  2  0
  5  7  1  0
  7  8  1  0
  8  9  1  0
  9 10  1  0
 10 11  1  0
 11 12  1  0
 12 13  1  0
 13 14  1  0
 14 15  1  0
 15 16  1  0
 16 17  1  0
  2 18  1  0
 18 19  2  0
 19 20  1  0
 20 21  2  0
 21 22  1  0
 22 23  2  0
 23 24  1  0
 23 25  1  0
 25 26  2  0
 26 27  1  0
 27 28  2  0
 12  7  1  0
 17 13  1  0
 28 18  1  0
 27 21  1  0
  3 29  1  0
  4 30  1  0
  4 31  1  0
  8 32  1  0
  8 33  1  0
  9 34  1  0
  9 35  1  0
 10 36  1  0
 10 37  1  0
 11 38  1  0
 11 39  1  0
 12 40  1  6
 13 41  1  0
 14 42  1  0
 14 43  1  0
 15 44  1  0
 15 45  1  0
 16 46  1  0
 16 47  1  0
 17 48  1  0
 17 49  1  0
 19 50  1  0
 20 51  1  0
 22 52  1  0
 25 53  1  0
 26 54  1  0
M  END
>  <smiles>  (72) 
O=C(NCC(=O)N1CCCCC1C1CCCC1)c1ccc2cc(F)ccc2n1

>  <score_type>  (72) 
oracle

>  <origin>  (72) 
autodockgpu

>  <m_score__min__energy>  (72) 
-9.0899999999999999

>  <m_primary>  (72) 
energy

>  <rmsd>  (72) 
2.0027264077866467

>  <m_score__min__rmsd>  (72) 
2.0027264077866467

>  <meeko>  (72) 
{"free_energy": -8.07, "intermolecular_energy": -9.57, "internal_energy": -1.78, "cluster_size": 40, "cluster_id": 1, "rank_in_cluster": 30}

>  <energy>  (72) 
-8.2

>  <cluster_rmsd>  (72) 
1.91

>  <cluster>  (72) 
1

$$$$

     RDKit          3D

 54 57  0  0  0  0  0  0  0  0999 V2000
  141.2510   71.7910  221.6490 O   0  0  0  0  0  0  0  0  0  0  0  0
  140.3630   72.0480  222.5320 C   0  0  0  0  0  0  0  0  0  0  0  0
  139.5460   73.2310  222.3240 N   0  0  0  0  0  0  0  0  0  0  0  0
  139.6950   74.0840  221.1980 C   0  0  0  0  0  0  0  0  0  0  0  0
  140.9490   74.7610  220.9310 C   0  0  0  0  0  0  0  0  0  0  0  0
  141.4270   75.4020  221.9620 O   0  0  0  0  0  0  0  0  0  0  0  0
  141.7330   74.8550  219.7730 N   0  0  0  0  0  0  0  0  0  0  0  0
  141.1660   75.0930  218.4240 C   0  0  0  0  0  0  0  0  0  0  0  0
  142.2350   75.8590  217.6620 C   0  0  0  0  0  0  0  0  0  0  0  0
  143.0180   76.8190  218.4900 C   0  0  0  0  0  0  0  0  0  0  0  0
  143.6900   76.1470  219.6760 C   0  0  0  0  0  0  0  0  0  0  0  0
  143.1880   74.7150  219.7540 C   0  0  1  0  0  0  0  0  0  0  0  0
  143.7880   73.8890  220.8150 C   0  0  0  0  0  0  0  0  0  0  0  0
  143.7300   72.4390  220.3830 C   0  0  0  0  0  0  0  0  0  0  0  0
  144.9160   72.1920  219.4720 C   0  0  0  0  0  0  0  0  0  0  0  0
  145.8080   73.3880  219.6020 C   0  0  0  0  0  0  0  0  0  0  0  0
  145.3100   74.0880  220.8420 C   0  0  0  0  0  0  0  0  0  0  0  0
  140.1680   71.2010  223.7010 C   0  0  0  0  0  0  0  0  0  0  0  0
  139.4580   70.0310  223.5260 C   0  0  0  0  0  0  0  0  0  0  0  0
  139.2850   69.2360  224.6620 C   0  0  0  0  0  0  0  0  0  0  0  0
  139.8060   69.6200  225.8840 C   0  0  0  0  0  0  0  0  0  0  0  0
  139.6360   68.8290  227.0210 C   0  0  0  0  0  0  0  0  0  0  0  0
  140.1830   69.2820  228.1900 C   0  0  0  0  0  0  0  0  0  0  0  0
  140.0230   68.5200  229.2980 F   0  0  0  0  0  0  0  0  0  0  0  0
  140.8860   70.4570  228.3190 C   0  0  0  0  0  0  0  0  0  0  0  0
  141.0530   71.2330  227.2040 C   0  0  0  0  0  0  0  0  0  0  0  0
  140.5140   70.8070  226.0070 C   0  0  0  0  0  0  0  0  0  0  0  0
  140.6750   71.5640  224.9110 N   0  0  0  0  0  0  0  0  0  0  0  0
  138.8390   73.3830  223.0890 H   0  0  0  0  0  0  0  0  0  0  0  0
  139.4762   73.4712  220.3111 H   0  0  0  0  0  0  0  0  0  0  0  0
  139.0179   74.9175  221.4366 H   0  0  0  0  0  0  0  0  0  0  0  0
  140.9485   74.1373  217.9246 H   0  0  0  0  0  0  0  0  0  0  0  0
  140.2202   75.6525  218.4724 H   0  0  0  0  0  0  0  0  0  0  0  0
  142.9350   75.1305  217.2270 H   0  0  0  0  0  0  0  0  0  0  0  0
  141.7093   76.4575  216.9035 H   0  0  0  0  0  0  0  0  0  0  0  0
  143.7927   77.2795  217.8593 H   0  0  0  0  0  0  0  0  0  0  0  0
  142.3184   77.5714  218.8829 H   0  0  0  0  0  0  0  0  0  0  0  0
  144.7814   76.1525  219.5385 H   0  0  0  0  0  0  0  0  0  0  0  0
  143.4512   76.6857  220.6049 H   0  0  0  0  0  0  0  0  0  0  0  0
  143.5130   74.1126  218.8929 H   0  0  0  0  0  0  0  0  0  0  0  0
  143.2706   74.1422  221.7521 H   0  0  0  0  0  0  0  0  0  0  0  0
  143.7880   71.7815  221.2630 H   0  0  0  0  0  0  0  0  0  0  0  0
  142.7861   72.2261  219.8597 H   0  0  0  0  0  0  0  0  0  0  0  0
  145.4514   71.2829  219.7832 H   0  0  0  0  0  0  0  0  0  0  0  0
  144.5941   72.0470  218.4302 H   0  0  0  0  0  0  0  0  0  0  0  0
  146.8574   73.0808  219.7223 H   0  0  0  0  0  0  0  0  0  0  0  0
  145.7782   74.0345  218.7125 H   0  0  0  0  0  0  0  0  0  0  0  0
  145.7449   73.6345  221.7449 H   0  0  0  0  0  0  0  0  0  0  0  0
  145.5911   75.1513  220.8618 H   0  0  0  0  0  0  0  0  0  0  0  0
  139.0507   69.7402  222.5465 H   0  0  0  0  0  0  0  0  0  0  0  0
  138.7266   68.2916  224.5831 H   0  0  0  0  0  0  0  0  0  0  0  0
  139.0838   67.8786  226.9788 H   0  0  0  0  0  0  0  0  0  0  0  0
  141.3019   70.7641  229.2899 H   0  0  0  0  0  0  0  0  0  0  0  0
  141.6079   72.1811  227.2610 H   0  0  0  0  0  0  0  0  0  0  0  0
  1  2  2  0
  2  3  1  0
  3  4  1  0
  4  5  1  0
  5  6  2  0
  5  7  1  0
  7  8  1  0
  8  9  1  0
  9 10  1  0
 10 11  1  0
 11 12  1  0
 12 13  1  0
 13 14  1  0
 14 15  1  0
 15 16  1  0
 16 17  1  0
  2 18  1  0
 18 19  2  0
 19 20  1  0
 20 21  2  0
 21 22  1  0
 22 23  2  0
 23 24  1  0
 23 25  1  0
 25 26  2  0
 26 27  1  0
 27 28  2  0
 12  7  1  0
 17 13  1  0
 28 18  1  0
 27 21  1  0
  3 29  1  0
  4 30  1  0
  4 31  1  0
  8 32  1  0
  8 33  1  0
  9 34  1  0
  9 35  1  0
 10 36  1  0
 10 37  1  0
 11 38  1  0
 11 39  1  0
 12 40  1  6
 13 41  1  0
 14 42  1  0
 14 43  1  0
 15 44  1  0
 15 45  1  0
 16 46  1  0
 16 47  1  0
 17 48  1  0
 17 49  1  0
 19 50  1  0
 20 51  1  0
 22 52  1  0
 25 53  1  0
 26 54  1  0
M  END
>  <smiles>  (73) 
O=C(NCC(=O)N1CCCCC1C1CCCC1)c1ccc2cc(F)ccc2n1

>  <score_type>  (73) 
oracle

>  <origin>  (73) 
autodockgpu

>  <m_score__min__energy>  (73) 
-9.0899999999999999

>  <m_primary>  (73) 
energy

>  <rmsd>  (73) 
2.0406568062977626

>  <m_score__min__rmsd>  (73) 
2.0406568062977626

>  <meeko>  (73) 
{"free_energy": -8.24, "intermolecular_energy": -9.73, "internal_energy": -1.67, "cluster_size": 40, "cluster_id": 1, "rank_in_cluster": 18}

>  <energy>  (73) 
-8.19

>  <cluster_rmsd>  (73) 
0.86

>  <cluster>  (73) 
1

$$$$

     RDKit          3D

 54 57  0  0  0  0  0  0  0  0999 V2000
  139.6730   70.8670  221.2750 O   0  0  0  0  0  0  0  0  0  0  0  0
  139.7490   71.4070  222.4310 C   0  0  0  0  0  0  0  0  0  0  0  0
  139.8340   72.8550  222.4810 N   0  0  0  0  0  0  0  0  0  0  0  0
  139.8300   73.6690  221.3170 C   0  0  0  0  0  0  0  0  0  0  0  0
  140.9490   74.5350  221.0040 C   0  0  0  0  0  0  0  0  0  0  0  0
  141.2810   75.3360  221.9790 O   0  0  0  0  0  0  0  0  0  0  0  0
  141.7330   74.6700  219.8490 N   0  0  0  0  0  0  0  0  0  0  0  0
  141.1650   74.9590  218.5110 C   0  0  0  0  0  0  0  0  0  0  0  0
  142.2360   75.7500  217.7760 C   0  0  0  0  0  0  0  0  0  0  0  0
  143.0220   76.6770  218.6390 C   0  0  0  0  0  0  0  0  0  0  0  0
  143.6930   75.9590  219.7980 C   0  0  0  0  0  0  0  0  0  0  0  0
  143.1870   74.5270  219.8230 C   0  0  1  0  0  0  0  0  0  0  0  0
  143.7870   73.6600  220.8520 C   0  0  0  0  0  0  0  0  0  0  0  0
  143.6460   72.2200  220.4060 C   0  0  0  0  0  0  0  0  0  0  0  0
  144.7860   71.9320  219.4500 C   0  0  0  0  0  0  0  0  0  0  0  0
  145.7370   73.0840  219.5610 C   0  0  0  0  0  0  0  0  0  0  0  0
  145.3160   73.7890  220.8260 C   0  0  0  0  0  0  0  0  0  0  0  0
  139.7520   70.6150  223.6540 C   0  0  0  0  0  0  0  0  0  0  0  0
  139.1760   69.3620  223.6010 C   0  0  0  0  0  0  0  0  0  0  0  0
  139.1920   68.6220  224.7870 C   0  0  0  0  0  0  0  0  0  0  0  0
  139.7580   69.1370  225.9380 C   0  0  0  0  0  0  0  0  0  0  0  0
  139.7760   68.4030  227.1240 C   0  0  0  0  0  0  0  0  0  0  0  0
  140.3550   68.9870  228.2170 C   0  0  0  0  0  0  0  0  0  0  0  0
  140.3770   68.2800  229.3720 F   0  0  0  0  0  0  0  0  0  0  0  0
  140.9190   70.2400  228.2260 C   0  0  0  0  0  0  0  0  0  0  0  0
  140.9010   70.9610  227.0620 C   0  0  0  0  0  0  0  0  0  0  0  0
  140.3250   70.4050  225.9390 C   0  0  0  0  0  0  0  0  0  0  0  0
  140.3060   71.1070  224.7970 N   0  0  0  0  0  0  0  0  0  0  0  0
  139.8960   73.2320  223.4630 H   0  0  0  0  0  0  0  0  0  0  0  0
  139.7131   72.9884  220.4607 H   0  0  0  0  0  0  0  0  0  0  0  0
  139.0230   74.3861  221.5281 H   0  0  0  0  0  0  0  0  0  0  0  0
  140.9441   74.0230  217.9770 H   0  0  0  0  0  0  0  0  0  0  0  0
  140.2208   75.5189  218.5812 H   0  0  0  0  0  0  0  0  0  0  0  0
  142.9338   75.0362  217.3139 H   0  0  0  0  0  0  0  0  0  0  0  0
  141.7116   76.3771  217.0400 H   0  0  0  0  0  0  0  0  0  0  0  0
  143.7973   77.1591  218.0255 H   0  0  0  0  0  0  0  0  0  0  0  0
  142.3246   77.4161  219.0603 H   0  0  0  0  0  0  0  0  0  0  0  0
  144.7842   75.9664  219.6596 H   0  0  0  0  0  0  0  0  0  0  0  0
  143.4566   76.4632  220.7466 H   0  0  0  0  0  0  0  0  0  0  0  0
  143.5085   73.9561  218.9394 H   0  0  0  0  0  0  0  0  0  0  0  0
  143.3164   73.9243  221.8105 H   0  0  0  0  0  0  0  0  0  0  0  0
  143.7050   71.5489  221.2756 H   0  0  0  0  0  0  0  0  0  0  0  0
  142.6750   72.0570  219.9154 H   0  0  0  0  0  0  0  0  0  0  0  0
  145.2897   70.9953  219.7308 H   0  0  0  0  0  0  0  0  0  0  0  0
  144.4204   71.8165  218.4190 H   0  0  0  0  0  0  0  0  0  0  0  0
  146.7746   72.7274  219.6397 H   0  0  0  0  0  0  0  0  0  0  0  0
  145.7062   73.7428  218.6806 H   0  0  0  0  0  0  0  0  0  0  0  0
  145.7614   73.3041  221.7072 H   0  0  0  0  0  0  0  0  0  0  0  0
  145.6461   74.8381  220.8479 H   0  0  0  0  0  0  0  0  0  0  0  0
  138.7290   68.9673  222.6766 H   0  0  0  0  0  0  0  0  0  0  0  0
  138.7479   67.6158  224.8044 H   0  0  0  0  0  0  0  0  0  0  0  0
  139.3415   67.3939  227.1782 H   0  0  0  0  0  0  0  0  0  0  0  0
  141.3712   70.6514  229.1405 H   0  0  0  0  0  0  0  0  0  0  0  0
  141.3396   71.9690  227.0232 H   0  0  0  0  0  0  0  0  0  0  0  0
  1  2  2  0
  2  3  1  0
  3  4  1  0
  4  5  1  0
  5  6  2  0
  5  7  1  0
  7  8  1  0
  8  9  1  0
  9 10  1  0
 10 11  1  0
 11 12  1  0
 12 13  1  0
 13 14  1  0
 14 15  1  0
 15 16  1  0
 16 17  1  0
  2 18  1  0
 18 19  2  0
 19 20  1  0
 20 21  2  0
 21 22  1  0
 22 23  2  0
 23 24  1  0
 23 25  1  0
 25 26  2  0
 26 27  1  0
 27 28  2  0
 12  7  1  0
 17 13  1  0
 28 18  1  0
 27 21  1  0
  3 29  1  0
  4 30  1  0
  4 31  1  0
  8 32  1  0
  8 33  1  0
  9 34  1  0
  9 35  1  0
 10 36  1  0
 10 37  1  0
 11 38  1  0
 11 39  1  0
 12 40  1  6
 13 41  1  0
 14 42  1  0
 14 43  1  0
 15 44  1  0
 15 45  1  0
 16 46  1  0
 16 47  1  0
 17 48  1  0
 17 49  1  0
 19 50  1  0
 20 51  1  0
 22 52  1  0
 25 53  1  0
 26 54  1  0
M  END
>  <smiles>  (74) 
O=C(NCC(=O)N1CCCCC1C1CCCC1)c1ccc2cc(F)ccc2n1

>  <score_type>  (74) 
oracle

>  <origin>  (74) 
autodockgpu

>  <m_score__min__energy>  (74) 
-9.0899999999999999

>  <m_primary>  (74) 
energy

>  <rmsd>  (74) 
2.00215824434236

>  <m_score__min__rmsd>  (74) 
2.00215824434236

>  <meeko>  (74) 
{"free_energy": -7.91, "intermolecular_energy": -9.4, "internal_energy": -1.84, "cluster_size": 5, "cluster_id": 3, "rank_in_cluster": 3}

>  <energy>  (74) 
-8.19

>  <cluster_rmsd>  (74) 
1.87

>  <cluster>  (74) 
1

$$$$

     RDKit          3D

 54 57  0  0  0  0  0  0  0  0999 V2000
  141.4080   72.7610  221.9460 O   0  0  0  0  0  0  0  0  0  0  0  0
  140.3370   72.6310  222.6300 C   0  0  0  0  0  0  0  0  0  0  0  0
  139.2500   73.5490  222.3400 N   0  0  0  0  0  0  0  0  0  0  0  0
  139.3370   74.5570  221.3440 C   0  0  0  0  0  0  0  0  0  0  0  0
  139.9620   75.8350  221.6220 C   0  0  0  0  0  0  0  0  0  0  0  0
  139.3160   76.5540  222.4990 O   0  0  0  0  0  0  0  0  0  0  0  0
  141.1240   76.4370  221.1190 N   0  0  0  0  0  0  0  0  0  0  0  0
  142.2070   75.6800  220.4490 C   0  0  0  0  0  0  0  0  0  0  0  0
  142.8160   76.6430  219.4430 C   0  0  0  0  0  0  0  0  0  0  0  0
  141.8400   77.5710  218.8050 C   0  0  0  0  0  0  0  0  0  0  0  0
  141.0720   78.3950  219.8250 C   0  0  0  0  0  0  0  0  0  0  0  0
  141.4110   77.8680  221.2090 C   0  0  1  0  0  0  0  0  0  0  0  0
  140.8000   78.5970  222.3330 C   0  0  0  0  0  0  0  0  0  0  0  0
  141.7910   78.6270  223.4780 C   0  0  0  0  0  0  0  0  0  0  0  0
  142.7510   79.7700  223.2140 C   0  0  0  0  0  0  0  0  0  0  0  0
  142.1610   80.5710  222.0930 C   0  0  0  0  0  0  0  0  0  0  0  0
  140.7310   80.0970  222.0150 C   0  0  0  0  0  0  0  0  0  0  0  0
  140.1980   71.6090  223.6600 C   0  0  0  0  0  0  0  0  0  0  0  0
  139.5620   70.4360  223.3090 C   0  0  0  0  0  0  0  0  0  0  0  0
  139.4420   69.4720  224.3140 C   0  0  0  0  0  0  0  0  0  0  0  0
  139.9390   69.7030  225.5830 C   0  0  0  0  0  0  0  0  0  0  0  0
  139.8220   68.7440  226.5890 C   0  0  0  0  0  0  0  0  0  0  0  0
  140.3410   69.0530  227.8170 C   0  0  0  0  0  0  0  0  0  0  0  0
  140.2310   68.1270  228.7990 F   0  0  0  0  0  0  0  0  0  0  0  0
  140.9690   70.2370  228.1240 C   0  0  0  0  0  0  0  0  0  0  0  0
  141.0840   71.1780  227.1360 C   0  0  0  0  0  0  0  0  0  0  0  0
  140.5710   70.9010  225.8860 C   0  0  0  0  0  0  0  0  0  0  0  0
  140.6830   71.8210  224.9150 N   0  0  0  0  0  0  0  0  0  0  0  0
  138.4010   73.3870  222.9420 H   0  0  0  0  0  0  0  0  0  0  0  0
  139.8901   74.1161  220.5016 H   0  0  0  0  0  0  0  0  0  0  0  0
  138.2835   74.8336  221.1901 H   0  0  0  0  0  0  0  0  0  0  0  0
  142.9629   75.3612  221.1818 H   0  0  0  0  0  0  0  0  0  0  0  0
  141.8269   74.7695  219.9627 H   0  0  0  0  0  0  0  0  0  0  0  0
  143.5752   77.2468  219.9618 H   0  0  0  0  0  0  0  0  0  0  0  0
  143.2350   76.0262  218.6343 H   0  0  0  0  0  0  0  0  0  0  0  0
  142.3863   78.2543  218.1381 H   0  0  0  0  0  0  0  0  0  0  0  0
  141.1119   76.9618  218.2494 H   0  0  0  0  0  0  0  0  0  0  0  0
  141.3647   79.4524  219.7467 H   0  0  0  0  0  0  0  0  0  0  0  0
  139.9902   78.3165  219.6417 H   0  0  0  0  0  0  0  0  0  0  0  0
  142.4648   78.0406  221.4732 H   0  0  0  0  0  0  0  0  0  0  0  0
  139.8293   78.1213  222.5363 H   0  0  0  0  0  0  0  0  0  0  0  0
  141.2627   78.7912  224.4288 H   0  0  0  0  0  0  0  0  0  0  0  0
  142.3327   77.6723  223.5491 H   0  0  0  0  0  0  0  0  0  0  0  0
  142.8549   80.3945  224.1136 H   0  0  0  0  0  0  0  0  0  0  0  0
  143.7519   79.3964  222.9521 H   0  0  0  0  0  0  0  0  0  0  0  0
  142.2040   81.6471  222.3172 H   0  0  0  0  0  0  0  0  0  0  0  0
  142.7032   80.4346  221.1457 H   0  0  0  0  0  0  0  0  0  0  0  0
  140.1075   80.6219  222.7537 H   0  0  0  0  0  0  0  0  0  0  0  0
  140.2804   80.2936  221.0310 H   0  0  0  0  0  0  0  0  0  0  0  0
  139.1711   70.2687  222.2945 H   0  0  0  0  0  0  0  0  0  0  0  0
  138.9451   68.5161  224.0919 H   0  0  0  0  0  0  0  0  0  0  0  0
  139.3317   67.7771  226.4026 H   0  0  0  0  0  0  0  0  0  0  0  0
  141.3669   70.4226  229.1326 H   0  0  0  0  0  0  0  0  0  0  0  0
  141.5780   72.1402  227.3361 H   0  0  0  0  0  0  0  0  0  0  0  0
  1  2  2  0
  2  3  1  0
  3  4  1  0
  4  5  1  0
  5  6  2  0
  5  7  1  0
  7  8  1  0
  8  9  1  0
  9 10  1  0
 10 11  1  0
 11 12  1  0
 12 13  1  0
 13 14  1  0
 14 15  1  0
 15 16  1  0
 16 17  1  0
  2 18  1  0
 18 19  2  0
 19 20  1  0
 20 21  2  0
 21 22  1  0
 22 23  2  0
 23 24  1  0
 23 25  1  0
 25 26  2  0
 26 27  1  0
 27 28  2  0
 12  7  1  0
 17 13  1  0
 28 18  1  0
 27 21  1  0
  3 29  1  0
  4 30  1  0
  4 31  1  0
  8 32  1  0
  8 33  1  0
  9 34  1  0
  9 35  1  0
 10 36  1  0
 10 37  1  0
 11 38  1  0
 11 39  1  0
 12 40  1  1
 13 41  1  0
 14 42  1  0
 14 43  1  0
 15 44  1  0
 15 45  1  0
 16 46  1  0
 16 47  1  0
 17 48  1  0
 17 49  1  0
 19 50  1  0
 20 51  1  0
 22 52  1  0
 25 53  1  0
 26 54  1  0
M  END
>  <smiles>  (75) 
O=C(NCC(=O)N1CCCCC1C1CCCC1)c1ccc2cc(F)ccc2n1

>  <score_type>  (75) 
oracle

>  <origin>  (75) 
autodockgpu

>  <m_score__min__energy>  (75) 
-9.0899999999999999

>  <m_primary>  (75) 
energy

>  <rmsd>  (75) 
2.115916973216736

>  <m_score__min__rmsd>  (75) 
2.115916973216736

>  <meeko>  (75) 
{"free_energy": -8.98, "intermolecular_energy": -10.47, "internal_energy": -1.06, "cluster_size": 40, "cluster_id": 1, "rank_in_cluster": 5}

>  <energy>  (75) 
-8.17

>  <cluster_rmsd>  (75) 
1.89

>  <cluster>  (75) 
1

$$$$

     RDKit          3D

 54 57  0  0  0  0  0  0  0  0999 V2000
  141.0140   71.9950  221.2400 O   0  0  0  0  0  0  0  0  0  0  0  0
  140.4330   72.3870  222.3090 C   0  0  0  0  0  0  0  0  0  0  0  0
  139.9710   73.7630  222.3460 N   0  0  0  0  0  0  0  0  0  0  0  0
  140.1350   74.6610  221.2580 C   0  0  0  0  0  0  0  0  0  0  0  0
  140.1590   76.0950  221.4670 C   0  0  0  0  0  0  0  0  0  0  0  0
  139.1830   76.5310  222.2160 O   0  0  0  0  0  0  0  0  0  0  0  0
  141.0320   77.0930  221.0110 N   0  0  0  0  0  0  0  0  0  0  0  0
  142.0390   76.8670  219.9470 C   0  0  0  0  0  0  0  0  0  0  0  0
  142.1960   78.2060  219.2450 C   0  0  0  0  0  0  0  0  0  0  0  0
  140.9400   79.0020  219.1400 C   0  0  0  0  0  0  0  0  0  0  0  0
  140.3070   79.2650  220.4960 C   0  0  0  0  0  0  0  0  0  0  0  0
  141.0650   78.4570  221.5360 C   0  0  1  0  0  0  0  0  0  0  0  0
  140.6240   78.6420  222.9290 C   0  0  0  0  0  0  0  0  0  0  0  0
  141.8500   78.6910  223.8160 C   0  0  0  0  0  0  0  0  0  0  0  0
  142.3890   80.1070  223.7620 C   0  0  0  0  0  0  0  0  0  0  0  0
  141.3360   80.9370  223.0930 C   0  0  0  0  0  0  0  0  0  0  0  0
  140.1020   80.0700  223.1320 C   0  0  0  0  0  0  0  0  0  0  0  0
  140.2370   71.5020  223.4500 C   0  0  0  0  0  0  0  0  0  0  0  0
  139.6220   70.2890  223.2140 C   0  0  0  0  0  0  0  0  0  0  0  0
  139.4450   69.4580  224.3240 C   0  0  0  0  0  0  0  0  0  0  0  0
  139.8730   69.8490  225.5800 C   0  0  0  0  0  0  0  0  0  0  0  0
  139.6990   69.0240  226.6900 C   0  0  0  0  0  0  0  0  0  0  0  0
  140.1500   69.4870  227.8960 C   0  0  0  0  0  0  0  0  0  0  0  0
  139.9850   68.6900  228.9790 F   0  0  0  0  0  0  0  0  0  0  0  0
  140.7600   70.7040  228.0860 C   0  0  0  0  0  0  0  0  0  0  0  0
  140.9300   71.5150  226.9960 C   0  0  0  0  0  0  0  0  0  0  0  0
  140.4870   71.0800  225.7640 C   0  0  0  0  0  0  0  0  0  0  0  0
  140.6520   71.8720  224.6930 N   0  0  0  0  0  0  0  0  0  0  0  0
  139.5060   74.0180  223.2560 H   0  0  0  0  0  0  0  0  0  0  0  0
  141.0899   74.3995  220.7787 H   0  0  0  0  0  0  0  0  0  0  0  0
  139.2069   74.5170  220.6854 H   0  0  0  0  0  0  0  0  0  0  0  0
  142.9962   76.5482  220.3852 H   0  0  0  0  0  0  0  0  0  0  0  0
  141.7258   76.0754  219.2504 H   0  0  0  0  0  0  0  0  0  0  0  0
  142.9341   78.8014  219.8025 H   0  0  0  0  0  0  0  0  0  0  0  0
  142.5112   77.9832  218.2149 H   0  0  0  0  0  0  0  0  0  0  0  0
  141.1716   79.9667  218.6650 H   0  0  0  0  0  0  0  0  0  0  0  0
  140.2230   78.4206  218.5418 H   0  0  0  0  0  0  0  0  0  0  0  0
  140.3722   80.3365  220.7363 H   0  0  0  0  0  0  0  0  0  0  0  0
  139.2468   78.9721  220.4847 H   0  0  0  0  0  0  0  0  0  0  0  0
  142.1012   78.8050  221.6593 H   0  0  0  0  0  0  0  0  0  0  0  0
  139.8946   77.8474  223.1449 H   0  0  0  0  0  0  0  0  0  0  0  0
  141.5775   78.4311  224.8495 H   0  0  0  0  0  0  0  0  0  0  0  0
  142.6084   77.9722  223.4723 H   0  0  0  0  0  0  0  0  0  0  0  0
  142.5784   80.4807  224.7791 H   0  0  0  0  0  0  0  0  0  0  0  0
  143.3399   80.1503  223.2107 H   0  0  0  0  0  0  0  0  0  0  0  0
  141.1711   81.8754  223.6427 H   0  0  0  0  0  0  0  0  0  0  0  0
  141.6152   81.2271  222.0693 H   0  0  0  0  0  0  0  0  0  0  0  0
  139.5930   80.1628  224.1028 H   0  0  0  0  0  0  0  0  0  0  0  0
  139.3666   80.3575  222.3662 H   0  0  0  0  0  0  0  0  0  0  0  0
  139.2896   69.9927  222.2082 H   0  0  0  0  0  0  0  0  0  0  0  0
  138.9586   68.4796  224.1970 H   0  0  0  0  0  0  0  0  0  0  0  0
  139.2178   68.0390  226.5999 H   0  0  0  0  0  0  0  0  0  0  0  0
  141.1013   71.0170  229.0838 H   0  0  0  0  0  0  0  0  0  0  0  0
  141.4123   72.4981  227.1010 H   0  0  0  0  0  0  0  0  0  0  0  0
  1  2  2  0
  2  3  1  0
  3  4  1  0
  4  5  1  0
  5  6  2  0
  5  7  1  0
  7  8  1  0
  8  9  1  0
  9 10  1  0
 10 11  1  0
 11 12  1  0
 12 13  1  0
 13 14  1  0
 14 15  1  0
 15 16  1  0
 16 17  1  0
  2 18  1  0
 18 19  2  0
 19 20  1  0
 20 21  2  0
 21 22  1  0
 22 23  2  0
 23 24  1  0
 23 25  1  0
 25 26  2  0
 26 27  1  0
 27 28  2  0
 12  7  1  0
 17 13  1  0
 28 18  1  0
 27 21  1  0
  3 29  1  0
  4 30  1  0
  4 31  1  0
  8 32  1  0
  8 33  1  0
  9 34  1  0
  9 35  1  0
 10 36  1  0
 10 37  1  0
 11 38  1  0
 11 39  1  0
 12 40  1  1
 13 41  1  0
 14 42  1  0
 14 43  1  0
 15 44  1  0
 15 45  1  0
 16 46  1  0
 16 47  1  0
 17 48  1  0
 17 49  1  0
 19 50  1  0
 20 51  1  0
 22 52  1  0
 25 53  1  0
 26 54  1  0
M  END
>  <smiles>  (76) 
O=C(NCC(=O)N1CCCCC1C1CCCC1)c1ccc2cc(F)ccc2n1

>  <score_type>  (76) 
oracle

>  <origin>  (76) 
autodockgpu

>  <m_score__min__energy>  (76) 
-9.0899999999999999

>  <m_primary>  (76) 
energy

>  <rmsd>  (76) 
2.406299846939725

>  <m_score__min__rmsd>  (76) 
2.406299846939725

>  <meeko>  (76) 
{"free_energy": -8.78, "intermolecular_energy": -10.28, "internal_energy": -1.29, "cluster_size": 40, "cluster_id": 1, "rank_in_cluster": 8}

>  <energy>  (76) 
-8.16

>  <cluster_rmsd>  (76) 
1.05

>  <cluster>  (76) 
1

$$$$

     RDKit          3D

 54 57  0  0  0  0  0  0  0  0999 V2000
  139.9850   71.0820  221.1960 O   0  0  0  0  0  0  0  0  0  0  0  0
  139.8660   71.5820  222.3660 C   0  0  0  0  0  0  0  0  0  0  0  0
  139.7570   73.0260  222.4600 N   0  0  0  0  0  0  0  0  0  0  0  0
  139.7730   73.8780  221.3240 C   0  0  0  0  0  0  0  0  0  0  0  0
  140.9440   74.6650  220.9930 C   0  0  0  0  0  0  0  0  0  0  0  0
  141.3410   75.4460  221.9610 O   0  0  0  0  0  0  0  0  0  0  0  0
  141.7210   74.7420  219.8290 N   0  0  0  0  0  0  0  0  0  0  0  0
  141.1510   75.0130  218.4880 C   0  0  0  0  0  0  0  0  0  0  0  0
  142.2400   75.7480  217.7230 C   0  0  0  0  0  0  0  0  0  0  0  0
  143.0640   76.6710  218.5530 C   0  0  0  0  0  0  0  0  0  0  0  0
  143.7220   75.9640  219.7260 C   0  0  0  0  0  0  0  0  0  0  0  0
  143.1700   74.5510  219.7950 C   0  0  1  0  0  0  0  0  0  0  0  0
  143.7500   73.6930  220.8430 C   0  0  0  0  0  0  0  0  0  0  0  0
  143.5490   72.2470  220.4430 C   0  0  0  0  0  0  0  0  0  0  0  0
  144.6640   71.8860  219.4830 C   0  0  0  0  0  0  0  0  0  0  0  0
  145.6600   73.0040  219.5460 C   0  0  0  0  0  0  0  0  0  0  0  0
  145.2820   73.7630  220.7950 C   0  0  0  0  0  0  0  0  0  0  0  0
  139.8390   70.7500  223.5620 C   0  0  0  0  0  0  0  0  0  0  0  0
  139.2420   69.5100  223.4590 C   0  0  0  0  0  0  0  0  0  0  0  0
  139.2290   68.7320  224.6200 C   0  0  0  0  0  0  0  0  0  0  0  0
  139.7900   69.1970  225.7950 C   0  0  0  0  0  0  0  0  0  0  0  0
  139.7800   68.4240  226.9550 C   0  0  0  0  0  0  0  0  0  0  0  0
  140.3560   68.9600  228.0750 C   0  0  0  0  0  0  0  0  0  0  0  0
  140.3500   68.2150  229.2050 F   0  0  0  0  0  0  0  0  0  0  0  0
  140.9420   70.2020  228.1320 C   0  0  0  0  0  0  0  0  0  0  0  0
  140.9520   70.9620  226.9930 C   0  0  0  0  0  0  0  0  0  0  0  0
  140.3790   70.4530  225.8450 C   0  0  0  0  0  0  0  0  0  0  0  0
  140.3870   71.1940  224.7260 N   0  0  0  0  0  0  0  0  0  0  0  0
  139.6640   73.3690  223.4520 H   0  0  0  0  0  0  0  0  0  0  0  0
  139.5700   73.2390  220.4520 H   0  0  0  0  0  0  0  0  0  0  0  0
  139.0341   74.6479  221.5910 H   0  0  0  0  0  0  0  0  0  0  0  0
  140.8951   74.0706  217.9817 H   0  0  0  0  0  0  0  0  0  0  0  0
  140.2262   75.6054  218.5505 H   0  0  0  0  0  0  0  0  0  0  0  0
  142.9096   74.9993  217.2744 H   0  0  0  0  0  0  0  0  0  0  0  0
  141.7293   76.3723  216.9750 H   0  0  0  0  0  0  0  0  0  0  0  0
  143.8490   77.1099  217.9196 H   0  0  0  0  0  0  0  0  0  0  0  0
  142.3951   77.4438  218.9596 H   0  0  0  0  0  0  0  0  0  0  0  0
  144.8116   75.9319  219.5784 H   0  0  0  0  0  0  0  0  0  0  0  0
  143.5110   76.5017  220.6621 H   0  0  0  0  0  0  0  0  0  0  0  0
  143.4655   73.9464  218.9248 H   0  0  0  0  0  0  0  0  0  0  0  0
  143.3021   74.0036  221.7984 H   0  0  0  0  0  0  0  0  0  0  0  0
  143.5938   71.6008  221.3320 H   0  0  0  0  0  0  0  0  0  0  0  0
  142.5663   72.1071  219.9689 H   0  0  0  0  0  0  0  0  0  0  0  0
  145.1354   70.9398  219.7870 H   0  0  0  0  0  0  0  0  0  0  0  0
  144.2805   71.7527  218.4607 H   0  0  0  0  0  0  0  0  0  0  0  0
  146.6844   72.6107  219.6230 H   0  0  0  0  0  0  0  0  0  0  0  0
  145.6429   73.6362  218.6460 H   0  0  0  0  0  0  0  0  0  0  0  0
  145.7203   73.2883  221.6853 H   0  0  0  0  0  0  0  0  0  0  0  0
  145.6516   74.7990  220.7810 H   0  0  0  0  0  0  0  0  0  0  0  0
  138.8012   69.1540  222.5162 H   0  0  0  0  0  0  0  0  0  0  0  0
  138.7655   67.7347  224.5986 H   0  0  0  0  0  0  0  0  0  0  0  0
  139.3267   67.4219  226.9697 H   0  0  0  0  0  0  0  0  0  0  0  0
  141.3898   70.5745  229.0651 H   0  0  0  0  0  0  0  0  0  0  0  0
  141.4094   71.9624  226.9929 H   0  0  0  0  0  0  0  0  0  0  0  0
  1  2  2  0
  2  3  1  0
  3  4  1  0
  4  5  1  0
  5  6  2  0
  5  7  1  0
  7  8  1  0
  8  9  1  0
  9 10  1  0
 10 11  1  0
 11 12  1  0
 12 13  1  0
 13 14  1  0
 14 15  1  0
 15 16  1  0
 16 17  1  0
  2 18  1  0
 18 19  2  0
 19 20  1  0
 20 21  2  0
 21 22  1  0
 22 23  2  0
 23 24  1  0
 23 25  1  0
 25 26  2  0
 26 27  1  0
 27 28  2  0
 12  7  1  0
 17 13  1  0
 28 18  1  0
 27 21  1  0
  3 29  1  0
  4 30  1  0
  4 31  1  0
  8 32  1  0
  8 33  1  0
  9 34  1  0
  9 35  1  0
 10 36  1  0
 10 37  1  0
 11 38  1  0
 11 39  1  0
 12 40  1  6
 13 41  1  0
 14 42  1  0
 14 43  1  0
 15 44  1  0
 15 45  1  0
 16 46  1  0
 16 47  1  0
 17 48  1  0
 17 49  1  0
 19 50  1  0
 20 51  1  0
 22 52  1  0
 25 53  1  0
 26 54  1  0
M  END
>  <smiles>  (77) 
O=C(NCC(=O)N1CCCCC1C1CCCC1)c1ccc2cc(F)ccc2n1

>  <score_type>  (77) 
oracle

>  <origin>  (77) 
autodockgpu

>  <m_score__min__energy>  (77) 
-9.0899999999999999

>  <m_primary>  (77) 
energy

>  <rmsd>  (77) 
1.9880323929598889

>  <m_score__min__rmsd>  (77) 
1.9880323929598889

>  <meeko>  (77) 
{"free_energy": -7.98, "intermolecular_energy": -9.47, "internal_energy": -1.82, "cluster_size": 5, "cluster_id": 3, "rank_in_cluster": 1}

>  <energy>  (77) 
-8.16

>  <cluster_rmsd>  (77) 
1.89

>  <cluster>  (77) 
1

$$$$

     RDKit          3D

 54 57  0  0  0  0  0  0  0  0999 V2000
  136.1640   77.5360  223.0080 O   0  0  0  0  0  0  0  0  0  0  0  0
  136.3350   76.3130  223.3400 C   0  0  0  0  0  0  0  0  0  0  0  0
  137.4950   75.6340  222.7900 N   0  0  0  0  0  0  0  0  0  0  0  0
  138.4230   76.2700  221.9230 C   0  0  0  0  0  0  0  0  0  0  0  0
  139.7840   75.7890  221.7990 C   0  0  0  0  0  0  0  0  0  0  0  0
  139.9470   74.5640  222.2170 O   0  0  0  0  0  0  0  0  0  0  0  0
  140.9510   76.3980  221.3160 N   0  0  0  0  0  0  0  0  0  0  0  0
  142.0010   75.6660  220.5700 C   0  0  0  0  0  0  0  0  0  0  0  0
  142.6150   76.6850  219.6240 C   0  0  0  0  0  0  0  0  0  0  0  0
  141.6500   77.6800  219.0750 C   0  0  0  0  0  0  0  0  0  0  0  0
  140.9240   78.4450  220.1690 C   0  0  0  0  0  0  0  0  0  0  0  0
  141.2760   77.8110  221.5030 C   0  0  1  0  0  0  0  0  0  0  0  0
  140.7060   78.4710  222.6900 C   0  0  0  0  0  0  0  0  0  0  0  0
  141.8040   78.6340  223.7200 C   0  0  0  0  0  0  0  0  0  0  0  0
  142.5810   79.8830  223.3560 C   0  0  0  0  0  0  0  0  0  0  0  0
  141.7780   80.5940  222.3100 C   0  0  0  0  0  0  0  0  0  0  0  0
  140.4180   79.9470  222.3860 C   0  0  0  0  0  0  0  0  0  0  0  0
  135.4140   75.6190  224.2300 C   0  0  0  0  0  0  0  0  0  0  0  0
  134.5300   76.3900  224.9570 C   0  0  0  0  0  0  0  0  0  0  0  0
  133.6570   75.7000  225.8020 C   0  0  0  0  0  0  0  0  0  0  0  0
  133.6940   74.3210  225.8900 C   0  0  0  0  0  0  0  0  0  0  0  0
  132.8250   73.6280  226.7320 C   0  0  0  0  0  0  0  0  0  0  0  0
  132.9280   72.2640  226.7600 C   0  0  0  0  0  0  0  0  0  0  0  0
  132.0870   71.5850  227.5750 F   0  0  0  0  0  0  0  0  0  0  0  0
  133.8240   71.5340  226.0160 C   0  0  0  0  0  0  0  0  0  0  0  0
  134.6780   72.2140  225.1900 C   0  0  0  0  0  0  0  0  0  0  0  0
  134.6030   73.5900  225.1370 C   0  0  0  0  0  0  0  0  0  0  0  0
  135.4370   74.2610  224.3270 N   0  0  0  0  0  0  0  0  0  0  0  0
  137.5720   74.6310  223.1020 H   0  0  0  0  0  0  0  0  0  0  0  0
  137.9852   76.2309  220.9146 H   0  0  0  0  0  0  0  0  0  0  0  0
  138.5581   77.2539  222.3959 H   0  0  0  0  0  0  0  0  0  0  0  0
  142.7625   75.2762  221.2615 H   0  0  0  0  0  0  0  0  0  0  0  0
  141.5883   74.8030  220.0270 H   0  0  0  0  0  0  0  0  0  0  0  0
  143.3987   77.2313  220.1693 H   0  0  0  0  0  0  0  0  0  0  0  0
  143.0034   76.1191  218.7644 H   0  0  0  0  0  0  0  0  0  0  0  0
  142.1999   78.3969  218.4475 H   0  0  0  0  0  0  0  0  0  0  0  0
  140.8961   77.1307  218.4919 H   0  0  0  0  0  0  0  0  0  0  0  0
  141.2421   79.4980  220.1614 H   0  0  0  0  0  0  0  0  0  0  0  0
  139.8372   78.4055  220.0039 H   0  0  0  0  0  0  0  0  0  0  0  0
  142.3388   77.9385  221.7565 H   0  0  0  0  0  0  0  0  0  0  0  0
  139.8295   77.8816  222.9971 H   0  0  0  0  0  0  0  0  0  0  0  0
  141.3661   78.7420  224.7233 H   0  0  0  0  0  0  0  0  0  0  0  0
  142.4635   77.7537  223.7290 H   0  0  0  0  0  0  0  0  0  0  0  0
  142.7053   80.5245  224.2409 H   0  0  0  0  0  0  0  0  0  0  0  0
  143.5854   79.6323  222.9841 H   0  0  0  0  0  0  0  0  0  0  0  0
  141.7117   81.6692  222.5327 H   0  0  0  0  0  0  0  0  0  0  0  0
  142.2267   80.5163  221.3087 H   0  0  0  0  0  0  0  0  0  0  0  0
  139.8178   80.3987  223.1896 H   0  0  0  0  0  0  0  0  0  0  0  0
  139.8428   80.0764  221.4573 H   0  0  0  0  0  0  0  0  0  0  0  0
  134.5136   77.4869  224.8758 H   0  0  0  0  0  0  0  0  0  0  0  0
  132.9297   76.2623  226.4060 H   0  0  0  0  0  0  0  0  0  0  0  0
  132.0850   74.1576  227.3500 H   0  0  0  0  0  0  0  0  0  0  0  0
  133.8540   70.4364  226.0823 H   0  0  0  0  0  0  0  0  0  0  0  0
  135.4130   71.6710  224.5777 H   0  0  0  0  0  0  0  0  0  0  0  0
  1  2  2  0
  2  3  1  0
  3  4  1  0
  4  5  1  0
  5  6  2  0
  5  7  1  0
  7  8  1  0
  8  9  1  0
  9 10  1  0
 10 11  1  0
 11 12  1  0
 12 13  1  0
 13 14  1  0
 14 15  1  0
 15 16  1  0
 16 17  1  0
  2 18  1  0
 18 19  2  0
 19 20  1  0
 20 21  2  0
 21 22  1  0
 22 23  2  0
 23 24  1  0
 23 25  1  0
 25 26  2  0
 26 27  1  0
 27 28  2  0
 12  7  1  0
 17 13  1  0
 28 18  1  0
 27 21  1  0
  3 29  1  0
  4 30  1  0
  4 31  1  0
  8 32  1  0
  8 33  1  0
  9 34  1  0
  9 35  1  0
 10 36  1  0
 10 37  1  0
 11 38  1  0
 11 39  1  0
 12 40  1  1
 13 41  1  0
 14 42  1  0
 14 43  1  0
 15 44  1  0
 15 45  1  0
 16 46  1  0
 16 47  1  0
 17 48  1  0
 17 49  1  0
 19 50  1  0
 20 51  1  0
 22 52  1  0
 25 53  1  0
 26 54  1  0
M  END
>  <smiles>  (78) 
O=C(NCC(=O)N1CCCCC1C1CCCC1)c1ccc2cc(F)ccc2n1

>  <score_type>  (78) 
oracle

>  <origin>  (78) 
autodockgpu

>  <m_score__min__energy>  (78) 
-9.0899999999999999

>  <m_primary>  (78) 
energy

>  <rmsd>  (78) 
5.930125962022321

>  <m_score__min__rmsd>  (78) 
5.930125962022321

>  <meeko>  (78) 
{"free_energy": -7.54, "intermolecular_energy": -9.03, "internal_energy": -1.83, "cluster_size": 2, "cluster_id": 4, "rank_in_cluster": 2}

>  <energy>  (78) 
-8.16

>  <cluster_rmsd>  (78) 
1.91

>  <cluster>  (78) 
1

$$$$

     RDKit          3D

 54 57  0  0  0  0  0  0  0  0999 V2000
  141.3460   72.4420  221.7660 O   0  0  0  0  0  0  0  0  0  0  0  0
  140.3560   72.5170  222.5710 C   0  0  0  0  0  0  0  0  0  0  0  0
  139.3930   73.5780  222.3380 N   0  0  0  0  0  0  0  0  0  0  0  0
  139.5120   74.5070  221.2700 C   0  0  0  0  0  0  0  0  0  0  0  0
  139.9380   75.8720  221.5060 C   0  0  0  0  0  0  0  0  0  0  0  0
  139.0980   76.5650  222.2250 O   0  0  0  0  0  0  0  0  0  0  0  0
  141.0790   76.5790  221.1020 N   0  0  0  0  0  0  0  0  0  0  0  0
  142.1650   75.9760  220.2940 C   0  0  0  0  0  0  0  0  0  0  0  0
  142.7370   77.1160  219.4660 C   0  0  0  0  0  0  0  0  0  0  0  0
  141.7330   78.1200  219.0160 C   0  0  0  0  0  0  0  0  0  0  0  0
  140.9670   78.7330  220.1770 C   0  0  0  0  0  0  0  0  0  0  0  0
  141.3410   77.9770  221.4400 C   0  0  1  0  0  0  0  0  0  0  0  0
  140.7350   78.4820  222.6850 C   0  0  0  0  0  0  0  0  0  0  0  0
  141.8220   78.5970  223.7330 C   0  0  0  0  0  0  0  0  0  0  0  0
  142.5330   79.9160  223.5020 C   0  0  0  0  0  0  0  0  0  0  0  0
  141.6950   80.6860  222.5280 C   0  0  0  0  0  0  0  0  0  0  0  0
  140.3700   79.9650  222.5300 C   0  0  0  0  0  0  0  0  0  0  0  0
  140.1880   71.5850  223.6780 C   0  0  0  0  0  0  0  0  0  0  0  0
  139.5500   70.3910  223.4120 C   0  0  0  0  0  0  0  0  0  0  0  0
  139.4020   69.5140  224.4900 C   0  0  0  0  0  0  0  0  0  0  0  0
  139.8760   69.8460  225.7460 C   0  0  0  0  0  0  0  0  0  0  0  0
  139.7310   68.9740  226.8250 C   0  0  0  0  0  0  0  0  0  0  0  0
  140.2280   69.3800  228.0340 C   0  0  0  0  0  0  0  0  0  0  0  0
  140.0910   68.5380  229.0860 F   0  0  0  0  0  0  0  0  0  0  0  0
  140.8600   70.5800  228.2540 C   0  0  0  0  0  0  0  0  0  0  0  0
  141.0020   71.4360  227.1950 C   0  0  0  0  0  0  0  0  0  0  0  0
  140.5120   71.0610  225.9610 C   0  0  0  0  0  0  0  0  0  0  0  0
  140.6500   71.8960  224.9210 N   0  0  0  0  0  0  0  0  0  0  0  0
  138.6070   73.5830  223.0380 H   0  0  0  0  0  0  0  0  0  0  0  0
  140.2315   74.0744  220.5592 H   0  0  0  0  0  0  0  0  0  0  0  0
  138.4686   74.6343  220.9458 H   0  0  0  0  0  0  0  0  0  0  0  0
  142.9397   75.5499  220.9484 H   0  0  0  0  0  0  0  0  0  0  0  0
  141.7949   75.1570  219.6598 H   0  0  0  0  0  0  0  0  0  0  0  0
  143.4931   77.6353  220.0732 H   0  0  0  0  0  0  0  0  0  0  0  0
  143.1531   76.6613  218.5549 H   0  0  0  0  0  0  0  0  0  0  0  0
  142.2544   78.9225  218.4736 H   0  0  0  0  0  0  0  0  0  0  0  0
  141.0074   77.6032  218.3707 H   0  0  0  0  0  0  0  0  0  0  0  0
  141.2374   79.7939  220.2835 H   0  0  0  0  0  0  0  0  0  0  0  0
  139.8839   78.6641  219.9980 H   0  0  0  0  0  0  0  0  0  0  0  0
  142.3960   78.1231  221.7150 H   0  0  0  0  0  0  0  0  0  0  0  0
  139.8905   77.8193  222.9253 H   0  0  0  0  0  0  0  0  0  0  0  0
  141.3781   78.5798  224.7393 H   0  0  0  0  0  0  0  0  0  0  0  0
  142.5269   77.7560  223.6570 H   0  0  0  0  0  0  0  0  0  0  0  0
  142.6222   80.4704  224.4479 H   0  0  0  0  0  0  0  0  0  0  0  0
  143.5497   79.7571  223.1134 H   0  0  0  0  0  0  0  0  0  0  0  0
  141.5726   81.7284  222.8573 H   0  0  0  0  0  0  0  0  0  0  0  0
  142.1481   80.7327  221.5267 H   0  0  0  0  0  0  0  0  0  0  0  0
  139.7464   80.3012  223.3715 H   0  0  0  0  0  0  0  0  0  0  0  0
  139.7893   80.1579  221.6159 H   0  0  0  0  0  0  0  0  0  0  0  0
  139.1783   70.1430  222.4069 H   0  0  0  0  0  0  0  0  0  0  0  0
  138.9016   68.5464  224.3374 H   0  0  0  0  0  0  0  0  0  0  0  0
  139.2366   67.9983  226.7088 H   0  0  0  0  0  0  0  0  0  0  0  0
  141.2406   70.8451  229.2514 H   0  0  0  0  0  0  0  0  0  0  0  0
  141.4994   72.4083  227.3261 H   0  0  0  0  0  0  0  0  0  0  0  0
  1  2  2  0
  2  3  1  0
  3  4  1  0
  4  5  1  0
  5  6  2  0
  5  7  1  0
  7  8  1  0
  8  9  1  0
  9 10  1  0
 10 11  1  0
 11 12  1  0
 12 13  1  0
 13 14  1  0
 14 15  1  0
 15 16  1  0
 16 17  1  0
  2 18  1  0
 18 19  2  0
 19 20  1  0
 20 21  2  0
 21 22  1  0
 22 23  2  0
 23 24  1  0
 23 25  1  0
 25 26  2  0
 26 27  1  0
 27 28  2  0
 12  7  1  0
 17 13  1  0
 28 18  1  0
 27 21  1  0
  3 29  1  0
  4 30  1  0
  4 31  1  0
  8 32  1  0
  8 33  1  0
  9 34  1  0
  9 35  1  0
 10 36  1  0
 10 37  1  0
 11 38  1  0
 11 39  1  0
 12 40  1  1
 13 41  1  0
 14 42  1  0
 14 43  1  0
 15 44  1  0
 15 45  1  0
 16 46  1  0
 16 47  1  0
 17 48  1  0
 17 49  1  0
 19 50  1  0
 20 51  1  0
 22 52  1  0
 25 53  1  0
 26 54  1  0
M  END
>  <smiles>  (79) 
O=C(NCC(=O)N1CCCCC1C1CCCC1)c1ccc2cc(F)ccc2n1

>  <score_type>  (79) 
oracle

>  <origin>  (79) 
autodockgpu

>  <m_score__min__energy>  (79) 
-9.0899999999999999

>  <m_primary>  (79) 
energy

>  <rmsd>  (79) 
2.201844717393221

>  <m_score__min__rmsd>  (79) 
2.201844717393221

>  <meeko>  (79) 
{"free_energy": -9.06, "intermolecular_energy": -10.56, "internal_energy": -1.04, "cluster_size": 40, "cluster_id": 1, "rank_in_cluster": 3}

>  <energy>  (79) 
-8.13

>  <cluster_rmsd>  (79) 
1.93

>  <cluster>  (79) 
1

$$$$

     RDKit          3D

 54 57  0  0  0  0  0  0  0  0999 V2000
  141.0740   72.0550  221.3340 O   0  0  0  0  0  0  0  0  0  0  0  0
  140.4090   72.4330  222.3580 C   0  0  0  0  0  0  0  0  0  0  0  0
  139.8730   73.7820  222.3380 N   0  0  0  0  0  0  0  0  0  0  0  0
  140.0570   74.6700  221.2440 C   0  0  0  0  0  0  0  0  0  0  0  0
  141.3360   75.3070  221.0010 C   0  0  0  0  0  0  0  0  0  0  0  0
  142.3570   74.5160  221.1830 O   0  0  0  0  0  0  0  0  0  0  0  0
  141.6720   76.6110  220.6120 N   0  0  0  0  0  0  0  0  0  0  0  0
  142.6270   76.9130  219.5200 C   0  0  0  0  0  0  0  0  0  0  0  0
  142.1600   78.2300  218.9220 C   0  0  0  0  0  0  0  0  0  0  0  0
  140.6810   78.4080  218.8970 C   0  0  0  0  0  0  0  0  0  0  0  0
  140.0590   78.2830  220.2780 C   0  0  0  0  0  0  0  0  0  0  0  0
  141.1380   77.8180  221.2410 C   0  0  1  0  0  0  0  0  0  0  0  0
  140.7250   77.7040  222.6500 C   0  0  0  0  0  0  0  0  0  0  0  0
  141.8160   78.2960  223.5170 C   0  0  0  0  0  0  0  0  0  0  0  0
  141.6070   79.7980  223.5420 C   0  0  0  0  0  0  0  0  0  0  0  0
  140.2560   80.0490  222.9430 C   0  0  0  0  0  0  0  0  0  0  0  0
  139.5920   78.6940  222.9500 C   0  0  0  0  0  0  0  0  0  0  0  0
  140.1900   71.5580  223.5020 C   0  0  0  0  0  0  0  0  0  0  0  0
  139.4760   70.3970  223.2850 C   0  0  0  0  0  0  0  0  0  0  0  0
  139.2790   69.5750  224.3990 C   0  0  0  0  0  0  0  0  0  0  0  0
  139.7820   69.9250  225.6380 C   0  0  0  0  0  0  0  0  0  0  0  0
  139.5880   69.1080  226.7520 C   0  0  0  0  0  0  0  0  0  0  0  0
  140.1180   69.5280  227.9410 C   0  0  0  0  0  0  0  0  0  0  0  0
  139.9340   68.7400  229.0270 F   0  0  0  0  0  0  0  0  0  0  0  0
  140.8240   70.6950  228.1120 C   0  0  0  0  0  0  0  0  0  0  0  0
  141.0140   71.4970  227.0190 C   0  0  0  0  0  0  0  0  0  0  0  0
  140.4940   71.1050  225.8030 C   0  0  0  0  0  0  0  0  0  0  0  0
  140.6780   71.8880  224.7290 N   0  0  0  0  0  0  0  0  0  0  0  0
  139.3400   74.0280  223.2130 H   0  0  0  0  0  0  0  0  0  0  0  0
  139.8152   74.0994  220.3352 H   0  0  0  0  0  0  0  0  0  0  0  0
  139.4134   75.5201  221.5144 H   0  0  0  0  0  0  0  0  0  0  0  0
  143.6473   77.0126  219.9187 H   0  0  0  0  0  0  0  0  0  0  0  0
  142.6527   76.1106  218.7680 H   0  0  0  0  0  0  0  0  0  0  0  0
  142.5946   79.0491  219.5138 H   0  0  0  0  0  0  0  0  0  0  0  0
  142.4929   78.2327  217.8736 H   0  0  0  0  0  0  0  0  0  0  0  0
  140.4521   79.4062  218.4955 H   0  0  0  0  0  0  0  0  0  0  0  0
  140.2581   77.6128  218.2655 H   0  0  0  0  0  0  0  0  0  0  0  0
  139.6671   79.2590  220.6002 H   0  0  0  0  0  0  0  0  0  0  0  0
  139.2289   77.5615  220.2583 H   0  0  0  0  0  0  0  0  0  0  0  0
  141.9277   78.5716  221.3766 H   0  0  0  0  0  0  0  0  0  0  0  0
  140.4760   76.6476  222.8289 H   0  0  0  0  0  0  0  0  0  0  0  0
  141.7485   77.8895  224.5369 H   0  0  0  0  0  0  0  0  0  0  0  0
  142.8098   78.0477  223.1161 H   0  0  0  0  0  0  0  0  0  0  0  0
  141.6388   80.1690  224.5770 H   0  0  0  0  0  0  0  0  0  0  0  0
  142.3952   80.3190  222.9788 H   0  0  0  0  0  0  0  0  0  0  0  0
  139.6861   80.7662  223.5520 H   0  0  0  0  0  0  0  0  0  0  0  0
  140.3159   80.4843  221.9346 H   0  0  0  0  0  0  0  0  0  0  0  0
  139.1452   78.4859  223.9334 H   0  0  0  0  0  0  0  0  0  0  0  0
  138.7752   78.6268  222.2163 H   0  0  0  0  0  0  0  0  0  0  0  0
  139.0840   70.1331  222.2917 H   0  0  0  0  0  0  0  0  0  0  0  0
  138.7159   68.6367  224.2877 H   0  0  0  0  0  0  0  0  0  0  0  0
  139.0305   68.1627  226.6771 H   0  0  0  0  0  0  0  0  0  0  0  0
  141.2242   70.9759  229.0974 H   0  0  0  0  0  0  0  0  0  0  0  0
  141.5731   72.4401  227.1091 H   0  0  0  0  0  0  0  0  0  0  0  0
  1  2  2  0
  2  3  1  0
  3  4  1  0
  4  5  1  0
  5  6  2  0
  5  7  1  0
  7  8  1  0
  8  9  1  0
  9 10  1  0
 10 11  1  0
 11 12  1  0
 12 13  1  0
 13 14  1  0
 14 15  1  0
 15 16  1  0
 16 17  1  0
  2 18  1  0
 18 19  2  0
 19 20  1  0
 20 21  2  0
 21 22  1  0
 22 23  2  0
 23 24  1  0
 23 25  1  0
 25 26  2  0
 26 27  1  0
 27 28  2  0
 12  7  1  0
 17 13  1  0
 28 18  1  0
 27 21  1  0
  3 29  1  0
  4 30  1  0
  4 31  1  0
  8 32  1  0
  8 33  1  0
  9 34  1  0
  9 35  1  0
 10 36  1  0
 10 37  1  0
 11 38  1  0
 11 39  1  0
 12 40  1  1
 13 41  1  0
 14 42  1  0
 14 43  1  0
 15 44  1  0
 15 45  1  0
 16 46  1  0
 16 47  1  0
 17 48  1  0
 17 49  1  0
 19 50  1  0
 20 51  1  0
 22 52  1  0
 25 53  1  0
 26 54  1  0
M  END
>  <smiles>  (80) 
O=C(NCC(=O)N1CCCCC1C1CCCC1)c1ccc2cc(F)ccc2n1

>  <score_type>  (80) 
oracle

>  <origin>  (80) 
autodockgpu

>  <m_score__min__energy>  (80) 
-9.0899999999999999

>  <m_primary>  (80) 
energy

>  <rmsd>  (80) 
2.3346684423158903

>  <m_score__min__rmsd>  (80) 
2.3346684423158903

>  <meeko>  (80) 
{"free_energy": -8.37, "intermolecular_energy": -9.86, "internal_energy": -1.38, "cluster_size": 40, "cluster_id": 1, "rank_in_cluster": 15}

>  <energy>  (80) 
-8.07

>  <cluster_rmsd>  (80) 
1.93

>  <cluster>  (80) 
1

$$$$

     RDKit          3D

 54 57  0  0  0  0  0  0  0  0999 V2000
  137.6640   74.9320  222.3230 O   0  0  0  0  0  0  0  0  0  0  0  0
  138.8750   75.3420  222.3060 C   0  0  0  0  0  0  0  0  0  0  0  0
  139.9020   74.3590  222.0110 N   0  0  0  0  0  0  0  0  0  0  0  0
  139.6110   72.9950  221.7410 C   0  0  0  0  0  0  0  0  0  0  0  0
  139.8580   71.9650  222.7310 C   0  0  0  0  0  0  0  0  0  0  0  0
  141.0830   71.5160  222.7240 O   0  0  0  0  0  0  0  0  0  0  0  0
  139.0240   71.3660  223.6860 N   0  0  0  0  0  0  0  0  0  0  0  0
  137.5480   71.4930  223.6700 C   0  0  0  0  0  0  0  0  0  0  0  0
  137.0210   70.2030  224.2790 C   0  0  0  0  0  0  0  0  0  0  0  0
  137.8230   68.9910  223.9510 C   0  0  0  0  0  0  0  0  0  0  0  0
  139.2800   69.1320  224.3600 C   0  0  0  0  0  0  0  0  0  0  0  0
  139.5070   70.5660  224.8100 C   0  0  1  0  0  0  0  0  0  0  0  0
  140.8600   70.8690  225.3060 C   0  0  0  0  0  0  0  0  0  0  0  0
  140.7430   71.8790  226.4280 C   0  0  0  0  0  0  0  0  0  0  0  0
  140.4140   71.1120  227.6930 C   0  0  0  0  0  0  0  0  0  0  0  0
  140.6210   69.6610  227.3770 C   0  0  0  0  0  0  0  0  0  0  0  0
  141.4140   69.6740  226.0940 C   0  0  0  0  0  0  0  0  0  0  0  0
  139.2240   76.7310  222.5710 C   0  0  0  0  0  0  0  0  0  0  0  0
  138.1880   77.6350  222.6840 C   0  0  0  0  0  0  0  0  0  0  0  0
  138.5490   78.9610  222.9390 C   0  0  0  0  0  0  0  0  0  0  0  0
  139.8770   79.3250  223.0660 C   0  0  0  0  0  0  0  0  0  0  0  0
  140.2420   80.6470  223.3200 C   0  0  0  0  0  0  0  0  0  0  0  0
  141.5780   80.9210  223.4320 C   0  0  0  0  0  0  0  0  0  0  0  0
  141.9400   82.2020  223.6790 F   0  0  0  0  0  0  0  0  0  0  0  0
  142.5790   79.9870  223.3120 C   0  0  0  0  0  0  0  0  0  0  0  0
  142.2210   78.6890  223.0630 C   0  0  0  0  0  0  0  0  0  0  0  0
  140.8830   78.3760  222.9440 C   0  0  0  0  0  0  0  0  0  0  0  0
  140.5270   77.1050  222.7000 N   0  0  0  0  0  0  0  0  0  0  0  0
  140.8750   74.7630  222.0160 H   0  0  0  0  0  0  0  0  0  0  0  0
  138.5386   72.9464  221.5011 H   0  0  0  0  0  0  0  0  0  0  0  0
  140.3348   72.7469  220.9507 H   0  0  0  0  0  0  0  0  0  0  0  0
  137.2304   72.3587  224.2697 H   0  0  0  0  0  0  0  0  0  0  0  0
  137.1635   71.6495  222.6513 H   0  0  0  0  0  0  0  0  0  0  0  0
  137.0073   70.3201  225.3727 H   0  0  0  0  0  0  0  0  0  0  0  0
  136.0208   70.0411  223.8507 H   0  0  0  0  0  0  0  0  0  0  0  0
  137.3902   68.1278  224.4778 H   0  0  0  0  0  0  0  0  0  0  0  0
  137.7927   68.8540  222.8600 H   0  0  0  0  0  0  0  0  0  0  0  0
  139.5037   68.4418  225.1868 H   0  0  0  0  0  0  0  0  0  0  0  0
  139.9389   68.8893  223.5133 H   0  0  0  0  0  0  0  0  0  0  0  0
  138.9528   70.8063  225.7293 H   0  0  0  0  0  0  0  0  0  0  0  0
  141.4622   71.1698  224.4360 H   0  0  0  0  0  0  0  0  0  0  0  0
  141.6946   72.4170  226.5508 H   0  0  0  0  0  0  0  0  0  0  0  0
  139.9592   72.6182  226.2061 H   0  0  0  0  0  0  0  0  0  0  0  0
  141.0821   71.4221  228.5100 H   0  0  0  0  0  0  0  0  0  0  0  0
  139.3809   71.3049  228.0179 H   0  0  0  0  0  0  0  0  0  0  0  0
  141.1848   69.1630  228.1796 H   0  0  0  0  0  0  0  0  0  0  0  0
  139.6737   69.1099  227.2825 H   0  0  0  0  0  0  0  0  0  0  0  0
  142.4857   69.8095  226.3017 H   0  0  0  0  0  0  0  0  0  0  0  0
  141.3214   68.7295  225.5377 H   0  0  0  0  0  0  0  0  0  0  0  0
  137.1365   77.3293  222.5793 H   0  0  0  0  0  0  0  0  0  0  0  0
  137.7653   79.7262  223.0401 H   0  0  0  0  0  0  0  0  0  0  0  0
  139.4855   81.4384  223.4262 H   0  0  0  0  0  0  0  0  0  0  0  0
  143.6362   80.2736  223.4129 H   0  0  0  0  0  0  0  0  0  0  0  0
  142.9886   77.9080  222.9595 H   0  0  0  0  0  0  0  0  0  0  0  0
  1  2  2  0
  2  3  1  0
  3  4  1  0
  4  5  1  0
  5  6  2  0
  5  7  1  0
  7  8  1  0
  8  9  1  0
  9 10  1  0
 10 11  1  0
 11 12  1  0
 12 13  1  0
 13 14  1  0
 14 15  1  0
 15 16  1  0
 16 17  1  0
  2 18  1  0
 18 19  2  0
 19 20  1  0
 20 21  2  0
 21 22  1  0
 22 23  2  0
 23 24  1  0
 23 25  1  0
 25 26  2  0
 26 27  1  0
 27 28  2  0
 12  7  1  0
 17 13  1  0
 28 18  1  0
 27 21  1  0
  3 29  1  0
  4 30  1  0
  4 31  1  0
  8 32  1  0
  8 33  1  0
  9 34  1  0
  9 35  1  0
 10 36  1  0
 10 37  1  0
 11 38  1  0
 11 39  1  0
 12 40  1  1
 13 41  1  0
 14 42  1  0
 14 43  1  0
 15 44  1  0
 15 45  1  0
 16 46  1  0
 16 47  1  0
 17 48  1  0
 17 49  1  0
 19 50  1  0
 20 51  1  0
 22 52  1  0
 25 53  1  0
 26 54  1  0
M  END
>  <smiles>  (81) 
O=C(NCC(=O)N1CCCCC1C1CCCC1)c1ccc2cc(F)ccc2n1

>  <score_type>  (81) 
oracle

>  <origin>  (81) 
autodockgpu

>  <m_score__min__energy>  (81) 
-9.0899999999999999

>  <m_primary>  (81) 
energy

>  <rmsd>  (81) 
8.62596662604347

>  <m_score__min__rmsd>  (81) 
8.62596662604347

>  <meeko>  (81) 
{"free_energy": -7.84, "intermolecular_energy": -9.33, "internal_energy": -1.61, "cluster_size": 3, "cluster_id": 2, "rank_in_cluster": 3}

>  <energy>  (81) 
-8.05

>  <cluster_rmsd>  (81) 
1.9

>  <cluster>  (81) 
1

$$$$

     RDKit          3D

 54 57  0  0  0  0  0  0  0  0999 V2000
  140.9880   71.4460  221.4780 O   0  0  0  0  0  0  0  0  0  0  0  0
  140.2730   71.8270  222.4670 C   0  0  0  0  0  0  0  0  0  0  0  0
  139.6130   73.1140  222.3490 N   0  0  0  0  0  0  0  0  0  0  0  0
  139.7290   73.9400  221.1990 C   0  0  0  0  0  0  0  0  0  0  0  0
  140.9470   74.6760  220.9240 C   0  0  0  0  0  0  0  0  0  0  0  0
  141.3710   75.3820  221.9360 O   0  0  0  0  0  0  0  0  0  0  0  0
  141.7440   74.7700  219.7740 N   0  0  0  0  0  0  0  0  0  0  0  0
  141.1910   75.0020  218.4190 C   0  0  0  0  0  0  0  0  0  0  0  0
  142.2660   75.7710  217.6670 C   0  0  0  0  0  0  0  0  0  0  0  0
  143.0360   76.7360  218.5010 C   0  0  0  0  0  0  0  0  0  0  0  0
  143.6970   76.0690  219.6960 C   0  0  0  0  0  0  0  0  0  0  0  0
  143.1990   74.6360  219.7720 C   0  0  1  0  0  0  0  0  0  0  0  0
  143.7910   73.8140  220.8420 C   0  0  0  0  0  0  0  0  0  0  0  0
  143.6890   72.3590  220.4390 C   0  0  0  0  0  0  0  0  0  0  0  0
  144.8580   72.0630  219.5190 C   0  0  0  0  0  0  0  0  0  0  0  0
  145.7830   73.2380  219.6160 C   0  0  0  0  0  0  0  0  0  0  0  0
  145.3170   73.9740  220.8480 C   0  0  0  0  0  0  0  0  0  0  0  0
  140.1190   71.0140  223.6660 C   0  0  0  0  0  0  0  0  0  0  0  0
  139.5240   69.7770  223.5230 C   0  0  0  0  0  0  0  0  0  0  0  0
  139.3880   69.0170  224.6880 C   0  0  0  0  0  0  0  0  0  0  0  0
  139.8320   69.4980  225.9060 C   0  0  0  0  0  0  0  0  0  0  0  0
  139.6990   68.7430  227.0710 C   0  0  0  0  0  0  0  0  0  0  0  0
  140.1640   69.2930  228.2350 C   0  0  0  0  0  0  0  0  0  0  0  0
  140.0380   68.5660  229.3700 F   0  0  0  0  0  0  0  0  0  0  0  0
  140.7520   70.5320  228.3320 C   0  0  0  0  0  0  0  0  0  0  0  0
  140.8830   71.2730  227.1880 C   0  0  0  0  0  0  0  0  0  0  0  0
  140.4240   70.7500  225.9970 C   0  0  0  0  0  0  0  0  0  0  0  0
  140.5510   71.4730  224.8730 N   0  0  0  0  0  0  0  0  0  0  0  0
  139.0440   73.3660  223.1990 H   0  0  0  0  0  0  0  0  0  0  0  0
  139.5542   73.2899  220.3291 H   0  0  0  0  0  0  0  0  0  0  0  0
  139.0052   74.7421  221.4055 H   0  0  0  0  0  0  0  0  0  0  0  0
  140.9831   74.0442  217.9196 H   0  0  0  0  0  0  0  0  0  0  0  0
  140.2422   75.5574  218.4553 H   0  0  0  0  0  0  0  0  0  0  0  0
  142.9737   75.0443  217.2415 H   0  0  0  0  0  0  0  0  0  0  0  0
  141.7462   76.3658  216.9015 H   0  0  0  0  0  0  0  0  0  0  0  0
  143.8160   77.1978  217.8778 H   0  0  0  0  0  0  0  0  0  0  0  0
  142.3295   77.4871  218.8840 H   0  0  0  0  0  0  0  0  0  0  0  0
  144.7898   76.0778  219.5706 H   0  0  0  0  0  0  0  0  0  0  0  0
  143.4461   76.6091  220.6208 H   0  0  0  0  0  0  0  0  0  0  0  0
  143.5354   74.0329  218.9158 H   0  0  0  0  0  0  0  0  0  0  0  0
  143.2923   74.0982  221.7804 H   0  0  0  0  0  0  0  0  0  0  0  0
  143.7397   71.7169  221.3307 H   0  0  0  0  0  0  0  0  0  0  0  0
  142.7336   72.1616  219.9307 H   0  0  0  0  0  0  0  0  0  0  0  0
  145.3730   71.1461  219.8417 H   0  0  0  0  0  0  0  0  0  0  0  0
  144.5203   71.9066  218.4839 H   0  0  0  0  0  0  0  0  0  0  0  0
  146.8253   72.9057  219.7308 H   0  0  0  0  0  0  0  0  0  0  0  0
  145.7604   73.8680  218.7146 H   0  0  0  0  0  0  0  0  0  0  0  0
  145.7506   73.5266  221.7546 H   0  0  0  0  0  0  0  0  0  0  0  0
  145.6252   75.0299  220.8441 H   0  0  0  0  0  0  0  0  0  0  0  0
  139.1761   69.4096  222.5463 H   0  0  0  0  0  0  0  0  0  0  0  0
  138.9212   68.0223  224.6353 H   0  0  0  0  0  0  0  0  0  0  0  0
  139.2383   67.7442  227.0551 H   0  0  0  0  0  0  0  0  0  0  0  0
  141.1066   70.9165  229.2997 H   0  0  0  0  0  0  0  0  0  0  0  0
  141.3471   72.2699  227.2183 H   0  0  0  0  0  0  0  0  0  0  0  0
  1  2  2  0
  2  3  1  0
  3  4  1  0
  4  5  1  0
  5  6  2  0
  5  7  1  0
  7  8  1  0
  8  9  1  0
  9 10  1  0
 10 11  1  0
 11 12  1  0
 12 13  1  0
 13 14  1  0
 14 15  1  0
 15 16  1  0
 16 17  1  0
  2 18  1  0
 18 19  2  0
 19 20  1  0
 20 21  2  0
 21 22  1  0
 22 23  2  0
 23 24  1  0
 23 25  1  0
 25 26  2  0
 26 27  1  0
 27 28  2  0
 12  7  1  0
 17 13  1  0
 28 18  1  0
 27 21  1  0
  3 29  1  0
  4 30  1  0
  4 31  1  0
  8 32  1  0
  8 33  1  0
  9 34  1  0
  9 35  1  0
 10 36  1  0
 10 37  1  0
 11 38  1  0
 11 39  1  0
 12 40  1  6
 13 41  1  0
 14 42  1  0
 14 43  1  0
 15 44  1  0
 15 45  1  0
 16 46  1  0
 16 47  1  0
 17 48  1  0
 17 49  1  0
 19 50  1  0
 20 51  1  0
 22 52  1  0
 25 53  1  0
 26 54  1  0
M  END
>  <smiles>  (82) 
O=C(NCC(=O)N1CCCCC1C1CCCC1)c1ccc2cc(F)ccc2n1

>  <score_type>  (82) 
oracle

>  <origin>  (82) 
autodockgpu

>  <m_score__min__energy>  (82) 
-9.0899999999999999

>  <m_primary>  (82) 
energy

>  <rmsd>  (82) 
2.0249606545388104

>  <m_score__min__rmsd>  (82) 
2.0249606545388104

>  <meeko>  (82) 
{"free_energy": -8.13, "intermolecular_energy": -9.62, "internal_energy": -1.75, "cluster_size": 40, "cluster_id": 1, "rank_in_cluster": 29}

>  <energy>  (82) 
-7.97

>  <cluster_rmsd>  (82) 
1.89

>  <cluster>  (82) 
1

$$$$

     RDKit          3D

 54 57  0  0  0  0  0  0  0  0999 V2000
  139.8280   71.0630  221.2080 O   0  0  0  0  0  0  0  0  0  0  0  0
  139.8120   71.5700  222.3810 C   0  0  0  0  0  0  0  0  0  0  0  0
  139.7960   73.0190  222.4760 N   0  0  0  0  0  0  0  0  0  0  0  0
  139.7930   73.8670  221.3370 C   0  0  0  0  0  0  0  0  0  0  0  0
  140.9480   74.6750  221.0000 C   0  0  0  0  0  0  0  0  0  0  0  0
  141.3330   75.4660  221.9640 O   0  0  0  0  0  0  0  0  0  0  0  0
  141.7190   74.7630  219.8320 N   0  0  0  0  0  0  0  0  0  0  0  0
  141.1400   75.0170  218.4920 C   0  0  0  0  0  0  0  0  0  0  0  0
  142.2110   75.7710  217.7210 C   0  0  0  0  0  0  0  0  0  0  0  0
  143.0180   76.7140  218.5440 C   0  0  0  0  0  0  0  0  0  0  0  0
  143.6950   76.0260  219.7180 C   0  0  0  0  0  0  0  0  0  0  0  0
  143.1720   74.6010  219.7950 C   0  0  1  0  0  0  0  0  0  0  0  0
  143.7720   73.7600  220.8440 C   0  0  0  0  0  0  0  0  0  0  0  0
  143.5720   72.3080  220.4660 C   0  0  0  0  0  0  0  0  0  0  0  0
  144.6730   71.9390  219.4920 C   0  0  0  0  0  0  0  0  0  0  0  0
  145.6640   73.0630  219.5250 C   0  0  0  0  0  0  0  0  0  0  0  0
  145.3030   73.8360  220.7700 C   0  0  0  0  0  0  0  0  0  0  0  0
  139.8100   70.7420  223.5790 C   0  0  0  0  0  0  0  0  0  0  0  0
  139.2480   69.4860  223.4820 C   0  0  0  0  0  0  0  0  0  0  0  0
  139.2590   68.7110  224.6460 C   0  0  0  0  0  0  0  0  0  0  0  0
  139.8080   69.1970  225.8180 C   0  0  0  0  0  0  0  0  0  0  0  0
  139.8210   68.4270  226.9810 C   0  0  0  0  0  0  0  0  0  0  0  0
  140.3830   68.9830  228.0980 C   0  0  0  0  0  0  0  0  0  0  0  0
  140.3990   68.2420  229.2310 F   0  0  0  0  0  0  0  0  0  0  0  0
  140.9330   70.2420  228.1500 C   0  0  0  0  0  0  0  0  0  0  0  0
  140.9210   70.9970  227.0090 C   0  0  0  0  0  0  0  0  0  0  0  0
  140.3610   70.4690  225.8630 C   0  0  0  0  0  0  0  0  0  0  0  0
  140.3470   71.2050  224.7420 N   0  0  0  0  0  0  0  0  0  0  0  0
  139.7870   73.3670  223.4700 H   0  0  0  0  0  0  0  0  0  0  0  0
  139.6000   73.2211  220.4678 H   0  0  0  0  0  0  0  0  0  0  0  0
  139.0403   74.6237  221.6033 H   0  0  0  0  0  0  0  0  0  0  0  0
  140.9021   74.0675  217.9901 H   0  0  0  0  0  0  0  0  0  0  0  0
  140.2035   75.5906  218.5550 H   0  0  0  0  0  0  0  0  0  0  0  0
  142.8945   75.0345  217.2735 H   0  0  0  0  0  0  0  0  0  0  0  0
  141.6851   76.3815  216.9722 H   0  0  0  0  0  0  0  0  0  0  0  0
  143.7914   77.1666  217.9061 H   0  0  0  0  0  0  0  0  0  0  0  0
  142.3343   77.4741  218.9499 H   0  0  0  0  0  0  0  0  0  0  0  0
  144.7845   76.0157  219.5666 H   0  0  0  0  0  0  0  0  0  0  0  0
  143.4766   76.5634  220.6526 H   0  0  0  0  0  0  0  0  0  0  0  0
  143.4775   73.9983  218.9270 H   0  0  0  0  0  0  0  0  0  0  0  0
  143.3377   74.0811  221.8023 H   0  0  0  0  0  0  0  0  0  0  0  0
  143.6346   71.6738  221.3626 H   0  0  0  0  0  0  0  0  0  0  0  0
  142.5825   72.1575  220.0098 H   0  0  0  0  0  0  0  0  0  0  0  0
  145.1540   70.9990  219.8004 H   0  0  0  0  0  0  0  0  0  0  0  0
  144.2738   71.7900  218.4779 H   0  0  0  0  0  0  0  0  0  0  0  0
  146.6915   72.6758  219.5900 H   0  0  0  0  0  0  0  0  0  0  0  0
  145.6285   73.6838  218.6176 H   0  0  0  0  0  0  0  0  0  0  0  0
  145.7579   73.3746  221.6589 H   0  0  0  0  0  0  0  0  0  0  0  0
  145.6676   74.8733  220.7368 H   0  0  0  0  0  0  0  0  0  0  0  0
  138.8152   69.1147  222.5413 H   0  0  0  0  0  0  0  0  0  0  0  0
  138.8247   67.7005  224.6288 H   0  0  0  0  0  0  0  0  0  0  0  0
  139.3961   67.4125  226.9996 H   0  0  0  0  0  0  0  0  0  0  0  0
  141.3699   70.6309  229.0816 H   0  0  0  0  0  0  0  0  0  0  0  0
  141.3511   72.0094  227.0049 H   0  0  0  0  0  0  0  0  0  0  0  0
  1  2  2  0
  2  3  1  0
  3  4  1  0
  4  5  1  0
  5  6  2  0
  5  7  1  0
  7  8  1  0
  8  9  1  0
  9 10  1  0
 10 11  1  0
 11 12  1  0
 12 13  1  0
 13 14  1  0
 14 15  1  0
 15 16  1  0
 16 17  1  0
  2 18  1  0
 18 19  2  0
 19 20  1  0
 20 21  2  0
 21 22  1  0
 22 23  2  0
 23 24  1  0
 23 25  1  0
 25 26  2  0
 26 27  1  0
 27 28  2  0
 12  7  1  0
 17 13  1  0
 28 18  1  0
 27 21  1  0
  3 29  1  0
  4 30  1  0
  4 31  1  0
  8 32  1  0
  8 33  1  0
  9 34  1  0
  9 35  1  0
 10 36  1  0
 10 37  1  0
 11 38  1  0
 11 39  1  0
 12 40  1  6
 13 41  1  0
 14 42  1  0
 14 43  1  0
 15 44  1  0
 15 45  1  0
 16 46  1  0
 16 47  1  0
 17 48  1  0
 17 49  1  0
 19 50  1  0
 20 51  1  0
 22 52  1  0
 25 53  1  0
 26 54  1  0
M  END
>  <smiles>  (83) 
O=C(NCC(=O)N1CCCCC1C1CCCC1)c1ccc2cc(F)ccc2n1

>  <score_type>  (83) 
oracle

>  <origin>  (83) 
autodockgpu

>  <m_score__min__energy>  (83) 
-9.0899999999999999

>  <m_primary>  (83) 
energy

>  <rmsd>  (83) 
1.971703812465616

>  <m_score__min__rmsd>  (83) 
1.971703812465616

>  <meeko>  (83) 
{"free_energy": -7.97, "intermolecular_energy": -9.46, "internal_energy": -1.84, "cluster_size": 40, "cluster_id": 1, "rank_in_cluster": 33}

>  <energy>  (83) 
-7.97

>  <cluster_rmsd>  (83) 
2.0

>  <cluster>  (83) 
1

$$$$

     RDKit          3D

 54 57  0  0  0  0  0  0  0  0999 V2000
  139.4420   71.6220  221.0820 O   0  0  0  0  0  0  0  0  0  0  0  0
  139.5490   72.1360  222.2480 C   0  0  0  0  0  0  0  0  0  0  0  0
  139.4720   73.5830  222.3430 N   0  0  0  0  0  0  0  0  0  0  0  0
  139.2810   74.4220  221.2130 C   0  0  0  0  0  0  0  0  0  0  0  0
  139.7980   75.7750  221.1880 C   0  0  0  0  0  0  0  0  0  0  0  0
  138.8890   76.6870  221.3990 O   0  0  0  0  0  0  0  0  0  0  0  0
  141.0890   76.2800  220.9750 N   0  0  0  0  0  0  0  0  0  0  0  0
  142.2060   75.4600  220.4490 C   0  0  0  0  0  0  0  0  0  0  0  0
  143.0910   76.4250  219.6770 C   0  0  0  0  0  0  0  0  0  0  0  0
  142.3540   77.5040  218.9610 C   0  0  0  0  0  0  0  0  0  0  0  0
  141.4820   78.3260  219.8950 C   0  0  0  0  0  0  0  0  0  0  0  0
  141.4880   77.6570  221.2590 C   0  0  1  0  0  0  0  0  0  0  0  0
  140.7400   78.3600  222.3150 C   0  0  0  0  0  0  0  0  0  0  0  0
  141.6220   78.4580  223.5420 C   0  0  0  0  0  0  0  0  0  0  0  0
  142.5350   79.6520  223.3470 C   0  0  0  0  0  0  0  0  0  0  0  0
  142.0010   80.4070  222.1670 C   0  0  0  0  0  0  0  0  0  0  0  0
  140.6130   79.8500  221.9700 C   0  0  0  0  0  0  0  0  0  0  0  0
  139.7410   71.3180  223.4370 C   0  0  0  0  0  0  0  0  0  0  0  0
  139.4050   69.9820  223.3500 C   0  0  0  0  0  0  0  0  0  0  0  0
  139.5980   69.2190  224.5050 C   0  0  0  0  0  0  0  0  0  0  0  0
  140.1000   69.7900  225.6600 C   0  0  0  0  0  0  0  0  0  0  0  0
  140.2950   69.0330  226.8140 C   0  0  0  0  0  0  0  0  0  0  0  0
  140.7940   69.6760  227.9130 C   0  0  0  0  0  0  0  0  0  0  0  0
  140.9870   68.9470  229.0380 F   0  0  0  0  0  0  0  0  0  0  0  0
  141.1170   71.0120  227.9560 C   0  0  0  0  0  0  0  0  0  0  0  0
  140.9260   71.7560  226.8230 C   0  0  0  0  0  0  0  0  0  0  0  0
  140.4230   71.1400  225.6950 C   0  0  0  0  0  0  0  0  0  0  0  0
  140.2340   71.8650  224.5830 N   0  0  0  0  0  0  0  0  0  0  0  0
  139.5700   73.9370  223.3300 H   0  0  0  0  0  0  0  0  0  0  0  0
  139.7326   73.8996  220.3567 H   0  0  0  0  0  0  0  0  0  0  0  0
  138.1925   74.5808  221.2131 H   0  0  0  0  0  0  0  0  0  0  0  0
  142.7679   75.0007  221.2756 H   0  0  0  0  0  0  0  0  0  0  0  0
  141.8445   74.6395  219.8117 H   0  0  0  0  0  0  0  0  0  0  0  0
  143.7857   76.8969  220.3874 H   0  0  0  0  0  0  0  0  0  0  0  0
  143.6017   75.8306  218.9050 H   0  0  0  0  0  0  0  0  0  0  0  0
  143.0840   78.1716  218.4799 H   0  0  0  0  0  0  0  0  0  0  0  0
  141.6959   77.0267  218.2200 H   0  0  0  0  0  0  0  0  0  0  0  0
  141.8842   79.3464  219.9787 H   0  0  0  0  0  0  0  0  0  0  0  0
  140.4554   78.3844  219.5043 H   0  0  0  0  0  0  0  0  0  0  0  0
  142.4801   77.6879  221.7331 H   0  0  0  0  0  0  0  0  0  0  0  0
  139.7840   77.8304  222.4398 H   0  0  0  0  0  0  0  0  0  0  0  0
  141.0030   78.6003  224.4401 H   0  0  0  0  0  0  0  0  0  0  0  0
  142.2086   77.5369  223.6744 H   0  0  0  0  0  0  0  0  0  0  0  0
  142.5235   80.2897  224.2432 H   0  0  0  0  0  0  0  0  0  0  0  0
  143.5748   79.3348  223.1793 H   0  0  0  0  0  0  0  0  0  0  0  0
  141.9623   81.4857  222.3788 H   0  0  0  0  0  0  0  0  0  0  0  0
  142.6318   80.2935  221.2730 H   0  0  0  0  0  0  0  0  0  0  0  0
  139.8972   80.3446  222.6430 H   0  0  0  0  0  0  0  0  0  0  0  0
  140.2408   80.0107  220.9475 H   0  0  0  0  0  0  0  0  0  0  0  0
  139.0075   69.5424  222.4233 H   0  0  0  0  0  0  0  0  0  0  0  0
  139.3468   68.1481  224.4951 H   0  0  0  0  0  0  0  0  0  0  0  0
  140.0566   67.9594  226.8398 H   0  0  0  0  0  0  0  0  0  0  0  0
  141.5168   71.4690  228.8732 H   0  0  0  0  0  0  0  0  0  0  0  0
  141.1697   72.8286  226.8117 H   0  0  0  0  0  0  0  0  0  0  0  0
  1  2  2  0
  2  3  1  0
  3  4  1  0
  4  5  1  0
  5  6  2  0
  5  7  1  0
  7  8  1  0
  8  9  1  0
  9 10  1  0
 10 11  1  0
 11 12  1  0
 12 13  1  0
 13 14  1  0
 14 15  1  0
 15 16  1  0
 16 17  1  0
  2 18  1  0
 18 19  2  0
 19 20  1  0
 20 21  2  0
 21 22  1  0
 22 23  2  0
 23 24  1  0
 23 25  1  0
 25 26  2  0
 26 27  1  0
 27 28  2  0
 12  7  1  0
 17 13  1  0
 28 18  1  0
 27 21  1  0
  3 29  1  0
  4 30  1  0
  4 31  1  0
  8 32  1  0
  8 33  1  0
  9 34  1  0
  9 35  1  0
 10 36  1  0
 10 37  1  0
 11 38  1  0
 11 39  1  0
 12 40  1  1
 13 41  1  0
 14 42  1  0
 14 43  1  0
 15 44  1  0
 15 45  1  0
 16 46  1  0
 16 47  1  0
 17 48  1  0
 17 49  1  0
 19 50  1  0
 20 51  1  0
 22 52  1  0
 25 53  1  0
 26 54  1  0
M  END
>  <smiles>  (84) 
O=C(NCC(=O)N1CCCCC1C1CCCC1)c1ccc2cc(F)ccc2n1

>  <score_type>  (84) 
oracle

>  <origin>  (84) 
autodockgpu

>  <m_score__min__energy>  (84) 
-9.0899999999999999

>  <m_primary>  (84) 
energy

>  <rmsd>  (84) 
2.032948203461541

>  <m_score__min__rmsd>  (84) 
2.032948203461541

>  <meeko>  (84) 
{"free_energy": -8.47, "intermolecular_energy": -9.96, "internal_energy": -1.37, "cluster_size": 40, "cluster_id": 1, "rank_in_cluster": 14}

>  <energy>  (84) 
-7.94

>  <cluster_rmsd>  (84) 
0.86

>  <cluster>  (84) 
1

$$$$

     RDKit          3D

 54 57  0  0  0  0  0  0  0  0999 V2000
  140.8960   71.9220  221.2390 O   0  0  0  0  0  0  0  0  0  0  0  0
  140.3610   72.3560  222.3160 C   0  0  0  0  0  0  0  0  0  0  0  0
  139.9460   73.7470  222.3350 N   0  0  0  0  0  0  0  0  0  0  0  0
  140.1060   74.6160  221.2230 C   0  0  0  0  0  0  0  0  0  0  0  0
  140.0980   76.0560  221.3880 C   0  0  0  0  0  0  0  0  0  0  0  0
  139.0630   76.5010  222.0460 O   0  0  0  0  0  0  0  0  0  0  0  0
  140.9920   77.0510  220.9690 N   0  0  0  0  0  0  0  0  0  0  0  0
  141.9930   76.8450  219.8950 C   0  0  0  0  0  0  0  0  0  0  0  0
  142.1780   78.2070  219.2440 C   0  0  0  0  0  0  0  0  0  0  0  0
  140.9400   79.0330  219.1740 C   0  0  0  0  0  0  0  0  0  0  0  0
  140.3150   79.2570  220.5410 C   0  0  0  0  0  0  0  0  0  0  0  0
  141.0560   78.3920  221.5460 C   0  0  1  0  0  0  0  0  0  0  0  0
  140.6210   78.5330  222.9470 C   0  0  0  0  0  0  0  0  0  0  0  0
  141.8520   78.6500  223.8200 C   0  0  0  0  0  0  0  0  0  0  0  0
  142.3000   80.0980  223.7780 C   0  0  0  0  0  0  0  0  0  0  0  0
  141.1880   80.8670  223.1300 C   0  0  0  0  0  0  0  0  0  0  0  0
  140.0120   79.9230  223.1730 C   0  0  0  0  0  0  0  0  0  0  0  0
  140.1700   71.5030  223.4820 C   0  0  0  0  0  0  0  0  0  0  0  0
  139.5490   70.2870  223.2840 C   0  0  0  0  0  0  0  0  0  0  0  0
  139.3780   69.4880  224.4170 C   0  0  0  0  0  0  0  0  0  0  0  0
  139.8150   69.9110  225.6590 C   0  0  0  0  0  0  0  0  0  0  0  0
  139.6460   69.1170  226.7920 C   0  0  0  0  0  0  0  0  0  0  0  0
  140.1070   69.6120  227.9820 C   0  0  0  0  0  0  0  0  0  0  0  0
  139.9470   68.8460  229.0870 F   0  0  0  0  0  0  0  0  0  0  0  0
  140.7220   70.8310  228.1340 C   0  0  0  0  0  0  0  0  0  0  0  0
  140.8870   71.6120  227.0220 C   0  0  0  0  0  0  0  0  0  0  0  0
  140.4340   71.1450  225.8050 C   0  0  0  0  0  0  0  0  0  0  0  0
  140.5940   71.9060  224.7110 N   0  0  0  0  0  0  0  0  0  0  0  0
  139.5160   74.0380  223.2520 H   0  0  0  0  0  0  0  0  0  0  0  0
  141.0724   74.3602  220.7640 H   0  0  0  0  0  0  0  0  0  0  0  0
  139.1881   74.4360  220.6442 H   0  0  0  0  0  0  0  0  0  0  0  0
  142.9437   76.4894  220.3189 H   0  0  0  0  0  0  0  0  0  0  0  0
  141.6621   76.0877  219.1691 H   0  0  0  0  0  0  0  0  0  0  0  0
  142.9303   78.7642  219.8215 H   0  0  0  0  0  0  0  0  0  0  0  0
  142.4860   78.0173  218.2052 H   0  0  0  0  0  0  0  0  0  0  0  0
  141.1916   80.0102  218.7362 H   0  0  0  0  0  0  0  0  0  0  0  0
  140.2094   78.4906  218.5560 H   0  0  0  0  0  0  0  0  0  0  0  0
  140.4049   80.3164  220.8230 H   0  0  0  0  0  0  0  0  0  0  0  0
  139.2483   78.9892  220.5209 H   0  0  0  0  0  0  0  0  0  0  0  0
  142.1002   78.7110  221.6797 H   0  0  0  0  0  0  0  0  0  0  0  0
  139.9463   77.6913  223.1619 H   0  0  0  0  0  0  0  0  0  0  0  0
  141.6093   78.3611  224.8533 H   0  0  0  0  0  0  0  0  0  0  0  0
  142.6502   77.9852  223.4580 H   0  0  0  0  0  0  0  0  0  0  0  0
  142.4768   80.4712  224.7976 H   0  0  0  0  0  0  0  0  0  0  0  0
  143.2402   80.2083  223.2177 H   0  0  0  0  0  0  0  0  0  0  0  0
  140.9706   81.7871  223.6922 H   0  0  0  0  0  0  0  0  0  0  0  0
  141.4360   81.1852  222.1066 H   0  0  0  0  0  0  0  0  0  0  0  0
  139.5102   79.9725  224.1506 H   0  0  0  0  0  0  0  0  0  0  0  0
  139.2505   80.1717  222.4192 H   0  0  0  0  0  0  0  0  0  0  0  0
  139.2075   69.9646  222.2893 H   0  0  0  0  0  0  0  0  0  0  0  0
  138.8885   68.5077  224.3198 H   0  0  0  0  0  0  0  0  0  0  0  0
  139.1612   68.1314  226.7322 H   0  0  0  0  0  0  0  0  0  0  0  0
  141.0716   71.1696  229.1205 H   0  0  0  0  0  0  0  0  0  0  0  0
  141.3728   72.5960  227.0973 H   0  0  0  0  0  0  0  0  0  0  0  0
  1  2  2  0
  2  3  1  0
  3  4  1  0
  4  5  1  0
  5  6  2  0
  5  7  1  0
  7  8  1  0
  8  9  1  0
  9 10  1  0
 10 11  1  0
 11 12  1  0
 12 13  1  0
 13 14  1  0
 14 15  1  0
 15 16  1  0
 16 17  1  0
  2 18  1  0
 18 19  2  0
 19 20  1  0
 20 21  2  0
 21 22  1  0
 22 23  2  0
 23 24  1  0
 23 25  1  0
 25 26  2  0
 26 27  1  0
 27 28  2  0
 12  7  1  0
 17 13  1  0
 28 18  1  0
 27 21  1  0
  3 29  1  0
  4 30  1  0
  4 31  1  0
  8 32  1  0
  8 33  1  0
  9 34  1  0
  9 35  1  0
 10 36  1  0
 10 37  1  0
 11 38  1  0
 11 39  1  0
 12 40  1  1
 13 41  1  0
 14 42  1  0
 14 43  1  0
 15 44  1  0
 15 45  1  0
 16 46  1  0
 16 47  1  0
 17 48  1  0
 17 49  1  0
 19 50  1  0
 20 51  1  0
 22 52  1  0
 25 53  1  0
 26 54  1  0
M  END
>  <smiles>  (85) 
O=C(NCC(=O)N1CCCCC1C1CCCC1)c1ccc2cc(F)ccc2n1

>  <score_type>  (85) 
oracle

>  <origin>  (85) 
autodockgpu

>  <m_score__min__energy>  (85) 
-9.0899999999999999

>  <m_primary>  (85) 
energy

>  <rmsd>  (85) 
2.3907474239605593

>  <m_score__min__rmsd>  (85) 
2.3907474239605593

>  <meeko>  (85) 
{"free_energy": -8.74, "intermolecular_energy": -10.23, "internal_energy": -1.31, "cluster_size": 40, "cluster_id": 1, "rank_in_cluster": 11}

>  <energy>  (85) 
-7.93

>  <cluster_rmsd>  (85) 
1.99

>  <cluster>  (85) 
1

$$$$

     RDKit          3D

 54 57  0  0  0  0  0  0  0  0999 V2000
  140.7210   71.3850  221.3260 O   0  0  0  0  0  0  0  0  0  0  0  0
  140.1900   71.8110  222.4070 C   0  0  0  0  0  0  0  0  0  0  0  0
  139.6650   73.1650  222.3980 N   0  0  0  0  0  0  0  0  0  0  0  0
  139.7170   74.0050  221.2550 C   0  0  0  0  0  0  0  0  0  0  0  0
  140.9020   74.7820  220.9480 C   0  0  0  0  0  0  0  0  0  0  0  0
  141.2910   75.5520  221.9260 O   0  0  0  0  0  0  0  0  0  0  0  0
  141.6980   74.8580  219.7960 N   0  0  0  0  0  0  0  0  0  0  0  0
  141.1520   75.1480  218.4490 C   0  0  0  0  0  0  0  0  0  0  0  0
  142.2640   75.8740  217.7070 C   0  0  0  0  0  0  0  0  0  0  0  0
  143.0870   76.7790  218.5580 C   0  0  0  0  0  0  0  0  0  0  0  0
  143.7170   76.0530  219.7350 C   0  0  0  0  0  0  0  0  0  0  0  0
  143.1440   74.6460  219.7830 C   0  0  1  0  0  0  0  0  0  0  0  0
  143.6950   73.7720  220.8320 C   0  0  0  0  0  0  0  0  0  0  0  0
  143.5320   72.3330  220.3900 C   0  0  0  0  0  0  0  0  0  0  0  0
  144.6900   72.0120  219.4660 C   0  0  0  0  0  0  0  0  0  0  0  0
  145.6650   73.1420  219.5960 C   0  0  0  0  0  0  0  0  0  0  0  0
  145.2270   73.8640  220.8460 C   0  0  0  0  0  0  0  0  0  0  0  0
  140.1090   70.9860  223.6050 C   0  0  0  0  0  0  0  0  0  0  0  0
  139.5390   69.7350  223.4770 C   0  0  0  0  0  0  0  0  0  0  0  0
  139.4730   68.9630  224.6400 C   0  0  0  0  0  0  0  0  0  0  0  0
  139.9590   69.4450  225.8420 C   0  0  0  0  0  0  0  0  0  0  0  0
  139.8950   68.6780  227.0050 C   0  0  0  0  0  0  0  0  0  0  0  0
  140.3980   69.2300  228.1520 C   0  0  0  0  0  0  0  0  0  0  0  0
  140.3400   68.4910  229.2850 F   0  0  0  0  0  0  0  0  0  0  0  0
  140.9590   70.4820  228.2340 C   0  0  0  0  0  0  0  0  0  0  0  0
  141.0210   71.2350  227.0930 C   0  0  0  0  0  0  0  0  0  0  0  0
  140.5230   70.7110  225.9180 C   0  0  0  0  0  0  0  0  0  0  0  0
  140.5830   71.4450  224.7960 N   0  0  0  0  0  0  0  0  0  0  0  0
  139.2460   73.4510  223.3210 H   0  0  0  0  0  0  0  0  0  0  0  0
  139.5337   73.3584  220.3842 H   0  0  0  0  0  0  0  0  0  0  0  0
  138.9759   74.7819  221.4942 H   0  0  0  0  0  0  0  0  0  0  0  0
  140.8905   74.2136  217.9309 H   0  0  0  0  0  0  0  0  0  0  0  0
  140.2346   75.7526  218.5022 H   0  0  0  0  0  0  0  0  0  0  0  0
  142.9304   75.1196  217.2634 H   0  0  0  0  0  0  0  0  0  0  0  0
  141.7744   76.5110  216.9556 H   0  0  0  0  0  0  0  0  0  0  0  0
  143.8876   77.2128  217.9409 H   0  0  0  0  0  0  0  0  0  0  0  0
  142.4221   77.5572  218.9608 H   0  0  0  0  0  0  0  0  0  0  0  0
  144.8082   76.0070  219.6040 H   0  0  0  0  0  0  0  0  0  0  0  0
  143.4990   76.5856  220.6724 H   0  0  0  0  0  0  0  0  0  0  0  0
  143.4445   74.0440  218.9128 H   0  0  0  0  0  0  0  0  0  0  0  0
  143.2054   74.0535  221.7759 H   0  0  0  0  0  0  0  0  0  0  0  0
  143.5519   71.6659  221.2644 H   0  0  0  0  0  0  0  0  0  0  0  0
  142.5709   72.1902  219.8744 H   0  0  0  0  0  0  0  0  0  0  0  0
  145.1636   71.0654  219.7653 H   0  0  0  0  0  0  0  0  0  0  0  0
  144.3492   71.8988  218.4263 H   0  0  0  0  0  0  0  0  0  0  0  0
  146.6914   72.7616  219.7041 H   0  0  0  0  0  0  0  0  0  0  0  0
  145.6734   73.7961  218.7117 H   0  0  0  0  0  0  0  0  0  0  0  0
  145.6370   73.3735  221.7412 H   0  0  0  0  0  0  0  0  0  0  0  0
  145.5814   74.9050  220.8713 H   0  0  0  0  0  0  0  0  0  0  0  0
  139.1580   69.3665  222.5131 H   0  0  0  0  0  0  0  0  0  0  0  0
  139.0283   67.9577  224.5990 H   0  0  0  0  0  0  0  0  0  0  0  0
  139.4574   67.6688  227.0007 H   0  0  0  0  0  0  0  0  0  0  0  0
  141.3467   70.8674  229.1885 H   0  0  0  0  0  0  0  0  0  0  0  0
  141.4613   72.2429  227.1124 H   0  0  0  0  0  0  0  0  0  0  0  0
  1  2  2  0
  2  3  1  0
  3  4  1  0
  4  5  1  0
  5  6  2  0
  5  7  1  0
  7  8  1  0
  8  9  1  0
  9 10  1  0
 10 11  1  0
 11 12  1  0
 12 13  1  0
 13 14  1  0
 14 15  1  0
 15 16  1  0
 16 17  1  0
  2 18  1  0
 18 19  2  0
 19 20  1  0
 20 21  2  0
 21 22  1  0
 22 23  2  0
 23 24  1  0
 23 25  1  0
 25 26  2  0
 26 27  1  0
 27 28  2  0
 12  7  1  0
 17 13  1  0
 28 18  1  0
 27 21  1  0
  3 29  1  0
  4 30  1  0
  4 31  1  0
  8 32  1  0
  8 33  1  0
  9 34  1  0
  9 35  1  0
 10 36  1  0
 10 37  1  0
 11 38  1  0
 11 39  1  0
 12 40  1  6
 13 41  1  0
 14 42  1  0
 14 43  1  0
 15 44  1  0
 15 45  1  0
 16 46  1  0
 16 47  1  0
 17 48  1  0
 17 49  1  0
 19 50  1  0
 20 51  1  0
 22 52  1  0
 25 53  1  0
 26 54  1  0
M  END
>  <smiles>  (86) 
O=C(NCC(=O)N1CCCCC1C1CCCC1)c1ccc2cc(F)ccc2n1

>  <score_type>  (86) 
oracle

>  <origin>  (86) 
autodockgpu

>  <m_score__min__energy>  (86) 
-9.0899999999999999

>  <m_primary>  (86) 
energy

>  <rmsd>  (86) 
2.006091156966253

>  <m_score__min__rmsd>  (86) 
2.006091156966253

>  <meeko>  (86) 
{"free_energy": -8.05, "intermolecular_energy": -9.54, "internal_energy": -1.79, "cluster_size": 40, "cluster_id": 1, "rank_in_cluster": 31}

>  <energy>  (86) 
-7.79

>  <cluster_rmsd>  (86) 
1.12

>  <cluster>  (86) 
1

$$$$

     RDKit          3D

 54 57  0  0  0  0  0  0  0  0999 V2000
  141.2170   71.8010  221.6570 O   0  0  0  0  0  0  0  0  0  0  0  0
  140.3240   72.0490  222.5360 C   0  0  0  0  0  0  0  0  0  0  0  0
  139.4970   73.2230  222.3260 N   0  0  0  0  0  0  0  0  0  0  0  0
  139.6410   74.0780  221.2020 C   0  0  0  0  0  0  0  0  0  0  0  0
  140.8920   74.7590  220.9330 C   0  0  0  0  0  0  0  0  0  0  0  0
  141.3720   75.3990  221.9640 O   0  0  0  0  0  0  0  0  0  0  0  0
  141.6720   74.8580  219.7730 N   0  0  0  0  0  0  0  0  0  0  0  0
  141.1120   75.1910  218.4420 C   0  0  0  0  0  0  0  0  0  0  0  0
  142.2210   75.9250  217.7050 C   0  0  0  0  0  0  0  0  0  0  0  0
  143.0660   76.7970  218.5680 C   0  0  0  0  0  0  0  0  0  0  0  0
  143.7040   76.0320  219.7160 C   0  0  0  0  0  0  0  0  0  0  0  0
  143.1160   74.6310  219.7340 C   0  0  1  0  0  0  0  0  0  0  0  0
  143.6720   73.7230  220.7510 C   0  0  0  0  0  0  0  0  0  0  0  0
  143.6590   72.3150  220.1930 C   0  0  0  0  0  0  0  0  0  0  0  0
  144.8950   72.1610  219.3300 C   0  0  0  0  0  0  0  0  0  0  0  0
  145.7610   73.3510  219.6100 C   0  0  0  0  0  0  0  0  0  0  0  0
  145.1870   73.9350  220.8770 C   0  0  0  0  0  0  0  0  0  0  0  0
  140.1340   71.1990  223.7040 C   0  0  0  0  0  0  0  0  0  0  0  0
  139.4430   70.0180  223.5250 C   0  0  0  0  0  0  0  0  0  0  0  0
  139.2740   69.2210  224.6600 C   0  0  0  0  0  0  0  0  0  0  0  0
  139.7800   69.6130  225.8860 C   0  0  0  0  0  0  0  0  0  0  0  0
  139.6140   68.8210  227.0210 C   0  0  0  0  0  0  0  0  0  0  0  0
  140.1460   69.2820  228.1950 C   0  0  0  0  0  0  0  0  0  0  0  0
  139.9890   68.5180  229.3020 F   0  0  0  0  0  0  0  0  0  0  0  0
  140.8290   70.4670  228.3290 C   0  0  0  0  0  0  0  0  0  0  0  0
  140.9920   71.2450  227.2140 C   0  0  0  0  0  0  0  0  0  0  0  0
  140.4690   70.8110  226.0140 C   0  0  0  0  0  0  0  0  0  0  0  0
  140.6260   71.5700  224.9190 N   0  0  0  0  0  0  0  0  0  0  0  0
  138.7850   73.3680  223.0900 H   0  0  0  0  0  0  0  0  0  0  0  0
  139.4218   73.4662  220.3145 H   0  0  0  0  0  0  0  0  0  0  0  0
  138.9624   74.9092  221.4441 H   0  0  0  0  0  0  0  0  0  0  0  0
  140.8334   74.2740  217.9021 H   0  0  0  0  0  0  0  0  0  0  0  0
  140.2024   75.8041  218.5244 H   0  0  0  0  0  0  0  0  0  0  0  0
  142.8725   75.1760  217.2312 H   0  0  0  0  0  0  0  0  0  0  0  0
  141.7278   76.5880  216.9789 H   0  0  0  0  0  0  0  0  0  0  0  0
  143.8629   77.2384  217.9515 H   0  0  0  0  0  0  0  0  0  0  0  0
  142.4159   77.5714  219.0011 H   0  0  0  0  0  0  0  0  0  0  0  0
  144.7927   75.9776  219.5684 H   0  0  0  0  0  0  0  0  0  0  0  0
  143.5050   76.5412  220.6705 H   0  0  0  0  0  0  0  0  0  0  0  0
  143.3974   74.0497  218.8435 H   0  0  0  0  0  0  0  0  0  0  0  0
  143.1024   73.8887  221.6773 H   0  0  0  0  0  0  0  0  0  0  0  0
  143.6802   71.5842  221.0148 H   0  0  0  0  0  0  0  0  0  0  0  0
  142.7476   72.1383  219.6030 H   0  0  0  0  0  0  0  0  0  0  0  0
  145.4271   71.2342  219.5905 H   0  0  0  0  0  0  0  0  0  0  0  0
  144.6308   72.1037  218.2637 H   0  0  0  0  0  0  0  0  0  0  0  0
  146.8071   73.0458  219.7599 H   0  0  0  0  0  0  0  0  0  0  0  0
  145.7689   74.0718  218.7791 H   0  0  0  0  0  0  0  0  0  0  0  0
  145.5804   73.4093  221.7596 H   0  0  0  0  0  0  0  0  0  0  0  0
  145.4502   74.9955  221.0034 H   0  0  0  0  0  0  0  0  0  0  0  0
  139.0470   69.7205  222.5428 H   0  0  0  0  0  0  0  0  0  0  0  0
  138.7307   68.2681  224.5773 H   0  0  0  0  0  0  0  0  0  0  0  0
  139.0762   67.8625  226.9750 H   0  0  0  0  0  0  0  0  0  0  0  0
  141.2327   70.7811  229.3028 H   0  0  0  0  0  0  0  0  0  0  0  0
  141.5319   72.2015  227.2745 H   0  0  0  0  0  0  0  0  0  0  0  0
  1  2  2  0
  2  3  1  0
  3  4  1  0
  4  5  1  0
  5  6  2  0
  5  7  1  0
  7  8  1  0
  8  9  1  0
  9 10  1  0
 10 11  1  0
 11 12  1  0
 12 13  1  0
 13 14  1  0
 14 15  1  0
 15 16  1  0
 16 17  1  0
  2 18  1  0
 18 19  2  0
 19 20  1  0
 20 21  2  0
 21 22  1  0
 22 23  2  0
 23 24  1  0
 23 25  1  0
 25 26  2  0
 26 27  1  0
 27 28  2  0
 12  7  1  0
 17 13  1  0
 28 18  1  0
 27 21  1  0
  3 29  1  0
  4 30  1  0
  4 31  1  0
  8 32  1  0
  8 33  1  0
  9 34  1  0
  9 35  1  0
 10 36  1  0
 10 37  1  0
 11 38  1  0
 11 39  1  0
 12 40  1  6
 13 41  1  0
 14 42  1  0
 14 43  1  0
 15 44  1  0
 15 45  1  0
 16 46  1  0
 16 47  1  0
 17 48  1  0
 17 49  1  0
 19 50  1  0
 20 51  1  0
 22 52  1  0
 25 53  1  0
 26 54  1  0
M  END
>  <smiles>  (87) 
O=C(NCC(=O)N1CCCCC1C1CCCC1)c1ccc2cc(F)ccc2n1

>  <score_type>  (87) 
oracle

>  <origin>  (87) 
autodockgpu

>  <m_score__min__energy>  (87) 
-9.0899999999999999

>  <m_primary>  (87) 
energy

>  <rmsd>  (87) 
2.0430512369864613

>  <m_score__min__rmsd>  (87) 
2.0430512369864613

>  <meeko>  (87) 
{"free_energy": -8.21, "intermolecular_energy": -9.7, "internal_energy": -1.68, "cluster_size": 40, "cluster_id": 1, "rank_in_cluster": 20}

>  <energy>  (87) 
-7.75

>  <cluster_rmsd>  (87) 
1.06

>  <cluster>  (87) 
1

$$$$

     RDKit          3D

 54 57  0  0  0  0  0  0  0  0999 V2000
  140.9970   71.9330  221.2550 O   0  0  0  0  0  0  0  0  0  0  0  0
  140.4400   72.3630  222.3220 C   0  0  0  0  0  0  0  0  0  0  0  0
  140.0180   73.7520  222.3340 N   0  0  0  0  0  0  0  0  0  0  0  0
  140.1940   74.6220  221.2260 C   0  0  0  0  0  0  0  0  0  0  0  0
  140.1560   76.0620  221.3900 C   0  0  0  0  0  0  0  0  0  0  0  0
  139.1150   76.4870  222.0510 O   0  0  0  0  0  0  0  0  0  0  0  0
  141.0290   77.0740  220.9660 N   0  0  0  0  0  0  0  0  0  0  0  0
  142.0390   76.8830  219.8980 C   0  0  0  0  0  0  0  0  0  0  0  0
  142.1950   78.2430  219.2370 C   0  0  0  0  0  0  0  0  0  0  0  0
  140.9390   79.0400  219.1540 C   0  0  0  0  0  0  0  0  0  0  0  0
  140.3020   79.2600  220.5170 C   0  0  0  0  0  0  0  0  0  0  0  0
  141.0590   78.4220  221.5330 C   0  0  1  0  0  0  0  0  0  0  0  0
  140.6140   78.5630  222.9300 C   0  0  0  0  0  0  0  0  0  0  0  0
  141.8400   78.6600  223.8140 C   0  0  0  0  0  0  0  0  0  0  0  0
  142.3070   80.1020  223.7800 C   0  0  0  0  0  0  0  0  0  0  0  0
  141.2120   80.8890  223.1270 C   0  0  0  0  0  0  0  0  0  0  0  0
  140.0230   79.9610  223.1570 C   0  0  0  0  0  0  0  0  0  0  0  0
  140.2330   71.5080  223.4840 C   0  0  0  0  0  0  0  0  0  0  0  0
  139.5980   70.3010  223.2780 C   0  0  0  0  0  0  0  0  0  0  0  0
  139.4110   69.4990  224.4070 C   0  0  0  0  0  0  0  0  0  0  0  0
  139.8480   69.9120  225.6520 C   0  0  0  0  0  0  0  0  0  0  0  0
  139.6640   69.1160  226.7820 C   0  0  0  0  0  0  0  0  0  0  0  0
  140.1260   69.6000  227.9760 C   0  0  0  0  0  0  0  0  0  0  0  0
  139.9510   68.8310  229.0780 F   0  0  0  0  0  0  0  0  0  0  0  0
  140.7560   70.8110  228.1360 C   0  0  0  0  0  0  0  0  0  0  0  0
  140.9360   71.5930  227.0270 C   0  0  0  0  0  0  0  0  0  0  0  0
  140.4830   71.1370  225.8060 C   0  0  0  0  0  0  0  0  0  0  0  0
  140.6580   71.9000  224.7170 N   0  0  0  0  0  0  0  0  0  0  0  0
  139.5700   74.0390  223.2440 H   0  0  0  0  0  0  0  0  0  0  0  0
  141.1772   74.3829  220.7946 H   0  0  0  0  0  0  0  0  0  0  0  0
  139.2966   74.4252  220.6210 H   0  0  0  0  0  0  0  0  0  0  0  0
  142.9959   76.5531  220.3287 H   0  0  0  0  0  0  0  0  0  0  0  0
  141.7289   76.1124  219.1768 H   0  0  0  0  0  0  0  0  0  0  0  0
  142.9314   78.8222  219.8134 H   0  0  0  0  0  0  0  0  0  0  0  0
  142.5118   78.0516  218.2011 H   0  0  0  0  0  0  0  0  0  0  0  0
  141.1706   80.0194  218.7099 H   0  0  0  0  0  0  0  0  0  0  0  0
  140.2241   78.4767  218.5363 H   0  0  0  0  0  0  0  0  0  0  0  0
  140.3645   80.3237  220.7904 H   0  0  0  0  0  0  0  0  0  0  0  0
  139.2424   78.9656  220.4942 H   0  0  0  0  0  0  0  0  0  0  0  0
  142.0943   78.7678  221.6692 H   0  0  0  0  0  0  0  0  0  0  0  0
  139.9257   77.7299  223.1355 H   0  0  0  0  0  0  0  0  0  0  0  0
  141.5851   78.3710  224.8443 H   0  0  0  0  0  0  0  0  0  0  0  0
  142.6321   77.9855  223.4569 H   0  0  0  0  0  0  0  0  0  0  0  0
  142.4812   80.4692  224.8022 H   0  0  0  0  0  0  0  0  0  0  0  0
  143.2523   80.2008  223.2262 H   0  0  0  0  0  0  0  0  0  0  0  0
  141.0030   81.8097  223.6914 H   0  0  0  0  0  0  0  0  0  0  0  0
  141.4724   81.2084  222.1071 H   0  0  0  0  0  0  0  0  0  0  0  0
  139.5143   80.0136  224.1309 H   0  0  0  0  0  0  0  0  0  0  0  0
  139.2712   80.2232  222.3981 H   0  0  0  0  0  0  0  0  0  0  0  0
  139.2576   69.9871  222.2802 H   0  0  0  0  0  0  0  0  0  0  0  0
  138.9091   68.5256  224.3037 H   0  0  0  0  0  0  0  0  0  0  0  0
  139.1668   68.1370  226.7164 H   0  0  0  0  0  0  0  0  0  0  0  0
  141.1050   71.1418  229.1253 H   0  0  0  0  0  0  0  0  0  0  0  0
  141.4343   72.5703  227.1080 H   0  0  0  0  0  0  0  0  0  0  0  0
  1  2  2  0
  2  3  1  0
  3  4  1  0
  4  5  1  0
  5  6  2  0
  5  7  1  0
  7  8  1  0
  8  9  1  0
  9 10  1  0
 10 11  1  0
 11 12  1  0
 12 13  1  0
 13 14  1  0
 14 15  1  0
 15 16  1  0
 16 17  1  0
  2 18  1  0
 18 19  2  0
 19 20  1  0
 20 21  2  0
 21 22  1  0
 22 23  2  0
 23 24  1  0
 23 25  1  0
 25 26  2  0
 26 27  1  0
 27 28  2  0
 12  7  1  0
 17 13  1  0
 28 18  1  0
 27 21  1  0
  3 29  1  0
  4 30  1  0
  4 31  1  0
  8 32  1  0
  8 33  1  0
  9 34  1  0
  9 35  1  0
 10 36  1  0
 10 37  1  0
 11 38  1  0
 11 39  1  0
 12 40  1  1
 13 41  1  0
 14 42  1  0
 14 43  1  0
 15 44  1  0
 15 45  1  0
 16 46  1  0
 16 47  1  0
 17 48  1  0
 17 49  1  0
 19 50  1  0
 20 51  1  0
 22 52  1  0
 25 53  1  0
 26 54  1  0
M  END
>  <smiles>  (88) 
O=C(NCC(=O)N1CCCCC1C1CCCC1)c1ccc2cc(F)ccc2n1

>  <score_type>  (88) 
oracle

>  <origin>  (88) 
autodockgpu

>  <m_score__min__energy>  (88) 
-9.0899999999999999

>  <m_primary>  (88) 
energy

>  <rmsd>  (88) 
2.4177633854849048

>  <m_score__min__rmsd>  (88) 
2.4177633854849048

>  <meeko>  (88) 
{"free_energy": -8.75, "intermolecular_energy": -10.24, "internal_energy": -1.33, "cluster_size": 40, "cluster_id": 1, "rank_in_cluster": 10}

>  <energy>  (88) 
-7.72

>  <cluster_rmsd>  (88) 
1.17

>  <cluster>  (88) 
1

$$$$

     RDKit          3D

 54 57  0  0  0  0  0  0  0  0999 V2000
  139.6620   71.4800  221.0810 O   0  0  0  0  0  0  0  0  0  0  0  0
  139.6570   71.9780  222.2580 C   0  0  0  0  0  0  0  0  0  0  0  0
  139.5230   73.4200  222.3650 N   0  0  0  0  0  0  0  0  0  0  0  0
  139.3960   74.2700  221.2350 C   0  0  0  0  0  0  0  0  0  0  0  0
  140.4950   74.4540  220.3070 C   0  0  0  0  0  0  0  0  0  0  0  0
  140.3610   73.7810  219.1970 O   0  0  0  0  0  0  0  0  0  0  0  0
  141.6690   75.2150  220.3870 N   0  0  0  0  0  0  0  0  0  0  0  0
  143.0250   74.6170  220.4180 C   0  0  0  0  0  0  0  0  0  0  0  0
  143.9350   75.6380  219.7540 C   0  0  0  0  0  0  0  0  0  0  0  0
  143.3090   76.3870  218.6290 C   0  0  0  0  0  0  0  0  0  0  0  0
  142.0390   77.1080  219.0500 C   0  0  0  0  0  0  0  0  0  0  0  0
  141.6970   76.6750  220.4650 C   0  0  1  0  0  0  0  0  0  0  0  0
  140.5200   77.3290  221.0620 C   0  0  0  0  0  0  0  0  0  0  0  0
  140.6000   77.1760  222.5660 C   0  0  0  0  0  0  0  0  0  0  0  0
  141.5130   78.2700  223.0830 C   0  0  0  0  0  0  0  0  0  0  0  0
  141.7290   79.2180  221.9430 C   0  0  0  0  0  0  0  0  0  0  0  0
  140.6510   78.8540  220.9520 C   0  0  0  0  0  0  0  0  0  0  0  0
  139.7790   71.1480  223.4490 C   0  0  0  0  0  0  0  0  0  0  0  0
  139.3610   69.8360  223.3540 C   0  0  0  0  0  0  0  0  0  0  0  0
  139.4890   69.0610  224.5090 C   0  0  0  0  0  0  0  0  0  0  0  0
  140.0080   69.5980  225.6720 C   0  0  0  0  0  0  0  0  0  0  0  0
  140.1380   68.8280  226.8280 C   0  0  0  0  0  0  0  0  0  0  0  0
  140.6620   69.4370  227.9360 C   0  0  0  0  0  0  0  0  0  0  0  0
  140.7910   68.6960  229.0610 F   0  0  0  0  0  0  0  0  0  0  0  0
  141.0670   70.7500  227.9860 C   0  0  0  0  0  0  0  0  0  0  0  0
  140.9400   71.5060  226.8520 C   0  0  0  0  0  0  0  0  0  0  0  0
  140.4150   70.9250  225.7160 C   0  0  0  0  0  0  0  0  0  0  0  0
  140.2890   71.6620  224.6020 N   0  0  0  0  0  0  0  0  0  0  0  0
  139.5290   73.7620  223.3620 H   0  0  0  0  0  0  0  0  0  0  0  0
  138.5520   73.8818  220.6459 H   0  0  0  0  0  0  0  0  0  0  0  0
  139.2994   75.2654  221.6930 H   0  0  0  0  0  0  0  0  0  0  0  0
  143.3421   74.4370  221.4558 H   0  0  0  0  0  0  0  0  0  0  0  0
  143.0548   73.6467  219.9007 H   0  0  0  0  0  0  0  0  0  0  0  0
  144.2497   76.3649  220.5172 H   0  0  0  0  0  0  0  0  0  0  0  0
  144.7754   75.0736  219.3236 H   0  0  0  0  0  0  0  0  0  0  0  0
  144.0292   77.1293  218.2545 H   0  0  0  0  0  0  0  0  0  0  0  0
  143.0393   75.6590  217.8497 H   0  0  0  0  0  0  0  0  0  0  0  0
  142.2011   78.1956  219.0219 H   0  0  0  0  0  0  0  0  0  0  0  0
  141.2147   76.8586  218.3656 H   0  0  0  0  0  0  0  0  0  0  0  0
  142.4452   77.0147  221.1963 H   0  0  0  0  0  0  0  0  0  0  0  0
  139.6315   76.9037  220.5724 H   0  0  0  0  0  0  0  0  0  0  0  0
  139.5985   77.2811  223.0088 H   0  0  0  0  0  0  0  0  0  0  0  0
  140.9901   76.1836  222.8360 H   0  0  0  0  0  0  0  0  0  0  0  0
  141.0396   78.7926  223.9273 H   0  0  0  0  0  0  0  0  0  0  0  0
  142.4667   77.8556  223.4419 H   0  0  0  0  0  0  0  0  0  0  0  0
  141.6176   80.2606  222.2757 H   0  0  0  0  0  0  0  0  0  0  0  0
  142.7394   79.1403  221.5151 H   0  0  0  0  0  0  0  0  0  0  0  0
  139.7019   79.3448  221.2134 H   0  0  0  0  0  0  0  0  0  0  0  0
  140.8982   79.1780  219.9303 H   0  0  0  0  0  0  0  0  0  0  0  0
  138.9499   69.4237  222.4207 H   0  0  0  0  0  0  0  0  0  0  0  0
  139.1721   68.0078  224.4927 H   0  0  0  0  0  0  0  0  0  0  0  0
  139.8311   67.7719  226.8482 H   0  0  0  0  0  0  0  0  0  0  0  0
  141.4808   71.1802  228.9100 H   0  0  0  0  0  0  0  0  0  0  0  0
  141.2518   72.5609  226.8465 H   0  0  0  0  0  0  0  0  0  0  0  0
  1  2  2  0
  2  3  1  0
  3  4  1  0
  4  5  1  0
  5  6  2  0
  5  7  1  0
  7  8  1  0
  8  9  1  0
  9 10  1  0
 10 11  1  0
 11 12  1  0
 12 13  1  0
 13 14  1  0
 14 15  1  0
 15 16  1  0
 16 17  1  0
  2 18  1  0
 18 19  2  0
 19 20  1  0
 20 21  2  0
 21 22  1  0
 22 23  2  0
 23 24  1  0
 23 25  1  0
 25 26  2  0
 26 27  1  0
 27 28  2  0
 12  7  1  0
 17 13  1  0
 28 18  1  0
 27 21  1  0
  3 29  1  0
  4 30  1  0
  4 31  1  0
  8 32  1  0
  8 33  1  0
  9 34  1  0
  9 35  1  0
 10 36  1  0
 10 37  1  0
 11 38  1  0
 11 39  1  0
 12 40  1  1
 13 41  1  0
 14 42  1  0
 14 43  1  0
 15 44  1  0
 15 45  1  0
 16 46  1  0
 16 47  1  0
 17 48  1  0
 17 49  1  0
 19 50  1  0
 20 51  1  0
 22 52  1  0
 25 53  1  0
 26 54  1  0
M  END
>  <smiles>  (89) 
O=C(NCC(=O)N1CCCCC1C1CCCC1)c1ccc2cc(F)ccc2n1

>  <score_type>  (89) 
oracle

>  <origin>  (89) 
autodockgpu

>  <m_score__min__energy>  (89) 
-9.0899999999999999

>  <m_primary>  (89) 
energy

>  <rmsd>  (89) 
2.115537065741658

>  <m_score__min__rmsd>  (89) 
2.115537065741658

>  <meeko>  (89) 
{"free_energy": -7.79, "intermolecular_energy": -9.28, "internal_energy": -1.7, "cluster_size": 40, "cluster_id": 1, "rank_in_cluster": 36}

>  <energy>  (89) 
-7.59

>  <cluster_rmsd>  (89) 
1.18

>  <cluster>  (89) 
1

$$$$

     RDKit          3D

 54 57  0  0  0  0  0  0  0  0999 V2000
  141.3640   71.9940  221.4660 O   0  0  0  0  0  0  0  0  0  0  0  0
  140.6250   72.4030  222.4260 C   0  0  0  0  0  0  0  0  0  0  0  0
  140.1190   73.7610  222.3390 N   0  0  0  0  0  0  0  0  0  0  0  0
  140.4050   74.6230  221.2470 C   0  0  0  0  0  0  0  0  0  0  0  0
  140.1790   76.0520  221.3400 C   0  0  0  0  0  0  0  0  0  0  0  0
  139.0480   76.3670  221.9110 O   0  0  0  0  0  0  0  0  0  0  0  0
  140.9480   77.1490  220.9290 N   0  0  0  0  0  0  0  0  0  0  0  0
  141.8790   77.1030  219.7760 C   0  0  0  0  0  0  0  0  0  0  0  0
  141.8940   78.5130  219.2080 C   0  0  0  0  0  0  0  0  0  0  0  0
  140.5860   79.2240  219.2790 C   0  0  0  0  0  0  0  0  0  0  0  0
  140.0480   79.3050  220.6980 C   0  0  0  0  0  0  0  0  0  0  0  0
  140.9370   78.4530  221.5890 C   0  0  1  0  0  0  0  0  0  0  0  0
  140.5980   78.4670  223.0230 C   0  0  0  0  0  0  0  0  0  0  0  0
  141.8830   78.5560  223.8170 C   0  0  0  0  0  0  0  0  0  0  0  0
  142.2850   80.0170  223.8630 C   0  0  0  0  0  0  0  0  0  0  0  0
  141.1090   80.7970  223.3580 C   0  0  0  0  0  0  0  0  0  0  0  0
  139.9670   79.8130  223.4030 C   0  0  0  0  0  0  0  0  0  0  0  0
  140.2990   71.5550  223.5650 C   0  0  0  0  0  0  0  0  0  0  0  0
  139.5530   70.4210  223.3180 C   0  0  0  0  0  0  0  0  0  0  0  0
  139.2540   69.6240  224.4270 C   0  0  0  0  0  0  0  0  0  0  0  0
  139.6910   69.9720  225.6920 C   0  0  0  0  0  0  0  0  0  0  0  0
  139.3950   69.1800  226.8010 C   0  0  0  0  0  0  0  0  0  0  0  0
  139.8650   69.5970  228.0160 C   0  0  0  0  0  0  0  0  0  0  0  0
  139.5820   68.8330  229.0980 F   0  0  0  0  0  0  0  0  0  0  0  0
  140.6070   70.7370  228.2170 C   0  0  0  0  0  0  0  0  0  0  0  0
  140.8980   71.5140  227.1280 C   0  0  0  0  0  0  0  0  0  0  0  0
  140.4390   71.1250  225.8860 C   0  0  0  0  0  0  0  0  0  0  0  0
  140.7220   71.8840  224.8170 N   0  0  0  0  0  0  0  0  0  0  0  0
  139.5210   74.0330  223.1630 H   0  0  0  0  0  0  0  0  0  0  0  0
  141.4723   74.4904  221.0161 H   0  0  0  0  0  0  0  0  0  0  0  0
  139.6652   74.3114  220.4950 H   0  0  0  0  0  0  0  0  0  0  0  0
  142.8866   76.8114  220.1072 H   0  0  0  0  0  0  0  0  0  0  0  0
  141.5617   76.3644  219.0251 H   0  0  0  0  0  0  0  0  0  0  0  0
  142.6352   79.1011  219.7690 H   0  0  0  0  0  0  0  0  0  0  0  0
  142.1390   78.4165  218.1400 H   0  0  0  0  0  0  0  0  0  0  0  0
  140.7174   80.2453  218.8920 H   0  0  0  0  0  0  0  0  0  0  0  0
  139.8617   78.6555  218.6772 H   0  0  0  0  0  0  0  0  0  0  0  0
  140.0643   80.3491  221.0440 H   0  0  0  0  0  0  0  0  0  0  0  0
  139.0108   78.9404  220.7339 H   0  0  0  0  0  0  0  0  0  0  0  0
  141.9559   78.8595  221.6706 H   0  0  0  0  0  0  0  0  0  0  0  0
  139.9644   77.5882  223.2134 H   0  0  0  0  0  0  0  0  0  0  0  0
  141.7219   78.1777  224.8373 H   0  0  0  0  0  0  0  0  0  0  0  0
  142.6725   77.9497  223.3489 H   0  0  0  0  0  0  0  0  0  0  0  0
  142.5230   80.3135  224.8952 H   0  0  0  0  0  0  0  0  0  0  0  0
  143.1793   80.2034  223.2502 H   0  0  0  0  0  0  0  0  0  0  0  0
  140.9056   81.6610  224.0077 H   0  0  0  0  0  0  0  0  0  0  0  0
  141.2748   81.2049  222.3500 H   0  0  0  0  0  0  0  0  0  0  0  0
  139.5340   79.7671  224.4131 H   0  0  0  0  0  0  0  0  0  0  0  0
  139.1476   80.0948  222.7254 H   0  0  0  0  0  0  0  0  0  0  0  0
  139.2126   70.1587  222.3054 H   0  0  0  0  0  0  0  0  0  0  0  0
  138.6624   68.7066  224.2913 H   0  0  0  0  0  0  0  0  0  0  0  0
  138.8065   68.2559  226.7025 H   0  0  0  0  0  0  0  0  0  0  0  0
  140.9561   71.0162  229.2221 H   0  0  0  0  0  0  0  0  0  0  0  0
  141.4890   72.4348  227.2413 H   0  0  0  0  0  0  0  0  0  0  0  0
  1  2  2  0
  2  3  1  0
  3  4  1  0
  4  5  1  0
  5  6  2  0
  5  7  1  0
  7  8  1  0
  8  9  1  0
  9 10  1  0
 10 11  1  0
 11 12  1  0
 12 13  1  0
 13 14  1  0
 14 15  1  0
 15 16  1  0
 16 17  1  0
  2 18  1  0
 18 19  2  0
 19 20  1  0
 20 21  2  0
 21 22  1  0
 22 23  2  0
 23 24  1  0
 23 25  1  0
 25 26  2  0
 26 27  1  0
 27 28  2  0
 12  7  1  0
 17 13  1  0
 28 18  1  0
 27 21  1  0
  3 29  1  0
  4 30  1  0
  4 31  1  0
  8 32  1  0
  8 33  1  0
  9 34  1  0
  9 35  1  0
 10 36  1  0
 10 37  1  0
 11 38  1  0
 11 39  1  0
 12 40  1  1
 13 41  1  0
 14 42  1  0
 14 43  1  0
 15 44  1  0
 15 45  1  0
 16 46  1  0
 16 47  1  0
 17 48  1  0
 17 49  1  0
 19 50  1  0
 20 51  1  0
 22 52  1  0
 25 53  1  0
 26 54  1  0
M  END
>  <smiles>  (90) 
O=C(NCC(=O)N1CCCCC1C1CCCC1)c1ccc2cc(F)ccc2n1

>  <score_type>  (90) 
oracle

>  <origin>  (90) 
autodockgpu

>  <m_score__min__energy>  (90) 
-9.0899999999999999

>  <m_primary>  (90) 
energy

>  <rmsd>  (90) 
2.518516207838753

>  <m_score__min__rmsd>  (90) 
2.518516207838753

>  <meeko>  (90) 
{"free_energy": -8.51, "intermolecular_energy": -10.0, "internal_energy": -1.4, "cluster_size": 40, "cluster_id": 1, "rank_in_cluster": 13}

>  <energy>  (90) 
-7.59

>  <cluster_rmsd>  (90) 
1.19

>  <cluster>  (90) 
1

$$$$

     RDKit          3D

 54 57  0  0  0  0  0  0  0  0999 V2000
  138.5480   72.1980  221.8080 O   0  0  0  0  0  0  0  0  0  0  0  0
  139.5470   72.1290  222.6030 C   0  0  0  0  0  0  0  0  0  0  0  0
  140.6610   73.0230  222.3450 N   0  0  0  0  0  0  0  0  0  0  0  0
  140.6740   73.9510  221.2700 C   0  0  0  0  0  0  0  0  0  0  0  0
  140.5270   75.3730  221.5050 C   0  0  0  0  0  0  0  0  0  0  0  0
  139.5600   75.6700  222.3300 O   0  0  0  0  0  0  0  0  0  0  0  0
  141.2280   76.4810  221.0080 N   0  0  0  0  0  0  0  0  0  0  0  0
  142.2360   76.3860  219.9250 C   0  0  0  0  0  0  0  0  0  0  0  0
  142.1720   77.7160  219.1910 C   0  0  0  0  0  0  0  0  0  0  0  0
  140.8070   78.3080  219.1000 C   0  0  0  0  0  0  0  0  0  0  0  0
  140.1690   78.5040  220.4650 C   0  0  0  0  0  0  0  0  0  0  0  0
  141.0630   77.8460  221.5030 C   0  0  1  0  0  0  0  0  0  0  0  0
  140.6270   77.9960  222.9020 C   0  0  0  0  0  0  0  0  0  0  0  0
  141.8330   78.3580  223.7420 C   0  0  0  0  0  0  0  0  0  0  0  0
  142.0400   79.8540  223.6110 C   0  0  0  0  0  0  0  0  0  0  0  0
  140.8120   80.3970  222.9450 C   0  0  0  0  0  0  0  0  0  0  0  0
  139.8040   79.2810  223.0640 C   0  0  0  0  0  0  0  0  0  0  0  0
  139.5790   71.1970  223.7220 C   0  0  0  0  0  0  0  0  0  0  0  0
  138.9060   70.0020  223.5730 C   0  0  0  0  0  0  0  0  0  0  0  0
  138.9520   69.1250  224.6610 C   0  0  0  0  0  0  0  0  0  0  0  0
  139.6400   69.4580  225.8130 C   0  0  0  0  0  0  0  0  0  0  0  0
  139.6890   68.5870  226.9010 C   0  0  0  0  0  0  0  0  0  0  0  0
  140.3910   68.9940  228.0030 C   0  0  0  0  0  0  0  0  0  0  0  0
  140.4430   68.1530  229.0630 F   0  0  0  0  0  0  0  0  0  0  0  0
  141.0480   70.1960  228.1090 C   0  0  0  0  0  0  0  0  0  0  0  0
  141.0000   71.0520  227.0410 C   0  0  0  0  0  0  0  0  0  0  0  0
  140.3010   70.6750  225.9130 C   0  0  0  0  0  0  0  0  0  0  0  0
  140.2520   71.5100  224.8640 N   0  0  0  0  0  0  0  0  0  0  0  0
  141.4490   72.9100  223.0350 H   0  0  0  0  0  0  0  0  0  0  0  0
  141.6367   73.8179  220.7547 H   0  0  0  0  0  0  0  0  0  0  0  0
  139.7512   73.7010  220.7260 H   0  0  0  0  0  0  0  0  0  0  0  0
  143.2395   76.2279  220.3469 H   0  0  0  0  0  0  0  0  0  0  0  0
  142.0334   75.5393  219.2527 H   0  0  0  0  0  0  0  0  0  0  0  0
  142.8217   78.4305  219.7177 H   0  0  0  0  0  0  0  0  0  0  0  0
  142.4964   77.5189  218.1586 H   0  0  0  0  0  0  0  0  0  0  0  0
  140.8782   79.2850  218.5997 H   0  0  0  0  0  0  0  0  0  0  0  0
  140.1754   77.6094  218.5316 H   0  0  0  0  0  0  0  0  0  0  0  0
  140.0745   79.5783  220.6816 H   0  0  0  0  0  0  0  0  0  0  0  0
  139.1659   78.0529  220.4851 H   0  0  0  0  0  0  0  0  0  0  0  0
  142.0365   78.3500  221.5939 H   0  0  0  0  0  0  0  0  0  0  0  0
  140.0989   77.0709  223.1765 H   0  0  0  0  0  0  0  0  0  0  0  0
  141.6520   78.0936  224.7943 H   0  0  0  0  0  0  0  0  0  0  0  0
  142.7239   77.8100  223.4015 H   0  0  0  0  0  0  0  0  0  0  0  0
  142.1659   80.3086  224.6047 H   0  0  0  0  0  0  0  0  0  0  0  0
  142.9432   80.0808  223.0255 H   0  0  0  0  0  0  0  0  0  0  0  0
  140.4559   81.3012  223.4603 H   0  0  0  0  0  0  0  0  0  0  0  0
  140.9937   80.6918  221.9010 H   0  0  0  0  0  0  0  0  0  0  0  0
  139.3121   79.3055  224.0476 H   0  0  0  0  0  0  0  0  0  0  0  0
  139.0035   79.3606  222.3138 H   0  0  0  0  0  0  0  0  0  0  0  0
  138.3632   69.7529  222.6493 H   0  0  0  0  0  0  0  0  0  0  0  0
  138.4336   68.1567  224.5995 H   0  0  0  0  0  0  0  0  0  0  0  0
  139.1830   67.6107  226.8745 H   0  0  0  0  0  0  0  0  0  0  0  0
  141.5963   70.4629  229.0245 H   0  0  0  0  0  0  0  0  0  0  0  0
  141.5110   72.0252  227.0820 H   0  0  0  0  0  0  0  0  0  0  0  0
  1  2  2  0
  2  3  1  0
  3  4  1  0
  4  5  1  0
  5  6  2  0
  5  7  1  0
  7  8  1  0
  8  9  1  0
  9 10  1  0
 10 11  1  0
 11 12  1  0
 12 13  1  0
 13 14  1  0
 14 15  1  0
 15 16  1  0
 16 17  1  0
  2 18  1  0
 18 19  2  0
 19 20  1  0
 20 21  2  0
 21 22  1  0
 22 23  2  0
 23 24  1  0
 23 25  1  0
 25 26  2  0
 26 27  1  0
 27 28  2  0
 12  7  1  0
 17 13  1  0
 28 18  1  0
 27 21  1  0
  3 29  1  0
  4 30  1  0
  4 31  1  0
  8 32  1  0
  8 33  1  0
  9 34  1  0
  9 35  1  0
 10 36  1  0
 10 37  1  0
 11 38  1  0
 11 39  1  0
 12 40  1  1
 13 41  1  0
 14 42  1  0
 14 43  1  0
 15 44  1  0
 15 45  1  0
 16 46  1  0
 16 47  1  0
 17 48  1  0
 17 49  1  0
 19 50  1  0
 20 51  1  0
 22 52  1  0
 25 53  1  0
 26 54  1  0
M  END
>  <smiles>  (91) 
O=C(NCC(=O)N1CCCCC1C1CCCC1)c1ccc2cc(F)ccc2n1

>  <score_type>  (91) 
oracle

>  <origin>  (91) 
autodockgpu

>  <m_score__min__energy>  (91) 
-9.0899999999999999

>  <m_primary>  (91) 
energy

>  <rmsd>  (91) 
2.2663158402518886

>  <m_score__min__rmsd>  (91) 
2.2663158402518886

>  <meeko>  (91) 
{"free_energy": -8.16, "intermolecular_energy": -9.66, "internal_energy": -1.26, "cluster_size": 40, "cluster_id": 1, "rank_in_cluster": 26}

>  <energy>  (91) 
-8.32

>  <cluster_rmsd>  (91) 
0.0

>  <cluster>  (91) 
2

$$$$

     RDKit          3D

 54 57  0  0  0  0  0  0  0  0999 V2000
  141.4460   72.7750  221.9770 O   0  0  0  0  0  0  0  0  0  0  0  0
  140.3690   72.6530  222.6550 C   0  0  0  0  0  0  0  0  0  0  0  0
  139.2800   73.5590  222.3360 N   0  0  0  0  0  0  0  0  0  0  0  0
  139.3700   74.5470  221.3200 C   0  0  0  0  0  0  0  0  0  0  0  0
  139.9160   75.8600  221.5970 C   0  0  0  0  0  0  0  0  0  0  0  0
  139.1540   76.5940  222.3600 O   0  0  0  0  0  0  0  0  0  0  0  0
  141.1060   76.4830  221.1930 N   0  0  0  0  0  0  0  0  0  0  0  0
  142.1950   75.7710  220.4840 C   0  0  0  0  0  0  0  0  0  0  0  0
  142.8560   76.8170  219.5990 C   0  0  0  0  0  0  0  0  0  0  0  0
  141.9200   77.8250  219.0280 C   0  0  0  0  0  0  0  0  0  0  0  0
  141.1350   78.5600  220.1020 C   0  0  0  0  0  0  0  0  0  0  0  0
  141.4180   77.8900  221.4350 C   0  0  1  0  0  0  0  0  0  0  0  0
  140.7850   78.5170  222.6080 C   0  0  0  0  0  0  0  0  0  0  0  0
  141.8230   78.6360  223.7050 C   0  0  0  0  0  0  0  0  0  0  0  0
  142.6300   79.8890  223.4270 C   0  0  0  0  0  0  0  0  0  0  0  0
  141.8950   80.6410  222.3600 C   0  0  0  0  0  0  0  0  0  0  0  0
  140.5270   80.0050  222.3360 C   0  0  0  0  0  0  0  0  0  0  0  0
  140.2260   71.6520  223.7040 C   0  0  0  0  0  0  0  0  0  0  0  0
  139.5900   70.4730  223.3740 C   0  0  0  0  0  0  0  0  0  0  0  0
  139.4660   69.5290  224.3970 C   0  0  0  0  0  0  0  0  0  0  0  0
  139.9610   69.7840  225.6630 C   0  0  0  0  0  0  0  0  0  0  0  0
  139.8400   68.8450  226.6870 C   0  0  0  0  0  0  0  0  0  0  0  0
  140.3570   69.1770  227.9100 C   0  0  0  0  0  0  0  0  0  0  0  0
  140.2430   68.2700  228.9100 F   0  0  0  0  0  0  0  0  0  0  0  0
  140.9850   70.3660  228.1950 C   0  0  0  0  0  0  0  0  0  0  0  0
  141.1040   71.2880  227.1900 C   0  0  0  0  0  0  0  0  0  0  0  0
  140.5940   70.9870  225.9440 C   0  0  0  0  0  0  0  0  0  0  0  0
  140.7080   71.8870  224.9550 N   0  0  0  0  0  0  0  0  0  0  0  0
  138.4260   73.4040  222.9330 H   0  0  0  0  0  0  0  0  0  0  0  0
  139.9876   74.1151  220.5188 H   0  0  0  0  0  0  0  0  0  0  0  0
  138.3139   74.7668  221.1048 H   0  0  0  0  0  0  0  0  0  0  0  0
  142.9198   75.3629  221.2038 H   0  0  0  0  0  0  0  0  0  0  0  0
  141.8134   74.9224  219.8973 H   0  0  0  0  0  0  0  0  0  0  0  0
  143.6087   77.3488  220.1995 H   0  0  0  0  0  0  0  0  0  0  0  0
  143.2901   76.2752  218.7458 H   0  0  0  0  0  0  0  0  0  0  0  0
  142.5008   78.5590  218.4502 H   0  0  0  0  0  0  0  0  0  0  0  0
  141.1990   77.2908  218.3917 H   0  0  0  0  0  0  0  0  0  0  0  0
  141.4506   79.6131  220.1396 H   0  0  0  0  0  0  0  0  0  0  0  0
  140.0585   78.5246  219.8787 H   0  0  0  0  0  0  0  0  0  0  0  0
  142.4658   78.0112  221.7471 H   0  0  0  0  0  0  0  0  0  0  0  0
  139.8874   77.9267  222.8445 H   0  0  0  0  0  0  0  0  0  0  0  0
  141.3284   78.7162  224.6843 H   0  0  0  0  0  0  0  0  0  0  0  0
  142.4738   77.7494  223.7236 H   0  0  0  0  0  0  0  0  0  0  0  0
  142.7078   80.5007  224.3379 H   0  0  0  0  0  0  0  0  0  0  0  0
  143.6523   79.6404  223.1058 H   0  0  0  0  0  0  0  0  0  0  0  0
  141.8245   81.7091  222.6134 H   0  0  0  0  0  0  0  0  0  0  0  0
  142.4006   80.5910  221.3843 H   0  0  0  0  0  0  0  0  0  0  0  0
  139.8847   80.4366  223.1177 H   0  0  0  0  0  0  0  0  0  0  0  0
  140.0079   80.1697  221.3803 H   0  0  0  0  0  0  0  0  0  0  0  0
  139.2020   70.2864  222.3618 H   0  0  0  0  0  0  0  0  0  0  0  0
  138.9678   68.5699  224.1925 H   0  0  0  0  0  0  0  0  0  0  0  0
  139.3483   67.8756  226.5184 H   0  0  0  0  0  0  0  0  0  0  0  0
  141.3803   70.5707  229.2009 H   0  0  0  0  0  0  0  0  0  0  0  0
  141.5984   72.2534  227.3731 H   0  0  0  0  0  0  0  0  0  0  0  0
  1  2  2  0
  2  3  1  0
  3  4  1  0
  4  5  1  0
  5  6  2  0
  5  7  1  0
  7  8  1  0
  8  9  1  0
  9 10  1  0
 10 11  1  0
 11 12  1  0
 12 13  1  0
 13 14  1  0
 14 15  1  0
 15 16  1  0
 16 17  1  0
  2 18  1  0
 18 19  2  0
 19 20  1  0
 20 21  2  0
 21 22  1  0
 22 23  2  0
 23 24  1  0
 23 25  1  0
 25 26  2  0
 26 27  1  0
 27 28  2  0
 12  7  1  0
 17 13  1  0
 28 18  1  0
 27 21  1  0
  3 29  1  0
  4 30  1  0
  4 31  1  0
  8 32  1  0
  8 33  1  0
  9 34  1  0
  9 35  1  0
 10 36  1  0
 10 37  1  0
 11 38  1  0
 11 39  1  0
 12 40  1  1
 13 41  1  0
 14 42  1  0
 14 43  1  0
 15 44  1  0
 15 45  1  0
 16 46  1  0
 16 47  1  0
 17 48  1  0
 17 49  1  0
 19 50  1  0
 20 51  1  0
 22 52  1  0
 25 53  1  0
 26 54  1  0
M  END
>  <smiles>  (92) 
O=C(NCC(=O)N1CCCCC1C1CCCC1)c1ccc2cc(F)ccc2n1

>  <score_type>  (92) 
oracle

>  <origin>  (92) 
autodockgpu

>  <m_score__min__energy>  (92) 
-9.0899999999999999

>  <m_primary>  (92) 
energy

>  <rmsd>  (92) 
2.203275727910228

>  <m_score__min__rmsd>  (92) 
2.203275727910228

>  <meeko>  (92) 
{"free_energy": -9.07, "intermolecular_energy": -10.56, "internal_energy": -1.01, "cluster_size": 40, "cluster_id": 1, "rank_in_cluster": 2}

>  <energy>  (92) 
-8.28

>  <cluster_rmsd>  (92) 
0.12

>  <cluster>  (92) 
2

$$$$

     RDKit          3D

 54 57  0  0  0  0  0  0  0  0999 V2000
  140.4890   71.3760  221.2050 O   0  0  0  0  0  0  0  0  0  0  0  0
  140.0710   71.8290  222.3250 C   0  0  0  0  0  0  0  0  0  0  0  0
  139.6500   73.2180  222.3610 N   0  0  0  0  0  0  0  0  0  0  0  0
  139.6830   74.0640  221.2220 C   0  0  0  0  0  0  0  0  0  0  0  0
  140.8550   74.8580  220.9100 C   0  0  0  0  0  0  0  0  0  0  0  0
  141.2150   75.6610  221.8740 O   0  0  0  0  0  0  0  0  0  0  0  0
  141.6650   74.9220  219.7670 N   0  0  0  0  0  0  0  0  0  0  0  0
  141.1410   75.2330  218.4160 C   0  0  0  0  0  0  0  0  0  0  0  0
  142.2770   75.9370  217.6910 C   0  0  0  0  0  0  0  0  0  0  0  0
  143.1130   76.8160  218.5560 C   0  0  0  0  0  0  0  0  0  0  0  0
  143.7130   76.0670  219.7350 C   0  0  0  0  0  0  0  0  0  0  0  0
  143.1060   74.6750  219.7680 C   0  0  1  0  0  0  0  0  0  0  0  0
  143.6250   73.7810  220.8180 C   0  0  0  0  0  0  0  0  0  0  0  0
  143.4190   72.3490  220.3700 C   0  0  0  0  0  0  0  0  0  0  0  0
  144.5710   71.9950  219.4500 C   0  0  0  0  0  0  0  0  0  0  0  0
  145.5800   73.0950  219.5890 C   0  0  0  0  0  0  0  0  0  0  0  0
  145.1580   73.8270  220.8390 C   0  0  0  0  0  0  0  0  0  0  0  0
  140.0140   70.9980  223.5210 C   0  0  0  0  0  0  0  0  0  0  0  0
  139.4920   69.7280  223.3870 C   0  0  0  0  0  0  0  0  0  0  0  0
  139.4490   68.9510  224.5490 C   0  0  0  0  0  0  0  0  0  0  0  0
  139.9080   69.4490  225.7540 C   0  0  0  0  0  0  0  0  0  0  0  0
  139.8670   68.6780  226.9160 C   0  0  0  0  0  0  0  0  0  0  0  0
  140.3410   69.2470  228.0660 C   0  0  0  0  0  0  0  0  0  0  0  0
  140.3050   68.5040  229.1980 F   0  0  0  0  0  0  0  0  0  0  0  0
  140.8540   70.5190  228.1540 C   0  0  0  0  0  0  0  0  0  0  0  0
  140.8940   71.2760  227.0140 C   0  0  0  0  0  0  0  0  0  0  0  0
  140.4240   70.7350  225.8350 C   0  0  0  0  0  0  0  0  0  0  0  0
  140.4620   71.4730  224.7160 N   0  0  0  0  0  0  0  0  0  0  0  0
  139.3210   73.5250  223.3140 H   0  0  0  0  0  0  0  0  0  0  0  0
  139.5019   73.4192  220.3494 H   0  0  0  0  0  0  0  0  0  0  0  0
  138.9338   74.8300  221.4706 H   0  0  0  0  0  0  0  0  0  0  0  0
  140.8636   74.3081  217.8891 H   0  0  0  0  0  0  0  0  0  0  0  0
  140.2375   75.8587  218.4631 H   0  0  0  0  0  0  0  0  0  0  0  0
  142.9295   75.1699  217.2486 H   0  0  0  0  0  0  0  0  0  0  0  0
  141.8102   76.5910  216.9398 H   0  0  0  0  0  0  0  0  0  0  0  0
  143.9304   77.2338  217.9499 H   0  0  0  0  0  0  0  0  0  0  0  0
  142.4633   77.6079  218.9571 H   0  0  0  0  0  0  0  0  0  0  0  0
  144.8041   75.9952  219.6149 H   0  0  0  0  0  0  0  0  0  0  0  0
  143.4981   76.5988  220.6736 H   0  0  0  0  0  0  0  0  0  0  0  0
  143.4010   74.0711  218.8972 H   0  0  0  0  0  0  0  0  0  0  0  0
  143.1403   74.0738  221.7611 H   0  0  0  0  0  0  0  0  0  0  0  0
  143.4139   71.6786  221.2421 H   0  0  0  0  0  0  0  0  0  0  0  0
  142.4563   72.2381  219.8495 H   0  0  0  0  0  0  0  0  0  0  0  0
  145.0138   71.0332  219.7482 H   0  0  0  0  0  0  0  0  0  0  0  0
  144.2321   71.8953  218.4083 H   0  0  0  0  0  0  0  0  0  0  0  0
  146.5937   72.6829  219.7014 H   0  0  0  0  0  0  0  0  0  0  0  0
  145.6129   73.7512  218.7068 H   0  0  0  0  0  0  0  0  0  0  0  0
  145.5490   73.3224  221.7348 H   0  0  0  0  0  0  0  0  0  0  0  0
  145.5432   74.8569  220.8684 H   0  0  0  0  0  0  0  0  0  0  0  0
  139.1299   69.3479  222.4204 H   0  0  0  0  0  0  0  0  0  0  0  0
  139.0442   67.9292  224.5034 H   0  0  0  0  0  0  0  0  0  0  0  0
  139.4690   67.6526  226.9077 H   0  0  0  0  0  0  0  0  0  0  0  0
  141.2214   70.9168  229.1115 H   0  0  0  0  0  0  0  0  0  0  0  0
  141.2948   72.3001  227.0377 H   0  0  0  0  0  0  0  0  0  0  0  0
  1  2  2  0
  2  3  1  0
  3  4  1  0
  4  5  1  0
  5  6  2  0
  5  7  1  0
  7  8  1  0
  8  9  1  0
  9 10  1  0
 10 11  1  0
 11 12  1  0
 12 13  1  0
 13 14  1  0
 14 15  1  0
 15 16  1  0
 16 17  1  0
  2 18  1  0
 18 19  2  0
 19 20  1  0
 20 21  2  0
 21 22  1  0
 22 23  2  0
 23 24  1  0
 23 25  1  0
 25 26  2  0
 26 27  1  0
 27 28  2  0
 12  7  1  0
 17 13  1  0
 28 18  1  0
 27 21  1  0
  3 29  1  0
  4 30  1  0
  4 31  1  0
  8 32  1  0
  8 33  1  0
  9 34  1  0
  9 35  1  0
 10 36  1  0
 10 37  1  0
 11 38  1  0
 11 39  1  0
 12 40  1  6
 13 41  1  0
 14 42  1  0
 14 43  1  0
 15 44  1  0
 15 45  1  0
 16 46  1  0
 16 47  1  0
 17 48  1  0
 17 49  1  0
 19 50  1  0
 20 51  1  0
 22 52  1  0
 25 53  1  0
 26 54  1  0
M  END
>  <smiles>  (93) 
O=C(NCC(=O)N1CCCCC1C1CCCC1)c1ccc2cc(F)ccc2n1

>  <score_type>  (93) 
oracle

>  <origin>  (93) 
autodockgpu

>  <m_score__min__energy>  (93) 
-9.0899999999999999

>  <m_primary>  (93) 
energy

>  <rmsd>  (93) 
1.9808728637788668

>  <m_score__min__rmsd>  (93) 
1.9808728637788668

>  <meeko>  (93) 
{"free_energy": -7.97, "intermolecular_energy": -9.47, "internal_energy": -1.84, "cluster_size": 40, "cluster_id": 1, "rank_in_cluster": 32}

>  <energy>  (93) 
-7.84

>  <cluster_rmsd>  (93) 
1.39

>  <cluster>  (93) 
2

$$$$

     RDKit          3D

 54 57  0  0  0  0  0  0  0  0999 V2000
  141.3020   72.6930  221.6480 O   0  0  0  0  0  0  0  0  0  0  0  0
  140.3170   72.7240  222.4630 C   0  0  0  0  0  0  0  0  0  0  0  0
  139.3820   73.8270  222.3300 N   0  0  0  0  0  0  0  0  0  0  0  0
  139.5210   74.8420  221.3460 C   0  0  0  0  0  0  0  0  0  0  0  0
  140.5070   75.8950  221.4880 C   0  0  0  0  0  0  0  0  0  0  0  0
  141.4530   75.6140  222.3410 O   0  0  0  0  0  0  0  0  0  0  0  0
  140.6250   77.1530  220.8820 N   0  0  0  0  0  0  0  0  0  0  0  0
  141.1360   77.3480  219.5050 C   0  0  0  0  0  0  0  0  0  0  0  0
  140.4270   78.5860  218.9780 C   0  0  0  0  0  0  0  0  0  0  0  0
  139.0210   78.7390  219.4450 C   0  0  0  0  0  0  0  0  0  0  0  0
  138.9120   78.7570  220.9610 C   0  0  0  0  0  0  0  0  0  0  0  0
  140.2760   78.4140  221.5350 C   0  0  1  0  0  0  0  0  0  0  0  0
  140.3730   78.4480  223.0050 C   0  0  0  0  0  0  0  0  0  0  0  0
  141.8280   78.6270  223.3840 C   0  0  0  0  0  0  0  0  0  0  0  0
  142.1380   80.1090  223.2950 C   0  0  0  0  0  0  0  0  0  0  0  0
  140.8220   80.8110  223.1510 C   0  0  0  0  0  0  0  0  0  0  0  0
  139.8030   79.7680  223.5410 C   0  0  0  0  0  0  0  0  0  0  0  0
  140.1290   71.7040  223.4860 C   0  0  0  0  0  0  0  0  0  0  0  0
  139.4120   70.5780  223.1360 C   0  0  0  0  0  0  0  0  0  0  0  0
  139.2460   69.6150  224.1350 C   0  0  0  0  0  0  0  0  0  0  0  0
  139.7790   69.8000  225.3970 C   0  0  0  0  0  0  0  0  0  0  0  0
  139.6160   68.8410  226.3960 C   0  0  0  0  0  0  0  0  0  0  0  0
  140.1760   69.1030  227.6170 C   0  0  0  0  0  0  0  0  0  0  0  0
  140.0220   68.1760  228.5930 F   0  0  0  0  0  0  0  0  0  0  0  0
  140.8850   70.2400  227.9230 C   0  0  0  0  0  0  0  0  0  0  0  0
  141.0450   71.1810  226.9420 C   0  0  0  0  0  0  0  0  0  0  0  0
  140.4940   70.9510  225.6980 C   0  0  0  0  0  0  0  0  0  0  0  0
  140.6480   71.8700  224.7340 N   0  0  0  0  0  0  0  0  0  0  0  0
  138.5990   73.7920  223.0330 H   0  0  0  0  0  0  0  0  0  0  0  0
  139.7462   74.3296  220.3990 H   0  0  0  0  0  0  0  0  0  0  0  0
  138.5710   75.3899  221.4307 H   0  0  0  0  0  0  0  0  0  0  0  0
  142.2246   77.5051  219.5179 H   0  0  0  0  0  0  0  0  0  0  0  0
  140.9457   76.4690  218.8716 H   0  0  0  0  0  0  0  0  0  0  0  0
  140.9947   79.4708  219.3017 H   0  0  0  0  0  0  0  0  0  0  0  0
  140.3832   78.4792  217.8841 H   0  0  0  0  0  0  0  0  0  0  0  0
  138.6188   79.6839  219.0508 H   0  0  0  0  0  0  0  0  0  0  0  0
  138.4500   77.8733  219.0782 H   0  0  0  0  0  0  0  0  0  0  0  0
  138.6048   79.7570  221.3011 H   0  0  0  0  0  0  0  0  0  0  0  0
  138.1614   78.0270  221.2984 H   0  0  0  0  0  0  0  0  0  0  0  0
  141.0255   79.1889  221.3163 H   0  0  0  0  0  0  0  0  0  0  0  0
  139.8764   77.5419  223.3824 H   0  0  0  0  0  0  0  0  0  0  0  0
  141.9967   78.2681  224.4100 H   0  0  0  0  0  0  0  0  0  0  0  0
  142.4797   78.0516  222.7101 H   0  0  0  0  0  0  0  0  0  0  0  0
  142.6503   80.4456  224.2084 H   0  0  0  0  0  0  0  0  0  0  0  0
  142.8001   80.3265  222.4439 H   0  0  0  0  0  0  0  0  0  0  0  0
  140.7677   81.6803  223.8229 H   0  0  0  0  0  0  0  0  0  0  0  0
  140.6602   81.1997  222.1348 H   0  0  0  0  0  0  0  0  0  0  0  0
  139.6895   79.7261  224.6343 H   0  0  0  0  0  0  0  0  0  0  0  0
  138.8054   79.9872  223.1326 H   0  0  0  0  0  0  0  0  0  0  0  0
  138.9944   70.4459  222.1270 H   0  0  0  0  0  0  0  0  0  0  0  0
  138.6829   68.6963  223.9139 H   0  0  0  0  0  0  0  0  0  0  0  0
  139.0593   67.9107  226.2101 H   0  0  0  0  0  0  0  0  0  0  0  0
  141.3110   70.3892  228.9261 H   0  0  0  0  0  0  0  0  0  0  0  0
  141.6044   72.1067  227.1423 H   0  0  0  0  0  0  0  0  0  0  0  0
  1  2  2  0
  2  3  1  0
  3  4  1  0
  4  5  1  0
  5  6  2  0
  5  7  1  0
  7  8  1  0
  8  9  1  0
  9 10  1  0
 10 11  1  0
 11 12  1  0
 12 13  1  0
 13 14  1  0
 14 15  1  0
 15 16  1  0
 16 17  1  0
  2 18  1  0
 18 19  2  0
 19 20  1  0
 20 21  2  0
 21 22  1  0
 22 23  2  0
 23 24  1  0
 23 25  1  0
 25 26  2  0
 26 27  1  0
 27 28  2  0
 12  7  1  0
 17 13  1  0
 28 18  1  0
 27 21  1  0
  3 29  1  0
  4 30  1  0
  4 31  1  0
  8 32  1  0
  8 33  1  0
  9 34  1  0
  9 35  1  0
 10 36  1  0
 10 37  1  0
 11 38  1  0
 11 39  1  0
 12 40  1  6
 13 41  1  0
 14 42  1  0
 14 43  1  0
 15 44  1  0
 15 45  1  0
 16 46  1  0
 16 47  1  0
 17 48  1  0
 17 49  1  0
 19 50  1  0
 20 51  1  0
 22 52  1  0
 25 53  1  0
 26 54  1  0
M  END
>  <smiles>  (94) 
O=C(NCC(=O)N1CCCCC1C1CCCC1)c1ccc2cc(F)ccc2n1

>  <score_type>  (94) 
oracle

>  <origin>  (94) 
autodockgpu

>  <m_score__min__energy>  (94) 
-9.0899999999999999

>  <m_primary>  (94) 
energy

>  <rmsd>  (94) 
2.3915385381064267

>  <m_score__min__rmsd>  (94) 
2.3915385381064267

>  <meeko>  (94) 
{"free_energy": -8.21, "intermolecular_energy": -9.7, "internal_energy": -1.38, "cluster_size": 40, "cluster_id": 1, "rank_in_cluster": 21}

>  <energy>  (94) 
-7.98

>  <cluster_rmsd>  (94) 
0.0

>  <cluster>  (94) 
3

$$$$

     RDKit          3D

 54 57  0  0  0  0  0  0  0  0999 V2000
  141.1130   72.1740  221.3050 O   0  0  0  0  0  0  0  0  0  0  0  0
  140.4170   72.5020  222.3260 C   0  0  0  0  0  0  0  0  0  0  0  0
  139.8360   73.8320  222.3320 N   0  0  0  0  0  0  0  0  0  0  0  0
  140.0070   74.7540  221.2650 C   0  0  0  0  0  0  0  0  0  0  0  0
  141.2870   75.3860  221.0180 C   0  0  0  0  0  0  0  0  0  0  0  0
  142.3080   74.5970  221.2150 O   0  0  0  0  0  0  0  0  0  0  0  0
  141.6260   76.6840  220.6120 N   0  0  0  0  0  0  0  0  0  0  0  0
  142.5760   76.9700  219.5110 C   0  0  0  0  0  0  0  0  0  0  0  0
  142.1100   78.2820  218.9000 C   0  0  0  0  0  0  0  0  0  0  0  0
  140.6310   78.4650  218.8810 C   0  0  0  0  0  0  0  0  0  0  0  0
  140.0180   78.3590  220.2670 C   0  0  0  0  0  0  0  0  0  0  0  0
  141.1010   77.9010  221.2290 C   0  0  1  0  0  0  0  0  0  0  0  0
  140.6950   77.8050  222.6420 C   0  0  0  0  0  0  0  0  0  0  0  0
  141.7910   78.4070  223.4960 C   0  0  0  0  0  0  0  0  0  0  0  0
  141.5830   79.9090  223.5020 C   0  0  0  0  0  0  0  0  0  0  0  0
  140.2290   80.1530  222.9080 C   0  0  0  0  0  0  0  0  0  0  0  0
  139.5650   78.7990  222.9360 C   0  0  0  0  0  0  0  0  0  0  0  0
  140.2090   71.5900  223.4430 C   0  0  0  0  0  0  0  0  0  0  0  0
  139.5260   70.4180  223.1870 C   0  0  0  0  0  0  0  0  0  0  0  0
  139.3400   69.5600  224.2750 C   0  0  0  0  0  0  0  0  0  0  0  0
  139.8210   69.8880  225.5290 C   0  0  0  0  0  0  0  0  0  0  0  0
  139.6380   69.0350  226.6180 C   0  0  0  0  0  0  0  0  0  0  0  0
  140.1450   69.4350  227.8240 C   0  0  0  0  0  0  0  0  0  0  0  0
  139.9710   68.6120  228.8850 F   0  0  0  0  0  0  0  0  0  0  0  0
  140.8210   70.6130  228.0340 C   0  0  0  0  0  0  0  0  0  0  0  0
  141.0010   71.4500  226.9660 C   0  0  0  0  0  0  0  0  0  0  0  0
  140.5020   71.0800  225.7340 C   0  0  0  0  0  0  0  0  0  0  0  0
  140.6770   71.8970  224.6840 N   0  0  0  0  0  0  0  0  0  0  0  0
  139.2790   74.0350  223.2020 H   0  0  0  0  0  0  0  0  0  0  0  0
  139.7414   74.2165  220.3427 H   0  0  0  0  0  0  0  0  0  0  0  0
  139.3774   75.6006  221.5761 H   0  0  0  0  0  0  0  0  0  0  0  0
  143.5989   77.0707  219.9028 H   0  0  0  0  0  0  0  0  0  0  0  0
  142.5947   76.1588  218.7683 H   0  0  0  0  0  0  0  0  0  0  0  0
  142.5506   79.1065  219.4797 H   0  0  0  0  0  0  0  0  0  0  0  0
  142.4370   78.2712  217.8498 H   0  0  0  0  0  0  0  0  0  0  0  0
  140.4030   79.4590  218.4687 H   0  0  0  0  0  0  0  0  0  0  0  0
  140.2012   77.6642  218.2613 H   0  0  0  0  0  0  0  0  0  0  0  0
  139.6322   79.3404  220.5800 H   0  0  0  0  0  0  0  0  0  0  0  0
  139.1851   77.6405  220.2611 H   0  0  0  0  0  0  0  0  0  0  0  0
  141.8947   78.6529  221.3503 H   0  0  0  0  0  0  0  0  0  0  0  0
  140.4460   76.7511  222.8349 H   0  0  0  0  0  0  0  0  0  0  0  0
  141.7281   78.0140  224.5215 H   0  0  0  0  0  0  0  0  0  0  0  0
  142.7827   78.1524  223.0939 H   0  0  0  0  0  0  0  0  0  0  0  0
  141.6213   80.2939  224.5317 H   0  0  0  0  0  0  0  0  0  0  0  0
  142.3681   80.4218  222.9270 H   0  0  0  0  0  0  0  0  0  0  0  0
  139.6629   80.8780  223.5113 H   0  0  0  0  0  0  0  0  0  0  0  0
  140.2830   80.5756  221.8939 H   0  0  0  0  0  0  0  0  0  0  0  0
  139.1240   78.6036  223.9246 H   0  0  0  0  0  0  0  0  0  0  0  0
  138.7440   78.7230  222.2079 H   0  0  0  0  0  0  0  0  0  0  0  0
  139.1492   70.1729  222.1830 H   0  0  0  0  0  0  0  0  0  0  0  0
  138.8034   68.6106  224.1313 H   0  0  0  0  0  0  0  0  0  0  0  0
  139.1066   68.0779  226.5109 H   0  0  0  0  0  0  0  0  0  0  0  0
  141.2059   70.8754  229.0305 H   0  0  0  0  0  0  0  0  0  0  0  0
  141.5356   72.4036  227.0881 H   0  0  0  0  0  0  0  0  0  0  0  0
  1  2  2  0
  2  3  1  0
  3  4  1  0
  4  5  1  0
  5  6  2  0
  5  7  1  0
  7  8  1  0
  8  9  1  0
  9 10  1  0
 10 11  1  0
 11 12  1  0
 12 13  1  0
 13 14  1  0
 14 15  1  0
 15 16  1  0
 16 17  1  0
  2 18  1  0
 18 19  2  0
 19 20  1  0
 20 21  2  0
 21 22  1  0
 22 23  2  0
 23 24  1  0
 23 25  1  0
 25 26  2  0
 26 27  1  0
 27 28  2  0
 12  7  1  0
 17 13  1  0
 28 18  1  0
 27 21  1  0
  3 29  1  0
  4 30  1  0
  4 31  1  0
  8 32  1  0
  8 33  1  0
  9 34  1  0
  9 35  1  0
 10 36  1  0
 10 37  1  0
 11 38  1  0
 11 39  1  0
 12 40  1  1
 13 41  1  0
 14 42  1  0
 14 43  1  0
 15 44  1  0
 15 45  1  0
 16 46  1  0
 16 47  1  0
 17 48  1  0
 17 49  1  0
 19 50  1  0
 20 51  1  0
 22 52  1  0
 25 53  1  0
 26 54  1  0
M  END
>  <smiles>  (95) 
O=C(NCC(=O)N1CCCCC1C1CCCC1)c1ccc2cc(F)ccc2n1

>  <score_type>  (95) 
oracle

>  <origin>  (95) 
autodockgpu

>  <m_score__min__energy>  (95) 
-9.0899999999999999

>  <m_primary>  (95) 
energy

>  <rmsd>  (95) 
2.3378145298478197

>  <m_score__min__rmsd>  (95) 
2.3378145298478197

>  <meeko>  (95) 
{"free_energy": -8.36, "intermolecular_energy": -9.85, "internal_energy": -1.36, "cluster_size": 40, "cluster_id": 1, "rank_in_cluster": 16}

>  <energy>  (95) 
-7.93

>  <cluster_rmsd>  (95) 
0.11

>  <cluster>  (95) 
3

$$$$

     RDKit          3D

 54 57  0  0  0  0  0  0  0  0999 V2000
  139.6590   71.0870  221.2080 O   0  0  0  0  0  0  0  0  0  0  0  0
  139.7510   71.5860  222.3810 C   0  0  0  0  0  0  0  0  0  0  0  0
  139.8260   73.0320  222.4820 N   0  0  0  0  0  0  0  0  0  0  0  0
  139.7950   73.8870  221.3490 C   0  0  0  0  0  0  0  0  0  0  0  0
  140.9350   74.7120  221.0000 C   0  0  0  0  0  0  0  0  0  0  0  0
  141.3040   75.5250  221.9520 O   0  0  0  0  0  0  0  0  0  0  0  0
  141.7050   74.7970  219.8320 N   0  0  0  0  0  0  0  0  0  0  0  0
  141.1270   75.0670  218.4940 C   0  0  0  0  0  0  0  0  0  0  0  0
  142.2070   75.8120  217.7260 C   0  0  0  0  0  0  0  0  0  0  0  0
  143.0280   76.7400  218.5530 C   0  0  0  0  0  0  0  0  0  0  0  0
  143.6970   76.0340  219.7220 C   0  0  0  0  0  0  0  0  0  0  0  0
  143.1550   74.6170  219.7900 C   0  0  1  0  0  0  0  0  0  0  0  0
  143.7460   73.7610  220.8330 C   0  0  0  0  0  0  0  0  0  0  0  0
  143.5650   72.3150  220.4240 C   0  0  0  0  0  0  0  0  0  0  0  0
  144.6860   71.9740  219.4620 C   0  0  0  0  0  0  0  0  0  0  0  0
  145.6660   73.1060  219.5330 C   0  0  0  0  0  0  0  0  0  0  0  0
  145.2780   73.8520  220.7860 C   0  0  0  0  0  0  0  0  0  0  0  0
  139.7820   70.7510  223.5750 C   0  0  0  0  0  0  0  0  0  0  0  0
  139.2410   69.4850  223.4780 C   0  0  0  0  0  0  0  0  0  0  0  0
  139.2830   68.7040  224.6360 C   0  0  0  0  0  0  0  0  0  0  0  0
  139.8410   69.1920  225.8040 C   0  0  0  0  0  0  0  0  0  0  0  0
  139.8850   68.4160  226.9620 C   0  0  0  0  0  0  0  0  0  0  0  0
  140.4530   68.9760  228.0730 C   0  0  0  0  0  0  0  0  0  0  0  0
  140.5000   68.2280  229.2020 F   0  0  0  0  0  0  0  0  0  0  0  0
  140.9820   70.2430  228.1250 C   0  0  0  0  0  0  0  0  0  0  0  0
  140.9390   71.0050  226.9890 C   0  0  0  0  0  0  0  0  0  0  0  0
  140.3720   70.4740  225.8490 C   0  0  0  0  0  0  0  0  0  0  0  0
  140.3280   71.2160  224.7320 N   0  0  0  0  0  0  0  0  0  0  0  0
  139.9030   73.3730  223.4760 H   0  0  0  0  0  0  0  0  0  0  0  0
  139.5970   73.2443  220.4785 H   0  0  0  0  0  0  0  0  0  0  0  0
  139.0369   74.6323  221.6314 H   0  0  0  0  0  0  0  0  0  0  0  0
  140.8760   74.1239  217.9866 H   0  0  0  0  0  0  0  0  0  0  0  0
  140.1981   75.6523  218.5620 H   0  0  0  0  0  0  0  0  0  0  0  0
  142.8802   75.0693  217.2731 H   0  0  0  0  0  0  0  0  0  0  0  0
  141.6877   76.4340  216.9821 H   0  0  0  0  0  0  0  0  0  0  0  0
  143.8067   77.1858  217.9166 H   0  0  0  0  0  0  0  0  0  0  0  0
  142.3561   77.5079  218.9639 H   0  0  0  0  0  0  0  0  0  0  0  0
  144.7861   76.0097  219.5691 H   0  0  0  0  0  0  0  0  0  0  0  0
  143.4869   76.5679  220.6605 H   0  0  0  0  0  0  0  0  0  0  0  0
  143.4502   74.0172  218.9164 H   0  0  0  0  0  0  0  0  0  0  0  0
  143.2935   74.0598  221.7901 H   0  0  0  0  0  0  0  0  0  0  0  0
  143.6178   71.6641  221.3092 H   0  0  0  0  0  0  0  0  0  0  0  0
  142.5847   72.1651  219.9480 H   0  0  0  0  0  0  0  0  0  0  0  0
  145.1703   71.0327  219.7610 H   0  0  0  0  0  0  0  0  0  0  0  0
  144.3055   71.8405  218.4386 H   0  0  0  0  0  0  0  0  0  0  0  0
  146.6958   72.7266  219.6077 H   0  0  0  0  0  0  0  0  0  0  0  0
  145.6394   73.7437  218.6371 H   0  0  0  0  0  0  0  0  0  0  0  0
  145.7225   73.3778  221.6735 H   0  0  0  0  0  0  0  0  0  0  0  0
  145.6338   74.8928  220.7785 H   0  0  0  0  0  0  0  0  0  0  0  0
  138.8013   69.1116  222.5414 H   0  0  0  0  0  0  0  0  0  0  0  0
  138.8662   67.6862  224.6186 H   0  0  0  0  0  0  0  0  0  0  0  0
  139.4789   67.3939  226.9810 H   0  0  0  0  0  0  0  0  0  0  0  0
  141.4269   70.6333  229.0522 H   0  0  0  0  0  0  0  0  0  0  0  0
  141.3502   72.0252  226.9850 H   0  0  0  0  0  0  0  0  0  0  0  0
  1  2  2  0
  2  3  1  0
  3  4  1  0
  4  5  1  0
  5  6  2  0
  5  7  1  0
  7  8  1  0
  8  9  1  0
  9 10  1  0
 10 11  1  0
 11 12  1  0
 12 13  1  0
 13 14  1  0
 14 15  1  0
 15 16  1  0
 16 17  1  0
  2 18  1  0
 18 19  2  0
 19 20  1  0
 20 21  2  0
 21 22  1  0
 22 23  2  0
 23 24  1  0
 23 25  1  0
 25 26  2  0
 26 27  1  0
 27 28  2  0
 12  7  1  0
 17 13  1  0
 28 18  1  0
 27 21  1  0
  3 29  1  0
  4 30  1  0
  4 31  1  0
  8 32  1  0
  8 33  1  0
  9 34  1  0
  9 35  1  0
 10 36  1  0
 10 37  1  0
 11 38  1  0
 11 39  1  0
 12 40  1  6
 13 41  1  0
 14 42  1  0
 14 43  1  0
 15 44  1  0
 15 45  1  0
 16 46  1  0
 16 47  1  0
 17 48  1  0
 17 49  1  0
 19 50  1  0
 20 51  1  0
 22 52  1  0
 25 53  1  0
 26 54  1  0
M  END
>  <smiles>  (96) 
O=C(NCC(=O)N1CCCCC1C1CCCC1)c1ccc2cc(F)ccc2n1

>  <score_type>  (96) 
oracle

>  <origin>  (96) 
autodockgpu

>  <m_score__min__energy>  (96) 
-9.0899999999999999

>  <m_primary>  (96) 
energy

>  <rmsd>  (96) 
1.9664148455558288

>  <m_score__min__rmsd>  (96) 
1.9664148455558288

>  <meeko>  (96) 
{"free_energy": -7.93, "intermolecular_energy": -9.42, "internal_energy": -1.86, "cluster_size": 40, "cluster_id": 1, "rank_in_cluster": 35}

>  <energy>  (96) 
-7.91

>  <cluster_rmsd>  (96) 
0.16

>  <cluster>  (96) 
3

$$$$

     RDKit          3D

 54 57  0  0  0  0  0  0  0  0999 V2000
  141.3640   72.0660  221.8210 O   0  0  0  0  0  0  0  0  0  0  0  0
  140.3590   72.1880  222.6010 C   0  0  0  0  0  0  0  0  0  0  0  0
  139.4240   73.2610  222.3140 N   0  0  0  0  0  0  0  0  0  0  0  0
  139.5850   74.1520  221.2190 C   0  0  0  0  0  0  0  0  0  0  0  0
  140.8600   74.7830  220.9460 C   0  0  0  0  0  0  0  0  0  0  0  0
  141.3840   75.3760  221.9830 O   0  0  0  0  0  0  0  0  0  0  0  0
  141.6270   74.8740  219.7760 N   0  0  0  0  0  0  0  0  0  0  0  0
  141.0540   75.2160  218.4530 C   0  0  0  0  0  0  0  0  0  0  0  0
  142.1630   75.9380  217.7030 C   0  0  0  0  0  0  0  0  0  0  0  0
  143.0300   76.7970  218.5560 C   0  0  0  0  0  0  0  0  0  0  0  0
  143.6730   76.0220  219.6940 C   0  0  0  0  0  0  0  0  0  0  0  0
  143.0670   74.6290  219.7180 C   0  0  1  0  0  0  0  0  0  0  0  0
  143.6250   73.7110  220.7260 C   0  0  0  0  0  0  0  0  0  0  0  0
  143.6290   72.3120  220.1480 C   0  0  0  0  0  0  0  0  0  0  0  0
  144.8740   72.1820  219.2920 C   0  0  0  0  0  0  0  0  0  0  0  0
  145.7260   73.3770  219.5960 C   0  0  0  0  0  0  0  0  0  0  0  0
  145.1360   73.9360  220.8670 C   0  0  0  0  0  0  0  0  0  0  0  0
  140.1480   71.2970  223.7340 C   0  0  0  0  0  0  0  0  0  0  0  0
  139.4030   70.1570  223.5150 C   0  0  0  0  0  0  0  0  0  0  0  0
  139.2160   69.3180  224.6170 C   0  0  0  0  0  0  0  0  0  0  0  0
  139.7560   69.6330  225.8500 C   0  0  0  0  0  0  0  0  0  0  0  0
  139.5720   68.7990  226.9530 C   0  0  0  0  0  0  0  0  0  0  0  0
  140.1410   69.1850  228.1370 C   0  0  0  0  0  0  0  0  0  0  0  0
  139.9660   68.3810  229.2120 F   0  0  0  0  0  0  0  0  0  0  0  0
  140.8780   70.3320  228.3100 C   0  0  0  0  0  0  0  0  0  0  0  0
  141.0590   71.1510  227.2280 C   0  0  0  0  0  0  0  0  0  0  0  0
  140.4990   70.7940  226.0190 C   0  0  0  0  0  0  0  0  0  0  0  0
  140.6740   71.5920  224.9550 N   0  0  0  0  0  0  0  0  0  0  0  0
  138.6240   73.3060  222.9970 H   0  0  0  0  0  0  0  0  0  0  0  0
  139.3173   73.5860  220.3146 H   0  0  0  0  0  0  0  0  0  0  0  0
  138.9530   75.0044  221.5087 H   0  0  0  0  0  0  0  0  0  0  0  0
  140.7574   74.3034  217.9152 H   0  0  0  0  0  0  0  0  0  0  0  0
  140.1529   75.8398  218.5479 H   0  0  0  0  0  0  0  0  0  0  0  0
  142.7987   75.1819  217.2191 H   0  0  0  0  0  0  0  0  0  0  0  0
  141.6686   76.6090  216.9851 H   0  0  0  0  0  0  0  0  0  0  0  0
  143.8244   77.2293  217.9299 H   0  0  0  0  0  0  0  0  0  0  0  0
  142.3956   77.5788  218.9990 H   0  0  0  0  0  0  0  0  0  0  0  0
  144.7588   75.9535  219.5317 H   0  0  0  0  0  0  0  0  0  0  0  0
  143.4935   76.5323  220.6518 H   0  0  0  0  0  0  0  0  0  0  0  0
  143.3292   74.0459  218.8229 H   0  0  0  0  0  0  0  0  0  0  0  0
  143.0473   73.8575  221.6505 H   0  0  0  0  0  0  0  0  0  0  0  0
  143.6506   71.5695  220.9593 H   0  0  0  0  0  0  0  0  0  0  0  0
  142.7237   72.1354  219.5486 H   0  0  0  0  0  0  0  0  0  0  0  0
  145.4133   71.2569  219.5436 H   0  0  0  0  0  0  0  0  0  0  0  0
  144.6188   72.1369  218.2230 H   0  0  0  0  0  0  0  0  0  0  0  0
  146.7741   73.0804  219.7495 H   0  0  0  0  0  0  0  0  0  0  0  0
  145.7331   74.1100  218.7758 H   0  0  0  0  0  0  0  0  0  0  0  0
  145.5277   73.4010  221.7447 H   0  0  0  0  0  0  0  0  0  0  0  0
  145.3874   74.9971  221.0113 H   0  0  0  0  0  0  0  0  0  0  0  0
  138.9795   69.9212  222.5276 H   0  0  0  0  0  0  0  0  0  0  0  0
  138.6308   68.3938  224.5016 H   0  0  0  0  0  0  0  0  0  0  0  0
  138.9923   67.8674  226.8746 H   0  0  0  0  0  0  0  0  0  0  0  0
  141.3100   70.5847  229.2896 H   0  0  0  0  0  0  0  0  0  0  0  0
  141.6419   72.0792  227.3213 H   0  0  0  0  0  0  0  0  0  0  0  0
  1  2  2  0
  2  3  1  0
  3  4  1  0
  4  5  1  0
  5  6  2  0
  5  7  1  0
  7  8  1  0
  8  9  1  0
  9 10  1  0
 10 11  1  0
 11 12  1  0
 12 13  1  0
 13 14  1  0
 14 15  1  0
 15 16  1  0
 16 17  1  0
  2 18  1  0
 18 19  2  0
 19 20  1  0
 20 21  2  0
 21 22  1  0
 22 23  2  0
 23 24  1  0
 23 25  1  0
 25 26  2  0
 26 27  1  0
 27 28  2  0
 12  7  1  0
 17 13  1  0
 28 18  1  0
 27 21  1  0
  3 29  1  0
  4 30  1  0
  4 31  1  0
  8 32  1  0
  8 33  1  0
  9 34  1  0
  9 35  1  0
 10 36  1  0
 10 37  1  0
 11 38  1  0
 11 39  1  0
 12 40  1  6
 13 41  1  0
 14 42  1  0
 14 43  1  0
 15 44  1  0
 15 45  1  0
 16 46  1  0
 16 47  1  0
 17 48  1  0
 17 49  1  0
 19 50  1  0
 20 51  1  0
 22 52  1  0
 25 53  1  0
 26 54  1  0
M  END
>  <smiles>  (97) 
O=C(NCC(=O)N1CCCCC1C1CCCC1)c1ccc2cc(F)ccc2n1

>  <score_type>  (97) 
oracle

>  <origin>  (97) 
autodockgpu

>  <m_score__min__energy>  (97) 
-9.0899999999999999

>  <m_primary>  (97) 
energy

>  <rmsd>  (97) 
2.046201093023046

>  <m_score__min__rmsd>  (97) 
2.046201093023046

>  <meeko>  (97) 
{"free_energy": -8.19, "intermolecular_energy": -9.68, "internal_energy": -1.6, "cluster_size": 40, "cluster_id": 1, "rank_in_cluster": 24}

>  <energy>  (97) 
-7.71

>  <cluster_rmsd>  (97) 
0.92

>  <cluster>  (97) 
3

$$$$

     RDKit          3D

 54 57  0  0  0  0  0  0  0  0999 V2000
  141.0380   71.9840  221.2740 O   0  0  0  0  0  0  0  0  0  0  0  0
  140.4270   72.3640  222.3300 C   0  0  0  0  0  0  0  0  0  0  0  0
  139.9230   73.7260  222.3500 N   0  0  0  0  0  0  0  0  0  0  0  0
  140.0790   74.6220  221.2600 C   0  0  0  0  0  0  0  0  0  0  0  0
  140.3360   76.0320  221.4790 C   0  0  0  0  0  0  0  0  0  0  0  0
  139.5530   76.5750  222.3700 O   0  0  0  0  0  0  0  0  0  0  0  0
  141.2660   76.9130  220.9080 N   0  0  0  0  0  0  0  0  0  0  0  0
  142.3350   76.4760  219.9790 C   0  0  0  0  0  0  0  0  0  0  0  0
  142.5760   77.6570  219.0520 C   0  0  0  0  0  0  0  0  0  0  0  0
  141.3530   78.4380  218.7120 C   0  0  0  0  0  0  0  0  0  0  0  0
  140.6380   78.9600  219.9470 C   0  0  0  0  0  0  0  0  0  0  0  0
  141.3020   78.3500  221.1700 C   0  0  1  0  0  0  0  0  0  0  0  0
  140.7740   78.8000  222.4690 C   0  0  0  0  0  0  0  0  0  0  0  0
  141.8780   78.6870  223.4990 C   0  0  0  0  0  0  0  0  0  0  0  0
  142.7360   79.9300  223.3790 C   0  0  0  0  0  0  0  0  0  0  0  0
  141.9840   80.8830  222.5000 C   0  0  0  0  0  0  0  0  0  0  0  0
  140.5840   80.3230  222.4630 C   0  0  0  0  0  0  0  0  0  0  0  0
  140.2380   71.4800  223.4730 C   0  0  0  0  0  0  0  0  0  0  0  0
  139.6190   70.2690  223.2420 C   0  0  0  0  0  0  0  0  0  0  0  0
  139.4490   69.4390  224.3540 C   0  0  0  0  0  0  0  0  0  0  0  0
  139.8850   69.8300  225.6060 C   0  0  0  0  0  0  0  0  0  0  0  0
  139.7190   69.0050  226.7190 C   0  0  0  0  0  0  0  0  0  0  0  0
  140.1780   69.4690  227.9210 C   0  0  0  0  0  0  0  0  0  0  0  0
  140.0200   68.6740  229.0060 F   0  0  0  0  0  0  0  0  0  0  0  0
  140.7910   70.6850  228.1060 C   0  0  0  0  0  0  0  0  0  0  0  0
  140.9550   71.4950  227.0140 C   0  0  0  0  0  0  0  0  0  0  0  0
  140.5030   71.0600  225.7850 C   0  0  0  0  0  0  0  0  0  0  0  0
  140.6620   71.8500  224.7130 N   0  0  0  0  0  0  0  0  0  0  0  0
  139.4340   73.9720  223.2500 H   0  0  0  0  0  0  0  0  0  0  0  0
  140.9192   74.2411  220.6608 H   0  0  0  0  0  0  0  0  0  0  0  0
  139.0760   74.6279  220.8085 H   0  0  0  0  0  0  0  0  0  0  0  0
  143.2516   76.2310  220.5357 H   0  0  0  0  0  0  0  0  0  0  0  0
  142.0470   75.5723  219.4219 H   0  0  0  0  0  0  0  0  0  0  0  0
  143.2919   78.3353  219.5393 H   0  0  0  0  0  0  0  0  0  0  0  0
  142.9525   77.2396  218.1065 H   0  0  0  0  0  0  0  0  0  0  0  0
  141.6430   79.2931  218.0837 H   0  0  0  0  0  0  0  0  0  0  0  0
  140.6616   77.7657  218.1829 H   0  0  0  0  0  0  0  0  0  0  0  0
  140.7167   80.0564  219.9879 H   0  0  0  0  0  0  0  0  0  0  0  0
  139.5731   78.6862  219.9151 H   0  0  0  0  0  0  0  0  0  0  0  0
  142.3372   78.6989  221.2989 H   0  0  0  0  0  0  0  0  0  0  0  0
  139.8601   78.2197  222.6640 H   0  0  0  0  0  0  0  0  0  0  0  0
  141.4458   78.6241  224.5086 H   0  0  0  0  0  0  0  0  0  0  0  0
  142.4787   77.7815  223.3279 H   0  0  0  0  0  0  0  0  0  0  0  0
  142.8993   80.3763  224.3711 H   0  0  0  0  0  0  0  0  0  0  0  0
  143.7230   79.6926  222.9554 H   0  0  0  0  0  0  0  0  0  0  0  0
  141.9881   81.8959  222.9289 H   0  0  0  0  0  0  0  0  0  0  0  0
  142.4289   80.9738  221.4981 H   0  0  0  0  0  0  0  0  0  0  0  0
  140.0133   80.6463  223.3460 H   0  0  0  0  0  0  0  0  0  0  0  0
  140.0202   80.6689  221.5841 H   0  0  0  0  0  0  0  0  0  0  0  0
  139.2782   69.9730  222.2389 H   0  0  0  0  0  0  0  0  0  0  0  0
  138.9613   68.4608  224.2308 H   0  0  0  0  0  0  0  0  0  0  0  0
  139.2376   68.0196  226.6331 H   0  0  0  0  0  0  0  0  0  0  0  0
  141.1394   70.9982  229.1012 H   0  0  0  0  0  0  0  0  0  0  0  0
  141.4396   72.4773  227.1151 H   0  0  0  0  0  0  0  0  0  0  0  0
  1  2  2  0
  2  3  1  0
  3  4  1  0
  4  5  1  0
  5  6  2  0
  5  7  1  0
  7  8  1  0
  8  9  1  0
  9 10  1  0
 10 11  1  0
 11 12  1  0
 12 13  1  0
 13 14  1  0
 14 15  1  0
 15 16  1  0
 16 17  1  0
  2 18  1  0
 18 19  2  0
 19 20  1  0
 20 21  2  0
 21 22  1  0
 22 23  2  0
 23 24  1  0
 23 25  1  0
 25 26  2  0
 26 27  1  0
 27 28  2  0
 12  7  1  0
 17 13  1  0
 28 18  1  0
 27 21  1  0
  3 29  1  0
  4 30  1  0
  4 31  1  0
  8 32  1  0
  8 33  1  0
  9 34  1  0
  9 35  1  0
 10 36  1  0
 10 37  1  0
 11 38  1  0
 11 39  1  0
 12 40  1  1
 13 41  1  0
 14 42  1  0
 14 43  1  0
 15 44  1  0
 15 45  1  0
 16 46  1  0
 16 47  1  0
 17 48  1  0
 17 49  1  0
 19 50  1  0
 20 51  1  0
 22 52  1  0
 25 53  1  0
 26 54  1  0
M  END
>  <smiles>  (98) 
O=C(NCC(=O)N1CCCCC1C1CCCC1)c1ccc2cc(F)ccc2n1

>  <score_type>  (98) 
oracle

>  <origin>  (98) 
autodockgpu

>  <m_score__min__energy>  (98) 
-9.0899999999999999

>  <m_primary>  (98) 
energy

>  <rmsd>  (98) 
2.264339674102817

>  <m_score__min__rmsd>  (98) 
2.264339674102817

>  <meeko>  (98) 
{"free_energy": -8.8, "intermolecular_energy": -10.3, "internal_energy": -1.15, "cluster_size": 40, "cluster_id": 1, "rank_in_cluster": 7}

>  <energy>  (98) 
-7.67

>  <cluster_rmsd>  (98) 
0.43

>  <cluster>  (98) 
3

$$$$

     RDKit          3D

 54 57  0  0  0  0  0  0  0  0999 V2000
  141.3030   71.7800  221.6800 O   0  0  0  0  0  0  0  0  0  0  0  0
  140.3650   72.0010  222.5200 C   0  0  0  0  0  0  0  0  0  0  0  0
  139.4920   73.1300  222.2560 N   0  0  0  0  0  0  0  0  0  0  0  0
  139.6410   73.9720  221.1220 C   0  0  0  0  0  0  0  0  0  0  0  0
  140.8750   74.6910  220.8770 C   0  0  0  0  0  0  0  0  0  0  0  0
  141.3270   75.3250  221.9240 O   0  0  0  0  0  0  0  0  0  0  0  0
  141.6640   74.8310  219.7270 N   0  0  0  0  0  0  0  0  0  0  0  0
  141.1100   75.1920  218.4000 C   0  0  0  0  0  0  0  0  0  0  0  0
  142.2150   75.9600  217.6930 C   0  0  0  0  0  0  0  0  0  0  0  0
  143.0410   76.8200  218.5860 C   0  0  0  0  0  0  0  0  0  0  0  0
  143.6800   76.0330  219.7190 C   0  0  0  0  0  0  0  0  0  0  0  0
  143.1100   74.6240  219.6940 C   0  0  1  0  0  0  0  0  0  0  0  0
  143.6700   73.6960  220.6920 C   0  0  0  0  0  0  0  0  0  0  0  0
  143.6750   72.3030  220.0990 C   0  0  0  0  0  0  0  0  0  0  0  0
  144.9180   72.1840  219.2390 C   0  0  0  0  0  0  0  0  0  0  0  0
  145.7700   73.3760  219.5550 C   0  0  0  0  0  0  0  0  0  0  0  0
  145.1820   73.9210  220.8330 C   0  0  0  0  0  0  0  0  0  0  0  0
  140.1700   71.1630  223.6960 C   0  0  0  0  0  0  0  0  0  0  0  0
  139.4310   70.0090  223.5380 C   0  0  0  0  0  0  0  0  0  0  0  0
  139.2580   69.2220  224.6800 C   0  0  0  0  0  0  0  0  0  0  0  0
  139.8060   69.6000  225.8930 C   0  0  0  0  0  0  0  0  0  0  0  0
  139.6360   68.8190  227.0350 C   0  0  0  0  0  0  0  0  0  0  0  0
  140.2100   69.2650  228.1940 C   0  0  0  0  0  0  0  0  0  0  0  0
  140.0500   68.5120  229.3080 F   0  0  0  0  0  0  0  0  0  0  0  0
  140.9410   70.4240  228.3070 C   0  0  0  0  0  0  0  0  0  0  0  0
  141.1070   71.1910  227.1860 C   0  0  0  0  0  0  0  0  0  0  0  0
  140.5420   70.7720  225.9990 C   0  0  0  0  0  0  0  0  0  0  0  0
  140.7030   71.5200  224.8970 N   0  0  0  0  0  0  0  0  0  0  0  0
  138.7450   73.2550  222.9880 H   0  0  0  0  0  0  0  0  0  0  0  0
  139.4686   73.3390  220.2391 H   0  0  0  0  0  0  0  0  0  0  0  0
  138.9286   74.7836  221.3313 H   0  0  0  0  0  0  0  0  0  0  0  0
  140.8484   74.2862  217.8334 H   0  0  0  0  0  0  0  0  0  0  0  0
  140.1913   75.7902  218.4907 H   0  0  0  0  0  0  0  0  0  0  0  0
  142.8806   75.2326  217.2053 H   0  0  0  0  0  0  0  0  0  0  0  0
  141.7189   76.6357  216.9807 H   0  0  0  0  0  0  0  0  0  0  0  0
  143.8369   77.2883  217.9883 H   0  0  0  0  0  0  0  0  0  0  0  0
  142.3770   77.5740  219.0339 H   0  0  0  0  0  0  0  0  0  0  0  0
  144.7705   75.9968  219.5794 H   0  0  0  0  0  0  0  0  0  0  0  0
  143.4668   76.5137  220.6851 H   0  0  0  0  0  0  0  0  0  0  0  0
  143.4059   74.0707  218.7905 H   0  0  0  0  0  0  0  0  0  0  0  0
  143.0933   73.8323  221.6187 H   0  0  0  0  0  0  0  0  0  0  0  0
  143.6996   71.5519  220.9023 H   0  0  0  0  0  0  0  0  0  0  0  0
  142.7687   72.1314  219.4997 H   0  0  0  0  0  0  0  0  0  0  0  0
  145.4585   71.2564  219.4786 H   0  0  0  0  0  0  0  0  0  0  0  0
  144.6605   72.1513  218.1701 H   0  0  0  0  0  0  0  0  0  0  0  0
  146.8184   73.0781  219.7036 H   0  0  0  0  0  0  0  0  0  0  0  0
  145.7753   74.1180  218.7430 H   0  0  0  0  0  0  0  0  0  0  0  0
  145.5757   73.3771  221.7043 H   0  0  0  0  0  0  0  0  0  0  0  0
  145.4328   74.9807  220.9883 H   0  0  0  0  0  0  0  0  0  0  0  0
  139.0014   69.7238  222.5664 H   0  0  0  0  0  0  0  0  0  0  0  0
  138.6783   68.2895  224.6136 H   0  0  0  0  0  0  0  0  0  0  0  0
  139.0627   67.8807  227.0055 H   0  0  0  0  0  0  0  0  0  0  0  0
  141.3793   70.7257  229.2698 H   0  0  0  0  0  0  0  0  0  0  0  0
  141.6822   72.1275  227.2305 H   0  0  0  0  0  0  0  0  0  0  0  0
  1  2  2  0
  2  3  1  0
  3  4  1  0
  4  5  1  0
  5  6  2  0
  5  7  1  0
  7  8  1  0
  8  9  1  0
  9 10  1  0
 10 11  1  0
 11 12  1  0
 12 13  1  0
 13 14  1  0
 14 15  1  0
 15 16  1  0
 16 17  1  0
  2 18  1  0
 18 19  2  0
 19 20  1  0
 20 21  2  0
 21 22  1  0
 22 23  2  0
 23 24  1  0
 23 25  1  0
 25 26  2  0
 26 27  1  0
 27 28  2  0
 12  7  1  0
 17 13  1  0
 28 18  1  0
 27 21  1  0
  3 29  1  0
  4 30  1  0
  4 31  1  0
  8 32  1  0
  8 33  1  0
  9 34  1  0
  9 35  1  0
 10 36  1  0
 10 37  1  0
 11 38  1  0
 11 39  1  0
 12 40  1  6
 13 41  1  0
 14 42  1  0
 14 43  1  0
 15 44  1  0
 15 45  1  0
 16 46  1  0
 16 47  1  0
 17 48  1  0
 17 49  1  0
 19 50  1  0
 20 51  1  0
 22 52  1  0
 25 53  1  0
 26 54  1  0
M  END
>  <smiles>  (99) 
O=C(NCC(=O)N1CCCCC1C1CCCC1)c1ccc2cc(F)ccc2n1

>  <score_type>  (99) 
oracle

>  <origin>  (99) 
autodockgpu

>  <m_score__min__energy>  (99) 
-9.0899999999999999

>  <m_primary>  (99) 
energy

>  <rmsd>  (99) 
2.0416532740382274

>  <m_score__min__rmsd>  (99) 
2.0416532740382274

>  <meeko>  (99) 
{"free_energy": -8.17, "intermolecular_energy": -9.66, "internal_energy": -1.67, "cluster_size": 40, "cluster_id": 1, "rank_in_cluster": 25}

>  <energy>  (99) 
-7.6

>  <cluster_rmsd>  (99) 
0.0

>  <cluster>  (99) 
4

$$$$

     RDKit          3D

 54 57  0  0  0  0  0  0  0  0999 V2000
  141.1880   73.8480  220.5360 O   0  0  0  0  0  0  0  0  0  0  0  0
  140.6740   74.6590  221.3800 C   0  0  0  0  0  0  0  0  0  0  0  0
  139.6630   74.1270  222.2760 N   0  0  0  0  0  0  0  0  0  0  0  0
  139.2430   72.7710  222.2480 C   0  0  0  0  0  0  0  0  0  0  0  0
  139.6680   71.8330  223.2680 C   0  0  0  0  0  0  0  0  0  0  0  0
  140.9620   71.6810  223.3330 O   0  0  0  0  0  0  0  0  0  0  0  0
  138.9450   71.0620  224.1890 N   0  0  0  0  0  0  0  0  0  0  0  0
  137.4640   71.0100  224.2220 C   0  0  0  0  0  0  0  0  0  0  0  0
  137.1160   69.6210  224.7320 C   0  0  0  0  0  0  0  0  0  0  0  0
  138.0430   68.5450  224.2820 C   0  0  0  0  0  0  0  0  0  0  0  0
  139.4870   68.8270  224.6640 C   0  0  0  0  0  0  0  0  0  0  0  0
  139.5590   70.2360  225.2280 C   0  0  1  0  0  0  0  0  0  0  0  0
  140.8840   70.6590  225.7140 C   0  0  0  0  0  0  0  0  0  0  0  0
  140.6970   71.8290  226.6560 C   0  0  0  0  0  0  0  0  0  0  0  0
  140.3410   71.2600  228.0160 C   0  0  0  0  0  0  0  0  0  0  0  0
  140.6010   69.7860  227.9420 C   0  0  0  0  0  0  0  0  0  0  0  0
  141.4400   69.6220  226.6990 C   0  0  0  0  0  0  0  0  0  0  0  0
  141.0750   76.0580  221.4510 C   0  0  0  0  0  0  0  0  0  0  0  0
  141.7850   76.5690  220.3840 C   0  0  0  0  0  0  0  0  0  0  0  0
  142.1570   77.9130  220.4750 C   0  0  0  0  0  0  0  0  0  0  0  0
  141.8230   78.6700  221.5840 C   0  0  0  0  0  0  0  0  0  0  0  0
  142.1920   80.0110  221.6800 C   0  0  0  0  0  0  0  0  0  0  0  0
  141.8220   80.6870  222.8100 C   0  0  0  0  0  0  0  0  0  0  0  0
  142.1770   81.9900  222.9100 F   0  0  0  0  0  0  0  0  0  0  0  0
  141.1120   80.1370  223.8510 C   0  0  0  0  0  0  0  0  0  0  0  0
  140.7490   78.8200  223.7570 C   0  0  0  0  0  0  0  0  0  0  0  0
  141.1070   78.1070  222.6310 C   0  0  0  0  0  0  0  0  0  0  0  0
  140.7530   76.8160  222.5350 N   0  0  0  0  0  0  0  0  0  0  0  0
  139.2810   74.8490  222.9420 H   0  0  0  0  0  0  0  0  0  0  0  0
  138.1434   72.7844  222.2752 H   0  0  0  0  0  0  0  0  0  0  0  0
  139.7385   72.3847  221.3451 H   0  0  0  0  0  0  0  0  0  0  0  0
  137.0677   71.7791  224.9013 H   0  0  0  0  0  0  0  0  0  0  0  0
  137.0274   71.2012  223.2306 H   0  0  0  0  0  0  0  0  0  0  0  0
  137.1277   69.6463  225.8316 H   0  0  0  0  0  0  0  0  0  0  0  0
  136.1276   69.3749  224.3167 H   0  0  0  0  0  0  0  0  0  0  0  0
  137.7340   67.5961  224.7448 H   0  0  0  0  0  0  0  0  0  0  0  0
  137.9902   68.4941  223.1844 H   0  0  0  0  0  0  0  0  0  0  0  0
  139.8200   68.1040  225.4232 H   0  0  0  0  0  0  0  0  0  0  0  0
  140.1394   68.7351  223.7831 H   0  0  0  0  0  0  0  0  0  0  0  0
  139.0129   70.3313  226.1781 H   0  0  0  0  0  0  0  0  0  0  0  0
  141.5104   70.8391  224.8279 H   0  0  0  0  0  0  0  0  0  0  0  0
  141.6281   72.4108  226.7233 H   0  0  0  0  0  0  0  0  0  0  0  0
  139.9026   72.4980  226.2935 H   0  0  0  0  0  0  0  0  0  0  0  0
  140.9679   71.7178  228.7954 H   0  0  0  0  0  0  0  0  0  0  0  0
  139.2911   71.4664  228.2710 H   0  0  0  0  0  0  0  0  0  0  0  0
  141.1490   69.4411  228.8312 H   0  0  0  0  0  0  0  0  0  0  0  0
  139.6738   69.1952  227.9064 H   0  0  0  0  0  0  0  0  0  0  0  0
  142.4994   69.8229  226.9168 H   0  0  0  0  0  0  0  0  0  0  0  0
  141.3929   68.5991  226.2971 H   0  0  0  0  0  0  0  0  0  0  0  0
  142.0438   75.9528  219.5103 H   0  0  0  0  0  0  0  0  0  0  0  0
  142.7234   78.3756  219.6533 H   0  0  0  0  0  0  0  0  0  0  0  0
  142.7588   80.5063  220.8779 H   0  0  0  0  0  0  0  0  0  0  0  0
  140.8436   80.7370  224.7330 H   0  0  0  0  0  0  0  0  0  0  0  0
  140.1810   78.3380  224.5663 H   0  0  0  0  0  0  0  0  0  0  0  0
  1  2  2  0
  2  3  1  0
  3  4  1  0
  4  5  1  0
  5  6  2  0
  5  7  1  0
  7  8  1  0
  8  9  1  0
  9 10  1  0
 10 11  1  0
 11 12  1  0
 12 13  1  0
 13 14  1  0
 14 15  1  0
 15 16  1  0
 16 17  1  0
  2 18  1  0
 18 19  2  0
 19 20  1  0
 20 21  2  0
 21 22  1  0
 22 23  2  0
 23 24  1  0
 23 25  1  0
 25 26  2  0
 26 27  1  0
 27 28  2  0
 12  7  1  0
 17 13  1  0
 28 18  1  0
 27 21  1  0
  3 29  1  0
  4 30  1  0
  4 31  1  0
  8 32  1  0
  8 33  1  0
  9 34  1  0
  9 35  1  0
 10 36  1  0
 10 37  1  0
 11 38  1  0
 11 39  1  0
 12 40  1  1
 13 41  1  0
 14 42  1  0
 14 43  1  0
 15 44  1  0
 15 45  1  0
 16 46  1  0
 16 47  1  0
 17 48  1  0
 17 49  1  0
 19 50  1  0
 20 51  1  0
 22 52  1  0
 25 53  1  0
 26 54  1  0
M  END
>  <smiles>  (100) 
O=C(NCC(=O)N1CCCCC1C1CCCC1)c1ccc2cc(F)ccc2n1

>  <score_type>  (100) 
oracle

>  <origin>  (100) 
autodockgpu

>  <m_score__min__energy>  (100) 
-9.0899999999999999

>  <m_primary>  (100) 
energy

>  <rmsd>  (100) 
8.769126216561663

>  <m_score__min__rmsd>  (100) 
8.769126216561663

>  <meeko>  (100) 
{"free_energy": -8.32, "intermolecular_energy": -9.81, "internal_energy": -1.39, "cluster_size": 3, "cluster_id": 2, "rank_in_cluster": 1}

>  <energy>  (100) 
-7.54

>  <cluster_rmsd>  (100) 
0.17

>  <cluster>  (100) 
4

$$$$
