
     RDKit          3D

 44 46  0  0  0  0  0  0  0  0999 V2000
  139.5610   74.7780  221.9890 O   0  0  0  0  0  0  0  0  0  0  0  0
  140.7310   75.0680  221.6540 C   0  0  0  0  0  0  0  0  0  0  0  0
  141.1130   76.4410  221.6880 N   0  0  0  0  0  0  0  0  0  0  0  0
  140.1650   77.4770  222.1030 C   0  0  0  0  0  0  0  0  0  0  0  0
  140.5090   78.6970  221.3720 C   0  0  0  0  0  0  0  0  0  0  0  0
  139.8100   79.0400  220.3750 O   0  0  0  0  0  0  0  0  0  0  0  0
  141.5980   79.5600  221.7010 N   0  0  0  0  0  0  0  0  0  0  0  0
  141.6720   80.7160  220.7530 C   0  0  0  0  0  0  0  0  0  0  0  0
  141.5300   82.0340  221.5840 C   0  0  0  0  0  0  0  0  0  0  0  0
  141.9210   81.6880  222.8840 C   0  0  0  0  0  0  0  0  0  0  0  0
  142.2650   81.3180  224.1840 C   0  0  0  0  0  0  0  0  0  0  0  0
  142.1150   79.7560  224.2090 C   0  0  0  0  0  0  0  0  0  0  0  0
  142.3770   79.1840  222.8070 C   0  0  0  0  0  0  0  0  0  0  0  0
  141.7030   74.0540  221.2350 C   0  0  0  0  0  0  0  0  0  0  0  0
  141.3170   72.7280  221.2060 C   0  0  0  0  0  0  0  0  0  0  0  0
  142.2200   71.7480  220.8110 C   0  0  0  0  0  0  0  0  0  0  0  0
  143.5010   72.1540  220.4570 C   0  0  0  0  0  0  0  0  0  0  0  0
  144.4400   71.2100  220.0560 C   0  0  0  0  0  0  0  0  0  0  0  0
  145.7080   71.6150  219.7050 C   0  0  0  0  0  0  0  0  0  0  0  0
  146.6060   70.6720  219.3160 F   0  0  0  0  0  0  0  0  0  0  0  0
  146.0840   72.9420  219.7370 C   0  0  0  0  0  0  0  0  0  0  0  0
  145.1470   73.8640  220.1350 C   0  0  0  0  0  0  0  0  0  0  0  0
  143.8720   73.4880  220.4910 C   0  0  0  0  0  0  0  0  0  0  0  0
  142.9640   74.3950  220.8780 N   0  0  0  0  0  0  0  0  0  0  0  0
  142.0940   76.6560  221.4040 H   0  0  0  0  0  0  0  0  0  0  0  0
  139.1381   77.1679  221.8581 H   0  0  0  0  0  0  0  0  0  0  0  0
  140.2201   77.6440  223.1888 H   0  0  0  0  0  0  0  0  0  0  0  0
  142.6392   80.7076  220.2291 H   0  0  0  0  0  0  0  0  0  0  0  0
  140.8685   80.6481  220.0048 H   0  0  0  0  0  0  0  0  0  0  0  0
  142.1860   82.8187  221.1791 H   0  0  0  0  0  0  0  0  0  0  0  0
  140.5053   82.4328  221.5535 H   0  0  0  0  0  0  0  0  0  0  0  0
  142.8534   81.2489  222.4995 H   0  0  0  0  0  0  0  0  0  0  0  0
  141.4524   82.6056  223.2692 H   0  0  0  0  0  0  0  0  0  0  0  0
  143.3009   81.6115  224.4092 H   0  0  0  0  0  0  0  0  0  0  0  0
  141.6304   81.8082  224.9370 H   0  0  0  0  0  0  0  0  0  0  0  0
  142.8407   79.3310  224.9180 H   0  0  0  0  0  0  0  0  0  0  0  0
  141.0934   79.4948  224.5221 H   0  0  0  0  0  0  0  0  0  0  0  0
  143.4163   79.4428  222.5562 H   0  0  0  0  0  0  0  0  0  0  0  0
  142.1112   78.1240  222.9322 H   0  0  0  0  0  0  0  0  0  0  0  0
  140.2937   72.4473  221.4959 H   0  0  0  0  0  0  0  0  0  0  0  0
  141.9305   70.6872  220.7797 H   0  0  0  0  0  0  0  0  0  0  0  0
  144.1707   70.1441  220.0194 H   0  0  0  0  0  0  0  0  0  0  0  0
  147.1007   73.2514  219.4531 H   0  0  0  0  0  0  0  0  0  0  0  0
  145.4223   74.9284  220.1700 H   0  0  0  0  0  0  0  0  0  0  0  0
  1  2  2  0
  2  3  1  0
  3  4  1  0
  4  5  1  0
  5  6  2  0
  5  7  1  0
  7  8  1  0
  8  9  1  0
  9 10  1  0
 10 11  1  0
 11 12  1  0
 12 13  1  0
  2 14  1  0
 14 15  2  0
 15 16  1  0
 16 17  2  0
 17 18  1  0
 18 19  2  0
 19 20  1  0
 19 21  1  0
 21 22  2  0
 22 23  1  0
 23 24  2  0
 13  7  1  0
 24 14  1  0
 23 17  1  0
  3 25  1  0
  4 26  1  0
  4 27  1  0
  8 28  1  0
  8 29  1  0
  9 30  1  0
  9 31  1  0
 10 32  1  0
 10 33  1  0
 11 34  1  0
 11 35  1  0
 12 36  1  0
 12 37  1  0
 13 38  1  0
 13 39  1  0
 15 40  1  0
 16 41  1  0
 18 42  1  0
 21 43  1  0
 22 44  1  0
M  END
>  <smiles>  (1) 
O=C(NCC(=O)N1CCCCCC1)c1ccc2cc(F)ccc2n1

>  <score_type>  (1) 
oracle

>  <origin>  (1) 
autodockgpu

>  <m_score__min__energy>  (1) 
-5.5700000000000003

>  <m_primary>  (1) 
energy

>  <rmsd>  (1) 
6.833344619578837

>  <m_score__min__rmsd>  (1) 
6.833344619578837

>  <meeko>  (1) 
{"free_energy": -4.31, "intermolecular_energy": -6.99, "internal_energy": -1.21, "cluster_size": 6, "cluster_id": 5, "rank_in_cluster": 1}

>  <energy>  (1) 
-5.57

>  <cluster_rmsd>  (1) 
0.0

>  <cluster>  (1) 
1

$$$$

     RDKit          3D

 44 46  0  0  0  0  0  0  0  0999 V2000
  139.9870   72.3380  223.8020 O   0  0  0  0  0  0  0  0  0  0  0  0
  140.2340   71.5300  222.8800 C   0  0  0  0  0  0  0  0  0  0  0  0
  139.6440   70.2340  222.9540 N   0  0  0  0  0  0  0  0  0  0  0  0
  138.7760   69.8640  224.0740 C   0  0  0  0  0  0  0  0  0  0  0  0
  139.5040   68.8840  224.8810 C   0  0  0  0  0  0  0  0  0  0  0  0
  139.1730   67.6650  224.8230 O   0  0  0  0  0  0  0  0  0  0  0  0
  140.5890   69.1990  225.7540 N   0  0  0  0  0  0  0  0  0  0  0  0
  141.1060   67.9680  226.4310 C   0  0  0  0  0  0  0  0  0  0  0  0
  140.9110   68.1440  227.9730 C   0  0  0  0  0  0  0  0  0  0  0  0
  140.9040   69.5290  228.1830 C   0  0  0  0  0  0  0  0  0  0  0  0
  140.8820   70.9150  228.3430 C   0  0  0  0  0  0  0  0  0  0  0  0
  140.4480   71.4720  226.9410 C   0  0  0  0  0  0  0  0  0  0  0  0
  140.9600   70.5510  225.8230 C   0  0  0  0  0  0  0  0  0  0  0  0
  141.0970   71.8720  221.7460 C   0  0  0  0  0  0  0  0  0  0  0  0
  141.4320   70.8860  220.8390 C   0  0  0  0  0  0  0  0  0  0  0  0
  142.2500   71.1840  219.7550 C   0  0  0  0  0  0  0  0  0  0  0  0
  142.7050   72.4910  219.6290 C   0  0  0  0  0  0  0  0  0  0  0  0
  143.5250   72.8380  218.5620 C   0  0  0  0  0  0  0  0  0  0  0  0
  143.9750   74.1340  218.4400 C   0  0  0  0  0  0  0  0  0  0  0  0
  144.7750   74.4460  217.3870 F   0  0  0  0  0  0  0  0  0  0  0  0
  143.6340   75.1120  219.3510 C   0  0  0  0  0  0  0  0  0  0  0  0
  142.8230   74.7560  220.4010 C   0  0  0  0  0  0  0  0  0  0  0  0
  142.3590   73.4690  220.5480 C   0  0  0  0  0  0  0  0  0  0  0  0
  141.5690   73.1300  221.5750 N   0  0  0  0  0  0  0  0  0  0  0  0
  139.8660   69.5790  222.1730 H   0  0  0  0  0  0  0  0  0  0  0  0
  138.5431   70.7523  224.6796 H   0  0  0  0  0  0  0  0  0  0  0  0
  137.8275   69.4423  223.7099 H   0  0  0  0  0  0  0  0  0  0  0  0
  140.5462   67.0876  226.0824 H   0  0  0  0  0  0  0  0  0  0  0  0
  142.1705   67.8218  226.1955 H   0  0  0  0  0  0  0  0  0  0  0  0
  139.9578   67.6995  228.2952 H   0  0  0  0  0  0  0  0  0  0  0  0
  141.7032   67.6433  228.5490 H   0  0  0  0  0  0  0  0  0  0  0  0
  140.2290   69.4071  229.0429 H   0  0  0  0  0  0  0  0  0  0  0  0
  141.9566   69.5821  227.8679 H   0  0  0  0  0  0  0  0  0  0  0  0
  140.1559   71.2045  229.1170 H   0  0  0  0  0  0  0  0  0  0  0  0
  141.8561   71.3120  228.6648 H   0  0  0  0  0  0  0  0  0  0  0  0
  139.3502   71.5242  226.8946 H   0  0  0  0  0  0  0  0  0  0  0  0
  140.8776   72.4754  226.8046 H   0  0  0  0  0  0  0  0  0  0  0  0
  140.6408   71.0083  224.8748 H   0  0  0  0  0  0  0  0  0  0  0  0
  142.0355   70.4880  226.0452 H   0  0  0  0  0  0  0  0  0  0  0  0
  141.0510   69.8630  220.9744 H   0  0  0  0  0  0  0  0  0  0  0  0
  142.5275   70.4118  219.0224 H   0  0  0  0  0  0  0  0  0  0  0  0
  143.8134   72.0808  217.8180 H   0  0  0  0  0  0  0  0  0  0  0  0
  143.9996   76.1435  219.2403 H   0  0  0  0  0  0  0  0  0  0  0  0
  142.5378   75.5176  221.1417 H   0  0  0  0  0  0  0  0  0  0  0  0
  1  2  2  0
  2  3  1  0
  3  4  1  0
  4  5  1  0
  5  6  2  0
  5  7  1  0
  7  8  1  0
  8  9  1  0
  9 10  1  0
 10 11  1  0
 11 12  1  0
 12 13  1  0
  2 14  1  0
 14 15  2  0
 15 16  1  0
 16 17  2  0
 17 18  1  0
 18 19  2  0
 19 20  1  0
 19 21  1  0
 21 22  2  0
 22 23  1  0
 23 24  2  0
 13  7  1  0
 24 14  1  0
 23 17  1  0
  3 25  1  0
  4 26  1  0
  4 27  1  0
  8 28  1  0
  8 29  1  0
  9 30  1  0
  9 31  1  0
 10 32  1  0
 10 33  1  0
 11 34  1  0
 11 35  1  0
 12 36  1  0
 12 37  1  0
 13 38  1  0
 13 39  1  0
 15 40  1  0
 16 41  1  0
 18 42  1  0
 21 43  1  0
 22 44  1  0
M  END
>  <smiles>  (2) 
O=C(NCC(=O)N1CCCCCC1)c1ccc2cc(F)ccc2n1

>  <score_type>  (2) 
oracle

>  <origin>  (2) 
autodockgpu

>  <m_score__min__energy>  (2) 
-5.5700000000000003

>  <m_primary>  (2) 
energy

>  <rmsd>  (2) 
8.655132361308503

>  <m_score__min__rmsd>  (2) 
8.655132361308503

>  <meeko>  (2) 
{"free_energy": -4.28, "intermolecular_energy": -6.96, "internal_energy": -0.98, "cluster_size": 4, "cluster_id": 3, "rank_in_cluster": 3}

>  <energy>  (2) 
-5.11

>  <cluster_rmsd>  (2) 
0.62

>  <cluster>  (2) 
1

$$$$

     RDKit          3D

 44 46  0  0  0  0  0  0  0  0999 V2000
  138.9070   70.8540  221.5990 O   0  0  0  0  0  0  0  0  0  0  0  0
  139.3100   71.3220  222.6860 C   0  0  0  0  0  0  0  0  0  0  0  0
  139.5830   72.7210  222.7500 N   0  0  0  0  0  0  0  0  0  0  0  0
  139.3940   73.5800  221.5790 C   0  0  0  0  0  0  0  0  0  0  0  0
  140.6720   74.2420  221.3170 C   0  0  0  0  0  0  0  0  0  0  0  0
  140.9430   75.3240  221.9140 O   0  0  0  0  0  0  0  0  0  0  0  0
  141.6690   73.7560  220.4180 N   0  0  0  0  0  0  0  0  0  0  0  0
  142.8520   74.6730  220.3820 C   0  0  0  0  0  0  0  0  0  0  0  0
  144.1100   73.8570  220.8270 C   0  0  0  0  0  0  0  0  0  0  0  0
  143.7860   72.5190  220.5730 C   0  0  0  0  0  0  0  0  0  0  0  0
  143.4300   71.1870  220.3590 C   0  0  0  0  0  0  0  0  0  0  0  0
  141.8690   71.1990  220.2780 C   0  0  0  0  0  0  0  0  0  0  0  0
  141.3730   72.5560  219.7530 C   0  0  0  0  0  0  0  0  0  0  0  0
  139.5080   70.4890  223.8760 C   0  0  0  0  0  0  0  0  0  0  0  0
  139.1050   69.1690  223.8420 C   0  0  0  0  0  0  0  0  0  0  0  0
  139.2820   68.3580  224.9580 C   0  0  0  0  0  0  0  0  0  0  0  0
  139.8690   68.9240  226.0830 C   0  0  0  0  0  0  0  0  0  0  0  0
  140.0670   68.1540  227.2230 C   0  0  0  0  0  0  0  0  0  0  0  0
  140.6490   68.7180  228.3360 C   0  0  0  0  0  0  0  0  0  0  0  0
  140.8300   67.9410  229.4360 F   0  0  0  0  0  0  0  0  0  0  0  0
  141.0480   70.0380  228.3590 C   0  0  0  0  0  0  0  0  0  0  0  0
  140.8470   70.7890  227.2260 C   0  0  0  0  0  0  0  0  0  0  0  0
  140.2680   70.2520  226.0990 C   0  0  0  0  0  0  0  0  0  0  0  0
  140.0750   70.9910  224.9990 N   0  0  0  0  0  0  0  0  0  0  0  0
  139.9180   73.0850  223.6680 H   0  0  0  0  0  0  0  0  0  0  0  0
  139.0988   72.9732  220.7102 H   0  0  0  0  0  0  0  0  0  0  0  0
  138.6012   74.3203  221.7618 H   0  0  0  0  0  0  0  0  0  0  0  0
  142.9971   75.0552  219.3608 H   0  0  0  0  0  0  0  0  0  0  0  0
  142.6933   75.5280  221.0556 H   0  0  0  0  0  0  0  0  0  0  0  0
  144.9921   74.1582  220.2429 H   0  0  0  0  0  0  0  0  0  0  0  0
  144.3582   74.0270  221.8851 H   0  0  0  0  0  0  0  0  0  0  0  0
  143.5451   72.7635  219.5279 H   0  0  0  0  0  0  0  0  0  0  0  0
  144.5828   72.1958  221.2590 H   0  0  0  0  0  0  0  0  0  0  0  0
  143.8640   70.8162  219.4187 H   0  0  0  0  0  0  0  0  0  0  0  0
  143.7993   70.5252  221.1563 H   0  0  0  0  0  0  0  0  0  0  0  0
  141.5347   70.4023  219.5972 H   0  0  0  0  0  0  0  0  0  0  0  0
  141.4570   71.0320  221.2842 H   0  0  0  0  0  0  0  0  0  0  0  0
  141.7748   72.6594  218.7343 H   0  0  0  0  0  0  0  0  0  0  0  0
  140.2842   72.4758  219.8872 H   0  0  0  0  0  0  0  0  0  0  0  0
  138.6436   68.7584  222.9317 H   0  0  0  0  0  0  0  0  0  0  0  0
  138.9678   67.3039  224.9502 H   0  0  0  0  0  0  0  0  0  0  0  0
  139.7598   67.0978  227.2360 H   0  0  0  0  0  0  0  0  0  0  0  0
  141.5121   70.4754  229.2553 H   0  0  0  0  0  0  0  0  0  0  0  0
  141.1563   71.8446  227.2197 H   0  0  0  0  0  0  0  0  0  0  0  0
  1  2  2  0
  2  3  1  0
  3  4  1  0
  4  5  1  0
  5  6  2  0
  5  7  1  0
  7  8  1  0
  8  9  1  0
  9 10  1  0
 10 11  1  0
 11 12  1  0
 12 13  1  0
  2 14  1  0
 14 15  2  0
 15 16  1  0
 16 17  2  0
 17 18  1  0
 18 19  2  0
 19 20  1  0
 19 21  1  0
 21 22  2  0
 22 23  1  0
 23 24  2  0
 13  7  1  0
 24 14  1  0
 23 17  1  0
  3 25  1  0
  4 26  1  0
  4 27  1  0
  8 28  1  0
  8 29  1  0
  9 30  1  0
  9 31  1  0
 10 32  1  0
 10 33  1  0
 11 34  1  0
 11 35  1  0
 12 36  1  0
 12 37  1  0
 13 38  1  0
 13 39  1  0
 15 40  1  0
 16 41  1  0
 18 42  1  0
 21 43  1  0
 22 44  1  0
M  END
>  <smiles>  (3) 
O=C(NCC(=O)N1CCCCCC1)c1ccc2cc(F)ccc2n1

>  <score_type>  (3) 
oracle

>  <origin>  (3) 
autodockgpu

>  <m_score__min__energy>  (3) 
-5.5700000000000003

>  <m_primary>  (3) 
energy

>  <rmsd>  (3) 
2.718370281850343

>  <m_score__min__rmsd>  (3) 
2.718370281850343

>  <meeko>  (3) 
{"free_energy": -4.53, "intermolecular_energy": -7.21, "internal_energy": -1.54, "cluster_size": 5, "cluster_id": 4, "rank_in_cluster": 1}

>  <energy>  (3) 
-4.99

>  <cluster_rmsd>  (3) 
0.99

>  <cluster>  (3) 
1

$$$$

     RDKit          3D

 44 46  0  0  0  0  0  0  0  0999 V2000
  138.0100   71.8270  222.4950 O   0  0  0  0  0  0  0  0  0  0  0  0
  139.1410   71.6700  223.0050 C   0  0  0  0  0  0  0  0  0  0  0  0
  140.2210   72.4400  222.4810 N   0  0  0  0  0  0  0  0  0  0  0  0
  140.0100   73.3830  221.3800 C   0  0  0  0  0  0  0  0  0  0  0  0
  141.3110   73.6160  220.7540 C   0  0  0  0  0  0  0  0  0  0  0  0
  142.2810   72.8550  221.0370 O   0  0  0  0  0  0  0  0  0  0  0  0
  141.5870   74.6610  219.8210 N   0  0  0  0  0  0  0  0  0  0  0  0
  143.0150   74.6200  219.3750 C   0  0  0  0  0  0  0  0  0  0  0  0
  143.6510   76.0210  219.6560 C   0  0  0  0  0  0  0  0  0  0  0  0
  142.5700   76.8580  219.9590 C   0  0  0  0  0  0  0  0  0  0  0  0
  141.5220   77.7160  220.2940 C   0  0  0  0  0  0  0  0  0  0  0  0
  140.2450   76.8000  220.2910 C   0  0  0  0  0  0  0  0  0  0  0  0
  140.5140   75.5090  219.5030 C   0  0  0  0  0  0  0  0  0  0  0  0
  139.3830   70.7350  224.1070 C   0  0  0  0  0  0  0  0  0  0  0  0
  138.8850   69.4500  224.0160 C   0  0  0  0  0  0  0  0  0  0  0  0
  139.1020   68.5440  225.0490 C   0  0  0  0  0  0  0  0  0  0  0  0
  139.8260   68.9820  226.1520 C   0  0  0  0  0  0  0  0  0  0  0  0
  140.0680   68.1130  227.2090 C   0  0  0  0  0  0  0  0  0  0  0  0
  140.7860   68.5490  228.3000 C   0  0  0  0  0  0  0  0  0  0  0  0
  141.0080   67.6780  229.3190 F   0  0  0  0  0  0  0  0  0  0  0  0
  141.2790   69.8340  228.3810 C   0  0  0  0  0  0  0  0  0  0  0  0
  141.0320   70.6830  227.3290 C   0  0  0  0  0  0  0  0  0  0  0  0
  140.3190   70.2750  226.2270 C   0  0  0  0  0  0  0  0  0  0  0  0
  140.0830   71.1090  225.2050 N   0  0  0  0  0  0  0  0  0  0  0  0
  141.1530   72.2910  222.9240 H   0  0  0  0  0  0  0  0  0  0  0  0
  139.3102   72.9556  220.6468 H   0  0  0  0  0  0  0  0  0  0  0  0
  139.5808   74.3256  221.7504 H   0  0  0  0  0  0  0  0  0  0  0  0
  143.5585   73.8445  219.9347 H   0  0  0  0  0  0  0  0  0  0  0  0
  143.0731   74.3828  218.3025 H   0  0  0  0  0  0  0  0  0  0  0  0
  144.3468   75.9658  220.5062 H   0  0  0  0  0  0  0  0  0  0  0  0
  144.2303   76.3905  218.7970 H   0  0  0  0  0  0  0  0  0  0  0  0
  142.4634   77.1238  218.8969 H   0  0  0  0  0  0  0  0  0  0  0  0
  142.2502   76.1599  220.7466 H   0  0  0  0  0  0  0  0  0  0  0  0
  141.6827   78.1553  221.2896 H   0  0  0  0  0  0  0  0  0  0  0  0
  141.4326   78.5594  219.5936 H   0  0  0  0  0  0  0  0  0  0  0  0
  139.9804   76.5436  221.3275 H   0  0  0  0  0  0  0  0  0  0  0  0
  139.4168   77.3438  219.8131 H   0  0  0  0  0  0  0  0  0  0  0  0
  139.6023   74.8994  219.5873 H   0  0  0  0  0  0  0  0  0  0  0  0
  140.8045   75.8940  218.5144 H   0  0  0  0  0  0  0  0  0  0  0  0
  138.3163   69.1427  223.1260 H   0  0  0  0  0  0  0  0  0  0  0  0
  138.7140   67.5161  224.9949 H   0  0  0  0  0  0  0  0  0  0  0  0
  139.6877   67.0814  227.1743 H   0  0  0  0  0  0  0  0  0  0  0  0
  141.8512   70.1686  229.2588 H   0  0  0  0  0  0  0  0  0  0  0  0
  141.4140   71.7137  227.3698 H   0  0  0  0  0  0  0  0  0  0  0  0
  1  2  2  0
  2  3  1  0
  3  4  1  0
  4  5  1  0
  5  6  2  0
  5  7  1  0
  7  8  1  0
  8  9  1  0
  9 10  1  0
 10 11  1  0
 11 12  1  0
 12 13  1  0
  2 14  1  0
 14 15  2  0
 15 16  1  0
 16 17  2  0
 17 18  1  0
 18 19  2  0
 19 20  1  0
 19 21  1  0
 21 22  2  0
 22 23  1  0
 23 24  2  0
 13  7  1  0
 24 14  1  0
 23 17  1  0
  3 25  1  0
  4 26  1  0
  4 27  1  0
  8 28  1  0
  8 29  1  0
  9 30  1  0
  9 31  1  0
 10 32  1  0
 10 33  1  0
 11 34  1  0
 11 35  1  0
 12 36  1  0
 12 37  1  0
 13 38  1  0
 13 39  1  0
 15 40  1  0
 16 41  1  0
 18 42  1  0
 21 43  1  0
 22 44  1  0
M  END
>  <smiles>  (4) 
O=C(NCC(=O)N1CCCCCC1)c1ccc2cc(F)ccc2n1

>  <score_type>  (4) 
oracle

>  <origin>  (4) 
autodockgpu

>  <m_score__min__energy>  (4) 
-5.5700000000000003

>  <m_primary>  (4) 
energy

>  <rmsd>  (4) 
2.1730389256063103

>  <m_score__min__rmsd>  (4) 
2.1730389256063103

>  <meeko>  (4) 
{"free_energy": -3.79, "intermolecular_energy": -6.48, "internal_energy": -1.47, "cluster_size": 2, "cluster_id": 10, "rank_in_cluster": 1}

>  <energy>  (4) 
-4.9

>  <cluster_rmsd>  (4) 
0.85

>  <cluster>  (4) 
1

$$$$

     RDKit          3D

 44 46  0  0  0  0  0  0  0  0999 V2000
  140.7600   72.4770  221.5870 O   0  0  0  0  0  0  0  0  0  0  0  0
  139.8030   72.4270  222.3890 C   0  0  0  0  0  0  0  0  0  0  0  0
  138.6980   73.3000  222.1640 N   0  0  0  0  0  0  0  0  0  0  0  0
  138.6860   74.2230  221.0270 C   0  0  0  0  0  0  0  0  0  0  0  0
  139.8870   75.0530  221.1290 C   0  0  0  0  0  0  0  0  0  0  0  0
  140.2520   75.4790  222.2620 O   0  0  0  0  0  0  0  0  0  0  0  0
  140.7060   75.4330  220.0230 N   0  0  0  0  0  0  0  0  0  0  0  0
  141.8530   76.2840  220.4720 C   0  0  0  0  0  0  0  0  0  0  0  0
  143.1800   75.5580  220.0740 C   0  0  0  0  0  0  0  0  0  0  0  0
  142.8040   74.6150  219.1110 C   0  0  0  0  0  0  0  0  0  0  0  0
  142.4350   73.7100  218.1140 C   0  0  0  0  0  0  0  0  0  0  0  0
  140.8670   73.6600  218.1720 C   0  0  0  0  0  0  0  0  0  0  0  0
  140.3060   74.9630  218.7620 C   0  0  0  0  0  0  0  0  0  0  0  0
  139.7850   71.5140  223.5360 C   0  0  0  0  0  0  0  0  0  0  0  0
  139.0820   70.3300  223.4380 C   0  0  0  0  0  0  0  0  0  0  0  0
  139.0490   69.4480  224.5110 C   0  0  0  0  0  0  0  0  0  0  0  0
  139.7420   69.8040  225.6630 C   0  0  0  0  0  0  0  0  0  0  0  0
  139.7390   68.9550  226.7630 C   0  0  0  0  0  0  0  0  0  0  0  0
  140.4260   69.3110  227.9020 C   0  0  0  0  0  0  0  0  0  0  0  0
  140.4060   68.4610  228.9620 F   0  0  0  0  0  0  0  0  0  0  0  0
  141.1250   70.4960  227.9900 C   0  0  0  0  0  0  0  0  0  0  0  0
  141.1200   71.3270  226.8960 C   0  0  0  0  0  0  0  0  0  0  0  0
  140.4430   70.9970  225.7440 C   0  0  0  0  0  0  0  0  0  0  0  0
  140.4430   71.8130  224.6820 N   0  0  0  0  0  0  0  0  0  0  0  0
  137.9130   73.2390  222.8480 H   0  0  0  0  0  0  0  0  0  0  0  0
  138.6976   73.6581  220.0832 H   0  0  0  0  0  0  0  0  0  0  0  0
  137.7794   74.8458  221.0399 H   0  0  0  0  0  0  0  0  0  0  0  0
  141.8034   77.2667  219.9802 H   0  0  0  0  0  0  0  0  0  0  0  0
  141.8126   76.4354  221.5608 H   0  0  0  0  0  0  0  0  0  0  0  0
  143.9008   76.2742  219.6526 H   0  0  0  0  0  0  0  0  0  0  0  0
  143.6699   75.0898  220.9405 H   0  0  0  0  0  0  0  0  0  0  0  0
  143.5869   73.9268  219.4622 H   0  0  0  0  0  0  0  0  0  0  0  0
  141.7520   74.9140  219.2290 H   0  0  0  0  0  0  0  0  0  0  0  0
  142.7746   74.0608  217.1283 H   0  0  0  0  0  0  0  0  0  0  0  0
  142.8863   72.7187  218.2677 H   0  0  0  0  0  0  0  0  0  0  0  0
  140.4717   73.5242  217.1545 H   0  0  0  0  0  0  0  0  0  0  0  0
  140.5624   72.8201  218.8137 H   0  0  0  0  0  0  0  0  0  0  0  0
  140.5506   75.7589  218.0431 H   0  0  0  0  0  0  0  0  0  0  0  0
  139.2493   74.7084  218.9308 H   0  0  0  0  0  0  0  0  0  0  0  0
  138.5470   70.0844  222.5088 H   0  0  0  0  0  0  0  0  0  0  0  0
  138.4936   68.5004  224.4514 H   0  0  0  0  0  0  0  0  0  0  0  0
  139.1901   68.0025  226.7241 H   0  0  0  0  0  0  0  0  0  0  0  0
  141.6692   70.7674  228.9066 H   0  0  0  0  0  0  0  0  0  0  0  0
  141.6700   72.2785  226.9418 H   0  0  0  0  0  0  0  0  0  0  0  0
  1  2  2  0
  2  3  1  0
  3  4  1  0
  4  5  1  0
  5  6  2  0
  5  7  1  0
  7  8  1  0
  8  9  1  0
  9 10  1  0
 10 11  1  0
 11 12  1  0
 12 13  1  0
  2 14  1  0
 14 15  2  0
 15 16  1  0
 16 17  2  0
 17 18  1  0
 18 19  2  0
 19 20  1  0
 19 21  1  0
 21 22  2  0
 22 23  1  0
 23 24  2  0
 13  7  1  0
 24 14  1  0
 23 17  1  0
  3 25  1  0
  4 26  1  0
  4 27  1  0
  8 28  1  0
  8 29  1  0
  9 30  1  0
  9 31  1  0
 10 32  1  0
 10 33  1  0
 11 34  1  0
 11 35  1  0
 12 36  1  0
 12 37  1  0
 13 38  1  0
 13 39  1  0
 15 40  1  0
 16 41  1  0
 18 42  1  0
 21 43  1  0
 22 44  1  0
M  END
>  <smiles>  (5) 
O=C(NCC(=O)N1CCCCCC1)c1ccc2cc(F)ccc2n1

>  <score_type>  (5) 
oracle

>  <origin>  (5) 
autodockgpu

>  <m_score__min__energy>  (5) 
-5.5700000000000003

>  <m_primary>  (5) 
energy

>  <rmsd>  (5) 
1.606057224942017

>  <m_score__min__rmsd>  (5) 
1.606057224942017

>  <meeko>  (5) 
{"free_energy": -4.01, "intermolecular_energy": -6.69, "internal_energy": -1.1, "cluster_size": 5, "cluster_id": 4, "rank_in_cluster": 3}

>  <energy>  (5) 
-4.83

>  <cluster_rmsd>  (5) 
0.7

>  <cluster>  (5) 
1

$$$$

     RDKit          3D

 44 46  0  0  0  0  0  0  0  0999 V2000
  138.1480   75.5050  221.5530 O   0  0  0  0  0  0  0  0  0  0  0  0
  139.3110   75.7580  221.9360 C   0  0  0  0  0  0  0  0  0  0  0  0
  140.2690   74.7030  221.8990 N   0  0  0  0  0  0  0  0  0  0  0  0
  139.9010   73.3660  221.4260 C   0  0  0  0  0  0  0  0  0  0  0  0
  141.1420   72.6130  221.2440 C   0  0  0  0  0  0  0  0  0  0  0  0
  141.3520   71.5850  221.9500 O   0  0  0  0  0  0  0  0  0  0  0  0
  142.1660   72.9510  220.3080 N   0  0  0  0  0  0  0  0  0  0  0  0
  143.3010   71.9770  220.3800 C   0  0  0  0  0  0  0  0  0  0  0  0
  144.5970   72.7690  220.7540 C   0  0  0  0  0  0  0  0  0  0  0  0
  144.3470   74.0870  220.3520 C   0  0  0  0  0  0  0  0  0  0  0  0
  144.0680   75.4060  219.9930 C   0  0  0  0  0  0  0  0  0  0  0  0
  142.5030   75.4670  219.9140 C   0  0  0  0  0  0  0  0  0  0  0  0
  141.9380   74.0920  219.5230 C   0  0  0  0  0  0  0  0  0  0  0  0
  139.7100   77.0850  222.4140 C   0  0  0  0  0  0  0  0  0  0  0  0
  138.7350   77.9610  222.8470 C   0  0  0  0  0  0  0  0  0  0  0  0
  139.0880   79.2260  223.3050 C   0  0  0  0  0  0  0  0  0  0  0  0
  140.4370   79.5590  223.3070 C   0  0  0  0  0  0  0  0  0  0  0  0
  140.8400   80.8120  223.7560 C   0  0  0  0  0  0  0  0  0  0  0  0
  142.1770   81.1390  223.7560 C   0  0  0  0  0  0  0  0  0  0  0  0
  142.5430   82.3710  224.2010 F   0  0  0  0  0  0  0  0  0  0  0  0
  143.1430   80.2570  223.3220 C   0  0  0  0  0  0  0  0  0  0  0  0
  142.7320   79.0220  222.8810 C   0  0  0  0  0  0  0  0  0  0  0  0
  141.4030   78.6670  222.8690 C   0  0  0  0  0  0  0  0  0  0  0  0
  141.0110   77.4610  222.4370 N   0  0  0  0  0  0  0  0  0  0  0  0
  141.2320   74.9400  222.2230 H   0  0  0  0  0  0  0  0  0  0  0  0
  139.2627   72.8660  222.1694 H   0  0  0  0  0  0  0  0  0  0  0  0
  139.3402   73.4273  220.4817 H   0  0  0  0  0  0  0  0  0  0  0  0
  143.0929   71.2179  221.1485 H   0  0  0  0  0  0  0  0  0  0  0  0
  143.4300   71.4695  219.4127 H   0  0  0  0  0  0  0  0  0  0  0  0
  144.7782   72.7235  221.8380 H   0  0  0  0  0  0  0  0  0  0  0  0
  145.4905   72.3516  220.2667 H   0  0  0  0  0  0  0  0  0  0  0  0
  145.4269   74.2926  220.3137 H   0  0  0  0  0  0  0  0  0  0  0  0
  143.4767   73.7452  219.7726 H   0  0  0  0  0  0  0  0  0  0  0  0
  144.4467   76.1047  220.7535 H   0  0  0  0  0  0  0  0  0  0  0  0
  144.5468   75.6924  219.0450 H   0  0  0  0  0  0  0  0  0  0  0  0
  142.1007   75.7597  220.8950 H   0  0  0  0  0  0  0  0  0  0  0  0
  142.2102   76.2053  219.1530 H   0  0  0  0  0  0  0  0  0  0  0  0
  140.8463   74.2122  219.4614 H   0  0  0  0  0  0  0  0  0  0  0  0
  142.4982   73.8608  218.6050 H   0  0  0  0  0  0  0  0  0  0  0  0
  137.6776   77.6583  222.8298 H   0  0  0  0  0  0  0  0  0  0  0  0
  138.3256   79.9382  223.6536 H   0  0  0  0  0  0  0  0  0  0  0  0
  140.0936   81.5385  224.1096 H   0  0  0  0  0  0  0  0  0  0  0  0
  144.2079   80.5325  223.3284 H   0  0  0  0  0  0  0  0  0  0  0  0
  143.4837   78.3001  222.5292 H   0  0  0  0  0  0  0  0  0  0  0  0
  1  2  2  0
  2  3  1  0
  3  4  1  0
  4  5  1  0
  5  6  2  0
  5  7  1  0
  7  8  1  0
  8  9  1  0
  9 10  1  0
 10 11  1  0
 11 12  1  0
 12 13  1  0
  2 14  1  0
 14 15  2  0
 15 16  1  0
 16 17  2  0
 17 18  1  0
 18 19  2  0
 19 20  1  0
 19 21  1  0
 21 22  2  0
 22 23  1  0
 23 24  2  0
 13  7  1  0
 24 14  1  0
 23 17  1  0
  3 25  1  0
  4 26  1  0
  4 27  1  0
  8 28  1  0
  8 29  1  0
  9 30  1  0
  9 31  1  0
 10 32  1  0
 10 33  1  0
 11 34  1  0
 11 35  1  0
 12 36  1  0
 12 37  1  0
 13 38  1  0
 13 39  1  0
 15 40  1  0
 16 41  1  0
 18 42  1  0
 21 43  1  0
 22 44  1  0
M  END
>  <smiles>  (6) 
O=C(NCC(=O)N1CCCCCC1)c1ccc2cc(F)ccc2n1

>  <score_type>  (6) 
oracle

>  <origin>  (6) 
autodockgpu

>  <m_score__min__energy>  (6) 
-5.5700000000000003

>  <m_primary>  (6) 
energy

>  <rmsd>  (6) 
7.735230331834009

>  <m_score__min__rmsd>  (6) 
7.735230331834009

>  <meeko>  (6) 
{"free_energy": -3.66, "intermolecular_energy": -6.35, "internal_energy": -1.49, "cluster_size": 1, "cluster_id": 11, "rank_in_cluster": 1}

>  <energy>  (6) 
-4.7

>  <cluster_rmsd>  (6) 
0.75

>  <cluster>  (6) 
1

$$$$

     RDKit          3D

 44 46  0  0  0  0  0  0  0  0999 V2000
  141.1340   71.9050  221.3090 O   0  0  0  0  0  0  0  0  0  0  0  0
  140.5300   72.3390  222.3140 C   0  0  0  0  0  0  0  0  0  0  0  0
  140.0850   73.6930  222.2910 N   0  0  0  0  0  0  0  0  0  0  0  0
  140.3280   74.5480  221.1270 C   0  0  0  0  0  0  0  0  0  0  0  0
  140.5940   75.8970  221.6260 C   0  0  0  0  0  0  0  0  0  0  0  0
  140.0890   76.2610  222.7280 O   0  0  0  0  0  0  0  0  0  0  0  0
  141.4000   76.8660  220.9560 N   0  0  0  0  0  0  0  0  0  0  0  0
  141.4650   78.1420  221.7360 C   0  0  0  0  0  0  0  0  0  0  0  0
  140.8880   79.2870  220.8400 C   0  0  0  0  0  0  0  0  0  0  0  0
  141.0240   78.8250  219.5250 C   0  0  0  0  0  0  0  0  0  0  0  0
  141.1170   78.3360  218.2220 C   0  0  0  0  0  0  0  0  0  0  0  0
  141.2840   76.7840  218.3910 C   0  0  0  0  0  0  0  0  0  0  0  0
  141.9630   76.4670  219.7330 C   0  0  0  0  0  0  0  0  0  0  0  0
  140.2710   71.5090  223.4940 C   0  0  0  0  0  0  0  0  0  0  0  0
  139.5870   70.3190  223.3380 C   0  0  0  0  0  0  0  0  0  0  0  0
  139.3290   69.5140  224.4420 C   0  0  0  0  0  0  0  0  0  0  0  0
  139.7800   69.9520  225.6810 C   0  0  0  0  0  0  0  0  0  0  0  0
  139.5460   69.1820  226.8150 C   0  0  0  0  0  0  0  0  0  0  0  0
  139.9950   69.6190  228.0410 C   0  0  0  0  0  0  0  0  0  0  0  0
  139.7530   68.8450  229.1320 F   0  0  0  0  0  0  0  0  0  0  0  0
  140.6780   70.8080  228.1860 C   0  0  0  0  0  0  0  0  0  0  0  0
  140.9020   71.5600  227.0580 C   0  0  0  0  0  0  0  0  0  0  0  0
  140.4660   71.1490  225.8200 C   0  0  0  0  0  0  0  0  0  0  0  0
  140.6890   71.8880  224.7250 N   0  0  0  0  0  0  0  0  0  0  0  0
  139.5830   74.0300  223.1420 H   0  0  0  0  0  0  0  0  0  0  0  0
  141.1964   74.1775  220.5625 H   0  0  0  0  0  0  0  0  0  0  0  0
  139.4578   74.5463  220.4541 H   0  0  0  0  0  0  0  0  0  0  0  0
  140.8664   78.0490  222.6541 H   0  0  0  0  0  0  0  0  0  0  0  0
  142.5047   78.3648  222.0177 H   0  0  0  0  0  0  0  0  0  0  0  0
  139.8294   79.4676  221.0783 H   0  0  0  0  0  0  0  0  0  0  0  0
  141.4147   80.2396  220.9987 H   0  0  0  0  0  0  0  0  0  0  0  0
  141.0363   79.8592  219.1504 H   0  0  0  0  0  0  0  0  0  0  0  0
  141.6469   77.9917  219.8822 H   0  0  0  0  0  0  0  0  0  0  0  0
  140.2041   78.5686  217.6541 H   0  0  0  0  0  0  0  0  0  0  0  0
  141.9525   78.7869  217.6664 H   0  0  0  0  0  0  0  0  0  0  0  0
  140.2934   76.3066  218.3632 H   0  0  0  0  0  0  0  0  0  0  0  0
  141.9093   76.3987  217.5721 H   0  0  0  0  0  0  0  0  0  0  0  0
  142.0607   75.3723  219.7796 H   0  0  0  0  0  0  0  0  0  0  0  0
  142.8761   77.0784  219.6843 H   0  0  0  0  0  0  0  0  0  0  0  0
  139.2461   70.0080  222.3395 H   0  0  0  0  0  0  0  0  0  0  0  0
  138.7863   68.5628  224.3380 H   0  0  0  0  0  0  0  0  0  0  0  0
  139.0046   68.2280  226.7329 H   0  0  0  0  0  0  0  0  0  0  0  0
  141.0318   71.1434  229.1720 H   0  0  0  0  0  0  0  0  0  0  0  0
  141.4430   72.5136  227.1473 H   0  0  0  0  0  0  0  0  0  0  0  0
  1  2  2  0
  2  3  1  0
  3  4  1  0
  4  5  1  0
  5  6  2  0
  5  7  1  0
  7  8  1  0
  8  9  1  0
  9 10  1  0
 10 11  1  0
 11 12  1  0
 12 13  1  0
  2 14  1  0
 14 15  2  0
 15 16  1  0
 16 17  2  0
 17 18  1  0
 18 19  2  0
 19 20  1  0
 19 21  1  0
 21 22  2  0
 22 23  1  0
 23 24  2  0
 13  7  1  0
 24 14  1  0
 23 17  1  0
  3 25  1  0
  4 26  1  0
  4 27  1  0
  8 28  1  0
  8 29  1  0
  9 30  1  0
  9 31  1  0
 10 32  1  0
 10 33  1  0
 11 34  1  0
 11 35  1  0
 12 36  1  0
 12 37  1  0
 13 38  1  0
 13 39  1  0
 15 40  1  0
 16 41  1  0
 18 42  1  0
 21 43  1  0
 22 44  1  0
M  END
>  <smiles>  (7) 
O=C(NCC(=O)N1CCCCCC1)c1ccc2cc(F)ccc2n1

>  <score_type>  (7) 
oracle

>  <origin>  (7) 
autodockgpu

>  <m_score__min__energy>  (7) 
-5.5700000000000003

>  <m_primary>  (7) 
energy

>  <rmsd>  (7) 
2.194981813106764

>  <m_score__min__rmsd>  (7) 
2.194981813106764

>  <meeko>  (7) 
{"free_energy": -4.62, "intermolecular_energy": -7.3, "internal_energy": -1.38, "cluster_size": 16, "cluster_id": 2, "rank_in_cluster": 9}

>  <energy>  (7) 
-4.39

>  <cluster_rmsd>  (7) 
1.2

>  <cluster>  (7) 
1

$$$$

     RDKit          3D

 44 46  0  0  0  0  0  0  0  0999 V2000
  140.9360   71.3540  221.2720 O   0  0  0  0  0  0  0  0  0  0  0  0
  140.7020   72.4030  221.9100 C   0  0  0  0  0  0  0  0  0  0  0  0
  140.1680   72.2780  223.2260 N   0  0  0  0  0  0  0  0  0  0  0  0
  139.9040   70.9620  223.8110 C   0  0  0  0  0  0  0  0  0  0  0  0
  140.2780   71.0320  225.2240 C   0  0  0  0  0  0  0  0  0  0  0  0
  141.1390   71.8800  225.5960 O   0  0  0  0  0  0  0  0  0  0  0  0
  139.7350   70.1990  226.2480 N   0  0  0  0  0  0  0  0  0  0  0  0
  140.3330   70.5280  227.5810 C   0  0  0  0  0  0  0  0  0  0  0  0
  140.6100   69.1850  228.3340 C   0  0  0  0  0  0  0  0  0  0  0  0
  140.3960   68.1830  227.3800 C   0  0  0  0  0  0  0  0  0  0  0  0
  140.2120   67.2110  226.3960 C   0  0  0  0  0  0  0  0  0  0  0  0
  139.1820   67.8430  225.3890 C   0  0  0  0  0  0  0  0  0  0  0  0
  138.7790   69.2550  225.8410 C   0  0  0  0  0  0  0  0  0  0  0  0
  140.9560   73.7350  221.3530 C   0  0  0  0  0  0  0  0  0  0  0  0
  141.4590   73.8390  220.0710 C   0  0  0  0  0  0  0  0  0  0  0  0
  141.7080   75.0910  219.5200 C   0  0  0  0  0  0  0  0  0  0  0  0
  141.4340   76.2080  220.3010 C   0  0  0  0  0  0  0  0  0  0  0  0
  141.6670   77.4810  219.7940 C   0  0  0  0  0  0  0  0  0  0  0  0
  141.3940   78.5850  220.5700 C   0  0  0  0  0  0  0  0  0  0  0  0
  141.6310   79.8180  220.0490 F   0  0  0  0  0  0  0  0  0  0  0  0
  140.8920   78.4700  221.8490 C   0  0  0  0  0  0  0  0  0  0  0  0
  140.6670   77.2060  222.3380 C   0  0  0  0  0  0  0  0  0  0  0  0
  140.9290   76.0850  221.5860 C   0  0  0  0  0  0  0  0  0  0  0  0
  140.7070   74.8560  222.0710 N   0  0  0  0  0  0  0  0  0  0  0  0
  139.9820   73.1690  223.7370 H   0  0  0  0  0  0  0  0  0  0  0  0
  138.8364   70.7149  223.7158 H   0  0  0  0  0  0  0  0  0  0  0  0
  140.4816   70.1822  223.2930 H   0  0  0  0  0  0  0  0  0  0  0  0
  141.2751   71.0784  227.4414 H   0  0  0  0  0  0  0  0  0  0  0  0
  139.6432   71.1564  228.1636 H   0  0  0  0  0  0  0  0  0  0  0  0
  141.6466   69.1543  228.7009 H   0  0  0  0  0  0  0  0  0  0  0  0
  139.9606   69.0632  229.2134 H   0  0  0  0  0  0  0  0  0  0  0  0
  140.7646   67.4200  228.0814 H   0  0  0  0  0  0  0  0  0  0  0  0
  139.5035   68.7161  227.0203 H   0  0  0  0  0  0  0  0  0  0  0  0
  141.1626   66.9892  225.8888 H   0  0  0  0  0  0  0  0  0  0  0  0
  139.8504   66.2607  226.8157 H   0  0  0  0  0  0  0  0  0  0  0  0
  139.6411   67.9004  224.3910 H   0  0  0  0  0  0  0  0  0  0  0  0
  138.2825   67.2106  225.3589 H   0  0  0  0  0  0  0  0  0  0  0  0
  138.2370   69.7072  224.9974 H   0  0  0  0  0  0  0  0  0  0  0  0
  138.2333   69.0557  226.7751 H   0  0  0  0  0  0  0  0  0  0  0  0
  141.6628   72.9305  219.4853 H   0  0  0  0  0  0  0  0  0  0  0  0
  142.1082   75.1942  218.5006 H   0  0  0  0  0  0  0  0  0  0  0  0
  142.0678   77.6059  218.7772 H   0  0  0  0  0  0  0  0  0  0  0  0
  140.6787   79.3610  222.4578 H   0  0  0  0  0  0  0  0  0  0  0  0
  140.2675   77.0878  223.3560 H   0  0  0  0  0  0  0  0  0  0  0  0
  1  2  2  0
  2  3  1  0
  3  4  1  0
  4  5  1  0
  5  6  2  0
  5  7  1  0
  7  8  1  0
  8  9  1  0
  9 10  1  0
 10 11  1  0
 11 12  1  0
 12 13  1  0
  2 14  1  0
 14 15  2  0
 15 16  1  0
 16 17  2  0
 17 18  1  0
 18 19  2  0
 19 20  1  0
 19 21  1  0
 21 22  2  0
 22 23  1  0
 23 24  2  0
 13  7  1  0
 24 14  1  0
 23 17  1  0
  3 25  1  0
  4 26  1  0
  4 27  1  0
  8 28  1  0
  8 29  1  0
  9 30  1  0
  9 31  1  0
 10 32  1  0
 10 33  1  0
 11 34  1  0
 11 35  1  0
 12 36  1  0
 12 37  1  0
 13 38  1  0
 13 39  1  0
 15 40  1  0
 16 41  1  0
 18 42  1  0
 21 43  1  0
 22 44  1  0
M  END
>  <smiles>  (8) 
O=C(NCC(=O)N1CCCCCC1)c1ccc2cc(F)ccc2n1

>  <score_type>  (8) 
oracle

>  <origin>  (8) 
autodockgpu

>  <m_score__min__energy>  (8) 
-5.5700000000000003

>  <m_primary>  (8) 
energy

>  <rmsd>  (8) 
8.90702885121163

>  <m_score__min__rmsd>  (8) 
8.90702885121163

>  <meeko>  (8) 
{"free_energy": -4.12, "intermolecular_energy": -6.81, "internal_energy": -1.39, "cluster_size": 2, "cluster_id": 8, "rank_in_cluster": 1}

>  <energy>  (8) 
-4.19

>  <cluster_rmsd>  (8) 
0.89

>  <cluster>  (8) 
1

$$$$

     RDKit          3D

 44 46  0  0  0  0  0  0  0  0999 V2000
  137.6540   69.9770  222.0740 O   0  0  0  0  0  0  0  0  0  0  0  0
  137.8000   70.5320  223.1850 C   0  0  0  0  0  0  0  0  0  0  0  0
  137.2310   71.8270  223.3630 N   0  0  0  0  0  0  0  0  0  0  0  0
  136.4980   72.4840  222.2790 C   0  0  0  0  0  0  0  0  0  0  0  0
  135.7110   73.5620  222.8790 C   0  0  0  0  0  0  0  0  0  0  0  0
  136.0530   74.7640  222.6790 O   0  0  0  0  0  0  0  0  0  0  0  0
  134.5550   73.3670  223.6940 N   0  0  0  0  0  0  0  0  0  0  0  0
  133.9910   74.6770  224.1470 C   0  0  0  0  0  0  0  0  0  0  0  0
  134.0600   74.7200  225.7090 C   0  0  0  0  0  0  0  0  0  0  0  0
  134.0470   73.3790  226.1110 C   0  0  0  0  0  0  0  0  0  0  0  0
  134.0390   72.0290  226.4620 C   0  0  0  0  0  0  0  0  0  0  0  0
  134.5790   71.2830  225.1940 C   0  0  0  0  0  0  0  0  0  0  0  0
  134.1710   72.0360  223.9180 C   0  0  0  0  0  0  0  0  0  0  0  0
  138.5280   69.8990  224.2890 C   0  0  0  0  0  0  0  0  0  0  0  0
  138.5980   68.5220  224.3420 C   0  0  0  0  0  0  0  0  0  0  0  0
  139.2820   67.8980  225.3800 C   0  0  0  0  0  0  0  0  0  0  0  0
  139.8790   68.7080  226.3400 C   0  0  0  0  0  0  0  0  0  0  0  0
  140.5740   68.1310  227.3960 C   0  0  0  0  0  0  0  0  0  0  0  0
  141.1640   68.9360  228.3450 C   0  0  0  0  0  0  0  0  0  0  0  0
  141.8380   68.3450  229.3670 F   0  0  0  0  0  0  0  0  0  0  0  0
  141.0880   70.3110  228.2820 C   0  0  0  0  0  0  0  0  0  0  0  0
  140.3980   70.8690  227.2330 C   0  0  0  0  0  0  0  0  0  0  0  0
  139.7990   70.0900  226.2710 C   0  0  0  0  0  0  0  0  0  0  0  0
  139.1270   70.6410  225.2510 N   0  0  0  0  0  0  0  0  0  0  0  0
  137.3670   72.2670  224.2990 H   0  0  0  0  0  0  0  0  0  0  0  0
  137.2037   72.8973  221.5434 H   0  0  0  0  0  0  0  0  0  0  0  0
  135.8453   71.7673  221.7590 H   0  0  0  0  0  0  0  0  0  0  0  0
  134.5814   75.5035  223.7246 H   0  0  0  0  0  0  0  0  0  0  0  0
  132.9498   74.7820  223.8079 H   0  0  0  0  0  0  0  0  0  0  0  0
  134.9849   75.2140  226.0414 H   0  0  0  0  0  0  0  0  0  0  0  0
  133.2247   75.2889  226.1433 H   0  0  0  0  0  0  0  0  0  0  0  0
  134.8800   73.5665  226.8045 H   0  0  0  0  0  0  0  0  0  0  0  0
  132.9521   73.3585  226.0071 H   0  0  0  0  0  0  0  0  0  0  0  0
  134.6954   71.8493  227.3262 H   0  0  0  0  0  0  0  0  0  0  0  0
  133.0368   71.6814  226.7531 H   0  0  0  0  0  0  0  0  0  0  0  0
  135.6763   71.2258  225.2464 H   0  0  0  0  0  0  0  0  0  0  0  0
  134.1498   70.2706  225.1647 H   0  0  0  0  0  0  0  0  0  0  0  0
  134.5682   71.4529  223.0740 H   0  0  0  0  0  0  0  0  0  0  0  0
  133.0807   72.1227  224.0349 H   0  0  0  0  0  0  0  0  0  0  0  0
  138.1122   67.9169  223.5623 H   0  0  0  0  0  0  0  0  0  0  0  0
  139.3484   66.8016  225.4395 H   0  0  0  0  0  0  0  0  0  0  0  0
  140.6525   67.0365  227.4735 H   0  0  0  0  0  0  0  0  0  0  0  0
  141.5646   70.9414  229.0472 H   0  0  0  0  0  0  0  0  0  0  0  0
  140.3230   71.9641  227.1610 H   0  0  0  0  0  0  0  0  0  0  0  0
  1  2  2  0
  2  3  1  0
  3  4  1  0
  4  5  1  0
  5  6  2  0
  5  7  1  0
  7  8  1  0
  8  9  1  0
  9 10  1  0
 10 11  1  0
 11 12  1  0
 12 13  1  0
  2 14  1  0
 14 15  2  0
 15 16  1  0
 16 17  2  0
 17 18  1  0
 18 19  2  0
 19 20  1  0
 19 21  1  0
 21 22  2  0
 22 23  1  0
 23 24  2  0
 13  7  1  0
 24 14  1  0
 23 17  1  0
  3 25  1  0
  4 26  1  0
  4 27  1  0
  8 28  1  0
  8 29  1  0
  9 30  1  0
  9 31  1  0
 10 32  1  0
 10 33  1  0
 11 34  1  0
 11 35  1  0
 12 36  1  0
 12 37  1  0
 13 38  1  0
 13 39  1  0
 15 40  1  0
 16 41  1  0
 18 42  1  0
 21 43  1  0
 22 44  1  0
M  END
>  <smiles>  (9) 
O=C(NCC(=O)N1CCCCCC1)c1ccc2cc(F)ccc2n1

>  <score_type>  (9) 
oracle

>  <origin>  (9) 
autodockgpu

>  <m_score__min__energy>  (9) 
-5.5700000000000003

>  <m_primary>  (9) 
energy

>  <rmsd>  (9) 
5.634247537240527

>  <m_score__min__rmsd>  (9) 
5.634247537240527

>  <meeko>  (9) 
{"free_energy": -4.27, "intermolecular_energy": -6.95, "internal_energy": -1.39, "cluster_size": 1, "cluster_id": 7, "rank_in_cluster": 1}

>  <energy>  (9) 
-3.57

>  <cluster_rmsd>  (9) 
1.93

>  <cluster>  (9) 
1

$$$$

     RDKit          3D

 44 46  0  0  0  0  0  0  0  0999 V2000
  139.3650   75.0270  222.0770 O   0  0  0  0  0  0  0  0  0  0  0  0
  140.5850   75.2480  221.9140 C   0  0  0  0  0  0  0  0  0  0  0  0
  141.0720   76.5530  222.2190 N   0  0  0  0  0  0  0  0  0  0  0  0
  140.1720   77.5990  222.7080 C   0  0  0  0  0  0  0  0  0  0  0  0
  140.9950   78.7630  223.0330 C   0  0  0  0  0  0  0  0  0  0  0  0
  142.2290   78.6050  223.2630 O   0  0  0  0  0  0  0  0  0  0  0  0
  140.5090   80.1040  223.1130 N   0  0  0  0  0  0  0  0  0  0  0  0
  141.6110   81.0530  223.4680 C   0  0  0  0  0  0  0  0  0  0  0  0
  141.7500   82.0910  222.3050 C   0  0  0  0  0  0  0  0  0  0  0  0
  140.5120   82.0730  221.6520 C   0  0  0  0  0  0  0  0  0  0  0  0
  139.2550   82.0670  221.0450 C   0  0  0  0  0  0  0  0  0  0  0  0
  138.6270   80.6980  221.4700 C   0  0  0  0  0  0  0  0  0  0  0  0
  139.1410   80.2850  222.8580 C   0  0  0  0  0  0  0  0  0  0  0  0
  141.5110   74.2220  221.4260 C   0  0  0  0  0  0  0  0  0  0  0  0
  141.1520   72.8930  221.5300 C   0  0  0  0  0  0  0  0  0  0  0  0
  142.0140   71.9010  221.0740 C   0  0  0  0  0  0  0  0  0  0  0  0
  143.2250   72.3000  220.5220 C   0  0  0  0  0  0  0  0  0  0  0  0
  144.1200   71.3460  220.0530 C   0  0  0  0  0  0  0  0  0  0  0  0
  145.3190   71.7440  219.5060 C   0  0  0  0  0  0  0  0  0  0  0  0
  146.1750   70.7900  219.0550 F   0  0  0  0  0  0  0  0  0  0  0  0
  145.6680   73.0740  219.4070 C   0  0  0  0  0  0  0  0  0  0  0  0
  144.7750   74.0080  219.8750 C   0  0  0  0  0  0  0  0  0  0  0  0
  143.5690   73.6390  220.4250 C   0  0  0  0  0  0  0  0  0  0  0  0
  142.7040   74.5560  220.8790 N   0  0  0  0  0  0  0  0  0  0  0  0
  142.0930   76.7110  222.0740 H   0  0  0  0  0  0  0  0  0  0  0  0
  139.4405   77.8607  221.9292 H   0  0  0  0  0  0  0  0  0  0  0  0
  139.6182   77.2539  223.5935 H   0  0  0  0  0  0  0  0  0  0  0  0
  141.3673   81.5738  224.4058 H   0  0  0  0  0  0  0  0  0  0  0  0
  142.5555   80.5065  223.6069 H   0  0  0  0  0  0  0  0  0  0  0  0
  141.9613   83.0936  222.7051 H   0  0  0  0  0  0  0  0  0  0  0  0
  142.5785   81.8414  221.6258 H   0  0  0  0  0  0  0  0  0  0  0  0
  140.8797   82.7971  220.9100 H   0  0  0  0  0  0  0  0  0  0  0  0
  140.4039   81.0037  221.8865 H   0  0  0  0  0  0  0  0  0  0  0  0
  138.6430   82.9059  221.4079 H   0  0  0  0  0  0  0  0  0  0  0  0
  139.3153   82.1807  219.9525 H   0  0  0  0  0  0  0  0  0  0  0  0
  137.5318   80.7954  221.5025 H   0  0  0  0  0  0  0  0  0  0  0  0
  138.9147   79.9291  220.7379 H   0  0  0  0  0  0  0  0  0  0  0  0
  138.7952   81.0589  223.5590 H   0  0  0  0  0  0  0  0  0  0  0  0
  138.7461   79.2634  222.9600 H   0  0  0  0  0  0  0  0  0  0  0  0
  140.1837   72.6183  221.9737 H   0  0  0  0  0  0  0  0  0  0  0  0
  141.7460   70.8367  221.1479 H   0  0  0  0  0  0  0  0  0  0  0  0
  143.8713   70.2765  220.1186 H   0  0  0  0  0  0  0  0  0  0  0  0
  146.6297   73.3777  218.9678 H   0  0  0  0  0  0  0  0  0  0  0  0
  145.0305   75.0758  219.8083 H   0  0  0  0  0  0  0  0  0  0  0  0
  1  2  2  0
  2  3  1  0
  3  4  1  0
  4  5  1  0
  5  6  2  0
  5  7  1  0
  7  8  1  0
  8  9  1  0
  9 10  1  0
 10 11  1  0
 11 12  1  0
 12 13  1  0
  2 14  1  0
 14 15  2  0
 15 16  1  0
 16 17  2  0
 17 18  1  0
 18 19  2  0
 19 20  1  0
 19 21  1  0
 21 22  2  0
 22 23  1  0
 23 24  2  0
 13  7  1  0
 24 14  1  0
 23 17  1  0
  3 25  1  0
  4 26  1  0
  4 27  1  0
  8 28  1  0
  8 29  1  0
  9 30  1  0
  9 31  1  0
 10 32  1  0
 10 33  1  0
 11 34  1  0
 11 35  1  0
 12 36  1  0
 12 37  1  0
 13 38  1  0
 13 39  1  0
 15 40  1  0
 16 41  1  0
 18 42  1  0
 21 43  1  0
 22 44  1  0
M  END
>  <smiles>  (10) 
O=C(NCC(=O)N1CCCCCC1)c1ccc2cc(F)ccc2n1

>  <score_type>  (10) 
oracle

>  <origin>  (10) 
autodockgpu

>  <m_score__min__energy>  (10) 
-5.5700000000000003

>  <m_primary>  (10) 
energy

>  <rmsd>  (10) 
6.843952350630552

>  <m_score__min__rmsd>  (10) 
6.843952350630552

>  <meeko>  (10) 
{"free_energy": -3.45, "intermolecular_energy": -6.14, "internal_energy": -1.65, "cluster_size": 1, "cluster_id": 12, "rank_in_cluster": 1}

>  <energy>  (10) 
-5.07

>  <cluster_rmsd>  (10) 
0.0

>  <cluster>  (10) 
2

$$$$

     RDKit          3D

 44 46  0  0  0  0  0  0  0  0999 V2000
  136.0310   68.6590  224.1670 O   0  0  0  0  0  0  0  0  0  0  0  0
  136.3090   69.7720  224.6640 C   0  0  0  0  0  0  0  0  0  0  0  0
  137.6650   70.2080  224.6060 N   0  0  0  0  0  0  0  0  0  0  0  0
  138.6980   69.3790  223.9830 C   0  0  0  0  0  0  0  0  0  0  0  0
  139.3290   68.5990  225.0470 C   0  0  0  0  0  0  0  0  0  0  0  0
  138.8860   67.4450  225.3160 O   0  0  0  0  0  0  0  0  0  0  0  0
  140.4380   69.0420  225.8300 N   0  0  0  0  0  0  0  0  0  0  0  0
  140.8360   68.0040  226.8320 C   0  0  0  0  0  0  0  0  0  0  0  0
  141.0500   68.7150  228.2090 C   0  0  0  0  0  0  0  0  0  0  0  0
  140.7580   70.0640  227.9710 C   0  0  0  0  0  0  0  0  0  0  0  0
  140.4540   71.4120  227.7830 C   0  0  0  0  0  0  0  0  0  0  0  0
  140.3850   71.5790  226.2290 C   0  0  0  0  0  0  0  0  0  0  0  0
  140.9340   70.3220  225.5360 C   0  0  0  0  0  0  0  0  0  0  0  0
  135.2970   70.6250  225.2950 C   0  0  0  0  0  0  0  0  0  0  0  0
  134.4130   70.0620  226.1930 C   0  0  0  0  0  0  0  0  0  0  0  0
  133.4440   70.8500  226.8050 C   0  0  0  0  0  0  0  0  0  0  0  0
  133.4080   72.2000  226.4770 C   0  0  0  0  0  0  0  0  0  0  0  0
  132.4570   73.0290  227.0620 C   0  0  0  0  0  0  0  0  0  0  0  0
  132.4240   74.3660  226.7350 C   0  0  0  0  0  0  0  0  0  0  0  0
  131.4840   75.1540  227.3220 F   0  0  0  0  0  0  0  0  0  0  0  0
  133.3120   74.9190  225.8370 C   0  0  0  0  0  0  0  0  0  0  0  0
  134.2460   74.0890  225.2650 C   0  0  0  0  0  0  0  0  0  0  0  0
  134.3030   72.7500  225.5730 C   0  0  0  0  0  0  0  0  0  0  0  0
  135.2180   71.9470  225.0110 N   0  0  0  0  0  0  0  0  0  0  0  0
  137.8700   71.1410  225.0290 H   0  0  0  0  0  0  0  0  0  0  0  0
  138.2438   68.7056  223.2412 H   0  0  0  0  0  0  0  0  0  0  0  0
  139.4403   70.0046  223.4658 H   0  0  0  0  0  0  0  0  0  0  0  0
  140.0415   67.2485  226.9219 H   0  0  0  0  0  0  0  0  0  0  0  0
  141.7619   67.5024  226.5140 H   0  0  0  0  0  0  0  0  0  0  0  0
  140.3699   68.3005  228.9677 H   0  0  0  0  0  0  0  0  0  0  0  0
  142.0719   68.5752  228.5912 H   0  0  0  0  0  0  0  0  0  0  0  0
  141.7689   70.2238  227.5679 H   0  0  0  0  0  0  0  0  0  0  0  0
  139.7220   69.7950  227.7172 H   0  0  0  0  0  0  0  0  0  0  0  0
  139.4875   71.6617  228.2451 H   0  0  0  0  0  0  0  0  0  0  0  0
  141.1967   72.0790  228.2450 H   0  0  0  0  0  0  0  0  0  0  0  0
  139.3389   71.7335  225.9261 H   0  0  0  0  0  0  0  0  0  0  0  0
  140.9931   72.4467  225.9336 H   0  0  0  0  0  0  0  0  0  0  0  0
  140.7824   70.4723  224.4569 H   0  0  0  0  0  0  0  0  0  0  0  0
  141.9618   70.2701  225.9244 H   0  0  0  0  0  0  0  0  0  0  0  0
  134.4749   68.9885  226.4250 H   0  0  0  0  0  0  0  0  0  0  0  0
  132.7310   70.4197  227.5236 H   0  0  0  0  0  0  0  0  0  0  0  0
  131.7345   72.6184  227.7827 H   0  0  0  0  0  0  0  0  0  0  0  0
  133.2741   75.9895  225.5866 H   0  0  0  0  0  0  0  0  0  0  0  0
  134.9648   74.5054  224.5439 H   0  0  0  0  0  0  0  0  0  0  0  0
  1  2  2  0
  2  3  1  0
  3  4  1  0
  4  5  1  0
  5  6  2  0
  5  7  1  0
  7  8  1  0
  8  9  1  0
  9 10  1  0
 10 11  1  0
 11 12  1  0
 12 13  1  0
  2 14  1  0
 14 15  2  0
 15 16  1  0
 16 17  2  0
 17 18  1  0
 18 19  2  0
 19 20  1  0
 19 21  1  0
 21 22  2  0
 22 23  1  0
 23 24  2  0
 13  7  1  0
 24 14  1  0
 23 17  1  0
  3 25  1  0
  4 26  1  0
  4 27  1  0
  8 28  1  0
  8 29  1  0
  9 30  1  0
  9 31  1  0
 10 32  1  0
 10 33  1  0
 11 34  1  0
 11 35  1  0
 12 36  1  0
 12 37  1  0
 13 38  1  0
 13 39  1  0
 15 40  1  0
 16 41  1  0
 18 42  1  0
 21 43  1  0
 22 44  1  0
M  END
>  <smiles>  (11) 
O=C(NCC(=O)N1CCCCCC1)c1ccc2cc(F)ccc2n1

>  <score_type>  (11) 
oracle

>  <origin>  (11) 
autodockgpu

>  <m_score__min__energy>  (11) 
-5.5700000000000003

>  <m_primary>  (11) 
energy

>  <rmsd>  (11) 
8.46925911356983

>  <m_score__min__rmsd>  (11) 
8.46925911356983

>  <meeko>  (11) 
{"free_energy": -4.7, "intermolecular_energy": -7.38, "internal_energy": -1.19, "cluster_size": 9, "cluster_id": 1, "rank_in_cluster": 6}

>  <energy>  (11) 
-5.0

>  <cluster_rmsd>  (11) 
1.44

>  <cluster>  (11) 
2

$$$$

     RDKit          3D

 44 46  0  0  0  0  0  0  0  0999 V2000
  139.3700   71.1660  221.1020 O   0  0  0  0  0  0  0  0  0  0  0  0
  139.4720   71.6840  222.2360 C   0  0  0  0  0  0  0  0  0  0  0  0
  139.4380   73.1070  222.3240 N   0  0  0  0  0  0  0  0  0  0  0  0
  139.2860   73.9330  221.1250 C   0  0  0  0  0  0  0  0  0  0  0  0
  139.4470   75.3280  221.5370 C   0  0  0  0  0  0  0  0  0  0  0  0
  139.1110   75.6720  222.7070 O   0  0  0  0  0  0  0  0  0  0  0  0
  139.9680   76.3640  220.7040 N   0  0  0  0  0  0  0  0  0  0  0  0
  139.9970   77.6730  221.4310 C   0  0  0  0  0  0  0  0  0  0  0  0
  141.4800   78.1660  221.4830 C   0  0  0  0  0  0  0  0  0  0  0  0
  142.1090   77.5440  220.3970 C   0  0  0  0  0  0  0  0  0  0  0  0
  142.7150   76.8800  219.3300 C   0  0  0  0  0  0  0  0  0  0  0  0
  141.7990   75.6450  219.0530 C   0  0  0  0  0  0  0  0  0  0  0  0
  140.3430   75.9880  219.4050 C   0  0  0  0  0  0  0  0  0  0  0  0
  139.6230   70.8830  223.4550 C   0  0  0  0  0  0  0  0  0  0  0  0
  139.2300   69.5600  223.4390 C   0  0  0  0  0  0  0  0  0  0  0  0
  139.3640   68.7800  224.5830 C   0  0  0  0  0  0  0  0  0  0  0  0
  139.8990   69.3810  225.7160 C   0  0  0  0  0  0  0  0  0  0  0  0
  140.0530   68.6420  226.8830 C   0  0  0  0  0  0  0  0  0  0  0  0
  140.5840   69.2390  228.0050 C   0  0  0  0  0  0  0  0  0  0  0  0
  140.7230   68.4930  229.1320 F   0  0  0  0  0  0  0  0  0  0  0  0
  140.9740   70.5620  228.0090 C   0  0  0  0  0  0  0  0  0  0  0  0
  140.8170   71.2810  226.8490 C   0  0  0  0  0  0  0  0  0  0  0  0
  140.2890   70.7100  225.7140 C   0  0  0  0  0  0  0  0  0  0  0  0
  140.1400   71.4190  224.5870 N   0  0  0  0  0  0  0  0  0  0  0  0
  139.5240   73.5130  223.2820 H   0  0  0  0  0  0  0  0  0  0  0  0
  140.0550   73.6676  220.3846 H   0  0  0  0  0  0  0  0  0  0  0  0
  138.3003   73.7735  220.6635 H   0  0  0  0  0  0  0  0  0  0  0  0
  139.3776   78.4094  220.8981 H   0  0  0  0  0  0  0  0  0  0  0  0
  139.5991   77.5526  222.4494 H   0  0  0  0  0  0  0  0  0  0  0  0
  141.5270   79.2603  221.3817 H   0  0  0  0  0  0  0  0  0  0  0  0
  141.9644   77.9162  222.4385 H   0  0  0  0  0  0  0  0  0  0  0  0
  141.6437   78.2593  219.7028 H   0  0  0  0  0  0  0  0  0  0  0  0
  142.9913   77.3439  221.0226 H   0  0  0  0  0  0  0  0  0  0  0  0
  142.7634   77.5322  218.4455 H   0  0  0  0  0  0  0  0  0  0  0  0
  143.7496   76.5852  219.5595 H   0  0  0  0  0  0  0  0  0  0  0  0
  141.8634   75.3738  217.9889 H   0  0  0  0  0  0  0  0  0  0  0  0
  142.1328   74.7989  219.6717 H   0  0  0  0  0  0  0  0  0  0  0  0
  140.0530   76.8198  218.7462 H   0  0  0  0  0  0  0  0  0  0  0  0
  139.8383   75.0178  219.2867 H   0  0  0  0  0  0  0  0  0  0  0  0
  138.8106   69.1222  222.5212 H   0  0  0  0  0  0  0  0  0  0  0  0
  139.0570   67.7237  224.5905 H   0  0  0  0  0  0  0  0  0  0  0  0
  139.7519   67.5844  226.9105 H   0  0  0  0  0  0  0  0  0  0  0  0
  141.3971   71.0264  228.9119 H   0  0  0  0  0  0  0  0  0  0  0  0
  141.1206   72.3381  226.8271 H   0  0  0  0  0  0  0  0  0  0  0  0
  1  2  2  0
  2  3  1  0
  3  4  1  0
  4  5  1  0
  5  6  2  0
  5  7  1  0
  7  8  1  0
  8  9  1  0
  9 10  1  0
 10 11  1  0
 11 12  1  0
 12 13  1  0
  2 14  1  0
 14 15  2  0
 15 16  1  0
 16 17  2  0
 17 18  1  0
 18 19  2  0
 19 20  1  0
 19 21  1  0
 21 22  2  0
 22 23  1  0
 23 24  2  0
 13  7  1  0
 24 14  1  0
 23 17  1  0
  3 25  1  0
  4 26  1  0
  4 27  1  0
  8 28  1  0
  8 29  1  0
  9 30  1  0
  9 31  1  0
 10 32  1  0
 10 33  1  0
 11 34  1  0
 11 35  1  0
 12 36  1  0
 12 37  1  0
 13 38  1  0
 13 39  1  0
 15 40  1  0
 16 41  1  0
 18 42  1  0
 21 43  1  0
 22 44  1  0
M  END
>  <smiles>  (12) 
O=C(NCC(=O)N1CCCCCC1)c1ccc2cc(F)ccc2n1

>  <score_type>  (12) 
oracle

>  <origin>  (12) 
autodockgpu

>  <m_score__min__energy>  (12) 
-5.5700000000000003

>  <m_primary>  (12) 
energy

>  <rmsd>  (12) 
1.7335810142117525

>  <m_score__min__rmsd>  (12) 
1.7335810142117525

>  <meeko>  (12) 
{"free_energy": -3.64, "intermolecular_energy": -6.33, "internal_energy": -1.63, "cluster_size": 16, "cluster_id": 2, "rank_in_cluster": 16}

>  <energy>  (12) 
-4.99

>  <cluster_rmsd>  (12) 
1.43

>  <cluster>  (12) 
2

$$$$

     RDKit          3D

 44 46  0  0  0  0  0  0  0  0999 V2000
  137.5980   71.3490  222.5790 O   0  0  0  0  0  0  0  0  0  0  0  0
  137.1360   71.1040  223.7140 C   0  0  0  0  0  0  0  0  0  0  0  0
  137.7650   70.0810  224.4840 N   0  0  0  0  0  0  0  0  0  0  0  0
  138.9160   69.3440  223.9600 C   0  0  0  0  0  0  0  0  0  0  0  0
  139.5130   68.6170  225.0810 C   0  0  0  0  0  0  0  0  0  0  0  0
  139.0800   67.4650  225.3740 O   0  0  0  0  0  0  0  0  0  0  0  0
  140.5740   69.1140  225.8970 N   0  0  0  0  0  0  0  0  0  0  0  0
  140.9470   68.1230  226.9550 C   0  0  0  0  0  0  0  0  0  0  0  0
  140.7360   68.8000  228.3490 C   0  0  0  0  0  0  0  0  0  0  0  0
  140.7770   70.1760  228.0950 C   0  0  0  0  0  0  0  0  0  0  0  0
  140.7690   71.5460  227.8300 C   0  0  0  0  0  0  0  0  0  0  0  0
  140.5330   71.6530  226.2810 C   0  0  0  0  0  0  0  0  0  0  0  0
  141.0580   70.3930  225.5760 C   0  0  0  0  0  0  0  0  0  0  0  0
  135.9850   71.8250  224.2660 C   0  0  0  0  0  0  0  0  0  0  0  0
  135.7210   73.1050  223.8220 C   0  0  0  0  0  0  0  0  0  0  0  0
  134.6350   73.8090  224.3300 C   0  0  0  0  0  0  0  0  0  0  0  0
  133.8460   73.1800  225.2860 C   0  0  0  0  0  0  0  0  0  0  0  0
  132.7500   73.8440  225.8240 C   0  0  0  0  0  0  0  0  0  0  0  0
  131.9700   73.2180  226.7700 C   0  0  0  0  0  0  0  0  0  0  0  0
  130.9040   73.8900  227.2790 F   0  0  0  0  0  0  0  0  0  0  0  0
  132.2420   71.9390  227.2070 C   0  0  0  0  0  0  0  0  0  0  0  0
  133.3280   71.2940  226.6680 C   0  0  0  0  0  0  0  0  0  0  0  0
  134.1250   71.8940  225.7210 C   0  0  0  0  0  0  0  0  0  0  0  0
  135.1830   71.2580  225.2000 N   0  0  0  0  0  0  0  0  0  0  0  0
  137.3590   69.8970  225.4270 H   0  0  0  0  0  0  0  0  0  0  0  0
  138.5886   68.6366  223.1839 H   0  0  0  0  0  0  0  0  0  0  0  0
  139.6462   70.0314  223.5080 H   0  0  0  0  0  0  0  0  0  0  0  0
  140.3082   67.2313  226.8728 H   0  0  0  0  0  0  0  0  0  0  0  0
  141.9959   67.8140  226.8357 H   0  0  0  0  0  0  0  0  0  0  0  0
  139.7624   68.5144  228.7738 H   0  0  0  0  0  0  0  0  0  0  0  0
  141.5007   68.4919  229.0772 H   0  0  0  0  0  0  0  0  0  0  0  0
  141.1814   70.3613  229.1010 H   0  0  0  0  0  0  0  0  0  0  0  0
  141.0374   69.9745  227.0454 H   0  0  0  0  0  0  0  0  0  0  0  0
  139.9568   72.0426  228.3810 H   0  0  0  0  0  0  0  0  0  0  0  0
  141.7034   72.0351  228.1427 H   0  0  0  0  0  0  0  0  0  0  0  0
  139.4559   71.7575  226.0839 H   0  0  0  0  0  0  0  0  0  0  0  0
  141.0722   72.5309  225.8956 H   0  0  0  0  0  0  0  0  0  0  0  0
  140.8665   70.5362  224.5023 H   0  0  0  0  0  0  0  0  0  0  0  0
  142.0999   70.3448  225.9255 H   0  0  0  0  0  0  0  0  0  0  0  0
  136.3707   73.5687  223.0652 H   0  0  0  0  0  0  0  0  0  0  0  0
  134.4079   74.8292  223.9870 H   0  0  0  0  0  0  0  0  0  0  0  0
  132.5069   74.8652  225.4954 H   0  0  0  0  0  0  0  0  0  0  0  0
  131.6095   71.4509  227.9631 H   0  0  0  0  0  0  0  0  0  0  0  0
  133.5662   70.2732  227.0015 H   0  0  0  0  0  0  0  0  0  0  0  0
  1  2  2  0
  2  3  1  0
  3  4  1  0
  4  5  1  0
  5  6  2  0
  5  7  1  0
  7  8  1  0
  8  9  1  0
  9 10  1  0
 10 11  1  0
 11 12  1  0
 12 13  1  0
  2 14  1  0
 14 15  2  0
 15 16  1  0
 16 17  2  0
 17 18  1  0
 18 19  2  0
 19 20  1  0
 19 21  1  0
 21 22  2  0
 22 23  1  0
 23 24  2  0
 13  7  1  0
 24 14  1  0
 23 17  1  0
  3 25  1  0
  4 26  1  0
  4 27  1  0
  8 28  1  0
  8 29  1  0
  9 30  1  0
  9 31  1  0
 10 32  1  0
 10 33  1  0
 11 34  1  0
 11 35  1  0
 12 36  1  0
 12 37  1  0
 13 38  1  0
 13 39  1  0
 15 40  1  0
 16 41  1  0
 18 42  1  0
 21 43  1  0
 22 44  1  0
M  END
>  <smiles>  (13) 
O=C(NCC(=O)N1CCCCCC1)c1ccc2cc(F)ccc2n1

>  <score_type>  (13) 
oracle

>  <origin>  (13) 
autodockgpu

>  <m_score__min__energy>  (13) 
-5.5700000000000003

>  <m_primary>  (13) 
energy

>  <rmsd>  (13) 
8.497553313005342

>  <m_score__min__rmsd>  (13) 
8.497553313005342

>  <meeko>  (13) 
{"free_energy": -4.99, "intermolecular_energy": -7.68, "internal_energy": -1.3, "cluster_size": 9, "cluster_id": 1, "rank_in_cluster": 3}

>  <energy>  (13) 
-4.88

>  <cluster_rmsd>  (13) 
1.94

>  <cluster>  (13) 
2

$$$$

     RDKit          3D

 44 46  0  0  0  0  0  0  0  0999 V2000
  139.9460   73.3390  222.6760 O   0  0  0  0  0  0  0  0  0  0  0  0
  140.5440   72.3070  222.3020 C   0  0  0  0  0  0  0  0  0  0  0  0
  140.1370   71.0600  222.8620 N   0  0  0  0  0  0  0  0  0  0  0  0
  139.0520   70.9930  223.8430 C   0  0  0  0  0  0  0  0  0  0  0  0
  139.2990   69.8220  224.6840 C   0  0  0  0  0  0  0  0  0  0  0  0
  138.5060   68.8390  224.6280 O   0  0  0  0  0  0  0  0  0  0  0  0
  140.3950   69.6920  225.5910 N   0  0  0  0  0  0  0  0  0  0  0  0
  140.3530   68.3730  226.2970 C   0  0  0  0  0  0  0  0  0  0  0  0
  140.5040   68.6390  227.8310 C   0  0  0  0  0  0  0  0  0  0  0  0
  140.7030   70.0210  227.9420 C   0  0  0  0  0  0  0  0  0  0  0  0
  140.8680   71.3980  228.0930 C   0  0  0  0  0  0  0  0  0  0  0  0
  141.0520   71.9450  226.6330 C   0  0  0  0  0  0  0  0  0  0  0  0
  141.2800   70.7800  225.6570 C   0  0  0  0  0  0  0  0  0  0  0  0
  141.6340   72.3410  221.3220 C   0  0  0  0  0  0  0  0  0  0  0  0
  142.0370   73.5600  220.8130 C   0  0  0  0  0  0  0  0  0  0  0  0
  143.0690   73.6190  219.8820 C   0  0  0  0  0  0  0  0  0  0  0  0
  143.6610   72.4220  219.4960 C   0  0  0  0  0  0  0  0  0  0  0  0
  144.6960   72.4300  218.5680 C   0  0  0  0  0  0  0  0  0  0  0  0
  145.2800   71.2430  218.1880 C   0  0  0  0  0  0  0  0  0  0  0  0
  146.2900   71.2800  217.2790 F   0  0  0  0  0  0  0  0  0  0  0  0
  144.8710   70.0310  218.7030 C   0  0  0  0  0  0  0  0  0  0  0  0
  143.8470   70.0370  219.6190 C   0  0  0  0  0  0  0  0  0  0  0  0
  143.2440   71.2080  220.0170 C   0  0  0  0  0  0  0  0  0  0  0  0
  142.2460   71.2050  220.9120 N   0  0  0  0  0  0  0  0  0  0  0  0
  140.6530   70.2150  222.5340 H   0  0  0  0  0  0  0  0  0  0  0  0
  139.0445   71.9043  224.4591 H   0  0  0  0  0  0  0  0  0  0  0  0
  138.0766   70.9135  223.3407 H   0  0  0  0  0  0  0  0  0  0  0  0
  139.3934   67.8736  226.0977 H   0  0  0  0  0  0  0  0  0  0  0  0
  141.1661   67.7235  225.9406 H   0  0  0  0  0  0  0  0  0  0  0  0
  139.5929   68.3354  228.3674 H   0  0  0  0  0  0  0  0  0  0  0  0
  141.3340   68.0657  228.2698 H   0  0  0  0  0  0  0  0  0  0  0  0
  141.7902   69.8706  228.0151 H   0  0  0  0  0  0  0  0  0  0  0  0
  139.8651   70.1971  227.2514 H   0  0  0  0  0  0  0  0  0  0  0  0
  139.9804   71.8448  228.5647 H   0  0  0  0  0  0  0  0  0  0  0  0
  141.7239   71.6443  228.7385 H   0  0  0  0  0  0  0  0  0  0  0  0
  140.1488   72.4977  226.3351 H   0  0  0  0  0  0  0  0  0  0  0  0
  141.9256   72.6130  226.6064 H   0  0  0  0  0  0  0  0  0  0  0  0
  141.3054   71.2204  224.6493 H   0  0  0  0  0  0  0  0  0  0  0  0
  142.1947   70.3157  226.0541 H   0  0  0  0  0  0  0  0  0  0  0  0
  141.5417   74.4847  221.1439 H   0  0  0  0  0  0  0  0  0  0  0  0
  143.4051   74.5800  219.4655 H   0  0  0  0  0  0  0  0  0  0  0  0
  145.0466   73.3805  218.1394 H   0  0  0  0  0  0  0  0  0  0  0  0
  145.3487   69.0906  218.3908 H   0  0  0  0  0  0  0  0  0  0  0  0
  143.5011   69.0833  220.0442 H   0  0  0  0  0  0  0  0  0  0  0  0
  1  2  2  0
  2  3  1  0
  3  4  1  0
  4  5  1  0
  5  6  2  0
  5  7  1  0
  7  8  1  0
  8  9  1  0
  9 10  1  0
 10 11  1  0
 11 12  1  0
 12 13  1  0
  2 14  1  0
 14 15  2  0
 15 16  1  0
 16 17  2  0
 17 18  1  0
 18 19  2  0
 19 20  1  0
 19 21  1  0
 21 22  2  0
 22 23  1  0
 23 24  2  0
 13  7  1  0
 24 14  1  0
 23 17  1  0
  3 25  1  0
  4 26  1  0
  4 27  1  0
  8 28  1  0
  8 29  1  0
  9 30  1  0
  9 31  1  0
 10 32  1  0
 10 33  1  0
 11 34  1  0
 11 35  1  0
 12 36  1  0
 12 37  1  0
 13 38  1  0
 13 39  1  0
 15 40  1  0
 16 41  1  0
 18 42  1  0
 21 43  1  0
 22 44  1  0
M  END
>  <smiles>  (14) 
O=C(NCC(=O)N1CCCCCC1)c1ccc2cc(F)ccc2n1

>  <score_type>  (14) 
oracle

>  <origin>  (14) 
autodockgpu

>  <m_score__min__energy>  (14) 
-5.5700000000000003

>  <m_primary>  (14) 
energy

>  <rmsd>  (14) 
8.673839529713302

>  <m_score__min__rmsd>  (14) 
8.673839529713302

>  <meeko>  (14) 
{"free_energy": -4.61, "intermolecular_energy": -7.29, "internal_energy": -1.32, "cluster_size": 4, "cluster_id": 3, "rank_in_cluster": 2}

>  <energy>  (14) 
-4.85

>  <cluster_rmsd>  (14) 
0.06

>  <cluster>  (14) 
2

$$$$

     RDKit          3D

 44 46  0  0  0  0  0  0  0  0999 V2000
  135.5920   68.5140  224.4750 O   0  0  0  0  0  0  0  0  0  0  0  0
  135.9500   69.6150  224.9490 C   0  0  0  0  0  0  0  0  0  0  0  0
  137.3420   69.9230  224.9410 N   0  0  0  0  0  0  0  0  0  0  0  0
  138.3200   68.9820  224.3930 C   0  0  0  0  0  0  0  0  0  0  0  0
  139.0410   68.3980  225.5240 C   0  0  0  0  0  0  0  0  0  0  0  0
  138.5770   67.3670  226.0900 O   0  0  0  0  0  0  0  0  0  0  0  0
  140.2630   68.9090  226.0580 N   0  0  0  0  0  0  0  0  0  0  0  0
  140.7330   68.0790  227.2120 C   0  0  0  0  0  0  0  0  0  0  0  0
  141.0570   69.0430  228.4010 C   0  0  0  0  0  0  0  0  0  0  0  0
  140.8270   70.3300  227.9000 C   0  0  0  0  0  0  0  0  0  0  0  0
  140.5620   71.6180  227.4360 C   0  0  0  0  0  0  0  0  0  0  0  0
  140.3880   71.4680  225.8840 C   0  0  0  0  0  0  0  0  0  0  0  0
  140.7840   70.0530  225.4330 C   0  0  0  0  0  0  0  0  0  0  0  0
  134.9950   70.5780  225.5040 C   0  0  0  0  0  0  0  0  0  0  0  0
  134.0000   70.1250  226.3480 C   0  0  0  0  0  0  0  0  0  0  0  0
  133.0820   71.0200  226.8870 C   0  0  0  0  0  0  0  0  0  0  0  0
  133.2090   72.3610  226.5460 C   0  0  0  0  0  0  0  0  0  0  0  0
  132.3160   73.2930  227.0600 C   0  0  0  0  0  0  0  0  0  0  0  0
  132.4440   74.6210  226.7200 C   0  0  0  0  0  0  0  0  0  0  0  0
  131.5570   75.5110  227.2370 F   0  0  0  0  0  0  0  0  0  0  0  0
  133.4420   75.0640  225.8770 C   0  0  0  0  0  0  0  0  0  0  0  0
  134.3180   74.1320  225.3760 C   0  0  0  0  0  0  0  0  0  0  0  0
  134.2140   72.7990  225.6980 C   0  0  0  0  0  0  0  0  0  0  0  0
  135.0730   71.8970  225.2050 N   0  0  0  0  0  0  0  0  0  0  0  0
  137.6130   70.8470  225.3430 H   0  0  0  0  0  0  0  0  0  0  0  0
  137.8059   68.1922  223.8257 H   0  0  0  0  0  0  0  0  0  0  0  0
  139.0142   69.4943  223.7106 H   0  0  0  0  0  0  0  0  0  0  0  0
  139.9443   67.3720  227.5090 H   0  0  0  0  0  0  0  0  0  0  0  0
  141.6284   67.5054  226.9304 H   0  0  0  0  0  0  0  0  0  0  0  0
  140.3960   68.8375  229.2559 H   0  0  0  0  0  0  0  0  0  0  0  0
  142.0886   68.9196  228.7624 H   0  0  0  0  0  0  0  0  0  0  0  0
  141.8898   70.5827  228.0291 H   0  0  0  0  0  0  0  0  0  0  0  0
  140.0783   69.9250  227.2032 H   0  0  0  0  0  0  0  0  0  0  0  0
  139.6407   72.0102  227.8914 H   0  0  0  0  0  0  0  0  0  0  0  0
  141.3673   72.3217  227.6935 H   0  0  0  0  0  0  0  0  0  0  0  0
  139.3366   71.6519  225.6180 H   0  0  0  0  0  0  0  0  0  0  0  0
  141.0393   72.1976  225.3805 H   0  0  0  0  0  0  0  0  0  0  0  0
  140.5089   69.9781  224.3706 H   0  0  0  0  0  0  0  0  0  0  0  0
  141.8481   70.0075  225.7081 H   0  0  0  0  0  0  0  0  0  0  0  0
  133.9335   69.0550  226.5942 H   0  0  0  0  0  0  0  0  0  0  0  0
  132.2824   70.6778  227.5605 H   0  0  0  0  0  0  0  0  0  0  0  0
  131.5100   72.9712  227.7358 H   0  0  0  0  0  0  0  0  0  0  0  0
  133.5333   76.1283  225.6146 H   0  0  0  0  0  0  0  0  0  0  0  0
  135.1222   74.4598  224.7009 H   0  0  0  0  0  0  0  0  0  0  0  0
  1  2  2  0
  2  3  1  0
  3  4  1  0
  4  5  1  0
  5  6  2  0
  5  7  1  0
  7  8  1  0
  8  9  1  0
  9 10  1  0
 10 11  1  0
 11 12  1  0
 12 13  1  0
  2 14  1  0
 14 15  2  0
 15 16  1  0
 16 17  2  0
 17 18  1  0
 18 19  2  0
 19 20  1  0
 19 21  1  0
 21 22  2  0
 22 23  1  0
 23 24  2  0
 13  7  1  0
 24 14  1  0
 23 17  1  0
  3 25  1  0
  4 26  1  0
  4 27  1  0
  8 28  1  0
  8 29  1  0
  9 30  1  0
  9 31  1  0
 10 32  1  0
 10 33  1  0
 11 34  1  0
 11 35  1  0
 12 36  1  0
 12 37  1  0
 13 38  1  0
 13 39  1  0
 15 40  1  0
 16 41  1  0
 18 42  1  0
 21 43  1  0
 22 44  1  0
M  END
>  <smiles>  (15) 
O=C(NCC(=O)N1CCCCCC1)c1ccc2cc(F)ccc2n1

>  <score_type>  (15) 
oracle

>  <origin>  (15) 
autodockgpu

>  <m_score__min__energy>  (15) 
-5.5700000000000003

>  <m_primary>  (15) 
energy

>  <rmsd>  (15) 
8.60536765865668

>  <m_score__min__rmsd>  (15) 
8.60536765865668

>  <meeko>  (15) 
{"free_energy": -4.83, "intermolecular_energy": -7.51, "internal_energy": -1.16, "cluster_size": 9, "cluster_id": 1, "rank_in_cluster": 5}

>  <energy>  (15) 
-4.8

>  <cluster_rmsd>  (15) 
1.66

>  <cluster>  (15) 
2

$$$$

     RDKit          3D

 44 46  0  0  0  0  0  0  0  0999 V2000
  138.5980   71.9780  221.2380 O   0  0  0  0  0  0  0  0  0  0  0  0
  139.4230   72.2290  222.1430 C   0  0  0  0  0  0  0  0  0  0  0  0
  140.2750   73.3610  221.9730 N   0  0  0  0  0  0  0  0  0  0  0  0
  140.1830   74.2000  220.7770 C   0  0  0  0  0  0  0  0  0  0  0  0
  140.7440   75.5070  221.1200 C   0  0  0  0  0  0  0  0  0  0  0  0
  141.8310   75.8740  220.5880 O   0  0  0  0  0  0  0  0  0  0  0  0
  140.1480   76.4310  222.0310 N   0  0  0  0  0  0  0  0  0  0  0  0
  140.9790   77.6700  222.1580 C   0  0  0  0  0  0  0  0  0  0  0  0
  140.0130   78.8820  222.3730 C   0  0  0  0  0  0  0  0  0  0  0  0
  138.7410   78.3930  222.0540 C   0  0  0  0  0  0  0  0  0  0  0  0
  137.4890   77.8960  221.6880 C   0  0  0  0  0  0  0  0  0  0  0  0
  137.5810   76.3610  221.9900 C   0  0  0  0  0  0  0  0  0  0  0  0
  138.9420   76.0290  222.6240 C   0  0  0  0  0  0  0  0  0  0  0  0
  139.5390   71.4080  223.3520 C   0  0  0  0  0  0  0  0  0  0  0  0
  139.0560   70.1150  223.3310 C   0  0  0  0  0  0  0  0  0  0  0  0
  139.1540   69.3170  224.4660 C   0  0  0  0  0  0  0  0  0  0  0  0
  139.7470   69.8680  225.5950 C   0  0  0  0  0  0  0  0  0  0  0  0
  139.8680   69.1090  226.7530 C   0  0  0  0  0  0  0  0  0  0  0  0
  140.4560   69.6580  227.8710 C   0  0  0  0  0  0  0  0  0  0  0  0
  140.5610   68.8930  228.9890 F   0  0  0  0  0  0  0  0  0  0  0  0
  140.9360   70.9500  227.8810 C   0  0  0  0  0  0  0  0  0  0  0  0
  140.8100   71.6900  226.7300 C   0  0  0  0  0  0  0  0  0  0  0  0
  140.2270   71.1680  225.5990 C   0  0  0  0  0  0  0  0  0  0  0  0
  140.1090   71.8960  224.4800 N   0  0  0  0  0  0  0  0  0  0  0  0
  140.9540   73.5480  222.7420 H   0  0  0  0  0  0  0  0  0  0  0  0
  140.7568   73.7478  219.9546 H   0  0  0  0  0  0  0  0  0  0  0  0
  139.1377   74.2981  220.4488 H   0  0  0  0  0  0  0  0  0  0  0  0
  141.6582   77.5771  223.0183 H   0  0  0  0  0  0  0  0  0  0  0  0
  141.5824   77.8194  221.2505 H   0  0  0  0  0  0  0  0  0  0  0  0
  140.0455   79.2214  223.4188 H   0  0  0  0  0  0  0  0  0  0  0  0
  140.2907   79.7466  221.7523 H   0  0  0  0  0  0  0  0  0  0  0  0
  138.7908   77.6829  222.8927 H   0  0  0  0  0  0  0  0  0  0  0  0
  138.4291   79.4030  221.7496 H   0  0  0  0  0  0  0  0  0  0  0  0
  136.6934   78.3642  222.2862 H   0  0  0  0  0  0  0  0  0  0  0  0
  137.2442   78.1044  220.6360 H   0  0  0  0  0  0  0  0  0  0  0  0
  136.7768   76.0779  222.6851 H   0  0  0  0  0  0  0  0  0  0  0  0
  137.4756   75.8015  221.0488 H   0  0  0  0  0  0  0  0  0  0  0  0
  138.9301   76.4704  223.6315 H   0  0  0  0  0  0  0  0  0  0  0  0
  138.9858   74.9342  222.5261 H   0  0  0  0  0  0  0  0  0  0  0  0
  138.5935   69.7156  222.4164 H   0  0  0  0  0  0  0  0  0  0  0  0
  138.7748   68.2844  224.4695 H   0  0  0  0  0  0  0  0  0  0  0  0
  139.4957   68.0742  226.7765 H   0  0  0  0  0  0  0  0  0  0  0  0
  141.4046   71.3748  228.7809 H   0  0  0  0  0  0  0  0  0  0  0  0
  141.1842   72.7242  226.7128 H   0  0  0  0  0  0  0  0  0  0  0  0
  1  2  2  0
  2  3  1  0
  3  4  1  0
  4  5  1  0
  5  6  2  0
  5  7  1  0
  7  8  1  0
  8  9  1  0
  9 10  1  0
 10 11  1  0
 11 12  1  0
 12 13  1  0
  2 14  1  0
 14 15  2  0
 15 16  1  0
 16 17  2  0
 17 18  1  0
 18 19  2  0
 19 20  1  0
 19 21  1  0
 21 22  2  0
 22 23  1  0
 23 24  2  0
 13  7  1  0
 24 14  1  0
 23 17  1  0
  3 25  1  0
  4 26  1  0
  4 27  1  0
  8 28  1  0
  8 29  1  0
  9 30  1  0
  9 31  1  0
 10 32  1  0
 10 33  1  0
 11 34  1  0
 11 35  1  0
 12 36  1  0
 12 37  1  0
 13 38  1  0
 13 39  1  0
 15 40  1  0
 16 41  1  0
 18 42  1  0
 21 43  1  0
 22 44  1  0
M  END
>  <smiles>  (16) 
O=C(NCC(=O)N1CCCCCC1)c1ccc2cc(F)ccc2n1

>  <score_type>  (16) 
oracle

>  <origin>  (16) 
autodockgpu

>  <m_score__min__energy>  (16) 
-5.5700000000000003

>  <m_primary>  (16) 
energy

>  <rmsd>  (16) 
2.9269205802337077

>  <m_score__min__rmsd>  (16) 
2.9269205802337077

>  <meeko>  (16) 
{"free_energy": -3.31, "intermolecular_energy": -5.99, "internal_energy": -1.25, "cluster_size": 1, "cluster_id": 13, "rank_in_cluster": 1}

>  <energy>  (16) 
-4.75

>  <cluster_rmsd>  (16) 
0.59

>  <cluster>  (16) 
2

$$$$

     RDKit          3D

 44 46  0  0  0  0  0  0  0  0999 V2000
  141.3300   72.9770  221.4390 O   0  0  0  0  0  0  0  0  0  0  0  0
  140.4150   72.9610  222.2900 C   0  0  0  0  0  0  0  0  0  0  0  0
  139.5360   74.0830  222.3440 N   0  0  0  0  0  0  0  0  0  0  0  0
  139.7020   75.2160  221.4300 C   0  0  0  0  0  0  0  0  0  0  0  0
  139.0100   76.3590  222.0260 C   0  0  0  0  0  0  0  0  0  0  0  0
  138.0680   76.1560  222.8450 O   0  0  0  0  0  0  0  0  0  0  0  0
  139.3200   77.7260  221.7530 N   0  0  0  0  0  0  0  0  0  0  0  0
  138.4230   78.6430  222.5250 C   0  0  0  0  0  0  0  0  0  0  0  0
  139.2720   79.8710  222.9930 C   0  0  0  0  0  0  0  0  0  0  0  0
  140.6000   79.5160  222.7300 C   0  0  0  0  0  0  0  0  0  0  0  0
  141.9190   79.1220  222.4990 C   0  0  0  0  0  0  0  0  0  0  0  0
  141.8220   78.0980  221.3120 C   0  0  0  0  0  0  0  0  0  0  0  0
  140.3650   77.9580  220.8450 C   0  0  0  0  0  0  0  0  0  0  0  0
  140.2220   71.8430  223.2180 C   0  0  0  0  0  0  0  0  0  0  0  0
  139.5740   70.7080  222.7730 C   0  0  0  0  0  0  0  0  0  0  0  0
  139.3790   69.6340  223.6340 C   0  0  0  0  0  0  0  0  0  0  0  0
  139.8570   69.7520  224.9340 C   0  0  0  0  0  0  0  0  0  0  0  0
  139.6860   68.7050  225.8310 C   0  0  0  0  0  0  0  0  0  0  0  0
  140.1610   68.8250  227.1180 C   0  0  0  0  0  0  0  0  0  0  0  0
  139.9810   67.7850  227.9750 F   0  0  0  0  0  0  0  0  0  0  0  0
  140.8080   69.9620  227.5530 C   0  0  0  0  0  0  0  0  0  0  0  0
  140.9700   70.9900  226.6560 C   0  0  0  0  0  0  0  0  0  0  0  0
  140.5060   70.8980  225.3640 C   0  0  0  0  0  0  0  0  0  0  0  0
  140.6690   71.9060  224.4950 N   0  0  0  0  0  0  0  0  0  0  0  0
  138.7810   74.0460  223.0630 H   0  0  0  0  0  0  0  0  0  0  0  0
  140.7704   75.4458  221.3051 H   0  0  0  0  0  0  0  0  0  0  0  0
  139.2862   74.9818  220.4389 H   0  0  0  0  0  0  0  0  0  0  0  0
  137.5965   78.9834  221.8838 H   0  0  0  0  0  0  0  0  0  0  0  0
  137.9985   78.1191  223.3941 H   0  0  0  0  0  0  0  0  0  0  0  0
  138.9934   80.7718  222.4265 H   0  0  0  0  0  0  0  0  0  0  0  0
  139.1098   80.1039  224.0557 H   0  0  0  0  0  0  0  0  0  0  0  0
  140.3961   79.5084  221.6491 H   0  0  0  0  0  0  0  0  0  0  0  0
  140.9329   80.1341  223.5769 H   0  0  0  0  0  0  0  0  0  0  0  0
  142.5391   79.9858  222.2175 H   0  0  0  0  0  0  0  0  0  0  0  0
  142.3868   78.6831  223.3926 H   0  0  0  0  0  0  0  0  0  0  0  0
  142.4388   78.4547  220.4739 H   0  0  0  0  0  0  0  0  0  0  0  0
  142.1830   77.1174  221.6555 H   0  0  0  0  0  0  0  0  0  0  0  0
  140.1171   78.8921  220.3196 H   0  0  0  0  0  0  0  0  0  0  0  0
  140.3911   77.0194  220.2719 H   0  0  0  0  0  0  0  0  0  0  0  0
  139.2116   70.6534  221.7359 H   0  0  0  0  0  0  0  0  0  0  0  0
  138.8640   68.7219  223.2980 H   0  0  0  0  0  0  0  0  0  0  0  0
  139.1736   67.7845  225.5147 H   0  0  0  0  0  0  0  0  0  0  0  0
  141.1822   70.0435  228.5842 H   0  0  0  0  0  0  0  0  0  0  0  0
  141.4828   71.9082  226.9784 H   0  0  0  0  0  0  0  0  0  0  0  0
  1  2  2  0
  2  3  1  0
  3  4  1  0
  4  5  1  0
  5  6  2  0
  5  7  1  0
  7  8  1  0
  8  9  1  0
  9 10  1  0
 10 11  1  0
 11 12  1  0
 12 13  1  0
  2 14  1  0
 14 15  2  0
 15 16  1  0
 16 17  2  0
 17 18  1  0
 18 19  2  0
 19 20  1  0
 19 21  1  0
 21 22  2  0
 22 23  1  0
 23 24  2  0
 13  7  1  0
 24 14  1  0
 23 17  1  0
  3 25  1  0
  4 26  1  0
  4 27  1  0
  8 28  1  0
  8 29  1  0
  9 30  1  0
  9 31  1  0
 10 32  1  0
 10 33  1  0
 11 34  1  0
 11 35  1  0
 12 36  1  0
 12 37  1  0
 13 38  1  0
 13 39  1  0
 15 40  1  0
 16 41  1  0
 18 42  1  0
 21 43  1  0
 22 44  1  0
M  END
>  <smiles>  (17) 
O=C(NCC(=O)N1CCCCCC1)c1ccc2cc(F)ccc2n1

>  <score_type>  (17) 
oracle

>  <origin>  (17) 
autodockgpu

>  <m_score__min__energy>  (17) 
-5.5700000000000003

>  <m_primary>  (17) 
energy

>  <rmsd>  (17) 
3.2371528313502655

>  <m_score__min__rmsd>  (17) 
3.2371528313502655

>  <meeko>  (17) 
{"free_energy": -4.85, "intermolecular_energy": -7.54, "internal_energy": -1.43, "cluster_size": 16, "cluster_id": 2, "rank_in_cluster": 5}

>  <energy>  (17) 
-4.71

>  <cluster_rmsd>  (17) 
1.64

>  <cluster>  (17) 
2

$$$$

     RDKit          3D

 44 46  0  0  0  0  0  0  0  0999 V2000
  136.9850   68.7970  224.2710 O   0  0  0  0  0  0  0  0  0  0  0  0
  136.7010   69.9970  224.4800 C   0  0  0  0  0  0  0  0  0  0  0  0
  137.6580   70.9840  224.1030 N   0  0  0  0  0  0  0  0  0  0  0  0
  138.9310   70.6040  223.4880 C   0  0  0  0  0  0  0  0  0  0  0  0
  139.9960   71.2340  224.2690 C   0  0  0  0  0  0  0  0  0  0  0  0
  140.3730   72.4040  223.9720 O   0  0  0  0  0  0  0  0  0  0  0  0
  140.6650   70.6200  225.3710 N   0  0  0  0  0  0  0  0  0  0  0  0
  141.7010   71.5350  225.9460 C   0  0  0  0  0  0  0  0  0  0  0  0
  141.3310   71.8090  227.4410 C   0  0  0  0  0  0  0  0  0  0  0  0
  140.5700   70.7020  227.8360 C   0  0  0  0  0  0  0  0  0  0  0  0
  139.7790   69.6100  228.1920 C   0  0  0  0  0  0  0  0  0  0  0  0
  139.2340   69.0630  226.8290 C   0  0  0  0  0  0  0  0  0  0  0  0
  140.2510   69.3210  225.7050 C   0  0  0  0  0  0  0  0  0  0  0  0
  135.4350   70.4090  225.0940 C   0  0  0  0  0  0  0  0  0  0  0  0
  134.5400   69.4390  225.4990 C   0  0  0  0  0  0  0  0  0  0  0  0
  133.3330   69.8050  226.0830 C   0  0  0  0  0  0  0  0  0  0  0  0
  133.0730   71.1620  226.2360 C   0  0  0  0  0  0  0  0  0  0  0  0
  131.8800   71.5770  226.8150 C   0  0  0  0  0  0  0  0  0  0  0  0
  131.6260   72.9220  226.9660 C   0  0  0  0  0  0  0  0  0  0  0  0
  130.4510   73.2990  227.5350 F   0  0  0  0  0  0  0  0  0  0  0  0
  132.5260   73.8830  226.5580 C   0  0  0  0  0  0  0  0  0  0  0  0
  133.7020   73.4590  225.9870 C   0  0  0  0  0  0  0  0  0  0  0  0
  133.9830   72.1230  225.8240 C   0  0  0  0  0  0  0  0  0  0  0  0
  135.1320   71.7180  225.2670 N   0  0  0  0  0  0  0  0  0  0  0  0
  137.3970   71.9770  224.2890 H   0  0  0  0  0  0  0  0  0  0  0  0
  139.0467   69.5103  223.5070 H   0  0  0  0  0  0  0  0  0  0  0  0
  138.9705   70.9326  222.4390 H   0  0  0  0  0  0  0  0  0  0  0  0
  142.6915   71.0601  225.8880 H   0  0  0  0  0  0  0  0  0  0  0  0
  141.7316   72.4787  225.3817 H   0  0  0  0  0  0  0  0  0  0  0  0
  142.2399   71.8920  228.0550 H   0  0  0  0  0  0  0  0  0  0  0  0
  140.7802   72.7533  227.5634 H   0  0  0  0  0  0  0  0  0  0  0  0
  141.4497   70.0485  227.7406 H   0  0  0  0  0  0  0  0  0  0  0  0
  139.9965   71.3415  228.5232 H   0  0  0  0  0  0  0  0  0  0  0  0
  140.3798   68.8453  228.7061 H   0  0  0  0  0  0  0  0  0  0  0  0
  138.9715   69.8857  228.8862 H   0  0  0  0  0  0  0  0  0  0  0  0
  139.0572   67.9809  226.9170 H   0  0  0  0  0  0  0  0  0  0  0  0
  138.2939   69.5801  226.5863 H   0  0  0  0  0  0  0  0  0  0  0  0
  141.1610   68.7663  225.9774 H   0  0  0  0  0  0  0  0  0  0  0  0
  139.6930   69.0142  224.8081 H   0  0  0  0  0  0  0  0  0  0  0  0
  134.7824   68.3752  225.3593 H   0  0  0  0  0  0  0  0  0  0  0  0
  132.6079   69.0465  226.4130 H   0  0  0  0  0  0  0  0  0  0  0  0
  131.1416   70.8343  227.1513 H   0  0  0  0  0  0  0  0  0  0  0  0
  132.3101   74.9541  226.6852 H   0  0  0  0  0  0  0  0  0  0  0  0
  134.4362   74.2066  225.6523 H   0  0  0  0  0  0  0  0  0  0  0  0
  1  2  2  0
  2  3  1  0
  3  4  1  0
  4  5  1  0
  5  6  2  0
  5  7  1  0
  7  8  1  0
  8  9  1  0
  9 10  1  0
 10 11  1  0
 11 12  1  0
 12 13  1  0
  2 14  1  0
 14 15  2  0
 15 16  1  0
 16 17  2  0
 17 18  1  0
 18 19  2  0
 19 20  1  0
 19 21  1  0
 21 22  2  0
 22 23  1  0
 23 24  2  0
 13  7  1  0
 24 14  1  0
 23 17  1  0
  3 25  1  0
  4 26  1  0
  4 27  1  0
  8 28  1  0
  8 29  1  0
  9 30  1  0
  9 31  1  0
 10 32  1  0
 10 33  1  0
 11 34  1  0
 11 35  1  0
 12 36  1  0
 12 37  1  0
 13 38  1  0
 13 39  1  0
 15 40  1  0
 16 41  1  0
 18 42  1  0
 21 43  1  0
 22 44  1  0
M  END
>  <smiles>  (18) 
O=C(NCC(=O)N1CCCCCC1)c1ccc2cc(F)ccc2n1

>  <score_type>  (18) 
oracle

>  <origin>  (18) 
autodockgpu

>  <m_score__min__energy>  (18) 
-5.5700000000000003

>  <m_primary>  (18) 
energy

>  <rmsd>  (18) 
7.8923151740289805

>  <m_score__min__rmsd>  (18) 
7.8923151740289805

>  <meeko>  (18) 
{"free_energy": -3.57, "intermolecular_energy": -6.26, "internal_energy": -1.53, "cluster_size": 9, "cluster_id": 1, "rank_in_cluster": 9}

>  <energy>  (18) 
-4.62

>  <cluster_rmsd>  (18) 
1.7

>  <cluster>  (18) 
2

$$$$

     RDKit          3D

 44 46  0  0  0  0  0  0  0  0999 V2000
  139.5480   74.6830  222.0140 O   0  0  0  0  0  0  0  0  0  0  0  0
  140.7050   74.9890  221.6500 C   0  0  0  0  0  0  0  0  0  0  0  0
  141.0760   76.3650  221.6960 N   0  0  0  0  0  0  0  0  0  0  0  0
  140.1330   77.3850  222.1570 C   0  0  0  0  0  0  0  0  0  0  0  0
  140.3200   78.5630  221.3100 C   0  0  0  0  0  0  0  0  0  0  0  0
  139.4810   78.8100  220.3960 O   0  0  0  0  0  0  0  0  0  0  0  0
  141.4030   79.4860  221.4320 N   0  0  0  0  0  0  0  0  0  0  0  0
  141.2970   80.5750  220.4100 C   0  0  0  0  0  0  0  0  0  0  0  0
  141.5360   81.9420  221.1330 C   0  0  0  0  0  0  0  0  0  0  0  0
  141.7190   81.6130  222.4810 C   0  0  0  0  0  0  0  0  0  0  0  0
  141.8520   81.2970  223.8340 C   0  0  0  0  0  0  0  0  0  0  0  0
  142.1590   79.7590  223.8710 C   0  0  0  0  0  0  0  0  0  0  0  0
  142.3370   79.2170  222.4440 C   0  0  0  0  0  0  0  0  0  0  0  0
  141.6720   73.9900  221.1850 C   0  0  0  0  0  0  0  0  0  0  0  0
  141.2580   72.6840  221.0180 C   0  0  0  0  0  0  0  0  0  0  0  0
  142.1570   71.7190  220.5780 C   0  0  0  0  0  0  0  0  0  0  0  0
  143.4620   72.1200  220.3210 C   0  0  0  0  0  0  0  0  0  0  0  0
  144.3970   71.1910  219.8790 C   0  0  0  0  0  0  0  0  0  0  0  0
  145.6900   71.5920  219.6250 C   0  0  0  0  0  0  0  0  0  0  0  0
  146.5830   70.6630  219.1930 F   0  0  0  0  0  0  0  0  0  0  0  0
  146.0940   72.8990  219.7940 C   0  0  0  0  0  0  0  0  0  0  0  0
  145.1600   73.8080  220.2310 C   0  0  0  0  0  0  0  0  0  0  0  0
  143.8620   73.4360  220.4930 C   0  0  0  0  0  0  0  0  0  0  0  0
  142.9570   74.3280  220.9190 N   0  0  0  0  0  0  0  0  0  0  0  0
  142.0460   76.5930  221.3880 H   0  0  0  0  0  0  0  0  0  0  0  0
  139.1016   77.0140  222.0639 H   0  0  0  0  0  0  0  0  0  0  0  0
  140.3117   77.6322  223.2139 H   0  0  0  0  0  0  0  0  0  0  0  0
  142.0568   80.4284  219.6282 H   0  0  0  0  0  0  0  0  0  0  0  0
  140.3033   80.5609  219.9384 H   0  0  0  0  0  0  0  0  0  0  0  0
  142.4310   82.4400  220.7318 H   0  0  0  0  0  0  0  0  0  0  0  0
  140.6963   82.6377  220.9883 H   0  0  0  0  0  0  0  0  0  0  0  0
  142.0891   80.6161  222.1997 H   0  0  0  0  0  0  0  0  0  0  0  0
  142.0105   82.6519  222.6950 H   0  0  0  0  0  0  0  0  0  0  0  0
  142.6793   81.8661  224.2832 H   0  0  0  0  0  0  0  0  0  0  0  0
  140.9461   81.5485  224.4051 H   0  0  0  0  0  0  0  0  0  0  0  0
  143.0829   79.5869  224.4426 H   0  0  0  0  0  0  0  0  0  0  0  0
  141.3174   79.2372  224.3499 H   0  0  0  0  0  0  0  0  0  0  0  0
  143.3025   79.6027  222.0846 H   0  0  0  0  0  0  0  0  0  0  0  0
  142.2205   78.1328  222.5886 H   0  0  0  0  0  0  0  0  0  0  0  0
  140.2156   72.4063  221.2333 H   0  0  0  0  0  0  0  0  0  0  0  0
  141.8455   70.6734  220.4381 H   0  0  0  0  0  0  0  0  0  0  0  0
  144.1055   70.1404  219.7328 H   0  0  0  0  0  0  0  0  0  0  0  0
  147.1300   73.2046  219.5860 H   0  0  0  0  0  0  0  0  0  0  0  0
  145.4576   74.8572  220.3745 H   0  0  0  0  0  0  0  0  0  0  0  0
  1  2  2  0
  2  3  1  0
  3  4  1  0
  4  5  1  0
  5  6  2  0
  5  7  1  0
  7  8  1  0
  8  9  1  0
  9 10  1  0
 10 11  1  0
 11 12  1  0
 12 13  1  0
  2 14  1  0
 14 15  2  0
 15 16  1  0
 16 17  2  0
 17 18  1  0
 18 19  2  0
 19 20  1  0
 19 21  1  0
 21 22  2  0
 22 23  1  0
 23 24  2  0
 13  7  1  0
 24 14  1  0
 23 17  1  0
  3 25  1  0
  4 26  1  0
  4 27  1  0
  8 28  1  0
  8 29  1  0
  9 30  1  0
  9 31  1  0
 10 32  1  0
 10 33  1  0
 11 34  1  0
 11 35  1  0
 12 36  1  0
 12 37  1  0
 13 38  1  0
 13 39  1  0
 15 40  1  0
 16 41  1  0
 18 42  1  0
 21 43  1  0
 22 44  1  0
M  END
>  <smiles>  (19) 
O=C(NCC(=O)N1CCCCCC1)c1ccc2cc(F)ccc2n1

>  <score_type>  (19) 
oracle

>  <origin>  (19) 
autodockgpu

>  <m_score__min__energy>  (19) 
-5.5700000000000003

>  <m_primary>  (19) 
energy

>  <rmsd>  (19) 
6.750024938378566

>  <m_score__min__rmsd>  (19) 
6.750024938378566

>  <meeko>  (19) 
{"free_energy": -4.26, "intermolecular_energy": -6.95, "internal_energy": -1.21, "cluster_size": 6, "cluster_id": 5, "rank_in_cluster": 2}

>  <energy>  (19) 
-4.58

>  <cluster_rmsd>  (19) 
0.96

>  <cluster>  (19) 
2

$$$$

     RDKit          3D

 44 46  0  0  0  0  0  0  0  0999 V2000
  139.0410   71.0120  221.5100 O   0  0  0  0  0  0  0  0  0  0  0  0
  139.3960   71.4600  222.6220 C   0  0  0  0  0  0  0  0  0  0  0  0
  139.6420   72.8610  222.7280 N   0  0  0  0  0  0  0  0  0  0  0  0
  139.4820   73.7440  221.5710 C   0  0  0  0  0  0  0  0  0  0  0  0
  140.7920   74.3320  221.2900 C   0  0  0  0  0  0  0  0  0  0  0  0
  141.1590   75.3630  221.9240 O   0  0  0  0  0  0  0  0  0  0  0  0
  141.7200   73.8230  220.3320 N   0  0  0  0  0  0  0  0  0  0  0  0
  142.9620   74.6590  220.2910 C   0  0  0  0  0  0  0  0  0  0  0  0
  144.1750   73.7430  220.6620 C   0  0  0  0  0  0  0  0  0  0  0  0
  143.7290   72.4370  220.4310 C   0  0  0  0  0  0  0  0  0  0  0  0
  143.2840   71.1440  220.1500 C   0  0  0  0  0  0  0  0  0  0  0  0
  141.7200   71.2670  220.0810 C   0  0  0  0  0  0  0  0  0  0  0  0
  141.3190   72.6790  219.6250 C   0  0  0  0  0  0  0  0  0  0  0  0
  139.5630   70.6020  223.7990 C   0  0  0  0  0  0  0  0  0  0  0  0
  139.1370   69.2910  223.7360 C   0  0  0  0  0  0  0  0  0  0  0  0
  139.2850   68.4560  224.8390 C   0  0  0  0  0  0  0  0  0  0  0  0
  139.8680   68.9920  225.9810 C   0  0  0  0  0  0  0  0  0  0  0  0
  140.0380   68.1980  227.1090 C   0  0  0  0  0  0  0  0  0  0  0  0
  140.6160   68.7310  228.2390 C   0  0  0  0  0  0  0  0  0  0  0  0
  140.7700   67.9320  229.3270 F   0  0  0  0  0  0  0  0  0  0  0  0
  141.0390   70.0420  228.2910 C   0  0  0  0  0  0  0  0  0  0  0  0
  140.8650   70.8170  227.1700 C   0  0  0  0  0  0  0  0  0  0  0  0
  140.2910   70.3110  226.0270 C   0  0  0  0  0  0  0  0  0  0  0  0
  140.1260   71.0730  224.9370 N   0  0  0  0  0  0  0  0  0  0  0  0
  139.9360   73.2090  223.6660 H   0  0  0  0  0  0  0  0  0  0  0  0
  139.1339   73.1667  220.7018 H   0  0  0  0  0  0  0  0  0  0  0  0
  138.7388   74.5280  221.7784 H   0  0  0  0  0  0  0  0  0  0  0  0
  143.1011   75.0713  219.2807 H   0  0  0  0  0  0  0  0  0  0  0  0
  142.8833   75.4947  221.0019 H   0  0  0  0  0  0  0  0  0  0  0  0
  145.0419   73.9734  220.0253 H   0  0  0  0  0  0  0  0  0  0  0  0
  144.4995   73.8899  221.7027 H   0  0  0  0  0  0  0  0  0  0  0  0
  144.5808   72.0333  220.9980 H   0  0  0  0  0  0  0  0  0  0  0  0
  142.6864   72.7809  220.4997 H   0  0  0  0  0  0  0  0  0  0  0  0
  143.6885   70.7949  219.1885 H   0  0  0  0  0  0  0  0  0  0  0  0
  143.6113   70.4172  220.9081 H   0  0  0  0  0  0  0  0  0  0  0  0
  141.3286   70.5290  219.3653 H   0  0  0  0  0  0  0  0  0  0  0  0
  141.3004   71.0795  221.0804 H   0  0  0  0  0  0  0  0  0  0  0  0
  141.7064   72.7956  218.6021 H   0  0  0  0  0  0  0  0  0  0  0  0
  140.2302   72.6759  219.7818 H   0  0  0  0  0  0  0  0  0  0  0  0
  138.6799   68.9057  222.8127 H   0  0  0  0  0  0  0  0  0  0  0  0
  138.9521   67.4080  224.8082 H   0  0  0  0  0  0  0  0  0  0  0  0
  139.7119   67.1475  227.0988 H   0  0  0  0  0  0  0  0  0  0  0  0
  141.5008   70.4541  229.2003 H   0  0  0  0  0  0  0  0  0  0  0  0
  141.1925   71.8670  227.1869 H   0  0  0  0  0  0  0  0  0  0  0  0
  1  2  2  0
  2  3  1  0
  3  4  1  0
  4  5  1  0
  5  6  2  0
  5  7  1  0
  7  8  1  0
  8  9  1  0
  9 10  1  0
 10 11  1  0
 11 12  1  0
 12 13  1  0
  2 14  1  0
 14 15  2  0
 15 16  1  0
 16 17  2  0
 17 18  1  0
 18 19  2  0
 19 20  1  0
 19 21  1  0
 21 22  2  0
 22 23  1  0
 23 24  2  0
 13  7  1  0
 24 14  1  0
 23 17  1  0
  3 25  1  0
  4 26  1  0
  4 27  1  0
  8 28  1  0
  8 29  1  0
  9 30  1  0
  9 31  1  0
 10 32  1  0
 10 33  1  0
 11 34  1  0
 11 35  1  0
 12 36  1  0
 12 37  1  0
 13 38  1  0
 13 39  1  0
 15 40  1  0
 16 41  1  0
 18 42  1  0
 21 43  1  0
 22 44  1  0
M  END
>  <smiles>  (20) 
O=C(NCC(=O)N1CCCCCC1)c1ccc2cc(F)ccc2n1

>  <score_type>  (20) 
oracle

>  <origin>  (20) 
autodockgpu

>  <m_score__min__energy>  (20) 
-5.5700000000000003

>  <m_primary>  (20) 
energy

>  <rmsd>  (20) 
2.676474105140593

>  <m_score__min__rmsd>  (20) 
2.676474105140593

>  <meeko>  (20) 
{"free_energy": -4.03, "intermolecular_energy": -6.71, "internal_energy": -1.54, "cluster_size": 5, "cluster_id": 4, "rank_in_cluster": 2}

>  <energy>  (20) 
-4.48

>  <cluster_rmsd>  (20) 
1.71

>  <cluster>  (20) 
2

$$$$

     RDKit          3D

 44 46  0  0  0  0  0  0  0  0999 V2000
  137.5390   71.1960  222.7060 O   0  0  0  0  0  0  0  0  0  0  0  0
  137.0020   70.9490  223.8080 C   0  0  0  0  0  0  0  0  0  0  0  0
  137.5010   69.8460  224.5600 N   0  0  0  0  0  0  0  0  0  0  0  0
  138.6080   69.0290  224.0580 C   0  0  0  0  0  0  0  0  0  0  0  0
  139.2640   68.4270  225.2180 C   0  0  0  0  0  0  0  0  0  0  0  0
  138.8200   67.3400  225.6870 O   0  0  0  0  0  0  0  0  0  0  0  0
  140.4000   68.9800  225.8850 N   0  0  0  0  0  0  0  0  0  0  0  0
  140.8200   68.1170  227.0330 C   0  0  0  0  0  0  0  0  0  0  0  0
  140.6910   68.9590  228.3450 C   0  0  0  0  0  0  0  0  0  0  0  0
  140.7840   70.2930  227.9320 C   0  0  0  0  0  0  0  0  0  0  0  0
  140.9090   71.6080  227.4830 C   0  0  0  0  0  0  0  0  0  0  0  0
  140.5040   71.5450  225.9710 C   0  0  0  0  0  0  0  0  0  0  0  0
  140.8970   70.1870  225.3680 C   0  0  0  0  0  0  0  0  0  0  0  0
  135.8940   71.7490  224.3380 C   0  0  0  0  0  0  0  0  0  0  0  0
  135.7140   73.0360  223.8720 C   0  0  0  0  0  0  0  0  0  0  0  0
  134.6700   73.8140  224.3600 C   0  0  0  0  0  0  0  0  0  0  0  0
  133.8340   73.2490  225.3150 C   0  0  0  0  0  0  0  0  0  0  0  0
  132.7760   73.9870  225.8330 C   0  0  0  0  0  0  0  0  0  0  0  0
  131.9490   73.4250  226.7790 C   0  0  0  0  0  0  0  0  0  0  0  0
  130.9230   74.1690  227.2680 F   0  0  0  0  0  0  0  0  0  0  0  0
  132.1370   72.1380  227.2370 C   0  0  0  0  0  0  0  0  0  0  0  0
  133.1860   71.4180  226.7180 C   0  0  0  0  0  0  0  0  0  0  0  0
  134.0280   71.9550  225.7710 C   0  0  0  0  0  0  0  0  0  0  0  0
  135.0490   71.2460  225.2700 N   0  0  0  0  0  0  0  0  0  0  0  0
  137.0350   69.6620  225.4760 H   0  0  0  0  0  0  0  0  0  0  0  0
  138.2236   68.2422  223.3923 H   0  0  0  0  0  0  0  0  0  0  0  0
  139.3174   69.6438  223.4845 H   0  0  0  0  0  0  0  0  0  0  0  0
  140.1693   67.2321  227.0921 H   0  0  0  0  0  0  0  0  0  0  0  0
  141.8580   67.7794  226.8968 H   0  0  0  0  0  0  0  0  0  0  0  0
  139.7219   68.7716  228.8305 H   0  0  0  0  0  0  0  0  0  0  0  0
  141.4676   68.6996  229.0796 H   0  0  0  0  0  0  0  0  0  0  0  0
  139.6896   70.3525  227.8381 H   0  0  0  0  0  0  0  0  0  0  0  0
  141.6368   70.4435  228.6103 H   0  0  0  0  0  0  0  0  0  0  0  0
  140.2337   72.2748  228.0392 H   0  0  0  0  0  0  0  0  0  0  0  0
  141.9243   72.0054  227.6284 H   0  0  0  0  0  0  0  0  0  0  0  0
  139.4161   71.6804  225.8811 H   0  0  0  0  0  0  0  0  0  0  0  0
  141.0301   72.3431  225.4268 H   0  0  0  0  0  0  0  0  0  0  0  0
  140.5950   70.2186  224.3107 H   0  0  0  0  0  0  0  0  0  0  0  0
  141.9679   70.1233  225.6109 H   0  0  0  0  0  0  0  0  0  0  0  0
  136.3972   73.4464  223.1138 H   0  0  0  0  0  0  0  0  0  0  0  0
  134.5114   74.8420  224.0021 H   0  0  0  0  0  0  0  0  0  0  0  0
  132.6003   75.0166  225.4881 H   0  0  0  0  0  0  0  0  0  0  0  0
  131.4685   71.7016  227.9937 H   0  0  0  0  0  0  0  0  0  0  0  0
  133.3567   70.3890  227.0674 H   0  0  0  0  0  0  0  0  0  0  0  0
  1  2  2  0
  2  3  1  0
  3  4  1  0
  4  5  1  0
  5  6  2  0
  5  7  1  0
  7  8  1  0
  8  9  1  0
  9 10  1  0
 10 11  1  0
 11 12  1  0
 12 13  1  0
  2 14  1  0
 14 15  2  0
 15 16  1  0
 16 17  2  0
 17 18  1  0
 18 19  2  0
 19 20  1  0
 19 21  1  0
 21 22  2  0
 22 23  1  0
 23 24  2  0
 13  7  1  0
 24 14  1  0
 23 17  1  0
  3 25  1  0
  4 26  1  0
  4 27  1  0
  8 28  1  0
  8 29  1  0
  9 30  1  0
  9 31  1  0
 10 32  1  0
 10 33  1  0
 11 34  1  0
 11 35  1  0
 12 36  1  0
 12 37  1  0
 13 38  1  0
 13 39  1  0
 15 40  1  0
 16 41  1  0
 18 42  1  0
 21 43  1  0
 22 44  1  0
M  END
>  <smiles>  (21) 
O=C(NCC(=O)N1CCCCCC1)c1ccc2cc(F)ccc2n1

>  <score_type>  (21) 
oracle

>  <origin>  (21) 
autodockgpu

>  <m_score__min__energy>  (21) 
-5.5700000000000003

>  <m_primary>  (21) 
energy

>  <rmsd>  (21) 
8.527364273105373

>  <m_score__min__rmsd>  (21) 
8.527364273105373

>  <meeko>  (21) 
{"free_energy": -4.19, "intermolecular_energy": -6.88, "internal_energy": -1.36, "cluster_size": 9, "cluster_id": 1, "rank_in_cluster": 8}

>  <energy>  (21) 
-4.42

>  <cluster_rmsd>  (21) 
1.77

>  <cluster>  (21) 
2

$$$$

     RDKit          3D

 44 46  0  0  0  0  0  0  0  0999 V2000
  140.9380   71.2140  221.5840 O   0  0  0  0  0  0  0  0  0  0  0  0
  140.6610   72.3020  222.1350 C   0  0  0  0  0  0  0  0  0  0  0  0
  139.9510   72.2600  223.3720 N   0  0  0  0  0  0  0  0  0  0  0  0
  139.5620   70.9840  223.9750 C   0  0  0  0  0  0  0  0  0  0  0  0
  139.8320   71.0820  225.4100 C   0  0  0  0  0  0  0  0  0  0  0  0
  140.3920   72.1210  225.8660 O   0  0  0  0  0  0  0  0  0  0  0  0
  139.5040   70.0750  226.3670 N   0  0  0  0  0  0  0  0  0  0  0  0
  139.9170   70.4900  227.7450 C   0  0  0  0  0  0  0  0  0  0  0  0
  140.3240   69.2040  228.5380 C   0  0  0  0  0  0  0  0  0  0  0  0
  140.4990   68.2160  227.5620 C   0  0  0  0  0  0  0  0  0  0  0  0
  140.6890   67.2670  226.5560 C   0  0  0  0  0  0  0  0  0  0  0  0
  139.6950   67.6950  225.4220 C   0  0  0  0  0  0  0  0  0  0  0  0
  138.8820   68.9210  225.8670 C   0  0  0  0  0  0  0  0  0  0  0  0
  141.0370   73.5950  221.5570 C   0  0  0  0  0  0  0  0  0  0  0  0
  141.8070   73.6170  220.4110 C   0  0  0  0  0  0  0  0  0  0  0  0
  142.1770   74.8310  219.8430 C   0  0  0  0  0  0  0  0  0  0  0  0
  141.7450   75.9950  220.4680 C   0  0  0  0  0  0  0  0  0  0  0  0
  142.0900   77.2330  219.9380 C   0  0  0  0  0  0  0  0  0  0  0  0
  141.6600   78.3850  220.5590 C   0  0  0  0  0  0  0  0  0  0  0  0
  142.0110   79.5810  220.0190 F   0  0  0  0  0  0  0  0  0  0  0  0
  140.8900   78.3520  221.7020 C   0  0  0  0  0  0  0  0  0  0  0  0
  140.5570   77.1220  222.2160 C   0  0  0  0  0  0  0  0  0  0  0  0
  140.9720   75.9550  221.6170 C   0  0  0  0  0  0  0  0  0  0  0  0
  140.6430   74.7600  222.1250 N   0  0  0  0  0  0  0  0  0  0  0  0
  139.7330   73.1810  223.8110 H   0  0  0  0  0  0  0  0  0  0  0  0
  138.4912   70.7980  223.8050 H   0  0  0  0  0  0  0  0  0  0  0  0
  140.1271   70.1529  223.5277 H   0  0  0  0  0  0  0  0  0  0  0  0
  140.7729   71.1784  227.6863 H   0  0  0  0  0  0  0  0  0  0  0  0
  139.0879   71.0046  228.2528 H   0  0  0  0  0  0  0  0  0  0  0  0
  141.2601   69.3710  229.0911 H   0  0  0  0  0  0  0  0  0  0  0  0
  139.5649   68.9199  229.2817 H   0  0  0  0  0  0  0  0  0  0  0  0
  141.1550   67.6479  228.2380 H   0  0  0  0  0  0  0  0  0  0  0  0
  139.4604   68.3603  227.2297 H   0  0  0  0  0  0  0  0  0  0  0  0
  141.7268   67.2882  226.1921 H   0  0  0  0  0  0  0  0  0  0  0  0
  140.5061   66.2410  226.9081 H   0  0  0  0  0  0  0  0  0  0  0  0
  140.2643   67.9458  224.5148 H   0  0  0  0  0  0  0  0  0  0  0  0
  139.0065   66.8628  225.2138 H   0  0  0  0  0  0  0  0  0  0  0  0
  138.2973   69.2392  224.9913 H   0  0  0  0  0  0  0  0  0  0  0  0
  138.3482   68.5406  226.7504 H   0  0  0  0  0  0  0  0  0  0  0  0
  142.1281   72.6729  219.9468 H   0  0  0  0  0  0  0  0  0  0  0  0
  142.7903   74.8690  218.9307 H   0  0  0  0  0  0  0  0  0  0  0  0
  142.7035   77.2924  219.0269 H   0  0  0  0  0  0  0  0  0  0  0  0
  140.5531   79.2802  222.1868 H   0  0  0  0  0  0  0  0  0  0  0  0
  139.9442   77.0691  223.1279 H   0  0  0  0  0  0  0  0  0  0  0  0
  1  2  2  0
  2  3  1  0
  3  4  1  0
  4  5  1  0
  5  6  2  0
  5  7  1  0
  7  8  1  0
  8  9  1  0
  9 10  1  0
 10 11  1  0
 11 12  1  0
 12 13  1  0
  2 14  1  0
 14 15  2  0
 15 16  1  0
 16 17  2  0
 17 18  1  0
 18 19  2  0
 19 20  1  0
 19 21  1  0
 21 22  2  0
 22 23  1  0
 23 24  2  0
 13  7  1  0
 24 14  1  0
 23 17  1  0
  3 25  1  0
  4 26  1  0
  4 27  1  0
  8 28  1  0
  8 29  1  0
  9 30  1  0
  9 31  1  0
 10 32  1  0
 10 33  1  0
 11 34  1  0
 11 35  1  0
 12 36  1  0
 12 37  1  0
 13 38  1  0
 13 39  1  0
 15 40  1  0
 16 41  1  0
 18 42  1  0
 21 43  1  0
 22 44  1  0
M  END
>  <smiles>  (22) 
O=C(NCC(=O)N1CCCCCC1)c1ccc2cc(F)ccc2n1

>  <score_type>  (22) 
oracle

>  <origin>  (22) 
autodockgpu

>  <m_score__min__energy>  (22) 
-5.5700000000000003

>  <m_primary>  (22) 
energy

>  <rmsd>  (22) 
8.916770379082173

>  <m_score__min__rmsd>  (22) 
8.916770379082173

>  <meeko>  (22) 
{"free_energy": -3.95, "intermolecular_energy": -6.64, "internal_energy": -1.53, "cluster_size": 2, "cluster_id": 8, "rank_in_cluster": 2}

>  <energy>  (22) 
-4.35

>  <cluster_rmsd>  (22) 
1.34

>  <cluster>  (22) 
2

$$$$

     RDKit          3D

 44 46  0  0  0  0  0  0  0  0999 V2000
  140.7030   71.5830  221.1670 O   0  0  0  0  0  0  0  0  0  0  0  0
  140.2840   72.0370  222.2540 C   0  0  0  0  0  0  0  0  0  0  0  0
  139.9380   73.4190  222.3100 N   0  0  0  0  0  0  0  0  0  0  0  0
  140.0690   74.2780  221.1320 C   0  0  0  0  0  0  0  0  0  0  0  0
  140.1930   75.6550  221.6100 C   0  0  0  0  0  0  0  0  0  0  0  0
  139.7090   75.9660  222.7360 O   0  0  0  0  0  0  0  0  0  0  0  0
  140.8360   76.7080  220.8910 N   0  0  0  0  0  0  0  0  0  0  0  0
  140.7850   77.9910  221.6610 C   0  0  0  0  0  0  0  0  0  0  0  0
  139.9830   79.0340  220.8140 C   0  0  0  0  0  0  0  0  0  0  0  0
  140.1300   78.6140  219.4860 C   0  0  0  0  0  0  0  0  0  0  0  0
  140.2870   78.1490  218.1810 C   0  0  0  0  0  0  0  0  0  0  0  0
  140.6070   76.6220  218.3350 C   0  0  0  0  0  0  0  0  0  0  0  0
  141.3760   76.3690  219.6410 C   0  0  0  0  0  0  0  0  0  0  0  0
  140.1400   71.2030  223.4500 C   0  0  0  0  0  0  0  0  0  0  0  0
  139.5270   69.9710  223.3380 C   0  0  0  0  0  0  0  0  0  0  0  0
  139.3790   69.1610  224.4590 C   0  0  0  0  0  0  0  0  0  0  0  0
  139.8660   69.6380  225.6700 C   0  0  0  0  0  0  0  0  0  0  0  0
  139.7410   68.8650  226.8180 C   0  0  0  0  0  0  0  0  0  0  0  0
  140.2250   69.3410  228.0170 C   0  0  0  0  0  0  0  0  0  0  0  0
  140.0900   68.5630  229.1240 F   0  0  0  0  0  0  0  0  0  0  0  0
  140.8360   70.5720  228.1180 C   0  0  0  0  0  0  0  0  0  0  0  0
  140.9530   71.3260  226.9760 C   0  0  0  0  0  0  0  0  0  0  0  0
  140.4790   70.8770  225.7650 C   0  0  0  0  0  0  0  0  0  0  0  0
  140.5970   71.6190  224.6560 N   0  0  0  0  0  0  0  0  0  0  0  0
  139.5900   73.7720  223.2280 H   0  0  0  0  0  0  0  0  0  0  0  0
  140.9644   73.9965  220.5584 H   0  0  0  0  0  0  0  0  0  0  0  0
  139.1947   74.1715  220.4730 H   0  0  0  0  0  0  0  0  0  0  0  0
  140.2816   77.8275  222.6253 H   0  0  0  0  0  0  0  0  0  0  0  0
  141.8029   78.3597  221.8556 H   0  0  0  0  0  0  0  0  0  0  0  0
  138.9220   79.0336  221.1042 H   0  0  0  0  0  0  0  0  0  0  0  0
  140.3511   80.0594  220.9657 H   0  0  0  0  0  0  0  0  0  0  0  0
  139.1244   78.9885  219.2440 H   0  0  0  0  0  0  0  0  0  0  0  0
  141.1990   78.8705  219.5232 H   0  0  0  0  0  0  0  0  0  0  0  0
  139.3619   78.2947  217.6039 H   0  0  0  0  0  0  0  0  0  0  0  0
  141.0805   78.6869  217.6415 H   0  0  0  0  0  0  0  0  0  0  0  0
  139.6654   76.0536  218.3520 H   0  0  0  0  0  0  0  0  0  0  0  0
  141.2265   76.2981  217.4857 H   0  0  0  0  0  0  0  0  0  0  0  0
  141.5813   75.2889  219.6751 H   0  0  0  0  0  0  0  0  0  0  0  0
  142.2223   77.0663  219.5540 H   0  0  0  0  0  0  0  0  0  0  0  0
  139.1551   69.6295  222.3607 H   0  0  0  0  0  0  0  0  0  0  0  0
  138.8931   68.1766  224.3894 H   0  0  0  0  0  0  0  0  0  0  0  0
  139.2580   67.8779  226.7697 H   0  0  0  0  0  0  0  0  0  0  0  0
  141.2177   70.9390  229.0822 H   0  0  0  0  0  0  0  0  0  0  0  0
  141.4371   72.3122  227.0309 H   0  0  0  0  0  0  0  0  0  0  0  0
  1  2  2  0
  2  3  1  0
  3  4  1  0
  4  5  1  0
  5  6  2  0
  5  7  1  0
  7  8  1  0
  8  9  1  0
  9 10  1  0
 10 11  1  0
 11 12  1  0
 12 13  1  0
  2 14  1  0
 14 15  2  0
 15 16  1  0
 16 17  2  0
 17 18  1  0
 18 19  2  0
 19 20  1  0
 19 21  1  0
 21 22  2  0
 22 23  1  0
 23 24  2  0
 13  7  1  0
 24 14  1  0
 23 17  1  0
  3 25  1  0
  4 26  1  0
  4 27  1  0
  8 28  1  0
  8 29  1  0
  9 30  1  0
  9 31  1  0
 10 32  1  0
 10 33  1  0
 11 34  1  0
 11 35  1  0
 12 36  1  0
 12 37  1  0
 13 38  1  0
 13 39  1  0
 15 40  1  0
 16 41  1  0
 18 42  1  0
 21 43  1  0
 22 44  1  0
M  END
>  <smiles>  (23) 
O=C(NCC(=O)N1CCCCCC1)c1ccc2cc(F)ccc2n1

>  <score_type>  (23) 
oracle

>  <origin>  (23) 
autodockgpu

>  <m_score__min__energy>  (23) 
-5.5700000000000003

>  <m_primary>  (23) 
energy

>  <rmsd>  (23) 
1.9744440978040538

>  <m_score__min__rmsd>  (23) 
1.9744440978040538

>  <meeko>  (23) 
{"free_energy": -4.48, "intermolecular_energy": -7.16, "internal_energy": -1.49, "cluster_size": 16, "cluster_id": 2, "rank_in_cluster": 11}

>  <energy>  (23) 
-4.0

>  <cluster_rmsd>  (23) 
1.68

>  <cluster>  (23) 
2

$$$$

     RDKit          3D

 44 46  0  0  0  0  0  0  0  0999 V2000
  138.6680   71.6680  222.4650 O   0  0  0  0  0  0  0  0  0  0  0  0
  139.7970   71.7820  222.9890 C   0  0  0  0  0  0  0  0  0  0  0  0
  140.7840   72.5360  222.2880 N   0  0  0  0  0  0  0  0  0  0  0  0
  140.4820   73.1560  220.9960 C   0  0  0  0  0  0  0  0  0  0  0  0
  141.7310   73.7210  220.4840 C   0  0  0  0  0  0  0  0  0  0  0  0
  142.8080   73.5170  221.1140 O   0  0  0  0  0  0  0  0  0  0  0  0
  141.8380   74.5050  219.2950 N   0  0  0  0  0  0  0  0  0  0  0  0
  143.2550   74.9270  219.0580 C   0  0  0  0  0  0  0  0  0  0  0  0
  143.3070   76.4900  219.0930 C   0  0  0  0  0  0  0  0  0  0  0  0
  142.0070   76.9050  218.7800 C   0  0  0  0  0  0  0  0  0  0  0  0
  140.7060   77.2760  218.4400 C   0  0  0  0  0  0  0  0  0  0  0  0
  139.8290   76.0220  218.7860 C   0  0  0  0  0  0  0  0  0  0  0  0
  140.6460   74.7340  218.5920 C   0  0  0  0  0  0  0  0  0  0  0  0
  140.1300   71.1740  224.2800 C   0  0  0  0  0  0  0  0  0  0  0  0
  140.7560   71.9430  225.2410 C   0  0  0  0  0  0  0  0  0  0  0  0
  141.0820   71.3880  226.4740 C   0  0  0  0  0  0  0  0  0  0  0  0
  140.7560   70.0540  226.6890 C   0  0  0  0  0  0  0  0  0  0  0  0
  141.0620   69.4560  227.9060 C   0  0  0  0  0  0  0  0  0  0  0  0
  140.7380   68.1340  228.1170 C   0  0  0  0  0  0  0  0  0  0  0  0
  141.0480   67.5740  229.3160 F   0  0  0  0  0  0  0  0  0  0  0  0
  140.1130   67.3750  227.1510 C   0  0  0  0  0  0  0  0  0  0  0  0
  139.8170   67.9780  225.9520 C   0  0  0  0  0  0  0  0  0  0  0  0
  140.1280   69.2970  225.7140 C   0  0  0  0  0  0  0  0  0  0  0  0
  139.8350   69.8780  224.5430 N   0  0  0  0  0  0  0  0  0  0  0  0
  141.7180   72.6160  222.7460 H   0  0  0  0  0  0  0  0  0  0  0  0
  140.0958   72.4001  220.2964 H   0  0  0  0  0  0  0  0  0  0  0  0
  139.7168   73.9383  221.1079 H   0  0  0  0  0  0  0  0  0  0  0  0
  143.9038   74.5143  219.8446 H   0  0  0  0  0  0  0  0  0  0  0  0
  143.6064   74.5550  218.0843 H   0  0  0  0  0  0  0  0  0  0  0  0
  143.5952   76.8445  220.0936 H   0  0  0  0  0  0  0  0  0  0  0  0
  144.0494   76.8937  218.3888 H   0  0  0  0  0  0  0  0  0  0  0  0
  141.7660   76.9960  219.8494 H   0  0  0  0  0  0  0  0  0  0  0  0
  142.3897   77.4379  217.8971 H   0  0  0  0  0  0  0  0  0  0  0  0
  140.3851   78.1479  219.0290 H   0  0  0  0  0  0  0  0  0  0  0  0
  140.6193   77.5645  217.3821 H   0  0  0  0  0  0  0  0  0  0  0  0
  139.4974   76.0879  219.8327 H   0  0  0  0  0  0  0  0  0  0  0  0
  138.9563   75.9982  218.1168 H   0  0  0  0  0  0  0  0  0  0  0  0
  139.9737   73.9003  218.8429 H   0  0  0  0  0  0  0  0  0  0  0  0
  141.0007   74.8351  217.5557 H   0  0  0  0  0  0  0  0  0  0  0  0
  140.9971   72.9956  225.0312 H   0  0  0  0  0  0  0  0  0  0  0  0
  141.5807   71.9843  227.2523 H   0  0  0  0  0  0  0  0  0  0  0  0
  141.5605   70.0358  228.6968 H   0  0  0  0  0  0  0  0  0  0  0  0
  139.8593   66.3204  227.3339 H   0  0  0  0  0  0  0  0  0  0  0  0
  139.3200   67.3926  225.1644 H   0  0  0  0  0  0  0  0  0  0  0  0
  1  2  2  0
  2  3  1  0
  3  4  1  0
  4  5  1  0
  5  6  2  0
  5  7  1  0
  7  8  1  0
  8  9  1  0
  9 10  1  0
 10 11  1  0
 11 12  1  0
 12 13  1  0
  2 14  1  0
 14 15  2  0
 15 16  1  0
 16 17  2  0
 17 18  1  0
 18 19  2  0
 19 20  1  0
 19 21  1  0
 21 22  2  0
 22 23  1  0
 23 24  2  0
 13  7  1  0
 24 14  1  0
 23 17  1  0
  3 25  1  0
  4 26  1  0
  4 27  1  0
  8 28  1  0
  8 29  1  0
  9 30  1  0
  9 31  1  0
 10 32  1  0
 10 33  1  0
 11 34  1  0
 11 35  1  0
 12 36  1  0
 12 37  1  0
 13 38  1  0
 13 39  1  0
 15 40  1  0
 16 41  1  0
 18 42  1  0
 21 43  1  0
 22 44  1  0
M  END
>  <smiles>  (24) 
O=C(NCC(=O)N1CCCCCC1)c1ccc2cc(F)ccc2n1

>  <score_type>  (24) 
oracle

>  <origin>  (24) 
autodockgpu

>  <m_score__min__energy>  (24) 
-5.5700000000000003

>  <m_primary>  (24) 
energy

>  <rmsd>  (24) 
2.9825787631923735

>  <m_score__min__rmsd>  (24) 
2.9825787631923735

>  <meeko>  (24) 
{"free_energy": -3.61, "intermolecular_energy": -6.29, "internal_energy": -1.43, "cluster_size": 2, "cluster_id": 10, "rank_in_cluster": 2}

>  <energy>  (24) 
-3.88

>  <cluster_rmsd>  (24) 
1.67

>  <cluster>  (24) 
2

$$$$

     RDKit          3D

 44 46  0  0  0  0  0  0  0  0999 V2000
  141.2910   72.7070  221.9640 O   0  0  0  0  0  0  0  0  0  0  0  0
  140.2580   72.5810  222.6570 C   0  0  0  0  0  0  0  0  0  0  0  0
  139.1540   73.4360  222.3680 N   0  0  0  0  0  0  0  0  0  0  0  0
  139.2280   74.4270  221.2930 C   0  0  0  0  0  0  0  0  0  0  0  0
  139.6330   75.6950  221.9000 C   0  0  0  0  0  0  0  0  0  0  0  0
  138.8240   76.3080  222.6550 O   0  0  0  0  0  0  0  0  0  0  0  0
  140.9040   76.3180  221.7070 N   0  0  0  0  0  0  0  0  0  0  0  0
  140.9920   77.6040  222.4680 C   0  0  0  0  0  0  0  0  0  0  0  0
  141.2960   78.7500  221.4480 C   0  0  0  0  0  0  0  0  0  0  0  0
  141.8060   78.1040  220.3160 C   0  0  0  0  0  0  0  0  0  0  0  0
  142.2700   77.4670  219.1640 C   0  0  0  0  0  0  0  0  0  0  0  0
  141.9030   75.9560  219.3690 C   0  0  0  0  0  0  0  0  0  0  0  0
  141.8060   75.6420  220.8710 C   0  0  0  0  0  0  0  0  0  0  0  0
  140.1520   71.5980  223.7390 C   0  0  0  0  0  0  0  0  0  0  0  0
  139.5750   70.3720  223.4740 C   0  0  0  0  0  0  0  0  0  0  0  0
  139.4630   69.4220  224.4840 C   0  0  0  0  0  0  0  0  0  0  0  0
  139.9480   69.7570  225.7430 C   0  0  0  0  0  0  0  0  0  0  0  0
  139.8590   68.8400  226.7840 C   0  0  0  0  0  0  0  0  0  0  0  0
  140.3400   69.1750  228.0300 C   0  0  0  0  0  0  0  0  0  0  0  0
  140.2400   68.2600  229.0300 F   0  0  0  0  0  0  0  0  0  0  0  0
  140.9160   70.4010  228.2840 C   0  0  0  0  0  0  0  0  0  0  0  0
  140.9970   71.2980  227.2460 C   0  0  0  0  0  0  0  0  0  0  0  0
  140.5250   70.9920  225.9910 C   0  0  0  0  0  0  0  0  0  0  0  0
  140.6090   71.8720  224.9840 N   0  0  0  0  0  0  0  0  0  0  0  0
  138.3040   73.3100  222.9610 H   0  0  0  0  0  0  0  0  0  0  0  0
  139.9694   74.1146  220.5429 H   0  0  0  0  0  0  0  0  0  0  0  0
  138.2559   74.5288  220.7884 H   0  0  0  0  0  0  0  0  0  0  0  0
  140.0377   77.8018  222.9781 H   0  0  0  0  0  0  0  0  0  0  0  0
  141.7876   77.5459  223.2254 H   0  0  0  0  0  0  0  0  0  0  0  0
  140.3760   79.2987  221.1980 H   0  0  0  0  0  0  0  0  0  0  0  0
  142.0029   79.4878  221.8553 H   0  0  0  0  0  0  0  0  0  0  0  0
  142.6566   78.8009  220.2873 H   0  0  0  0  0  0  0  0  0  0  0  0
  141.4479   77.1394  220.7051 H   0  0  0  0  0  0  0  0  0  0  0  0
  141.7707   77.8696  218.2703 H   0  0  0  0  0  0  0  0  0  0  0  0
  143.3492   77.6162  219.0121 H   0  0  0  0  0  0  0  0  0  0  0  0
  140.9355   75.7470  218.8891 H   0  0  0  0  0  0  0  0  0  0  0  0
  142.6848   75.3281  218.9167 H   0  0  0  0  0  0  0  0  0  0  0  0
  141.5588   74.5730  220.9487 H   0  0  0  0  0  0  0  0  0  0  0  0
  142.7800   75.9882  221.2471 H   0  0  0  0  0  0  0  0  0  0  0  0
  139.2036   70.1463  222.4635 H   0  0  0  0  0  0  0  0  0  0  0  0
  139.0064   68.4396  224.2930 H   0  0  0  0  0  0  0  0  0  0  0  0
  139.4067   67.8519  226.6133 H   0  0  0  0  0  0  0  0  0  0  0  0
  141.2982   70.6531  229.2842 H   0  0  0  0  0  0  0  0  0  0  0  0
  141.4503   72.2845  227.4232 H   0  0  0  0  0  0  0  0  0  0  0  0
  1  2  2  0
  2  3  1  0
  3  4  1  0
  4  5  1  0
  5  6  2  0
  5  7  1  0
  7  8  1  0
  8  9  1  0
  9 10  1  0
 10 11  1  0
 11 12  1  0
 12 13  1  0
  2 14  1  0
 14 15  2  0
 15 16  1  0
 16 17  2  0
 17 18  1  0
 18 19  2  0
 19 20  1  0
 19 21  1  0
 21 22  2  0
 22 23  1  0
 23 24  2  0
 13  7  1  0
 24 14  1  0
 23 17  1  0
  3 25  1  0
  4 26  1  0
  4 27  1  0
  8 28  1  0
  8 29  1  0
  9 30  1  0
  9 31  1  0
 10 32  1  0
 10 33  1  0
 11 34  1  0
 11 35  1  0
 12 36  1  0
 12 37  1  0
 13 38  1  0
 13 39  1  0
 15 40  1  0
 16 41  1  0
 18 42  1  0
 21 43  1  0
 22 44  1  0
M  END
>  <smiles>  (25) 
O=C(NCC(=O)N1CCCCCC1)c1ccc2cc(F)ccc2n1

>  <score_type>  (25) 
oracle

>  <origin>  (25) 
autodockgpu

>  <m_score__min__energy>  (25) 
-5.5700000000000003

>  <m_primary>  (25) 
energy

>  <rmsd>  (25) 
2.2205630641635183

>  <m_score__min__rmsd>  (25) 
2.2205630641635183

>  <meeko>  (25) 
{"free_energy": -4.99, "intermolecular_energy": -7.68, "internal_energy": -1.04, "cluster_size": 16, "cluster_id": 2, "rank_in_cluster": 3}

>  <energy>  (25) 
-3.64

>  <cluster_rmsd>  (25) 
1.64

>  <cluster>  (25) 
2

$$$$

     RDKit          3D

 44 46  0  0  0  0  0  0  0  0999 V2000
  140.0470   71.1520  221.1110 O   0  0  0  0  0  0  0  0  0  0  0  0
  139.8670   71.6630  222.2380 C   0  0  0  0  0  0  0  0  0  0  0  0
  139.6790   73.0750  222.3070 N   0  0  0  0  0  0  0  0  0  0  0  0
  139.6950   73.8980  221.0960 C   0  0  0  0  0  0  0  0  0  0  0  0
  139.8060   75.2940  221.5210 C   0  0  0  0  0  0  0  0  0  0  0  0
  139.5560   75.5970  222.7240 O   0  0  0  0  0  0  0  0  0  0  0  0
  140.1850   76.3740  220.6680 N   0  0  0  0  0  0  0  0  0  0  0  0
  140.1980   77.6700  221.4170 C   0  0  0  0  0  0  0  0  0  0  0  0
  141.5220   78.4230  221.0610 C   0  0  0  0  0  0  0  0  0  0  0  0
  142.2050   77.5650  220.1900 C   0  0  0  0  0  0  0  0  0  0  0  0
  142.8980   76.7520  219.2940 C   0  0  0  0  0  0  0  0  0  0  0  0
  141.8760   75.6460  218.8780 C   0  0  0  0  0  0  0  0  0  0  0  0
  140.4630   76.0430  219.3330 C   0  0  0  0  0  0  0  0  0  0  0  0
  139.8450   70.8660  223.4680 C   0  0  0  0  0  0  0  0  0  0  0  0
  139.2930   69.6010  223.4360 C   0  0  0  0  0  0  0  0  0  0  0  0
  139.2600   68.8260  224.5890 C   0  0  0  0  0  0  0  0  0  0  0  0
  139.7970   69.3700  225.7500 C   0  0  0  0  0  0  0  0  0  0  0  0
  139.7870   68.6340  226.9280 C   0  0  0  0  0  0  0  0  0  0  0  0
  140.3200   69.1760  228.0770 C   0  0  0  0  0  0  0  0  0  0  0  0
  140.2970   68.4330  229.2150 F   0  0  0  0  0  0  0  0  0  0  0  0
  140.8690   70.4400  228.0980 C   0  0  0  0  0  0  0  0  0  0  0  0
  140.8720   71.1580  226.9270 C   0  0  0  0  0  0  0  0  0  0  0  0
  140.3480   70.6420  225.7650 C   0  0  0  0  0  0  0  0  0  0  0  0
  140.3550   71.3490  224.6260 N   0  0  0  0  0  0  0  0  0  0  0  0
  139.5310   73.4760  223.2590 H   0  0  0  0  0  0  0  0  0  0  0  0
  140.5557   73.6262  220.4673 H   0  0  0  0  0  0  0  0  0  0  0  0
  138.7797   73.7417  220.5063 H   0  0  0  0  0  0  0  0  0  0  0  0
  139.3313   78.2798  221.1222 H   0  0  0  0  0  0  0  0  0  0  0  0
  140.1438   77.4851  222.5000 H   0  0  0  0  0  0  0  0  0  0  0  0
  141.3011   79.3803  220.5662 H   0  0  0  0  0  0  0  0  0  0  0  0
  142.1154   78.6603  221.9563 H   0  0  0  0  0  0  0  0  0  0  0  0
  142.7946   77.1645  221.0278 H   0  0  0  0  0  0  0  0  0  0  0  0
  141.2881   77.4385  219.5956 H   0  0  0  0  0  0  0  0  0  0  0  0
  143.2198   77.3310  218.4159 H   0  0  0  0  0  0  0  0  0  0  0  0
  143.8083   76.3263  219.7414 H   0  0  0  0  0  0  0  0  0  0  0  0
  141.8882   75.5307  217.7841 H   0  0  0  0  0  0  0  0  0  0  0  0
  142.1566   74.6953  219.3548 H   0  0  0  0  0  0  0  0  0  0  0  0
  140.1787   76.9188  218.7312 H   0  0  0  0  0  0  0  0  0  0  0  0
  139.9022   75.1058  219.2019 H   0  0  0  0  0  0  0  0  0  0  0  0
  138.8788   69.2060  222.4966 H   0  0  0  0  0  0  0  0  0  0  0  0
  138.8237   67.8162  224.5831 H   0  0  0  0  0  0  0  0  0  0  0  0
  139.3552   67.6224  226.9434 H   0  0  0  0  0  0  0  0  0  0  0  0
  141.2912   70.8603  229.0227 H   0  0  0  0  0  0  0  0  0  0  0  0
  141.3038   72.1697  226.9185 H   0  0  0  0  0  0  0  0  0  0  0  0
  1  2  2  0
  2  3  1  0
  3  4  1  0
  4  5  1  0
  5  6  2  0
  5  7  1  0
  7  8  1  0
  8  9  1  0
  9 10  1  0
 10 11  1  0
 11 12  1  0
 12 13  1  0
  2 14  1  0
 14 15  2  0
 15 16  1  0
 16 17  2  0
 17 18  1  0
 18 19  2  0
 19 20  1  0
 19 21  1  0
 21 22  2  0
 22 23  1  0
 23 24  2  0
 13  7  1  0
 24 14  1  0
 23 17  1  0
  3 25  1  0
  4 26  1  0
  4 27  1  0
  8 28  1  0
  8 29  1  0
  9 30  1  0
  9 31  1  0
 10 32  1  0
 10 33  1  0
 11 34  1  0
 11 35  1  0
 12 36  1  0
 12 37  1  0
 13 38  1  0
 13 39  1  0
 15 40  1  0
 16 41  1  0
 18 42  1  0
 21 43  1  0
 22 44  1  0
M  END
>  <smiles>  (26) 
O=C(NCC(=O)N1CCCCCC1)c1ccc2cc(F)ccc2n1

>  <score_type>  (26) 
oracle

>  <origin>  (26) 
autodockgpu

>  <m_score__min__energy>  (26) 
-5.5700000000000003

>  <m_primary>  (26) 
energy

>  <rmsd>  (26) 
1.7137895550377908

>  <m_score__min__rmsd>  (26) 
1.7137895550377908

>  <meeko>  (26) 
{"free_energy": -4.0, "intermolecular_energy": -6.68, "internal_energy": -1.62, "cluster_size": 16, "cluster_id": 2, "rank_in_cluster": 14}

>  <energy>  (26) 
-4.77

>  <cluster_rmsd>  (26) 
0.0

>  <cluster>  (26) 
3

$$$$

     RDKit          3D

 44 46  0  0  0  0  0  0  0  0999 V2000
  139.5160   74.9060  222.0200 O   0  0  0  0  0  0  0  0  0  0  0  0
  140.6910   75.1680  221.6830 C   0  0  0  0  0  0  0  0  0  0  0  0
  141.1390   76.5150  221.8190 N   0  0  0  0  0  0  0  0  0  0  0  0
  140.2510   77.5570  222.3380 C   0  0  0  0  0  0  0  0  0  0  0  0
  141.0640   78.7540  222.5530 C   0  0  0  0  0  0  0  0  0  0  0  0
  142.3070   78.7090  222.3190 O   0  0  0  0  0  0  0  0  0  0  0  0
  140.5580   80.0060  223.0160 N   0  0  0  0  0  0  0  0  0  0  0  0
  141.6550   81.0190  223.1270 C   0  0  0  0  0  0  0  0  0  0  0  0
  141.3230   82.2010  222.1580 C   0  0  0  0  0  0  0  0  0  0  0  0
  139.9340   82.1530  221.9880 C   0  0  0  0  0  0  0  0  0  0  0  0
  138.5460   82.0940  221.8680 C   0  0  0  0  0  0  0  0  0  0  0  0
  138.1850   80.6070  222.2400 C   0  0  0  0  0  0  0  0  0  0  0  0
  139.1800   80.0610  223.2760 C   0  0  0  0  0  0  0  0  0  0  0  0
  141.6050   74.1480  221.1600 C   0  0  0  0  0  0  0  0  0  0  0  0
  141.1360   72.8630  220.9720 C   0  0  0  0  0  0  0  0  0  0  0  0
  141.9830   71.8770  220.4770 C   0  0  0  0  0  0  0  0  0  0  0  0
  143.2930   72.2370  220.1870 C   0  0  0  0  0  0  0  0  0  0  0  0
  144.1780   71.2870  219.6910 C   0  0  0  0  0  0  0  0  0  0  0  0
  145.4760   71.6460  219.4040 C   0  0  0  0  0  0  0  0  0  0  0  0
  146.3190   70.6970  218.9190 F   0  0  0  0  0  0  0  0  0  0  0  0
  145.9340   72.9320  219.5940 C   0  0  0  0  0  0  0  0  0  0  0  0
  145.0500   73.8620  220.0860 C   0  0  0  0  0  0  0  0  0  0  0  0
  143.7480   73.5320  220.3810 C   0  0  0  0  0  0  0  0  0  0  0  0
  142.8920   74.4450  220.8600 N   0  0  0  0  0  0  0  0  0  0  0  0
  142.1240   76.7070  221.5300 H   0  0  0  0  0  0  0  0  0  0  0  0
  139.4539   77.7691  221.6103 H   0  0  0  0  0  0  0  0  0  0  0  0
  139.7782   77.2335  223.2770 H   0  0  0  0  0  0  0  0  0  0  0  0
  141.7169   81.3901  224.1607 H   0  0  0  0  0  0  0  0  0  0  0  0
  142.6211   80.5661  222.8595 H   0  0  0  0  0  0  0  0  0  0  0  0
  141.6249   83.1610  222.6020 H   0  0  0  0  0  0  0  0  0  0  0  0
  141.8590   82.1132  221.2014 H   0  0  0  0  0  0  0  0  0  0  0  0
  139.9390   83.1684  221.5651 H   0  0  0  0  0  0  0  0  0  0  0  0
  140.0001   81.0809  221.7507 H   0  0  0  0  0  0  0  0  0  0  0  0
  138.0647   82.7973  222.5635 H   0  0  0  0  0  0  0  0  0  0  0  0
  138.1995   82.3709  220.8614 H   0  0  0  0  0  0  0  0  0  0  0  0
  137.1689   80.5743  222.6601 H   0  0  0  0  0  0  0  0  0  0  0  0
  138.2370   79.9879  221.3323 H   0  0  0  0  0  0  0  0  0  0  0  0
  139.0595   80.6801  224.1772 H   0  0  0  0  0  0  0  0  0  0  0  0
  138.9076   78.9964  223.3246 H   0  0  0  0  0  0  0  0  0  0  0  0
  140.0911   72.6187  221.2140 H   0  0  0  0  0  0  0  0  0  0  0  0
  141.6278   70.8477  220.3206 H   0  0  0  0  0  0  0  0  0  0  0  0
  143.8427   70.2521  219.5283 H   0  0  0  0  0  0  0  0  0  0  0  0
  146.9734   73.2051  219.3594 H   0  0  0  0  0  0  0  0  0  0  0  0
  145.3920   74.8949  220.2477 H   0  0  0  0  0  0  0  0  0  0  0  0
  1  2  2  0
  2  3  1  0
  3  4  1  0
  4  5  1  0
  5  6  2  0
  5  7  1  0
  7  8  1  0
  8  9  1  0
  9 10  1  0
 10 11  1  0
 11 12  1  0
 12 13  1  0
  2 14  1  0
 14 15  2  0
 15 16  1  0
 16 17  2  0
 17 18  1  0
 18 19  2  0
 19 20  1  0
 19 21  1  0
 21 22  2  0
 22 23  1  0
 23 24  2  0
 13  7  1  0
 24 14  1  0
 23 17  1  0
  3 25  1  0
  4 26  1  0
  4 27  1  0
  8 28  1  0
  8 29  1  0
  9 30  1  0
  9 31  1  0
 10 32  1  0
 10 33  1  0
 11 34  1  0
 11 35  1  0
 12 36  1  0
 12 37  1  0
 13 38  1  0
 13 39  1  0
 15 40  1  0
 16 41  1  0
 18 42  1  0
 21 43  1  0
 22 44  1  0
M  END
>  <smiles>  (27) 
O=C(NCC(=O)N1CCCCCC1)c1ccc2cc(F)ccc2n1

>  <score_type>  (27) 
oracle

>  <origin>  (27) 
autodockgpu

>  <m_score__min__energy>  (27) 
-5.5700000000000003

>  <m_primary>  (27) 
energy

>  <rmsd>  (27) 
6.934006455090131

>  <m_score__min__rmsd>  (27) 
6.934006455090131

>  <meeko>  (27) 
{"free_energy": -3.42, "intermolecular_energy": -6.11, "internal_energy": -1.76, "cluster_size": 6, "cluster_id": 5, "rank_in_cluster": 5}

>  <energy>  (27) 
-4.61

>  <cluster_rmsd>  (27) 
1.06

>  <cluster>  (27) 
3

$$$$

     RDKit          3D

 44 46  0  0  0  0  0  0  0  0999 V2000
  140.8970   72.6680  221.6480 O   0  0  0  0  0  0  0  0  0  0  0  0
  139.9650   72.5860  222.4780 C   0  0  0  0  0  0  0  0  0  0  0  0
  138.8650   73.4810  222.3350 N   0  0  0  0  0  0  0  0  0  0  0  0
  138.8270   74.4630  221.2500 C   0  0  0  0  0  0  0  0  0  0  0  0
  138.1140   75.6370  221.7510 C   0  0  0  0  0  0  0  0  0  0  0  0
  136.9890   75.4880  222.3100 O   0  0  0  0  0  0  0  0  0  0  0  0
  138.5960   76.9790  221.6610 N   0  0  0  0  0  0  0  0  0  0  0  0
  137.6220   77.9400  222.2690 C   0  0  0  0  0  0  0  0  0  0  0  0
  138.4360   79.0410  223.0250 C   0  0  0  0  0  0  0  0  0  0  0  0
  139.7500   78.5590  223.0670 C   0  0  0  0  0  0  0  0  0  0  0  0
  141.0400   78.0300  223.1150 C   0  0  0  0  0  0  0  0  0  0  0  0
  141.1540   77.1130  221.8440 C   0  0  0  0  0  0  0  0  0  0  0  0
  139.8430   77.1500  221.0420 C   0  0  0  0  0  0  0  0  0  0  0  0
  139.9740   71.6130  223.5750 C   0  0  0  0  0  0  0  0  0  0  0  0
  139.4430   70.3570  223.3590 C   0  0  0  0  0  0  0  0  0  0  0  0
  139.4390   69.4170  224.3840 C   0  0  0  0  0  0  0  0  0  0  0  0
  139.9810   69.7920  225.6080 C   0  0  0  0  0  0  0  0  0  0  0  0
  140.0000   68.8870  226.6620 C   0  0  0  0  0  0  0  0  0  0  0  0
  140.5380   69.2620  227.8730 C   0  0  0  0  0  0  0  0  0  0  0  0
  140.5440   68.3570  228.8870 F   0  0  0  0  0  0  0  0  0  0  0  0
  141.0660   70.5180  228.0780 C   0  0  0  0  0  0  0  0  0  0  0  0
  141.0420   71.4040  227.0270 C   0  0  0  0  0  0  0  0  0  0  0  0
  140.5100   71.0570  225.8070 C   0  0  0  0  0  0  0  0  0  0  0  0
  140.4900   71.9270  224.7870 N   0  0  0  0  0  0  0  0  0  0  0  0
  138.1010   73.3920  223.0410 H   0  0  0  0  0  0  0  0  0  0  0  0
  139.8504   74.7406  220.9575 H   0  0  0  0  0  0  0  0  0  0  0  0
  138.3206   74.0476  220.3663 H   0  0  0  0  0  0  0  0  0  0  0  0
  137.0122   78.4030  221.4792 H   0  0  0  0  0  0  0  0  0  0  0  0
  136.9517   77.4149  222.9655 H   0  0  0  0  0  0  0  0  0  0  0  0
  138.3922   79.9958  222.4806 H   0  0  0  0  0  0  0  0  0  0  0  0
  138.0348   79.2321  224.0312 H   0  0  0  0  0  0  0  0  0  0  0  0
  139.9694   79.0380  222.1014 H   0  0  0  0  0  0  0  0  0  0  0  0
  139.7636   78.6914  224.1589 H   0  0  0  0  0  0  0  0  0  0  0  0
  141.7890   78.8348  223.0790 H   0  0  0  0  0  0  0  0  0  0  0  0
  141.2217   77.4705  224.0445 H   0  0  0  0  0  0  0  0  0  0  0  0
  141.9779   77.4721  221.2098 H   0  0  0  0  0  0  0  0  0  0  0  0
  141.3492   76.0789  222.1643 H   0  0  0  0  0  0  0  0  0  0  0  0
  139.8107   78.1317  220.5468 H   0  0  0  0  0  0  0  0  0  0  0  0
  139.9225   76.2457  220.4208 H   0  0  0  0  0  0  0  0  0  0  0  0
  139.0228   70.0996  222.3755 H   0  0  0  0  0  0  0  0  0  0  0  0
  139.0211   68.4110  224.2314 H   0  0  0  0  0  0  0  0  0  0  0  0
  139.5874   67.8759  226.5299 H   0  0  0  0  0  0  0  0  0  0  0  0
  141.4929   70.8026  229.0510 H   0  0  0  0  0  0  0  0  0  0  0  0
  141.4576   72.4131  227.1649 H   0  0  0  0  0  0  0  0  0  0  0  0
  1  2  2  0
  2  3  1  0
  3  4  1  0
  4  5  1  0
  5  6  2  0
  5  7  1  0
  7  8  1  0
  8  9  1  0
  9 10  1  0
 10 11  1  0
 11 12  1  0
 12 13  1  0
  2 14  1  0
 14 15  2  0
 15 16  1  0
 16 17  2  0
 17 18  1  0
 18 19  2  0
 19 20  1  0
 19 21  1  0
 21 22  2  0
 22 23  1  0
 23 24  2  0
 13  7  1  0
 24 14  1  0
 23 17  1  0
  3 25  1  0
  4 26  1  0
  4 27  1  0
  8 28  1  0
  8 29  1  0
  9 30  1  0
  9 31  1  0
 10 32  1  0
 10 33  1  0
 11 34  1  0
 11 35  1  0
 12 36  1  0
 12 37  1  0
 13 38  1  0
 13 39  1  0
 15 40  1  0
 16 41  1  0
 18 42  1  0
 21 43  1  0
 22 44  1  0
M  END
>  <smiles>  (28) 
O=C(NCC(=O)N1CCCCCC1)c1ccc2cc(F)ccc2n1

>  <score_type>  (28) 
oracle

>  <origin>  (28) 
autodockgpu

>  <m_score__min__energy>  (28) 
-5.5700000000000003

>  <m_primary>  (28) 
energy

>  <rmsd>  (28) 
3.043766064775081

>  <m_score__min__rmsd>  (28) 
3.043766064775081

>  <meeko>  (28) 
{"free_energy": -4.58, "intermolecular_energy": -7.26, "internal_energy": -1.24, "cluster_size": 16, "cluster_id": 2, "rank_in_cluster": 10}

>  <energy>  (28) 
-4.28

>  <cluster_rmsd>  (28) 
1.05

>  <cluster>  (28) 
3

$$$$

     RDKit          3D

 44 46  0  0  0  0  0  0  0  0999 V2000
  139.5240   75.0930  222.3220 O   0  0  0  0  0  0  0  0  0  0  0  0
  140.4880   75.3740  221.5780 C   0  0  0  0  0  0  0  0  0  0  0  0
  140.6030   76.7180  221.1160 N   0  0  0  0  0  0  0  0  0  0  0  0
  139.6230   77.7350  221.5020 C   0  0  0  0  0  0  0  0  0  0  0  0
  140.0450   78.9970  220.8940 C   0  0  0  0  0  0  0  0  0  0  0  0
  139.3300   79.5190  219.9910 O   0  0  0  0  0  0  0  0  0  0  0  0
  141.2300   79.7110  221.2470 N   0  0  0  0  0  0  0  0  0  0  0  0
  141.3650   80.9610  220.4340 C   0  0  0  0  0  0  0  0  0  0  0  0
  141.3700   82.1790  221.4150 C   0  0  0  0  0  0  0  0  0  0  0  0
  141.7270   81.6440  222.6580 C   0  0  0  0  0  0  0  0  0  0  0  0
  142.1300   81.0990  223.8780 C   0  0  0  0  0  0  0  0  0  0  0  0
  141.8980   79.5560  223.7220 C   0  0  0  0  0  0  0  0  0  0  0  0
  142.0270   79.1360  222.2490 C   0  0  0  0  0  0  0  0  0  0  0  0
  141.4860   74.3790  221.1740 C   0  0  0  0  0  0  0  0  0  0  0  0
  141.1230   73.0480  221.1280 C   0  0  0  0  0  0  0  0  0  0  0  0
  142.0510   72.0850  220.7480 C   0  0  0  0  0  0  0  0  0  0  0  0
  143.3320   72.5140  220.4240 C   0  0  0  0  0  0  0  0  0  0  0  0
  144.2950   71.5890  220.0380 C   0  0  0  0  0  0  0  0  0  0  0  0
  145.5640   72.0180  219.7180 C   0  0  0  0  0  0  0  0  0  0  0  0
  146.4850   71.0910  219.3440 F   0  0  0  0  0  0  0  0  0  0  0  0
  145.9170   73.3490  219.7670 C   0  0  0  0  0  0  0  0  0  0  0  0
  144.9560   74.2540  220.1500 C   0  0  0  0  0  0  0  0  0  0  0  0
  143.6800   73.8550  220.4750 C   0  0  0  0  0  0  0  0  0  0  0  0
  142.7490   74.7430  220.8480 N   0  0  0  0  0  0  0  0  0  0  0  0
  141.4170   76.9270  220.4960 H   0  0  0  0  0  0  0  0  0  0  0  0
  138.6248   77.4550  221.1343 H   0  0  0  0  0  0  0  0  0  0  0  0
  139.5686   77.8285  222.5967 H   0  0  0  0  0  0  0  0  0  0  0  0
  142.3062   80.9362  219.8652 H   0  0  0  0  0  0  0  0  0  0  0  0
  140.5293   81.0464  219.7239 H   0  0  0  0  0  0  0  0  0  0  0  0
  142.1049   82.9314  221.0929 H   0  0  0  0  0  0  0  0  0  0  0  0
  140.3939   82.6851  221.4489 H   0  0  0  0  0  0  0  0  0  0  0  0
  141.4593   82.5883  223.1547 H   0  0  0  0  0  0  0  0  0  0  0  0
  141.3543   80.6588  222.3410 H   0  0  0  0  0  0  0  0  0  0  0  0
  143.1921   81.3142  224.0669 H   0  0  0  0  0  0  0  0  0  0  0  0
  141.5705   81.5199  224.7264 H   0  0  0  0  0  0  0  0  0  0  0  0
  142.6473   79.0155  224.3190 H   0  0  0  0  0  0  0  0  0  0  0  0
  140.8843   79.3124  224.0729 H   0  0  0  0  0  0  0  0  0  0  0  0
  143.0714   79.3285  221.9624 H   0  0  0  0  0  0  0  0  0  0  0  0
  141.6664   78.0970  222.2686 H   0  0  0  0  0  0  0  0  0  0  0  0
  140.0980   72.7488  221.3924 H   0  0  0  0  0  0  0  0  0  0  0  0
  141.7802   71.0197  220.7053 H   0  0  0  0  0  0  0  0  0  0  0  0
  144.0447   70.5190  219.9883 H   0  0  0  0  0  0  0  0  0  0  0  0
  146.9347   73.6766  219.5081 H   0  0  0  0  0  0  0  0  0  0  0  0
  145.2131   75.3225  220.1978 H   0  0  0  0  0  0  0  0  0  0  0  0
  1  2  2  0
  2  3  1  0
  3  4  1  0
  4  5  1  0
  5  6  2  0
  5  7  1  0
  7  8  1  0
  8  9  1  0
  9 10  1  0
 10 11  1  0
 11 12  1  0
 12 13  1  0
  2 14  1  0
 14 15  2  0
 15 16  1  0
 16 17  2  0
 17 18  1  0
 18 19  2  0
 19 20  1  0
 19 21  1  0
 21 22  2  0
 22 23  1  0
 23 24  2  0
 13  7  1  0
 24 14  1  0
 23 17  1  0
  3 25  1  0
  4 26  1  0
  4 27  1  0
  8 28  1  0
  8 29  1  0
  9 30  1  0
  9 31  1  0
 10 32  1  0
 10 33  1  0
 11 34  1  0
 11 35  1  0
 12 36  1  0
 12 37  1  0
 13 38  1  0
 13 39  1  0
 15 40  1  0
 16 41  1  0
 18 42  1  0
 21 43  1  0
 22 44  1  0
M  END
>  <smiles>  (29) 
O=C(NCC(=O)N1CCCCCC1)c1ccc2cc(F)ccc2n1

>  <score_type>  (29) 
oracle

>  <origin>  (29) 
autodockgpu

>  <m_score__min__energy>  (29) 
-5.5700000000000003

>  <m_primary>  (29) 
energy

>  <rmsd>  (29) 
6.790821996548141

>  <m_score__min__rmsd>  (29) 
6.790821996548141

>  <meeko>  (29) 
{"free_energy": -4.07, "intermolecular_energy": -6.76, "internal_energy": -1.16, "cluster_size": 6, "cluster_id": 5, "rank_in_cluster": 3}

>  <energy>  (29) 
-4.01

>  <cluster_rmsd>  (29) 
1.33

>  <cluster>  (29) 
3

$$$$

     RDKit          3D

 44 46  0  0  0  0  0  0  0  0999 V2000
  136.3940   69.0480  223.8290 O   0  0  0  0  0  0  0  0  0  0  0  0
  136.6740   70.2170  224.1730 C   0  0  0  0  0  0  0  0  0  0  0  0
  138.0420   70.6160  224.1270 N   0  0  0  0  0  0  0  0  0  0  0  0
  139.0850   69.6860  223.6890 C   0  0  0  0  0  0  0  0  0  0  0  0
  139.4210   68.8410  224.8340 C   0  0  0  0  0  0  0  0  0  0  0  0
  138.7860   67.7630  225.0180 O   0  0  0  0  0  0  0  0  0  0  0  0
  140.4380   69.1390  225.7910 N   0  0  0  0  0  0  0  0  0  0  0  0
  140.5230   68.0700  226.8350 C   0  0  0  0  0  0  0  0  0  0  0  0
  140.4080   68.7520  228.2380 C   0  0  0  0  0  0  0  0  0  0  0  0
  140.4850   70.1260  227.9820 C   0  0  0  0  0  0  0  0  0  0  0  0
  140.5350   71.5040  227.7690 C   0  0  0  0  0  0  0  0  0  0  0  0
  140.6840   71.6600  226.2180 C   0  0  0  0  0  0  0  0  0  0  0  0
  141.1470   70.3340  225.5930 C   0  0  0  0  0  0  0  0  0  0  0  0
  135.6530   71.1720  224.6150 C   0  0  0  0  0  0  0  0  0  0  0  0
  135.6670   72.4530  224.1010 C   0  0  0  0  0  0  0  0  0  0  0  0
  134.7100   73.3770  224.5040 C   0  0  0  0  0  0  0  0  0  0  0  0
  133.7600   72.9610  225.4300 C   0  0  0  0  0  0  0  0  0  0  0  0
  132.7820   73.8490  225.8640 C   0  0  0  0  0  0  0  0  0  0  0  0
  131.8420   73.4340  226.7810 C   0  0  0  0  0  0  0  0  0  0  0  0
  130.8980   74.3220  227.1880 F   0  0  0  0  0  0  0  0  0  0  0  0
  131.8360   72.1520  227.2880 C   0  0  0  0  0  0  0  0  0  0  0  0
  132.8080   71.2840  226.8510 C   0  0  0  0  0  0  0  0  0  0  0  0
  133.7600   71.6710  225.9360 C   0  0  0  0  0  0  0  0  0  0  0  0
  134.7040   70.8190  225.5150 N   0  0  0  0  0  0  0  0  0  0  0  0
  138.2480   71.5970  224.4190 H   0  0  0  0  0  0  0  0  0  0  0  0
  138.7131   69.0663  222.8598 H   0  0  0  0  0  0  0  0  0  0  0  0
  139.9712   70.2327  223.3344 H   0  0  0  0  0  0  0  0  0  0  0  0
  139.7009   67.3515  226.7010 H   0  0  0  0  0  0  0  0  0  0  0  0
  141.4773   67.5295  226.7507 H   0  0  0  0  0  0  0  0  0  0  0  0
  139.4479   68.5006  228.7123 H   0  0  0  0  0  0  0  0  0  0  0  0
  141.1976   68.4157  228.9261 H   0  0  0  0  0  0  0  0  0  0  0  0
  141.5820   70.0660  227.9268 H   0  0  0  0  0  0  0  0  0  0  0  0
  139.5521   70.0702  227.4018 H   0  0  0  0  0  0  0  0  0  0  0  0
  139.6102   71.9849  228.1204 H   0  0  0  0  0  0  0  0  0  0  0  0
  141.3611   71.9806  228.3170 H   0  0  0  0  0  0  0  0  0  0  0  0
  139.7133   71.9456  225.7866 H   0  0  0  0  0  0  0  0  0  0  0  0
  141.4326   72.4375  226.0058 H   0  0  0  0  0  0  0  0  0  0  0  0
  141.1787   70.4986  224.5059 H   0  0  0  0  0  0  0  0  0  0  0  0
  142.0889   70.1392  226.1268 H   0  0  0  0  0  0  0  0  0  0  0  0
  136.4370   72.7432  223.3710 H   0  0  0  0  0  0  0  0  0  0  0  0
  134.7045   74.4018  224.1042 H   0  0  0  0  0  0  0  0  0  0  0  0
  132.7592   74.8783  225.4767 H   0  0  0  0  0  0  0  0  0  0  0  0
  131.0777   71.8340  228.0187 H   0  0  0  0  0  0  0  0  0  0  0  0
  132.8252   70.2559  227.2419 H   0  0  0  0  0  0  0  0  0  0  0  0
  1  2  2  0
  2  3  1  0
  3  4  1  0
  4  5  1  0
  5  6  2  0
  5  7  1  0
  7  8  1  0
  8  9  1  0
  9 10  1  0
 10 11  1  0
 11 12  1  0
 12 13  1  0
  2 14  1  0
 14 15  2  0
 15 16  1  0
 16 17  2  0
 17 18  1  0
 18 19  2  0
 19 20  1  0
 19 21  1  0
 21 22  2  0
 22 23  1  0
 23 24  2  0
 13  7  1  0
 24 14  1  0
 23 17  1  0
  3 25  1  0
  4 26  1  0
  4 27  1  0
  8 28  1  0
  8 29  1  0
  9 30  1  0
  9 31  1  0
 10 32  1  0
 10 33  1  0
 11 34  1  0
 11 35  1  0
 12 36  1  0
 12 37  1  0
 13 38  1  0
 13 39  1  0
 15 40  1  0
 16 41  1  0
 18 42  1  0
 21 43  1  0
 22 44  1  0
M  END
>  <smiles>  (30) 
O=C(NCC(=O)N1CCCCCC1)c1ccc2cc(F)ccc2n1

>  <score_type>  (30) 
oracle

>  <origin>  (30) 
autodockgpu

>  <m_score__min__energy>  (30) 
-5.5700000000000003

>  <m_primary>  (30) 
energy

>  <rmsd>  (30) 
8.499570265189059

>  <m_score__min__rmsd>  (30) 
8.499570265189059

>  <meeko>  (30) 
{"free_energy": -5.11, "intermolecular_energy": -7.79, "internal_energy": -1.05, "cluster_size": 9, "cluster_id": 1, "rank_in_cluster": 2}

>  <energy>  (30) 
-4.53

>  <cluster_rmsd>  (30) 
0.0

>  <cluster>  (30) 
4

$$$$

     RDKit          3D

 44 46  0  0  0  0  0  0  0  0999 V2000
  140.2460   73.4020  222.4130 O   0  0  0  0  0  0  0  0  0  0  0  0
  139.5340   72.3810  222.5340 C   0  0  0  0  0  0  0  0  0  0  0  0
  138.5610   72.1240  221.5240 N   0  0  0  0  0  0  0  0  0  0  0  0
  138.4030   73.0270  220.3820 C   0  0  0  0  0  0  0  0  0  0  0  0
  137.7790   74.2520  220.8810 C   0  0  0  0  0  0  0  0  0  0  0  0
  138.3750   75.3580  220.7280 O   0  0  0  0  0  0  0  0  0  0  0  0
  136.5160   74.3080  221.5440 N   0  0  0  0  0  0  0  0  0  0  0  0
  136.1720   75.7140  221.9260 C   0  0  0  0  0  0  0  0  0  0  0  0
  136.0510   75.7760  223.4840 C   0  0  0  0  0  0  0  0  0  0  0  0
  135.7720   74.4630  223.8810 C   0  0  0  0  0  0  0  0  0  0  0  0
  135.4640   73.1490  224.2350 C   0  0  0  0  0  0  0  0  0  0  0  0
  135.9590   72.2830  223.0220 C   0  0  0  0  0  0  0  0  0  0  0  0
  135.8500   73.0840  221.7150 C   0  0  0  0  0  0  0  0  0  0  0  0
  139.6690   71.4580  223.6640 C   0  0  0  0  0  0  0  0  0  0  0  0
  139.2210   70.1590  223.5250 C   0  0  0  0  0  0  0  0  0  0  0  0
  139.3380   69.2640  224.5830 C   0  0  0  0  0  0  0  0  0  0  0  0
  139.9120   69.7270  225.7610 C   0  0  0  0  0  0  0  0  0  0  0  0
  140.0500   68.8700  226.8460 C   0  0  0  0  0  0  0  0  0  0  0  0
  140.6190   69.3320  228.0120 C   0  0  0  0  0  0  0  0  0  0  0  0
  140.7420   68.4720  229.0580 F   0  0  0  0  0  0  0  0  0  0  0  0
  141.0630   70.6300  228.1410 C   0  0  0  0  0  0  0  0  0  0  0  0
  140.9210   71.4680  227.0610 C   0  0  0  0  0  0  0  0  0  0  0  0
  140.3560   71.0340  225.8840 C   0  0  0  0  0  0  0  0  0  0  0  0
  140.2210   71.8570  224.8350 N   0  0  0  0  0  0  0  0  0  0  0  0
  137.9800   71.2660  221.6480 H   0  0  0  0  0  0  0  0  0  0  0  0
  139.3858   73.2562  219.9442 H   0  0  0  0  0  0  0  0  0  0  0  0
  137.7824   72.5633  219.6011 H   0  0  0  0  0  0  0  0  0  0  0  0
  136.9637   76.3976  221.5856 H   0  0  0  0  0  0  0  0  0  0  0  0
  135.2241   76.0162  221.4569 H   0  0  0  0  0  0  0  0  0  0  0  0
  136.9945   76.1223  223.9311 H   0  0  0  0  0  0  0  0  0  0  0  0
  135.2702   76.4794  223.8089 H   0  0  0  0  0  0  0  0  0  0  0  0
  136.8473   74.2351  223.9242 H   0  0  0  0  0  0  0  0  0  0  0  0
  134.9060   74.8212  224.4569 H   0  0  0  0  0  0  0  0  0  0  0  0
  135.9907   72.8620  225.1571 H   0  0  0  0  0  0  0  0  0  0  0  0
  134.3908   73.0121  224.4337 H   0  0  0  0  0  0  0  0  0  0  0  0
  137.0083   71.9960  223.1853 H   0  0  0  0  0  0  0  0  0  0  0  0
  135.3301   71.3839  222.9441 H   0  0  0  0  0  0  0  0  0  0  0  0
  136.2101   72.4210  220.9145 H   0  0  0  0  0  0  0  0  0  0  0  0
  134.7932   73.3893  221.7138 H   0  0  0  0  0  0  0  0  0  0  0  0
  138.7710   69.8318  222.5761 H   0  0  0  0  0  0  0  0  0  0  0  0
  138.9882   68.2252  224.4906 H   0  0  0  0  0  0  0  0  0  0  0  0
  139.7064   67.8275  226.7740 H   0  0  0  0  0  0  0  0  0  0  0  0
  141.5166   70.9842  229.0784 H   0  0  0  0  0  0  0  0  0  0  0  0
  141.2669   72.5093  227.1394 H   0  0  0  0  0  0  0  0  0  0  0  0
  1  2  2  0
  2  3  1  0
  3  4  1  0
  4  5  1  0
  5  6  2  0
  5  7  1  0
  7  8  1  0
  8  9  1  0
  9 10  1  0
 10 11  1  0
 11 12  1  0
 12 13  1  0
  2 14  1  0
 14 15  2  0
 15 16  1  0
 16 17  2  0
 17 18  1  0
 18 19  2  0
 19 20  1  0
 19 21  1  0
 21 22  2  0
 22 23  1  0
 23 24  2  0
 13  7  1  0
 24 14  1  0
 23 17  1  0
  3 25  1  0
  4 26  1  0
  4 27  1  0
  8 28  1  0
  8 29  1  0
  9 30  1  0
  9 31  1  0
 10 32  1  0
 10 33  1  0
 11 34  1  0
 11 35  1  0
 12 36  1  0
 12 37  1  0
 13 38  1  0
 13 39  1  0
 15 40  1  0
 16 41  1  0
 18 42  1  0
 21 43  1  0
 22 44  1  0
M  END
>  <smiles>  (31) 
O=C(NCC(=O)N1CCCCCC1)c1ccc2cc(F)ccc2n1

>  <score_type>  (31) 
oracle

>  <origin>  (31) 
autodockgpu

>  <m_score__min__energy>  (31) 
-5.5700000000000003

>  <m_primary>  (31) 
energy

>  <rmsd>  (31) 
3.9261563805829907

>  <m_score__min__rmsd>  (31) 
3.9261563805829907

>  <meeko>  (31) 
{"free_energy": -3.96, "intermolecular_energy": -6.65, "internal_energy": -1.29, "cluster_size": 1, "cluster_id": 9, "rank_in_cluster": 1}

>  <energy>  (31) 
-4.03

>  <cluster_rmsd>  (31) 
0.17

>  <cluster>  (31) 
4

$$$$

     RDKit          3D

 44 46  0  0  0  0  0  0  0  0999 V2000
  140.5920   73.5540  222.3500 O   0  0  0  0  0  0  0  0  0  0  0  0
  141.0820   72.4570  222.0020 C   0  0  0  0  0  0  0  0  0  0  0  0
  140.5800   71.2760  222.6220 N   0  0  0  0  0  0  0  0  0  0  0  0
  139.5230   71.3450  223.6320 C   0  0  0  0  0  0  0  0  0  0  0  0
  139.6460   70.1540  224.4720 C   0  0  0  0  0  0  0  0  0  0  0  0
  138.9210   69.1470  224.2300 O   0  0  0  0  0  0  0  0  0  0  0  0
  140.5450   70.0290  225.5750 N   0  0  0  0  0  0  0  0  0  0  0  0
  140.4170   68.6840  226.2210 C   0  0  0  0  0  0  0  0  0  0  0  0
  139.9570   68.8990  227.7010 C   0  0  0  0  0  0  0  0  0  0  0  0
  140.3890   70.1890  228.0330 C   0  0  0  0  0  0  0  0  0  0  0  0
  140.8420   71.4770  228.3170 C   0  0  0  0  0  0  0  0  0  0  0  0
  140.9690   72.1730  226.9230 C   0  0  0  0  0  0  0  0  0  0  0  0
  141.3520   71.1440  225.8480 C   0  0  0  0  0  0  0  0  0  0  0  0
  142.1410   72.3550  220.9930 C   0  0  0  0  0  0  0  0  0  0  0  0
  142.5900   73.5050  220.3750 C   0  0  0  0  0  0  0  0  0  0  0  0
  143.5930   73.4340  219.4150 C   0  0  0  0  0  0  0  0  0  0  0  0
  144.1100   72.1800  219.1120 C   0  0  0  0  0  0  0  0  0  0  0  0
  145.1150   72.0580  218.1590 C   0  0  0  0  0  0  0  0  0  0  0  0
  145.6260   70.8140  217.8610 C   0  0  0  0  0  0  0  0  0  0  0  0
  146.6070   70.7240  216.9250 F   0  0  0  0  0  0  0  0  0  0  0  0
  145.1710   69.6720  218.4840 C   0  0  0  0  0  0  0  0  0  0  0  0
  144.1780   69.8060  219.4240 C   0  0  0  0  0  0  0  0  0  0  0  0
  143.6480   71.0360  219.7420 C   0  0  0  0  0  0  0  0  0  0  0  0
  142.6800   71.1580  220.6600 N   0  0  0  0  0  0  0  0  0  0  0  0
  141.0060   70.3740  222.3130 H   0  0  0  0  0  0  0  0  0  0  0  0
  139.6451   72.2512  224.2435 H   0  0  0  0  0  0  0  0  0  0  0  0
  138.5319   71.3857  223.1565 H   0  0  0  0  0  0  0  0  0  0  0  0
  139.6713   68.0808  225.6824 H   0  0  0  0  0  0  0  0  0  0  0  0
  141.3807   68.1543  226.1940 H   0  0  0  0  0  0  0  0  0  0  0  0
  138.8622   68.8261  227.7797 H   0  0  0  0  0  0  0  0  0  0  0  0
  140.3737   68.1378  228.3770 H   0  0  0  0  0  0  0  0  0  0  0  0
  139.3552   70.4902  228.2580 H   0  0  0  0  0  0  0  0  0  0  0  0
  141.3146   69.7704  228.4550 H   0  0  0  0  0  0  0  0  0  0  0  0
  140.1194   72.0105  228.9519 H   0  0  0  0  0  0  0  0  0  0  0  0
  141.7954   71.4699  228.8656 H   0  0  0  0  0  0  0  0  0  0  0  0
  140.0059   72.6337  226.6580 H   0  0  0  0  0  0  0  0  0  0  0  0
  141.7522   72.9435  226.9770 H   0  0  0  0  0  0  0  0  0  0  0  0
  141.4400   71.7011  224.9036 H   0  0  0  0  0  0  0  0  0  0  0  0
  142.2537   70.6818  226.2762 H   0  0  0  0  0  0  0  0  0  0  0  0
  142.1536   74.4786  220.6425 H   0  0  0  0  0  0  0  0  0  0  0  0
  143.9647   74.3392  218.9125 H   0  0  0  0  0  0  0  0  0  0  0  0
  145.5004   72.9510  217.6452 H   0  0  0  0  0  0  0  0  0  0  0  0
  145.5893   68.6852  218.2367 H   0  0  0  0  0  0  0  0  0  0  0  0
  143.7974   68.9091  219.9346 H   0  0  0  0  0  0  0  0  0  0  0  0
  1  2  2  0
  2  3  1  0
  3  4  1  0
  4  5  1  0
  5  6  2  0
  5  7  1  0
  7  8  1  0
  8  9  1  0
  9 10  1  0
 10 11  1  0
 11 12  1  0
 12 13  1  0
  2 14  1  0
 14 15  2  0
 15 16  1  0
 16 17  2  0
 17 18  1  0
 18 19  2  0
 19 20  1  0
 19 21  1  0
 21 22  2  0
 22 23  1  0
 23 24  2  0
 13  7  1  0
 24 14  1  0
 23 17  1  0
  3 25  1  0
  4 26  1  0
  4 27  1  0
  8 28  1  0
  8 29  1  0
  9 30  1  0
  9 31  1  0
 10 32  1  0
 10 33  1  0
 11 34  1  0
 11 35  1  0
 12 36  1  0
 12 37  1  0
 13 38  1  0
 13 39  1  0
 15 40  1  0
 16 41  1  0
 18 42  1  0
 21 43  1  0
 22 44  1  0
M  END
>  <smiles>  (32) 
O=C(NCC(=O)N1CCCCCC1)c1ccc2cc(F)ccc2n1

>  <score_type>  (32) 
oracle

>  <origin>  (32) 
autodockgpu

>  <m_score__min__energy>  (32) 
-5.5700000000000003

>  <m_primary>  (32) 
energy

>  <rmsd>  (32) 
8.774146122211704

>  <m_score__min__rmsd>  (32) 
8.774146122211704

>  <meeko>  (32) 
{"free_energy": -4.01, "intermolecular_energy": -6.7, "internal_energy": -1.28, "cluster_size": 4, "cluster_id": 3, "rank_in_cluster": 4}

>  <energy>  (32) 
-4.01

>  <cluster_rmsd>  (32) 
1.79

>  <cluster>  (32) 
4

$$$$

     RDKit          3D

 44 46  0  0  0  0  0  0  0  0999 V2000
  139.9810   72.7610  223.1070 O   0  0  0  0  0  0  0  0  0  0  0  0
  140.3760   71.7850  222.4320 C   0  0  0  0  0  0  0  0  0  0  0  0
  139.8550   70.4970  222.7540 N   0  0  0  0  0  0  0  0  0  0  0  0
  138.8860   70.3250  223.8380 C   0  0  0  0  0  0  0  0  0  0  0  0
  139.3980   69.2710  224.7140 C   0  0  0  0  0  0  0  0  0  0  0  0
  138.8330   68.1400  224.7190 O   0  0  0  0  0  0  0  0  0  0  0  0
  140.5170   69.4170  225.5900 N   0  0  0  0  0  0  0  0  0  0  0  0
  140.7750   68.1510  226.3450 C   0  0  0  0  0  0  0  0  0  0  0  0
  140.6500   68.4640  227.8730 C   0  0  0  0  0  0  0  0  0  0  0  0
  140.7740   69.8550  227.9700 C   0  0  0  0  0  0  0  0  0  0  0  0
  140.9490   71.2360  228.0650 C   0  0  0  0  0  0  0  0  0  0  0  0
  140.7690   71.7650  226.5990 C   0  0  0  0  0  0  0  0  0  0  0  0
  141.1480   70.6710  225.5890 C   0  0  0  0  0  0  0  0  0  0  0  0
  141.3440   71.9250  221.3400 C   0  0  0  0  0  0  0  0  0  0  0  0
  140.9970   71.4870  220.0780 C   0  0  0  0  0  0  0  0  0  0  0  0
  141.8970   71.6090  219.0260 C   0  0  0  0  0  0  0  0  0  0  0  0
  143.1360   72.1790  219.2970 C   0  0  0  0  0  0  0  0  0  0  0  0
  144.0700   72.3220  218.2780 C   0  0  0  0  0  0  0  0  0  0  0  0
  145.2960   72.8870  218.5500 C   0  0  0  0  0  0  0  0  0  0  0  0
  146.1900   73.0160  217.5340 F   0  0  0  0  0  0  0  0  0  0  0  0
  145.6320   73.3220  219.8140 C   0  0  0  0  0  0  0  0  0  0  0  0
  144.7010   73.1750  220.8130 C   0  0  0  0  0  0  0  0  0  0  0  0
  143.4680   72.6140  220.5700 C   0  0  0  0  0  0  0  0  0  0  0  0
  142.5650   72.4740  221.5500 N   0  0  0  0  0  0  0  0  0  0  0  0
  140.2010   69.7010  222.1760 H   0  0  0  0  0  0  0  0  0  0  0  0
  138.7798   71.2641  224.4009 H   0  0  0  0  0  0  0  0  0  0  0  0
  137.8976   70.0542  223.4383 H   0  0  0  0  0  0  0  0  0  0  0  0
  140.0357   67.3885  226.0586 H   0  0  0  0  0  0  0  0  0  0  0  0
  141.7799   67.7674  226.1149 H   0  0  0  0  0  0  0  0  0  0  0  0
  139.6726   68.1355  228.2561 H   0  0  0  0  0  0  0  0  0  0  0  0
  141.4136   67.9391  228.4658 H   0  0  0  0  0  0  0  0  0  0  0  0
  140.1203   69.9861  227.0951 H   0  0  0  0  0  0  0  0  0  0  0  0
  140.8015   69.7761  229.0668 H   0  0  0  0  0  0  0  0  0  0  0  0
  140.1935   71.6773  228.7316 H   0  0  0  0  0  0  0  0  0  0  0  0
  141.9303   71.5021  228.4847 H   0  0  0  0  0  0  0  0  0  0  0  0
  139.7193   72.0547  226.4438 H   0  0  0  0  0  0  0  0  0  0  0  0
  141.4253   72.6349  226.4485 H   0  0  0  0  0  0  0  0  0  0  0  0
  140.9814   71.1006  224.5902 H   0  0  0  0  0  0  0  0  0  0  0  0
  142.1747   70.4174  225.8918 H   0  0  0  0  0  0  0  0  0  0  0  0
  140.0067   71.0407  219.9046 H   0  0  0  0  0  0  0  0  0  0  0  0
  141.6380   71.2663  218.0134 H   0  0  0  0  0  0  0  0  0  0  0  0
  143.8310   71.9853  217.2584 H   0  0  0  0  0  0  0  0  0  0  0  0
  146.6148   73.7727  220.0163 H   0  0  0  0  0  0  0  0  0  0  0  0
  144.9465   73.5134  221.8305 H   0  0  0  0  0  0  0  0  0  0  0  0
  1  2  2  0
  2  3  1  0
  3  4  1  0
  4  5  1  0
  5  6  2  0
  5  7  1  0
  7  8  1  0
  8  9  1  0
  9 10  1  0
 10 11  1  0
 11 12  1  0
 12 13  1  0
  2 14  1  0
 14 15  2  0
 15 16  1  0
 16 17  2  0
 17 18  1  0
 18 19  2  0
 19 20  1  0
 19 21  1  0
 21 22  2  0
 22 23  1  0
 23 24  2  0
 13  7  1  0
 24 14  1  0
 23 17  1  0
  3 25  1  0
  4 26  1  0
  4 27  1  0
  8 28  1  0
  8 29  1  0
  9 30  1  0
  9 31  1  0
 10 32  1  0
 10 33  1  0
 11 34  1  0
 11 35  1  0
 12 36  1  0
 12 37  1  0
 13 38  1  0
 13 39  1  0
 15 40  1  0
 16 41  1  0
 18 42  1  0
 21 43  1  0
 22 44  1  0
M  END
>  <smiles>  (33) 
O=C(NCC(=O)N1CCCCCC1)c1ccc2cc(F)ccc2n1

>  <score_type>  (33) 
oracle

>  <origin>  (33) 
autodockgpu

>  <m_score__min__energy>  (33) 
-5.5700000000000003

>  <m_primary>  (33) 
energy

>  <rmsd>  (33) 
8.527020912208883

>  <m_score__min__rmsd>  (33) 
8.527020912208883

>  <meeko>  (33) 
{"free_energy": -4.77, "intermolecular_energy": -7.45, "internal_energy": -1.04, "cluster_size": 4, "cluster_id": 3, "rank_in_cluster": 1}

>  <energy>  (33) 
-3.69

>  <cluster_rmsd>  (33) 
1.56

>  <cluster>  (33) 
4

$$$$

     RDKit          3D

 44 46  0  0  0  0  0  0  0  0999 V2000
  141.0670   72.0220  221.3140 O   0  0  0  0  0  0  0  0  0  0  0  0
  140.2870   72.3330  222.2400 C   0  0  0  0  0  0  0  0  0  0  0  0
  139.5520   73.5480  222.1130 N   0  0  0  0  0  0  0  0  0  0  0  0
  139.7070   74.4030  220.9340 C   0  0  0  0  0  0  0  0  0  0  0  0
  140.4660   75.5820  221.3490 C   0  0  0  0  0  0  0  0  0  0  0  0
  141.6380   75.7540  220.9030 O   0  0  0  0  0  0  0  0  0  0  0  0
  139.9820   76.5860  222.2410 N   0  0  0  0  0  0  0  0  0  0  0  0
  141.0100   77.6530  222.4570 C   0  0  0  0  0  0  0  0  0  0  0  0
  140.4050   79.0130  221.9790 C   0  0  0  0  0  0  0  0  0  0  0  0
  139.0180   78.8170  221.9840 C   0  0  0  0  0  0  0  0  0  0  0  0
  137.6390   78.6150  222.0400 C   0  0  0  0  0  0  0  0  0  0  0  0
  137.4630   77.0600  222.0750 C   0  0  0  0  0  0  0  0  0  0  0  0
  138.6830   76.4010  222.7390 C   0  0  0  0  0  0  0  0  0  0  0  0
  140.1100   71.4980  223.4320 C   0  0  0  0  0  0  0  0  0  0  0  0
  139.4860   70.2730  223.3050 C   0  0  0  0  0  0  0  0  0  0  0  0
  139.3060   69.4630  224.4210 C   0  0  0  0  0  0  0  0  0  0  0  0
  139.7720   69.9340  225.6430 C   0  0  0  0  0  0  0  0  0  0  0  0
  139.6150   69.1600  226.7870 C   0  0  0  0  0  0  0  0  0  0  0  0
  140.0790   69.6280  227.9960 C   0  0  0  0  0  0  0  0  0  0  0  0
  139.9130   68.8510  229.0990 F   0  0  0  0  0  0  0  0  0  0  0  0
  140.7010   70.8530  228.1130 C   0  0  0  0  0  0  0  0  0  0  0  0
  140.8490   71.6080  226.9740 C   0  0  0  0  0  0  0  0  0  0  0  0
  140.3970   71.1660  225.7530 C   0  0  0  0  0  0  0  0  0  0  0  0
  140.5460   71.9080  224.6470 N   0  0  0  0  0  0  0  0  0  0  0  0
  138.9080   73.7840  222.8990 H   0  0  0  0  0  0  0  0  0  0  0  0
  140.2520   73.8626  220.1460 H   0  0  0  0  0  0  0  0  0  0  0  0
  138.7253   74.6934  220.5316 H   0  0  0  0  0  0  0  0  0  0  0  0
  141.2660   77.7135  223.5251 H   0  0  0  0  0  0  0  0  0  0  0  0
  141.9242   77.4221  221.8905 H   0  0  0  0  0  0  0  0  0  0  0  0
  140.6830   79.8232  222.6691 H   0  0  0  0  0  0  0  0  0  0  0  0
  140.7768   79.3030  220.9852 H   0  0  0  0  0  0  0  0  0  0  0  0
  138.8679   79.7822  221.4782 H   0  0  0  0  0  0  0  0  0  0  0  0
  139.1699   77.7380  221.8332 H   0  0  0  0  0  0  0  0  0  0  0  0
  137.2169   79.0731  222.9466 H   0  0  0  0  0  0  0  0  0  0  0  0
  137.1176   79.0725  221.1862 H   0  0  0  0  0  0  0  0  0  0  0  0
  136.5582   76.8098  222.6484 H   0  0  0  0  0  0  0  0  0  0  0  0
  137.3706   76.6865  221.0445 H   0  0  0  0  0  0  0  0  0  0  0  0
  138.6974   76.7548  223.7805 H   0  0  0  0  0  0  0  0  0  0  0  0
  138.5072   75.3326  222.5452 H   0  0  0  0  0  0  0  0  0  0  0  0
  139.1307   69.9372  222.3196 H   0  0  0  0  0  0  0  0  0  0  0  0
  138.8120   68.4835  224.3396 H   0  0  0  0  0  0  0  0  0  0  0  0
  139.1224   68.1783  226.7267 H   0  0  0  0  0  0  0  0  0  0  0  0
  141.0666   71.2141  229.0856 H   0  0  0  0  0  0  0  0  0  0  0  0
  141.3410   72.5896  227.0409 H   0  0  0  0  0  0  0  0  0  0  0  0
  1  2  2  0
  2  3  1  0
  3  4  1  0
  4  5  1  0
  5  6  2  0
  5  7  1  0
  7  8  1  0
  8  9  1  0
  9 10  1  0
 10 11  1  0
 11 12  1  0
 12 13  1  0
  2 14  1  0
 14 15  2  0
 15 16  1  0
 16 17  2  0
 17 18  1  0
 18 19  2  0
 19 20  1  0
 19 21  1  0
 21 22  2  0
 22 23  1  0
 23 24  2  0
 13  7  1  0
 24 14  1  0
 23 17  1  0
  3 25  1  0
  4 26  1  0
  4 27  1  0
  8 28  1  0
  8 29  1  0
  9 30  1  0
  9 31  1  0
 10 32  1  0
 10 33  1  0
 11 34  1  0
 11 35  1  0
 12 36  1  0
 12 37  1  0
 13 38  1  0
 13 39  1  0
 15 40  1  0
 16 41  1  0
 18 42  1  0
 21 43  1  0
 22 44  1  0
M  END
>  <smiles>  (34) 
O=C(NCC(=O)N1CCCCCC1)c1ccc2cc(F)ccc2n1

>  <score_type>  (34) 
oracle

>  <origin>  (34) 
autodockgpu

>  <m_score__min__energy>  (34) 
-5.5700000000000003

>  <m_primary>  (34) 
energy

>  <rmsd>  (34) 
2.952310684549217

>  <m_score__min__rmsd>  (34) 
2.952310684549217

>  <meeko>  (34) 
{"free_energy": -4.88, "intermolecular_energy": -7.56, "internal_energy": -0.96, "cluster_size": 16, "cluster_id": 2, "rank_in_cluster": 4}

>  <energy>  (34) 
-3.58

>  <cluster_rmsd>  (34) 
1.96

>  <cluster>  (34) 
4

$$$$

     RDKit          3D

 44 46  0  0  0  0  0  0  0  0999 V2000
  139.7090   74.8290  222.1710 O   0  0  0  0  0  0  0  0  0  0  0  0
  140.8390   75.0890  221.7050 C   0  0  0  0  0  0  0  0  0  0  0  0
  141.2770   76.4460  221.7340 N   0  0  0  0  0  0  0  0  0  0  0  0
  140.4280   77.5000  222.2940 C   0  0  0  0  0  0  0  0  0  0  0  0
  141.2530   78.7010  222.4180 C   0  0  0  0  0  0  0  0  0  0  0  0
  142.4630   78.6630  222.0510 O   0  0  0  0  0  0  0  0  0  0  0  0
  140.7930   79.9520  222.9310 N   0  0  0  0  0  0  0  0  0  0  0  0
  141.8900   80.9710  222.9230 C   0  0  0  0  0  0  0  0  0  0  0  0
  141.4410   82.1570  222.0060 C   0  0  0  0  0  0  0  0  0  0  0  0
  140.0420   82.1150  222.0160 C   0  0  0  0  0  0  0  0  0  0  0  0
  138.6500   82.0240  222.0100 C   0  0  0  0  0  0  0  0  0  0  0  0
  138.3460   80.5350  222.4150 C   0  0  0  0  0  0  0  0  0  0  0  0
  139.4510   80.0000  223.3400 C   0  0  0  0  0  0  0  0  0  0  0  0
  141.7120   74.0560  221.1380 C   0  0  0  0  0  0  0  0  0  0  0  0
  141.1540   72.8670  220.7140 C   0  0  0  0  0  0  0  0  0  0  0  0
  141.9610   71.8720  220.1730 C   0  0  0  0  0  0  0  0  0  0  0  0
  143.3240   72.1240  220.0820 C   0  0  0  0  0  0  0  0  0  0  0  0
  144.1720   71.1600  219.5480 C   0  0  0  0  0  0  0  0  0  0  0  0
  145.5220   71.4130  219.4590 C   0  0  0  0  0  0  0  0  0  0  0  0
  146.3280   70.4530  218.9320 F   0  0  0  0  0  0  0  0  0  0  0  0
  146.0700   72.6040  219.8850 C   0  0  0  0  0  0  0  0  0  0  0  0
  145.2220   73.5490  220.4100 C   0  0  0  0  0  0  0  0  0  0  0  0
  143.8690   73.3240  220.5120 C   0  0  0  0  0  0  0  0  0  0  0  0
  143.0480   74.2500  221.0260 N   0  0  0  0  0  0  0  0  0  0  0  0
  142.2240   76.6360  221.3400 H   0  0  0  0  0  0  0  0  0  0  0  0
  139.5777   77.6946  221.6238 H   0  0  0  0  0  0  0  0  0  0  0  0
  140.0275   77.1991  223.2733 H   0  0  0  0  0  0  0  0  0  0  0  0
  142.0679   81.3361  223.9453 H   0  0  0  0  0  0  0  0  0  0  0  0
  142.8221   80.5264  222.5441 H   0  0  0  0  0  0  0  0  0  0  0  0
  141.8017   83.1149  222.4089 H   0  0  0  0  0  0  0  0  0  0  0  0
  141.8491   82.0690  220.9883 H   0  0  0  0  0  0  0  0  0  0  0  0
  140.0280   82.4411  223.0665 H   0  0  0  0  0  0  0  0  0  0  0  0
  140.0243   82.4546  220.9699 H   0  0  0  0  0  0  0  0  0  0  0  0
  138.2124   82.7215  222.7394 H   0  0  0  0  0  0  0  0  0  0  0  0
  138.2198   82.2856  221.0320 H   0  0  0  0  0  0  0  0  0  0  0  0
  137.3802   80.4912  222.9397 H   0  0  0  0  0  0  0  0  0  0  0  0
  138.3082   79.9165  221.5061 H   0  0  0  0  0  0  0  0  0  0  0  0
  139.4253   80.6231  224.2461 H   0  0  0  0  0  0  0  0  0  0  0  0
  139.1922   78.9342  223.4240 H   0  0  0  0  0  0  0  0  0  0  0  0
  140.0696   72.7062  220.8041 H   0  0  0  0  0  0  0  0  0  0  0  0
  141.5346   70.9182  219.8290 H   0  0  0  0  0  0  0  0  0  0  0  0
  143.7657   70.1995  219.1983 H   0  0  0  0  0  0  0  0  0  0  0  0
  147.1511   72.7917  219.8071 H   0  0  0  0  0  0  0  0  0  0  0  0
  145.6348   74.5078  220.7568 H   0  0  0  0  0  0  0  0  0  0  0  0
  1  2  2  0
  2  3  1  0
  3  4  1  0
  4  5  1  0
  5  6  2  0
  5  7  1  0
  7  8  1  0
  8  9  1  0
  9 10  1  0
 10 11  1  0
 11 12  1  0
 12 13  1  0
  2 14  1  0
 14 15  2  0
 15 16  1  0
 16 17  2  0
 17 18  1  0
 18 19  2  0
 19 20  1  0
 19 21  1  0
 21 22  2  0
 22 23  1  0
 23 24  2  0
 13  7  1  0
 24 14  1  0
 23 17  1  0
  3 25  1  0
  4 26  1  0
  4 27  1  0
  8 28  1  0
  8 29  1  0
  9 30  1  0
  9 31  1  0
 10 32  1  0
 10 33  1  0
 11 34  1  0
 11 35  1  0
 12 36  1  0
 12 37  1  0
 13 38  1  0
 13 39  1  0
 15 40  1  0
 16 41  1  0
 18 42  1  0
 21 43  1  0
 22 44  1  0
M  END
>  <smiles>  (35) 
O=C(NCC(=O)N1CCCCCC1)c1ccc2cc(F)ccc2n1

>  <score_type>  (35) 
oracle

>  <origin>  (35) 
autodockgpu

>  <m_score__min__energy>  (35) 
-5.5700000000000003

>  <m_primary>  (35) 
energy

>  <rmsd>  (35) 
6.9009226013295315

>  <m_score__min__rmsd>  (35) 
6.9009226013295315

>  <meeko>  (35) 
{"free_energy": -3.82, "intermolecular_energy": -6.51, "internal_energy": -1.7, "cluster_size": 6, "cluster_id": 5, "rank_in_cluster": 4}

>  <energy>  (35) 
-4.31

>  <cluster_rmsd>  (35) 
0.0

>  <cluster>  (35) 
5

$$$$

     RDKit          3D

 44 46  0  0  0  0  0  0  0  0999 V2000
  133.9140   69.7560  226.8540 O   0  0  0  0  0  0  0  0  0  0  0  0
  134.1710   70.8620  226.3290 C   0  0  0  0  0  0  0  0  0  0  0  0
  135.2200   70.9140  225.3650 N   0  0  0  0  0  0  0  0  0  0  0  0
  135.9700   69.7100  225.0000 C   0  0  0  0  0  0  0  0  0  0  0  0
  137.0490   70.1250  224.1040 C   0  0  0  0  0  0  0  0  0  0  0  0
  136.7880   70.8940  223.1340 O   0  0  0  0  0  0  0  0  0  0  0  0
  138.4130   69.7230  224.2360 N   0  0  0  0  0  0  0  0  0  0  0  0
  139.2560   70.3240  223.1550 C   0  0  0  0  0  0  0  0  0  0  0  0
  140.3410   71.2250  223.8300 C   0  0  0  0  0  0  0  0  0  0  0  0
  140.5010   70.6990  225.1170 C   0  0  0  0  0  0  0  0  0  0  0  0
  140.6120   70.1600  226.4000 C   0  0  0  0  0  0  0  0  0  0  0  0
  139.2570   69.4070  226.6410 C   0  0  0  0  0  0  0  0  0  0  0  0
  138.7080   68.8690  225.3100 C   0  0  0  0  0  0  0  0  0  0  0  0
  133.4390   72.0840  226.6720 C   0  0  0  0  0  0  0  0  0  0  0  0
  132.1800   71.9760  227.2290 C   0  0  0  0  0  0  0  0  0  0  0  0
  131.4650   73.1210  227.5630 C   0  0  0  0  0  0  0  0  0  0  0  0
  132.0630   74.3520  227.3160 C   0  0  0  0  0  0  0  0  0  0  0  0
  131.3880   75.5250  227.6330 C   0  0  0  0  0  0  0  0  0  0  0  0
  131.9830   76.7420  227.3880 C   0  0  0  0  0  0  0  0  0  0  0  0
  131.3000   77.8730  227.7080 F   0  0  0  0  0  0  0  0  0  0  0  0
  133.2410   76.8390  226.8330 C   0  0  0  0  0  0  0  0  0  0  0  0
  133.8970   75.6720  226.5240 C   0  0  0  0  0  0  0  0  0  0  0  0
  133.3280   74.4420  226.7580 C   0  0  0  0  0  0  0  0  0  0  0  0
  133.9750   73.3090  226.4530 N   0  0  0  0  0  0  0  0  0  0  0  0
  135.4150   71.8480  224.9420 H   0  0  0  0  0  0  0  0  0  0  0  0
  136.3893   69.2398  225.9017 H   0  0  0  0  0  0  0  0  0  0  0  0
  135.3144   68.9772  224.5070 H   0  0  0  0  0  0  0  0  0  0  0  0
  139.7423   69.5263  222.5744 H   0  0  0  0  0  0  0  0  0  0  0  0
  138.6331   70.9227  222.4741 H   0  0  0  0  0  0  0  0  0  0  0  0
  141.2873   71.1743  223.2715 H   0  0  0  0  0  0  0  0  0  0  0  0
  140.0433   72.2837  223.8510 H   0  0  0  0  0  0  0  0  0  0  0  0
  141.3487   70.0875  224.7742 H   0  0  0  0  0  0  0  0  0  0  0  0
  140.2089   71.6675  225.5491 H   0  0  0  0  0  0  0  0  0  0  0  0
  141.4586   69.4597  226.4535 H   0  0  0  0  0  0  0  0  0  0  0  0
  140.7959   70.9341  227.1595 H   0  0  0  0  0  0  0  0  0  0  0  0
  139.4252   68.5672  227.3313 H   0  0  0  0  0  0  0  0  0  0  0  0
  138.5279   70.1074  227.0745 H   0  0  0  0  0  0  0  0  0  0  0  0
  139.4508   68.1483  224.9374 H   0  0  0  0  0  0  0  0  0  0  0  0
  137.7120   68.5016  225.5982 H   0  0  0  0  0  0  0  0  0  0  0  0
  131.7422   70.9830  227.4087 H   0  0  0  0  0  0  0  0  0  0  0  0
  130.4609   73.0553  228.0073 H   0  0  0  0  0  0  0  0  0  0  0  0
  130.3828   75.4810  228.0777 H   0  0  0  0  0  0  0  0  0  0  0  0
  133.7044   77.8185  226.6437 H   0  0  0  0  0  0  0  0  0  0  0  0
  134.9016   75.7227  226.0787 H   0  0  0  0  0  0  0  0  0  0  0  0
  1  2  2  0
  2  3  1  0
  3  4  1  0
  4  5  1  0
  5  6  2  0
  5  7  1  0
  7  8  1  0
  8  9  1  0
  9 10  1  0
 10 11  1  0
 11 12  1  0
 12 13  1  0
  2 14  1  0
 14 15  2  0
 15 16  1  0
 16 17  2  0
 17 18  1  0
 18 19  2  0
 19 20  1  0
 19 21  1  0
 21 22  2  0
 22 23  1  0
 23 24  2  0
 13  7  1  0
 24 14  1  0
 23 17  1  0
  3 25  1  0
  4 26  1  0
  4 27  1  0
  8 28  1  0
  8 29  1  0
  9 30  1  0
  9 31  1  0
 10 32  1  0
 10 33  1  0
 11 34  1  0
 11 35  1  0
 12 36  1  0
 12 37  1  0
 13 38  1  0
 13 39  1  0
 15 40  1  0
 16 41  1  0
 18 42  1  0
 21 43  1  0
 22 44  1  0
M  END
>  <smiles>  (36) 
O=C(NCC(=O)N1CCCCCC1)c1ccc2cc(F)ccc2n1

>  <score_type>  (36) 
oracle

>  <origin>  (36) 
autodockgpu

>  <m_score__min__energy>  (36) 
-5.5700000000000003

>  <m_primary>  (36) 
energy

>  <rmsd>  (36) 
8.79731758889657

>  <m_score__min__rmsd>  (36) 
8.79731758889657

>  <meeko>  (36) 
{"free_energy": -4.31, "intermolecular_energy": -6.99, "internal_energy": -1.43, "cluster_size": 1, "cluster_id": 6, "rank_in_cluster": 1}

>  <energy>  (36) 
-4.26

>  <cluster_rmsd>  (36) 
0.29

>  <cluster>  (36) 
5

$$$$

     RDKit          3D

 44 46  0  0  0  0  0  0  0  0999 V2000
  139.5840   74.6650  222.0070 O   0  0  0  0  0  0  0  0  0  0  0  0
  140.7580   74.9230  221.6640 C   0  0  0  0  0  0  0  0  0  0  0  0
  141.2030   76.2740  221.7750 N   0  0  0  0  0  0  0  0  0  0  0  0
  140.3130   77.3220  222.2770 C   0  0  0  0  0  0  0  0  0  0  0  0
  141.0700   78.5740  222.2700 C   0  0  0  0  0  0  0  0  0  0  0  0
  142.1660   78.6330  221.6410 O   0  0  0  0  0  0  0  0  0  0  0  0
  140.6630   79.7720  222.9320 N   0  0  0  0  0  0  0  0  0  0  0  0
  141.6650   80.8650  222.7270 C   0  0  0  0  0  0  0  0  0  0  0  0
  140.9510   82.0440  221.9860 C   0  0  0  0  0  0  0  0  0  0  0  0
  139.5910   81.8850  222.2740 C   0  0  0  0  0  0  0  0  0  0  0  0
  138.2470   81.6970  222.6020 C   0  0  0  0  0  0  0  0  0  0  0  0
  138.1300   80.1920  223.0000 C   0  0  0  0  0  0  0  0  0  0  0  0
  139.4470   79.7130  223.6310 C   0  0  0  0  0  0  0  0  0  0  0  0
  141.6740   73.8960  221.1580 C   0  0  0  0  0  0  0  0  0  0  0  0
  141.1990   72.6140  220.9660 C   0  0  0  0  0  0  0  0  0  0  0  0
  142.0480   71.6220  220.4870 C   0  0  0  0  0  0  0  0  0  0  0  0
  143.3660   71.9720  220.2180 C   0  0  0  0  0  0  0  0  0  0  0  0
  144.2520   71.0150  219.7380 C   0  0  0  0  0  0  0  0  0  0  0  0
  145.5570   71.3650  219.4730 C   0  0  0  0  0  0  0  0  0  0  0  0
  146.4020   70.4090  219.0040 F   0  0  0  0  0  0  0  0  0  0  0  0
  146.0210   72.6490  219.6680 C   0  0  0  0  0  0  0  0  0  0  0  0
  145.1350   73.5850  220.1430 C   0  0  0  0  0  0  0  0  0  0  0  0
  143.8250   73.2640  220.4170 C   0  0  0  0  0  0  0  0  0  0  0  0
  142.9680   74.1840  220.8800 N   0  0  0  0  0  0  0  0  0  0  0  0
  142.1870   76.4620  221.4810 H   0  0  0  0  0  0  0  0  0  0  0  0
  139.4312   77.4113  221.6255 H   0  0  0  0  0  0  0  0  0  0  0  0
  139.9633   77.0834  223.2922 H   0  0  0  0  0  0  0  0  0  0  0  0
  142.0442   81.2109  223.6999 H   0  0  0  0  0  0  0  0  0  0  0  0
  142.5139   80.4980  222.1314 H   0  0  0  0  0  0  0  0  0  0  0  0
  141.3145   83.0122  222.3607 H   0  0  0  0  0  0  0  0  0  0  0  0
  141.1476   82.0300  220.9038 H   0  0  0  0  0  0  0  0  0  0  0  0
  139.4560   82.9765  222.2964 H   0  0  0  0  0  0  0  0  0  0  0  0
  139.5607   80.9892  221.6364 H   0  0  0  0  0  0  0  0  0  0  0  0
  137.9618   82.3425  223.4458 H   0  0  0  0  0  0  0  0  0  0  0  0
  137.5797   81.9545  221.7663 H   0  0  0  0  0  0  0  0  0  0  0  0
  137.3123   80.0692  223.7255 H   0  0  0  0  0  0  0  0  0  0  0  0
  137.9219   79.5949  222.0999 H   0  0  0  0  0  0  0  0  0  0  0  0
  139.5865   80.3080  224.5456 H   0  0  0  0  0  0  0  0  0  0  0  0
  139.2822   78.6294  223.7243 H   0  0  0  0  0  0  0  0  0  0  0  0
  140.1488   72.3771  221.1919 H   0  0  0  0  0  0  0  0  0  0  0  0
  141.6885   70.5949  220.3264 H   0  0  0  0  0  0  0  0  0  0  0  0
  143.9122   69.9823  219.5705 H   0  0  0  0  0  0  0  0  0  0  0  0
  147.0660   72.9148  219.4503 H   0  0  0  0  0  0  0  0  0  0  0  0
  145.4808   74.6160  220.3084 H   0  0  0  0  0  0  0  0  0  0  0  0
  1  2  2  0
  2  3  1  0
  3  4  1  0
  4  5  1  0
  5  6  2  0
  5  7  1  0
  7  8  1  0
  8  9  1  0
  9 10  1  0
 10 11  1  0
 11 12  1  0
 12 13  1  0
  2 14  1  0
 14 15  2  0
 15 16  1  0
 16 17  2  0
 17 18  1  0
 18 19  2  0
 19 20  1  0
 19 21  1  0
 21 22  2  0
 22 23  1  0
 23 24  2  0
 13  7  1  0
 24 14  1  0
 23 17  1  0
  3 25  1  0
  4 26  1  0
  4 27  1  0
  8 28  1  0
  8 29  1  0
  9 30  1  0
  9 31  1  0
 10 32  1  0
 10 33  1  0
 11 34  1  0
 11 35  1  0
 12 36  1  0
 12 37  1  0
 13 38  1  0
 13 39  1  0
 15 40  1  0
 16 41  1  0
 18 42  1  0
 21 43  1  0
 22 44  1  0
M  END
>  <smiles>  (37) 
O=C(NCC(=O)N1CCCCCC1)c1ccc2cc(F)ccc2n1

>  <score_type>  (37) 
oracle

>  <origin>  (37) 
autodockgpu

>  <m_score__min__energy>  (37) 
-5.5700000000000003

>  <m_primary>  (37) 
energy

>  <rmsd>  (37) 
6.853382598598136

>  <m_score__min__rmsd>  (37) 
6.853382598598136

>  <meeko>  (37) 
{"free_energy": -3.18, "intermolecular_energy": -5.87, "internal_energy": -1.75, "cluster_size": 6, "cluster_id": 5, "rank_in_cluster": 6}

>  <energy>  (37) 
-4.07

>  <cluster_rmsd>  (37) 
0.56

>  <cluster>  (37) 
5

$$$$

     RDKit          3D

 44 46  0  0  0  0  0  0  0  0999 V2000
  139.4700   71.2530  221.0740 O   0  0  0  0  0  0  0  0  0  0  0  0
  139.5280   71.7580  222.2170 C   0  0  0  0  0  0  0  0  0  0  0  0
  139.5180   73.1800  222.3180 N   0  0  0  0  0  0  0  0  0  0  0  0
  139.4420   74.0210  221.1210 C   0  0  0  0  0  0  0  0  0  0  0  0
  139.6320   75.4060  221.5510 C   0  0  0  0  0  0  0  0  0  0  0  0
  139.4280   75.7130  222.7610 O   0  0  0  0  0  0  0  0  0  0  0  0
  140.0410   76.4720  220.6940 N   0  0  0  0  0  0  0  0  0  0  0  0
  140.1360   77.7610  221.4500 C   0  0  0  0  0  0  0  0  0  0  0  0
  141.5370   78.3930  221.1570 C   0  0  0  0  0  0  0  0  0  0  0  0
  142.1390   77.5280  220.2350 C   0  0  0  0  0  0  0  0  0  0  0  0
  142.7600   76.7080  219.2920 C   0  0  0  0  0  0  0  0  0  0  0  0
  141.6500   75.6850  218.8550 C   0  0  0  0  0  0  0  0  0  0  0  0
  140.2680   76.1380  219.3500 C   0  0  0  0  0  0  0  0  0  0  0  0
  139.6040   70.9430  223.4330 C   0  0  0  0  0  0  0  0  0  0  0  0
  139.1670   69.6340  223.3910 C   0  0  0  0  0  0  0  0  0  0  0  0
  139.2290   68.8410  224.5310 C   0  0  0  0  0  0  0  0  0  0  0  0
  139.7390   69.4150  225.6900 C   0  0  0  0  0  0  0  0  0  0  0  0
  139.8210   68.6620  226.8560 C   0  0  0  0  0  0  0  0  0  0  0  0
  140.3270   69.2330  228.0020 C   0  0  0  0  0  0  0  0  0  0  0  0
  140.3970   68.4740  229.1280 F   0  0  0  0  0  0  0  0  0  0  0  0
  140.7620   70.5400  228.0340 C   0  0  0  0  0  0  0  0  0  0  0  0
  140.6750   71.2740  226.8750 C   0  0  0  0  0  0  0  0  0  0  0  0
  140.1740   70.7300  225.7150 C   0  0  0  0  0  0  0  0  0  0  0  0
  140.0930   71.4520  224.5890 N   0  0  0  0  0  0  0  0  0  0  0  0
  139.5670   73.5760  223.2820 H   0  0  0  0  0  0  0  0  0  0  0  0
  140.2311   73.7359  220.4097 H   0  0  0  0  0  0  0  0  0  0  0  0
  138.4708   73.8983  220.6193 H   0  0  0  0  0  0  0  0  0  0  0  0
  139.3413   78.4463  221.1202 H   0  0  0  0  0  0  0  0  0  0  0  0
  140.0169   77.5804  222.5285 H   0  0  0  0  0  0  0  0  0  0  0  0
  141.4249   79.3992  220.7270 H   0  0  0  0  0  0  0  0  0  0  0  0
  142.1385   78.5063  222.0710 H   0  0  0  0  0  0  0  0  0  0  0  0
  142.6101   76.9640  221.0535 H   0  0  0  0  0  0  0  0  0  0  0  0
  141.2522   77.6003  219.5882 H   0  0  0  0  0  0  0  0  0  0  0  0
  143.1026   77.2995  218.4301 H   0  0  0  0  0  0  0  0  0  0  0  0
  143.6493   76.2058  219.7005 H   0  0  0  0  0  0  0  0  0  0  0  0
  141.6353   75.6154  217.7573 H   0  0  0  0  0  0  0  0  0  0  0  0
  141.8796   74.7042  219.2969 H   0  0  0  0  0  0  0  0  0  0  0  0
  140.0046   77.0287  218.7607 H   0  0  0  0  0  0  0  0  0  0  0  0
  139.6645   75.2263  219.2292 H   0  0  0  0  0  0  0  0  0  0  0  0
  138.7691   69.2179  222.4537 H   0  0  0  0  0  0  0  0  0  0  0  0
  138.8865   67.7958  224.5166 H   0  0  0  0  0  0  0  0  0  0  0  0
  139.4832   67.6152  226.8628 H   0  0  0  0  0  0  0  0  0  0  0  0
  141.1657   70.9817  228.9570 H   0  0  0  0  0  0  0  0  0  0  0  0
  141.0138   72.3205  226.8751 H   0  0  0  0  0  0  0  0  0  0  0  0
  1  2  2  0
  2  3  1  0
  3  4  1  0
  4  5  1  0
  5  6  2  0
  5  7  1  0
  7  8  1  0
  8  9  1  0
  9 10  1  0
 10 11  1  0
 11 12  1  0
 12 13  1  0
  2 14  1  0
 14 15  2  0
 15 16  1  0
 16 17  2  0
 17 18  1  0
 18 19  2  0
 19 20  1  0
 19 21  1  0
 21 22  2  0
 22 23  1  0
 23 24  2  0
 13  7  1  0
 24 14  1  0
 23 17  1  0
  3 25  1  0
  4 26  1  0
  4 27  1  0
  8 28  1  0
  8 29  1  0
  9 30  1  0
  9 31  1  0
 10 32  1  0
 10 33  1  0
 11 34  1  0
 11 35  1  0
 12 36  1  0
 12 37  1  0
 13 38  1  0
 13 39  1  0
 15 40  1  0
 16 41  1  0
 18 42  1  0
 21 43  1  0
 22 44  1  0
M  END
>  <smiles>  (38) 
O=C(NCC(=O)N1CCCCCC1)c1ccc2cc(F)ccc2n1

>  <score_type>  (38) 
oracle

>  <origin>  (38) 
autodockgpu

>  <m_score__min__energy>  (38) 
-5.5700000000000003

>  <m_primary>  (38) 
energy

>  <rmsd>  (38) 
1.6815107036509644

>  <m_score__min__rmsd>  (38) 
1.6815107036509644

>  <meeko>  (38) 
{"free_energy": -3.88, "intermolecular_energy": -6.56, "internal_energy": -1.7, "cluster_size": 16, "cluster_id": 2, "rank_in_cluster": 15}

>  <energy>  (38) 
-3.82

>  <cluster_rmsd>  (38) 
1.91

>  <cluster>  (38) 
5

$$$$

     RDKit          3D

 44 46  0  0  0  0  0  0  0  0999 V2000
  141.0240   71.9540  221.2810 O   0  0  0  0  0  0  0  0  0  0  0  0
  140.4600   72.3720  222.3160 C   0  0  0  0  0  0  0  0  0  0  0  0
  140.0190   73.7280  222.3320 N   0  0  0  0  0  0  0  0  0  0  0  0
  140.2210   74.6010  221.1730 C   0  0  0  0  0  0  0  0  0  0  0  0
  140.4820   75.9470  221.6830 C   0  0  0  0  0  0  0  0  0  0  0  0
  139.8400   76.3630  222.6900 O   0  0  0  0  0  0  0  0  0  0  0  0
  141.4290   76.8570  221.1230 N   0  0  0  0  0  0  0  0  0  0  0  0
  141.4460   78.1470  221.8820 C   0  0  0  0  0  0  0  0  0  0  0  0
  141.0660   79.2970  220.8920 C   0  0  0  0  0  0  0  0  0  0  0  0
  141.3850   78.8030  219.6210 C   0  0  0  0  0  0  0  0  0  0  0  0
  141.6640   78.2770  218.3590 C   0  0  0  0  0  0  0  0  0  0  0  0
  141.6980   76.7300  218.5730 C   0  0  0  0  0  0  0  0  0  0  0  0
  142.1440   76.4000  220.0060 C   0  0  0  0  0  0  0  0  0  0  0  0
  140.2430   71.5240  223.4910 C   0  0  0  0  0  0  0  0  0  0  0  0
  139.5910   70.3170  223.3340 C   0  0  0  0  0  0  0  0  0  0  0  0
  139.3740   69.4940  224.4340 C   0  0  0  0  0  0  0  0  0  0  0  0
  139.8310   69.9340  225.6710 C   0  0  0  0  0  0  0  0  0  0  0  0
  139.6370   69.1460  226.7990 C   0  0  0  0  0  0  0  0  0  0  0  0
  140.0920   69.5840  228.0230 C   0  0  0  0  0  0  0  0  0  0  0  0
  139.8890   68.7940  229.1100 F   0  0  0  0  0  0  0  0  0  0  0  0
  140.7430   70.7910  228.1690 C   0  0  0  0  0  0  0  0  0  0  0  0
  140.9280   71.5600  227.0460 C   0  0  0  0  0  0  0  0  0  0  0  0
  140.4840   71.1480  225.8100 C   0  0  0  0  0  0  0  0  0  0  0  0
  140.6690   71.9040  224.7190 N   0  0  0  0  0  0  0  0  0  0  0  0
  139.5520   74.0530  223.2060 H   0  0  0  0  0  0  0  0  0  0  0  0
  141.0794   74.2494  220.5818 H   0  0  0  0  0  0  0  0  0  0  0  0
  139.3341   74.5961  220.5223 H   0  0  0  0  0  0  0  0  0  0  0  0
  140.7161   78.1059  222.7039 H   0  0  0  0  0  0  0  0  0  0  0  0
  142.4439   78.3253  222.3090 H   0  0  0  0  0  0  0  0  0  0  0  0
  139.9921   79.5257  220.9593 H   0  0  0  0  0  0  0  0  0  0  0  0
  141.6022   80.2304  221.1184 H   0  0  0  0  0  0  0  0  0  0  0  0
  141.3024   79.8136  219.1945 H   0  0  0  0  0  0  0  0  0  0  0  0
  142.0710   78.0737  220.0766 H   0  0  0  0  0  0  0  0  0  0  0  0
  140.8770   78.5522  217.6414 H   0  0  0  0  0  0  0  0  0  0  0  0
  142.6091   78.6612  217.9476 H   0  0  0  0  0  0  0  0  0  0  0  0
  140.6927   76.3177  218.4017 H   0  0  0  0  0  0  0  0  0  0  0  0
  142.4128   76.2862  217.8644 H   0  0  0  0  0  0  0  0  0  0  0  0
  142.1641   75.3026  220.0790 H   0  0  0  0  0  0  0  0  0  0  0  0
  143.0907   76.9536  220.0906 H   0  0  0  0  0  0  0  0  0  0  0  0
  139.2429   70.0060  222.3379 H   0  0  0  0  0  0  0  0  0  0  0  0
  138.8584   68.5280  224.3288 H   0  0  0  0  0  0  0  0  0  0  0  0
  139.1226   68.1773  226.7148 H   0  0  0  0  0  0  0  0  0  0  0  0
  141.1024   71.1270  229.1528 H   0  0  0  0  0  0  0  0  0  0  0  0
  141.4430   72.5277  227.1366 H   0  0  0  0  0  0  0  0  0  0  0  0
  1  2  2  0
  2  3  1  0
  3  4  1  0
  4  5  1  0
  5  6  2  0
  5  7  1  0
  7  8  1  0
  8  9  1  0
  9 10  1  0
 10 11  1  0
 11 12  1  0
 12 13  1  0
  2 14  1  0
 14 15  2  0
 15 16  1  0
 16 17  2  0
 17 18  1  0
 18 19  2  0
 19 20  1  0
 19 21  1  0
 21 22  2  0
 22 23  1  0
 23 24  2  0
 13  7  1  0
 24 14  1  0
 23 17  1  0
  3 25  1  0
  4 26  1  0
  4 27  1  0
  8 28  1  0
  8 29  1  0
  9 30  1  0
  9 31  1  0
 10 32  1  0
 10 33  1  0
 11 34  1  0
 11 35  1  0
 12 36  1  0
 12 37  1  0
 13 38  1  0
 13 39  1  0
 15 40  1  0
 16 41  1  0
 18 42  1  0
 21 43  1  0
 22 44  1  0
M  END
>  <smiles>  (39) 
O=C(NCC(=O)N1CCCCCC1)c1ccc2cc(F)ccc2n1

>  <score_type>  (39) 
oracle

>  <origin>  (39) 
autodockgpu

>  <m_score__min__energy>  (39) 
-5.5700000000000003

>  <m_primary>  (39) 
energy

>  <rmsd>  (39) 
2.23659902958522

>  <m_score__min__rmsd>  (39) 
2.23659902958522

>  <meeko>  (39) 
{"free_energy": -4.71, "intermolecular_energy": -7.4, "internal_energy": -1.32, "cluster_size": 16, "cluster_id": 2, "rank_in_cluster": 8}

>  <energy>  (39) 
-3.42

>  <cluster_rmsd>  (39) 
1.99

>  <cluster>  (39) 
5

$$$$

     RDKit          3D

 44 46  0  0  0  0  0  0  0  0999 V2000
  141.3280   72.9940  221.4820 O   0  0  0  0  0  0  0  0  0  0  0  0
  140.4010   72.9680  222.3210 C   0  0  0  0  0  0  0  0  0  0  0  0
  139.5100   74.0800  222.3630 N   0  0  0  0  0  0  0  0  0  0  0  0
  139.6760   75.2150  221.4520 C   0  0  0  0  0  0  0  0  0  0  0  0
  138.9640   76.3500  222.0390 C   0  0  0  0  0  0  0  0  0  0  0  0
  138.0200   76.1360  222.8530 O   0  0  0  0  0  0  0  0  0  0  0  0
  139.2550   77.7200  221.7630 N   0  0  0  0  0  0  0  0  0  0  0  0
  138.3400   78.6280  222.5250 C   0  0  0  0  0  0  0  0  0  0  0  0
  139.1800   79.8450  223.0360 C   0  0  0  0  0  0  0  0  0  0  0  0
  140.5110   79.5120  222.7560 C   0  0  0  0  0  0  0  0  0  0  0  0
  141.8350   79.1450  222.5150 C   0  0  0  0  0  0  0  0  0  0  0  0
  141.7560   78.1170  221.3340 C   0  0  0  0  0  0  0  0  0  0  0  0
  140.3020   77.9640  220.8600 C   0  0  0  0  0  0  0  0  0  0  0  0
  140.2090   71.8470  223.2460 C   0  0  0  0  0  0  0  0  0  0  0  0
  139.5490   70.7190  222.8010 C   0  0  0  0  0  0  0  0  0  0  0  0
  139.3540   69.6420  223.6590 C   0  0  0  0  0  0  0  0  0  0  0  0
  139.8420   69.7520  224.9560 C   0  0  0  0  0  0  0  0  0  0  0  0
  139.6710   68.7020  225.8500 C   0  0  0  0  0  0  0  0  0  0  0  0
  140.1560   68.8140  227.1340 C   0  0  0  0  0  0  0  0  0  0  0  0
  139.9760   67.7720  227.9880 F   0  0  0  0  0  0  0  0  0  0  0  0
  140.8150   69.9440  227.5680 C   0  0  0  0  0  0  0  0  0  0  0  0
  140.9770   70.9750  226.6740 C   0  0  0  0  0  0  0  0  0  0  0  0
  140.5030   70.8920  225.3850 C   0  0  0  0  0  0  0  0  0  0  0  0
  140.6650   71.9010  224.5200 N   0  0  0  0  0  0  0  0  0  0  0  0
  138.7460   74.0340  223.0720 H   0  0  0  0  0  0  0  0  0  0  0  0
  140.7435   75.4563  221.3415 H   0  0  0  0  0  0  0  0  0  0  0  0
  139.2760   74.9769  220.4554 H   0  0  0  0  0  0  0  0  0  0  0  0
  137.5327   78.9819  221.8670 H   0  0  0  0  0  0  0  0  0  0  0  0
  137.8899   78.0918  223.3735 H   0  0  0  0  0  0  0  0  0  0  0  0
  138.8916   80.7638  222.5044 H   0  0  0  0  0  0  0  0  0  0  0  0
  139.0193   80.0363  224.1072 H   0  0  0  0  0  0  0  0  0  0  0  0
  140.2553   79.3262  221.7024 H   0  0  0  0  0  0  0  0  0  0  0  0
  140.8522   80.2691  223.4774 H   0  0  0  0  0  0  0  0  0  0  0  0
  142.4339   80.0215  222.2266 H   0  0  0  0  0  0  0  0  0  0  0  0
  142.3166   78.7173  223.4067 H   0  0  0  0  0  0  0  0  0  0  0  0
  142.3748   78.4755  220.4982 H   0  0  0  0  0  0  0  0  0  0  0  0
  142.1246   77.1409  221.6825 H   0  0  0  0  0  0  0  0  0  0  0  0
  140.0475   78.8968  220.3355 H   0  0  0  0  0  0  0  0  0  0  0  0
  140.3396   77.0269  220.2851 H   0  0  0  0  0  0  0  0  0  0  0  0
  139.1770   70.6721  221.7669 H   0  0  0  0  0  0  0  0  0  0  0  0
  138.8315   68.7342  223.3229 H   0  0  0  0  0  0  0  0  0  0  0  0
  139.1508   67.7859  225.5336 H   0  0  0  0  0  0  0  0  0  0  0  0
  141.1987   70.0182  228.5962 H   0  0  0  0  0  0  0  0  0  0  0  0
  141.4981   71.8885  226.9966 H   0  0  0  0  0  0  0  0  0  0  0  0
  1  2  2  0
  2  3  1  0
  3  4  1  0
  4  5  1  0
  5  6  2  0
  5  7  1  0
  7  8  1  0
  8  9  1  0
  9 10  1  0
 10 11  1  0
 11 12  1  0
 12 13  1  0
  2 14  1  0
 14 15  2  0
 15 16  1  0
 16 17  2  0
 17 18  1  0
 18 19  2  0
 19 20  1  0
 19 21  1  0
 21 22  2  0
 22 23  1  0
 23 24  2  0
 13  7  1  0
 24 14  1  0
 23 17  1  0
  3 25  1  0
  4 26  1  0
  4 27  1  0
  8 28  1  0
  8 29  1  0
  9 30  1  0
  9 31  1  0
 10 32  1  0
 10 33  1  0
 11 34  1  0
 11 35  1  0
 12 36  1  0
 12 37  1  0
 13 38  1  0
 13 39  1  0
 15 40  1  0
 16 41  1  0
 18 42  1  0
 21 43  1  0
 22 44  1  0
M  END
>  <smiles>  (40) 
O=C(NCC(=O)N1CCCCCC1)c1ccc2cc(F)ccc2n1

>  <score_type>  (40) 
oracle

>  <origin>  (40) 
autodockgpu

>  <m_score__min__energy>  (40) 
-5.5700000000000003

>  <m_primary>  (40) 
energy

>  <rmsd>  (40) 
3.2507080966342845

>  <m_score__min__rmsd>  (40) 
3.2507080966342845

>  <meeko>  (40) 
{"free_energy": -5.07, "intermolecular_energy": -7.75, "internal_energy": -1.44, "cluster_size": 16, "cluster_id": 2, "rank_in_cluster": 1}

>  <energy>  (40) 
-3.18

>  <cluster_rmsd>  (40) 
1.9

>  <cluster>  (40) 
5

$$$$

     RDKit          3D

 44 46  0  0  0  0  0  0  0  0999 V2000
  140.9810   71.8520  221.1860 O   0  0  0  0  0  0  0  0  0  0  0  0
  140.4060   72.2680  222.2150 C   0  0  0  0  0  0  0  0  0  0  0  0
  139.9610   73.6220  222.2300 N   0  0  0  0  0  0  0  0  0  0  0  0
  140.1700   74.4970  221.0740 C   0  0  0  0  0  0  0  0  0  0  0  0
  140.3960   75.8480  221.5870 C   0  0  0  0  0  0  0  0  0  0  0  0
  139.6750   76.2810  222.5320 O   0  0  0  0  0  0  0  0  0  0  0  0
  141.3920   76.7460  221.0980 N   0  0  0  0  0  0  0  0  0  0  0  0
  141.3540   78.0460  221.8390 C   0  0  0  0  0  0  0  0  0  0  0  0
  141.5510   79.2010  220.8030 C   0  0  0  0  0  0  0  0  0  0  0  0
  141.5000   78.5780  219.5500 C   0  0  0  0  0  0  0  0  0  0  0  0
  141.3990   77.9500  218.3080 C   0  0  0  0  0  0  0  0  0  0  0  0
  141.7950   76.4570  218.5780 C   0  0  0  0  0  0  0  0  0  0  0  0
  142.1960   76.2700  220.0490 C   0  0  0  0  0  0  0  0  0  0  0  0
  140.1820   71.4170  223.3880 C   0  0  0  0  0  0  0  0  0  0  0  0
  139.4830   70.2370  223.2340 C   0  0  0  0  0  0  0  0  0  0  0  0
  139.2570   69.4120  224.3310 C   0  0  0  0  0  0  0  0  0  0  0  0
  139.7560   69.8220  225.5620 C   0  0  0  0  0  0  0  0  0  0  0  0
  139.5550   69.0320  226.6870 C   0  0  0  0  0  0  0  0  0  0  0  0
  140.0510   69.4410  227.9050 C   0  0  0  0  0  0  0  0  0  0  0  0
  139.8410   68.6490  228.9890 F   0  0  0  0  0  0  0  0  0  0  0  0
  140.7490   70.6220  228.0480 C   0  0  0  0  0  0  0  0  0  0  0  0
  140.9400   71.3940  226.9280 C   0  0  0  0  0  0  0  0  0  0  0  0
  140.4560   71.0100  225.6980 C   0  0  0  0  0  0  0  0  0  0  0  0
  140.6470   71.7690  224.6100 N   0  0  0  0  0  0  0  0  0  0  0  0
  139.4850   73.9440  223.1000 H   0  0  0  0  0  0  0  0  0  0  0  0
  141.0463   74.1605  220.5006 H   0  0  0  0  0  0  0  0  0  0  0  0
  139.2966   74.4750  220.4057 H   0  0  0  0  0  0  0  0  0  0  0  0
  140.3833   78.1593  222.3438 H   0  0  0  0  0  0  0  0  0  0  0  0
  142.1491   78.0753  222.5986 H   0  0  0  0  0  0  0  0  0  0  0  0
  140.7471   79.9459  220.8972 H   0  0  0  0  0  0  0  0  0  0  0  0
  142.4983   79.7379  220.9587 H   0  0  0  0  0  0  0  0  0  0  0  0
  141.9587   79.4603  219.0797 H   0  0  0  0  0  0  0  0  0  0  0  0
  141.7017   77.6065  220.0248 H   0  0  0  0  0  0  0  0  0  0  0  0
  140.3701   78.0143  217.9243 H   0  0  0  0  0  0  0  0  0  0  0  0
  142.0456   78.4200  217.5523 H   0  0  0  0  0  0  0  0  0  0  0  0
  140.9373   75.8071  218.3502 H   0  0  0  0  0  0  0  0  0  0  0  0
  142.6491   76.1917  217.9376 H   0  0  0  0  0  0  0  0  0  0  0  0
  142.3005   75.1863  220.2061 H   0  0  0  0  0  0  0  0  0  0  0  0
  143.0902   76.9053  220.1314 H   0  0  0  0  0  0  0  0  0  0  0  0
  139.1041   69.9485  222.2424 H   0  0  0  0  0  0  0  0  0  0  0  0
  138.7025   68.4676  224.2279 H   0  0  0  0  0  0  0  0  0  0  0  0
  139.0024   68.0844  226.6053 H   0  0  0  0  0  0  0  0  0  0  0  0
  141.1400   70.9355  229.0272 H   0  0  0  0  0  0  0  0  0  0  0  0
  141.4926   72.3410  227.0161 H   0  0  0  0  0  0  0  0  0  0  0  0
  1  2  2  0
  2  3  1  0
  3  4  1  0
  4  5  1  0
  5  6  2  0
  5  7  1  0
  7  8  1  0
  8  9  1  0
  9 10  1  0
 10 11  1  0
 11 12  1  0
 12 13  1  0
  2 14  1  0
 14 15  2  0
 15 16  1  0
 16 17  2  0
 17 18  1  0
 18 19  2  0
 19 20  1  0
 19 21  1  0
 21 22  2  0
 22 23  1  0
 23 24  2  0
 13  7  1  0
 24 14  1  0
 23 17  1  0
  3 25  1  0
  4 26  1  0
  4 27  1  0
  8 28  1  0
  8 29  1  0
  9 30  1  0
  9 31  1  0
 10 32  1  0
 10 33  1  0
 11 34  1  0
 11 35  1  0
 12 36  1  0
 12 37  1  0
 13 38  1  0
 13 39  1  0
 15 40  1  0
 16 41  1  0
 18 42  1  0
 21 43  1  0
 22 44  1  0
M  END
>  <smiles>  (41) 
O=C(NCC(=O)N1CCCCCC1)c1ccc2cc(F)ccc2n1

>  <score_type>  (41) 
oracle

>  <origin>  (41) 
autodockgpu

>  <m_score__min__energy>  (41) 
-5.5700000000000003

>  <m_primary>  (41) 
energy

>  <rmsd>  (41) 
2.174473712991543

>  <m_score__min__rmsd>  (41) 
2.174473712991543

>  <meeko>  (41) 
{"free_energy": -4.8, "intermolecular_energy": -7.48, "internal_energy": -1.29, "cluster_size": 16, "cluster_id": 2, "rank_in_cluster": 6}

>  <energy>  (41) 
-4.31

>  <cluster_rmsd>  (41) 
0.0

>  <cluster>  (41) 
6

$$$$

     RDKit          3D

 44 46  0  0  0  0  0  0  0  0999 V2000
  135.7580   68.7180  224.0070 O   0  0  0  0  0  0  0  0  0  0  0  0
  136.2420   69.7860  224.4420 C   0  0  0  0  0  0  0  0  0  0  0  0
  137.6610   69.8810  224.5450 N   0  0  0  0  0  0  0  0  0  0  0  0
  138.5230   68.7650  224.1510 C   0  0  0  0  0  0  0  0  0  0  0  0
  139.2250   68.3140  225.3530 C   0  0  0  0  0  0  0  0  0  0  0  0
  138.8460   67.2550  225.9320 O   0  0  0  0  0  0  0  0  0  0  0  0
  140.3360   68.9880  225.9440 N   0  0  0  0  0  0  0  0  0  0  0  0
  140.8170   68.2640  227.1630 C   0  0  0  0  0  0  0  0  0  0  0  0
  140.6690   69.2250  228.3880 C   0  0  0  0  0  0  0  0  0  0  0  0
  140.7150   70.5150  227.8460 C   0  0  0  0  0  0  0  0  0  0  0  0
  140.7280   71.7860  227.2700 C   0  0  0  0  0  0  0  0  0  0  0  0
  140.3000   71.5510  225.7800 C   0  0  0  0  0  0  0  0  0  0  0  0
  140.7610   70.1640  225.3050 C   0  0  0  0  0  0  0  0  0  0  0  0
  135.4060   70.9210  224.8440 C   0  0  0  0  0  0  0  0  0  0  0  0
  135.6350   72.1560  224.2710 C   0  0  0  0  0  0  0  0  0  0  0  0
  134.8560   73.2490  224.6350 C   0  0  0  0  0  0  0  0  0  0  0  0
  133.8590   73.0450  225.5820 C   0  0  0  0  0  0  0  0  0  0  0  0
  133.0540   74.1070  225.9780 C   0  0  0  0  0  0  0  0  0  0  0  0
  132.0670   73.9020  226.9160 C   0  0  0  0  0  0  0  0  0  0  0  0
  131.2950   74.9570  227.2850 F   0  0  0  0  0  0  0  0  0  0  0  0
  131.8460   72.6640  227.4820 C   0  0  0  0  0  0  0  0  0  0  0  0
  132.6490   71.6230  227.0820 C   0  0  0  0  0  0  0  0  0  0  0  0
  133.6420   71.7980  226.1470 C   0  0  0  0  0  0  0  0  0  0  0  0
  134.4210   70.7780  225.7620 N   0  0  0  0  0  0  0  0  0  0  0  0
  138.0390   70.7830  224.9110 H   0  0  0  0  0  0  0  0  0  0  0  0
  137.9145   67.9457  223.7404 H   0  0  0  0  0  0  0  0  0  0  0  0
  139.2381   69.0790  223.3764 H   0  0  0  0  0  0  0  0  0  0  0  0
  140.2114   67.3598  227.3230 H   0  0  0  0  0  0  0  0  0  0  0  0
  141.8679   67.9639  227.0385 H   0  0  0  0  0  0  0  0  0  0  0  0
  139.7099   69.0546  228.8991 H   0  0  0  0  0  0  0  0  0  0  0  0
  141.4586   69.0637  229.1367 H   0  0  0  0  0  0  0  0  0  0  0  0
  140.4416   70.9466  228.8201 H   0  0  0  0  0  0  0  0  0  0  0  0
  141.5533   70.2139  227.2005 H   0  0  0  0  0  0  0  0  0  0  0  0
  140.0137   72.4500  227.7788 H   0  0  0  0  0  0  0  0  0  0  0  0
  141.7130   72.2692  227.3492 H   0  0  0  0  0  0  0  0  0  0  0  0
  139.2046   71.6155  225.7026 H   0  0  0  0  0  0  0  0  0  0  0  0
  140.7684   72.3197  225.1477 H   0  0  0  0  0  0  0  0  0  0  0  0
  140.4472   70.0763  224.2544 H   0  0  0  0  0  0  0  0  0  0  0  0
  141.8363   70.1817  225.5363 H   0  0  0  0  0  0  0  0  0  0  0  0
  136.4348   72.2756  223.5254 H   0  0  0  0  0  0  0  0  0  0  0  0
  135.0230   74.2406  224.1890 H   0  0  0  0  0  0  0  0  0  0  0  0
  133.2048   75.1065  225.5440 H   0  0  0  0  0  0  0  0  0  0  0  0
  131.0528   72.5147  228.2293 H   0  0  0  0  0  0  0  0  0  0  0  0
  132.4937   70.6261  227.5202 H   0  0  0  0  0  0  0  0  0  0  0  0
  1  2  2  0
  2  3  1  0
  3  4  1  0
  4  5  1  0
  5  6  2  0
  5  7  1  0
  7  8  1  0
  8  9  1  0
  9 10  1  0
 10 11  1  0
 11 12  1  0
 12 13  1  0
  2 14  1  0
 14 15  2  0
 15 16  1  0
 16 17  2  0
 17 18  1  0
 18 19  2  0
 19 20  1  0
 19 21  1  0
 21 22  2  0
 22 23  1  0
 23 24  2  0
 13  7  1  0
 24 14  1  0
 23 17  1  0
  3 25  1  0
  4 26  1  0
  4 27  1  0
  8 28  1  0
  8 29  1  0
  9 30  1  0
  9 31  1  0
 10 32  1  0
 10 33  1  0
 11 34  1  0
 11 35  1  0
 12 36  1  0
 12 37  1  0
 13 38  1  0
 13 39  1  0
 15 40  1  0
 16 41  1  0
 18 42  1  0
 21 43  1  0
 22 44  1  0
M  END
>  <smiles>  (42) 
O=C(NCC(=O)N1CCCCCC1)c1ccc2cc(F)ccc2n1

>  <score_type>  (42) 
oracle

>  <origin>  (42) 
autodockgpu

>  <m_score__min__energy>  (42) 
-5.5700000000000003

>  <m_primary>  (42) 
energy

>  <rmsd>  (42) 
8.567226426706858

>  <m_score__min__rmsd>  (42) 
8.567226426706858

>  <meeko>  (42) 
{"free_energy": -5.57, "intermolecular_energy": -8.25, "internal_energy": -1.03, "cluster_size": 9, "cluster_id": 1, "rank_in_cluster": 1}

>  <energy>  (42) 
-4.27

>  <cluster_rmsd>  (42) 
0.0

>  <cluster>  (42) 
7

$$$$

     RDKit          3D

 44 46  0  0  0  0  0  0  0  0999 V2000
  139.4890   70.7250  221.1500 O   0  0  0  0  0  0  0  0  0  0  0  0
  139.5070   71.3030  222.2590 C   0  0  0  0  0  0  0  0  0  0  0  0
  139.4630   72.7280  222.2690 N   0  0  0  0  0  0  0  0  0  0  0  0
  139.3980   73.4890  221.0190 C   0  0  0  0  0  0  0  0  0  0  0  0
  139.8480   74.8490  221.3160 C   0  0  0  0  0  0  0  0  0  0  0  0
  139.6780   75.3190  222.4780 O   0  0  0  0  0  0  0  0  0  0  0  0
  140.4820   75.7160  220.3750 N   0  0  0  0  0  0  0  0  0  0  0  0
  140.8120   77.0360  221.0010 C   0  0  0  0  0  0  0  0  0  0  0  0
  142.1160   77.5780  220.3280 C   0  0  0  0  0  0  0  0  0  0  0  0
  142.6830   76.4700  219.6880 C   0  0  0  0  0  0  0  0  0  0  0  0
  143.2060   75.3620  219.0210 C   0  0  0  0  0  0  0  0  0  0  0  0
  141.9640   74.4630  218.6930 C   0  0  0  0  0  0  0  0  0  0  0  0
  140.6730   75.2000  219.0840 C   0  0  0  0  0  0  0  0  0  0  0  0
  139.5720   70.5690  223.5270 C   0  0  0  0  0  0  0  0  0  0  0  0
  139.1220   69.2640  223.5680 C   0  0  0  0  0  0  0  0  0  0  0  0
  139.1730   68.5470  224.7590 C   0  0  0  0  0  0  0  0  0  0  0  0
  139.6850   69.1910  225.8790 C   0  0  0  0  0  0  0  0  0  0  0  0
  139.7560   68.5150  227.0920 C   0  0  0  0  0  0  0  0  0  0  0  0
  140.2650   69.1550  228.2010 C   0  0  0  0  0  0  0  0  0  0  0  0
  140.3230   68.4710  229.3740 F   0  0  0  0  0  0  0  0  0  0  0  0
  140.7120   70.4580  228.1480 C   0  0  0  0  0  0  0  0  0  0  0  0
  140.6360   71.1140  226.9440 C   0  0  0  0  0  0  0  0  0  0  0  0
  140.1330   70.5010  225.8200 C   0  0  0  0  0  0  0  0  0  0  0  0
  140.0620   71.1480  224.6490 N   0  0  0  0  0  0  0  0  0  0  0  0
  139.4800   73.1850  223.2070 H   0  0  0  0  0  0  0  0  0  0  0  0
  140.0547   73.0312  220.2646 H   0  0  0  0  0  0  0  0  0  0  0  0
  138.3733   73.4956  220.6190 H   0  0  0  0  0  0  0  0  0  0  0  0
  139.9858   77.7436  220.8376 H   0  0  0  0  0  0  0  0  0  0  0  0
  140.9618   76.9182  222.0844 H   0  0  0  0  0  0  0  0  0  0  0  0
  141.8755   78.3647  219.5977 H   0  0  0  0  0  0  0  0  0  0  0  0
  142.8025   78.0268  221.0610 H   0  0  0  0  0  0  0  0  0  0  0  0
  143.5786   77.0578  219.4382 H   0  0  0  0  0  0  0  0  0  0  0  0
  142.2249   75.8044  220.4344 H   0  0  0  0  0  0  0  0  0  0  0  0
  143.7142   75.6719  218.0959 H   0  0  0  0  0  0  0  0  0  0  0  0
  143.9533   74.8293  219.6273 H   0  0  0  0  0  0  0  0  0  0  0  0
  141.9469   74.2421  217.6155 H   0  0  0  0  0  0  0  0  0  0  0  0
  142.0338   73.5240  219.2616 H   0  0  0  0  0  0  0  0  0  0  0  0
  140.5813   76.0514  218.3936 H   0  0  0  0  0  0  0  0  0  0  0  0
  139.9216   74.3979  219.0381 H   0  0  0  0  0  0  0  0  0  0  0  0
  138.7230   68.7913  222.6584 H   0  0  0  0  0  0  0  0  0  0  0  0
  138.8203   67.5064  224.8124 H   0  0  0  0  0  0  0  0  0  0  0  0
  139.4075   67.4743  227.1659 H   0  0  0  0  0  0  0  0  0  0  0  0
  141.1165   70.9562  229.0414 H   0  0  0  0  0  0  0  0  0  0  0  0
  140.9858   72.1547  226.8768 H   0  0  0  0  0  0  0  0  0  0  0  0
  1  2  2  0
  2  3  1  0
  3  4  1  0
  4  5  1  0
  5  6  2  0
  5  7  1  0
  7  8  1  0
  8  9  1  0
  9 10  1  0
 10 11  1  0
 11 12  1  0
 12 13  1  0
  2 14  1  0
 14 15  2  0
 15 16  1  0
 16 17  2  0
 17 18  1  0
 18 19  2  0
 19 20  1  0
 19 21  1  0
 21 22  2  0
 22 23  1  0
 23 24  2  0
 13  7  1  0
 24 14  1  0
 23 17  1  0
  3 25  1  0
  4 26  1  0
  4 27  1  0
  8 28  1  0
  8 29  1  0
  9 30  1  0
  9 31  1  0
 10 32  1  0
 10 33  1  0
 11 34  1  0
 11 35  1  0
 12 36  1  0
 12 37  1  0
 13 38  1  0
 13 39  1  0
 15 40  1  0
 16 41  1  0
 18 42  1  0
 21 43  1  0
 22 44  1  0
M  END
>  <smiles>  (43) 
O=C(NCC(=O)N1CCCCCC1)c1ccc2cc(F)ccc2n1

>  <score_type>  (43) 
oracle

>  <origin>  (43) 
autodockgpu

>  <m_score__min__energy>  (43) 
-5.5700000000000003

>  <m_primary>  (43) 
energy

>  <rmsd>  (43) 
1.4296447605470535

>  <m_score__min__rmsd>  (43) 
1.4296447605470535

>  <meeko>  (43) 
{"free_energy": -3.58, "intermolecular_energy": -6.27, "internal_energy": -1.64, "cluster_size": 5, "cluster_id": 4, "rank_in_cluster": 5}

>  <energy>  (43) 
-4.12

>  <cluster_rmsd>  (43) 
0.0

>  <cluster>  (43) 
8

$$$$

     RDKit          3D

 44 46  0  0  0  0  0  0  0  0999 V2000
  141.4310   72.7110  221.6330 O   0  0  0  0  0  0  0  0  0  0  0  0
  140.4160   72.8030  222.3580 C   0  0  0  0  0  0  0  0  0  0  0  0
  139.5440   73.9110  222.1460 N   0  0  0  0  0  0  0  0  0  0  0  0
  139.8280   74.9070  221.1110 C   0  0  0  0  0  0  0  0  0  0  0  0
  140.0310   76.1890  221.7860 C   0  0  0  0  0  0  0  0  0  0  0  0
  139.2730   76.5110  222.7460 O   0  0  0  0  0  0  0  0  0  0  0  0
  141.0460   77.1330  221.4440 N   0  0  0  0  0  0  0  0  0  0  0  0
  140.9760   78.3390  222.3300 C   0  0  0  0  0  0  0  0  0  0  0  0
  141.4790   79.5720  221.5090 C   0  0  0  0  0  0  0  0  0  0  0  0
  141.4180   79.1680  220.1700 C   0  0  0  0  0  0  0  0  0  0  0  0
  141.3200   78.7330  218.8490 C   0  0  0  0  0  0  0  0  0  0  0  0
  141.5780   77.1890  218.9330 C   0  0  0  0  0  0  0  0  0  0  0  0
  141.8910   76.7810  220.3810 C   0  0  0  0  0  0  0  0  0  0  0  0
  140.1040   71.8220  223.4020 C   0  0  0  0  0  0  0  0  0  0  0  0
  139.1740   70.8360  223.1370 C   0  0  0  0  0  0  0  0  0  0  0  0
  138.8610   69.8940  224.1100 C   0  0  0  0  0  0  0  0  0  0  0  0
  139.5120   69.9890  225.3350 C   0  0  0  0  0  0  0  0  0  0  0  0
  139.2330   69.0700  226.3390 C   0  0  0  0  0  0  0  0  0  0  0  0
  139.8800   69.1660  227.5510 C   0  0  0  0  0  0  0  0  0  0  0  0
  139.5870   68.2540  228.5160 F   0  0  0  0  0  0  0  0  0  0  0  0
  140.8070   70.1530  227.8050 C   0  0  0  0  0  0  0  0  0  0  0  0
  141.0740   71.0560  226.8040 C   0  0  0  0  0  0  0  0  0  0  0  0
  140.4440   70.9840  225.5840 C   0  0  0  0  0  0  0  0  0  0  0  0
  140.7100   71.8680  224.6120 N   0  0  0  0  0  0  0  0  0  0  0  0
  138.7050   73.9640  222.7640 H   0  0  0  0  0  0  0  0  0  0  0  0
  140.7353   74.6256  220.5564 H   0  0  0  0  0  0  0  0  0  0  0  0
  138.9966   74.9716  220.3936 H   0  0  0  0  0  0  0  0  0  0  0  0
  139.9379   78.5045  222.6538 H   0  0  0  0  0  0  0  0  0  0  0  0
  141.6014   78.1938  223.2232 H   0  0  0  0  0  0  0  0  0  0  0  0
  140.8275   80.4416  221.6801 H   0  0  0  0  0  0  0  0  0  0  0  0
  142.4949   79.8756  221.8020 H   0  0  0  0  0  0  0  0  0  0  0  0
  141.2682   80.2098  219.8503 H   0  0  0  0  0  0  0  0  0  0  0  0
  142.1684   78.3892  220.3708 H   0  0  0  0  0  0  0  0  0  0  0  0
  140.3187   78.9398  218.4433 H   0  0  0  0  0  0  0  0  0  0  0  0
  142.0313   79.2436  218.1832 H   0  0  0  0  0  0  0  0  0  0  0  0
  140.6816   76.6517  218.5898 H   0  0  0  0  0  0  0  0  0  0  0  0
  142.4366   76.9334  218.2946 H   0  0  0  0  0  0  0  0  0  0  0  0
  141.9543   75.6828  220.3864 H   0  0  0  0  0  0  0  0  0  0  0  0
  142.7976   77.3647  220.5986 H   0  0  0  0  0  0  0  0  0  0  0  0
  138.6804   70.7961  222.1548 H   0  0  0  0  0  0  0  0  0  0  0  0
  138.1237   69.1007  223.9176 H   0  0  0  0  0  0  0  0  0  0  0  0
  138.4987   68.2694  226.1666 H   0  0  0  0  0  0  0  0  0  0  0  0
  141.3170   70.2162  228.7776 H   0  0  0  0  0  0  0  0  0  0  0  0
  141.8087   71.8548  226.9830 H   0  0  0  0  0  0  0  0  0  0  0  0
  1  2  2  0
  2  3  1  0
  3  4  1  0
  4  5  1  0
  5  6  2  0
  5  7  1  0
  7  8  1  0
  8  9  1  0
  9 10  1  0
 10 11  1  0
 11 12  1  0
 12 13  1  0
  2 14  1  0
 14 15  2  0
 15 16  1  0
 16 17  2  0
 17 18  1  0
 18 19  2  0
 19 20  1  0
 19 21  1  0
 21 22  2  0
 22 23  1  0
 23 24  2  0
 13  7  1  0
 24 14  1  0
 23 17  1  0
  3 25  1  0
  4 26  1  0
  4 27  1  0
  8 28  1  0
  8 29  1  0
  9 30  1  0
  9 31  1  0
 10 32  1  0
 10 33  1  0
 11 34  1  0
 11 35  1  0
 12 36  1  0
 12 37  1  0
 13 38  1  0
 13 39  1  0
 15 40  1  0
 16 41  1  0
 18 42  1  0
 21 43  1  0
 22 44  1  0
M  END
>  <smiles>  (44) 
O=C(NCC(=O)N1CCCCCC1)c1ccc2cc(F)ccc2n1

>  <score_type>  (44) 
oracle

>  <origin>  (44) 
autodockgpu

>  <m_score__min__energy>  (44) 
-5.5700000000000003

>  <m_primary>  (44) 
energy

>  <rmsd>  (44) 
2.506885092047817

>  <m_score__min__rmsd>  (44) 
2.506885092047817

>  <meeko>  (44) 
{"free_energy": -4.35, "intermolecular_energy": -7.04, "internal_energy": -1.07, "cluster_size": 16, "cluster_id": 2, "rank_in_cluster": 13}

>  <energy>  (44) 
-3.95

>  <cluster_rmsd>  (44) 
0.42

>  <cluster>  (44) 
8

$$$$

     RDKit          3D

 44 46  0  0  0  0  0  0  0  0999 V2000
  135.8720   68.7450  224.4940 O   0  0  0  0  0  0  0  0  0  0  0  0
  136.1600   69.9520  224.6430 C   0  0  0  0  0  0  0  0  0  0  0  0
  137.5050   70.3520  224.3890 N   0  0  0  0  0  0  0  0  0  0  0  0
  138.5140   69.3800  223.9650 C   0  0  0  0  0  0  0  0  0  0  0  0
  139.0720   68.7780  225.1760 C   0  0  0  0  0  0  0  0  0  0  0  0
  138.4690   67.8090  225.7220 O   0  0  0  0  0  0  0  0  0  0  0  0
  140.2770   69.2040  225.8120 N   0  0  0  0  0  0  0  0  0  0  0  0
  140.5620   68.3780  227.0290 C   0  0  0  0  0  0  0  0  0  0  0  0
  140.5530   69.3280  228.2720 C   0  0  0  0  0  0  0  0  0  0  0  0
  140.8320   70.6010  227.7590 C   0  0  0  0  0  0  0  0  0  0  0  0
  141.1360   71.8470  227.2100 C   0  0  0  0  0  0  0  0  0  0  0  0
  140.7560   71.7240  225.6940 C   0  0  0  0  0  0  0  0  0  0  0  0
  140.9510   70.2780  225.2110 C   0  0  0  0  0  0  0  0  0  0  0  0
  135.1730   70.9500  225.0660 C   0  0  0  0  0  0  0  0  0  0  0  0
  133.9860   70.5210  225.6250 C   0  0  0  0  0  0  0  0  0  0  0  0
  133.0330   71.4480  226.0340 C   0  0  0  0  0  0  0  0  0  0  0  0
  133.3240   72.7960  225.8560 C   0  0  0  0  0  0  0  0  0  0  0  0
  132.4040   73.7600  226.2490 C   0  0  0  0  0  0  0  0  0  0  0  0
  132.6950   75.0940  226.0720 C   0  0  0  0  0  0  0  0  0  0  0  0
  131.7760   76.0150  226.4650 F   0  0  0  0  0  0  0  0  0  0  0  0
  133.8830   75.5120  225.5120 C   0  0  0  0  0  0  0  0  0  0  0  0
  134.7850   74.5490  225.1280 C   0  0  0  0  0  0  0  0  0  0  0  0
  134.5210   73.2090  225.2930 C   0  0  0  0  0  0  0  0  0  0  0  0
  135.4060   72.2760  224.9160 N   0  0  0  0  0  0  0  0  0  0  0  0
  137.7200   71.3650  224.5210 H   0  0  0  0  0  0  0  0  0  0  0  0
  138.0499   68.6043  223.3382 H   0  0  0  0  0  0  0  0  0  0  0  0
  139.3022   69.8688  223.3736 H   0  0  0  0  0  0  0  0  0  0  0  0
  139.7883   67.6047  227.1447 H   0  0  0  0  0  0  0  0  0  0  0  0
  141.5396   67.8828  226.9340 H   0  0  0  0  0  0  0  0  0  0  0  0
  139.5675   69.3158  228.7605 H   0  0  0  0  0  0  0  0  0  0  0  0
  141.2859   69.0198  229.0322 H   0  0  0  0  0  0  0  0  0  0  0  0
  139.7586   70.8403  227.7372 H   0  0  0  0  0  0  0  0  0  0  0  0
  141.7496   70.6437  228.3641 H   0  0  0  0  0  0  0  0  0  0  0  0
  140.5444   72.6379  227.6942 H   0  0  0  0  0  0  0  0  0  0  0  0
  142.1936   72.1146  227.3512 H   0  0  0  0  0  0  0  0  0  0  0  0
  139.7032   72.0128  225.5592 H   0  0  0  0  0  0  0  0  0  0  0  0
  141.4070   72.3883  225.1068 H   0  0  0  0  0  0  0  0  0  0  0  0
  140.6676   70.2657  224.1482 H   0  0  0  0  0  0  0  0  0  0  0  0
  141.9984   70.0791  225.4818 H   0  0  0  0  0  0  0  0  0  0  0  0
  133.7935   69.4449  225.7471 H   0  0  0  0  0  0  0  0  0  0  0  0
  132.0818   71.1258  226.4828 H   0  0  0  0  0  0  0  0  0  0  0  0
  131.4469   73.4587  226.6997 H   0  0  0  0  0  0  0  0  0  0  0  0
  134.1019   76.5815  225.3768 H   0  0  0  0  0  0  0  0  0  0  0  0
  135.7405   74.8568  224.6782 H   0  0  0  0  0  0  0  0  0  0  0  0
  1  2  2  0
  2  3  1  0
  3  4  1  0
  4  5  1  0
  5  6  2  0
  5  7  1  0
  7  8  1  0
  8  9  1  0
  9 10  1  0
 10 11  1  0
 11 12  1  0
 12 13  1  0
  2 14  1  0
 14 15  2  0
 15 16  1  0
 16 17  2  0
 17 18  1  0
 18 19  2  0
 19 20  1  0
 19 21  1  0
 21 22  2  0
 22 23  1  0
 23 24  2  0
 13  7  1  0
 24 14  1  0
 23 17  1  0
  3 25  1  0
  4 26  1  0
  4 27  1  0
  8 28  1  0
  8 29  1  0
  9 30  1  0
  9 31  1  0
 10 32  1  0
 10 33  1  0
 11 34  1  0
 11 35  1  0
 12 36  1  0
 12 37  1  0
 13 38  1  0
 13 39  1  0
 15 40  1  0
 16 41  1  0
 18 42  1  0
 21 43  1  0
 22 44  1  0
M  END
>  <smiles>  (45) 
O=C(NCC(=O)N1CCCCCC1)c1ccc2cc(F)ccc2n1

>  <score_type>  (45) 
oracle

>  <origin>  (45) 
autodockgpu

>  <m_score__min__energy>  (45) 
-5.5700000000000003

>  <m_primary>  (45) 
energy

>  <rmsd>  (45) 
8.397205831179784

>  <m_score__min__rmsd>  (45) 
8.397205831179784

>  <meeko>  (45) 
{"free_energy": -4.9, "intermolecular_energy": -7.59, "internal_energy": -1.3, "cluster_size": 9, "cluster_id": 1, "rank_in_cluster": 4}

>  <energy>  (45) 
-3.96

>  <cluster_rmsd>  (45) 
0.0

>  <cluster>  (45) 
9

$$$$

     RDKit          3D

 44 46  0  0  0  0  0  0  0  0999 V2000
  141.4080   72.7820  222.0610 O   0  0  0  0  0  0  0  0  0  0  0  0
  140.3320   72.6160  222.6750 C   0  0  0  0  0  0  0  0  0  0  0  0
  139.2230   73.4340  222.3090 N   0  0  0  0  0  0  0  0  0  0  0  0
  139.3410   74.4350  221.2460 C   0  0  0  0  0  0  0  0  0  0  0  0
  139.7580   75.6880  221.8750 C   0  0  0  0  0  0  0  0  0  0  0  0
  139.0260   76.2090  222.7650 O   0  0  0  0  0  0  0  0  0  0  0  0
  140.9600   76.3930  221.5600 N   0  0  0  0  0  0  0  0  0  0  0  0
  141.0820   77.6370  222.3830 C   0  0  0  0  0  0  0  0  0  0  0  0
  141.1540   78.8580  221.4080 C   0  0  0  0  0  0  0  0  0  0  0  0
  141.6000   78.3270  220.1920 C   0  0  0  0  0  0  0  0  0  0  0  0
  141.9960   77.7860  218.9680 C   0  0  0  0  0  0  0  0  0  0  0  0
  141.6900   76.2540  219.1020 C   0  0  0  0  0  0  0  0  0  0  0  0
  141.7760   75.8190  220.5740 C   0  0  0  0  0  0  0  0  0  0  0  0
  140.1810   71.6230  223.7420 C   0  0  0  0  0  0  0  0  0  0  0  0
  139.4840   70.4600  223.4810 C   0  0  0  0  0  0  0  0  0  0  0  0
  139.3270   69.5020  224.4770 C   0  0  0  0  0  0  0  0  0  0  0  0
  139.8920   69.7640  225.7190 C   0  0  0  0  0  0  0  0  0  0  0  0
  139.7620   68.8370  226.7470 C   0  0  0  0  0  0  0  0  0  0  0  0
  140.3230   69.0980  227.9770 C   0  0  0  0  0  0  0  0  0  0  0  0
  140.1810   68.1740  228.9630 F   0  0  0  0  0  0  0  0  0  0  0  0
  141.0180   70.2620  228.2280 C   0  0  0  0  0  0  0  0  0  0  0  0
  141.1390   71.1700  227.2040 C   0  0  0  0  0  0  0  0  0  0  0  0
  140.5900   70.9360  225.9650 C   0  0  0  0  0  0  0  0  0  0  0  0
  140.7120   71.8270  224.9720 N   0  0  0  0  0  0  0  0  0  0  0  0
  138.3370   73.2750  222.8370 H   0  0  0  0  0  0  0  0  0  0  0  0
  140.0924   74.1151  220.5090 H   0  0  0  0  0  0  0  0  0  0  0  0
  138.3825   74.5619  220.7215 H   0  0  0  0  0  0  0  0  0  0  0  0
  140.2062   77.7363  223.0412 H   0  0  0  0  0  0  0  0  0  0  0  0
  141.9861   77.5939  223.0080 H   0  0  0  0  0  0  0  0  0  0  0  0
  140.1611   79.3160  221.2885 H   0  0  0  0  0  0  0  0  0  0  0  0
  141.8224   79.6468  221.7835 H   0  0  0  0  0  0  0  0  0  0  0  0
  142.1026   79.2748  219.9490 H   0  0  0  0  0  0  0  0  0  0  0  0
  141.7211   77.3420  220.6665 H   0  0  0  0  0  0  0  0  0  0  0  0
  141.4188   78.2275  218.1422 H   0  0  0  0  0  0  0  0  0  0  0  0
  143.0547   77.9843  218.7446 H   0  0  0  0  0  0  0  0  0  0  0  0
  140.6776   76.0517  218.7225 H   0  0  0  0  0  0  0  0  0  0  0  0
  142.4314   75.6888  218.5182 H   0  0  0  0  0  0  0  0  0  0  0  0
  141.5681   74.7389  220.5903 H   0  0  0  0  0  0  0  0  0  0  0  0
  142.7773   76.1699  220.8644 H   0  0  0  0  0  0  0  0  0  0  0  0
  139.0521   70.2909  222.4836 H   0  0  0  0  0  0  0  0  0  0  0  0
  138.7749   68.5696  224.2881 H   0  0  0  0  0  0  0  0  0  0  0  0
  139.2131   67.8988  226.5783 H   0  0  0  0  0  0  0  0  0  0  0  0
  141.4611   70.4573  229.2157 H   0  0  0  0  0  0  0  0  0  0  0  0
  141.6883   72.1068  227.3794 H   0  0  0  0  0  0  0  0  0  0  0  0
  1  2  2  0
  2  3  1  0
  3  4  1  0
  4  5  1  0
  5  6  2  0
  5  7  1  0
  7  8  1  0
  8  9  1  0
  9 10  1  0
 10 11  1  0
 11 12  1  0
 12 13  1  0
  2 14  1  0
 14 15  2  0
 15 16  1  0
 16 17  2  0
 17 18  1  0
 18 19  2  0
 19 20  1  0
 19 21  1  0
 21 22  2  0
 22 23  1  0
 23 24  2  0
 13  7  1  0
 24 14  1  0
 23 17  1  0
  3 25  1  0
  4 26  1  0
  4 27  1  0
  8 28  1  0
  8 29  1  0
  9 30  1  0
  9 31  1  0
 10 32  1  0
 10 33  1  0
 11 34  1  0
 11 35  1  0
 12 36  1  0
 12 37  1  0
 13 38  1  0
 13 39  1  0
 15 40  1  0
 16 41  1  0
 18 42  1  0
 21 43  1  0
 22 44  1  0
M  END
>  <smiles>  (46) 
O=C(NCC(=O)N1CCCCCC1)c1ccc2cc(F)ccc2n1

>  <score_type>  (46) 
oracle

>  <origin>  (46) 
autodockgpu

>  <m_score__min__energy>  (46) 
-5.5700000000000003

>  <m_primary>  (46) 
energy

>  <rmsd>  (46) 
2.19733416525016

>  <m_score__min__rmsd>  (46) 
2.19733416525016

>  <meeko>  (46) 
{"free_energy": -5.0, "intermolecular_energy": -7.69, "internal_energy": -1.02, "cluster_size": 16, "cluster_id": 2, "rank_in_cluster": 2}

>  <energy>  (46) 
-3.79

>  <cluster_rmsd>  (46) 
0.0

>  <cluster>  (46) 
10

$$$$

     RDKit          3D

 44 46  0  0  0  0  0  0  0  0999 V2000
  141.2580   73.5450  221.6580 O   0  0  0  0  0  0  0  0  0  0  0  0
  140.2090   73.3760  222.3170 C   0  0  0  0  0  0  0  0  0  0  0  0
  139.2320   74.4150  222.2910 N   0  0  0  0  0  0  0  0  0  0  0  0
  139.4500   75.6370  221.5150 C   0  0  0  0  0  0  0  0  0  0  0  0
  138.8530   76.7410  222.2670 C   0  0  0  0  0  0  0  0  0  0  0  0
  137.9040   76.5030  223.0680 O   0  0  0  0  0  0  0  0  0  0  0  0
  139.2650   78.1050  222.1690 N   0  0  0  0  0  0  0  0  0  0  0  0
  138.4460   78.9770  223.0690 C   0  0  0  0  0  0  0  0  0  0  0  0
  139.4180   79.9440  223.8220 C   0  0  0  0  0  0  0  0  0  0  0  0
  140.7000   79.5730  223.3990 C   0  0  0  0  0  0  0  0  0  0  0  0
  141.9940   79.2510  222.9890 C   0  0  0  0  0  0  0  0  0  0  0  0
  141.7860   78.3310  221.7350 C   0  0  0  0  0  0  0  0  0  0  0  0
  140.3180   78.3740  221.2820 C   0  0  0  0  0  0  0  0  0  0  0  0
  139.9600   72.1640  223.1030 C   0  0  0  0  0  0  0  0  0  0  0  0
  139.0400   71.2440  222.6410 C   0  0  0  0  0  0  0  0  0  0  0  0
  138.7870   70.0870  223.3680 C   0  0  0  0  0  0  0  0  0  0  0  0
  139.4860   69.9030  224.5550 C   0  0  0  0  0  0  0  0  0  0  0  0
  139.2670   68.7610  225.3170 C   0  0  0  0  0  0  0  0  0  0  0  0
  139.9620   68.5810  226.4930 C   0  0  0  0  0  0  0  0  0  0  0  0
  139.7280   67.4560  227.2180 F   0  0  0  0  0  0  0  0  0  0  0  0
  140.8790   69.5060  226.9450 C   0  0  0  0  0  0  0  0  0  0  0  0
  141.0860   70.6300  226.1830 C   0  0  0  0  0  0  0  0  0  0  0  0
  140.4070   70.8360  225.0040 C   0  0  0  0  0  0  0  0  0  0  0  0
  140.6150   71.9350  224.2670 N   0  0  0  0  0  0  0  0  0  0  0  0
  138.3660   74.2490  222.8490 H   0  0  0  0  0  0  0  0  0  0  0  0
  140.5279   75.8114  221.3820 H   0  0  0  0  0  0  0  0  0  0  0  0
  138.9931   75.5524  220.5179 H   0  0  0  0  0  0  0  0  0  0  0  0
  137.7283   79.5593  222.4724 H   0  0  0  0  0  0  0  0  0  0  0  0
  137.8851   78.3628  223.7888 H   0  0  0  0  0  0  0  0  0  0  0  0
  139.2093   80.9896  223.5513 H   0  0  0  0  0  0  0  0  0  0  0  0
  139.3071   79.8726  224.9141 H   0  0  0  0  0  0  0  0  0  0  0  0
  140.6941   78.7185  224.0917 H   0  0  0  0  0  0  0  0  0  0  0  0
  140.4586   79.9031  222.3778 H   0  0  0  0  0  0  0  0  0  0  0  0
  142.5540   80.1582  222.7181 H   0  0  0  0  0  0  0  0  0  0  0  0
  142.5749   78.7563  223.7813 H   0  0  0  0  0  0  0  0  0  0  0  0
  142.4295   78.6832  220.9154 H   0  0  0  0  0  0  0  0  0  0  0  0
  142.0490   77.2967  222.0014 H   0  0  0  0  0  0  0  0  0  0  0  0
  140.1437   79.3882  220.8933 H   0  0  0  0  0  0  0  0  0  0  0  0
  140.2621   77.5232  220.5870 H   0  0  0  0  0  0  0  0  0  0  0  0
  138.5067   71.4271  221.6965 H   0  0  0  0  0  0  0  0  0  0  0  0
  138.0582   69.3421  223.0159 H   0  0  0  0  0  0  0  0  0  0  0  0
  138.5420   68.0044  224.9825 H   0  0  0  0  0  0  0  0  0  0  0  0
  141.4272   69.3490  227.8856 H   0  0  0  0  0  0  0  0  0  0  0  0
  141.8118   71.3833  226.5233 H   0  0  0  0  0  0  0  0  0  0  0  0
  1  2  2  0
  2  3  1  0
  3  4  1  0
  4  5  1  0
  5  6  2  0
  5  7  1  0
  7  8  1  0
  8  9  1  0
  9 10  1  0
 10 11  1  0
 11 12  1  0
 12 13  1  0
  2 14  1  0
 14 15  2  0
 15 16  1  0
 16 17  2  0
 17 18  1  0
 18 19  2  0
 19 20  1  0
 19 21  1  0
 21 22  2  0
 22 23  1  0
 23 24  2  0
 13  7  1  0
 24 14  1  0
 23 17  1  0
  3 25  1  0
  4 26  1  0
  4 27  1  0
  8 28  1  0
  8 29  1  0
  9 30  1  0
  9 31  1  0
 10 32  1  0
 10 33  1  0
 11 34  1  0
 11 35  1  0
 12 36  1  0
 12 37  1  0
 13 38  1  0
 13 39  1  0
 15 40  1  0
 16 41  1  0
 18 42  1  0
 21 43  1  0
 22 44  1  0
M  END
>  <smiles>  (47) 
O=C(NCC(=O)N1CCCCCC1)c1ccc2cc(F)ccc2n1

>  <score_type>  (47) 
oracle

>  <origin>  (47) 
autodockgpu

>  <m_score__min__energy>  (47) 
-5.5700000000000003

>  <m_primary>  (47) 
energy

>  <rmsd>  (47) 
3.662337915366896

>  <m_score__min__rmsd>  (47) 
3.662337915366896

>  <meeko>  (47) 
{"free_energy": -4.75, "intermolecular_energy": -7.43, "internal_energy": -1.35, "cluster_size": 16, "cluster_id": 2, "rank_in_cluster": 7}

>  <energy>  (47) 
-3.61

>  <cluster_rmsd>  (47) 
1.1

>  <cluster>  (47) 
10

$$$$

     RDKit          3D

 44 46  0  0  0  0  0  0  0  0999 V2000
  135.4800   69.6050  224.1010 O   0  0  0  0  0  0  0  0  0  0  0  0
  135.7180   70.7670  224.4970 C   0  0  0  0  0  0  0  0  0  0  0  0
  137.0140   71.3040  224.2460 N   0  0  0  0  0  0  0  0  0  0  0  0
  138.0330   70.5190  223.5460 C   0  0  0  0  0  0  0  0  0  0  0  0
  138.5010   69.4890  224.4730 C   0  0  0  0  0  0  0  0  0  0  0  0
  137.7580   68.4960  224.7220 O   0  0  0  0  0  0  0  0  0  0  0  0
  139.7630   69.5100  225.1410 N   0  0  0  0  0  0  0  0  0  0  0  0
  139.9260   68.3090  226.0190 C   0  0  0  0  0  0  0  0  0  0  0  0
  140.0840   68.8050  227.4940 C   0  0  0  0  0  0  0  0  0  0  0  0
  140.5860   70.1070  227.3880 C   0  0  0  0  0  0  0  0  0  0  0  0
  141.0620   71.4100  227.2390 C   0  0  0  0  0  0  0  0  0  0  0  0
  140.6300   71.8390  225.7910 C   0  0  0  0  0  0  0  0  0  0  0  0
  140.5910   70.6100  224.8680 C   0  0  0  0  0  0  0  0  0  0  0  0
  134.7190   71.5780  225.1990 C   0  0  0  0  0  0  0  0  0  0  0  0
  133.6500   70.9470  225.8040 C   0  0  0  0  0  0  0  0  0  0  0  0
  132.6890   71.6940  226.4770 C   0  0  0  0  0  0  0  0  0  0  0  0
  132.8500   73.0740  226.5110 C   0  0  0  0  0  0  0  0  0  0  0  0
  131.9160   73.8630  227.1710 C   0  0  0  0  0  0  0  0  0  0  0  0
  132.0790   75.2300  227.2040 C   0  0  0  0  0  0  0  0  0  0  0  0
  131.1510   75.9780  227.8570 F   0  0  0  0  0  0  0  0  0  0  0  0
  133.1500   75.8510  226.5970 C   0  0  0  0  0  0  0  0  0  0  0  0
  134.0670   75.0590  225.9480 C   0  0  0  0  0  0  0  0  0  0  0  0
  133.9300   73.6910  225.8990 C   0  0  0  0  0  0  0  0  0  0  0  0
  134.8280   72.9260  225.2640 N   0  0  0  0  0  0  0  0  0  0  0  0
  137.1870   72.2750  224.5860 H   0  0  0  0  0  0  0  0  0  0  0  0
  137.5981   70.0504  222.6509 H   0  0  0  0  0  0  0  0  0  0  0  0
  138.8662   71.1610  223.2240 H   0  0  0  0  0  0  0  0  0  0  0  0
  139.0397   67.6628  225.9356 H   0  0  0  0  0  0  0  0  0  0  0  0
  140.8105   67.7305  225.7140 H   0  0  0  0  0  0  0  0  0  0  0  0
  139.1111   68.8066  228.0074 H   0  0  0  0  0  0  0  0  0  0  0  0
  140.7488   68.1529  228.0796 H   0  0  0  0  0  0  0  0  0  0  0  0
  140.1796   70.3566  228.3792 H   0  0  0  0  0  0  0  0  0  0  0  0
  141.4645   69.7243  226.8479 H   0  0  0  0  0  0  0  0  0  0  0  0
  140.6100   72.0747  227.9899 H   0  0  0  0  0  0  0  0  0  0  0  0
  142.1514   71.4700  227.3794 H   0  0  0  0  0  0  0  0  0  0  0  0
  139.6308   72.2973  225.8297 H   0  0  0  0  0  0  0  0  0  0  0  0
  141.3578   72.5636  225.3969 H   0  0  0  0  0  0  0  0  0  0  0  0
  140.2983   70.9786  223.8738 H   0  0  0  0  0  0  0  0  0  0  0  0
  141.5970   70.1852  225.0000 H   0  0  0  0  0  0  0  0  0  0  0  0
  133.5584   69.8520  225.7536 H   0  0  0  0  0  0  0  0  0  0  0  0
  131.8310   71.2092  226.9656 H   0  0  0  0  0  0  0  0  0  0  0  0
  131.0502   73.3978  227.6650 H   0  0  0  0  0  0  0  0  0  0  0  0
  133.2667   76.9443  226.6310 H   0  0  0  0  0  0  0  0  0  0  0  0
  134.9308   75.5301  225.4562 H   0  0  0  0  0  0  0  0  0  0  0  0
  1  2  2  0
  2  3  1  0
  3  4  1  0
  4  5  1  0
  5  6  2  0
  5  7  1  0
  7  8  1  0
  8  9  1  0
  9 10  1  0
 10 11  1  0
 11 12  1  0
 12 13  1  0
  2 14  1  0
 14 15  2  0
 15 16  1  0
 16 17  2  0
 17 18  1  0
 18 19  2  0
 19 20  1  0
 19 21  1  0
 21 22  2  0
 22 23  1  0
 23 24  2  0
 13  7  1  0
 24 14  1  0
 23 17  1  0
  3 25  1  0
  4 26  1  0
  4 27  1  0
  8 28  1  0
  8 29  1  0
  9 30  1  0
  9 31  1  0
 10 32  1  0
 10 33  1  0
 11 34  1  0
 11 35  1  0
 12 36  1  0
 12 37  1  0
 13 38  1  0
 13 39  1  0
 15 40  1  0
 16 41  1  0
 18 42  1  0
 21 43  1  0
 22 44  1  0
M  END
>  <smiles>  (48) 
O=C(NCC(=O)N1CCCCCC1)c1ccc2cc(F)ccc2n1

>  <score_type>  (48) 
oracle

>  <origin>  (48) 
autodockgpu

>  <m_score__min__energy>  (48) 
-5.5700000000000003

>  <m_primary>  (48) 
energy

>  <rmsd>  (48) 
8.379474105455785

>  <m_score__min__rmsd>  (48) 
8.379474105455785

>  <meeko>  (48) 
{"free_energy": -4.39, "intermolecular_energy": -7.08, "internal_energy": -1.2, "cluster_size": 9, "cluster_id": 1, "rank_in_cluster": 7}

>  <energy>  (48) 
-3.66

>  <cluster_rmsd>  (48) 
0.0

>  <cluster>  (48) 
11

$$$$

     RDKit          3D

 44 46  0  0  0  0  0  0  0  0999 V2000
  137.5040   69.8190  222.0950 O   0  0  0  0  0  0  0  0  0  0  0  0
  137.9690   70.4590  223.0630 C   0  0  0  0  0  0  0  0  0  0  0  0
  137.8040   71.8760  223.0670 N   0  0  0  0  0  0  0  0  0  0  0  0
  137.1110   72.5570  221.9720 C   0  0  0  0  0  0  0  0  0  0  0  0
  137.8010   73.8260  221.7440 C   0  0  0  0  0  0  0  0  0  0  0  0
  137.3730   74.8750  222.3070 O   0  0  0  0  0  0  0  0  0  0  0  0
  138.9530   73.9850  220.9160 N   0  0  0  0  0  0  0  0  0  0  0  0
  139.4080   75.4120  220.8980 C   0  0  0  0  0  0  0  0  0  0  0  0
  140.8660   75.4620  221.4620 C   0  0  0  0  0  0  0  0  0  0  0  0
  141.3960   74.1900  221.2150 C   0  0  0  0  0  0  0  0  0  0  0  0
  141.8790   72.9020  220.9820 C   0  0  0  0  0  0  0  0  0  0  0  0
  140.5960   72.0120  220.8780 C   0  0  0  0  0  0  0  0  0  0  0  0
  139.4330   72.8250  220.2890 C   0  0  0  0  0  0  0  0  0  0  0  0
  138.6680   69.8060  224.1740 C   0  0  0  0  0  0  0  0  0  0  0  0
  138.7870   68.4310  224.1740 C   0  0  0  0  0  0  0  0  0  0  0  0
  139.4450   67.7880  225.2160 C   0  0  0  0  0  0  0  0  0  0  0  0
  139.9650   68.5760  226.2360 C   0  0  0  0  0  0  0  0  0  0  0  0
  140.6310   67.9790  227.3000 C   0  0  0  0  0  0  0  0  0  0  0  0
  141.1460   68.7620  228.3090 C   0  0  0  0  0  0  0  0  0  0  0  0
  141.7930   68.1520  229.3370 F   0  0  0  0  0  0  0  0  0  0  0  0
  141.0220   70.1350  228.3000 C   0  0  0  0  0  0  0  0  0  0  0  0
  140.3610   70.7130  227.2430 C   0  0  0  0  0  0  0  0  0  0  0  0
  139.8370   69.9560  226.2210 C   0  0  0  0  0  0  0  0  0  0  0  0
  139.1940   70.5270  225.1940 N   0  0  0  0  0  0  0  0  0  0  0  0
  138.2010   72.3860  223.8860 H   0  0  0  0  0  0  0  0  0  0  0  0
  137.1470   71.9400  221.0621 H   0  0  0  0  0  0  0  0  0  0  0  0
  136.0545   72.7280  222.2260 H   0  0  0  0  0  0  0  0  0  0  0  0
  139.3933   75.7955  219.8671 H   0  0  0  0  0  0  0  0  0  0  0  0
  138.7396   76.0338  221.5116 H   0  0  0  0  0  0  0  0  0  0  0  0
  141.4546   76.2331  220.9433 H   0  0  0  0  0  0  0  0  0  0  0  0
  140.8857   75.7162  222.5321 H   0  0  0  0  0  0  0  0  0  0  0  0
  141.6832   74.4944  220.1977 H   0  0  0  0  0  0  0  0  0  0  0  0
  141.7297   74.1259  222.2612 H   0  0  0  0  0  0  0  0  0  0  0  0
  142.4534   72.8663  220.0445 H   0  0  0  0  0  0  0  0  0  0  0  0
  142.5595   72.5616  221.7764 H   0  0  0  0  0  0  0  0  0  0  0  0
  140.8034   71.1501  220.2268 H   0  0  0  0  0  0  0  0  0  0  0  0
  140.3178   71.6642  221.8838 H   0  0  0  0  0  0  0  0  0  0  0  0
  139.7466   73.1265  219.2787 H   0  0  0  0  0  0  0  0  0  0  0  0
  138.5850   72.1326  220.3960 H   0  0  0  0  0  0  0  0  0  0  0  0
  138.3604   67.8429  223.3480 H   0  0  0  0  0  0  0  0  0  0  0  0
  139.5505   66.6932  225.2327 H   0  0  0  0  0  0  0  0  0  0  0  0
  140.7462   66.8856  227.3359 H   0  0  0  0  0  0  0  0  0  0  0  0
  141.4388   70.7480  229.1127 H   0  0  0  0  0  0  0  0  0  0  0  0
  140.2482   71.8068  227.2135 H   0  0  0  0  0  0  0  0  0  0  0  0
  1  2  2  0
  2  3  1  0
  3  4  1  0
  4  5  1  0
  5  6  2  0
  5  7  1  0
  7  8  1  0
  8  9  1  0
  9 10  1  0
 10 11  1  0
 11 12  1  0
 12 13  1  0
  2 14  1  0
 14 15  2  0
 15 16  1  0
 16 17  2  0
 17 18  1  0
 18 19  2  0
 19 20  1  0
 19 21  1  0
 21 22  2  0
 22 23  1  0
 23 24  2  0
 13  7  1  0
 24 14  1  0
 23 17  1  0
  3 25  1  0
  4 26  1  0
  4 27  1  0
  8 28  1  0
  8 29  1  0
  9 30  1  0
  9 31  1  0
 10 32  1  0
 10 33  1  0
 11 34  1  0
 11 35  1  0
 12 36  1  0
 12 37  1  0
 13 38  1  0
 13 39  1  0
 15 40  1  0
 16 41  1  0
 18 42  1  0
 21 43  1  0
 22 44  1  0
M  END
>  <smiles>  (49) 
O=C(NCC(=O)N1CCCCCC1)c1ccc2cc(F)ccc2n1

>  <score_type>  (49) 
oracle

>  <origin>  (49) 
autodockgpu

>  <m_score__min__energy>  (49) 
-5.5700000000000003

>  <m_primary>  (49) 
energy

>  <rmsd>  (49) 
2.4624666988497244

>  <m_score__min__rmsd>  (49) 
2.4624666988497244

>  <meeko>  (49) 
{"free_energy": -3.69, "intermolecular_energy": -6.38, "internal_energy": -1.51, "cluster_size": 5, "cluster_id": 4, "rank_in_cluster": 4}

>  <energy>  (49) 
-3.45

>  <cluster_rmsd>  (49) 
0.0

>  <cluster>  (49) 
12

$$$$

     RDKit          3D

 44 46  0  0  0  0  0  0  0  0999 V2000
  140.9180   73.4100  221.1480 O   0  0  0  0  0  0  0  0  0  0  0  0
  140.0700   73.3470  222.0650 C   0  0  0  0  0  0  0  0  0  0  0  0
  139.2190   74.4730  222.2650 N   0  0  0  0  0  0  0  0  0  0  0  0
  139.3340   75.6640  221.4210 C   0  0  0  0  0  0  0  0  0  0  0  0
  140.3150   76.5480  222.0490 C   0  0  0  0  0  0  0  0  0  0  0  0
  141.2840   76.0450  222.6870 O   0  0  0  0  0  0  0  0  0  0  0  0
  140.2700   77.9750  222.0000 N   0  0  0  0  0  0  0  0  0  0  0  0
  141.4210   78.5740  222.7460 C   0  0  0  0  0  0  0  0  0  0  0  0
  140.9210   79.8820  223.4410 C   0  0  0  0  0  0  0  0  0  0  0  0
  139.5250   79.8340  223.3460 C   0  0  0  0  0  0  0  0  0  0  0  0
  138.1350   79.7390  223.2720 C   0  0  0  0  0  0  0  0  0  0  0  0
  137.8690   78.8860  221.9860 C   0  0  0  0  0  0  0  0  0  0  0  0
  139.1960   78.5390  221.2940 C   0  0  0  0  0  0  0  0  0  0  0  0
  139.9300   72.1690  222.9270 C   0  0  0  0  0  0  0  0  0  0  0  0
  139.1750   71.1020  222.4830 C   0  0  0  0  0  0  0  0  0  0  0  0
  139.0270   69.9730  223.2820 C   0  0  0  0  0  0  0  0  0  0  0  0
  139.6600   69.9690  224.5190 C   0  0  0  0  0  0  0  0  0  0  0  0
  139.5420   68.8630  225.3530 C   0  0  0  0  0  0  0  0  0  0  0  0
  140.1700   68.8620  226.5780 C   0  0  0  0  0  0  0  0  0  0  0  0
  140.0380   67.7670  227.3730 F   0  0  0  0  0  0  0  0  0  0  0  0
  140.9230   69.9320  227.0110 C   0  0  0  0  0  0  0  0  0  0  0  0
  141.0320   71.0190  226.1780 C   0  0  0  0  0  0  0  0  0  0  0  0
  140.4150   71.0480  224.9480 C   0  0  0  0  0  0  0  0  0  0  0  0
  140.5260   72.1120  224.1410 N   0  0  0  0  0  0  0  0  0  0  0  0
  138.5210   74.3950  223.0360 H   0  0  0  0  0  0  0  0  0  0  0  0
  139.6731   75.3804  220.4137 H   0  0  0  0  0  0  0  0  0  0  0  0
  138.3612   76.1681  221.3236 H   0  0  0  0  0  0  0  0  0  0  0  0
  141.7839   77.8643  223.5040 H   0  0  0  0  0  0  0  0  0  0  0  0
  142.2464   78.8010  222.0551 H   0  0  0  0  0  0  0  0  0  0  0  0
  141.2359   79.9042  224.4947 H   0  0  0  0  0  0  0  0  0  0  0  0
  141.3357   80.7846  222.9684 H   0  0  0  0  0  0  0  0  0  0  0  0
  139.4424   80.7737  223.9118 H   0  0  0  0  0  0  0  0  0  0  0  0
  139.6085   79.3953  222.3407 H   0  0  0  0  0  0  0  0  0  0  0  0
  137.7316   79.2356  224.1630 H   0  0  0  0  0  0  0  0  0  0  0  0
  137.6498   80.7252  223.2279 H   0  0  0  0  0  0  0  0  0  0  0  0
  137.3522   77.9566  222.2672 H   0  0  0  0  0  0  0  0  0  0  0  0
  137.2448   79.4685  221.2924 H   0  0  0  0  0  0  0  0  0  0  0  0
  138.9493   77.8314  220.4888 H   0  0  0  0  0  0  0  0  0  0  0  0
  139.5871   79.5315  221.0258 H   0  0  0  0  0  0  0  0  0  0  0  0
  138.6901   71.1446  221.4966 H   0  0  0  0  0  0  0  0  0  0  0  0
  138.4293   69.1128  222.9461 H   0  0  0  0  0  0  0  0  0  0  0  0
  138.9494   67.9924  225.0354 H   0  0  0  0  0  0  0  0  0  0  0  0
  141.4207   69.9162  227.9919 H   0  0  0  0  0  0  0  0  0  0  0  0
  141.6262   71.8863  226.5015 H   0  0  0  0  0  0  0  0  0  0  0  0
  1  2  2  0
  2  3  1  0
  3  4  1  0
  4  5  1  0
  5  6  2  0
  5  7  1  0
  7  8  1  0
  8  9  1  0
  9 10  1  0
 10 11  1  0
 11 12  1  0
 12 13  1  0
  2 14  1  0
 14 15  2  0
 15 16  1  0
 16 17  2  0
 17 18  1  0
 18 19  2  0
 19 20  1  0
 19 21  1  0
 21 22  2  0
 22 23  1  0
 23 24  2  0
 13  7  1  0
 24 14  1  0
 23 17  1  0
  3 25  1  0
  4 26  1  0
  4 27  1  0
  8 28  1  0
  8 29  1  0
  9 30  1  0
  9 31  1  0
 10 32  1  0
 10 33  1  0
 11 34  1  0
 11 35  1  0
 12 36  1  0
 12 37  1  0
 13 38  1  0
 13 39  1  0
 15 40  1  0
 16 41  1  0
 18 42  1  0
 21 43  1  0
 22 44  1  0
M  END
>  <smiles>  (50) 
O=C(NCC(=O)N1CCCCCC1)c1ccc2cc(F)ccc2n1

>  <score_type>  (50) 
oracle

>  <origin>  (50) 
autodockgpu

>  <m_score__min__energy>  (50) 
-5.5700000000000003

>  <m_primary>  (50) 
energy

>  <rmsd>  (50) 
3.481126753194183

>  <m_score__min__rmsd>  (50) 
3.481126753194183

>  <meeko>  (50) 
{"free_energy": -4.42, "intermolecular_energy": -7.1, "internal_energy": -0.91, "cluster_size": 16, "cluster_id": 2, "rank_in_cluster": 12}

>  <energy>  (50) 
-3.31

>  <cluster_rmsd>  (50) 
0.0

>  <cluster>  (50) 
13

$$$$
