
     RDKit          3D

 51 54  0  0  0  0  0  0  0  0999 V2000
  138.9640   75.0090  222.0170 O   0  0  0  0  0  0  0  0  0  0  0  0
  140.1170   75.5190  222.0180 C   0  0  0  0  0  0  0  0  0  0  0  0
  141.2850   74.7960  221.6750 N   0  0  0  0  0  0  0  0  0  0  0  0
  141.2210   73.3980  221.2920 C   0  0  0  0  0  0  0  0  0  0  0  0
  141.8810   73.2530  219.9420 C   0  0  0  0  0  0  0  0  0  0  0  0
  141.1020   73.0810  218.9830 O   0  0  0  0  0  0  0  0  0  0  0  0
  143.2820   73.3220  219.8720 N   0  0  0  0  0  0  0  0  0  0  0  0
  144.2100   72.2350  220.2830 C   0  0  0  0  0  0  0  0  0  0  0  0
  145.4590   72.9440  220.7600 C   0  0  0  0  0  0  0  0  0  0  0  0
  145.0790   74.4280  220.6630 C   0  0  0  0  0  0  0  0  0  0  0  0
  144.1930   74.3550  219.4400 C   0  0  2  0  0  0  0  0  0  0  0  0
  143.6420   75.5950  218.9670 C   0  0  0  0  0  0  0  0  0  0  0  0
  143.6600   75.9210  217.6330 C   0  0  0  0  0  0  0  0  0  0  0  0
  143.1220   77.0890  217.1530 C   0  0  0  0  0  0  0  0  0  0  0  0
  142.5370   77.9910  217.9920 C   0  0  0  0  0  0  0  0  0  0  0  0
  141.9420   79.2700  217.5190 C   0  0  0  0  0  0  0  0  0  0  0  0
  142.0380   79.3970  216.1550 F   0  0  0  0  0  0  0  0  0  0  0  0
  142.6530   80.3010  218.1250 F   0  0  0  0  0  0  0  0  0  0  0  0
  140.6290   79.3850  217.9680 F   0  0  0  0  0  0  0  0  0  0  0  0
  142.5080   77.6810  219.3460 C   0  0  0  0  0  0  0  0  0  0  0  0
  143.0560   76.4930  219.8290 C   0  0  0  0  0  0  0  0  0  0  0  0
  140.2530   76.9280  222.3950 C   0  0  0  0  0  0  0  0  0  0  0  0
  139.1270   77.7240  222.5770 C   0  0  0  0  0  0  0  0  0  0  0  0
  139.2210   79.0540  222.9310 C   0  0  0  0  0  0  0  0  0  0  0  0
  140.4550   79.6370  223.1170 C   0  0  0  0  0  0  0  0  0  0  0  0
  140.5970   80.9610  223.4710 C   0  0  0  0  0  0  0  0  0  0  0  0
  141.8380   81.5350  223.6540 C   0  0  0  0  0  0  0  0  0  0  0  0
  142.9610   80.7380  223.4720 C   0  0  0  0  0  0  0  0  0  0  0  0
  142.8290   79.4060  223.1160 C   0  0  0  0  0  0  0  0  0  0  0  0
  141.5740   78.8210  222.9300 C   0  0  0  0  0  0  0  0  0  0  0  0
  141.4470   77.5190  222.5810 N   0  0  0  0  0  0  0  0  0  0  0  0
  142.2200   75.2880  221.6980 H   0  0  0  0  0  0  0  0  0  0  0  0
  141.7507   72.7830  222.0344 H   0  0  0  0  0  0  0  0  0  0  0  0
  140.1744   73.0628  221.2435 H   0  0  0  0  0  0  0  0  0  0  0  0
  143.7702   71.6382  221.0957 H   0  0  0  0  0  0  0  0  0  0  0  0
  144.4205   71.5383  219.4582 H   0  0  0  0  0  0  0  0  0  0  0  0
  145.6992   72.6653  221.7967 H   0  0  0  0  0  0  0  0  0  0  0  0
  146.3519   72.6881  220.1707 H   0  0  0  0  0  0  0  0  0  0  0  0
  144.5307   74.7740  221.5516 H   0  0  0  0  0  0  0  0  0  0  0  0
  145.9211   75.1329  220.6005 H   0  0  0  0  0  0  0  0  0  0  0  0
  144.7108   74.1187  218.4987 H   0  0  0  0  0  0  0  0  0  0  0  0
  144.1228   75.2200  216.9228 H   0  0  0  0  0  0  0  0  0  0  0  0
  143.1634   77.3008  216.0744 H   0  0  0  0  0  0  0  0  0  0  0  0
  142.0437   78.3864  220.0509 H   0  0  0  0  0  0  0  0  0  0  0  0
  143.0195   76.2725  220.9061 H   0  0  0  0  0  0  0  0  0  0  0  0
  138.1310   77.2794  222.4343 H   0  0  0  0  0  0  0  0  0  0  0  0
  138.3070   79.6512  223.0652 H   0  0  0  0  0  0  0  0  0  0  0  0
  139.6965   81.5769  223.6115 H   0  0  0  0  0  0  0  0  0  0  0  0
  141.9355   82.5938  223.9361 H   0  0  0  0  0  0  0  0  0  0  0  0
  143.9636   81.1683  223.6118 H   0  0  0  0  0  0  0  0  0  0  0  0
  143.7329   78.7948  222.9765 H   0  0  0  0  0  0  0  0  0  0  0  0
  1  2  2  0
  2  3  1  0
  3  4  1  0
  4  5  1  0
  5  6  2  0
  5  7  1  0
  7  8  1  0
  8  9  1  0
  9 10  1  0
 10 11  1  0
 11 12  1  0
 12 13  2  0
 13 14  1  0
 14 15  2  0
 15 16  1  0
 16 17  1  0
 16 18  1  0
 16 19  1  0
 15 20  1  0
 20 21  2  0
  2 22  1  0
 22 23  2  0
 23 24  1  0
 24 25  2  0
 25 26  1  0
 26 27  2  0
 27 28  1  0
 28 29  2  0
 29 30  1  0
 30 31  2  0
 11  7  1  0
 21 12  1  0
 31 22  1  0
 30 25  1  0
  3 32  1  0
  4 33  1  0
  4 34  1  0
  8 35  1  0
  8 36  1  0
  9 37  1  0
  9 38  1  0
 10 39  1  0
 10 40  1  0
 11 41  1  6
 13 42  1  0
 14 43  1  0
 20 44  1  0
 21 45  1  0
 23 46  1  0
 24 47  1  0
 26 48  1  0
 27 49  1  0
 28 50  1  0
 29 51  1  0
M  END
>  <smiles>  (1) 
O=C(NCC(=O)N1CCCC1c1ccc(C(F)(F)F)cc1)c1ccc2ccccc2n1

>  <score_type>  (1) 
oracle

>  <origin>  (1) 
autodockgpu

>  <m_score__min__energy>  (1) 
-8.4199999999999999

>  <m_primary>  (1) 
energy

>  <rmsd>  (1) 
7.756111611723129

>  <m_score__min__rmsd>  (1) 
7.756111611723129

>  <meeko>  (1) 
{"free_energy": -7.34, "intermolecular_energy": -9.13, "internal_energy": -2.46, "cluster_size": 5, "cluster_id": 7, "rank_in_cluster": 5}

>  <energy>  (1) 
-8.42

>  <cluster_rmsd>  (1) 
0.0

>  <cluster>  (1) 
1

$$$$

     RDKit          3D

 51 54  0  0  0  0  0  0  0  0999 V2000
  141.2810   71.6540  221.4390 O   0  0  0  0  0  0  0  0  0  0  0  0
  140.6430   72.2260  222.3630 C   0  0  0  0  0  0  0  0  0  0  0  0
  140.1930   73.5670  222.2820 N   0  0  0  0  0  0  0  0  0  0  0  0
  140.4450   74.3750  221.1050 C   0  0  0  0  0  0  0  0  0  0  0  0
  140.7690   75.7770  221.5630 C   0  0  0  0  0  0  0  0  0  0  0  0
  140.3410   76.0810  222.6950 O   0  0  0  0  0  0  0  0  0  0  0  0
  141.5070   76.6080  220.7040 N   0  0  0  0  0  0  0  0  0  0  0  0
  141.2810   78.0670  220.5270 C   0  0  0  0  0  0  0  0  0  0  0  0
  141.6820   78.3560  219.0970 C   0  0  0  0  0  0  0  0  0  0  0  0
  142.0230   76.9670  218.5400 C   0  0  0  0  0  0  0  0  0  0  0  0
  142.6010   76.3550  219.7960 C   0  0  2  0  0  0  0  0  0  0  0  0
  143.1010   75.0120  219.6880 C   0  0  0  0  0  0  0  0  0  0  0  0
  144.1220   74.5660  220.4910 C   0  0  0  0  0  0  0  0  0  0  0  0
  144.6040   73.2820  220.4230 C   0  0  0  0  0  0  0  0  0  0  0  0
  144.0830   72.3800  219.5420 C   0  0  0  0  0  0  0  0  0  0  0  0
  144.5730   70.9790  219.4320 C   0  0  0  0  0  0  0  0  0  0  0  0
  145.9430   70.9290  219.3570 F   0  0  0  0  0  0  0  0  0  0  0  0
  144.0310   70.4480  218.2660 F   0  0  0  0  0  0  0  0  0  0  0  0
  144.0720   70.2110  220.4810 F   0  0  0  0  0  0  0  0  0  0  0  0
  143.0480   72.8120  218.7210 C   0  0  0  0  0  0  0  0  0  0  0  0
  142.5620   74.1170  218.7940 C   0  0  0  0  0  0  0  0  0  0  0  0
  140.3530   71.4650  223.5820 C   0  0  0  0  0  0  0  0  0  0  0  0
  139.6810   70.2490  223.5140 C   0  0  0  0  0  0  0  0  0  0  0  0
  139.3930   69.5090  224.6410 C   0  0  0  0  0  0  0  0  0  0  0  0
  139.7720   69.9630  225.8860 C   0  0  0  0  0  0  0  0  0  0  0  0
  139.5060   69.2570  227.0390 C   0  0  0  0  0  0  0  0  0  0  0  0
  139.8900   69.7220  228.2790 C   0  0  0  0  0  0  0  0  0  0  0  0
  140.5630   70.9370  228.3450 C   0  0  0  0  0  0  0  0  0  0  0  0
  140.8340   71.6540  227.1920 C   0  0  0  0  0  0  0  0  0  0  0  0
  140.4470   71.1860  225.9330 C   0  0  0  0  0  0  0  0  0  0  0  0
  140.7130   71.8890  224.8070 N   0  0  0  0  0  0  0  0  0  0  0  0
  139.6630   73.9820  223.0970 H   0  0  0  0  0  0  0  0  0  0  0  0
  141.2943   73.9603  220.5422 H   0  0  0  0  0  0  0  0  0  0  0  0
  139.5619   74.3814  220.4492 H   0  0  0  0  0  0  0  0  0  0  0  0
  140.2220   78.3165  220.6893 H   0  0  0  0  0  0  0  0  0  0  0  0
  141.8598   78.6646  221.2467 H   0  0  0  0  0  0  0  0  0  0  0  0
  140.8508   78.8115  218.5388 H   0  0  0  0  0  0  0  0  0  0  0  0
  142.5164   79.0685  219.0189 H   0  0  0  0  0  0  0  0  0  0  0  0
  141.1287   76.4297  218.1913 H   0  0  0  0  0  0  0  0  0  0  0  0
  142.6800   76.9551  217.6579 H   0  0  0  0  0  0  0  0  0  0  0  0
  143.5574   76.7832  220.1306 H   0  0  0  0  0  0  0  0  0  0  0  0
  144.5699   75.2626  221.2149 H   0  0  0  0  0  0  0  0  0  0  0  0
  145.4236   72.9757  221.0897 H   0  0  0  0  0  0  0  0  0  0  0  0
  142.6035   72.1107  217.9995 H   0  0  0  0  0  0  0  0  0  0  0  0
  141.7421   74.4325  218.1321 H   0  0  0  0  0  0  0  0  0  0  0  0
  139.3698   69.8661  222.5309 H   0  0  0  0  0  0  0  0  0  0  0  0
  138.8585   68.5523  224.5462 H   0  0  0  0  0  0  0  0  0  0  0  0
  138.9733   68.2972  226.9684 H   0  0  0  0  0  0  0  0  0  0  0  0
  139.6700   69.1476  229.1909 H   0  0  0  0  0  0  0  0  0  0  0  0
  140.8826   71.3316  229.3208 H   0  0  0  0  0  0  0  0  0  0  0  0
  141.3659   72.6138  227.2685 H   0  0  0  0  0  0  0  0  0  0  0  0
  1  2  2  0
  2  3  1  0
  3  4  1  0
  4  5  1  0
  5  6  2  0
  5  7  1  0
  7  8  1  0
  8  9  1  0
  9 10  1  0
 10 11  1  0
 11 12  1  0
 12 13  2  0
 13 14  1  0
 14 15  2  0
 15 16  1  0
 16 17  1  0
 16 18  1  0
 16 19  1  0
 15 20  1  0
 20 21  2  0
  2 22  1  0
 22 23  2  0
 23 24  1  0
 24 25  2  0
 25 26  1  0
 26 27  2  0
 27 28  1  0
 28 29  2  0
 29 30  1  0
 30 31  2  0
 11  7  1  0
 21 12  1  0
 31 22  1  0
 30 25  1  0
  3 32  1  0
  4 33  1  0
  4 34  1  0
  8 35  1  0
  8 36  1  0
  9 37  1  0
  9 38  1  0
 10 39  1  0
 10 40  1  0
 11 41  1  1
 13 42  1  0
 14 43  1  0
 20 44  1  0
 21 45  1  0
 23 46  1  0
 24 47  1  0
 26 48  1  0
 27 49  1  0
 28 50  1  0
 29 51  1  0
M  END
>  <smiles>  (2) 
O=C(NCC(=O)N1CCCC1c1ccc(C(F)(F)F)cc1)c1ccc2ccccc2n1

>  <score_type>  (2) 
oracle

>  <origin>  (2) 
autodockgpu

>  <m_score__min__energy>  (2) 
-8.4199999999999999

>  <m_primary>  (2) 
energy

>  <rmsd>  (2) 
2.263837548479852

>  <m_score__min__rmsd>  (2) 
2.263837548479852

>  <meeko>  (2) 
{"free_energy": -7.9, "intermolecular_energy": -9.69, "internal_energy": -2.26, "cluster_size": 19, "cluster_id": 4, "rank_in_cluster": 6}

>  <energy>  (2) 
-8.26

>  <cluster_rmsd>  (2) 
1.85

>  <cluster>  (2) 
1

$$$$

     RDKit          3D

 51 54  0  0  0  0  0  0  0  0999 V2000
  140.7580   77.8470  218.1420 O   0  0  0  0  0  0  0  0  0  0  0  0
  141.6550   77.6840  219.0130 C   0  0  0  0  0  0  0  0  0  0  0  0
  142.1960   78.7470  219.7780 N   0  0  0  0  0  0  0  0  0  0  0  0
  141.7390   80.1120  219.5990 C   0  0  0  0  0  0  0  0  0  0  0  0
  140.5900   80.3470  220.5510 C   0  0  0  0  0  0  0  0  0  0  0  0
  139.4680   80.4610  220.0150 O   0  0  0  0  0  0  0  0  0  0  0  0
  140.8640   80.4150  221.9260 N   0  0  0  0  0  0  0  0  0  0  0  0
  141.3960   81.6120  222.6300 C   0  0  0  0  0  0  0  0  0  0  0  0
  142.2150   81.0610  223.7770 C   0  0  0  0  0  0  0  0  0  0  0  0
  142.1510   79.5440  223.5580 C   0  0  0  0  0  0  0  0  0  0  0  0
  140.7490   79.4550  222.9980 C   0  0  2  0  0  0  0  0  0  0  0  0
  140.2600   78.1400  222.6850 C   0  0  0  0  0  0  0  0  0  0  0  0
  138.9140   77.8700  222.6510 C   0  0  0  0  0  0  0  0  0  0  0  0
  138.4210   76.6280  222.3350 C   0  0  0  0  0  0  0  0  0  0  0  0
  139.2580   75.5930  222.0370 C   0  0  0  0  0  0  0  0  0  0  0  0
  138.7700   74.2310  221.6900 C   0  0  0  0  0  0  0  0  0  0  0  0
  138.7210   74.0440  220.3310 F   0  0  0  0  0  0  0  0  0  0  0  0
  137.4860   74.1110  222.2140 F   0  0  0  0  0  0  0  0  0  0  0  0
  139.5440   73.2660  222.3280 F   0  0  0  0  0  0  0  0  0  0  0  0
  140.6240   75.8460  222.0660 C   0  0  0  0  0  0  0  0  0  0  0  0
  141.1200   77.1090  222.3880 C   0  0  0  0  0  0  0  0  0  0  0  0
  142.1620   76.3290  219.2450 C   0  0  0  0  0  0  0  0  0  0  0  0
  141.3890   75.2190  218.9200 C   0  0  0  0  0  0  0  0  0  0  0  0
  141.8360   73.9310  219.1250 C   0  0  0  0  0  0  0  0  0  0  0  0
  143.0840   73.7070  219.6660 C   0  0  0  0  0  0  0  0  0  0  0  0
  143.5720   72.4380  219.8880 C   0  0  0  0  0  0  0  0  0  0  0  0
  144.8220   72.2260  220.4310 C   0  0  0  0  0  0  0  0  0  0  0  0
  145.5930   73.3370  220.7540 C   0  0  0  0  0  0  0  0  0  0  0  0
  145.1110   74.6160  220.5350 C   0  0  0  0  0  0  0  0  0  0  0  0
  143.8450   74.8350  219.9850 C   0  0  0  0  0  0  0  0  0  0  0  0
  143.3760   76.0870  219.7720 N   0  0  0  0  0  0  0  0  0  0  0  0
  142.9470   78.5370  220.4910 H   0  0  0  0  0  0  0  0  0  0  0  0
  142.5577   80.8122  219.8216 H   0  0  0  0  0  0  0  0  0  0  0  0
  141.4146   80.2738  218.5604 H   0  0  0  0  0  0  0  0  0  0  0  0
  142.0279   82.2081  221.9553 H   0  0  0  0  0  0  0  0  0  0  0  0
  140.5922   82.2770  222.9788 H   0  0  0  0  0  0  0  0  0  0  0  0
  143.2528   81.4227  223.7299 H   0  0  0  0  0  0  0  0  0  0  0  0
  141.8382   81.3703  224.7631 H   0  0  0  0  0  0  0  0  0  0  0  0
  142.9072   79.1972  222.8383 H   0  0  0  0  0  0  0  0  0  0  0  0
  142.3502   78.9253  224.4454 H   0  0  0  0  0  0  0  0  0  0  0  0
  139.9437   79.6857  223.7109 H   0  0  0  0  0  0  0  0  0  0  0  0
  138.2052   78.6779  222.8854 H   0  0  0  0  0  0  0  0  0  0  0  0
  137.3332   76.4650  222.3220 H   0  0  0  0  0  0  0  0  0  0  0  0
  141.3279   75.0342  221.8304 H   0  0  0  0  0  0  0  0  0  0  0  0
  142.2063   77.2816  222.4045 H   0  0  0  0  0  0  0  0  0  0  0  0
  140.3902   75.3737  218.4860 H   0  0  0  0  0  0  0  0  0  0  0  0
  141.1944   73.0790  218.8559 H   0  0  0  0  0  0  0  0  0  0  0  0
  142.9483   71.5709  219.6253 H   0  0  0  0  0  0  0  0  0  0  0  0
  145.1983   71.2069  220.6036 H   0  0  0  0  0  0  0  0  0  0  0  0
  146.5945   73.1984  221.1873 H   0  0  0  0  0  0  0  0  0  0  0  0
  145.7387   75.4796  220.7999 H   0  0  0  0  0  0  0  0  0  0  0  0
  1  2  2  0
  2  3  1  0
  3  4  1  0
  4  5  1  0
  5  6  2  0
  5  7  1  0
  7  8  1  0
  8  9  1  0
  9 10  1  0
 10 11  1  0
 11 12  1  0
 12 13  2  0
 13 14  1  0
 14 15  2  0
 15 16  1  0
 16 17  1  0
 16 18  1  0
 16 19  1  0
 15 20  1  0
 20 21  2  0
  2 22  1  0
 22 23  2  0
 23 24  1  0
 24 25  2  0
 25 26  1  0
 26 27  2  0
 27 28  1  0
 28 29  2  0
 29 30  1  0
 30 31  2  0
 11  7  1  0
 21 12  1  0
 31 22  1  0
 30 25  1  0
  3 32  1  0
  4 33  1  0
  4 34  1  0
  8 35  1  0
  8 36  1  0
  9 37  1  0
  9 38  1  0
 10 39  1  0
 10 40  1  0
 11 41  1  1
 13 42  1  0
 14 43  1  0
 20 44  1  0
 21 45  1  0
 23 46  1  0
 24 47  1  0
 26 48  1  0
 27 49  1  0
 28 50  1  0
 29 51  1  0
M  END
>  <smiles>  (3) 
O=C(NCC(=O)N1CCCC1c1ccc(C(F)(F)F)cc1)c1ccc2ccccc2n1

>  <score_type>  (3) 
oracle

>  <origin>  (3) 
autodockgpu

>  <m_score__min__energy>  (3) 
-8.4199999999999999

>  <m_primary>  (3) 
energy

>  <rmsd>  (3) 
7.621852003308731

>  <m_score__min__rmsd>  (3) 
7.621852003308731

>  <meeko>  (3) 
{"free_energy": -6.64, "intermolecular_energy": -8.43, "internal_energy": -2.84, "cluster_size": 2, "cluster_id": 8, "rank_in_cluster": 2}

>  <energy>  (3) 
-8.22

>  <cluster_rmsd>  (3) 
1.82

>  <cluster>  (3) 
1

$$$$

     RDKit          3D

 51 54  0  0  0  0  0  0  0  0999 V2000
  141.3210   71.7040  221.4470 O   0  0  0  0  0  0  0  0  0  0  0  0
  140.6450   72.2650  222.3520 C   0  0  0  0  0  0  0  0  0  0  0  0
  140.1690   73.5960  222.2530 N   0  0  0  0  0  0  0  0  0  0  0  0
  140.4370   74.4060  221.0800 C   0  0  0  0  0  0  0  0  0  0  0  0
  140.7530   75.8080  221.5430 C   0  0  0  0  0  0  0  0  0  0  0  0
  140.3330   76.1010  222.6820 O   0  0  0  0  0  0  0  0  0  0  0  0
  141.4750   76.6510  220.6830 N   0  0  0  0  0  0  0  0  0  0  0  0
  141.2200   78.1050  220.5040 C   0  0  0  0  0  0  0  0  0  0  0  0
  141.6150   78.4000  219.0730 C   0  0  0  0  0  0  0  0  0  0  0  0
  141.9820   77.0170  218.5170 C   0  0  0  0  0  0  0  0  0  0  0  0
  142.5720   76.4180  219.7740 C   0  0  2  0  0  0  0  0  0  0  0  0
  143.0970   75.0850  219.6690 C   0  0  0  0  0  0  0  0  0  0  0  0
  144.1280   74.6600  220.4710 C   0  0  0  0  0  0  0  0  0  0  0  0
  144.6350   73.3860  220.4050 C   0  0  0  0  0  0  0  0  0  0  0  0
  144.1300   72.4720  219.5270 C   0  0  0  0  0  0  0  0  0  0  0  0
  144.6460   71.0810  219.4190 C   0  0  0  0  0  0  0  0  0  0  0  0
  144.3220   70.5140  218.2110 F   0  0  0  0  0  0  0  0  0  0  0  0
  144.0550   70.3450  220.4420 F   0  0  0  0  0  0  0  0  0  0  0  0
  146.0170   71.0560  219.6630 F   0  0  0  0  0  0  0  0  0  0  0  0
  143.0860   72.8820  218.7070 C   0  0  0  0  0  0  0  0  0  0  0  0
  142.5750   74.1770  218.7770 C   0  0  0  0  0  0  0  0  0  0  0  0
  140.3380   71.5030  223.5650 C   0  0  0  0  0  0  0  0  0  0  0  0
  139.6290   70.3080  223.4890 C   0  0  0  0  0  0  0  0  0  0  0  0
  139.3230   69.5660  224.6110 C   0  0  0  0  0  0  0  0  0  0  0  0
  139.7210   69.9980  225.8580 C   0  0  0  0  0  0  0  0  0  0  0  0
  139.4380   69.2900  227.0050 C   0  0  0  0  0  0  0  0  0  0  0  0
  139.8410   69.7320  228.2480 C   0  0  0  0  0  0  0  0  0  0  0  0
  140.5490   70.9250  228.3220 C   0  0  0  0  0  0  0  0  0  0  0  0
  140.8380   71.6450  227.1740 C   0  0  0  0  0  0  0  0  0  0  0  0
  140.4310   71.2000  225.9130 C   0  0  0  0  0  0  0  0  0  0  0  0
  140.7150   71.9040  224.7920 N   0  0  0  0  0  0  0  0  0  0  0  0
  139.6090   74.0030  223.0510 H   0  0  0  0  0  0  0  0  0  0  0  0
  141.2946   73.9927  220.5290 H   0  0  0  0  0  0  0  0  0  0  0  0
  139.5629   74.4121  220.4122 H   0  0  0  0  0  0  0  0  0  0  0  0
  140.1563   78.3336  220.6662 H   0  0  0  0  0  0  0  0  0  0  0  0
  141.7869   78.7150  221.2227 H   0  0  0  0  0  0  0  0  0  0  0  0
  140.7751   78.8392  218.5147 H   0  0  0  0  0  0  0  0  0  0  0  0
  142.4359   79.1280  218.9939 H   0  0  0  0  0  0  0  0  0  0  0  0
  141.0980   76.4624  218.1693 H   0  0  0  0  0  0  0  0  0  0  0  0
  142.6385   77.0163  217.6344 H   0  0  0  0  0  0  0  0  0  0  0  0
  143.5203   76.8658  220.1059 H   0  0  0  0  0  0  0  0  0  0  0  0
  144.5635   75.3666  221.1928 H   0  0  0  0  0  0  0  0  0  0  0  0
  145.4617   73.0974  221.0708 H   0  0  0  0  0  0  0  0  0  0  0  0
  142.6540   72.1703  217.9881 H   0  0  0  0  0  0  0  0  0  0  0  0
  141.7489   74.4749  218.1146 H   0  0  0  0  0  0  0  0  0  0  0  0
  139.3024   69.9438  222.5038 H   0  0  0  0  0  0  0  0  0  0  0  0
  138.7596   68.6266  224.5102 H   0  0  0  0  0  0  0  0  0  0  0  0
  138.8760   68.3476  226.9279 H   0  0  0  0  0  0  0  0  0  0  0  0
  139.6082   69.1557  229.1556 H   0  0  0  0  0  0  0  0  0  0  0  0
  140.8830   71.3012  229.3002 H   0  0  0  0  0  0  0  0  0  0  0  0
  141.3998   72.5871  227.2567 H   0  0  0  0  0  0  0  0  0  0  0  0
  1  2  2  0
  2  3  1  0
  3  4  1  0
  4  5  1  0
  5  6  2  0
  5  7  1  0
  7  8  1  0
  8  9  1  0
  9 10  1  0
 10 11  1  0
 11 12  1  0
 12 13  2  0
 13 14  1  0
 14 15  2  0
 15 16  1  0
 16 17  1  0
 16 18  1  0
 16 19  1  0
 15 20  1  0
 20 21  2  0
  2 22  1  0
 22 23  2  0
 23 24  1  0
 24 25  2  0
 25 26  1  0
 26 27  2  0
 27 28  1  0
 28 29  2  0
 29 30  1  0
 30 31  2  0
 11  7  1  0
 21 12  1  0
 31 22  1  0
 30 25  1  0
  3 32  1  0
  4 33  1  0
  4 34  1  0
  8 35  1  0
  8 36  1  0
  9 37  1  0
  9 38  1  0
 10 39  1  0
 10 40  1  0
 11 41  1  1
 13 42  1  0
 14 43  1  0
 20 44  1  0
 21 45  1  0
 23 46  1  0
 24 47  1  0
 26 48  1  0
 27 49  1  0
 28 50  1  0
 29 51  1  0
M  END
>  <smiles>  (4) 
O=C(NCC(=O)N1CCCC1c1ccc(C(F)(F)F)cc1)c1ccc2ccccc2n1

>  <score_type>  (4) 
oracle

>  <origin>  (4) 
autodockgpu

>  <m_score__min__energy>  (4) 
-8.4199999999999999

>  <m_primary>  (4) 
energy

>  <rmsd>  (4) 
2.2615248032923123

>  <m_score__min__rmsd>  (4) 
2.2615248032923123

>  <meeko>  (4) 
{"free_energy": -7.89, "intermolecular_energy": -9.68, "internal_energy": -2.23, "cluster_size": 19, "cluster_id": 4, "rank_in_cluster": 10}

>  <energy>  (4) 
-8.18

>  <cluster_rmsd>  (4) 
1.84

>  <cluster>  (4) 
1

$$$$

     RDKit          3D

 51 54  0  0  0  0  0  0  0  0999 V2000
  138.1350   70.3010  221.8860 O   0  0  0  0  0  0  0  0  0  0  0  0
  138.7150   70.9610  222.7900 C   0  0  0  0  0  0  0  0  0  0  0  0
  138.9690   72.3520  222.6940 N   0  0  0  0  0  0  0  0  0  0  0  0
  138.5680   73.1110  221.5250 C   0  0  0  0  0  0  0  0  0  0  0  0
  139.5830   74.2090  221.3110 C   0  0  0  0  0  0  0  0  0  0  0  0
  140.2230   74.5480  222.3270 O   0  0  0  0  0  0  0  0  0  0  0  0
  139.7250   74.7480  220.0220 N   0  0  0  0  0  0  0  0  0  0  0  0
  138.6110   75.2890  219.1990 C   0  0  0  0  0  0  0  0  0  0  0  0
  139.0210   75.0280  217.7650 C   0  0  0  0  0  0  0  0  0  0  0  0
  140.3340   74.2470  217.9110 C   0  0  0  0  0  0  0  0  0  0  0  0
  140.8640   74.9260  219.1540 C   0  0  2  0  0  0  0  0  0  0  0  0
  142.1530   74.4980  219.6240 C   0  0  0  0  0  0  0  0  0  0  0  0
  142.3660   73.2060  220.0390 C   0  0  0  0  0  0  0  0  0  0  0  0
  143.5920   72.7660  220.4730 C   0  0  0  0  0  0  0  0  0  0  0  0
  144.6670   73.6040  220.5120 C   0  0  0  0  0  0  0  0  0  0  0  0
  146.0140   73.1730  220.9750 C   0  0  0  0  0  0  0  0  0  0  0  0
  146.9630   74.1360  220.7330 F   0  0  0  0  0  0  0  0  0  0  0  0
  146.3410   72.0210  220.2650 F   0  0  0  0  0  0  0  0  0  0  0  0
  145.9660   72.8050  222.3170 F   0  0  0  0  0  0  0  0  0  0  0  0
  144.4720   74.9160  220.0960 C   0  0  0  0  0  0  0  0  0  0  0  0
  143.2250   75.3580  219.6560 C   0  0  0  0  0  0  0  0  0  0  0  0
  139.1460   70.2550  224.0000 C   0  0  0  0  0  0  0  0  0  0  0  0
  138.9490   68.8830  224.1270 C   0  0  0  0  0  0  0  0  0  0  0  0
  139.3430   68.1890  225.2510 C   0  0  0  0  0  0  0  0  0  0  0  0
  139.9540   68.8490  226.2960 C   0  0  0  0  0  0  0  0  0  0  0  0
  140.3640   68.1960  227.4380 C   0  0  0  0  0  0  0  0  0  0  0  0
  140.9730   68.8670  228.4770 C   0  0  0  0  0  0  0  0  0  0  0  0
  141.1700   70.2370  228.3480 C   0  0  0  0  0  0  0  0  0  0  0  0
  140.7600   70.9020  227.2050 C   0  0  0  0  0  0  0  0  0  0  0  0
  140.1420   70.2250  226.1490 C   0  0  0  0  0  0  0  0  0  0  0  0
  139.7430   70.8780  225.0320 N   0  0  0  0  0  0  0  0  0  0  0  0
  139.4610   72.8410  223.4910 H   0  0  0  0  0  0  0  0  0  0  0  0
  138.5389   72.4526  220.6443 H   0  0  0  0  0  0  0  0  0  0  0  0
  137.5661   73.5402  221.6731 H   0  0  0  0  0  0  0  0  0  0  0  0
  137.6699   74.7696  219.4328 H   0  0  0  0  0  0  0  0  0  0  0  0
  138.4366   76.3580  219.3910 H   0  0  0  0  0  0  0  0  0  0  0  0
  138.2620   74.4287  217.2408 H   0  0  0  0  0  0  0  0  0  0  0  0
  139.1310   75.9491  217.1738 H   0  0  0  0  0  0  0  0  0  0  0  0
  140.1612   73.1721  218.0680 H   0  0  0  0  0  0  0  0  0  0  0  0
  141.0003   74.2665  217.0360 H   0  0  0  0  0  0  0  0  0  0  0  0
  141.1577   75.9782  219.0251 H   0  0  0  0  0  0  0  0  0  0  0  0
  141.5240   72.4984  220.0230 H   0  0  0  0  0  0  0  0  0  0  0  0
  143.7089   71.7205  220.7945 H   0  0  0  0  0  0  0  0  0  0  0  0
  145.3178   75.6190  220.1143 H   0  0  0  0  0  0  0  0  0  0  0  0
  143.0982   76.4016  219.3324 H   0  0  0  0  0  0  0  0  0  0  0  0
  138.4640   68.3357  223.3052 H   0  0  0  0  0  0  0  0  0  0  0  0
  139.1693   67.1047  225.3144 H   0  0  0  0  0  0  0  0  0  0  0  0
  140.2012   67.1114  227.5228 H   0  0  0  0  0  0  0  0  0  0  0  0
  141.2943   68.3328  229.3834 H   0  0  0  0  0  0  0  0  0  0  0  0
  141.6556   70.7973  229.1606 H   0  0  0  0  0  0  0  0  0  0  0  0
  140.9240   71.9868  227.1258 H   0  0  0  0  0  0  0  0  0  0  0  0
  1  2  2  0
  2  3  1  0
  3  4  1  0
  4  5  1  0
  5  6  2  0
  5  7  1  0
  7  8  1  0
  8  9  1  0
  9 10  1  0
 10 11  1  0
 11 12  1  0
 12 13  2  0
 13 14  1  0
 14 15  2  0
 15 16  1  0
 16 17  1  0
 16 18  1  0
 16 19  1  0
 15 20  1  0
 20 21  2  0
  2 22  1  0
 22 23  2  0
 23 24  1  0
 24 25  2  0
 25 26  1  0
 26 27  2  0
 27 28  1  0
 28 29  2  0
 29 30  1  0
 30 31  2  0
 11  7  1  0
 21 12  1  0
 31 22  1  0
 30 25  1  0
  3 32  1  0
  4 33  1  0
  4 34  1  0
  8 35  1  0
  8 36  1  0
  9 37  1  0
  9 38  1  0
 10 39  1  0
 10 40  1  0
 11 41  1  6
 13 42  1  0
 14 43  1  0
 20 44  1  0
 21 45  1  0
 23 46  1  0
 24 47  1  0
 26 48  1  0
 27 49  1  0
 28 50  1  0
 29 51  1  0
M  END
>  <smiles>  (5) 
O=C(NCC(=O)N1CCCC1c1ccc(C(F)(F)F)cc1)c1ccc2ccccc2n1

>  <score_type>  (5) 
oracle

>  <origin>  (5) 
autodockgpu

>  <m_score__min__energy>  (5) 
-8.4199999999999999

>  <m_primary>  (5) 
energy

>  <rmsd>  (5) 
1.6322797937757383

>  <m_score__min__rmsd>  (5) 
1.6322797937757383

>  <meeko>  (5) 
{"free_energy": -7.73, "intermolecular_energy": -9.52, "internal_energy": -2.22, "cluster_size": 19, "cluster_id": 4, "rank_in_cluster": 18}

>  <energy>  (5) 
-8.16

>  <cluster_rmsd>  (5) 
1.85

>  <cluster>  (5) 
1

$$$$

     RDKit          3D

 51 54  0  0  0  0  0  0  0  0999 V2000
  141.3170   71.6680  221.4330 O   0  0  0  0  0  0  0  0  0  0  0  0
  140.6670   72.2390  222.3490 C   0  0  0  0  0  0  0  0  0  0  0  0
  140.2080   73.5760  222.2570 N   0  0  0  0  0  0  0  0  0  0  0  0
  140.4660   74.3810  221.0790 C   0  0  0  0  0  0  0  0  0  0  0  0
  140.7960   75.7830  221.5340 C   0  0  0  0  0  0  0  0  0  0  0  0
  140.4100   76.0740  222.6850 O   0  0  0  0  0  0  0  0  0  0  0  0
  141.4920   76.6260  220.6540 N   0  0  0  0  0  0  0  0  0  0  0  0
  141.2060   78.0720  220.4540 C   0  0  0  0  0  0  0  0  0  0  0  0
  141.5820   78.3510  219.0150 C   0  0  0  0  0  0  0  0  0  0  0  0
  141.9710   76.9670  218.4780 C   0  0  0  0  0  0  0  0  0  0  0  0
  142.5860   76.4000  219.7380 C   0  0  2  0  0  0  0  0  0  0  0  0
  143.1370   75.0770  219.6490 C   0  0  0  0  0  0  0  0  0  0  0  0
  144.1580   74.6730  220.4750 C   0  0  0  0  0  0  0  0  0  0  0  0
  144.6890   73.4080  220.4240 C   0  0  0  0  0  0  0  0  0  0  0  0
  144.2190   72.4820  219.5380 C   0  0  0  0  0  0  0  0  0  0  0  0
  144.7620   71.1000  219.4460 C   0  0  0  0  0  0  0  0  0  0  0  0
  146.1190   71.0770  219.6570 F   0  0  0  0  0  0  0  0  0  0  0  0
  144.4920   70.6400  218.1610 F   0  0  0  0  0  0  0  0  0  0  0  0
  144.0780   70.2550  220.3170 F   0  0  0  0  0  0  0  0  0  0  0  0
  143.1850   72.8710  218.6940 C   0  0  0  0  0  0  0  0  0  0  0  0
  142.6500   74.1570  218.7500 C   0  0  0  0  0  0  0  0  0  0  0  0
  140.3710   71.4810  223.5680 C   0  0  0  0  0  0  0  0  0  0  0  0
  139.6660   70.2830  223.5040 C   0  0  0  0  0  0  0  0  0  0  0  0
  139.3720   69.5470  224.6320 C   0  0  0  0  0  0  0  0  0  0  0  0
  139.7770   69.9870  225.8740 C   0  0  0  0  0  0  0  0  0  0  0  0
  139.5060   69.2840  227.0270 C   0  0  0  0  0  0  0  0  0  0  0  0
  139.9160   69.7340  228.2640 C   0  0  0  0  0  0  0  0  0  0  0  0
  140.6200   70.9310  228.3260 C   0  0  0  0  0  0  0  0  0  0  0  0
  140.8970   71.6440  227.1730 C   0  0  0  0  0  0  0  0  0  0  0  0
  140.4840   71.1910  225.9170 C   0  0  0  0  0  0  0  0  0  0  0  0
  140.7560   71.8910  224.7900 N   0  0  0  0  0  0  0  0  0  0  0  0
  139.6690   73.9910  223.0660 H   0  0  0  0  0  0  0  0  0  0  0  0
  141.3143   73.9611  220.5186 H   0  0  0  0  0  0  0  0  0  0  0  0
  139.5837   74.3904  220.4222 H   0  0  0  0  0  0  0  0  0  0  0  0
  140.1394   78.2819  220.6224 H   0  0  0  0  0  0  0  0  0  0  0  0
  141.7668   78.7050  221.1574 H   0  0  0  0  0  0  0  0  0  0  0  0
  140.7286   78.7645  218.4576 H   0  0  0  0  0  0  0  0  0  0  0  0
  142.3877   79.0934  218.9164 H   0  0  0  0  0  0  0  0  0  0  0  0
  141.0947   76.3893  218.1487 H   0  0  0  0  0  0  0  0  0  0  0  0
  142.6185   76.9652  217.5888 H   0  0  0  0  0  0  0  0  0  0  0  0
  143.5286   76.8712  220.0534 H   0  0  0  0  0  0  0  0  0  0  0  0
  144.5649   75.3894  221.2039 H   0  0  0  0  0  0  0  0  0  0  0  0
  145.5064   73.1362  221.1081 H   0  0  0  0  0  0  0  0  0  0  0  0
  142.7812   72.1500  217.9679 H   0  0  0  0  0  0  0  0  0  0  0  0
  141.8322   74.4381  218.0701 H   0  0  0  0  0  0  0  0  0  0  0  0
  139.3331   69.9119  222.5234 H   0  0  0  0  0  0  0  0  0  0  0  0
  138.8119   68.6047  224.5406 H   0  0  0  0  0  0  0  0  0  0  0  0
  138.9477   68.3386  226.9591 H   0  0  0  0  0  0  0  0  0  0  0  0
  139.6923   69.1618  229.1764 H   0  0  0  0  0  0  0  0  0  0  0  0
  140.9596   71.3145  229.2995 H   0  0  0  0  0  0  0  0  0  0  0  0
  141.4551   72.5890  227.2466 H   0  0  0  0  0  0  0  0  0  0  0  0
  1  2  2  0
  2  3  1  0
  3  4  1  0
  4  5  1  0
  5  6  2  0
  5  7  1  0
  7  8  1  0
  8  9  1  0
  9 10  1  0
 10 11  1  0
 11 12  1  0
 12 13  2  0
 13 14  1  0
 14 15  2  0
 15 16  1  0
 16 17  1  0
 16 18  1  0
 16 19  1  0
 15 20  1  0
 20 21  2  0
  2 22  1  0
 22 23  2  0
 23 24  1  0
 24 25  2  0
 25 26  1  0
 26 27  2  0
 27 28  1  0
 28 29  2  0
 29 30  1  0
 30 31  2  0
 11  7  1  0
 21 12  1  0
 31 22  1  0
 30 25  1  0
  3 32  1  0
  4 33  1  0
  4 34  1  0
  8 35  1  0
  8 36  1  0
  9 37  1  0
  9 38  1  0
 10 39  1  0
 10 40  1  0
 11 41  1  1
 13 42  1  0
 14 43  1  0
 20 44  1  0
 21 45  1  0
 23 46  1  0
 24 47  1  0
 26 48  1  0
 27 49  1  0
 28 50  1  0
 29 51  1  0
M  END
>  <smiles>  (6) 
O=C(NCC(=O)N1CCCC1c1ccc(C(F)(F)F)cc1)c1ccc2ccccc2n1

>  <score_type>  (6) 
oracle

>  <origin>  (6) 
autodockgpu

>  <m_score__min__energy>  (6) 
-8.4199999999999999

>  <m_primary>  (6) 
energy

>  <rmsd>  (6) 
2.2479548018588247

>  <m_score__min__rmsd>  (6) 
2.2479548018588247

>  <meeko>  (6) 
{"free_energy": -7.89, "intermolecular_energy": -9.67, "internal_energy": -2.26, "cluster_size": 19, "cluster_id": 4, "rank_in_cluster": 13}

>  <energy>  (6) 
-8.02

>  <cluster_rmsd>  (6) 
0.95

>  <cluster>  (6) 
1

$$$$

     RDKit          3D

 51 54  0  0  0  0  0  0  0  0999 V2000
  141.2670   71.6430  221.4260 O   0  0  0  0  0  0  0  0  0  0  0  0
  140.6190   72.2080  222.3480 C   0  0  0  0  0  0  0  0  0  0  0  0
  140.1560   73.5450  222.2640 N   0  0  0  0  0  0  0  0  0  0  0  0
  140.4050   74.3560  221.0880 C   0  0  0  0  0  0  0  0  0  0  0  0
  140.6680   75.7710  221.5450 C   0  0  0  0  0  0  0  0  0  0  0  0
  140.1400   76.0880  222.6300 O   0  0  0  0  0  0  0  0  0  0  0  0
  141.4660   76.5980  220.7360 N   0  0  0  0  0  0  0  0  0  0  0  0
  141.2830   78.0650  220.5780 C   0  0  0  0  0  0  0  0  0  0  0  0
  141.7570   78.3690  219.1730 C   0  0  0  0  0  0  0  0  0  0  0  0
  142.0890   76.9830  218.6050 C   0  0  0  0  0  0  0  0  0  0  0  0
  142.5930   76.3330  219.8740 C   0  0  2  0  0  0  0  0  0  0  0  0
  143.0640   74.9800  219.7650 C   0  0  0  0  0  0  0  0  0  0  0  0
  142.5720   74.1300  218.8040 C   0  0  0  0  0  0  0  0  0  0  0  0
  143.0200   72.8400  218.6650 C   0  0  0  0  0  0  0  0  0  0  0  0
  143.9870   72.3380  219.4860 C   0  0  0  0  0  0  0  0  0  0  0  0
  144.5030   70.9470  219.3730 C   0  0  0  0  0  0  0  0  0  0  0  0
  144.0660   70.1610  220.4110 F   0  0  0  0  0  0  0  0  0  0  0  0
  145.8920   71.0220  219.4100 F   0  0  0  0  0  0  0  0  0  0  0  0
  144.1730   70.4110  218.1300 F   0  0  0  0  0  0  0  0  0  0  0  0
  144.4980   73.1820  220.4640 C   0  0  0  0  0  0  0  0  0  0  0  0
  144.0400   74.4920  220.6020 C   0  0  0  0  0  0  0  0  0  0  0  0
  140.3320   71.4450  223.5650 C   0  0  0  0  0  0  0  0  0  0  0  0
  139.6460   70.2360  223.4970 C   0  0  0  0  0  0  0  0  0  0  0  0
  139.3600   69.4930  224.6230 C   0  0  0  0  0  0  0  0  0  0  0  0
  139.7540   69.9380  225.8670 C   0  0  0  0  0  0  0  0  0  0  0  0
  139.4900   69.2290  227.0180 C   0  0  0  0  0  0  0  0  0  0  0  0
  139.8880   69.6840  228.2580 C   0  0  0  0  0  0  0  0  0  0  0  0
  140.5730   70.8920  228.3240 C   0  0  0  0  0  0  0  0  0  0  0  0
  140.8430   71.6110  227.1720 C   0  0  0  0  0  0  0  0  0  0  0  0
  140.4410   71.1530  225.9140 C   0  0  0  0  0  0  0  0  0  0  0  0
  140.7060   71.8590  224.7890 N   0  0  0  0  0  0  0  0  0  0  0  0
  139.6180   73.9550  223.0770 H   0  0  0  0  0  0  0  0  0  0  0  0
  141.2810   73.9695  220.5465 H   0  0  0  0  0  0  0  0  0  0  0  0
  139.5370   74.3273  220.4129 H   0  0  0  0  0  0  0  0  0  0  0  0
  140.2239   78.3376  220.6964 H   0  0  0  0  0  0  0  0  0  0  0  0
  141.8411   78.6353  221.3352 H   0  0  0  0  0  0  0  0  0  0  0  0
  140.9640   78.8557  218.5863 H   0  0  0  0  0  0  0  0  0  0  0  0
  142.6118   79.0608  219.1473 H   0  0  0  0  0  0  0  0  0  0  0  0
  141.1989   76.4753  218.2050 H   0  0  0  0  0  0  0  0  0  0  0  0
  142.7857   76.9709  217.7539 H   0  0  0  0  0  0  0  0  0  0  0  0
  143.5441   76.7301  220.2584 H   0  0  0  0  0  0  0  0  0  0  0  0
  141.7910   74.4965  218.1215 H   0  0  0  0  0  0  0  0  0  0  0  0
  142.5923   72.2005  217.8788 H   0  0  0  0  0  0  0  0  0  0  0  0
  145.2793   72.8097  221.1429 H   0  0  0  0  0  0  0  0  0  0  0  0
  144.4620   75.1389  221.3852 H   0  0  0  0  0  0  0  0  0  0  0  0
  139.3219   69.8615  222.5148 H   0  0  0  0  0  0  0  0  0  0  0  0
  138.8156   68.5419  224.5283 H   0  0  0  0  0  0  0  0  0  0  0  0
  138.9475   68.2748  226.9466 H   0  0  0  0  0  0  0  0  0  0  0  0
  139.6695   69.1073  229.1689 H   0  0  0  0  0  0  0  0  0  0  0  0
  140.9030   71.2796  229.2991 H   0  0  0  0  0  0  0  0  0  0  0  0
  141.3863   72.5644  227.2485 H   0  0  0  0  0  0  0  0  0  0  0  0
  1  2  2  0
  2  3  1  0
  3  4  1  0
  4  5  1  0
  5  6  2  0
  5  7  1  0
  7  8  1  0
  8  9  1  0
  9 10  1  0
 10 11  1  0
 11 12  1  0
 12 13  2  0
 13 14  1  0
 14 15  2  0
 15 16  1  0
 16 17  1  0
 16 18  1  0
 16 19  1  0
 15 20  1  0
 20 21  2  0
  2 22  1  0
 22 23  2  0
 23 24  1  0
 24 25  2  0
 25 26  1  0
 26 27  2  0
 27 28  1  0
 28 29  2  0
 29 30  1  0
 30 31  2  0
 11  7  1  0
 21 12  1  0
 31 22  1  0
 30 25  1  0
  3 32  1  0
  4 33  1  0
  4 34  1  0
  8 35  1  0
  8 36  1  0
  9 37  1  0
  9 38  1  0
 10 39  1  0
 10 40  1  0
 11 41  1  1
 13 42  1  0
 14 43  1  0
 20 44  1  0
 21 45  1  0
 23 46  1  0
 24 47  1  0
 26 48  1  0
 27 49  1  0
 28 50  1  0
 29 51  1  0
M  END
>  <smiles>  (7) 
O=C(NCC(=O)N1CCCC1c1ccc(C(F)(F)F)cc1)c1ccc2ccccc2n1

>  <score_type>  (7) 
oracle

>  <origin>  (7) 
autodockgpu

>  <m_score__min__energy>  (7) 
-8.4199999999999999

>  <m_primary>  (7) 
energy

>  <rmsd>  (7) 
2.2618187055915855

>  <m_score__min__rmsd>  (7) 
2.2618187055915855

>  <meeko>  (7) 
{"free_energy": -7.89, "intermolecular_energy": -9.68, "internal_energy": -2.25, "cluster_size": 19, "cluster_id": 4, "rank_in_cluster": 12}

>  <energy>  (7) 
-8.02

>  <cluster_rmsd>  (7) 
1.04

>  <cluster>  (7) 
1

$$$$

     RDKit          3D

 51 54  0  0  0  0  0  0  0  0999 V2000
  139.1040   70.7240  221.4000 O   0  0  0  0  0  0  0  0  0  0  0  0
  139.3300   71.4030  222.4380 C   0  0  0  0  0  0  0  0  0  0  0  0
  139.3810   72.8190  222.4430 N   0  0  0  0  0  0  0  0  0  0  0  0
  139.1690   73.5840  221.2290 C   0  0  0  0  0  0  0  0  0  0  0  0
  139.0830   75.0430  221.6070 C   0  0  0  0  0  0  0  0  0  0  0  0
  139.6430   75.3500  222.6800 O   0  0  0  0  0  0  0  0  0  0  0  0
  138.4010   75.9190  220.7470 N   0  0  0  0  0  0  0  0  0  0  0  0
  137.3000   75.5240  219.8290 C   0  0  0  0  0  0  0  0  0  0  0  0
  137.4100   76.4700  218.6530 C   0  0  0  0  0  0  0  0  0  0  0  0
  138.6700   77.2860  218.9760 C   0  0  0  0  0  0  0  0  0  0  0  0
  138.5310   77.3320  220.4810 C   0  0  2  0  0  0  0  0  0  0  0  0
  139.5310   78.0710  221.2000 C   0  0  0  0  0  0  0  0  0  0  0  0
  140.7930   78.2490  220.6850 C   0  0  0  0  0  0  0  0  0  0  0  0
  141.7600   78.9680  221.3420 C   0  0  0  0  0  0  0  0  0  0  0  0
  141.5080   79.5460  222.5520 C   0  0  0  0  0  0  0  0  0  0  0  0
  142.5240   80.3340  223.3010 C   0  0  0  0  0  0  0  0  0  0  0  0
  142.5650   79.9740  224.6260 F   0  0  0  0  0  0  0  0  0  0  0  0
  142.1580   81.6730  223.2020 F   0  0  0  0  0  0  0  0  0  0  0  0
  143.7680   80.2220  222.6850 F   0  0  0  0  0  0  0  0  0  0  0  0
  140.2380   79.3780  223.0890 C   0  0  0  0  0  0  0  0  0  0  0  0
  139.2580   78.6470  222.4180 C   0  0  0  0  0  0  0  0  0  0  0  0
  139.5530   70.6920  223.7000 C   0  0  0  0  0  0  0  0  0  0  0  0
  139.2210   69.3460  223.8220 C   0  0  0  0  0  0  0  0  0  0  0  0
  139.4180   68.6480  224.9950 C   0  0  0  0  0  0  0  0  0  0  0  0
  139.9580   69.2780  226.0960 C   0  0  0  0  0  0  0  0  0  0  0  0
  140.1730   68.6210  227.2870 C   0  0  0  0  0  0  0  0  0  0  0  0
  140.7140   69.2610  228.3820 C   0  0  0  0  0  0  0  0  0  0  0  0
  141.0450   70.6050  228.2570 C   0  0  0  0  0  0  0  0  0  0  0  0
  140.8330   71.2750  227.0640 C   0  0  0  0  0  0  0  0  0  0  0  0
  140.2850   70.6290  225.9520 C   0  0  0  0  0  0  0  0  0  0  0  0
  140.0790   71.2850  224.7860 N   0  0  0  0  0  0  0  0  0  0  0  0
  139.5770   73.3230  223.3510 H   0  0  0  0  0  0  0  0  0  0  0  0
  140.0093   73.4265  220.5368 H   0  0  0  0  0  0  0  0  0  0  0  0
  138.2422   73.2626  220.7313 H   0  0  0  0  0  0  0  0  0  0  0  0
  137.4265   74.4821  219.4998 H   0  0  0  0  0  0  0  0  0  0  0  0
  136.3154   75.5839  220.3159 H   0  0  0  0  0  0  0  0  0  0  0  0
  137.5300   75.9155  217.7106 H   0  0  0  0  0  0  0  0  0  0  0  0
  136.5148   77.0945  218.5164 H   0  0  0  0  0  0  0  0  0  0  0  0
  139.5892   76.7705  218.6607 H   0  0  0  0  0  0  0  0  0  0  0  0
  138.7474   78.2619  218.4744 H   0  0  0  0  0  0  0  0  0  0  0  0
  137.6873   77.9298  220.8562 H   0  0  0  0  0  0  0  0  0  0  0  0
  141.0366   77.7990  219.7113 H   0  0  0  0  0  0  0  0  0  0  0  0
  142.7545   79.0801  220.8856 H   0  0  0  0  0  0  0  0  0  0  0  0
  140.0005   79.8306  224.0630 H   0  0  0  0  0  0  0  0  0  0  0  0
  138.2602   78.5306  222.8662 H   0  0  0  0  0  0  0  0  0  0  0  0
  138.7883   68.8229  222.9565 H   0  0  0  0  0  0  0  0  0  0  0  0
  139.1432   67.5844  225.0524 H   0  0  0  0  0  0  0  0  0  0  0  0
  139.9060   67.5569  227.3670 H   0  0  0  0  0  0  0  0  0  0  0  0
  140.8789   68.7232  229.3273 H   0  0  0  0  0  0  0  0  0  0  0  0
  141.4793   71.1413  229.1136 H   0  0  0  0  0  0  0  0  0  0  0  0
  141.1017   72.3391  226.9896 H   0  0  0  0  0  0  0  0  0  0  0  0
  1  2  2  0
  2  3  1  0
  3  4  1  0
  4  5  1  0
  5  6  2  0
  5  7  1  0
  7  8  1  0
  8  9  1  0
  9 10  1  0
 10 11  1  0
 11 12  1  0
 12 13  2  0
 13 14  1  0
 14 15  2  0
 15 16  1  0
 16 17  1  0
 16 18  1  0
 16 19  1  0
 15 20  1  0
 20 21  2  0
  2 22  1  0
 22 23  2  0
 23 24  1  0
 24 25  2  0
 25 26  1  0
 26 27  2  0
 27 28  1  0
 28 29  2  0
 29 30  1  0
 30 31  2  0
 11  7  1  0
 21 12  1  0
 31 22  1  0
 30 25  1  0
  3 32  1  0
  4 33  1  0
  4 34  1  0
  8 35  1  0
  8 36  1  0
  9 37  1  0
  9 38  1  0
 10 39  1  0
 10 40  1  0
 11 41  1  6
 13 42  1  0
 14 43  1  0
 20 44  1  0
 21 45  1  0
 23 46  1  0
 24 47  1  0
 26 48  1  0
 27 49  1  0
 28 50  1  0
 29 51  1  0
M  END
>  <smiles>  (8) 
O=C(NCC(=O)N1CCCC1c1ccc(C(F)(F)F)cc1)c1ccc2ccccc2n1

>  <score_type>  (8) 
oracle

>  <origin>  (8) 
autodockgpu

>  <m_score__min__energy>  (8) 
-8.4199999999999999

>  <m_primary>  (8) 
energy

>  <rmsd>  (8) 
1.6572448706676914

>  <m_score__min__rmsd>  (8) 
1.6572448706676914

>  <meeko>  (8) 
{"free_energy": -7.6, "intermolecular_energy": -9.39, "internal_energy": -2.15, "cluster_size": 14, "cluster_id": 1, "rank_in_cluster": 13}

>  <energy>  (8) 
-8.01

>  <cluster_rmsd>  (8) 
0.98

>  <cluster>  (8) 
1

$$$$

     RDKit          3D

 51 54  0  0  0  0  0  0  0  0999 V2000
  139.7560   71.1330  221.2100 O   0  0  0  0  0  0  0  0  0  0  0  0
  139.3490   71.7350  222.2400 C   0  0  0  0  0  0  0  0  0  0  0  0
  138.6040   72.9390  222.1930 N   0  0  0  0  0  0  0  0  0  0  0  0
  138.2590   73.5620  220.9290 C   0  0  0  0  0  0  0  0  0  0  0  0
  139.1040   74.8040  220.7750 C   0  0  0  0  0  0  0  0  0  0  0  0
  138.5600   75.8670  221.1380 O   0  0  0  0  0  0  0  0  0  0  0  0
  140.4000   74.6710  220.2510 N   0  0  0  0  0  0  0  0  0  0  0  0
  140.8800   73.5150  219.4480 C   0  0  0  0  0  0  0  0  0  0  0  0
  142.3560   73.4060  219.7610 C   0  0  0  0  0  0  0  0  0  0  0  0
  142.5710   74.4910  220.8260 C   0  0  0  0  0  0  0  0  0  0  0  0
  141.5750   75.5080  220.3170 C   0  0  2  0  0  0  0  0  0  0  0  0
  141.4890   76.7460  221.0400 C   0  0  0  0  0  0  0  0  0  0  0  0
  141.8100   77.9430  220.4460 C   0  0  0  0  0  0  0  0  0  0  0  0
  141.7170   79.1410  221.1080 C   0  0  0  0  0  0  0  0  0  0  0  0
  141.2970   79.1990  222.4040 C   0  0  0  0  0  0  0  0  0  0  0  0
  141.1810   80.4740  223.1620 C   0  0  0  0  0  0  0  0  0  0  0  0
  141.3740   81.5640  222.3490 F   0  0  0  0  0  0  0  0  0  0  0  0
  142.1680   80.4570  224.1440 F   0  0  0  0  0  0  0  0  0  0  0  0
  139.9630   80.5250  223.8350 F   0  0  0  0  0  0  0  0  0  0  0  0
  140.9670   78.0000  223.0240 C   0  0  0  0  0  0  0  0  0  0  0  0
  141.0630   76.7840  222.3470 C   0  0  0  0  0  0  0  0  0  0  0  0
  139.6630   71.1590  223.5510 C   0  0  0  0  0  0  0  0  0  0  0  0
  139.4110   69.8160  223.8130 C   0  0  0  0  0  0  0  0  0  0  0  0
  139.6940   69.2440  225.0350 C   0  0  0  0  0  0  0  0  0  0  0  0
  140.2450   70.0020  226.0460 C   0  0  0  0  0  0  0  0  0  0  0  0
  140.5450   69.4730  227.2810 C   0  0  0  0  0  0  0  0  0  0  0  0
  141.0950   70.2410  228.2860 C   0  0  0  0  0  0  0  0  0  0  0  0
  141.3460   71.5820  228.0220 C   0  0  0  0  0  0  0  0  0  0  0  0
  141.0480   72.1240  226.7830 C   0  0  0  0  0  0  0  0  0  0  0  0
  140.4900   71.3480  225.7630 C   0  0  0  0  0  0  0  0  0  0  0  0
  140.2000   71.8790  224.5520 N   0  0  0  0  0  0  0  0  0  0  0  0
  138.2960   73.3890  223.0980 H   0  0  0  0  0  0  0  0  0  0  0  0
  138.4636   72.8664  220.1018 H   0  0  0  0  0  0  0  0  0  0  0  0
  137.1904   73.8221  220.9102 H   0  0  0  0  0  0  0  0  0  0  0  0
  140.3536   72.5950  219.7420 H   0  0  0  0  0  0  0  0  0  0  0  0
  140.6951   73.6540  218.3726 H   0  0  0  0  0  0  0  0  0  0  0  0
  142.6024   72.4100  220.1575 H   0  0  0  0  0  0  0  0  0  0  0  0
  142.9952   73.5385  218.8757 H   0  0  0  0  0  0  0  0  0  0  0  0
  142.3201   74.1352  221.8362 H   0  0  0  0  0  0  0  0  0  0  0  0
  143.6045   74.8506  220.9387 H   0  0  0  0  0  0  0  0  0  0  0  0
  141.8343   75.9794  219.3576 H   0  0  0  0  0  0  0  0  0  0  0  0
  142.1542   77.9404  219.4012 H   0  0  0  0  0  0  0  0  0  0  0  0
  141.9857   80.0704  220.5845 H   0  0  0  0  0  0  0  0  0  0  0  0
  140.6234   78.0099  224.0689 H   0  0  0  0  0  0  0  0  0  0  0  0
  140.7962   75.8494  222.8621 H   0  0  0  0  0  0  0  0  0  0  0  0
  138.9725   69.1914  223.0208 H   0  0  0  0  0  0  0  0  0  0  0  0
  139.4793   68.1785  225.2040 H   0  0  0  0  0  0  0  0  0  0  0  0
  140.3406   68.4091  227.4715 H   0  0  0  0  0  0  0  0  0  0  0  0
  141.3283   69.8045  229.2684 H   0  0  0  0  0  0  0  0  0  0  0  0
  141.7853   72.2186  228.8041 H   0  0  0  0  0  0  0  0  0  0  0  0
  141.2549   73.1883  226.5975 H   0  0  0  0  0  0  0  0  0  0  0  0
  1  2  2  0
  2  3  1  0
  3  4  1  0
  4  5  1  0
  5  6  2  0
  5  7  1  0
  7  8  1  0
  8  9  1  0
  9 10  1  0
 10 11  1  0
 11 12  1  0
 12 13  2  0
 13 14  1  0
 14 15  2  0
 15 16  1  0
 16 17  1  0
 16 18  1  0
 16 19  1  0
 15 20  1  0
 20 21  2  0
  2 22  1  0
 22 23  2  0
 23 24  1  0
 24 25  2  0
 25 26  1  0
 26 27  2  0
 27 28  1  0
 28 29  2  0
 29 30  1  0
 30 31  2  0
 11  7  1  0
 21 12  1  0
 31 22  1  0
 30 25  1  0
  3 32  1  0
  4 33  1  0
  4 34  1  0
  8 35  1  0
  8 36  1  0
  9 37  1  0
  9 38  1  0
 10 39  1  0
 10 40  1  0
 11 41  1  6
 13 42  1  0
 14 43  1  0
 20 44  1  0
 21 45  1  0
 23 46  1  0
 24 47  1  0
 26 48  1  0
 27 49  1  0
 28 50  1  0
 29 51  1  0
M  END
>  <smiles>  (9) 
O=C(NCC(=O)N1CCCC1c1ccc(C(F)(F)F)cc1)c1ccc2ccccc2n1

>  <score_type>  (9) 
oracle

>  <origin>  (9) 
autodockgpu

>  <m_score__min__energy>  (9) 
-8.4199999999999999

>  <m_primary>  (9) 
energy

>  <rmsd>  (9) 
2.117827922848351

>  <m_score__min__rmsd>  (9) 
2.117827922848351

>  <meeko>  (9) 
{"free_energy": -7.9, "intermolecular_energy": -9.69, "internal_energy": -1.73, "cluster_size": 14, "cluster_id": 1, "rank_in_cluster": 10}

>  <energy>  (9) 
-7.94

>  <cluster_rmsd>  (9) 
0.96

>  <cluster>  (9) 
1

$$$$

     RDKit          3D

 51 54  0  0  0  0  0  0  0  0999 V2000
  141.2510   71.6770  221.4350 O   0  0  0  0  0  0  0  0  0  0  0  0
  140.5930   72.2430  222.3490 C   0  0  0  0  0  0  0  0  0  0  0  0
  140.1250   73.5770  222.2570 N   0  0  0  0  0  0  0  0  0  0  0  0
  140.3800   74.3850  221.0800 C   0  0  0  0  0  0  0  0  0  0  0  0
  140.7570   75.7730  221.5400 C   0  0  0  0  0  0  0  0  0  0  0  0
  140.3570   76.0840  222.6800 O   0  0  0  0  0  0  0  0  0  0  0  0
  141.5090   76.5830  220.6740 N   0  0  0  0  0  0  0  0  0  0  0  0
  141.2950   78.0410  220.4720 C   0  0  0  0  0  0  0  0  0  0  0  0
  141.7110   78.3030  219.0400 C   0  0  0  0  0  0  0  0  0  0  0  0
  142.0450   76.9030  218.5080 C   0  0  0  0  0  0  0  0  0  0  0  0
  142.6080   76.3070  219.7790 C   0  0  2  0  0  0  0  0  0  0  0  0
  143.0980   74.9590  219.6980 C   0  0  0  0  0  0  0  0  0  0  0  0
  142.5640   74.0580  218.8090 C   0  0  0  0  0  0  0  0  0  0  0  0
  143.0270   72.7710  218.6980 C   0  0  0  0  0  0  0  0  0  0  0  0
  144.0540   72.3230  219.4760 C   0  0  0  0  0  0  0  0  0  0  0  0
  144.5890   70.9370  219.3900 C   0  0  0  0  0  0  0  0  0  0  0  0
  145.9620   70.9240  219.4070 F   0  0  0  0  0  0  0  0  0  0  0  0
  144.1410   70.3990  218.1870 F   0  0  0  0  0  0  0  0  0  0  0  0
  144.0420   70.1470  220.3990 F   0  0  0  0  0  0  0  0  0  0  0  0
  144.6090   73.2180  220.3810 C   0  0  0  0  0  0  0  0  0  0  0  0
  144.1350   74.5250  220.4910 C   0  0  0  0  0  0  0  0  0  0  0  0
  140.2990   71.4820  223.5670 C   0  0  0  0  0  0  0  0  0  0  0  0
  139.5900   70.2870  223.5010 C   0  0  0  0  0  0  0  0  0  0  0  0
  139.2980   69.5480  224.6280 C   0  0  0  0  0  0  0  0  0  0  0  0
  139.7080   69.9820  225.8700 C   0  0  0  0  0  0  0  0  0  0  0  0
  139.4390   69.2760  227.0220 C   0  0  0  0  0  0  0  0  0  0  0  0
  139.8540   69.7210  228.2590 C   0  0  0  0  0  0  0  0  0  0  0  0
  140.5630   70.9150  228.3230 C   0  0  0  0  0  0  0  0  0  0  0  0
  140.8390   71.6320  227.1700 C   0  0  0  0  0  0  0  0  0  0  0  0
  140.4190   71.1840  225.9150 C   0  0  0  0  0  0  0  0  0  0  0  0
  140.6900   71.8870  224.7890 N   0  0  0  0  0  0  0  0  0  0  0  0
  139.5790   73.9870  223.0640 H   0  0  0  0  0  0  0  0  0  0  0  0
  141.2048   73.9475  220.4984 H   0  0  0  0  0  0  0  0  0  0  0  0
  139.4850   74.4238  220.4417 H   0  0  0  0  0  0  0  0  0  0  0  0
  140.2365   78.3008  220.6209 H   0  0  0  0  0  0  0  0  0  0  0  0
  141.8713   78.6463  221.1872 H   0  0  0  0  0  0  0  0  0  0  0  0
  140.8885   78.7563  218.4673 H   0  0  0  0  0  0  0  0  0  0  0  0
  142.5524   79.0068  218.9579 H   0  0  0  0  0  0  0  0  0  0  0  0
  141.1493   76.3673  218.1606 H   0  0  0  0  0  0  0  0  0  0  0  0
  142.7088   76.8715  217.6314 H   0  0  0  0  0  0  0  0  0  0  0  0
  143.5651   76.7336  220.1135 H   0  0  0  0  0  0  0  0  0  0  0  0
  141.7346   74.3801  218.1622 H   0  0  0  0  0  0  0  0  0  0  0  0
  142.5625   72.0897  217.9700 H   0  0  0  0  0  0  0  0  0  0  0  0
  145.4390   72.8896  221.0239 H   0  0  0  0  0  0  0  0  0  0  0  0
  144.5932   75.2133  221.2165 H   0  0  0  0  0  0  0  0  0  0  0  0
  139.2521   69.9206  222.5204 H   0  0  0  0  0  0  0  0  0  0  0  0
  138.7351   68.6075  224.5352 H   0  0  0  0  0  0  0  0  0  0  0  0
  138.8782   68.3322  226.9530 H   0  0  0  0  0  0  0  0  0  0  0  0
  139.6303   69.1471  229.1703 H   0  0  0  0  0  0  0  0  0  0  0  0
  140.9076   71.2935  229.2966 H   0  0  0  0  0  0  0  0  0  0  0  0
  141.4011   72.5746  227.2443 H   0  0  0  0  0  0  0  0  0  0  0  0
  1  2  2  0
  2  3  1  0
  3  4  1  0
  4  5  1  0
  5  6  2  0
  5  7  1  0
  7  8  1  0
  8  9  1  0
  9 10  1  0
 10 11  1  0
 11 12  1  0
 12 13  2  0
 13 14  1  0
 14 15  2  0
 15 16  1  0
 16 17  1  0
 16 18  1  0
 16 19  1  0
 15 20  1  0
 20 21  2  0
  2 22  1  0
 22 23  2  0
 23 24  1  0
 24 25  2  0
 25 26  1  0
 26 27  2  0
 27 28  1  0
 28 29  2  0
 29 30  1  0
 30 31  2  0
 11  7  1  0
 21 12  1  0
 31 22  1  0
 30 25  1  0
  3 32  1  0
  4 33  1  0
  4 34  1  0
  8 35  1  0
  8 36  1  0
  9 37  1  0
  9 38  1  0
 10 39  1  0
 10 40  1  0
 11 41  1  1
 13 42  1  0
 14 43  1  0
 20 44  1  0
 21 45  1  0
 23 46  1  0
 24 47  1  0
 26 48  1  0
 27 49  1  0
 28 50  1  0
 29 51  1  0
M  END
>  <smiles>  (10) 
O=C(NCC(=O)N1CCCC1c1ccc(C(F)(F)F)cc1)c1ccc2ccccc2n1

>  <score_type>  (10) 
oracle

>  <origin>  (10) 
autodockgpu

>  <m_score__min__energy>  (10) 
-8.4199999999999999

>  <m_primary>  (10) 
energy

>  <rmsd>  (10) 
2.2445330146232894

>  <m_score__min__rmsd>  (10) 
2.2445330146232894

>  <meeko>  (10) 
{"free_energy": -7.94, "intermolecular_energy": -9.73, "internal_energy": -2.23, "cluster_size": 19, "cluster_id": 4, "rank_in_cluster": 3}

>  <energy>  (10) 
-7.9

>  <cluster_rmsd>  (10) 
1.16

>  <cluster>  (10) 
1

$$$$

     RDKit          3D

 51 54  0  0  0  0  0  0  0  0999 V2000
  138.9310   75.1020  221.8560 O   0  0  0  0  0  0  0  0  0  0  0  0
  140.0940   75.5770  221.9610 C   0  0  0  0  0  0  0  0  0  0  0  0
  141.2660   74.8280  221.6880 N   0  0  0  0  0  0  0  0  0  0  0  0
  141.1920   73.4430  221.2630 C   0  0  0  0  0  0  0  0  0  0  0  0
  141.7840   73.3490  219.8770 C   0  0  0  0  0  0  0  0  0  0  0  0
  140.9580   73.1950  218.9530 O   0  0  0  0  0  0  0  0  0  0  0  0
  143.1780   73.4390  219.7370 N   0  0  0  0  0  0  0  0  0  0  0  0
  144.1350   72.3360  220.0160 C   0  0  0  0  0  0  0  0  0  0  0  0
  145.4020   73.0230  220.4770 C   0  0  0  0  0  0  0  0  0  0  0  0
  145.0060   74.5060  220.5110 C   0  0  0  0  0  0  0  0  0  0  0  0
  144.0560   74.5130  219.3350 C   0  0  2  0  0  0  0  0  0  0  0  0
  143.4700   75.7770  218.9860 C   0  0  0  0  0  0  0  0  0  0  0  0
  143.4660   76.2270  217.6880 C   0  0  0  0  0  0  0  0  0  0  0  0
  142.8950   77.4210  217.3250 C   0  0  0  0  0  0  0  0  0  0  0  0
  142.2970   78.2260  218.2500 C   0  0  0  0  0  0  0  0  0  0  0  0
  141.6660   79.5280  217.9040 C   0  0  0  0  0  0  0  0  0  0  0  0
  140.4390   79.6700  218.5040 F   0  0  0  0  0  0  0  0  0  0  0  0
  141.5030   79.5490  216.5220 F   0  0  0  0  0  0  0  0  0  0  0  0
  142.5280   80.5780  218.2110 F   0  0  0  0  0  0  0  0  0  0  0  0
  142.2890   77.7890  219.5690 C   0  0  0  0  0  0  0  0  0  0  0  0
  142.8710   76.5750  219.9330 C   0  0  0  0  0  0  0  0  0  0  0  0
  140.2410   76.9720  222.3850 C   0  0  0  0  0  0  0  0  0  0  0  0
  139.1200   77.7520  222.6510 C   0  0  0  0  0  0  0  0  0  0  0  0
  139.2230   79.0670  223.0530 C   0  0  0  0  0  0  0  0  0  0  0  0
  140.4620   79.6520  223.2040 C   0  0  0  0  0  0  0  0  0  0  0  0
  140.6130   80.9610  223.6030 C   0  0  0  0  0  0  0  0  0  0  0  0
  141.8580   81.5360  223.7510 C   0  0  0  0  0  0  0  0  0  0  0  0
  142.9760   80.7550  223.4850 C   0  0  0  0  0  0  0  0  0  0  0  0
  142.8350   79.4370  223.0830 C   0  0  0  0  0  0  0  0  0  0  0  0
  141.5750   78.8520  222.9330 C   0  0  0  0  0  0  0  0  0  0  0  0
  141.4390   77.5630  222.5390 N   0  0  0  0  0  0  0  0  0  0  0  0
  142.2100   75.2910  221.7970 H   0  0  0  0  0  0  0  0  0  0  0  0
  141.7629   72.8084  221.9568 H   0  0  0  0  0  0  0  0  0  0  0  0
  140.1468   73.1001  221.2566 H   0  0  0  0  0  0  0  0  0  0  0  0
  143.7446   71.6757  220.8044 H   0  0  0  0  0  0  0  0  0  0  0  0
  144.3061   71.7043  219.1319 H   0  0  0  0  0  0  0  0  0  0  0  0
  145.7000   72.6715  221.4758 H   0  0  0  0  0  0  0  0  0  0  0  0
  146.2635   72.8219  219.8233 H   0  0  0  0  0  0  0  0  0  0  0  0
  144.5038   74.7792  221.4508 H   0  0  0  0  0  0  0  0  0  0  0  0
  145.8381   75.2233  220.4564 H   0  0  0  0  0  0  0  0  0  0  0  0
  144.5242   74.3538  218.3525 H   0  0  0  0  0  0  0  0  0  0  0  0
  143.9378   75.6075  216.9111 H   0  0  0  0  0  0  0  0  0  0  0  0
  142.9199   77.7341  216.2708 H   0  0  0  0  0  0  0  0  0  0  0  0
  141.8145   78.4126  220.3410 H   0  0  0  0  0  0  0  0  0  0  0  0
  142.8509   76.2533  220.9847 H   0  0  0  0  0  0  0  0  0  0  0  0
  138.1209   77.3060  222.5371 H   0  0  0  0  0  0  0  0  0  0  0  0
  138.3130   79.6514  223.2539 H   0  0  0  0  0  0  0  0  0  0  0  0
  139.7168   81.5645  223.8093 H   0  0  0  0  0  0  0  0  0  0  0  0
  141.9628   82.5833  224.0706 H   0  0  0  0  0  0  0  0  0  0  0  0
  143.9816   81.1871  223.5946 H   0  0  0  0  0  0  0  0  0  0  0  0
  143.7344   78.8379  222.8774 H   0  0  0  0  0  0  0  0  0  0  0  0
  1  2  2  0
  2  3  1  0
  3  4  1  0
  4  5  1  0
  5  6  2  0
  5  7  1  0
  7  8  1  0
  8  9  1  0
  9 10  1  0
 10 11  1  0
 11 12  1  0
 12 13  2  0
 13 14  1  0
 14 15  2  0
 15 16  1  0
 16 17  1  0
 16 18  1  0
 16 19  1  0
 15 20  1  0
 20 21  2  0
  2 22  1  0
 22 23  2  0
 23 24  1  0
 24 25  2  0
 25 26  1  0
 26 27  2  0
 27 28  1  0
 28 29  2  0
 29 30  1  0
 30 31  2  0
 11  7  1  0
 21 12  1  0
 31 22  1  0
 30 25  1  0
  3 32  1  0
  4 33  1  0
  4 34  1  0
  8 35  1  0
  8 36  1  0
  9 37  1  0
  9 38  1  0
 10 39  1  0
 10 40  1  0
 11 41  1  6
 13 42  1  0
 14 43  1  0
 20 44  1  0
 21 45  1  0
 23 46  1  0
 24 47  1  0
 26 48  1  0
 27 49  1  0
 28 50  1  0
 29 51  1  0
M  END
>  <smiles>  (11) 
O=C(NCC(=O)N1CCCC1c1ccc(C(F)(F)F)cc1)c1ccc2ccccc2n1

>  <score_type>  (11) 
oracle

>  <origin>  (11) 
autodockgpu

>  <m_score__min__energy>  (11) 
-8.4199999999999999

>  <m_primary>  (11) 
energy

>  <rmsd>  (11) 
7.7157264906244345

>  <m_score__min__rmsd>  (11) 
7.7157264906244345

>  <meeko>  (11) 
{"free_energy": -7.38, "intermolecular_energy": -9.17, "internal_energy": -2.53, "cluster_size": 5, "cluster_id": 7, "rank_in_cluster": 3}

>  <energy>  (11) 
-7.75

>  <cluster_rmsd>  (11) 
1.56

>  <cluster>  (11) 
1

$$$$

     RDKit          3D

 51 54  0  0  0  0  0  0  0  0999 V2000
  140.7600   71.4270  221.3300 O   0  0  0  0  0  0  0  0  0  0  0  0
  140.3000   72.0380  222.3330 C   0  0  0  0  0  0  0  0  0  0  0  0
  139.9450   73.4090  222.3110 N   0  0  0  0  0  0  0  0  0  0  0  0
  140.0930   74.2060  221.1080 C   0  0  0  0  0  0  0  0  0  0  0  0
  140.5240   75.5940  221.5190 C   0  0  0  0  0  0  0  0  0  0  0  0
  139.9770   76.0400  222.5480 O   0  0  0  0  0  0  0  0  0  0  0  0
  141.4810   76.2570  220.7340 N   0  0  0  0  0  0  0  0  0  0  0  0
  141.5930   77.7340  220.5940 C   0  0  0  0  0  0  0  0  0  0  0  0
  142.1400   77.9560  219.2010 C   0  0  0  0  0  0  0  0  0  0  0  0
  142.2020   76.5380  218.6170 C   0  0  0  0  0  0  0  0  0  0  0  0
  142.5480   75.7870  219.8830 C   0  0  2  0  0  0  0  0  0  0  0  0
  142.7460   74.3690  219.7600 C   0  0  0  0  0  0  0  0  0  0  0  0
  142.2100   73.6630  218.7100 C   0  0  0  0  0  0  0  0  0  0  0  0
  142.4010   72.3130  218.5580 C   0  0  0  0  0  0  0  0  0  0  0  0
  143.1420   71.6010  219.4540 C   0  0  0  0  0  0  0  0  0  0  0  0
  143.3760   70.1370  219.3310 C   0  0  0  0  0  0  0  0  0  0  0  0
  143.4920   69.7530  218.0170 F   0  0  0  0  0  0  0  0  0  0  0  0
  142.2780   69.4980  219.8990 F   0  0  0  0  0  0  0  0  0  0  0  0
  144.4820   69.7610  220.0900 F   0  0  0  0  0  0  0  0  0  0  0  0
  143.6950   72.2960  220.5230 C   0  0  0  0  0  0  0  0  0  0  0  0
  143.4970   73.6690  220.6740 C   0  0  0  0  0  0  0  0  0  0  0  0
  140.1240   71.2910  223.5810 C   0  0  0  0  0  0  0  0  0  0  0  0
  139.5420   70.0270  223.5740 C   0  0  0  0  0  0  0  0  0  0  0  0
  139.3620   69.2990  224.7310 C   0  0  0  0  0  0  0  0  0  0  0  0
  139.7630   69.8130  225.9450 C   0  0  0  0  0  0  0  0  0  0  0  0
  139.6040   69.1210  227.1250 C   0  0  0  0  0  0  0  0  0  0  0  0
  140.0090   69.6460  228.3350 C   0  0  0  0  0  0  0  0  0  0  0  0
  140.5910   70.9080  228.3400 C   0  0  0  0  0  0  0  0  0  0  0  0
  140.7550   71.6120  227.1580 C   0  0  0  0  0  0  0  0  0  0  0  0
  140.3460   71.0830  225.9310 C   0  0  0  0  0  0  0  0  0  0  0  0
  140.5070   71.7730  224.7770 N   0  0  0  0  0  0  0  0  0  0  0  0
  139.5660   73.8560  223.1900 H   0  0  0  0  0  0  0  0  0  0  0  0
  140.8547   73.7568  220.4538 H   0  0  0  0  0  0  0  0  0  0  0  0
  139.1415   74.2482  220.5576 H   0  0  0  0  0  0  0  0  0  0  0  0
  140.6064   78.2083  220.7019 H   0  0  0  0  0  0  0  0  0  0  0  0
  142.2406   78.1739  221.3667 H   0  0  0  0  0  0  0  0  0  0  0  0
  141.4678   78.5963  218.6109 H   0  0  0  0  0  0  0  0  0  0  0  0
  143.1143   78.4666  219.1970 H   0  0  0  0  0  0  0  0  0  0  0  0
  141.2359   76.2201  218.1978 H   0  0  0  0  0  0  0  0  0  0  0  0
  142.8961   76.3989  217.7751 H   0  0  0  0  0  0  0  0  0  0  0  0
  143.5520   75.9859  220.2860 H   0  0  0  0  0  0  0  0  0  0  0  0
  141.6057   74.1999  217.9640 H   0  0  0  0  0  0  0  0  0  0  0  0
  141.9487   71.7963  217.6987 H   0  0  0  0  0  0  0  0  0  0  0  0
  144.3003   71.7534  221.2641 H   0  0  0  0  0  0  0  0  0  0  0  0
  143.9449   74.1947  221.5302 H   0  0  0  0  0  0  0  0  0  0  0  0
  139.2156   69.5955  222.6163 H   0  0  0  0  0  0  0  0  0  0  0  0
  138.8962   68.3035  224.6848 H   0  0  0  0  0  0  0  0  0  0  0  0
  139.1418   68.1231  227.1023 H   0  0  0  0  0  0  0  0  0  0  0  0
  139.8750   69.0815  229.2695 H   0  0  0  0  0  0  0  0  0  0  0  0
  140.9241   71.3515  229.2899 H   0  0  0  0  0  0  0  0  0  0  0  0
  141.2175   72.6096  227.1861 H   0  0  0  0  0  0  0  0  0  0  0  0
  1  2  2  0
  2  3  1  0
  3  4  1  0
  4  5  1  0
  5  6  2  0
  5  7  1  0
  7  8  1  0
  8  9  1  0
  9 10  1  0
 10 11  1  0
 11 12  1  0
 12 13  2  0
 13 14  1  0
 14 15  2  0
 15 16  1  0
 16 17  1  0
 16 18  1  0
 16 19  1  0
 15 20  1  0
 20 21  2  0
  2 22  1  0
 22 23  2  0
 23 24  1  0
 24 25  2  0
 25 26  1  0
 26 27  2  0
 27 28  1  0
 28 29  2  0
 29 30  1  0
 30 31  2  0
 11  7  1  0
 21 12  1  0
 31 22  1  0
 30 25  1  0
  3 32  1  0
  4 33  1  0
  4 34  1  0
  8 35  1  0
  8 36  1  0
  9 37  1  0
  9 38  1  0
 10 39  1  0
 10 40  1  0
 11 41  1  1
 13 42  1  0
 14 43  1  0
 20 44  1  0
 21 45  1  0
 23 46  1  0
 24 47  1  0
 26 48  1  0
 27 49  1  0
 28 50  1  0
 29 51  1  0
M  END
>  <smiles>  (12) 
O=C(NCC(=O)N1CCCC1c1ccc(C(F)(F)F)cc1)c1ccc2ccccc2n1

>  <score_type>  (12) 
oracle

>  <origin>  (12) 
autodockgpu

>  <m_score__min__energy>  (12) 
-8.4199999999999999

>  <m_primary>  (12) 
energy

>  <rmsd>  (12) 
2.184360143132042

>  <m_score__min__rmsd>  (12) 
2.184360143132042

>  <meeko>  (12) 
{"free_energy": -7.44, "intermolecular_energy": -9.23, "internal_energy": -2.3, "cluster_size": 1, "cluster_id": 6, "rank_in_cluster": 1}

>  <energy>  (12) 
-7.61

>  <cluster_rmsd>  (12) 
1.75

>  <cluster>  (12) 
1

$$$$

     RDKit          3D

 51 54  0  0  0  0  0  0  0  0999 V2000
  138.2760   70.0360  221.8130 O   0  0  0  0  0  0  0  0  0  0  0  0
  138.6980   70.7690  222.7480 C   0  0  0  0  0  0  0  0  0  0  0  0
  138.7940   72.1780  222.6460 N   0  0  0  0  0  0  0  0  0  0  0  0
  138.4020   72.8740  221.4350 C   0  0  0  0  0  0  0  0  0  0  0  0
  139.3680   74.0150  221.2200 C   0  0  0  0  0  0  0  0  0  0  0  0
  140.1130   74.2720  222.1860 O   0  0  0  0  0  0  0  0  0  0  0  0
  139.3530   74.6780  219.9820 N   0  0  0  0  0  0  0  0  0  0  0  0
  138.9260   74.0700  218.6940 C   0  0  0  0  0  0  0  0  0  0  0  0
  139.7490   74.7730  217.6360 C   0  0  0  0  0  0  0  0  0  0  0  0
  140.6720   75.6850  218.4560 C   0  0  0  0  0  0  0  0  0  0  0  0
  139.7190   76.0170  219.5830 C   0  0  2  0  0  0  0  0  0  0  0  0
  140.2010   76.9200  220.5910 C   0  0  0  0  0  0  0  0  0  0  0  0
  139.4710   77.1760  221.7260 C   0  0  0  0  0  0  0  0  0  0  0  0
  139.9170   78.0190  222.7130 C   0  0  0  0  0  0  0  0  0  0  0  0
  141.1220   78.6490  222.6090 C   0  0  0  0  0  0  0  0  0  0  0  0
  141.6470   79.5720  223.6520 C   0  0  0  0  0  0  0  0  0  0  0  0
  140.8180   80.6510  223.8340 F   0  0  0  0  0  0  0  0  0  0  0  0
  142.8900   80.0190  223.2140 F   0  0  0  0  0  0  0  0  0  0  0  0
  141.8770   78.8770  224.8370 F   0  0  0  0  0  0  0  0  0  0  0  0
  141.8760   78.4040  221.4680 C   0  0  0  0  0  0  0  0  0  0  0  0
  141.4190   77.5470  220.4670 C   0  0  0  0  0  0  0  0  0  0  0  0
  139.1100   70.1300  224.0010 C   0  0  0  0  0  0  0  0  0  0  0  0
  138.8730   68.7750  224.2160 C   0  0  0  0  0  0  0  0  0  0  0  0
  139.2480   68.1440  225.3830 C   0  0  0  0  0  0  0  0  0  0  0  0
  139.8800   68.8520  226.3840 C   0  0  0  0  0  0  0  0  0  0  0  0
  140.2730   68.2620  227.5650 C   0  0  0  0  0  0  0  0  0  0  0  0
  140.9040   68.9800  228.5590 C   0  0  0  0  0  0  0  0  0  0  0  0
  141.1410   70.3330  228.3420 C   0  0  0  0  0  0  0  0  0  0  0  0
  140.7490   70.9340  227.1570 C   0  0  0  0  0  0  0  0  0  0  0  0
  140.1100   70.2100  226.1480 C   0  0  0  0  0  0  0  0  0  0  0  0
  139.7280   70.8000  224.9900 N   0  0  0  0  0  0  0  0  0  0  0  0
  139.1580   72.7300  223.4710 H   0  0  0  0  0  0  0  0  0  0  0  0
  138.4416   72.1847  220.5786 H   0  0  0  0  0  0  0  0  0  0  0  0
  137.3744   73.2553  221.5285 H   0  0  0  0  0  0  0  0  0  0  0  0
  139.1324   72.9895  218.6895 H   0  0  0  0  0  0  0  0  0  0  0  0
  137.8458   74.1855  218.5210 H   0  0  0  0  0  0  0  0  0  0  0  0
  140.3317   74.0507  217.0455 H   0  0  0  0  0  0  0  0  0  0  0  0
  139.1351   75.3237  216.9081 H   0  0  0  0  0  0  0  0  0  0  0  0
  141.5672   75.1548  218.8132 H   0  0  0  0  0  0  0  0  0  0  0  0
  141.0921   76.5470  217.9171 H   0  0  0  0  0  0  0  0  0  0  0  0
  138.8590   76.6425  219.3017 H   0  0  0  0  0  0  0  0  0  0  0  0
  138.4931   76.6875  221.8484 H   0  0  0  0  0  0  0  0  0  0  0  0
  139.2924   78.1892  223.6023 H   0  0  0  0  0  0  0  0  0  0  0  0
  142.8530   78.8958  221.3518 H   0  0  0  0  0  0  0  0  0  0  0  0
  142.0360   77.3715  219.5734 H   0  0  0  0  0  0  0  0  0  0  0  0
  138.3713   68.1902  223.4309 H   0  0  0  0  0  0  0  0  0  0  0  0
  139.0424   67.0716  225.5164 H   0  0  0  0  0  0  0  0  0  0  0  0
  140.0785   67.1904  227.7193 H   0  0  0  0  0  0  0  0  0  0  0  0
  141.2114   68.4958  229.4977 H   0  0  0  0  0  0  0  0  0  0  0  0
  141.6435   70.9304  229.1170 H   0  0  0  0  0  0  0  0  0  0  0  0
  140.9455   72.0059  227.0073 H   0  0  0  0  0  0  0  0  0  0  0  0
  1  2  2  0
  2  3  1  0
  3  4  1  0
  4  5  1  0
  5  6  2  0
  5  7  1  0
  7  8  1  0
  8  9  1  0
  9 10  1  0
 10 11  1  0
 11 12  1  0
 12 13  2  0
 13 14  1  0
 14 15  2  0
 15 16  1  0
 16 17  1  0
 16 18  1  0
 16 19  1  0
 15 20  1  0
 20 21  2  0
  2 22  1  0
 22 23  2  0
 23 24  1  0
 24 25  2  0
 25 26  1  0
 26 27  2  0
 27 28  1  0
 28 29  2  0
 29 30  1  0
 30 31  2  0
 11  7  1  0
 21 12  1  0
 31 22  1  0
 30 25  1  0
  3 32  1  0
  4 33  1  0
  4 34  1  0
  8 35  1  0
  8 36  1  0
  9 37  1  0
  9 38  1  0
 10 39  1  0
 10 40  1  0
 11 41  1  6
 13 42  1  0
 14 43  1  0
 20 44  1  0
 21 45  1  0
 23 46  1  0
 24 47  1  0
 26 48  1  0
 27 49  1  0
 28 50  1  0
 29 51  1  0
M  END
>  <smiles>  (13) 
O=C(NCC(=O)N1CCCC1c1ccc(C(F)(F)F)cc1)c1ccc2ccccc2n1

>  <score_type>  (13) 
oracle

>  <origin>  (13) 
autodockgpu

>  <m_score__min__energy>  (13) 
-8.4199999999999999

>  <m_primary>  (13) 
energy

>  <rmsd>  (13) 
1.2570901107527679

>  <m_score__min__rmsd>  (13) 
1.2570901107527679

>  <meeko>  (13) 
{"free_energy": -7.61, "intermolecular_energy": -9.4, "internal_energy": -2.09, "cluster_size": 14, "cluster_id": 1, "rank_in_cluster": 12}

>  <energy>  (13) 
-7.6

>  <cluster_rmsd>  (13) 
1.8

>  <cluster>  (13) 
1

$$$$

     RDKit          3D

 51 54  0  0  0  0  0  0  0  0999 V2000
  139.5780   70.7250  221.2860 O   0  0  0  0  0  0  0  0  0  0  0  0
  139.6180   71.4310  222.3300 C   0  0  0  0  0  0  0  0  0  0  0  0
  139.5810   72.8470  222.3110 N   0  0  0  0  0  0  0  0  0  0  0  0
  139.4910   73.5810  221.0640 C   0  0  0  0  0  0  0  0  0  0  0  0
  140.2030   74.9000  221.2470 C   0  0  0  0  0  0  0  0  0  0  0  0
  140.0170   75.4590  222.3470 O   0  0  0  0  0  0  0  0  0  0  0  0
  140.9990   75.3830  220.1950 N   0  0  0  0  0  0  0  0  0  0  0  0
  141.5540   74.5490  219.0960 C   0  0  0  0  0  0  0  0  0  0  0  0
  142.8530   75.2230  218.7100 C   0  0  0  0  0  0  0  0  0  0  0  0
  142.9710   76.3670  219.7260 C   0  0  0  0  0  0  0  0  0  0  0  0
  141.5020   76.6960  219.8690 C   0  0  2  0  0  0  0  0  0  0  0  0
  141.1670   77.7890  220.7380 C   0  0  0  0  0  0  0  0  0  0  0  0
  142.1420   78.5310  221.3590 C   0  0  0  0  0  0  0  0  0  0  0  0
  141.8490   79.5930  222.1780 C   0  0  0  0  0  0  0  0  0  0  0  0
  140.5580   79.9650  222.4150 C   0  0  0  0  0  0  0  0  0  0  0  0
  140.1920   81.1070  223.2940 C   0  0  0  0  0  0  0  0  0  0  0  0
  139.8090   82.2050  222.5630 F   0  0  0  0  0  0  0  0  0  0  0  0
  141.3230   81.4270  224.0400 F   0  0  0  0  0  0  0  0  0  0  0  0
  139.2180   80.7170  224.2100 F   0  0  0  0  0  0  0  0  0  0  0  0
  139.5560   79.2270  221.7960 C   0  0  0  0  0  0  0  0  0  0  0  0
  139.8590   78.1490  220.9650 C   0  0  0  0  0  0  0  0  0  0  0  0
  139.7090   70.7520  223.6250 C   0  0  0  0  0  0  0  0  0  0  0  0
  139.2290   69.4550  223.7800 C   0  0  0  0  0  0  0  0  0  0  0  0
  139.2980   68.7880  224.9850 C   0  0  0  0  0  0  0  0  0  0  0  0
  139.8560   69.4010  226.0860 C   0  0  0  0  0  0  0  0  0  0  0  0
  139.9470   68.7730  227.3090 C   0  0  0  0  0  0  0  0  0  0  0  0
  140.5070   69.3970  228.4040 C   0  0  0  0  0  0  0  0  0  0  0  0
  140.9860   70.6920  228.2480 C   0  0  0  0  0  0  0  0  0  0  0  0
  140.8990   71.3310  227.0230 C   0  0  0  0  0  0  0  0  0  0  0  0
  140.3320   70.7030  225.9100 C   0  0  0  0  0  0  0  0  0  0  0  0
  140.2480   71.3300  224.7130 N   0  0  0  0  0  0  0  0  0  0  0  0
  139.6180   73.3750  223.2260 H   0  0  0  0  0  0  0  0  0  0  0  0
  139.9702   73.0068  220.2573 H   0  0  0  0  0  0  0  0  0  0  0  0
  138.4379   73.7492  220.7945 H   0  0  0  0  0  0  0  0  0  0  0  0
  141.7400   73.5228  219.4456 H   0  0  0  0  0  0  0  0  0  0  0  0
  140.8604   74.4714  218.2458 H   0  0  0  0  0  0  0  0  0  0  0  0
  143.7001   74.5271  218.7997 H   0  0  0  0  0  0  0  0  0  0  0  0
  142.8648   75.5705  217.6664 H   0  0  0  0  0  0  0  0  0  0  0  0
  143.4149   76.0333  220.6755 H   0  0  0  0  0  0  0  0  0  0  0  0
  143.6200   77.2037  219.4284 H   0  0  0  0  0  0  0  0  0  0  0  0
  141.0310   77.1385  218.9789 H   0  0  0  0  0  0  0  0  0  0  0  0
  143.1964   78.2644  221.1939 H   0  0  0  0  0  0  0  0  0  0  0  0
  142.6688   80.1534  222.6511 H   0  0  0  0  0  0  0  0  0  0  0  0
  138.5035   79.4986  221.9649 H   0  0  0  0  0  0  0  0  0  0  0  0
  139.0460   77.5824  220.4875 H   0  0  0  0  0  0  0  0  0  0  0  0
  138.7805   68.9459  222.9142 H   0  0  0  0  0  0  0  0  0  0  0  0
  138.9064   67.7634  225.0677 H   0  0  0  0  0  0  0  0  0  0  0  0
  139.5631   67.7476  227.4147 H   0  0  0  0  0  0  0  0  0  0  0  0
  140.5727   68.8835  229.3746 H   0  0  0  0  0  0  0  0  0  0  0  0
  141.4379   71.2136  229.1046 H   0  0  0  0  0  0  0  0  0  0  0  0
  141.2848   72.3563  226.9230 H   0  0  0  0  0  0  0  0  0  0  0  0
  1  2  2  0
  2  3  1  0
  3  4  1  0
  4  5  1  0
  5  6  2  0
  5  7  1  0
  7  8  1  0
  8  9  1  0
  9 10  1  0
 10 11  1  0
 11 12  1  0
 12 13  2  0
 13 14  1  0
 14 15  2  0
 15 16  1  0
 16 17  1  0
 16 18  1  0
 16 19  1  0
 15 20  1  0
 20 21  2  0
  2 22  1  0
 22 23  2  0
 23 24  1  0
 24 25  2  0
 25 26  1  0
 26 27  2  0
 27 28  1  0
 28 29  2  0
 29 30  1  0
 30 31  2  0
 11  7  1  0
 21 12  1  0
 31 22  1  0
 30 25  1  0
  3 32  1  0
  4 33  1  0
  4 34  1  0
  8 35  1  0
  8 36  1  0
  9 37  1  0
  9 38  1  0
 10 39  1  0
 10 40  1  0
 11 41  1  6
 13 42  1  0
 14 43  1  0
 20 44  1  0
 21 45  1  0
 23 46  1  0
 24 47  1  0
 26 48  1  0
 27 49  1  0
 28 50  1  0
 29 51  1  0
M  END
>  <smiles>  (14) 
O=C(NCC(=O)N1CCCC1c1ccc(C(F)(F)F)cc1)c1ccc2ccccc2n1

>  <score_type>  (14) 
oracle

>  <origin>  (14) 
autodockgpu

>  <m_score__min__energy>  (14) 
-8.4199999999999999

>  <m_primary>  (14) 
energy

>  <rmsd>  (14) 
1.6863085502550024

>  <m_score__min__rmsd>  (14) 
1.6863085502550024

>  <meeko>  (14) 
{"free_energy": -7.94, "intermolecular_energy": -9.73, "internal_energy": -1.96, "cluster_size": 14, "cluster_id": 1, "rank_in_cluster": 9}

>  <energy>  (14) 
-7.55

>  <cluster_rmsd>  (14) 
1.28

>  <cluster>  (14) 
1

$$$$

     RDKit          3D

 51 54  0  0  0  0  0  0  0  0999 V2000
  141.3050   74.7290  220.6640 O   0  0  0  0  0  0  0  0  0  0  0  0
  140.4150   74.9190  221.5360 C   0  0  0  0  0  0  0  0  0  0  0  0
  139.5760   73.8880  222.0260 N   0  0  0  0  0  0  0  0  0  0  0  0
  139.6960   72.5260  221.5440 C   0  0  0  0  0  0  0  0  0  0  0  0
  138.5670   71.7190  222.1380 C   0  0  0  0  0  0  0  0  0  0  0  0
  137.5930   72.3840  222.5460 O   0  0  0  0  0  0  0  0  0  0  0  0
  138.6950   70.3210  222.1850 N   0  0  0  0  0  0  0  0  0  0  0  0
  138.3200   69.3940  221.0840 C   0  0  0  0  0  0  0  0  0  0  0  0
  137.8970   68.1160  221.7750 C   0  0  0  0  0  0  0  0  0  0  0  0
  137.9820   68.4760  223.2650 C   0  0  0  0  0  0  0  0  0  0  0  0
  139.1670   69.4130  223.2030 C   0  0  2  0  0  0  0  0  0  0  0  0
  139.6200   69.9640  224.4510 C   0  0  0  0  0  0  0  0  0  0  0  0
  139.2400   69.4160  225.6520 C   0  0  0  0  0  0  0  0  0  0  0  0
  139.6750   69.9100  226.8560 C   0  0  0  0  0  0  0  0  0  0  0  0
  140.5150   70.9830  226.9150 C   0  0  0  0  0  0  0  0  0  0  0  0
  141.0120   71.5540  228.1960 C   0  0  0  0  0  0  0  0  0  0  0  0
  139.9790   71.9980  228.9850 F   0  0  0  0  0  0  0  0  0  0  0  0
  141.8340   72.6290  227.8730 F   0  0  0  0  0  0  0  0  0  0  0  0
  141.8190   70.6290  228.8540 F   0  0  0  0  0  0  0  0  0  0  0  0
  140.9120   71.5520  225.7110 C   0  0  0  0  0  0  0  0  0  0  0  0
  140.4670   71.0470  224.4890 C   0  0  0  0  0  0  0  0  0  0  0  0
  140.2400   76.2740  222.0670 C   0  0  0  0  0  0  0  0  0  0  0  0
  138.9680   76.7660  222.3450 C   0  0  0  0  0  0  0  0  0  0  0  0
  138.7700   78.0350  222.8460 C   0  0  0  0  0  0  0  0  0  0  0  0
  139.8450   78.8630  223.0880 C   0  0  0  0  0  0  0  0  0  0  0  0
  139.6940   80.1380  223.5870 C   0  0  0  0  0  0  0  0  0  0  0  0
  140.7770   80.9570  223.8250 C   0  0  0  0  0  0  0  0  0  0  0  0
  142.0460   80.4630  223.5470 C   0  0  0  0  0  0  0  0  0  0  0  0
  142.2080   79.1830  223.0440 C   0  0  0  0  0  0  0  0  0  0  0  0
  141.1130   78.3500  222.8020 C   0  0  0  0  0  0  0  0  0  0  0  0
  141.2740   77.0990  222.3110 N   0  0  0  0  0  0  0  0  0  0  0  0
  138.8490   74.1200  222.7580 H   0  0  0  0  0  0  0  0  0  0  0  0
  139.6279   72.5113  220.4462 H   0  0  0  0  0  0  0  0  0  0  0  0
  140.6663   72.1004  221.8397 H   0  0  0  0  0  0  0  0  0  0  0  0
  137.4883   69.8089  220.4957 H   0  0  0  0  0  0  0  0  0  0  0  0
  139.1507   69.2287  220.3821 H   0  0  0  0  0  0  0  0  0  0  0  0
  136.8704   67.8376  221.4947 H   0  0  0  0  0  0  0  0  0  0  0  0
  138.5225   67.2526  221.5042 H   0  0  0  0  0  0  0  0  0  0  0  0
  137.0724   68.9814  223.6216 H   0  0  0  0  0  0  0  0  0  0  0  0
  138.0811   67.6262  223.9564 H   0  0  0  0  0  0  0  0  0  0  0  0
  140.1284   68.9386  222.9566 H   0  0  0  0  0  0  0  0  0  0  0  0
  138.5623   68.5496  225.6484 H   0  0  0  0  0  0  0  0  0  0  0  0
  139.3408   69.4328  227.7890 H   0  0  0  0  0  0  0  0  0  0  0  0
  141.5906   72.4177  225.7216 H   0  0  0  0  0  0  0  0  0  0  0  0
  140.7954   71.5176  223.5506 H   0  0  0  0  0  0  0  0  0  0  0  0
  138.0948   76.1232  222.1595 H   0  0  0  0  0  0  0  0  0  0  0  0
  137.7492   78.3884  223.0536 H   0  0  0  0  0  0  0  0  0  0  0  0
  138.6822   80.5126  223.8013 H   0  0  0  0  0  0  0  0  0  0  0  0
  140.6406   81.9731  224.2238 H   0  0  0  0  0  0  0  0  0  0  0  0
  142.9288   81.0938  223.7280 H   0  0  0  0  0  0  0  0  0  0  0  0
  143.2219   78.8138  222.8302 H   0  0  0  0  0  0  0  0  0  0  0  0
  1  2  2  0
  2  3  1  0
  3  4  1  0
  4  5  1  0
  5  6  2  0
  5  7  1  0
  7  8  1  0
  8  9  1  0
  9 10  1  0
 10 11  1  0
 11 12  1  0
 12 13  2  0
 13 14  1  0
 14 15  2  0
 15 16  1  0
 16 17  1  0
 16 18  1  0
 16 19  1  0
 15 20  1  0
 20 21  2  0
  2 22  1  0
 22 23  2  0
 23 24  1  0
 24 25  2  0
 25 26  1  0
 26 27  2  0
 27 28  1  0
 28 29  2  0
 29 30  1  0
 30 31  2  0
 11  7  1  0
 21 12  1  0
 31 22  1  0
 30 25  1  0
  3 32  1  0
  4 33  1  0
  4 34  1  0
  8 35  1  0
  8 36  1  0
  9 37  1  0
  9 38  1  0
 10 39  1  0
 10 40  1  0
 11 41  1  6
 13 42  1  0
 14 43  1  0
 20 44  1  0
 21 45  1  0
 23 46  1  0
 24 47  1  0
 26 48  1  0
 27 49  1  0
 28 50  1  0
 29 51  1  0
M  END
>  <smiles>  (15) 
O=C(NCC(=O)N1CCCC1c1ccc(C(F)(F)F)cc1)c1ccc2ccccc2n1

>  <score_type>  (15) 
oracle

>  <origin>  (15) 
autodockgpu

>  <m_score__min__energy>  (15) 
-8.4199999999999999

>  <m_primary>  (15) 
energy

>  <rmsd>  (15) 
8.167402728760369

>  <m_score__min__rmsd>  (15) 
8.167402728760369

>  <meeko>  (15) 
{"free_energy": -8.15, "intermolecular_energy": -9.94, "internal_energy": -1.87, "cluster_size": 7, "cluster_id": 2, "rank_in_cluster": 3}

>  <energy>  (15) 
-8.17

>  <cluster_rmsd>  (15) 
0.0

>  <cluster>  (15) 
2

$$$$

     RDKit          3D

 51 54  0  0  0  0  0  0  0  0999 V2000
  133.7970   69.7020  226.5580 O   0  0  0  0  0  0  0  0  0  0  0  0
  134.1260   70.7950  226.0220 C   0  0  0  0  0  0  0  0  0  0  0  0
  135.1180   70.8980  225.0160 N   0  0  0  0  0  0  0  0  0  0  0  0
  135.8260   69.7280  224.5340 C   0  0  0  0  0  0  0  0  0  0  0  0
  136.6690   70.1470  223.3530 C   0  0  0  0  0  0  0  0  0  0  0  0
  136.4130   71.2770  222.8880 O   0  0  0  0  0  0  0  0  0  0  0  0
  137.6500   69.2590  222.8820 N   0  0  0  0  0  0  0  0  0  0  0  0
  137.4940   68.3670  221.7020 C   0  0  0  0  0  0  0  0  0  0  0  0
  138.3440   67.1540  222.0120 C   0  0  0  0  0  0  0  0  0  0  0  0
  138.8490   67.4330  223.4350 C   0  0  0  0  0  0  0  0  0  0  0  0
  138.9810   68.9360  223.3380 C   0  0  2  0  0  0  0  0  0  0  0  0
  139.4870   69.6160  224.4980 C   0  0  0  0  0  0  0  0  0  0  0  0
  140.1830   70.7950  224.3850 C   0  0  0  0  0  0  0  0  0  0  0  0
  140.6590   71.4750  225.4780 C   0  0  0  0  0  0  0  0  0  0  0  0
  140.4610   71.0040  226.7420 C   0  0  0  0  0  0  0  0  0  0  0  0
  140.9590   71.7050  227.9560 C   0  0  0  0  0  0  0  0  0  0  0  0
  139.9260   72.2190  228.7010 F   0  0  0  0  0  0  0  0  0  0  0  0
  141.7710   72.7480  227.5210 F   0  0  0  0  0  0  0  0  0  0  0  0
  141.7760   70.8580  228.7000 F   0  0  0  0  0  0  0  0  0  0  0  0
  139.7590   69.8120  226.8780 C   0  0  0  0  0  0  0  0  0  0  0  0
  139.2770   69.1250  225.7650 C   0  0  0  0  0  0  0  0  0  0  0  0
  133.4480   72.0170  226.4620 C   0  0  0  0  0  0  0  0  0  0  0  0
  132.2380   71.9480  227.1460 C   0  0  0  0  0  0  0  0  0  0  0  0
  131.5750   73.0790  227.5740 C   0  0  0  0  0  0  0  0  0  0  0  0
  132.1040   74.3280  227.3310 C   0  0  0  0  0  0  0  0  0  0  0  0
  131.4770   75.4840  227.7400 C   0  0  0  0  0  0  0  0  0  0  0  0
  132.0150   76.7290  227.4910 C   0  0  0  0  0  0  0  0  0  0  0  0
  133.2240   76.7960  226.8080 C   0  0  0  0  0  0  0  0  0  0  0  0
  133.8620   75.6390  226.3930 C   0  0  0  0  0  0  0  0  0  0  0  0
  133.3190   74.3760  226.6430 C   0  0  0  0  0  0  0  0  0  0  0  0
  133.9450   73.2460  226.2360 N   0  0  0  0  0  0  0  0  0  0  0  0
  135.3430   71.8480  224.6110 H   0  0  0  0  0  0  0  0  0  0  0  0
  136.4711   69.3277  225.3300 H   0  0  0  0  0  0  0  0  0  0  0  0
  135.1128   68.9452  224.2362 H   0  0  0  0  0  0  0  0  0  0  0  0
  136.4406   68.0779  221.5726 H   0  0  0  0  0  0  0  0  0  0  0  0
  137.8027   68.8598  220.7682 H   0  0  0  0  0  0  0  0  0  0  0  0
  137.7433   66.2330  221.9802 H   0  0  0  0  0  0  0  0  0  0  0  0
  139.1579   67.0014  221.2879 H   0  0  0  0  0  0  0  0  0  0  0  0
  138.1192   67.1300  224.2002 H   0  0  0  0  0  0  0  0  0  0  0  0
  139.7599   66.8926  223.7321 H   0  0  0  0  0  0  0  0  0  0  0  0
  139.7750   69.2949  222.6666 H   0  0  0  0  0  0  0  0  0  0  0  0
  140.3654   71.2090  223.3823 H   0  0  0  0  0  0  0  0  0  0  0  0
  141.2096   72.4160  225.3317 H   0  0  0  0  0  0  0  0  0  0  0  0
  139.5804   69.4029  227.8834 H   0  0  0  0  0  0  0  0  0  0  0  0
  138.7248   68.1835  225.9013 H   0  0  0  0  0  0  0  0  0  0  0  0
  131.7970   70.9614  227.3515 H   0  0  0  0  0  0  0  0  0  0  0  0
  130.6200   72.9837  228.1115 H   0  0  0  0  0  0  0  0  0  0  0  0
  130.5213   75.4122  228.2799 H   0  0  0  0  0  0  0  0  0  0  0  0
  131.5019   77.6435  227.8235 H   0  0  0  0  0  0  0  0  0  0  0  0
  133.6773   77.7755  226.5956 H   0  0  0  0  0  0  0  0  0  0  0  0
  134.8180   75.7160  225.8543 H   0  0  0  0  0  0  0  0  0  0  0  0
  1  2  2  0
  2  3  1  0
  3  4  1  0
  4  5  1  0
  5  6  2  0
  5  7  1  0
  7  8  1  0
  8  9  1  0
  9 10  1  0
 10 11  1  0
 11 12  1  0
 12 13  2  0
 13 14  1  0
 14 15  2  0
 15 16  1  0
 16 17  1  0
 16 18  1  0
 16 19  1  0
 15 20  1  0
 20 21  2  0
  2 22  1  0
 22 23  2  0
 23 24  1  0
 24 25  2  0
 25 26  1  0
 26 27  2  0
 27 28  1  0
 28 29  2  0
 29 30  1  0
 30 31  2  0
 11  7  1  0
 21 12  1  0
 31 22  1  0
 30 25  1  0
  3 32  1  0
  4 33  1  0
  4 34  1  0
  8 35  1  0
  8 36  1  0
  9 37  1  0
  9 38  1  0
 10 39  1  0
 10 40  1  0
 11 41  1  6
 13 42  1  0
 14 43  1  0
 20 44  1  0
 21 45  1  0
 23 46  1  0
 24 47  1  0
 26 48  1  0
 27 49  1  0
 28 50  1  0
 29 51  1  0
M  END
>  <smiles>  (16) 
O=C(NCC(=O)N1CCCC1c1ccc(C(F)(F)F)cc1)c1ccc2ccccc2n1

>  <score_type>  (16) 
oracle

>  <origin>  (16) 
autodockgpu

>  <m_score__min__energy>  (16) 
-8.4199999999999999

>  <m_primary>  (16) 
energy

>  <rmsd>  (16) 
8.652890428419537

>  <m_score__min__rmsd>  (16) 
8.652890428419537

>  <meeko>  (16) 
{"free_energy": -7.97, "intermolecular_energy": -9.76, "internal_energy": -2.22, "cluster_size": 1, "cluster_id": 5, "rank_in_cluster": 1}

>  <energy>  (16) 
-8.16

>  <cluster_rmsd>  (16) 
0.12

>  <cluster>  (16) 
2

$$$$

     RDKit          3D

 51 54  0  0  0  0  0  0  0  0999 V2000
  141.2680   74.6720  220.7120 O   0  0  0  0  0  0  0  0  0  0  0  0
  140.3600   74.8850  221.5600 C   0  0  0  0  0  0  0  0  0  0  0  0
  139.4850   73.8750  222.0310 N   0  0  0  0  0  0  0  0  0  0  0  0
  139.5890   72.5080  221.5560 C   0  0  0  0  0  0  0  0  0  0  0  0
  138.3980   71.7410  222.0800 C   0  0  0  0  0  0  0  0  0  0  0  0
  137.4340   72.4410  222.4520 O   0  0  0  0  0  0  0  0  0  0  0  0
  138.4650   70.3380  222.1060 N   0  0  0  0  0  0  0  0  0  0  0  0
  137.9960   69.4430  221.0150 C   0  0  0  0  0  0  0  0  0  0  0  0
  137.5480   68.1770  221.7120 C   0  0  0  0  0  0  0  0  0  0  0  0
  137.7190   68.5150  223.2000 C   0  0  0  0  0  0  0  0  0  0  0  0
  138.9420   69.3980  223.0920 C   0  0  2  0  0  0  0  0  0  0  0  0
  139.4770   69.9130  224.3220 C   0  0  0  0  0  0  0  0  0  0  0  0
  140.3850   70.9440  224.3280 C   0  0  0  0  0  0  0  0  0  0  0  0
  140.8960   71.4670  225.4900 C   0  0  0  0  0  0  0  0  0  0  0  0
  140.5190   70.9800  226.7070 C   0  0  0  0  0  0  0  0  0  0  0  0
  141.0460   71.5150  227.9920 C   0  0  0  0  0  0  0  0  0  0  0  0
  141.7090   70.5480  228.7070 F   0  0  0  0  0  0  0  0  0  0  0  0
  139.9520   71.9590  228.7290 F   0  0  0  0  0  0  0  0  0  0  0  0
  141.8390   72.6350  227.7570 F   0  0  0  0  0  0  0  0  0  0  0  0
  139.6010   69.9370  226.7230 C   0  0  0  0  0  0  0  0  0  0  0  0
  139.0850   69.4090  225.5400 C   0  0  0  0  0  0  0  0  0  0  0  0
  140.2000   76.2450  222.0830 C   0  0  0  0  0  0  0  0  0  0  0  0
  138.9330   76.7650  222.3280 C   0  0  0  0  0  0  0  0  0  0  0  0
  138.7490   78.0400  222.8200 C   0  0  0  0  0  0  0  0  0  0  0  0
  139.8360   78.8460  223.0850 C   0  0  0  0  0  0  0  0  0  0  0  0
  139.6990   80.1250  223.5770 C   0  0  0  0  0  0  0  0  0  0  0  0
  140.7940   80.9230  223.8380 C   0  0  0  0  0  0  0  0  0  0  0  0
  142.0580   80.4010  223.5920 C   0  0  0  0  0  0  0  0  0  0  0  0
  142.2060   79.1160  223.0980 C   0  0  0  0  0  0  0  0  0  0  0  0
  141.0990   78.3050  222.8320 C   0  0  0  0  0  0  0  0  0  0  0  0
  141.2450   77.0490  222.3490 N   0  0  0  0  0  0  0  0  0  0  0  0
  138.7450   74.1250  222.7430 H   0  0  0  0  0  0  0  0  0  0  0  0
  139.5879   72.4937  220.4561 H   0  0  0  0  0  0  0  0  0  0  0  0
  140.5246   72.0502  221.9097 H   0  0  0  0  0  0  0  0  0  0  0  0
  137.1573   69.9026  220.4716 H   0  0  0  0  0  0  0  0  0  0  0  0
  138.7840   69.2490  220.2724 H   0  0  0  0  0  0  0  0  0  0  0  0
  136.4978   67.9485  221.4778 H   0  0  0  0  0  0  0  0  0  0  0  0
  138.1200   67.2896  221.4032 H   0  0  0  0  0  0  0  0  0  0  0  0
  136.8512   69.0570  223.6040 H   0  0  0  0  0  0  0  0  0  0  0  0
  137.8111   67.6532  223.8774 H   0  0  0  0  0  0  0  0  0  0  0  0
  139.8684   68.8836  222.7968 H   0  0  0  0  0  0  0  0  0  0  0  0
  140.7145   71.3657  223.3670 H   0  0  0  0  0  0  0  0  0  0  0  0
  141.6214   72.2923  225.4387 H   0  0  0  0  0  0  0  0  0  0  0  0
  139.2751   69.5199  227.6873 H   0  0  0  0  0  0  0  0  0  0  0  0
  138.3592   68.5834  225.5813 H   0  0  0  0  0  0  0  0  0  0  0  0
  138.0513   76.1401  222.1230 H   0  0  0  0  0  0  0  0  0  0  0  0
  137.7312   78.4155  223.0018 H   0  0  0  0  0  0  0  0  0  0  0  0
  138.6904   80.5207  223.7668 H   0  0  0  0  0  0  0  0  0  0  0  0
  140.6698   81.9434  224.2297 H   0  0  0  0  0  0  0  0  0  0  0  0
  142.9492   81.0142  223.7915 H   0  0  0  0  0  0  0  0  0  0  0  0
  143.2169   78.7248  222.9108 H   0  0  0  0  0  0  0  0  0  0  0  0
  1  2  2  0
  2  3  1  0
  3  4  1  0
  4  5  1  0
  5  6  2  0
  5  7  1  0
  7  8  1  0
  8  9  1  0
  9 10  1  0
 10 11  1  0
 11 12  1  0
 12 13  2  0
 13 14  1  0
 14 15  2  0
 15 16  1  0
 16 17  1  0
 16 18  1  0
 16 19  1  0
 15 20  1  0
 20 21  2  0
  2 22  1  0
 22 23  2  0
 23 24  1  0
 24 25  2  0
 25 26  1  0
 26 27  2  0
 27 28  1  0
 28 29  2  0
 29 30  1  0
 30 31  2  0
 11  7  1  0
 21 12  1  0
 31 22  1  0
 30 25  1  0
  3 32  1  0
  4 33  1  0
  4 34  1  0
  8 35  1  0
  8 36  1  0
  9 37  1  0
  9 38  1  0
 10 39  1  0
 10 40  1  0
 11 41  1  6
 13 42  1  0
 14 43  1  0
 20 44  1  0
 21 45  1  0
 23 46  1  0
 24 47  1  0
 26 48  1  0
 27 49  1  0
 28 50  1  0
 29 51  1  0
M  END
>  <smiles>  (17) 
O=C(NCC(=O)N1CCCC1c1ccc(C(F)(F)F)cc1)c1ccc2ccccc2n1

>  <score_type>  (17) 
oracle

>  <origin>  (17) 
autodockgpu

>  <m_score__min__energy>  (17) 
-8.4199999999999999

>  <m_primary>  (17) 
energy

>  <rmsd>  (17) 
8.153508761063785

>  <m_score__min__rmsd>  (17) 
8.153508761063785

>  <meeko>  (17) 
{"free_energy": -8.17, "intermolecular_energy": -9.96, "internal_energy": -1.87, "cluster_size": 7, "cluster_id": 2, "rank_in_cluster": 1}

>  <energy>  (17) 
-8.15

>  <cluster_rmsd>  (17) 
0.18

>  <cluster>  (17) 
2

$$$$

     RDKit          3D

 51 54  0  0  0  0  0  0  0  0999 V2000
  141.2600   71.7030  221.3060 O   0  0  0  0  0  0  0  0  0  0  0  0
  140.6350   72.2670  222.2450 C   0  0  0  0  0  0  0  0  0  0  0  0
  140.2070   73.6160  222.1920 N   0  0  0  0  0  0  0  0  0  0  0  0
  140.4680   74.4440  221.0290 C   0  0  0  0  0  0  0  0  0  0  0  0
  140.8360   75.8260  221.5140 C   0  0  0  0  0  0  0  0  0  0  0  0
  140.4920   76.0900  222.6840 O   0  0  0  0  0  0  0  0  0  0  0  0
  141.5190   76.6830  220.6350 N   0  0  0  0  0  0  0  0  0  0  0  0
  141.2210   78.1290  220.4530 C   0  0  0  0  0  0  0  0  0  0  0  0
  141.5810   78.4250  219.0140 C   0  0  0  0  0  0  0  0  0  0  0  0
  141.9760   77.0500  218.4590 C   0  0  0  0  0  0  0  0  0  0  0  0
  142.6050   76.4750  219.7080 C   0  0  2  0  0  0  0  0  0  0  0  0
  143.1650   75.1560  219.6010 C   0  0  0  0  0  0  0  0  0  0  0  0
  144.1630   74.7340  220.4460 C   0  0  0  0  0  0  0  0  0  0  0  0
  144.7010   73.4730  220.3770 C   0  0  0  0  0  0  0  0  0  0  0  0
  144.2620   72.5700  219.4540 C   0  0  0  0  0  0  0  0  0  0  0  0
  144.8140   71.1930  219.3420 C   0  0  0  0  0  0  0  0  0  0  0  0
  144.6000   70.6630  218.0930 F   0  0  0  0  0  0  0  0  0  0  0  0
  144.1580   70.4110  220.2880 F   0  0  0  0  0  0  0  0  0  0  0  0
  146.1620   71.1850  219.6950 F   0  0  0  0  0  0  0  0  0  0  0  0
  143.2530   72.9760  218.5900 C   0  0  0  0  0  0  0  0  0  0  0  0
  142.7100   74.2590  218.6630 C   0  0  0  0  0  0  0  0  0  0  0  0
  140.3380   71.4870  223.4490 C   0  0  0  0  0  0  0  0  0  0  0  0
  139.6410   70.2860  223.3610 C   0  0  0  0  0  0  0  0  0  0  0  0
  139.3460   69.5290  224.4750 C   0  0  0  0  0  0  0  0  0  0  0  0
  139.7420   69.9500  225.7260 C   0  0  0  0  0  0  0  0  0  0  0  0
  139.4690   69.2260  226.8660 C   0  0  0  0  0  0  0  0  0  0  0  0
  139.8700   69.6580  228.1130 C   0  0  0  0  0  0  0  0  0  0  0  0
  140.5660   70.8570  228.1990 C   0  0  0  0  0  0  0  0  0  0  0  0
  140.8450   71.5920  227.0590 C   0  0  0  0  0  0  0  0  0  0  0  0
  140.4410   71.1580  225.7930 C   0  0  0  0  0  0  0  0  0  0  0  0
  140.7140   71.8780  224.6800 N   0  0  0  0  0  0  0  0  0  0  0  0
  139.6880   74.0240  223.0170 H   0  0  0  0  0  0  0  0  0  0  0  0
  141.2990   74.0190  220.4469 H   0  0  0  0  0  0  0  0  0  0  0  0
  139.5779   74.4894  220.3844 H   0  0  0  0  0  0  0  0  0  0  0  0
  140.1547   78.3297  220.6339 H   0  0  0  0  0  0  0  0  0  0  0  0
  141.7840   78.7587  221.1576 H   0  0  0  0  0  0  0  0  0  0  0  0
  140.7190   78.8372  218.4689 H   0  0  0  0  0  0  0  0  0  0  0  0
  142.3799   79.1747  218.9156 H   0  0  0  0  0  0  0  0  0  0  0  0
  141.1016   76.4691  218.1304 H   0  0  0  0  0  0  0  0  0  0  0  0
  142.6162   77.0624  217.5646 H   0  0  0  0  0  0  0  0  0  0  0  0
  143.5465   76.9506  220.0199 H   0  0  0  0  0  0  0  0  0  0  0  0
  144.5447   75.4322  221.2055 H   0  0  0  0  0  0  0  0  0  0  0  0
  145.4991   73.1862  221.0775 H   0  0  0  0  0  0  0  0  0  0  0  0
  142.8749   72.2724  217.8337 H   0  0  0  0  0  0  0  0  0  0  0  0
  141.9126   74.5552  217.9656 H   0  0  0  0  0  0  0  0  0  0  0  0
  139.3154   69.9296  222.3726 H   0  0  0  0  0  0  0  0  0  0  0  0
  138.7922   68.5850  224.3647 H   0  0  0  0  0  0  0  0  0  0  0  0
  138.9168   68.2786  226.7794 H   0  0  0  0  0  0  0  0  0  0  0  0
  139.6448   69.0693  229.0145 H   0  0  0  0  0  0  0  0  0  0  0  0
  140.8983   71.2257  229.1807 H   0  0  0  0  0  0  0  0  0  0  0  0
  141.3971   72.5389  227.1517 H   0  0  0  0  0  0  0  0  0  0  0  0
  1  2  2  0
  2  3  1  0
  3  4  1  0
  4  5  1  0
  5  6  2  0
  5  7  1  0
  7  8  1  0
  8  9  1  0
  9 10  1  0
 10 11  1  0
 11 12  1  0
 12 13  2  0
 13 14  1  0
 14 15  2  0
 15 16  1  0
 16 17  1  0
 16 18  1  0
 16 19  1  0
 15 20  1  0
 20 21  2  0
  2 22  1  0
 22 23  2  0
 23 24  1  0
 24 25  2  0
 25 26  1  0
 26 27  2  0
 27 28  1  0
 28 29  2  0
 29 30  1  0
 30 31  2  0
 11  7  1  0
 21 12  1  0
 31 22  1  0
 30 25  1  0
  3 32  1  0
  4 33  1  0
  4 34  1  0
  8 35  1  0
  8 36  1  0
  9 37  1  0
  9 38  1  0
 10 39  1  0
 10 40  1  0
 11 41  1  1
 13 42  1  0
 14 43  1  0
 20 44  1  0
 21 45  1  0
 23 46  1  0
 24 47  1  0
 26 48  1  0
 27 49  1  0
 28 50  1  0
 29 51  1  0
M  END
>  <smiles>  (18) 
O=C(NCC(=O)N1CCCC1c1ccc(C(F)(F)F)cc1)c1ccc2ccccc2n1

>  <score_type>  (18) 
oracle

>  <origin>  (18) 
autodockgpu

>  <m_score__min__energy>  (18) 
-8.4199999999999999

>  <m_primary>  (18) 
energy

>  <rmsd>  (18) 
2.2495636329131954

>  <m_score__min__rmsd>  (18) 
2.2495636329131954

>  <meeko>  (18) 
{"free_energy": -7.8, "intermolecular_energy": -9.59, "internal_energy": -2.28, "cluster_size": 19, "cluster_id": 4, "rank_in_cluster": 17}

>  <energy>  (18) 
-8.14

>  <cluster_rmsd>  (18) 
0.21

>  <cluster>  (18) 
2

$$$$

     RDKit          3D

 51 54  0  0  0  0  0  0  0  0999 V2000
  141.2990   71.6450  221.4550 O   0  0  0  0  0  0  0  0  0  0  0  0
  140.6410   72.2130  222.3680 C   0  0  0  0  0  0  0  0  0  0  0  0
  140.1830   73.5510  222.2770 N   0  0  0  0  0  0  0  0  0  0  0  0
  140.4510   74.3600  221.1030 C   0  0  0  0  0  0  0  0  0  0  0  0
  140.7380   75.7690  221.5640 C   0  0  0  0  0  0  0  0  0  0  0  0
  140.2520   76.0770  222.6710 O   0  0  0  0  0  0  0  0  0  0  0  0
  141.5090   76.6000  220.7350 N   0  0  0  0  0  0  0  0  0  0  0  0
  141.3120   78.0660  220.5790 C   0  0  0  0  0  0  0  0  0  0  0  0
  141.7490   78.3710  219.1620 C   0  0  0  0  0  0  0  0  0  0  0  0
  142.0780   76.9860  218.5890 C   0  0  0  0  0  0  0  0  0  0  0  0
  142.6170   76.3430  219.8470 C   0  0  2  0  0  0  0  0  0  0  0  0
  143.0960   74.9930  219.7280 C   0  0  0  0  0  0  0  0  0  0  0  0
  144.0880   74.5140  220.5490 C   0  0  0  0  0  0  0  0  0  0  0  0
  144.5490   73.2240  220.4700 C   0  0  0  0  0  0  0  0  0  0  0  0
  144.0360   72.3470  219.5590 C   0  0  0  0  0  0  0  0  0  0  0  0
  144.5040   70.9400  219.4360 C   0  0  0  0  0  0  0  0  0  0  0  0
  145.8730   70.8690  219.3570 F   0  0  0  0  0  0  0  0  0  0  0  0
  143.9510   70.4270  218.2670 F   0  0  0  0  0  0  0  0  0  0  0  0
  143.9950   70.1710  220.4800 F   0  0  0  0  0  0  0  0  0  0  0  0
  143.0310   72.8120  218.7190 C   0  0  0  0  0  0  0  0  0  0  0  0
  142.5660   74.1240  218.8030 C   0  0  0  0  0  0  0  0  0  0  0  0
  140.3340   71.4510  223.5820 C   0  0  0  0  0  0  0  0  0  0  0  0
  139.6360   70.2500  223.5060 C   0  0  0  0  0  0  0  0  0  0  0  0
  139.3320   69.5090  224.6290 C   0  0  0  0  0  0  0  0  0  0  0  0
  139.7200   69.9490  225.8770 C   0  0  0  0  0  0  0  0  0  0  0  0
  139.4390   69.2420  227.0250 C   0  0  0  0  0  0  0  0  0  0  0  0
  139.8310   69.6910  228.2680 C   0  0  0  0  0  0  0  0  0  0  0  0
  140.5290   70.8910  228.3410 C   0  0  0  0  0  0  0  0  0  0  0  0
  140.8160   71.6090  227.1930 C   0  0  0  0  0  0  0  0  0  0  0  0
  140.4200   71.1570  225.9310 C   0  0  0  0  0  0  0  0  0  0  0  0
  140.7020   71.8600  224.8090 N   0  0  0  0  0  0  0  0  0  0  0  0
  139.6370   73.9630  223.0820 H   0  0  0  0  0  0  0  0  0  0  0  0
  141.3218   73.9588  220.5638 H   0  0  0  0  0  0  0  0  0  0  0  0
  139.5852   74.3484  220.4246 H   0  0  0  0  0  0  0  0  0  0  0  0
  140.2543   78.3315  220.7231 H   0  0  0  0  0  0  0  0  0  0  0  0
  141.8849   78.6414  221.3211 H   0  0  0  0  0  0  0  0  0  0  0  0
  140.9380   78.8501  218.5939 H   0  0  0  0  0  0  0  0  0  0  0  0
  142.5972   79.0697  219.1138 H   0  0  0  0  0  0  0  0  0  0  0  0
  141.1825   76.4706  218.2115 H   0  0  0  0  0  0  0  0  0  0  0  0
  142.7542   76.9771  217.7215 H   0  0  0  0  0  0  0  0  0  0  0  0
  143.5732   76.7490  220.2088 H   0  0  0  0  0  0  0  0  0  0  0  0
  144.5288   75.1893  221.2970 H   0  0  0  0  0  0  0  0  0  0  0  0
  145.3452   72.8913  221.1522 H   0  0  0  0  0  0  0  0  0  0  0  0
  142.5938   72.1317  217.9733 H   0  0  0  0  0  0  0  0  0  0  0  0
  141.7702   74.4661  218.1251 H   0  0  0  0  0  0  0  0  0  0  0  0
  139.3168   69.8801  222.5204 H   0  0  0  0  0  0  0  0  0  0  0  0
  138.7782   68.5639  224.5287 H   0  0  0  0  0  0  0  0  0  0  0  0
  138.8870   68.2937  226.9480 H   0  0  0  0  0  0  0  0  0  0  0  0
  139.5981   69.1160  229.1764 H   0  0  0  0  0  0  0  0  0  0  0  0
  140.8560   71.2731  229.3193 H   0  0  0  0  0  0  0  0  0  0  0  0
  141.3682   72.5568  227.2757 H   0  0  0  0  0  0  0  0  0  0  0  0
  1  2  2  0
  2  3  1  0
  3  4  1  0
  4  5  1  0
  5  6  2  0
  5  7  1  0
  7  8  1  0
  8  9  1  0
  9 10  1  0
 10 11  1  0
 11 12  1  0
 12 13  2  0
 13 14  1  0
 14 15  2  0
 15 16  1  0
 16 17  1  0
 16 18  1  0
 16 19  1  0
 15 20  1  0
 20 21  2  0
  2 22  1  0
 22 23  2  0
 23 24  1  0
 24 25  2  0
 25 26  1  0
 26 27  2  0
 27 28  1  0
 28 29  2  0
 29 30  1  0
 30 31  2  0
 11  7  1  0
 21 12  1  0
 31 22  1  0
 30 25  1  0
  3 32  1  0
  4 33  1  0
  4 34  1  0
  8 35  1  0
  8 36  1  0
  9 37  1  0
  9 38  1  0
 10 39  1  0
 10 40  1  0
 11 41  1  1
 13 42  1  0
 14 43  1  0
 20 44  1  0
 21 45  1  0
 23 46  1  0
 24 47  1  0
 26 48  1  0
 27 49  1  0
 28 50  1  0
 29 51  1  0
M  END
>  <smiles>  (19) 
O=C(NCC(=O)N1CCCC1c1ccc(C(F)(F)F)cc1)c1ccc2ccccc2n1

>  <score_type>  (19) 
oracle

>  <origin>  (19) 
autodockgpu

>  <m_score__min__energy>  (19) 
-8.4199999999999999

>  <m_primary>  (19) 
energy

>  <rmsd>  (19) 
2.2780480286887865

>  <m_score__min__rmsd>  (19) 
2.2780480286887865

>  <meeko>  (19) 
{"free_energy": -7.9, "intermolecular_energy": -9.69, "internal_energy": -2.25, "cluster_size": 19, "cluster_id": 4, "rank_in_cluster": 8}

>  <energy>  (19) 
-8.09

>  <cluster_rmsd>  (19) 
1.3

>  <cluster>  (19) 
2

$$$$

     RDKit          3D

 51 54  0  0  0  0  0  0  0  0999 V2000
  141.2810   71.6580  221.4220 O   0  0  0  0  0  0  0  0  0  0  0  0
  140.6260   72.2180  222.3420 C   0  0  0  0  0  0  0  0  0  0  0  0
  140.1670   73.5570  222.2630 N   0  0  0  0  0  0  0  0  0  0  0  0
  140.4300   74.3750  221.0950 C   0  0  0  0  0  0  0  0  0  0  0  0
  140.7290   75.7780  221.5670 C   0  0  0  0  0  0  0  0  0  0  0  0
  140.2590   76.0770  222.6840 O   0  0  0  0  0  0  0  0  0  0  0  0
  141.4930   76.6150  220.7370 N   0  0  0  0  0  0  0  0  0  0  0  0
  141.2960   78.0820  220.5950 C   0  0  0  0  0  0  0  0  0  0  0  0
  141.7190   78.3990  219.1770 C   0  0  0  0  0  0  0  0  0  0  0  0
  142.0390   77.0180  218.5880 C   0  0  0  0  0  0  0  0  0  0  0  0
  142.5910   76.3640  219.8350 C   0  0  2  0  0  0  0  0  0  0  0  0
  143.0660   75.0140  219.7000 C   0  0  0  0  0  0  0  0  0  0  0  0
  144.0010   74.4980  220.5640 C   0  0  0  0  0  0  0  0  0  0  0  0
  144.4570   73.2070  220.4690 C   0  0  0  0  0  0  0  0  0  0  0  0
  143.9950   72.3670  219.4990 C   0  0  0  0  0  0  0  0  0  0  0  0
  144.4590   70.9600  219.3570 C   0  0  0  0  0  0  0  0  0  0  0  0
  143.9230   70.3620  218.2430 F   0  0  0  0  0  0  0  0  0  0  0  0
  144.0370   70.2740  220.4910 F   0  0  0  0  0  0  0  0  0  0  0  0
  145.8510   70.9100  219.3650 F   0  0  0  0  0  0  0  0  0  0  0  0
  143.0480   72.8690  218.6140 C   0  0  0  0  0  0  0  0  0  0  0  0
  142.5880   74.1820  218.7150 C   0  0  0  0  0  0  0  0  0  0  0  0
  140.3240   71.4470  223.5500 C   0  0  0  0  0  0  0  0  0  0  0  0
  139.6320   70.2420  223.4670 C   0  0  0  0  0  0  0  0  0  0  0  0
  139.3320   69.4930  224.5840 C   0  0  0  0  0  0  0  0  0  0  0  0
  139.7180   69.9250  225.8350 C   0  0  0  0  0  0  0  0  0  0  0  0
  139.4410   69.2080  226.9780 C   0  0  0  0  0  0  0  0  0  0  0  0
  139.8320   69.6510  228.2250 C   0  0  0  0  0  0  0  0  0  0  0  0
  140.5240   70.8540  228.3060 C   0  0  0  0  0  0  0  0  0  0  0  0
  140.8070   71.5810  227.1620 C   0  0  0  0  0  0  0  0  0  0  0  0
  140.4120   71.1360  225.8970 C   0  0  0  0  0  0  0  0  0  0  0  0
  140.6900   71.8490  224.7800 N   0  0  0  0  0  0  0  0  0  0  0  0
  139.6220   73.9620  223.0730 H   0  0  0  0  0  0  0  0  0  0  0  0
  141.2940   73.9739  220.5449 H   0  0  0  0  0  0  0  0  0  0  0  0
  139.5586   74.3747  220.4236 H   0  0  0  0  0  0  0  0  0  0  0  0
  140.2400   78.3472  220.7518 H   0  0  0  0  0  0  0  0  0  0  0  0
  141.8771   78.6504  221.3362 H   0  0  0  0  0  0  0  0  0  0  0  0
  140.9033   78.8851  218.6216 H   0  0  0  0  0  0  0  0  0  0  0  0
  142.5682   79.0963  219.1264 H   0  0  0  0  0  0  0  0  0  0  0  0
  141.1384   76.5073  218.2163 H   0  0  0  0  0  0  0  0  0  0  0  0
  142.7051   77.0150  217.7126 H   0  0  0  0  0  0  0  0  0  0  0  0
  143.5517   76.7659  220.1893 H   0  0  0  0  0  0  0  0  0  0  0  0
  144.3988   75.1431  221.3612 H   0  0  0  0  0  0  0  0  0  0  0  0
  145.2073   72.8439  221.1868 H   0  0  0  0  0  0  0  0  0  0  0  0
  142.6540   72.2187  217.8191 H   0  0  0  0  0  0  0  0  0  0  0  0
  141.8378   74.5544  218.0019 H   0  0  0  0  0  0  0  0  0  0  0  0
  139.3149   69.8764  222.4792 H   0  0  0  0  0  0  0  0  0  0  0  0
  138.7822   68.5463  224.4771 H   0  0  0  0  0  0  0  0  0  0  0  0
  138.8938   68.2574  226.8946 H   0  0  0  0  0  0  0  0  0  0  0  0
  139.6026   69.0686  229.1296 H   0  0  0  0  0  0  0  0  0  0  0  0
  140.8493   71.2313  229.2867 H   0  0  0  0  0  0  0  0  0  0  0  0
  141.3552   72.5305  227.2506 H   0  0  0  0  0  0  0  0  0  0  0  0
  1  2  2  0
  2  3  1  0
  3  4  1  0
  4  5  1  0
  5  6  2  0
  5  7  1  0
  7  8  1  0
  8  9  1  0
  9 10  1  0
 10 11  1  0
 11 12  1  0
 12 13  2  0
 13 14  1  0
 14 15  2  0
 15 16  1  0
 16 17  1  0
 16 18  1  0
 16 19  1  0
 15 20  1  0
 20 21  2  0
  2 22  1  0
 22 23  2  0
 23 24  1  0
 24 25  2  0
 25 26  1  0
 26 27  2  0
 27 28  1  0
 28 29  2  0
 29 30  1  0
 30 31  2  0
 11  7  1  0
 21 12  1  0
 31 22  1  0
 30 25  1  0
  3 32  1  0
  4 33  1  0
  4 34  1  0
  8 35  1  0
  8 36  1  0
  9 37  1  0
  9 38  1  0
 10 39  1  0
 10 40  1  0
 11 41  1  1
 13 42  1  0
 14 43  1  0
 20 44  1  0
 21 45  1  0
 23 46  1  0
 24 47  1  0
 26 48  1  0
 27 49  1  0
 28 50  1  0
 29 51  1  0
M  END
>  <smiles>  (20) 
O=C(NCC(=O)N1CCCC1c1ccc(C(F)(F)F)cc1)c1ccc2ccccc2n1

>  <score_type>  (20) 
oracle

>  <origin>  (20) 
autodockgpu

>  <m_score__min__energy>  (20) 
-8.4199999999999999

>  <m_primary>  (20) 
energy

>  <rmsd>  (20) 
2.268812598822506

>  <m_score__min__rmsd>  (20) 
2.268812598822506

>  <meeko>  (20) 
{"free_energy": -7.84, "intermolecular_energy": -9.63, "internal_energy": -2.28, "cluster_size": 19, "cluster_id": 4, "rank_in_cluster": 15}

>  <energy>  (20) 
-8.03

>  <cluster_rmsd>  (20) 
1.37

>  <cluster>  (20) 
2

$$$$

     RDKit          3D

 51 54  0  0  0  0  0  0  0  0999 V2000
  141.2880   71.6350  221.4480 O   0  0  0  0  0  0  0  0  0  0  0  0
  140.6400   72.2020  222.3690 C   0  0  0  0  0  0  0  0  0  0  0  0
  140.1930   73.5440  222.2890 N   0  0  0  0  0  0  0  0  0  0  0  0
  140.4600   74.3590  221.1190 C   0  0  0  0  0  0  0  0  0  0  0  0
  140.7460   75.7660  221.5870 C   0  0  0  0  0  0  0  0  0  0  0  0
  140.2710   76.0650  222.7010 O   0  0  0  0  0  0  0  0  0  0  0  0
  141.5040   76.6060  220.7550 N   0  0  0  0  0  0  0  0  0  0  0  0
  141.3010   78.0730  220.6130 C   0  0  0  0  0  0  0  0  0  0  0  0
  141.7190   78.3910  219.1940 C   0  0  0  0  0  0  0  0  0  0  0  0
  142.0440   77.0120  218.6050 C   0  0  0  0  0  0  0  0  0  0  0  0
  142.6020   76.3600  219.8500 C   0  0  2  0  0  0  0  0  0  0  0  0
  143.0820   75.0120  219.7140 C   0  0  0  0  0  0  0  0  0  0  0  0
  144.0590   74.5170  220.5430 C   0  0  0  0  0  0  0  0  0  0  0  0
  144.5210   73.2280  220.4470 C   0  0  0  0  0  0  0  0  0  0  0  0
  144.0240   72.3690  219.5100 C   0  0  0  0  0  0  0  0  0  0  0  0
  144.4930   70.9650  219.3680 C   0  0  0  0  0  0  0  0  0  0  0  0
  144.0090   70.3840  218.2220 F   0  0  0  0  0  0  0  0  0  0  0  0
  144.0190   70.2620  220.4710 F   0  0  0  0  0  0  0  0  0  0  0  0
  145.8830   70.9130  219.4400 F   0  0  0  0  0  0  0  0  0  0  0  0
  143.0340   72.8510  218.6620 C   0  0  0  0  0  0  0  0  0  0  0  0
  142.5680   74.1620  218.7630 C   0  0  0  0  0  0  0  0  0  0  0  0
  140.3340   71.4350  223.5790 C   0  0  0  0  0  0  0  0  0  0  0  0
  139.6460   70.2280  223.4980 C   0  0  0  0  0  0  0  0  0  0  0  0
  139.3440   69.4830  224.6180 C   0  0  0  0  0  0  0  0  0  0  0  0
  139.7230   69.9220  225.8680 C   0  0  0  0  0  0  0  0  0  0  0  0
  139.4420   69.2100  227.0140 C   0  0  0  0  0  0  0  0  0  0  0  0
  139.8260   69.6600  228.2600 C   0  0  0  0  0  0  0  0  0  0  0  0
  140.5140   70.8650  228.3380 C   0  0  0  0  0  0  0  0  0  0  0  0
  140.8000   71.5880  227.1930 C   0  0  0  0  0  0  0  0  0  0  0  0
  140.4130   71.1350  225.9280 C   0  0  0  0  0  0  0  0  0  0  0  0
  140.6940   71.8440  224.8090 N   0  0  0  0  0  0  0  0  0  0  0  0
  139.6550   73.9560  223.1000 H   0  0  0  0  0  0  0  0  0  0  0  0
  141.3310   73.9612  220.5776 H   0  0  0  0  0  0  0  0  0  0  0  0
  139.5940   74.3500  220.4408 H   0  0  0  0  0  0  0  0  0  0  0  0
  140.2444   78.3343  220.7725 H   0  0  0  0  0  0  0  0  0  0  0  0
  141.8818   78.6438  221.3524 H   0  0  0  0  0  0  0  0  0  0  0  0
  140.8997   78.8729  218.6404 H   0  0  0  0  0  0  0  0  0  0  0  0
  142.5649   79.0922  219.1411 H   0  0  0  0  0  0  0  0  0  0  0  0
  141.1449   76.4972  218.2354 H   0  0  0  0  0  0  0  0  0  0  0  0
  142.7083   77.0124  217.7283 H   0  0  0  0  0  0  0  0  0  0  0  0
  143.5621   76.7659  220.2015 H   0  0  0  0  0  0  0  0  0  0  0  0
  144.4867   75.1775  221.3117 H   0  0  0  0  0  0  0  0  0  0  0  0
  145.3048   72.8816  221.1367 H   0  0  0  0  0  0  0  0  0  0  0  0
  142.6094   72.1855  217.8959 H   0  0  0  0  0  0  0  0  0  0  0  0
  141.7846   74.5180  218.0778 H   0  0  0  0  0  0  0  0  0  0  0  0
  139.3337   69.8572  222.5106 H   0  0  0  0  0  0  0  0  0  0  0  0
  138.7980   68.5338  224.5133 H   0  0  0  0  0  0  0  0  0  0  0  0
  138.8972   68.2578  226.9329 H   0  0  0  0  0  0  0  0  0  0  0  0
  139.5942   69.0814  229.1664 H   0  0  0  0  0  0  0  0  0  0  0  0
  140.8341   71.2475  229.3184 H   0  0  0  0  0  0  0  0  0  0  0  0
  141.3439   72.5402  227.2801 H   0  0  0  0  0  0  0  0  0  0  0  0
  1  2  2  0
  2  3  1  0
  3  4  1  0
  4  5  1  0
  5  6  2  0
  5  7  1  0
  7  8  1  0
  8  9  1  0
  9 10  1  0
 10 11  1  0
 11 12  1  0
 12 13  2  0
 13 14  1  0
 14 15  2  0
 15 16  1  0
 16 17  1  0
 16 18  1  0
 16 19  1  0
 15 20  1  0
 20 21  2  0
  2 22  1  0
 22 23  2  0
 23 24  1  0
 24 25  2  0
 25 26  1  0
 26 27  2  0
 27 28  1  0
 28 29  2  0
 29 30  1  0
 30 31  2  0
 11  7  1  0
 21 12  1  0
 31 22  1  0
 30 25  1  0
  3 32  1  0
  4 33  1  0
  4 34  1  0
  8 35  1  0
  8 36  1  0
  9 37  1  0
  9 38  1  0
 10 39  1  0
 10 40  1  0
 11 41  1  1
 13 42  1  0
 14 43  1  0
 20 44  1  0
 21 45  1  0
 23 46  1  0
 24 47  1  0
 26 48  1  0
 27 49  1  0
 28 50  1  0
 29 51  1  0
M  END
>  <smiles>  (21) 
O=C(NCC(=O)N1CCCC1c1ccc(C(F)(F)F)cc1)c1ccc2ccccc2n1

>  <score_type>  (21) 
oracle

>  <origin>  (21) 
autodockgpu

>  <m_score__min__energy>  (21) 
-8.4199999999999999

>  <m_primary>  (21) 
energy

>  <rmsd>  (21) 
2.2773020664099657

>  <m_score__min__rmsd>  (21) 
2.2773020664099657

>  <meeko>  (21) 
{"free_energy": -7.86, "intermolecular_energy": -9.65, "internal_energy": -2.27, "cluster_size": 19, "cluster_id": 4, "rank_in_cluster": 14}

>  <energy>  (21) 
-7.95

>  <cluster_rmsd>  (21) 
1.36

>  <cluster>  (21) 
2

$$$$

     RDKit          3D

 51 54  0  0  0  0  0  0  0  0999 V2000
  140.9220   71.5220  221.2840 O   0  0  0  0  0  0  0  0  0  0  0  0
  140.4050   72.1800  222.2270 C   0  0  0  0  0  0  0  0  0  0  0  0
  140.0080   73.5340  222.1030 N   0  0  0  0  0  0  0  0  0  0  0  0
  140.1760   74.2560  220.8560 C   0  0  0  0  0  0  0  0  0  0  0  0
  139.0130   75.2070  220.7080 C   0  0  0  0  0  0  0  0  0  0  0  0
  138.8880   75.7260  219.5800 O   0  0  0  0  0  0  0  0  0  0  0  0
  138.1840   75.4290  221.8200 N   0  0  0  0  0  0  0  0  0  0  0  0
  137.0310   74.5720  222.2070 C   0  0  0  0  0  0  0  0  0  0  0  0
  136.0520   75.5110  222.8770 C   0  0  0  0  0  0  0  0  0  0  0  0
  136.7180   76.8850  222.7200 C   0  0  0  0  0  0  0  0  0  0  0  0
  138.1620   76.4510  222.8390 C   0  0  2  0  0  0  0  0  0  0  0  0
  139.1550   77.4890  222.7840 C   0  0  0  0  0  0  0  0  0  0  0  0
  138.8030   78.8150  222.8420 C   0  0  0  0  0  0  0  0  0  0  0  0
  139.7330   79.8250  222.8130 C   0  0  0  0  0  0  0  0  0  0  0  0
  141.0660   79.5510  222.7230 C   0  0  0  0  0  0  0  0  0  0  0  0
  142.1090   80.6120  222.6870 C   0  0  0  0  0  0  0  0  0  0  0  0
  143.3730   80.0770  222.7420 F   0  0  0  0  0  0  0  0  0  0  0  0
  141.9070   81.4220  223.8010 F   0  0  0  0  0  0  0  0  0  0  0  0
  141.9290   81.4270  221.5730 F   0  0  0  0  0  0  0  0  0  0  0  0
  141.4430   78.2150  222.6640 C   0  0  0  0  0  0  0  0  0  0  0  0
  140.4950   77.1930  222.6940 C   0  0  0  0  0  0  0  0  0  0  0  0
  140.2060   71.5090  223.5150 C   0  0  0  0  0  0  0  0  0  0  0  0
  139.4830   70.3230  223.5910 C   0  0  0  0  0  0  0  0  0  0  0  0
  139.2770   69.6680  224.7870 C   0  0  0  0  0  0  0  0  0  0  0  0
  139.7940   70.1800  225.9580 C   0  0  0  0  0  0  0  0  0  0  0  0
  139.6150   69.5600  227.1740 C   0  0  0  0  0  0  0  0  0  0  0  0
  140.1360   70.0820  228.3390 C   0  0  0  0  0  0  0  0  0  0  0  0
  140.8590   71.2660  228.2610 C   0  0  0  0  0  0  0  0  0  0  0  0
  141.0450   71.8980  227.0420 C   0  0  0  0  0  0  0  0  0  0  0  0
  140.5180   71.3720  225.8600 C   0  0  0  0  0  0  0  0  0  0  0  0
  140.7010   71.9910  224.6700 N   0  0  0  0  0  0  0  0  0  0  0  0
  139.5810   74.0240  222.9360 H   0  0  0  0  0  0  0  0  0  0  0  0
  141.1199   74.8206  220.8756 H   0  0  0  0  0  0  0  0  0  0  0  0
  140.2066   73.5546  220.0092 H   0  0  0  0  0  0  0  0  0  0  0  0
  136.5770   74.1103  221.3178 H   0  0  0  0  0  0  0  0  0  0  0  0
  137.3331   73.7482  222.8704 H   0  0  0  0  0  0  0  0  0  0  0  0
  135.0746   75.4868  222.3729 H   0  0  0  0  0  0  0  0  0  0  0  0
  135.8509   75.2471  223.9258 H   0  0  0  0  0  0  0  0  0  0  0  0
  136.5017   77.3409  221.7425 H   0  0  0  0  0  0  0  0  0  0  0  0
  136.3918   77.6574  223.4320 H   0  0  0  0  0  0  0  0  0  0  0  0
  138.4624   76.0875  223.8328 H   0  0  0  0  0  0  0  0  0  0  0  0
  137.7373   79.0778  222.9143 H   0  0  0  0  0  0  0  0  0  0  0  0
  139.3976   80.8714  222.8632 H   0  0  0  0  0  0  0  0  0  0  0  0
  142.5103   77.9585  222.5922 H   0  0  0  0  0  0  0  0  0  0  0  0
  140.8209   76.1435  222.6454 H   0  0  0  0  0  0  0  0  0  0  0  0
  139.0628   69.8946  222.6691 H   0  0  0  0  0  0  0  0  0  0  0  0
  138.6977   68.7331  224.8067 H   0  0  0  0  0  0  0  0  0  0  0  0
  139.0408   68.6228  227.2174 H   0  0  0  0  0  0  0  0  0  0  0  0
  139.9835   69.5752  229.3033 H   0  0  0  0  0  0  0  0  0  0  0  0
  141.2871   71.7051  229.1742 H   0  0  0  0  0  0  0  0  0  0  0  0
  141.6204   72.8347  227.0042 H   0  0  0  0  0  0  0  0  0  0  0  0
  1  2  2  0
  2  3  1  0
  3  4  1  0
  4  5  1  0
  5  6  2  0
  5  7  1  0
  7  8  1  0
  8  9  1  0
  9 10  1  0
 10 11  1  0
 11 12  1  0
 12 13  2  0
 13 14  1  0
 14 15  2  0
 15 16  1  0
 16 17  1  0
 16 18  1  0
 16 19  1  0
 15 20  1  0
 20 21  2  0
  2 22  1  0
 22 23  2  0
 23 24  1  0
 24 25  2  0
 25 26  1  0
 26 27  2  0
 27 28  1  0
 28 29  2  0
 29 30  1  0
 30 31  2  0
 11  7  1  0
 21 12  1  0
 31 22  1  0
 30 25  1  0
  3 32  1  0
  4 33  1  0
  4 34  1  0
  8 35  1  0
  8 36  1  0
  9 37  1  0
  9 38  1  0
 10 39  1  0
 10 40  1  0
 11 41  1  1
 13 42  1  0
 14 43  1  0
 20 44  1  0
 21 45  1  0
 23 46  1  0
 24 47  1  0
 26 48  1  0
 27 49  1  0
 28 50  1  0
 29 51  1  0
M  END
>  <smiles>  (22) 
O=C(NCC(=O)N1CCCC1c1ccc(C(F)(F)F)cc1)c1ccc2ccccc2n1

>  <score_type>  (22) 
oracle

>  <origin>  (22) 
autodockgpu

>  <m_score__min__energy>  (22) 
-8.4199999999999999

>  <m_primary>  (22) 
energy

>  <rmsd>  (22) 
3.307524977641994

>  <m_score__min__rmsd>  (22) 
3.307524977641994

>  <meeko>  (22) 
{"free_energy": -8.18, "intermolecular_energy": -9.97, "internal_energy": -1.61, "cluster_size": 14, "cluster_id": 1, "rank_in_cluster": 4}

>  <energy>  (22) 
-8.04

>  <cluster_rmsd>  (22) 
0.0

>  <cluster>  (22) 
3

$$$$

     RDKit          3D

 51 54  0  0  0  0  0  0  0  0999 V2000
  138.1470   70.2930  221.8520 O   0  0  0  0  0  0  0  0  0  0  0  0
  138.7300   70.9400  222.7640 C   0  0  0  0  0  0  0  0  0  0  0  0
  139.0230   72.3230  222.6670 N   0  0  0  0  0  0  0  0  0  0  0  0
  138.6600   73.0890  221.4900 C   0  0  0  0  0  0  0  0  0  0  0  0
  139.7020   74.1650  221.2950 C   0  0  0  0  0  0  0  0  0  0  0  0
  140.3610   74.4600  222.3120 O   0  0  0  0  0  0  0  0  0  0  0  0
  139.8460   74.7330  220.0180 N   0  0  0  0  0  0  0  0  0  0  0  0
  139.5820   74.0260  218.7370 C   0  0  0  0  0  0  0  0  0  0  0  0
  140.5330   74.6520  217.7400 C   0  0  0  0  0  0  0  0  0  0  0  0
  141.3500   75.6280  218.5980 C   0  0  0  0  0  0  0  0  0  0  0  0
  140.2640   76.0390  219.5680 C   0  0  2  0  0  0  0  0  0  0  0  0
  140.6190   77.0190  220.5570 C   0  0  0  0  0  0  0  0  0  0  0  0
  141.8050   77.7080  220.4840 C   0  0  0  0  0  0  0  0  0  0  0  0
  142.1590   78.6630  221.4040 C   0  0  0  0  0  0  0  0  0  0  0  0
  141.3360   78.9760  222.4460 C   0  0  0  0  0  0  0  0  0  0  0  0
  141.6760   80.0030  223.4670 C   0  0  0  0  0  0  0  0  0  0  0  0
  142.6470   80.8630  223.0140 F   0  0  0  0  0  0  0  0  0  0  0  0
  142.1520   79.3260  224.5850 F   0  0  0  0  0  0  0  0  0  0  0  0
  140.5260   80.6740  223.8770 F   0  0  0  0  0  0  0  0  0  0  0  0
  140.1300   78.2910  222.5370 C   0  0  0  0  0  0  0  0  0  0  0  0
  139.7760   77.3210  221.6000 C   0  0  0  0  0  0  0  0  0  0  0  0
  139.1240   70.2260  223.9820 C   0  0  0  0  0  0  0  0  0  0  0  0
  138.8730   68.8640  224.1160 C   0  0  0  0  0  0  0  0  0  0  0  0
  139.2310   68.1640  225.2480 C   0  0  0  0  0  0  0  0  0  0  0  0
  139.8570   68.8070  226.2940 C   0  0  0  0  0  0  0  0  0  0  0  0
  140.2330   68.1470  227.4440 C   0  0  0  0  0  0  0  0  0  0  0  0
  140.8590   68.8010  228.4840 C   0  0  0  0  0  0  0  0  0  0  0  0
  141.1090   70.1610  228.3470 C   0  0  0  0  0  0  0  0  0  0  0  0
  140.7350   70.8330  227.1960 C   0  0  0  0  0  0  0  0  0  0  0  0
  140.1000   70.1740  226.1400 C   0  0  0  0  0  0  0  0  0  0  0  0
  139.7360   70.8330  225.0140 N   0  0  0  0  0  0  0  0  0  0  0  0
  139.5150   72.8020  223.4710 H   0  0  0  0  0  0  0  0  0  0  0  0
  138.6338   72.4305  220.6093 H   0  0  0  0  0  0  0  0  0  0  0  0
  137.6646   73.5392  221.6185 H   0  0  0  0  0  0  0  0  0  0  0  0
  139.7842   72.9497  218.8408 H   0  0  0  0  0  0  0  0  0  0  0  0
  138.5324   74.1206  218.4219 H   0  0  0  0  0  0  0  0  0  0  0  0
  141.1820   73.8907  217.2826 H   0  0  0  0  0  0  0  0  0  0  0  0
  140.0169   75.1431  216.9019 H   0  0  0  0  0  0  0  0  0  0  0  0
  142.1909   75.1309  219.1039 H   0  0  0  0  0  0  0  0  0  0  0  0
  141.8385   76.4490  218.0527 H   0  0  0  0  0  0  0  0  0  0  0  0
  139.4484   76.6363  219.1343 H   0  0  0  0  0  0  0  0  0  0  0  0
  142.4965   77.4862  219.6578 H   0  0  0  0  0  0  0  0  0  0  0  0
  143.1219   79.1844  221.2995 H   0  0  0  0  0  0  0  0  0  0  0  0
  139.4416   78.5185  223.3642 H   0  0  0  0  0  0  0  0  0  0  0  0
  138.8154   76.7937  221.6961 H   0  0  0  0  0  0  0  0  0  0  0  0
  138.3740   68.3300  223.2939 H   0  0  0  0  0  0  0  0  0  0  0  0
  139.0162   67.0874  225.3169 H   0  0  0  0  0  0  0  0  0  0  0  0
  140.0283   67.0700  227.5346 H   0  0  0  0  0  0  0  0  0  0  0  0
  141.1523   68.2613  229.3965 H   0  0  0  0  0  0  0  0  0  0  0  0
  141.6083   70.7083  229.1601 H   0  0  0  0  0  0  0  0  0  0  0  0
  140.9423   71.9099  227.1107 H   0  0  0  0  0  0  0  0  0  0  0  0
  1  2  2  0
  2  3  1  0
  3  4  1  0
  4  5  1  0
  5  6  2  0
  5  7  1  0
  7  8  1  0
  8  9  1  0
  9 10  1  0
 10 11  1  0
 11 12  1  0
 12 13  2  0
 13 14  1  0
 14 15  2  0
 15 16  1  0
 16 17  1  0
 16 18  1  0
 16 19  1  0
 15 20  1  0
 20 21  2  0
  2 22  1  0
 22 23  2  0
 23 24  1  0
 24 25  2  0
 25 26  1  0
 26 27  2  0
 27 28  1  0
 28 29  2  0
 29 30  1  0
 30 31  2  0
 11  7  1  0
 21 12  1  0
 31 22  1  0
 30 25  1  0
  3 32  1  0
  4 33  1  0
  4 34  1  0
  8 35  1  0
  8 36  1  0
  9 37  1  0
  9 38  1  0
 10 39  1  0
 10 40  1  0
 11 41  1  6
 13 42  1  0
 14 43  1  0
 20 44  1  0
 21 45  1  0
 23 46  1  0
 24 47  1  0
 26 48  1  0
 27 49  1  0
 28 50  1  0
 29 51  1  0
M  END
>  <smiles>  (23) 
O=C(NCC(=O)N1CCCC1c1ccc(C(F)(F)F)cc1)c1ccc2ccccc2n1

>  <score_type>  (23) 
oracle

>  <origin>  (23) 
autodockgpu

>  <m_score__min__energy>  (23) 
-8.4199999999999999

>  <m_primary>  (23) 
energy

>  <rmsd>  (23) 
1.2440071917258035

>  <m_score__min__rmsd>  (23) 
1.2440071917258035

>  <meeko>  (23) 
{"free_energy": -7.75, "intermolecular_energy": -9.54, "internal_energy": -2.11, "cluster_size": 14, "cluster_id": 1, "rank_in_cluster": 11}

>  <energy>  (23) 
-7.98

>  <cluster_rmsd>  (23) 
0.0

>  <cluster>  (23) 
4

$$$$

     RDKit          3D

 51 54  0  0  0  0  0  0  0  0999 V2000
  137.3310   76.5480  221.6860 O   0  0  0  0  0  0  0  0  0  0  0  0
  138.4830   76.4700  222.1910 C   0  0  0  0  0  0  0  0  0  0  0  0
  139.1740   75.2460  222.3630 N   0  0  0  0  0  0  0  0  0  0  0  0
  138.5830   73.9840  221.9580 C   0  0  0  0  0  0  0  0  0  0  0  0
  139.6740   72.9390  221.9530 C   0  0  0  0  0  0  0  0  0  0  0  0
  140.8190   73.3620  222.2140 O   0  0  0  0  0  0  0  0  0  0  0  0
  139.3250   71.6100  221.6630 N   0  0  0  0  0  0  0  0  0  0  0  0
  138.8800   71.1170  220.3330 C   0  0  0  0  0  0  0  0  0  0  0  0
  137.9390   69.9700  220.6350 C   0  0  0  0  0  0  0  0  0  0  0  0
  137.8570   69.9770  222.1670 C   0  0  0  0  0  0  0  0  0  0  0  0
  139.2730   70.4130  222.4680 C   0  0  2  0  0  0  0  0  0  0  0  0
  139.6390   70.5070  223.8540 C   0  0  0  0  0  0  0  0  0  0  0  0
  138.9620   69.8020  224.8200 C   0  0  0  0  0  0  0  0  0  0  0  0
  139.3040   69.8590  226.1480 C   0  0  0  0  0  0  0  0  0  0  0  0
  140.3460   70.6280  226.5740 C   0  0  0  0  0  0  0  0  0  0  0  0
  140.7530   70.7210  228.0020 C   0  0  0  0  0  0  0  0  0  0  0  0
  141.4410   69.6030  228.4050 F   0  0  0  0  0  0  0  0  0  0  0  0
  139.5870   70.8360  228.7530 F   0  0  0  0  0  0  0  0  0  0  0  0
  141.4750   71.8920  228.2210 F   0  0  0  0  0  0  0  0  0  0  0  0
  141.0450   71.3490  225.6130 C   0  0  0  0  0  0  0  0  0  0  0  0
  140.6930   71.2890  224.2650 C   0  0  0  0  0  0  0  0  0  0  0  0
  139.1380   77.7080  222.6220 C   0  0  0  0  0  0  0  0  0  0  0  0
  138.3830   78.8110  223.0100 C   0  0  0  0  0  0  0  0  0  0  0  0
  138.9680   79.9900  223.4200 C   0  0  0  0  0  0  0  0  0  0  0  0
  140.3410   80.1080  223.4580 C   0  0  0  0  0  0  0  0  0  0  0  0
  140.9690   81.2650  223.8610 C   0  0  0  0  0  0  0  0  0  0  0  0
  142.3440   81.3720  223.8940 C   0  0  0  0  0  0  0  0  0  0  0  0
  143.0960   80.2690  223.5070 C   0  0  0  0  0  0  0  0  0  0  0  0
  142.4740   79.1010  223.1000 C   0  0  0  0  0  0  0  0  0  0  0  0
  141.0810   78.9900  223.0650 C   0  0  0  0  0  0  0  0  0  0  0  0
  140.4750   77.8460  222.6660 N   0  0  0  0  0  0  0  0  0  0  0  0
  140.1390   75.2560  222.7950 H   0  0  0  0  0  0  0  0  0  0  0  0
  137.7936   73.6964  222.6680 H   0  0  0  0  0  0  0  0  0  0  0  0
  138.1357   74.0748  220.9572 H   0  0  0  0  0  0  0  0  0  0  0  0
  138.3563   71.9117  219.7815 H   0  0  0  0  0  0  0  0  0  0  0  0
  139.7263   70.8026  219.7046 H   0  0  0  0  0  0  0  0  0  0  0  0
  136.9497   70.1430  220.1864 H   0  0  0  0  0  0  0  0  0  0  0  0
  138.2852   69.0093  220.2262 H   0  0  0  0  0  0  0  0  0  0  0  0
  137.1140   70.6980  222.5386 H   0  0  0  0  0  0  0  0  0  0  0  0
  137.5404   69.0316  222.6317 H   0  0  0  0  0  0  0  0  0  0  0  0
  140.0537   69.6800  222.2165 H   0  0  0  0  0  0  0  0  0  0  0  0
  138.1149   69.1687  224.5178 H   0  0  0  0  0  0  0  0  0  0  0  0
  138.7279   69.2746  226.8806 H   0  0  0  0  0  0  0  0  0  0  0  0
  141.8922   71.9791  225.9218 H   0  0  0  0  0  0  0  0  0  0  0  0
  141.2622   71.8711  223.5254 H   0  0  0  0  0  0  0  0  0  0  0  0
  137.2855   78.7397  222.9888 H   0  0  0  0  0  0  0  0  0  0  0  0
  138.3367   80.8401  223.7181 H   0  0  0  0  0  0  0  0  0  0  0  0
  140.3578   82.1276  224.1649 H   0  0  0  0  0  0  0  0  0  0  0  0
  142.8313   82.3036  224.2174 H   0  0  0  0  0  0  0  0  0  0  0  0
  144.1945   80.3245  223.5242 H   0  0  0  0  0  0  0  0  0  0  0  0
  143.0897   78.2412  222.7974 H   0  0  0  0  0  0  0  0  0  0  0  0
  1  2  2  0
  2  3  1  0
  3  4  1  0
  4  5  1  0
  5  6  2  0
  5  7  1  0
  7  8  1  0
  8  9  1  0
  9 10  1  0
 10 11  1  0
 11 12  1  0
 12 13  2  0
 13 14  1  0
 14 15  2  0
 15 16  1  0
 16 17  1  0
 16 18  1  0
 16 19  1  0
 15 20  1  0
 20 21  2  0
  2 22  1  0
 22 23  2  0
 23 24  1  0
 24 25  2  0
 25 26  1  0
 26 27  2  0
 27 28  1  0
 28 29  2  0
 29 30  1  0
 30 31  2  0
 11  7  1  0
 21 12  1  0
 31 22  1  0
 30 25  1  0
  3 32  1  0
  4 33  1  0
  4 34  1  0
  8 35  1  0
  8 36  1  0
  9 37  1  0
  9 38  1  0
 10 39  1  0
 10 40  1  0
 11 41  1  6
 13 42  1  0
 14 43  1  0
 20 44  1  0
 21 45  1  0
 23 46  1  0
 24 47  1  0
 26 48  1  0
 27 49  1  0
 28 50  1  0
 29 51  1  0
M  END
>  <smiles>  (24) 
O=C(NCC(=O)N1CCCC1c1ccc(C(F)(F)F)cc1)c1ccc2ccccc2n1

>  <score_type>  (24) 
oracle

>  <origin>  (24) 
autodockgpu

>  <m_score__min__energy>  (24) 
-8.4199999999999999

>  <m_primary>  (24) 
energy

>  <rmsd>  (24) 
8.188646548861636

>  <m_score__min__rmsd>  (24) 
8.188646548861636

>  <meeko>  (24) 
{"free_energy": -7.95, "intermolecular_energy": -9.74, "internal_energy": -1.94, "cluster_size": 7, "cluster_id": 2, "rank_in_cluster": 7}

>  <energy>  (24) 
-7.95

>  <cluster_rmsd>  (24) 
1.75

>  <cluster>  (24) 
4

$$$$

     RDKit          3D

 51 54  0  0  0  0  0  0  0  0999 V2000
  139.0750   70.6970  221.4170 O   0  0  0  0  0  0  0  0  0  0  0  0
  139.6660   71.2930  222.3570 C   0  0  0  0  0  0  0  0  0  0  0  0
  140.2630   72.5700  222.2130 N   0  0  0  0  0  0  0  0  0  0  0  0
  140.2270   73.2790  220.9480 C   0  0  0  0  0  0  0  0  0  0  0  0
  140.7880   74.6630  221.1730 C   0  0  0  0  0  0  0  0  0  0  0  0
  140.7140   75.0840  222.3460 O   0  0  0  0  0  0  0  0  0  0  0  0
  141.3360   75.3490  220.0770 N   0  0  0  0  0  0  0  0  0  0  0  0
  141.9360   74.7020  218.8810 C   0  0  0  0  0  0  0  0  0  0  0  0
  143.0020   75.6660  218.4070 C   0  0  0  0  0  0  0  0  0  0  0  0
  142.9760   76.7710  219.4720 C   0  0  0  0  0  0  0  0  0  0  0  0
  141.4960   76.7530  219.7800 C   0  0  2  0  0  0  0  0  0  0  0  0
  141.0240   77.7110  220.7420 C   0  0  0  0  0  0  0  0  0  0  0  0
  139.6920   77.8010  221.0640 C   0  0  0  0  0  0  0  0  0  0  0  0
  139.2190   78.6930  221.9940 C   0  0  0  0  0  0  0  0  0  0  0  0
  140.0620   79.5420  222.6480 C   0  0  0  0  0  0  0  0  0  0  0  0
  139.5950   80.5250  223.6620 C   0  0  0  0  0  0  0  0  0  0  0  0
  138.8230   79.9270  224.6270 F   0  0  0  0  0  0  0  0  0  0  0  0
  138.8320   81.4750  222.9890 F   0  0  0  0  0  0  0  0  0  0  0  0
  140.6810   81.2090  224.2040 F   0  0  0  0  0  0  0  0  0  0  0  0
  141.4140   79.4670  222.3360 C   0  0  0  0  0  0  0  0  0  0  0  0
  141.8910   78.5590  221.3910 C   0  0  0  0  0  0  0  0  0  0  0  0
  139.7380   70.6320  223.6630 C   0  0  0  0  0  0  0  0  0  0  0  0
  139.2430   69.3430  223.8330 C   0  0  0  0  0  0  0  0  0  0  0  0
  139.2950   68.6940  225.0480 C   0  0  0  0  0  0  0  0  0  0  0  0
  139.8520   69.3160  226.1450 C   0  0  0  0  0  0  0  0  0  0  0  0
  139.9260   68.7060  227.3770 C   0  0  0  0  0  0  0  0  0  0  0  0
  140.4850   69.3390  228.4680 C   0  0  0  0  0  0  0  0  0  0  0  0
  140.9800   70.6260  228.2960 C   0  0  0  0  0  0  0  0  0  0  0  0
  140.9090   71.2480  227.0610 C   0  0  0  0  0  0  0  0  0  0  0  0
  140.3440   70.6100  225.9540 C   0  0  0  0  0  0  0  0  0  0  0  0
  140.2760   71.2200  224.7470 N   0  0  0  0  0  0  0  0  0  0  0  0
  140.7430   73.0100  223.0450 H   0  0  0  0  0  0  0  0  0  0  0  0
  140.8364   72.7456  220.2036 H   0  0  0  0  0  0  0  0  0  0  0  0
  139.1945   73.3412  220.5739 H   0  0  0  0  0  0  0  0  0  0  0  0
  142.3826   73.7331  219.1488 H   0  0  0  0  0  0  0  0  0  0  0  0
  141.1867   74.4990  218.1017 H   0  0  0  0  0  0  0  0  0  0  0  0
  143.9869   75.1775  218.3697 H   0  0  0  0  0  0  0  0  0  0  0  0
  142.8201   76.0435  217.3899 H   0  0  0  0  0  0  0  0  0  0  0  0
  143.5851   76.5135  220.3510 H   0  0  0  0  0  0  0  0  0  0  0  0
  143.3868   77.7429  219.1611 H   0  0  0  0  0  0  0  0  0  0  0  0
  140.8436   77.1082  218.9687 H   0  0  0  0  0  0  0  0  0  0  0  0
  138.9782   77.1341  220.5583 H   0  0  0  0  0  0  0  0  0  0  0  0
  138.1419   78.7234  222.2153 H   0  0  0  0  0  0  0  0  0  0  0  0
  142.1224   80.1374  222.8447 H   0  0  0  0  0  0  0  0  0  0  0  0
  142.9665   78.5208  221.1634 H   0  0  0  0  0  0  0  0  0  0  0  0
  138.7963   68.8257  222.9711 H   0  0  0  0  0  0  0  0  0  0  0  0
  138.8904   67.6755  225.1427 H   0  0  0  0  0  0  0  0  0  0  0  0
  139.5289   67.6869  227.4946 H   0  0  0  0  0  0  0  0  0  0  0  0
  140.5374   68.8390  229.4464 H   0  0  0  0  0  0  0  0  0  0  0  0
  141.4320   71.1550  229.1480 H   0  0  0  0  0  0  0  0  0  0  0  0
  141.3064   72.2675  226.9490 H   0  0  0  0  0  0  0  0  0  0  0  0
  1  2  2  0
  2  3  1  0
  3  4  1  0
  4  5  1  0
  5  6  2  0
  5  7  1  0
  7  8  1  0
  8  9  1  0
  9 10  1  0
 10 11  1  0
 11 12  1  0
 12 13  2  0
 13 14  1  0
 14 15  2  0
 15 16  1  0
 16 17  1  0
 16 18  1  0
 16 19  1  0
 15 20  1  0
 20 21  2  0
  2 22  1  0
 22 23  2  0
 23 24  1  0
 24 25  2  0
 25 26  1  0
 26 27  2  0
 27 28  1  0
 28 29  2  0
 29 30  1  0
 30 31  2  0
 11  7  1  0
 21 12  1  0
 31 22  1  0
 30 25  1  0
  3 32  1  0
  4 33  1  0
  4 34  1  0
  8 35  1  0
  8 36  1  0
  9 37  1  0
  9 38  1  0
 10 39  1  0
 10 40  1  0
 11 41  1  6
 13 42  1  0
 14 43  1  0
 20 44  1  0
 21 45  1  0
 23 46  1  0
 24 47  1  0
 26 48  1  0
 27 49  1  0
 28 50  1  0
 29 51  1  0
M  END
>  <smiles>  (25) 
O=C(NCC(=O)N1CCCC1c1ccc(C(F)(F)F)cc1)c1ccc2ccccc2n1

>  <score_type>  (25) 
oracle

>  <origin>  (25) 
autodockgpu

>  <m_score__min__energy>  (25) 
-8.4199999999999999

>  <m_primary>  (25) 
energy

>  <rmsd>  (25) 
1.8212881270659385

>  <m_score__min__rmsd>  (25) 
1.8212881270659385

>  <meeko>  (25) 
{"free_energy": -7.55, "intermolecular_energy": -9.34, "internal_energy": -2.15, "cluster_size": 14, "cluster_id": 1, "rank_in_cluster": 14}

>  <energy>  (25) 
-7.94

>  <cluster_rmsd>  (25) 
1.79

>  <cluster>  (25) 
4

$$$$

     RDKit          3D

 51 54  0  0  0  0  0  0  0  0999 V2000
  137.1950   76.4080  222.0520 O   0  0  0  0  0  0  0  0  0  0  0  0
  138.4210   76.3830  222.3430 C   0  0  0  0  0  0  0  0  0  0  0  0
  139.1990   75.1990  222.3250 N   0  0  0  0  0  0  0  0  0  0  0  0
  138.6170   73.9210  221.9620 C   0  0  0  0  0  0  0  0  0  0  0  0
  139.7210   72.8920  221.9520 C   0  0  0  0  0  0  0  0  0  0  0  0
  140.8710   73.3410  222.1360 O   0  0  0  0  0  0  0  0  0  0  0  0
  139.3800   71.5460  221.7430 N   0  0  0  0  0  0  0  0  0  0  0  0
  138.9120   70.9770  220.4510 C   0  0  0  0  0  0  0  0  0  0  0  0
  137.9880   69.8410  220.8340 C   0  0  0  0  0  0  0  0  0  0  0  0
  137.9380   69.9300  222.3660 C   0  0  0  0  0  0  0  0  0  0  0  0
  139.3560   70.3940  222.6120 C   0  0  2  0  0  0  0  0  0  0  0  0
  139.7500   70.5660  223.9830 C   0  0  0  0  0  0  0  0  0  0  0  0
  140.7050   71.4870  224.3390 C   0  0  0  0  0  0  0  0  0  0  0  0
  141.0850   71.6860  225.6430 C   0  0  0  0  0  0  0  0  0  0  0  0
  140.5220   70.9690  226.6580 C   0  0  0  0  0  0  0  0  0  0  0  0
  140.9010   71.1490  228.0850 C   0  0  0  0  0  0  0  0  0  0  0  0
  141.3820   69.9840  228.6310 F   0  0  0  0  0  0  0  0  0  0  0  0
  139.7510   71.5320  228.7680 F   0  0  0  0  0  0  0  0  0  0  0  0
  141.8020   72.2040  228.2140 F   0  0  0  0  0  0  0  0  0  0  0  0
  139.5520   70.0330  226.3190 C   0  0  0  0  0  0  0  0  0  0  0  0
  139.1700   69.8340  224.9920 C   0  0  0  0  0  0  0  0  0  0  0  0
  139.0730   77.6410  222.7190 C   0  0  0  0  0  0  0  0  0  0  0  0
  138.3150   78.7510  223.0800 C   0  0  0  0  0  0  0  0  0  0  0  0
  138.8970   79.9480  223.4380 C   0  0  0  0  0  0  0  0  0  0  0  0
  140.2690   80.0780  223.4490 C   0  0  0  0  0  0  0  0  0  0  0  0
  140.8930   81.2540  223.8010 C   0  0  0  0  0  0  0  0  0  0  0  0
  142.2670   81.3730  223.8070 C   0  0  0  0  0  0  0  0  0  0  0  0
  143.0230   80.2630  223.4470 C   0  0  0  0  0  0  0  0  0  0  0  0
  142.4040   79.0760  223.0920 C   0  0  0  0  0  0  0  0  0  0  0  0
  141.0120   78.9520  223.0840 C   0  0  0  0  0  0  0  0  0  0  0  0
  140.4100   77.7910  222.7360 N   0  0  0  0  0  0  0  0  0  0  0  0
  140.2230   75.2520  222.5820 H   0  0  0  0  0  0  0  0  0  0  0  0
  137.8495   73.6379  222.6974 H   0  0  0  0  0  0  0  0  0  0  0  0
  138.1443   73.9840  220.9708 H   0  0  0  0  0  0  0  0  0  0  0  0
  138.3700   71.7362  219.8681 H   0  0  0  0  0  0  0  0  0  0  0  0
  139.7482   70.6352  219.8234 H   0  0  0  0  0  0  0  0  0  0  0  0
  136.9880   69.9819  220.3979 H   0  0  0  0  0  0  0  0  0  0  0  0
  138.3341   68.8623  220.4700 H   0  0  0  0  0  0  0  0  0  0  0  0
  137.1959   70.6635  222.7142 H   0  0  0  0  0  0  0  0  0  0  0  0
  137.6404   69.0085  222.8878 H   0  0  0  0  0  0  0  0  0  0  0  0
  140.1381   69.6552  222.3830 H   0  0  0  0  0  0  0  0  0  0  0  0
  141.1827   72.0869  223.5504 H   0  0  0  0  0  0  0  0  0  0  0  0
  141.8561   72.4359  225.8733 H   0  0  0  0  0  0  0  0  0  0  0  0
  139.0763   69.4376  227.1123 H   0  0  0  0  0  0  0  0  0  0  0  0
  138.3997   69.0865  224.7514 H   0  0  0  0  0  0  0  0  0  0  0  0
  137.2179   78.6705  223.0796 H   0  0  0  0  0  0  0  0  0  0  0  0
  138.2637   80.8033  223.7162 H   0  0  0  0  0  0  0  0  0  0  0  0
  140.2792   82.1216  224.0849 H   0  0  0  0  0  0  0  0  0  0  0  0
  142.7513   82.3196  224.0887 H   0  0  0  0  0  0  0  0  0  0  0  0
  144.1211   80.3281  223.4441 H   0  0  0  0  0  0  0  0  0  0  0  0
  143.0222   78.2110  222.8099 H   0  0  0  0  0  0  0  0  0  0  0  0
  1  2  2  0
  2  3  1  0
  3  4  1  0
  4  5  1  0
  5  6  2  0
  5  7  1  0
  7  8  1  0
  8  9  1  0
  9 10  1  0
 10 11  1  0
 11 12  1  0
 12 13  2  0
 13 14  1  0
 14 15  2  0
 15 16  1  0
 16 17  1  0
 16 18  1  0
 16 19  1  0
 15 20  1  0
 20 21  2  0
  2 22  1  0
 22 23  2  0
 23 24  1  0
 24 25  2  0
 25 26  1  0
 26 27  2  0
 27 28  1  0
 28 29  2  0
 29 30  1  0
 30 31  2  0
 11  7  1  0
 21 12  1  0
 31 22  1  0
 30 25  1  0
  3 32  1  0
  4 33  1  0
  4 34  1  0
  8 35  1  0
  8 36  1  0
  9 37  1  0
  9 38  1  0
 10 39  1  0
 10 40  1  0
 11 41  1  6
 13 42  1  0
 14 43  1  0
 20 44  1  0
 21 45  1  0
 23 46  1  0
 24 47  1  0
 26 48  1  0
 27 49  1  0
 28 50  1  0
 29 51  1  0
M  END
>  <smiles>  (26) 
O=C(NCC(=O)N1CCCC1c1ccc(C(F)(F)F)cc1)c1ccc2ccccc2n1

>  <score_type>  (26) 
oracle

>  <origin>  (26) 
autodockgpu

>  <m_score__min__energy>  (26) 
-8.4199999999999999

>  <m_primary>  (26) 
energy

>  <rmsd>  (26) 
8.203691866915882

>  <m_score__min__rmsd>  (26) 
8.203691866915882

>  <meeko>  (26) 
{"free_energy": -8.09, "intermolecular_energy": -9.88, "internal_energy": -1.93, "cluster_size": 7, "cluster_id": 2, "rank_in_cluster": 5}

>  <energy>  (26) 
-7.93

>  <cluster_rmsd>  (26) 
1.77

>  <cluster>  (26) 
4

$$$$

     RDKit          3D

 51 54  0  0  0  0  0  0  0  0999 V2000
  141.2210   71.6640  221.4080 O   0  0  0  0  0  0  0  0  0  0  0  0
  140.5910   72.2320  222.3400 C   0  0  0  0  0  0  0  0  0  0  0  0
  140.1390   73.5730  222.2660 N   0  0  0  0  0  0  0  0  0  0  0  0
  140.3800   74.3850  221.0890 C   0  0  0  0  0  0  0  0  0  0  0  0
  140.7300   75.7800  221.5480 C   0  0  0  0  0  0  0  0  0  0  0  0
  140.3010   76.0930  222.6780 O   0  0  0  0  0  0  0  0  0  0  0  0
  141.4890   76.5960  220.6930 N   0  0  0  0  0  0  0  0  0  0  0  0
  141.2860   78.0570  220.5080 C   0  0  0  0  0  0  0  0  0  0  0  0
  141.7070   78.3340  219.0810 C   0  0  0  0  0  0  0  0  0  0  0  0
  142.0320   76.9370  218.5330 C   0  0  0  0  0  0  0  0  0  0  0  0
  142.5880   76.3220  219.7980 C   0  0  2  0  0  0  0  0  0  0  0  0
  143.0690   74.9720  219.7020 C   0  0  0  0  0  0  0  0  0  0  0  0
  142.5400   74.0900  218.7900 C   0  0  0  0  0  0  0  0  0  0  0  0
  142.9950   72.8010  218.6640 C   0  0  0  0  0  0  0  0  0  0  0  0
  144.0060   72.3320  219.4500 C   0  0  0  0  0  0  0  0  0  0  0  0
  144.5320   70.9430  219.3500 C   0  0  0  0  0  0  0  0  0  0  0  0
  144.1080   70.3250  218.1990 F   0  0  0  0  0  0  0  0  0  0  0  0
  144.0470   70.2420  220.4500 F   0  0  0  0  0  0  0  0  0  0  0  0
  145.9200   70.9440  219.4690 F   0  0  0  0  0  0  0  0  0  0  0  0
  144.5560   73.2080  220.3780 C   0  0  0  0  0  0  0  0  0  0  0  0
  144.0900   74.5160  220.5030 C   0  0  0  0  0  0  0  0  0  0  0  0
  140.3130   71.4680  223.5590 C   0  0  0  0  0  0  0  0  0  0  0  0
  139.6410   70.2510  223.4940 C   0  0  0  0  0  0  0  0  0  0  0  0
  139.3640   69.5080  224.6220 C   0  0  0  0  0  0  0  0  0  0  0  0
  139.7540   69.9590  225.8640 C   0  0  0  0  0  0  0  0  0  0  0  0
  139.5000   69.2500  227.0170 C   0  0  0  0  0  0  0  0  0  0  0  0
  139.8940   69.7120  228.2560 C   0  0  0  0  0  0  0  0  0  0  0  0
  140.5660   70.9270  228.3180 C   0  0  0  0  0  0  0  0  0  0  0  0
  140.8260   71.6480  227.1650 C   0  0  0  0  0  0  0  0  0  0  0  0
  140.4280   71.1830  225.9080 C   0  0  0  0  0  0  0  0  0  0  0  0
  140.6840   71.8890  224.7820 N   0  0  0  0  0  0  0  0  0  0  0  0
  139.6170   73.9860  223.0870 H   0  0  0  0  0  0  0  0  0  0  0  0
  141.2136   73.9629  220.5086 H   0  0  0  0  0  0  0  0  0  0  0  0
  139.4850   74.4064  220.4499 H   0  0  0  0  0  0  0  0  0  0  0  0
  140.2290   78.3224  220.6576 H   0  0  0  0  0  0  0  0  0  0  0  0
  141.8651   78.6493  221.2317 H   0  0  0  0  0  0  0  0  0  0  0  0
  140.8892   78.8004  218.5120 H   0  0  0  0  0  0  0  0  0  0  0  0
  142.5533   79.0330  219.0091 H   0  0  0  0  0  0  0  0  0  0  0  0
  141.1330   76.4120  218.1777 H   0  0  0  0  0  0  0  0  0  0  0  0
  142.6973   76.9109  217.6574 H   0  0  0  0  0  0  0  0  0  0  0  0
  143.5475   76.7370  220.1403 H   0  0  0  0  0  0  0  0  0  0  0  0
  141.7222   74.4295  218.1373 H   0  0  0  0  0  0  0  0  0  0  0  0
  142.5369   72.1358  217.9172 H   0  0  0  0  0  0  0  0  0  0  0  0
  145.3748   72.8628  221.0264 H   0  0  0  0  0  0  0  0  0  0  0  0
  144.5420   75.1880  221.2474 H   0  0  0  0  0  0  0  0  0  0  0  0
  139.3211   69.8702  222.5128 H   0  0  0  0  0  0  0  0  0  0  0  0
  138.8293   68.5511  224.5298 H   0  0  0  0  0  0  0  0  0  0  0  0
  138.9686   68.2893  226.9483 H   0  0  0  0  0  0  0  0  0  0  0  0
  139.6823   69.1353  229.1685 H   0  0  0  0  0  0  0  0  0  0  0  0
  140.8942   71.3193  229.2918 H   0  0  0  0  0  0  0  0  0  0  0  0
  141.3576   72.6081  227.2396 H   0  0  0  0  0  0  0  0  0  0  0  0
  1  2  2  0
  2  3  1  0
  3  4  1  0
  4  5  1  0
  5  6  2  0
  5  7  1  0
  7  8  1  0
  8  9  1  0
  9 10  1  0
 10 11  1  0
 11 12  1  0
 12 13  2  0
 13 14  1  0
 14 15  2  0
 15 16  1  0
 16 17  1  0
 16 18  1  0
 16 19  1  0
 15 20  1  0
 20 21  2  0
  2 22  1  0
 22 23  2  0
 23 24  1  0
 24 25  2  0
 25 26  1  0
 26 27  2  0
 27 28  1  0
 28 29  2  0
 29 30  1  0
 30 31  2  0
 11  7  1  0
 21 12  1  0
 31 22  1  0
 30 25  1  0
  3 32  1  0
  4 33  1  0
  4 34  1  0
  8 35  1  0
  8 36  1  0
  9 37  1  0
  9 38  1  0
 10 39  1  0
 10 40  1  0
 11 41  1  1
 13 42  1  0
 14 43  1  0
 20 44  1  0
 21 45  1  0
 23 46  1  0
 24 47  1  0
 26 48  1  0
 27 49  1  0
 28 50  1  0
 29 51  1  0
M  END
>  <smiles>  (27) 
O=C(NCC(=O)N1CCCC1c1ccc(C(F)(F)F)cc1)c1ccc2ccccc2n1

>  <score_type>  (27) 
oracle

>  <origin>  (27) 
autodockgpu

>  <m_score__min__energy>  (27) 
-8.4199999999999999

>  <m_primary>  (27) 
energy

>  <rmsd>  (27) 
2.2446880339592044

>  <m_score__min__rmsd>  (27) 
2.2446880339592044

>  <meeko>  (27) 
{"free_energy": -7.89, "intermolecular_energy": -9.68, "internal_energy": -2.26, "cluster_size": 19, "cluster_id": 4, "rank_in_cluster": 9}

>  <energy>  (27) 
-7.92

>  <cluster_rmsd>  (27) 
1.73

>  <cluster>  (27) 
4

$$$$

     RDKit          3D

 51 54  0  0  0  0  0  0  0  0999 V2000
  141.6990   78.1140  217.7950 O   0  0  0  0  0  0  0  0  0  0  0  0
  142.0810   77.8970  218.9760 C   0  0  0  0  0  0  0  0  0  0  0  0
  142.1860   78.9140  219.9570 N   0  0  0  0  0  0  0  0  0  0  0  0
  141.8500   80.2910  219.6520 C   0  0  0  0  0  0  0  0  0  0  0  0
  140.7770   80.7340  220.6180 C   0  0  0  0  0  0  0  0  0  0  0  0
  139.6900   81.0570  220.0970 O   0  0  0  0  0  0  0  0  0  0  0  0
  141.0760   80.7490  221.9900 N   0  0  0  0  0  0  0  0  0  0  0  0
  141.6940   81.8910  222.7150 C   0  0  0  0  0  0  0  0  0  0  0  0
  142.4940   81.2590  223.8330 C   0  0  0  0  0  0  0  0  0  0  0  0
  142.3320   79.7550  223.5760 C   0  0  0  0  0  0  0  0  0  0  0  0
  140.9180   79.7690  223.0380 C   0  0  2  0  0  0  0  0  0  0  0  0
  140.3430   78.4960  222.7000 C   0  0  0  0  0  0  0  0  0  0  0  0
  139.0100   78.3760  222.3920 C   0  0  0  0  0  0  0  0  0  0  0  0
  138.4400   77.1760  222.0460 C   0  0  0  0  0  0  0  0  0  0  0  0
  139.1830   76.0340  221.9920 C   0  0  0  0  0  0  0  0  0  0  0  0
  138.6100   74.7110  221.6230 C   0  0  0  0  0  0  0  0  0  0  0  0
  139.4180   73.6790  222.0310 F   0  0  0  0  0  0  0  0  0  0  0  0
  138.5020   74.6850  220.2360 F   0  0  0  0  0  0  0  0  0  0  0  0
  137.3130   74.5940  222.1180 F   0  0  0  0  0  0  0  0  0  0  0  0
  140.5340   76.1340  222.3000 C   0  0  0  0  0  0  0  0  0  0  0  0
  141.1090   77.3550  222.6510 C   0  0  0  0  0  0  0  0  0  0  0  0
  142.4360   76.5250  219.3510 C   0  0  0  0  0  0  0  0  0  0  0  0
  141.4790   75.5150  219.3260 C   0  0  0  0  0  0  0  0  0  0  0  0
  141.7800   74.2150  219.6730 C   0  0  0  0  0  0  0  0  0  0  0  0
  143.0590   73.8770  220.0610 C   0  0  0  0  0  0  0  0  0  0  0  0
  143.4040   72.5920  220.4150 C   0  0  0  0  0  0  0  0  0  0  0  0
  144.6880   72.2660  220.8020 C   0  0  0  0  0  0  0  0  0  0  0  0
  145.6410   73.2770  220.8260 C   0  0  0  0  0  0  0  0  0  0  0  0
  145.3040   74.5720  220.4710 C   0  0  0  0  0  0  0  0  0  0  0  0
  144.0040   74.9060  220.0790 C   0  0  0  0  0  0  0  0  0  0  0  0
  143.6760   76.1730  219.7330 N   0  0  0  0  0  0  0  0  0  0  0  0
  142.5150   78.6590  220.9290 H   0  0  0  0  0  0  0  0  0  0  0  0
  142.7405   80.9267  219.7659 H   0  0  0  0  0  0  0  0  0  0  0  0
  141.4906   80.3764  218.6159 H   0  0  0  0  0  0  0  0  0  0  0  0
  142.3519   82.4637  222.0449 H   0  0  0  0  0  0  0  0  0  0  0  0
  140.9397   82.5961  223.0944 H   0  0  0  0  0  0  0  0  0  0  0  0
  143.5516   81.5566  223.7778 H   0  0  0  0  0  0  0  0  0  0  0  0
  142.1521   81.5642  224.8329 H   0  0  0  0  0  0  0  0  0  0  0  0
  143.0536   79.3814  222.8346 H   0  0  0  0  0  0  0  0  0  0  0  0
  142.5061   79.1013  224.4434 H   0  0  0  0  0  0  0  0  0  0  0  0
  140.1396   80.0302  223.7700 H   0  0  0  0  0  0  0  0  0  0  0  0
  138.3759   79.2743  222.4237 H   0  0  0  0  0  0  0  0  0  0  0  0
  137.3667   77.1351  221.8085 H   0  0  0  0  0  0  0  0  0  0  0  0
  141.1627   75.2320  222.2663 H   0  0  0  0  0  0  0  0  0  0  0  0
  142.1815   77.4057  222.8901 H   0  0  0  0  0  0  0  0  0  0  0  0
  140.4515   75.7612  219.0202 H   0  0  0  0  0  0  0  0  0  0  0  0
  140.9961   73.4440  219.6401 H   0  0  0  0  0  0  0  0  0  0  0  0
  142.6363   71.8047  220.3887 H   0  0  0  0  0  0  0  0  0  0  0  0
  144.9495   71.2353  221.0834 H   0  0  0  0  0  0  0  0  0  0  0  0
  146.6727   73.0462  221.1299 H   0  0  0  0  0  0  0  0  0  0  0  0
  146.0758   75.3553  220.4979 H   0  0  0  0  0  0  0  0  0  0  0  0
  1  2  2  0
  2  3  1  0
  3  4  1  0
  4  5  1  0
  5  6  2  0
  5  7  1  0
  7  8  1  0
  8  9  1  0
  9 10  1  0
 10 11  1  0
 11 12  1  0
 12 13  2  0
 13 14  1  0
 14 15  2  0
 15 16  1  0
 16 17  1  0
 16 18  1  0
 16 19  1  0
 15 20  1  0
 20 21  2  0
  2 22  1  0
 22 23  2  0
 23 24  1  0
 24 25  2  0
 25 26  1  0
 26 27  2  0
 27 28  1  0
 28 29  2  0
 29 30  1  0
 30 31  2  0
 11  7  1  0
 21 12  1  0
 31 22  1  0
 30 25  1  0
  3 32  1  0
  4 33  1  0
  4 34  1  0
  8 35  1  0
  8 36  1  0
  9 37  1  0
  9 38  1  0
 10 39  1  0
 10 40  1  0
 11 41  1  1
 13 42  1  0
 14 43  1  0
 20 44  1  0
 21 45  1  0
 23 46  1  0
 24 47  1  0
 26 48  1  0
 27 49  1  0
 28 50  1  0
 29 51  1  0
M  END
>  <smiles>  (28) 
O=C(NCC(=O)N1CCCC1c1ccc(C(F)(F)F)cc1)c1ccc2ccccc2n1

>  <score_type>  (28) 
oracle

>  <origin>  (28) 
autodockgpu

>  <m_score__min__energy>  (28) 
-8.4199999999999999

>  <m_primary>  (28) 
energy

>  <rmsd>  (28) 
7.724723449764763

>  <m_score__min__rmsd>  (28) 
7.724723449764763

>  <meeko>  (28) 
{"free_energy": -6.84, "intermolecular_energy": -8.63, "internal_energy": -2.6, "cluster_size": 2, "cluster_id": 8, "rank_in_cluster": 1}

>  <energy>  (28) 
-7.9

>  <cluster_rmsd>  (28) 
1.79

>  <cluster>  (28) 
4

$$$$

     RDKit          3D

 51 54  0  0  0  0  0  0  0  0999 V2000
  141.2500   71.6690  221.4170 O   0  0  0  0  0  0  0  0  0  0  0  0
  140.6180   72.2360  222.3480 C   0  0  0  0  0  0  0  0  0  0  0  0
  140.1650   73.5770  222.2740 N   0  0  0  0  0  0  0  0  0  0  0  0
  140.4080   74.3890  221.0970 C   0  0  0  0  0  0  0  0  0  0  0  0
  140.7570   75.7840  221.5580 C   0  0  0  0  0  0  0  0  0  0  0  0
  140.3270   76.0960  222.6880 O   0  0  0  0  0  0  0  0  0  0  0  0
  141.5170   76.6000  220.7050 N   0  0  0  0  0  0  0  0  0  0  0  0
  141.3050   78.0590  220.5090 C   0  0  0  0  0  0  0  0  0  0  0  0
  141.7350   78.3300  219.0840 C   0  0  0  0  0  0  0  0  0  0  0  0
  142.0760   76.9330  218.5470 C   0  0  0  0  0  0  0  0  0  0  0  0
  142.6250   76.3300  219.8200 C   0  0  2  0  0  0  0  0  0  0  0  0
  143.1170   74.9820  219.7360 C   0  0  0  0  0  0  0  0  0  0  0  0
  142.5550   74.0710  218.8750 C   0  0  0  0  0  0  0  0  0  0  0  0
  143.0190   72.7840  218.7610 C   0  0  0  0  0  0  0  0  0  0  0  0
  144.0730   72.3470  219.5080 C   0  0  0  0  0  0  0  0  0  0  0  0
  144.6100   70.9620  219.4190 C   0  0  0  0  0  0  0  0  0  0  0  0
  144.0710   70.1490  220.3860 F   0  0  0  0  0  0  0  0  0  0  0  0
  145.9860   71.0440  219.6060 F   0  0  0  0  0  0  0  0  0  0  0  0
  144.4190   70.4540  218.1360 F   0  0  0  0  0  0  0  0  0  0  0  0
  144.6560   73.2530  220.3850 C   0  0  0  0  0  0  0  0  0  0  0  0
  144.1810   74.5600  220.4980 C   0  0  0  0  0  0  0  0  0  0  0  0
  140.3380   71.4710  223.5660 C   0  0  0  0  0  0  0  0  0  0  0  0
  139.6520   70.2630  223.5010 C   0  0  0  0  0  0  0  0  0  0  0  0
  139.3730   69.5190  224.6280 C   0  0  0  0  0  0  0  0  0  0  0  0
  139.7750   69.9610  225.8700 C   0  0  0  0  0  0  0  0  0  0  0  0
  139.5190   69.2510  227.0220 C   0  0  0  0  0  0  0  0  0  0  0  0
  139.9260   69.7040  228.2590 C   0  0  0  0  0  0  0  0  0  0  0  0
  140.6120   70.9110  228.3220 C   0  0  0  0  0  0  0  0  0  0  0  0
  140.8740   71.6330  227.1690 C   0  0  0  0  0  0  0  0  0  0  0  0
  140.4630   71.1770  225.9140 C   0  0  0  0  0  0  0  0  0  0  0  0
  140.7210   71.8830  224.7880 N   0  0  0  0  0  0  0  0  0  0  0  0
  139.6410   73.9880  223.0940 H   0  0  0  0  0  0  0  0  0  0  0  0
  141.2428   73.9672  220.5180 H   0  0  0  0  0  0  0  0  0  0  0  0
  139.5146   74.4102  220.4556 H   0  0  0  0  0  0  0  0  0  0  0  0
  140.2450   78.3177  220.6487 H   0  0  0  0  0  0  0  0  0  0  0  0
  141.8743   78.6599  221.2334 H   0  0  0  0  0  0  0  0  0  0  0  0
  140.9179   78.7860  218.5057 H   0  0  0  0  0  0  0  0  0  0  0  0
  142.5763   79.0353  219.0147 H   0  0  0  0  0  0  0  0  0  0  0  0
  141.1846   76.3988  218.1865 H   0  0  0  0  0  0  0  0  0  0  0  0
  142.7495   76.9072  217.6776 H   0  0  0  0  0  0  0  0  0  0  0  0
  143.5781   76.7554  220.1674 H   0  0  0  0  0  0  0  0  0  0  0  0
  141.7024   74.3841  218.2545 H   0  0  0  0  0  0  0  0  0  0  0  0
  142.5327   72.0940  218.0557 H   0  0  0  0  0  0  0  0  0  0  0  0
  145.5087   72.9338  221.0023 H   0  0  0  0  0  0  0  0  0  0  0  0
  144.6606   75.2571  221.2009 H   0  0  0  0  0  0  0  0  0  0  0  0
  139.3218   69.8895  222.5204 H   0  0  0  0  0  0  0  0  0  0  0  0
  138.8272   68.5685  224.5353 H   0  0  0  0  0  0  0  0  0  0  0  0
  138.9754   68.2972  226.9534 H   0  0  0  0  0  0  0  0  0  0  0  0
  139.7136   69.1262  229.1706 H   0  0  0  0  0  0  0  0  0  0  0  0
  140.9497   71.2963  229.2954 H   0  0  0  0  0  0  0  0  0  0  0  0
  141.4176   72.5864  227.2433 H   0  0  0  0  0  0  0  0  0  0  0  0
  1  2  2  0
  2  3  1  0
  3  4  1  0
  4  5  1  0
  5  6  2  0
  5  7  1  0
  7  8  1  0
  8  9  1  0
  9 10  1  0
 10 11  1  0
 11 12  1  0
 12 13  2  0
 13 14  1  0
 14 15  2  0
 15 16  1  0
 16 17  1  0
 16 18  1  0
 16 19  1  0
 15 20  1  0
 20 21  2  0
  2 22  1  0
 22 23  2  0
 23 24  1  0
 24 25  2  0
 25 26  1  0
 26 27  2  0
 27 28  1  0
 28 29  2  0
 29 30  1  0
 30 31  2  0
 11  7  1  0
 21 12  1  0
 31 22  1  0
 30 25  1  0
  3 32  1  0
  4 33  1  0
  4 34  1  0
  8 35  1  0
  8 36  1  0
  9 37  1  0
  9 38  1  0
 10 39  1  0
 10 40  1  0
 11 41  1  1
 13 42  1  0
 14 43  1  0
 20 44  1  0
 21 45  1  0
 23 46  1  0
 24 47  1  0
 26 48  1  0
 27 49  1  0
 28 50  1  0
 29 51  1  0
M  END
>  <smiles>  (29) 
O=C(NCC(=O)N1CCCC1c1ccc(C(F)(F)F)cc1)c1ccc2ccccc2n1

>  <score_type>  (29) 
oracle

>  <origin>  (29) 
autodockgpu

>  <m_score__min__energy>  (29) 
-8.4199999999999999

>  <m_primary>  (29) 
energy

>  <rmsd>  (29) 
2.2584445595905045

>  <m_score__min__rmsd>  (29) 
2.2584445595905045

>  <meeko>  (29) 
{"free_energy": -7.93, "intermolecular_energy": -9.72, "internal_energy": -2.23, "cluster_size": 19, "cluster_id": 4, "rank_in_cluster": 4}

>  <energy>  (29) 
-7.9

>  <cluster_rmsd>  (29) 
1.81

>  <cluster>  (29) 
4

$$$$

     RDKit          3D

 51 54  0  0  0  0  0  0  0  0999 V2000
  141.0450   71.4970  221.3290 O   0  0  0  0  0  0  0  0  0  0  0  0
  140.3920   72.1140  222.2130 C   0  0  0  0  0  0  0  0  0  0  0  0
  139.8500   73.4080  222.0160 N   0  0  0  0  0  0  0  0  0  0  0  0
  140.0200   74.1120  220.7590 C   0  0  0  0  0  0  0  0  0  0  0  0
  138.9490   75.1730  220.6700 C   0  0  0  0  0  0  0  0  0  0  0  0
  138.8850   75.7770  219.5800 O   0  0  0  0  0  0  0  0  0  0  0  0
  138.1300   75.3920  221.7900 N   0  0  0  0  0  0  0  0  0  0  0  0
  136.9650   74.5510  222.1700 C   0  0  0  0  0  0  0  0  0  0  0  0
  136.0060   75.4970  222.8600 C   0  0  0  0  0  0  0  0  0  0  0  0
  136.6960   76.8610  222.7200 C   0  0  0  0  0  0  0  0  0  0  0  0
  138.1320   76.3990  222.8240 C   0  0  2  0  0  0  0  0  0  0  0  0
  139.1430   77.4190  222.7800 C   0  0  0  0  0  0  0  0  0  0  0  0
  138.8280   78.7430  222.9660 C   0  0  0  0  0  0  0  0  0  0  0  0
  139.7770   79.7350  222.9490 C   0  0  0  0  0  0  0  0  0  0  0  0
  141.0940   79.4450  222.7430 C   0  0  0  0  0  0  0  0  0  0  0  0
  142.1580   80.4860  222.7150 C   0  0  0  0  0  0  0  0  0  0  0  0
  143.4110   79.9280  222.7790 F   0  0  0  0  0  0  0  0  0  0  0  0
  141.9630   81.2990  223.8270 F   0  0  0  0  0  0  0  0  0  0  0  0
  142.0000   81.3050  221.6000 F   0  0  0  0  0  0  0  0  0  0  0  0
  141.4340   78.1110  222.5530 C   0  0  0  0  0  0  0  0  0  0  0  0
  140.4660   77.1080  222.5710 C   0  0  0  0  0  0  0  0  0  0  0  0
  140.1830   71.4590  223.5070 C   0  0  0  0  0  0  0  0  0  0  0  0
  139.4170   70.3010  223.5990 C   0  0  0  0  0  0  0  0  0  0  0  0
  139.2010   69.6610  224.8010 C   0  0  0  0  0  0  0  0  0  0  0  0
  139.7490   70.1620  225.9630 C   0  0  0  0  0  0  0  0  0  0  0  0
  139.5600   69.5560  227.1850 C   0  0  0  0  0  0  0  0  0  0  0  0
  140.1130   70.0660  228.3410 C   0  0  0  0  0  0  0  0  0  0  0  0
  140.8780   71.2220  228.2470 C   0  0  0  0  0  0  0  0  0  0  0  0
  141.0730   71.8390  227.0230 C   0  0  0  0  0  0  0  0  0  0  0  0
  140.5150   71.3250  225.8490 C   0  0  0  0  0  0  0  0  0  0  0  0
  140.7070   71.9300  224.6530 N   0  0  0  0  0  0  0  0  0  0  0  0
  139.3130   73.8660  222.8020 H   0  0  0  0  0  0  0  0  0  0  0  0
  141.0142   74.5814  220.7255 H   0  0  0  0  0  0  0  0  0  0  0  0
  139.9358   73.4121  219.9145 H   0  0  0  0  0  0  0  0  0  0  0  0
  136.4980   74.1112  221.2764 H   0  0  0  0  0  0  0  0  0  0  0  0
  137.2559   73.7120  222.8192 H   0  0  0  0  0  0  0  0  0  0  0  0
  135.0257   75.4980  222.3611 H   0  0  0  0  0  0  0  0  0  0  0  0
  135.8054   75.2207  223.9057 H   0  0  0  0  0  0  0  0  0  0  0  0
  136.4827   77.3356  221.7508 H   0  0  0  0  0  0  0  0  0  0  0  0
  136.3879   77.6283  223.4454 H   0  0  0  0  0  0  0  0  0  0  0  0
  138.4312   76.0148  223.8104 H   0  0  0  0  0  0  0  0  0  0  0  0
  137.7766   79.0187  223.1348 H   0  0  0  0  0  0  0  0  0  0  0  0
  139.4706   80.7800  223.1039 H   0  0  0  0  0  0  0  0  0  0  0  0
  142.4872   77.8414  222.3852 H   0  0  0  0  0  0  0  0  0  0  0  0
  140.7627   76.0601  222.4169 H   0  0  0  0  0  0  0  0  0  0  0  0
  138.9701   69.8834  222.6848 H   0  0  0  0  0  0  0  0  0  0  0  0
  138.5893   68.7474  224.8331 H   0  0  0  0  0  0  0  0  0  0  0  0
  138.9519   68.6410  227.2406 H   0  0  0  0  0  0  0  0  0  0  0  0
  139.9529   69.5713  229.3104 H   0  0  0  0  0  0  0  0  0  0  0  0
  141.3325   71.6505  229.1524 H   0  0  0  0  0  0  0  0  0  0  0  0
  141.6808   72.7545  226.9733 H   0  0  0  0  0  0  0  0  0  0  0  0
  1  2  2  0
  2  3  1  0
  3  4  1  0
  4  5  1  0
  5  6  2  0
  5  7  1  0
  7  8  1  0
  8  9  1  0
  9 10  1  0
 10 11  1  0
 11 12  1  0
 12 13  2  0
 13 14  1  0
 14 15  2  0
 15 16  1  0
 16 17  1  0
 16 18  1  0
 16 19  1  0
 15 20  1  0
 20 21  2  0
  2 22  1  0
 22 23  2  0
 23 24  1  0
 24 25  2  0
 25 26  1  0
 26 27  2  0
 27 28  1  0
 28 29  2  0
 29 30  1  0
 30 31  2  0
 11  7  1  0
 21 12  1  0
 31 22  1  0
 30 25  1  0
  3 32  1  0
  4 33  1  0
  4 34  1  0
  8 35  1  0
  8 36  1  0
  9 37  1  0
  9 38  1  0
 10 39  1  0
 10 40  1  0
 11 41  1  1
 13 42  1  0
 14 43  1  0
 20 44  1  0
 21 45  1  0
 23 46  1  0
 24 47  1  0
 26 48  1  0
 27 49  1  0
 28 50  1  0
 29 51  1  0
M  END
>  <smiles>  (30) 
O=C(NCC(=O)N1CCCC1c1ccc(C(F)(F)F)cc1)c1ccc2ccccc2n1

>  <score_type>  (30) 
oracle

>  <origin>  (30) 
autodockgpu

>  <m_score__min__energy>  (30) 
-8.4199999999999999

>  <m_primary>  (30) 
energy

>  <rmsd>  (30) 
3.29507229537972

>  <m_score__min__rmsd>  (30) 
3.29507229537972

>  <meeko>  (30) 
{"free_energy": -8.26, "intermolecular_energy": -10.05, "internal_energy": -1.54, "cluster_size": 14, "cluster_id": 1, "rank_in_cluster": 2}

>  <energy>  (30) 
-7.9

>  <cluster_rmsd>  (30) 
1.81

>  <cluster>  (30) 
4

$$$$

     RDKit          3D

 51 54  0  0  0  0  0  0  0  0999 V2000
  141.2820   72.1500  221.6680 O   0  0  0  0  0  0  0  0  0  0  0  0
  140.3080   72.3370  222.4450 C   0  0  0  0  0  0  0  0  0  0  0  0
  139.3050   73.3110  222.2120 N   0  0  0  0  0  0  0  0  0  0  0  0
  139.3440   74.1650  221.0400 C   0  0  0  0  0  0  0  0  0  0  0  0
  140.4300   75.1930  221.2480 C   0  0  0  0  0  0  0  0  0  0  0  0
  140.4310   75.7500  222.3650 O   0  0  0  0  0  0  0  0  0  0  0  0
  141.3310   75.4370  220.1990 N   0  0  0  0  0  0  0  0  0  0  0  0
  141.8910   74.3940  219.2980 C   0  0  0  0  0  0  0  0  0  0  0  0
  143.2620   74.9050  218.9120 C   0  0  0  0  0  0  0  0  0  0  0  0
  143.4020   76.1940  219.7340 C   0  0  0  0  0  0  0  0  0  0  0  0
  141.9570   76.6390  219.7030 C   0  0  2  0  0  0  0  0  0  0  0  0
  141.6510   77.8840  220.3530 C   0  0  0  0  0  0  0  0  0  0  0  0
  141.8070   78.0380  221.7090 C   0  0  0  0  0  0  0  0  0  0  0  0
  141.5420   79.2210  222.3510 C   0  0  0  0  0  0  0  0  0  0  0  0
  141.1050   80.3140  221.6610 C   0  0  0  0  0  0  0  0  0  0  0  0
  140.8040   81.6170  222.3130 C   0  0  0  0  0  0  0  0  0  0  0  0
  139.4540   81.8660  222.3430 F   0  0  0  0  0  0  0  0  0  0  0  0
  141.4340   82.6050  221.5610 F   0  0  0  0  0  0  0  0  0  0  0  0
  141.3780   81.6640  223.5800 F   0  0  0  0  0  0  0  0  0  0  0  0
  140.9400   80.1800  220.2870 C   0  0  0  0  0  0  0  0  0  0  0  0
  141.2110   78.9750  219.6400 C   0  0  0  0  0  0  0  0  0  0  0  0
  140.2080   71.5070  223.6480 C   0  0  0  0  0  0  0  0  0  0  0  0
  139.5880   70.2620  223.6000 C   0  0  0  0  0  0  0  0  0  0  0  0
  139.4770   69.4570  224.7140 C   0  0  0  0  0  0  0  0  0  0  0  0
  139.9890   69.8720  225.9250 C   0  0  0  0  0  0  0  0  0  0  0  0
  139.9020   69.1000  227.0630 C   0  0  0  0  0  0  0  0  0  0  0  0
  140.4170   69.5260  228.2690 C   0  0  0  0  0  0  0  0  0  0  0  0
  141.0370   70.7690  228.3150 C   0  0  0  0  0  0  0  0  0  0  0  0
  141.1290   71.5520  227.1760 C   0  0  0  0  0  0  0  0  0  0  0  0
  140.6080   71.1240  225.9520 C   0  0  0  0  0  0  0  0  0  0  0  0
  140.6990   71.8910  224.8400 N   0  0  0  0  0  0  0  0  0  0  0  0
  138.5160   73.4130  222.9080 H   0  0  0  0  0  0  0  0  0  0  0  0
  139.5660   73.5629  220.1466 H   0  0  0  0  0  0  0  0  0  0  0  0
  138.3722   74.6596  220.8949 H   0  0  0  0  0  0  0  0  0  0  0  0
  141.9712   73.4312  219.8240 H   0  0  0  0  0  0  0  0  0  0  0  0
  141.2522   74.2206  218.4194 H   0  0  0  0  0  0  0  0  0  0  0  0
  144.0434   74.1791  219.1811 H   0  0  0  0  0  0  0  0  0  0  0  0
  143.3712   75.0702  217.8300 H   0  0  0  0  0  0  0  0  0  0  0  0
  143.7528   75.9965  220.7577 H   0  0  0  0  0  0  0  0  0  0  0  0
  144.1342   76.9233  219.3570 H   0  0  0  0  0  0  0  0  0  0  0  0
  141.5841   76.9542  218.7173 H   0  0  0  0  0  0  0  0  0  0  0  0
  142.1576   77.1806  222.3023 H   0  0  0  0  0  0  0  0  0  0  0  0
  141.6841   79.2895  223.4396 H   0  0  0  0  0  0  0  0  0  0  0  0
  140.5890   81.0410  219.6992 H   0  0  0  0  0  0  0  0  0  0  0  0
  141.0720   78.8962  218.5517 H   0  0  0  0  0  0  0  0  0  0  0  0
  139.1737   69.9093  222.6440 H   0  0  0  0  0  0  0  0  0  0  0  0
  138.9780   68.4798  224.6362 H   0  0  0  0  0  0  0  0  0  0  0  0
  139.4088   68.1183  227.0079 H   0  0  0  0  0  0  0  0  0  0  0  0
  140.3393   68.8994  229.1697 H   0  0  0  0  0  0  0  0  0  0  0  0
  141.4580   71.1339  229.2635 H   0  0  0  0  0  0  0  0  0  0  0  0
  141.6233   72.5328  227.2364 H   0  0  0  0  0  0  0  0  0  0  0  0
  1  2  2  0
  2  3  1  0
  3  4  1  0
  4  5  1  0
  5  6  2  0
  5  7  1  0
  7  8  1  0
  8  9  1  0
  9 10  1  0
 10 11  1  0
 11 12  1  0
 12 13  2  0
 13 14  1  0
 14 15  2  0
 15 16  1  0
 16 17  1  0
 16 18  1  0
 16 19  1  0
 15 20  1  0
 20 21  2  0
  2 22  1  0
 22 23  2  0
 23 24  1  0
 24 25  2  0
 25 26  1  0
 26 27  2  0
 27 28  1  0
 28 29  2  0
 29 30  1  0
 30 31  2  0
 11  7  1  0
 21 12  1  0
 31 22  1  0
 30 25  1  0
  3 32  1  0
  4 33  1  0
  4 34  1  0
  8 35  1  0
  8 36  1  0
  9 37  1  0
  9 38  1  0
 10 39  1  0
 10 40  1  0
 11 41  1  6
 13 42  1  0
 14 43  1  0
 20 44  1  0
 21 45  1  0
 23 46  1  0
 24 47  1  0
 26 48  1  0
 27 49  1  0
 28 50  1  0
 29 51  1  0
M  END
>  <smiles>  (31) 
O=C(NCC(=O)N1CCCC1c1ccc(C(F)(F)F)cc1)c1ccc2ccccc2n1

>  <score_type>  (31) 
oracle

>  <origin>  (31) 
autodockgpu

>  <m_score__min__energy>  (31) 
-8.4199999999999999

>  <m_primary>  (31) 
energy

>  <rmsd>  (31) 
2.004197752977321

>  <m_score__min__rmsd>  (31) 
2.004197752977321

>  <meeko>  (31) 
{"free_energy": -8.42, "intermolecular_energy": -10.21, "internal_energy": -1.37, "cluster_size": 14, "cluster_id": 1, "rank_in_cluster": 1}

>  <energy>  (31) 
-7.89

>  <cluster_rmsd>  (31) 
1.79

>  <cluster>  (31) 
4

$$$$

     RDKit          3D

 51 54  0  0  0  0  0  0  0  0999 V2000
  141.3970   74.6210  220.7560 O   0  0  0  0  0  0  0  0  0  0  0  0
  140.4620   74.8250  221.5760 C   0  0  0  0  0  0  0  0  0  0  0  0
  139.6010   73.8010  222.0420 N   0  0  0  0  0  0  0  0  0  0  0  0
  139.7510   72.4290  221.5930 C   0  0  0  0  0  0  0  0  0  0  0  0
  138.5250   71.6610  222.0260 C   0  0  0  0  0  0  0  0  0  0  0  0
  137.5260   72.3580  222.2950 O   0  0  0  0  0  0  0  0  0  0  0  0
  138.6010   70.2600  222.0890 N   0  0  0  0  0  0  0  0  0  0  0  0
  138.1730   69.3340  221.0060 C   0  0  0  0  0  0  0  0  0  0  0  0
  137.7130   68.0820  221.7200 C   0  0  0  0  0  0  0  0  0  0  0  0
  137.8360   68.4570  223.2040 C   0  0  0  0  0  0  0  0  0  0  0  0
  139.0550   69.3480  223.1120 C   0  0  2  0  0  0  0  0  0  0  0  0
  139.5480   69.8970  224.3440 C   0  0  0  0  0  0  0  0  0  0  0  0
  140.4630   70.9220  224.3530 C   0  0  0  0  0  0  0  0  0  0  0  0
  140.9340   71.4770  225.5160 C   0  0  0  0  0  0  0  0  0  0  0  0
  140.5090   71.0310  226.7320 C   0  0  0  0  0  0  0  0  0  0  0  0
  140.9920   71.6020  228.0190 C   0  0  0  0  0  0  0  0  0  0  0  0
  139.9550   72.0870  228.7760 F   0  0  0  0  0  0  0  0  0  0  0  0
  141.8550   72.6470  227.7030 F   0  0  0  0  0  0  0  0  0  0  0  0
  141.7530   70.6600  228.7070 F   0  0  0  0  0  0  0  0  0  0  0  0
  139.5830   69.9950  226.7460 C   0  0  0  0  0  0  0  0  0  0  0  0
  139.1070   69.4330  225.5620 C   0  0  0  0  0  0  0  0  0  0  0  0
  140.2550   76.1890  222.0700 C   0  0  0  0  0  0  0  0  0  0  0  0
  138.9690   76.6810  222.2740 C   0  0  0  0  0  0  0  0  0  0  0  0
  138.7410   77.9590  222.7380 C   0  0  0  0  0  0  0  0  0  0  0  0
  139.8000   78.7960  223.0180 C   0  0  0  0  0  0  0  0  0  0  0  0
  139.6180   80.0800  223.4840 C   0  0  0  0  0  0  0  0  0  0  0  0
  140.6860   80.9090  223.7600 C   0  0  0  0  0  0  0  0  0  0  0  0
  141.9690   80.4150  223.5560 C   0  0  0  0  0  0  0  0  0  0  0  0
  142.1610   79.1260  223.0880 C   0  0  0  0  0  0  0  0  0  0  0  0
  141.0820   78.2830  222.8070 C   0  0  0  0  0  0  0  0  0  0  0  0
  141.2720   77.0230  222.3500 N   0  0  0  0  0  0  0  0  0  0  0  0
  138.8370   74.0440  222.7300 H   0  0  0  0  0  0  0  0  0  0  0  0
  139.8407   72.4024  220.4970 H   0  0  0  0  0  0  0  0  0  0  0  0
  140.6566   71.9809  222.0278 H   0  0  0  0  0  0  0  0  0  0  0  0
  137.3483   69.7731  220.4254 H   0  0  0  0  0  0  0  0  0  0  0  0
  138.9853   69.1283  220.2934 H   0  0  0  0  0  0  0  0  0  0  0  0
  136.6721   67.8397  221.4597 H   0  0  0  0  0  0  0  0  0  0  0  0
  138.3006   67.1920  221.4505 H   0  0  0  0  0  0  0  0  0  0  0  0
  136.9520   69.0009  223.5683 H   0  0  0  0  0  0  0  0  0  0  0  0
  137.9144   67.6124  223.9044 H   0  0  0  0  0  0  0  0  0  0  0  0
  139.9940   68.8344  222.8580 H   0  0  0  0  0  0  0  0  0  0  0  0
  140.8314   71.3119  223.3926 H   0  0  0  0  0  0  0  0  0  0  0  0
  141.6670   72.2957  225.4663 H   0  0  0  0  0  0  0  0  0  0  0  0
  139.2183   69.6107  227.7100 H   0  0  0  0  0  0  0  0  0  0  0  0
  138.3743   68.6135  225.6019 H   0  0  0  0  0  0  0  0  0  0  0  0
  138.1086   76.0304  222.0585 H   0  0  0  0  0  0  0  0  0  0  0  0
  137.7098   78.3123  222.8854 H   0  0  0  0  0  0  0  0  0  0  0  0
  138.5952   80.4536  223.6399 H   0  0  0  0  0  0  0  0  0  0  0  0
  140.5264   81.9322  224.1311 H   0  0  0  0  0  0  0  0  0  0  0  0
  142.8393   81.0534  223.7681 H   0  0  0  0  0  0  0  0  0  0  0  0
  143.1858   78.7571  222.9339 H   0  0  0  0  0  0  0  0  0  0  0  0
  1  2  2  0
  2  3  1  0
  3  4  1  0
  4  5  1  0
  5  6  2  0
  5  7  1  0
  7  8  1  0
  8  9  1  0
  9 10  1  0
 10 11  1  0
 11 12  1  0
 12 13  2  0
 13 14  1  0
 14 15  2  0
 15 16  1  0
 16 17  1  0
 16 18  1  0
 16 19  1  0
 15 20  1  0
 20 21  2  0
  2 22  1  0
 22 23  2  0
 23 24  1  0
 24 25  2  0
 25 26  1  0
 26 27  2  0
 27 28  1  0
 28 29  2  0
 29 30  1  0
 30 31  2  0
 11  7  1  0
 21 12  1  0
 31 22  1  0
 30 25  1  0
  3 32  1  0
  4 33  1  0
  4 34  1  0
  8 35  1  0
  8 36  1  0
  9 37  1  0
  9 38  1  0
 10 39  1  0
 10 40  1  0
 11 41  1  6
 13 42  1  0
 14 43  1  0
 20 44  1  0
 21 45  1  0
 23 46  1  0
 24 47  1  0
 26 48  1  0
 27 49  1  0
 28 50  1  0
 29 51  1  0
M  END
>  <smiles>  (32) 
O=C(NCC(=O)N1CCCC1c1ccc(C(F)(F)F)cc1)c1ccc2ccccc2n1

>  <score_type>  (32) 
oracle

>  <origin>  (32) 
autodockgpu

>  <m_score__min__energy>  (32) 
-8.4199999999999999

>  <m_primary>  (32) 
energy

>  <rmsd>  (32) 
8.155723457680683

>  <m_score__min__rmsd>  (32) 
8.155723457680683

>  <meeko>  (32) 
{"free_energy": -8.16, "intermolecular_energy": -9.95, "internal_energy": -1.87, "cluster_size": 7, "cluster_id": 2, "rank_in_cluster": 2}

>  <energy>  (32) 
-7.89

>  <cluster_rmsd>  (32) 
1.77

>  <cluster>  (32) 
4

$$$$

     RDKit          3D

 51 54  0  0  0  0  0  0  0  0999 V2000
  140.1050   70.9140  221.5890 O   0  0  0  0  0  0  0  0  0  0  0  0
  139.5140   71.4450  222.5680 C   0  0  0  0  0  0  0  0  0  0  0  0
  138.4910   72.4130  222.4250 N   0  0  0  0  0  0  0  0  0  0  0  0
  138.0540   72.8590  221.1150 C   0  0  0  0  0  0  0  0  0  0  0  0
  139.1390   73.7330  220.5340 C   0  0  0  0  0  0  0  0  0  0  0  0
  139.4490   73.4840  219.3510 O   0  0  0  0  0  0  0  0  0  0  0  0
  139.7010   74.7310  221.3460 N   0  0  0  0  0  0  0  0  0  0  0  0
  138.9250   75.6810  222.1870 C   0  0  0  0  0  0  0  0  0  0  0  0
  139.7630   76.9400  222.2320 C   0  0  0  0  0  0  0  0  0  0  0  0
  140.9380   76.6140  221.3000 C   0  0  0  0  0  0  0  0  0  0  0  0
  141.0630   75.1380  221.6000 C   0  0  2  0  0  0  0  0  0  0  0  0
  142.1210   74.4300  220.9340 C   0  0  0  0  0  0  0  0  0  0  0  0
  142.2620   73.0700  221.0670 C   0  0  0  0  0  0  0  0  0  0  0  0
  143.2510   72.3670  220.4250 C   0  0  0  0  0  0  0  0  0  0  0  0
  144.1500   72.9970  219.6150 C   0  0  0  0  0  0  0  0  0  0  0  0
  145.2390   72.2780  218.9000 C   0  0  0  0  0  0  0  0  0  0  0  0
  144.8200   71.0500  218.4480 F   0  0  0  0  0  0  0  0  0  0  0  0
  146.2770   72.0990  219.8100 F   0  0  0  0  0  0  0  0  0  0  0  0
  145.7490   73.0720  217.8760 F   0  0  0  0  0  0  0  0  0  0  0  0
  144.0240   74.3730  219.4670 C   0  0  0  0  0  0  0  0  0  0  0  0
  143.0180   75.0830  220.1210 C   0  0  0  0  0  0  0  0  0  0  0  0
  139.9070   71.0390  223.9200 C   0  0  0  0  0  0  0  0  0  0  0  0
  140.6550   71.8920  224.7260 C   0  0  0  0  0  0  0  0  0  0  0  0
  141.0400   71.5410  226.0030 C   0  0  0  0  0  0  0  0  0  0  0  0
  140.6880   70.3140  226.5220 C   0  0  0  0  0  0  0  0  0  0  0  0
  141.0500   69.9210  227.7910 C   0  0  0  0  0  0  0  0  0  0  0  0
  140.6920   68.6900  228.3000 C   0  0  0  0  0  0  0  0  0  0  0  0
  139.9450   67.8400  227.4940 C   0  0  0  0  0  0  0  0  0  0  0  0
  139.5760   68.2250  226.2160 C   0  0  0  0  0  0  0  0  0  0  0  0
  139.9370   69.4720  225.6970 C   0  0  0  0  0  0  0  0  0  0  0  0
  139.5750   69.8470  224.4480 N   0  0  0  0  0  0  0  0  0  0  0  0
  138.0390   72.8170  223.2910 H   0  0  0  0  0  0  0  0  0  0  0  0
  137.8849   71.9901  220.4620 H   0  0  0  0  0  0  0  0  0  0  0  0
  137.1127   73.4222  221.1974 H   0  0  0  0  0  0  0  0  0  0  0  0
  137.9438   75.8858  221.7338 H   0  0  0  0  0  0  0  0  0  0  0  0
  138.7303   75.2785  223.1920 H   0  0  0  0  0  0  0  0  0  0  0  0
  139.1943   77.8056  221.8615 H   0  0  0  0  0  0  0  0  0  0  0  0
  140.0820   77.2092  223.2497 H   0  0  0  0  0  0  0  0  0  0  0  0
  140.6936   76.8026  220.2442 H   0  0  0  0  0  0  0  0  0  0  0  0
  141.8490   77.2106  221.4551 H   0  0  0  0  0  0  0  0  0  0  0  0
  141.4132   74.8937  222.6137 H   0  0  0  0  0  0  0  0  0  0  0  0
  141.5568   72.5245  221.7113 H   0  0  0  0  0  0  0  0  0  0  0  0
  143.3197   71.2782  220.5659 H   0  0  0  0  0  0  0  0  0  0  0  0
  144.7321   74.9128  218.8210 H   0  0  0  0  0  0  0  0  0  0  0  0
  142.9412   76.1720  219.9860 H   0  0  0  0  0  0  0  0  0  0  0  0
  140.9482   72.8765  224.3325 H   0  0  0  0  0  0  0  0  0  0  0  0
  141.6304   72.2434  226.6097 H   0  0  0  0  0  0  0  0  0  0  0  0
  141.6406   70.6072  228.4157 H   0  0  0  0  0  0  0  0  0  0  0  0
  140.9896   68.3898  229.3155 H   0  0  0  0  0  0  0  0  0  0  0  0
  139.6441   66.8527  227.8743 H   0  0  0  0  0  0  0  0  0  0  0  0
  138.9859   67.5345  225.5955 H   0  0  0  0  0  0  0  0  0  0  0  0
  1  2  2  0
  2  3  1  0
  3  4  1  0
  4  5  1  0
  5  6  2  0
  5  7  1  0
  7  8  1  0
  8  9  1  0
  9 10  1  0
 10 11  1  0
 11 12  1  0
 12 13  2  0
 13 14  1  0
 14 15  2  0
 15 16  1  0
 16 17  1  0
 16 18  1  0
 16 19  1  0
 15 20  1  0
 20 21  2  0
  2 22  1  0
 22 23  2  0
 23 24  1  0
 24 25  2  0
 25 26  1  0
 26 27  2  0
 27 28  1  0
 28 29  2  0
 29 30  1  0
 30 31  2  0
 11  7  1  0
 21 12  1  0
 31 22  1  0
 30 25  1  0
  3 32  1  0
  4 33  1  0
  4 34  1  0
  8 35  1  0
  8 36  1  0
  9 37  1  0
  9 38  1  0
 10 39  1  0
 10 40  1  0
 11 41  1  1
 13 42  1  0
 14 43  1  0
 20 44  1  0
 21 45  1  0
 23 46  1  0
 24 47  1  0
 26 48  1  0
 27 49  1  0
 28 50  1  0
 29 51  1  0
M  END
>  <smiles>  (33) 
O=C(NCC(=O)N1CCCC1c1ccc(C(F)(F)F)cc1)c1ccc2ccccc2n1

>  <score_type>  (33) 
oracle

>  <origin>  (33) 
autodockgpu

>  <m_score__min__energy>  (33) 
-8.4199999999999999

>  <m_primary>  (33) 
energy

>  <rmsd>  (33) 
3.165825287194236

>  <m_score__min__rmsd>  (33) 
3.165825287194236

>  <meeko>  (33) 
{"free_energy": -7.62, "intermolecular_energy": -9.41, "internal_energy": -1.94, "cluster_size": 19, "cluster_id": 4, "rank_in_cluster": 19}

>  <energy>  (33) 
-7.89

>  <cluster_rmsd>  (33) 
1.8

>  <cluster>  (33) 
4

$$$$

     RDKit          3D

 51 54  0  0  0  0  0  0  0  0999 V2000
  141.2770   71.7200  221.3930 O   0  0  0  0  0  0  0  0  0  0  0  0
  140.6200   72.2810  222.3110 C   0  0  0  0  0  0  0  0  0  0  0  0
  140.1680   73.6210  222.2350 N   0  0  0  0  0  0  0  0  0  0  0  0
  140.4410   74.4420  221.0700 C   0  0  0  0  0  0  0  0  0  0  0  0
  140.7880   75.8320  221.5510 C   0  0  0  0  0  0  0  0  0  0  0  0
  140.4430   76.0930  222.7210 O   0  0  0  0  0  0  0  0  0  0  0  0
  141.4540   76.6980  220.6680 N   0  0  0  0  0  0  0  0  0  0  0  0
  141.1150   78.1310  220.4640 C   0  0  0  0  0  0  0  0  0  0  0  0
  141.4820   78.4200  219.0250 C   0  0  0  0  0  0  0  0  0  0  0  0
  141.9230   77.0500  218.4920 C   0  0  0  0  0  0  0  0  0  0  0  0
  142.5560   76.5100  219.7550 C   0  0  2  0  0  0  0  0  0  0  0  0
  143.1560   75.2070  219.6700 C   0  0  0  0  0  0  0  0  0  0  0  0
  142.7030   74.2710  218.7730 C   0  0  0  0  0  0  0  0  0  0  0  0
  143.2710   73.0270  218.6580 C   0  0  0  0  0  0  0  0  0  0  0  0
  144.3260   72.6590  219.4400 C   0  0  0  0  0  0  0  0  0  0  0  0
  144.9740   71.3230  219.3520 C   0  0  0  0  0  0  0  0  0  0  0  0
  144.3240   70.3940  220.1280 F   0  0  0  0  0  0  0  0  0  0  0  0
  146.2790   71.4700  219.8130 F   0  0  0  0  0  0  0  0  0  0  0  0
  145.0730   70.9230  218.0210 F   0  0  0  0  0  0  0  0  0  0  0  0
  144.8000   73.5920  220.3550 C   0  0  0  0  0  0  0  0  0  0  0  0
  144.2190   74.8550  220.4690 C   0  0  0  0  0  0  0  0  0  0  0  0
  140.3090   71.5070  223.5160 C   0  0  0  0  0  0  0  0  0  0  0  0
  139.5880   70.3200  223.4290 C   0  0  0  0  0  0  0  0  0  0  0  0
  139.2790   69.5690  224.5430 C   0  0  0  0  0  0  0  0  0  0  0  0
  139.6850   69.9820  225.7940 C   0  0  0  0  0  0  0  0  0  0  0  0
  139.4000   69.2640  226.9340 C   0  0  0  0  0  0  0  0  0  0  0  0
  139.8110   69.6870  228.1800 C   0  0  0  0  0  0  0  0  0  0  0  0
  140.5310   70.8720  228.2650 C   0  0  0  0  0  0  0  0  0  0  0  0
  140.8230   71.6020  227.1250 C   0  0  0  0  0  0  0  0  0  0  0  0
  140.4080   71.1760  225.8600 C   0  0  0  0  0  0  0  0  0  0  0  0
  140.6940   71.8910  224.7460 N   0  0  0  0  0  0  0  0  0  0  0  0
  139.6230   74.0270  223.0440 H   0  0  0  0  0  0  0  0  0  0  0  0
  141.2857   74.0203  220.5055 H   0  0  0  0  0  0  0  0  0  0  0  0
  139.5618   74.4739  220.4097 H   0  0  0  0  0  0  0  0  0  0  0  0
  140.0412   78.3017  220.6308 H   0  0  0  0  0  0  0  0  0  0  0  0
  141.6512   78.7861  221.1664 H   0  0  0  0  0  0  0  0  0  0  0  0
  140.6144   78.7999  218.4656 H   0  0  0  0  0  0  0  0  0  0  0  0
  142.2596   79.1916  218.9254 H   0  0  0  0  0  0  0  0  0  0  0  0
  141.0695   76.4393  218.1626 H   0  0  0  0  0  0  0  0  0  0  0  0
  142.5716   77.0697  217.6038 H   0  0  0  0  0  0  0  0  0  0  0  0
  143.4797   77.0168  220.0712 H   0  0  0  0  0  0  0  0  0  0  0  0
  141.8537   74.5278  218.1228 H   0  0  0  0  0  0  0  0  0  0  0  0
  142.8685   72.3147  217.9227 H   0  0  0  0  0  0  0  0  0  0  0  0
  145.6500   73.3291  221.0019 H   0  0  0  0  0  0  0  0  0  0  0  0
  144.6133   75.5739  221.2023 H   0  0  0  0  0  0  0  0  0  0  0  0
  139.2543   69.9702  222.4409 H   0  0  0  0  0  0  0  0  0  0  0  0
  138.7061   68.6364  224.4332 H   0  0  0  0  0  0  0  0  0  0  0  0
  138.8290   68.3277  226.8481 H   0  0  0  0  0  0  0  0  0  0  0  0
  139.5755   69.1026  229.0817 H   0  0  0  0  0  0  0  0  0  0  0  0
  140.8721   71.2336  229.2463 H   0  0  0  0  0  0  0  0  0  0  0  0
  141.3941   72.5376  227.2170 H   0  0  0  0  0  0  0  0  0  0  0  0
  1  2  2  0
  2  3  1  0
  3  4  1  0
  4  5  1  0
  5  6  2  0
  5  7  1  0
  7  8  1  0
  8  9  1  0
  9 10  1  0
 10 11  1  0
 11 12  1  0
 12 13  2  0
 13 14  1  0
 14 15  2  0
 15 16  1  0
 16 17  1  0
 16 18  1  0
 16 19  1  0
 15 20  1  0
 20 21  2  0
  2 22  1  0
 22 23  2  0
 23 24  1  0
 24 25  2  0
 25 26  1  0
 26 27  2  0
 27 28  1  0
 28 29  2  0
 29 30  1  0
 30 31  2  0
 11  7  1  0
 21 12  1  0
 31 22  1  0
 30 25  1  0
  3 32  1  0
  4 33  1  0
  4 34  1  0
  8 35  1  0
  8 36  1  0
  9 37  1  0
  9 38  1  0
 10 39  1  0
 10 40  1  0
 11 41  1  1
 13 42  1  0
 14 43  1  0
 20 44  1  0
 21 45  1  0
 23 46  1  0
 24 47  1  0
 26 48  1  0
 27 49  1  0
 28 50  1  0
 29 51  1  0
M  END
>  <smiles>  (34) 
O=C(NCC(=O)N1CCCC1c1ccc(C(F)(F)F)cc1)c1ccc2ccccc2n1

>  <score_type>  (34) 
oracle

>  <origin>  (34) 
autodockgpu

>  <m_score__min__energy>  (34) 
-8.4199999999999999

>  <m_primary>  (34) 
energy

>  <rmsd>  (34) 
2.2367028182518465

>  <m_score__min__rmsd>  (34) 
2.2367028182518465

>  <meeko>  (34) 
{"free_energy": -7.92, "intermolecular_energy": -9.71, "internal_energy": -2.22, "cluster_size": 19, "cluster_id": 4, "rank_in_cluster": 5}

>  <energy>  (34) 
-7.89

>  <cluster_rmsd>  (34) 
1.8

>  <cluster>  (34) 
4

$$$$

     RDKit          3D

 51 54  0  0  0  0  0  0  0  0999 V2000
  141.2770   71.6570  221.4280 O   0  0  0  0  0  0  0  0  0  0  0  0
  140.6240   72.2260  222.3440 C   0  0  0  0  0  0  0  0  0  0  0  0
  140.1680   73.5650  222.2550 N   0  0  0  0  0  0  0  0  0  0  0  0
  140.4310   74.3740  221.0800 C   0  0  0  0  0  0  0  0  0  0  0  0
  140.7720   75.7700  221.5420 C   0  0  0  0  0  0  0  0  0  0  0  0
  140.3760   76.0640  222.6890 O   0  0  0  0  0  0  0  0  0  0  0  0
  141.4870   76.6080  220.6710 N   0  0  0  0  0  0  0  0  0  0  0  0
  141.2110   78.0540  220.4600 C   0  0  0  0  0  0  0  0  0  0  0  0
  141.6140   78.3250  219.0270 C   0  0  0  0  0  0  0  0  0  0  0  0
  142.0080   76.9380  218.5030 C   0  0  0  0  0  0  0  0  0  0  0  0
  142.5970   76.3740  219.7770 C   0  0  2  0  0  0  0  0  0  0  0  0
  143.1450   75.0480  219.7030 C   0  0  0  0  0  0  0  0  0  0  0  0
  142.6260   74.1090  218.8450 C   0  0  0  0  0  0  0  0  0  0  0  0
  143.1440   72.8420  218.7410 C   0  0  0  0  0  0  0  0  0  0  0  0
  144.2110   72.4530  219.4950 C   0  0  0  0  0  0  0  0  0  0  0  0
  144.8060   71.0920  219.4170 C   0  0  0  0  0  0  0  0  0  0  0  0
  146.1490   71.1100  219.7040 F   0  0  0  0  0  0  0  0  0  0  0  0
  144.6240   70.6410  218.1130 F   0  0  0  0  0  0  0  0  0  0  0  0
  144.1020   70.2120  220.2360 F   0  0  0  0  0  0  0  0  0  0  0  0
  144.7510   73.3880  220.3700 C   0  0  0  0  0  0  0  0  0  0  0  0
  144.2220   74.6740  220.4730 C   0  0  0  0  0  0  0  0  0  0  0  0
  140.3220   71.4660  223.5590 C   0  0  0  0  0  0  0  0  0  0  0  0
  139.6150   70.2690  223.4880 C   0  0  0  0  0  0  0  0  0  0  0  0
  139.3150   69.5300  224.6130 C   0  0  0  0  0  0  0  0  0  0  0  0
  139.7170   69.9640  225.8580 C   0  0  0  0  0  0  0  0  0  0  0  0
  139.4400   69.2580  227.0070 C   0  0  0  0  0  0  0  0  0  0  0  0
  139.8470   69.7030  228.2480 C   0  0  0  0  0  0  0  0  0  0  0  0
  140.5540   70.8970  228.3160 C   0  0  0  0  0  0  0  0  0  0  0  0
  140.8370   71.6150  227.1660 C   0  0  0  0  0  0  0  0  0  0  0  0
  140.4260   71.1670  225.9070 C   0  0  0  0  0  0  0  0  0  0  0  0
  140.7040   71.8700  224.7840 N   0  0  0  0  0  0  0  0  0  0  0  0
  139.6260   73.9780  223.0630 H   0  0  0  0  0  0  0  0  0  0  0  0
  141.2755   73.9505  220.5165 H   0  0  0  0  0  0  0  0  0  0  0  0
  139.5483   74.3934  220.4239 H   0  0  0  0  0  0  0  0  0  0  0  0
  140.1425   78.2693  220.6084 H   0  0  0  0  0  0  0  0  0  0  0  0
  141.7618   78.6876  221.1708 H   0  0  0  0  0  0  0  0  0  0  0  0
  140.7722   78.7388  218.4524 H   0  0  0  0  0  0  0  0  0  0  0  0
  142.4240   79.0641  218.9400 H   0  0  0  0  0  0  0  0  0  0  0  0
  141.1361   76.3620  218.1594 H   0  0  0  0  0  0  0  0  0  0  0  0
  142.6722   76.9303  217.6262 H   0  0  0  0  0  0  0  0  0  0  0  0
  143.5351   76.8429  220.1089 H   0  0  0  0  0  0  0  0  0  0  0  0
  141.7641   74.3823  218.2186 H   0  0  0  0  0  0  0  0  0  0  0  0
  142.6904   72.1285  218.0373 H   0  0  0  0  0  0  0  0  0  0  0  0
  145.6128   73.1080  220.9936 H   0  0  0  0  0  0  0  0  0  0  0  0
  144.6687   75.3941  221.1744 H   0  0  0  0  0  0  0  0  0  0  0  0
  139.2857   69.9015  222.5049 H   0  0  0  0  0  0  0  0  0  0  0  0
  138.7523   68.5898  224.5164 H   0  0  0  0  0  0  0  0  0  0  0  0
  138.8795   68.3144  226.9338 H   0  0  0  0  0  0  0  0  0  0  0  0
  139.6182   69.1286  229.1578 H   0  0  0  0  0  0  0  0  0  0  0  0
  140.8920   71.2755  229.2919 H   0  0  0  0  0  0  0  0  0  0  0  0
  141.3974   72.5583  227.2449 H   0  0  0  0  0  0  0  0  0  0  0  0
  1  2  2  0
  2  3  1  0
  3  4  1  0
  4  5  1  0
  5  6  2  0
  5  7  1  0
  7  8  1  0
  8  9  1  0
  9 10  1  0
 10 11  1  0
 11 12  1  0
 12 13  2  0
 13 14  1  0
 14 15  2  0
 15 16  1  0
 16 17  1  0
 16 18  1  0
 16 19  1  0
 15 20  1  0
 20 21  2  0
  2 22  1  0
 22 23  2  0
 23 24  1  0
 24 25  2  0
 25 26  1  0
 26 27  2  0
 27 28  1  0
 28 29  2  0
 29 30  1  0
 30 31  2  0
 11  7  1  0
 21 12  1  0
 31 22  1  0
 30 25  1  0
  3 32  1  0
  4 33  1  0
  4 34  1  0
  8 35  1  0
  8 36  1  0
  9 37  1  0
  9 38  1  0
 10 39  1  0
 10 40  1  0
 11 41  1  1
 13 42  1  0
 14 43  1  0
 20 44  1  0
 21 45  1  0
 23 46  1  0
 24 47  1  0
 26 48  1  0
 27 49  1  0
 28 50  1  0
 29 51  1  0
M  END
>  <smiles>  (35) 
O=C(NCC(=O)N1CCCC1c1ccc(C(F)(F)F)cc1)c1ccc2ccccc2n1

>  <score_type>  (35) 
oracle

>  <origin>  (35) 
autodockgpu

>  <m_score__min__energy>  (35) 
-8.4199999999999999

>  <m_primary>  (35) 
energy

>  <rmsd>  (35) 
2.2354872874460647

>  <m_score__min__rmsd>  (35) 
2.2354872874460647

>  <meeko>  (35) 
{"free_energy": -7.95, "intermolecular_energy": -9.74, "internal_energy": -2.21, "cluster_size": 19, "cluster_id": 4, "rank_in_cluster": 2}

>  <energy>  (35) 
-7.89

>  <cluster_rmsd>  (35) 
1.76

>  <cluster>  (35) 
4

$$$$

     RDKit          3D

 51 54  0  0  0  0  0  0  0  0999 V2000
  141.3670   74.8340  220.7000 O   0  0  0  0  0  0  0  0  0  0  0  0
  140.4610   75.0610  221.5470 C   0  0  0  0  0  0  0  0  0  0  0  0
  139.5720   74.0640  222.0190 N   0  0  0  0  0  0  0  0  0  0  0  0
  139.6560   72.6960  221.5470 C   0  0  0  0  0  0  0  0  0  0  0  0
  138.4880   71.9310  222.1230 C   0  0  0  0  0  0  0  0  0  0  0  0
  137.5520   72.6340  222.5560 O   0  0  0  0  0  0  0  0  0  0  0  0
  138.5430   70.5280  222.1260 N   0  0  0  0  0  0  0  0  0  0  0  0
  138.0940   69.6550  221.0090 C   0  0  0  0  0  0  0  0  0  0  0  0
  137.6190   68.3810  221.6730 C   0  0  0  0  0  0  0  0  0  0  0  0
  137.7570   68.6910  223.1700 C   0  0  0  0  0  0  0  0  0  0  0  0
  138.9890   69.5660  223.1070 C   0  0  2  0  0  0  0  0  0  0  0  0
  139.4990   70.0560  224.3580 C   0  0  0  0  0  0  0  0  0  0  0  0
  140.4020   71.0890  224.4040 C   0  0  0  0  0  0  0  0  0  0  0  0
  140.8890   71.5890  225.5860 C   0  0  0  0  0  0  0  0  0  0  0  0
  140.4920   71.0730  226.7850 C   0  0  0  0  0  0  0  0  0  0  0  0
  140.9920   71.5810  228.0910 C   0  0  0  0  0  0  0  0  0  0  0  0
  141.8810   72.6150  227.9230 F   0  0  0  0  0  0  0  0  0  0  0  0
  141.6380   70.5210  228.7210 F   0  0  0  0  0  0  0  0  0  0  0  0
  139.9240   71.9310  228.9120 F   0  0  0  0  0  0  0  0  0  0  0  0
  139.5780   70.0270  226.7600 C   0  0  0  0  0  0  0  0  0  0  0  0
  139.0860   69.5230  225.5560 C   0  0  0  0  0  0  0  0  0  0  0  0
  140.3220   76.4240  222.0670 C   0  0  0  0  0  0  0  0  0  0  0  0
  139.0650   76.9450  222.3600 C   0  0  0  0  0  0  0  0  0  0  0  0
  138.8990   78.2230  222.8500 C   0  0  0  0  0  0  0  0  0  0  0  0
  139.9950   79.0310  223.0670 C   0  0  0  0  0  0  0  0  0  0  0  0
  139.8770   80.3130  223.5560 C   0  0  0  0  0  0  0  0  0  0  0  0
  140.9800   81.1130  223.7690 C   0  0  0  0  0  0  0  0  0  0  0  0
  142.2340   80.5910  223.4760 C   0  0  0  0  0  0  0  0  0  0  0  0
  142.3630   79.3030  222.9840 C   0  0  0  0  0  0  0  0  0  0  0  0
  141.2470   78.4900  222.7670 C   0  0  0  0  0  0  0  0  0  0  0  0
  141.3760   77.2300  222.2860 N   0  0  0  0  0  0  0  0  0  0  0  0
  138.8360   74.3270  222.7300 H   0  0  0  0  0  0  0  0  0  0  0  0
  139.6095   72.6767  220.4482 H   0  0  0  0  0  0  0  0  0  0  0  0
  140.6054   72.2399  221.8643 H   0  0  0  0  0  0  0  0  0  0  0  0
  137.2725   70.1305  220.4531 H   0  0  0  0  0  0  0  0  0  0  0  0
  138.8987   69.4669  220.2830 H   0  0  0  0  0  0  0  0  0  0  0  0
  136.5728   68.1658  221.4099 H   0  0  0  0  0  0  0  0  0  0  0  0
  138.1910   67.4943  221.3623 H   0  0  0  0  0  0  0  0  0  0  0  0
  136.8840   69.2327  223.5630 H   0  0  0  0  0  0  0  0  0  0  0  0
  137.8264   67.8166  223.8338 H   0  0  0  0  0  0  0  0  0  0  0  0
  139.9178   69.0483  222.8253 H   0  0  0  0  0  0  0  0  0  0  0  0
  140.7481   71.5324  223.4587 H   0  0  0  0  0  0  0  0  0  0  0  0
  141.6108   72.4188  225.5662 H   0  0  0  0  0  0  0  0  0  0  0  0
  139.2355   69.5876  227.7085 H   0  0  0  0  0  0  0  0  0  0  0  0
  138.3631   68.6940  225.5652 H   0  0  0  0  0  0  0  0  0  0  0  0
  138.1765   76.3177  222.1955 H   0  0  0  0  0  0  0  0  0  0  0  0
  137.8887   78.5993  223.0686 H   0  0  0  0  0  0  0  0  0  0  0  0
  138.8763   80.7095  223.7827 H   0  0  0  0  0  0  0  0  0  0  0  0
  140.8702   82.1354  224.1598 H   0  0  0  0  0  0  0  0  0  0  0  0
  143.1318   81.2061  223.6362 H   0  0  0  0  0  0  0  0  0  0  0  0
  143.3659   78.9111  222.7590 H   0  0  0  0  0  0  0  0  0  0  0  0
  1  2  2  0
  2  3  1  0
  3  4  1  0
  4  5  1  0
  5  6  2  0
  5  7  1  0
  7  8  1  0
  8  9  1  0
  9 10  1  0
 10 11  1  0
 11 12  1  0
 12 13  2  0
 13 14  1  0
 14 15  2  0
 15 16  1  0
 16 17  1  0
 16 18  1  0
 16 19  1  0
 15 20  1  0
 20 21  2  0
  2 22  1  0
 22 23  2  0
 23 24  1  0
 24 25  2  0
 25 26  1  0
 26 27  2  0
 27 28  1  0
 28 29  2  0
 29 30  1  0
 30 31  2  0
 11  7  1  0
 21 12  1  0
 31 22  1  0
 30 25  1  0
  3 32  1  0
  4 33  1  0
  4 34  1  0
  8 35  1  0
  8 36  1  0
  9 37  1  0
  9 38  1  0
 10 39  1  0
 10 40  1  0
 11 41  1  6
 13 42  1  0
 14 43  1  0
 20 44  1  0
 21 45  1  0
 23 46  1  0
 24 47  1  0
 26 48  1  0
 27 49  1  0
 28 50  1  0
 29 51  1  0
M  END
>  <smiles>  (36) 
O=C(NCC(=O)N1CCCC1c1ccc(C(F)(F)F)cc1)c1ccc2ccccc2n1

>  <score_type>  (36) 
oracle

>  <origin>  (36) 
autodockgpu

>  <m_score__min__energy>  (36) 
-8.4199999999999999

>  <m_primary>  (36) 
energy

>  <rmsd>  (36) 
8.194186112327431

>  <m_score__min__rmsd>  (36) 
8.194186112327431

>  <meeko>  (36) 
{"free_energy": -8.14, "intermolecular_energy": -9.93, "internal_energy": -1.87, "cluster_size": 7, "cluster_id": 2, "rank_in_cluster": 4}

>  <energy>  (36) 
-7.86

>  <cluster_rmsd>  (36) 
1.81

>  <cluster>  (36) 
4

$$$$

     RDKit          3D

 51 54  0  0  0  0  0  0  0  0999 V2000
  141.0630   71.5120  221.3460 O   0  0  0  0  0  0  0  0  0  0  0  0
  140.4340   72.1430  222.2380 C   0  0  0  0  0  0  0  0  0  0  0  0
  139.9500   73.4620  222.0610 N   0  0  0  0  0  0  0  0  0  0  0  0
  140.1530   74.1770  220.8150 C   0  0  0  0  0  0  0  0  0  0  0  0
  139.0640   75.2150  220.6910 C   0  0  0  0  0  0  0  0  0  0  0  0
  139.0140   75.8080  219.5940 O   0  0  0  0  0  0  0  0  0  0  0  0
  138.2130   75.4270  221.7880 N   0  0  0  0  0  0  0  0  0  0  0  0
  137.0600   74.5600  222.1510 C   0  0  0  0  0  0  0  0  0  0  0  0
  136.0610   75.4900  222.8060 C   0  0  0  0  0  0  0  0  0  0  0  0
  136.7190   76.8690  222.6650 C   0  0  0  0  0  0  0  0  0  0  0  0
  138.1640   76.4460  222.8090 C   0  0  2  0  0  0  0  0  0  0  0  0
  139.1490   77.4910  222.7760 C   0  0  0  0  0  0  0  0  0  0  0  0
  138.7950   78.8100  222.9270 C   0  0  0  0  0  0  0  0  0  0  0  0
  139.7180   79.8260  222.9190 C   0  0  0  0  0  0  0  0  0  0  0  0
  141.0480   79.5670  222.7590 C   0  0  0  0  0  0  0  0  0  0  0  0
  142.0850   80.6340  222.7440 C   0  0  0  0  0  0  0  0  0  0  0  0
  143.3530   80.1060  222.7340 F   0  0  0  0  0  0  0  0  0  0  0  0
  141.9130   81.3880  223.9010 F   0  0  0  0  0  0  0  0  0  0  0  0
  141.8660   81.5010  221.6760 F   0  0  0  0  0  0  0  0  0  0  0  0
  141.4280   78.2390  222.6050 C   0  0  0  0  0  0  0  0  0  0  0  0
  140.4860   77.2110  222.6130 C   0  0  0  0  0  0  0  0  0  0  0  0
  140.1940   71.4780  223.5220 C   0  0  0  0  0  0  0  0  0  0  0  0
  139.4480   70.3050  223.5830 C   0  0  0  0  0  0  0  0  0  0  0  0
  139.2040   69.6550  224.7740 C   0  0  0  0  0  0  0  0  0  0  0  0
  139.7020   70.1590  225.9560 C   0  0  0  0  0  0  0  0  0  0  0  0
  139.4840   69.5430  227.1680 C   0  0  0  0  0  0  0  0  0  0  0  0
  139.9880   70.0580  228.3450 C   0  0  0  0  0  0  0  0  0  0  0  0
  140.7330   71.2290  228.2820 C   0  0  0  0  0  0  0  0  0  0  0  0
  140.9580   71.8560  227.0670 C   0  0  0  0  0  0  0  0  0  0  0  0
  140.4490   71.3370  225.8730 C   0  0  0  0  0  0  0  0  0  0  0  0
  140.6700   71.9520  224.6870 N   0  0  0  0  0  0  0  0  0  0  0  0
  139.4320   73.9310  222.8540 H   0  0  0  0  0  0  0  0  0  0  0  0
  141.1375   74.6676  220.8221 H   0  0  0  0  0  0  0  0  0  0  0  0
  140.1164   73.4808  219.9642 H   0  0  0  0  0  0  0  0  0  0  0  0
  136.6260   74.0976  221.2522 H   0  0  0  0  0  0  0  0  0  0  0  0
  137.3562   73.7364  222.8173 H   0  0  0  0  0  0  0  0  0  0  0  0
  135.0932   75.4598  222.2840 H   0  0  0  0  0  0  0  0  0  0  0  0
  135.8427   75.2215  223.8502 H   0  0  0  0  0  0  0  0  0  0  0  0
  136.5170   77.3260  221.6850 H   0  0  0  0  0  0  0  0  0  0  0  0
  136.3740   77.6367  223.3732 H   0  0  0  0  0  0  0  0  0  0  0  0
  138.4489   76.0819  223.8071 H   0  0  0  0  0  0  0  0  0  0  0  0
  137.7323   79.0612  223.0592 H   0  0  0  0  0  0  0  0  0  0  0  0
  139.3801   80.8654  223.0436 H   0  0  0  0  0  0  0  0  0  0  0  0
  142.4924   77.9942  222.4743 H   0  0  0  0  0  0  0  0  0  0  0  0
  140.8143   76.1686  222.4881 H   0  0  0  0  0  0  0  0  0  0  0  0
  139.0404   69.8834  222.6523 H   0  0  0  0  0  0  0  0  0  0  0  0
  138.6091   68.7298  224.7809 H   0  0  0  0  0  0  0  0  0  0  0  0
  138.8926   68.6160  227.1989 H   0  0  0  0  0  0  0  0  0  0  0  0
  139.8050   69.5554  229.3062 H   0  0  0  0  0  0  0  0  0  0  0  0
  141.1477   71.6620  229.2043 H   0  0  0  0  0  0  0  0  0  0  0  0
  141.5502   72.7826  227.0415 H   0  0  0  0  0  0  0  0  0  0  0  0
  1  2  2  0
  2  3  1  0
  3  4  1  0
  4  5  1  0
  5  6  2  0
  5  7  1  0
  7  8  1  0
  8  9  1  0
  9 10  1  0
 10 11  1  0
 11 12  1  0
 12 13  2  0
 13 14  1  0
 14 15  2  0
 15 16  1  0
 16 17  1  0
 16 18  1  0
 16 19  1  0
 15 20  1  0
 20 21  2  0
  2 22  1  0
 22 23  2  0
 23 24  1  0
 24 25  2  0
 25 26  1  0
 26 27  2  0
 27 28  1  0
 28 29  2  0
 29 30  1  0
 30 31  2  0
 11  7  1  0
 21 12  1  0
 31 22  1  0
 30 25  1  0
  3 32  1  0
  4 33  1  0
  4 34  1  0
  8 35  1  0
  8 36  1  0
  9 37  1  0
  9 38  1  0
 10 39  1  0
 10 40  1  0
 11 41  1  1
 13 42  1  0
 14 43  1  0
 20 44  1  0
 21 45  1  0
 23 46  1  0
 24 47  1  0
 26 48  1  0
 27 49  1  0
 28 50  1  0
 29 51  1  0
M  END
>  <smiles>  (37) 
O=C(NCC(=O)N1CCCC1c1ccc(C(F)(F)F)cc1)c1ccc2ccccc2n1

>  <score_type>  (37) 
oracle

>  <origin>  (37) 
autodockgpu

>  <m_score__min__energy>  (37) 
-8.4199999999999999

>  <m_primary>  (37) 
energy

>  <rmsd>  (37) 
3.2773067592962604

>  <m_score__min__rmsd>  (37) 
3.2773067592962604

>  <meeko>  (37) 
{"free_energy": -8.22, "intermolecular_energy": -10.01, "internal_energy": -1.54, "cluster_size": 14, "cluster_id": 1, "rank_in_cluster": 3}

>  <energy>  (37) 
-7.84

>  <cluster_rmsd>  (37) 
1.81

>  <cluster>  (37) 
4

$$$$

     RDKit          3D

 51 54  0  0  0  0  0  0  0  0999 V2000
  140.1370   70.7000  221.2760 O   0  0  0  0  0  0  0  0  0  0  0  0
  139.9210   71.4190  222.2890 C   0  0  0  0  0  0  0  0  0  0  0  0
  139.7530   72.8240  222.2220 N   0  0  0  0  0  0  0  0  0  0  0  0
  139.8200   73.5310  220.9570 C   0  0  0  0  0  0  0  0  0  0  0  0
  140.4680   74.8720  221.2060 C   0  0  0  0  0  0  0  0  0  0  0  0
  140.2940   75.3440  222.3490 O   0  0  0  0  0  0  0  0  0  0  0  0
  141.1960   75.4670  220.1640 N   0  0  0  0  0  0  0  0  0  0  0  0
  141.8360   74.7300  219.0420 C   0  0  0  0  0  0  0  0  0  0  0  0
  143.0460   75.5580  218.6680 C   0  0  0  0  0  0  0  0  0  0  0  0
  143.0380   76.6840  219.7110 C   0  0  0  0  0  0  0  0  0  0  0  0
  141.5420   76.8370  219.8670 C   0  0  2  0  0  0  0  0  0  0  0  0
  141.0880   77.8640  220.7640 C   0  0  0  0  0  0  0  0  0  0  0  0
  139.7490   78.1050  220.9520 C   0  0  0  0  0  0  0  0  0  0  0  0
  139.2890   79.0660  221.8180 C   0  0  0  0  0  0  0  0  0  0  0  0
  140.1540   79.8350  222.5400 C   0  0  0  0  0  0  0  0  0  0  0  0
  139.7020   80.8880  223.4900 C   0  0  0  0  0  0  0  0  0  0  0  0
  139.1830   81.9740  222.8290 F   0  0  0  0  0  0  0  0  0  0  0  0
  140.8190   81.2870  224.2180 F   0  0  0  0  0  0  0  0  0  0  0  0
  138.8060   80.3520  224.4110 F   0  0  0  0  0  0  0  0  0  0  0  0
  141.5130   79.6060  222.3650 C   0  0  0  0  0  0  0  0  0  0  0  0
  141.9760   78.6290  221.4840 C   0  0  0  0  0  0  0  0  0  0  0  0
  139.8410   70.7680  223.6000 C   0  0  0  0  0  0  0  0  0  0  0  0
  139.2670   69.5060  223.7300 C   0  0  0  0  0  0  0  0  0  0  0  0
  139.1760   68.8670  224.9480 C   0  0  0  0  0  0  0  0  0  0  0  0
  139.6610   69.4720  226.0880 C   0  0  0  0  0  0  0  0  0  0  0  0
  139.5920   68.8700  227.3250 C   0  0  0  0  0  0  0  0  0  0  0  0
  140.0790   69.4850  228.4590 C   0  0  0  0  0  0  0  0  0  0  0  0
  140.6520   70.7440  228.3270 C   0  0  0  0  0  0  0  0  0  0  0  0
  140.7260   71.3570  227.0870 C   0  0  0  0  0  0  0  0  0  0  0  0
  140.2330   70.7370  225.9360 C   0  0  0  0  0  0  0  0  0  0  0  0
  140.3060   71.3380  224.7250 N   0  0  0  0  0  0  0  0  0  0  0  0
  139.5760   73.3640  223.1130 H   0  0  0  0  0  0  0  0  0  0  0  0
  140.4203   72.9540  220.2382 H   0  0  0  0  0  0  0  0  0  0  0  0
  138.8109   73.6656  220.5404 H   0  0  0  0  0  0  0  0  0  0  0  0
  142.1411   73.7237  219.3648 H   0  0  0  0  0  0  0  0  0  0  0  0
  141.1501   74.5943  218.1928 H   0  0  0  0  0  0  0  0  0  0  0  0
  143.9682   74.9624  218.7379 H   0  0  0  0  0  0  0  0  0  0  0  0
  143.0111   75.9290  217.6331 H   0  0  0  0  0  0  0  0  0  0  0  0
  143.5236   76.3817  220.6506 H   0  0  0  0  0  0  0  0  0  0  0  0
  143.5842   77.5970  219.4315 H   0  0  0  0  0  0  0  0  0  0  0  0
  141.0177   77.2423  218.9890 H   0  0  0  0  0  0  0  0  0  0  0  0
  139.0185   77.5063  220.3882 H   0  0  0  0  0  0  0  0  0  0  0  0
  138.2055   79.2183  221.9314 H   0  0  0  0  0  0  0  0  0  0  0  0
  142.2384   80.2073  222.9327 H   0  0  0  0  0  0  0  0  0  0  0  0
  143.0577   78.4692  221.3642 H   0  0  0  0  0  0  0  0  0  0  0  0
  138.8743   69.0038  222.8336 H   0  0  0  0  0  0  0  0  0  0  0  0
  138.7146   67.8704  225.0107 H   0  0  0  0  0  0  0  0  0  0  0  0
  139.1364   67.8724  227.4105 H   0  0  0  0  0  0  0  0  0  0  0  0
  140.0157   68.9927  229.4407 H   0  0  0  0  0  0  0  0  0  0  0  0
  141.0500   71.2580  229.2143 H   0  0  0  0  0  0  0  0  0  0  0  0
  141.1831   72.3543  227.0067 H   0  0  0  0  0  0  0  0  0  0  0  0
  1  2  2  0
  2  3  1  0
  3  4  1  0
  4  5  1  0
  5  6  2  0
  5  7  1  0
  7  8  1  0
  8  9  1  0
  9 10  1  0
 10 11  1  0
 11 12  1  0
 12 13  2  0
 13 14  1  0
 14 15  2  0
 15 16  1  0
 16 17  1  0
 16 18  1  0
 16 19  1  0
 15 20  1  0
 20 21  2  0
  2 22  1  0
 22 23  2  0
 23 24  1  0
 24 25  2  0
 25 26  1  0
 26 27  2  0
 27 28  1  0
 28 29  2  0
 29 30  1  0
 30 31  2  0
 11  7  1  0
 21 12  1  0
 31 22  1  0
 30 25  1  0
  3 32  1  0
  4 33  1  0
  4 34  1  0
  8 35  1  0
  8 36  1  0
  9 37  1  0
  9 38  1  0
 10 39  1  0
 10 40  1  0
 11 41  1  6
 13 42  1  0
 14 43  1  0
 20 44  1  0
 21 45  1  0
 23 46  1  0
 24 47  1  0
 26 48  1  0
 27 49  1  0
 28 50  1  0
 29 51  1  0
M  END
>  <smiles>  (38) 
O=C(NCC(=O)N1CCCC1c1ccc(C(F)(F)F)cc1)c1ccc2ccccc2n1

>  <score_type>  (38) 
oracle

>  <origin>  (38) 
autodockgpu

>  <m_score__min__energy>  (38) 
-8.4199999999999999

>  <m_primary>  (38) 
energy

>  <rmsd>  (38) 
1.7862720443359792

>  <m_score__min__rmsd>  (38) 
1.7862720443359792

>  <meeko>  (38) 
{"free_energy": -8.02, "intermolecular_energy": -9.81, "internal_energy": -2.0, "cluster_size": 14, "cluster_id": 1, "rank_in_cluster": 7}

>  <energy>  (38) 
-7.81

>  <cluster_rmsd>  (38) 
1.83

>  <cluster>  (38) 
4

$$$$

     RDKit          3D

 51 54  0  0  0  0  0  0  0  0999 V2000
  138.9230   75.1920  221.7700 O   0  0  0  0  0  0  0  0  0  0  0  0
  140.0890   75.6320  221.9570 C   0  0  0  0  0  0  0  0  0  0  0  0
  141.2540   74.8480  221.7700 N   0  0  0  0  0  0  0  0  0  0  0  0
  141.1690   73.4650  221.3420 C   0  0  0  0  0  0  0  0  0  0  0  0
  141.7260   73.3750  219.9410 C   0  0  0  0  0  0  0  0  0  0  0  0
  140.8760   73.2570  219.0350 O   0  0  0  0  0  0  0  0  0  0  0  0
  143.1190   73.4310  219.7700 N   0  0  0  0  0  0  0  0  0  0  0  0
  144.0560   72.3080  220.0370 C   0  0  0  0  0  0  0  0  0  0  0  0
  145.3480   72.9680  220.4650 C   0  0  0  0  0  0  0  0  0  0  0  0
  144.9880   74.4600  220.4960 C   0  0  0  0  0  0  0  0  0  0  0  0
  144.0130   74.4810  219.3410 C   0  0  2  0  0  0  0  0  0  0  0  0
  143.4490   75.7560  218.9950 C   0  0  0  0  0  0  0  0  0  0  0  0
  143.4740   76.2190  217.7010 C   0  0  0  0  0  0  0  0  0  0  0  0
  142.9250   77.4240  217.3410 C   0  0  0  0  0  0  0  0  0  0  0  0
  142.3210   78.2270  218.2630 C   0  0  0  0  0  0  0  0  0  0  0  0
  141.7130   79.5410  217.9200 C   0  0  0  0  0  0  0  0  0  0  0  0
  140.5410   79.7490  218.6040 F   0  0  0  0  0  0  0  0  0  0  0  0
  141.4480   79.5240  216.5540 F   0  0  0  0  0  0  0  0  0  0  0  0
  142.6330   80.5660  218.1260 F   0  0  0  0  0  0  0  0  0  0  0  0
  142.2850   77.7770  219.5770 C   0  0  0  0  0  0  0  0  0  0  0  0
  142.8440   76.5520  219.9390 C   0  0  0  0  0  0  0  0  0  0  0  0
  140.2470   77.0240  222.3900 C   0  0  0  0  0  0  0  0  0  0  0  0
  139.1320   77.8100  222.6650 C   0  0  0  0  0  0  0  0  0  0  0  0
  139.2460   79.1220  223.0740 C   0  0  0  0  0  0  0  0  0  0  0  0
  140.4890   79.6970  223.2240 C   0  0  0  0  0  0  0  0  0  0  0  0
  140.6500   81.0030  223.6310 C   0  0  0  0  0  0  0  0  0  0  0  0
  141.9000   81.5690  223.7770 C   0  0  0  0  0  0  0  0  0  0  0  0
  143.0120   80.7820  223.5030 C   0  0  0  0  0  0  0  0  0  0  0  0
  142.8600   79.4670  223.0930 C   0  0  0  0  0  0  0  0  0  0  0  0
  141.5950   78.8910  222.9440 C   0  0  0  0  0  0  0  0  0  0  0  0
  141.4490   77.6060  222.5430 N   0  0  0  0  0  0  0  0  0  0  0  0
  142.2010   75.2830  221.9460 H   0  0  0  0  0  0  0  0  0  0  0  0
  141.7569   72.8279  222.0191 H   0  0  0  0  0  0  0  0  0  0  0  0
  140.1237   73.1228  221.3604 H   0  0  0  0  0  0  0  0  0  0  0  0
  143.6675   71.6629  220.8388 H   0  0  0  0  0  0  0  0  0  0  0  0
  144.1931   71.6661  219.1543 H   0  0  0  0  0  0  0  0  0  0  0  0
  145.6593   72.6169  221.4599 H   0  0  0  0  0  0  0  0  0  0  0  0
  146.1901   72.7419  219.7943 H   0  0  0  0  0  0  0  0  0  0  0  0
  144.5131   74.7519  221.4443 H   0  0  0  0  0  0  0  0  0  0  0  0
  145.8354   75.1570  220.4177 H   0  0  0  0  0  0  0  0  0  0  0  0
  144.4560   74.3038  218.3499 H   0  0  0  0  0  0  0  0  0  0  0  0
  143.9513   75.6013  216.9261 H   0  0  0  0  0  0  0  0  0  0  0  0
  142.9729   77.7478  216.2908 H   0  0  0  0  0  0  0  0  0  0  0  0
  141.8060   78.3995  220.3471 H   0  0  0  0  0  0  0  0  0  0  0  0
  142.8007   76.2201  220.9868 H   0  0  0  0  0  0  0  0  0  0  0  0
  138.1295   77.3715  222.5527 H   0  0  0  0  0  0  0  0  0  0  0  0
  138.3409   79.7118  223.2813 H   0  0  0  0  0  0  0  0  0  0  0  0
  139.7586   81.6108  223.8453 H   0  0  0  0  0  0  0  0  0  0  0  0
  142.0130   82.6140  224.1012 H   0  0  0  0  0  0  0  0  0  0  0  0
  144.0210   81.2062  223.6124 H   0  0  0  0  0  0  0  0  0  0  0  0
  143.7544   78.8631  222.8801 H   0  0  0  0  0  0  0  0  0  0  0  0
  1  2  2  0
  2  3  1  0
  3  4  1  0
  4  5  1  0
  5  6  2  0
  5  7  1  0
  7  8  1  0
  8  9  1  0
  9 10  1  0
 10 11  1  0
 11 12  1  0
 12 13  2  0
 13 14  1  0
 14 15  2  0
 15 16  1  0
 16 17  1  0
 16 18  1  0
 16 19  1  0
 15 20  1  0
 20 21  2  0
  2 22  1  0
 22 23  2  0
 23 24  1  0
 24 25  2  0
 25 26  1  0
 26 27  2  0
 27 28  1  0
 28 29  2  0
 29 30  1  0
 30 31  2  0
 11  7  1  0
 21 12  1  0
 31 22  1  0
 30 25  1  0
  3 32  1  0
  4 33  1  0
  4 34  1  0
  8 35  1  0
  8 36  1  0
  9 37  1  0
  9 38  1  0
 10 39  1  0
 10 40  1  0
 11 41  1  6
 13 42  1  0
 14 43  1  0
 20 44  1  0
 21 45  1  0
 23 46  1  0
 24 47  1  0
 26 48  1  0
 27 49  1  0
 28 50  1  0
 29 51  1  0
M  END
>  <smiles>  (39) 
O=C(NCC(=O)N1CCCC1c1ccc(C(F)(F)F)cc1)c1ccc2ccccc2n1

>  <score_type>  (39) 
oracle

>  <origin>  (39) 
autodockgpu

>  <m_score__min__energy>  (39) 
-8.4199999999999999

>  <m_primary>  (39) 
energy

>  <rmsd>  (39) 
7.730656821976778

>  <m_score__min__rmsd>  (39) 
7.730656821976778

>  <meeko>  (39) 
{"free_energy": -7.4, "intermolecular_energy": -9.19, "internal_energy": -2.54, "cluster_size": 5, "cluster_id": 7, "rank_in_cluster": 2}

>  <energy>  (39) 
-7.8

>  <cluster_rmsd>  (39) 
1.77

>  <cluster>  (39) 
4

$$$$

     RDKit          3D

 51 54  0  0  0  0  0  0  0  0999 V2000
  141.0000   71.5240  221.3590 O   0  0  0  0  0  0  0  0  0  0  0  0
  140.4550   72.1460  222.3100 C   0  0  0  0  0  0  0  0  0  0  0  0
  140.0420   73.4980  222.2180 N   0  0  0  0  0  0  0  0  0  0  0  0
  140.2250   74.2590  220.9960 C   0  0  0  0  0  0  0  0  0  0  0  0
  138.9940   75.1070  220.7870 C   0  0  0  0  0  0  0  0  0  0  0  0
  138.8190   75.5140  219.6200 O   0  0  0  0  0  0  0  0  0  0  0  0
  138.1630   75.3650  221.8890 N   0  0  0  0  0  0  0  0  0  0  0  0
  137.0040   74.5270  222.2970 C   0  0  0  0  0  0  0  0  0  0  0  0
  136.0290   75.4910  222.9370 C   0  0  0  0  0  0  0  0  0  0  0  0
  136.7040   76.8560  222.7430 C   0  0  0  0  0  0  0  0  0  0  0  0
  138.1450   76.4170  222.8780 C   0  0  2  0  0  0  0  0  0  0  0  0
  139.1440   77.4460  222.7970 C   0  0  0  0  0  0  0  0  0  0  0  0
  140.4800   77.1370  222.7180 C   0  0  0  0  0  0  0  0  0  0  0  0
  141.4530   78.1000  222.6200 C   0  0  0  0  0  0  0  0  0  0  0  0
  141.1320   79.4260  222.5950 C   0  0  0  0  0  0  0  0  0  0  0  0
  142.1510   80.5040  222.4900 C   0  0  0  0  0  0  0  0  0  0  0  0
  142.1810   81.0490  221.2290 F   0  0  0  0  0  0  0  0  0  0  0  0
  143.3870   79.9270  222.7670 F   0  0  0  0  0  0  0  0  0  0  0  0
  141.9380   81.4650  223.4750 F   0  0  0  0  0  0  0  0  0  0  0  0
  139.7850   79.7590  222.6730 C   0  0  0  0  0  0  0  0  0  0  0  0
  138.8000   78.7770  222.7740 C   0  0  0  0  0  0  0  0  0  0  0  0
  140.2390   71.4350  223.5730 C   0  0  0  0  0  0  0  0  0  0  0  0
  139.5290   70.2390  223.6000 C   0  0  0  0  0  0  0  0  0  0  0  0
  139.3080   69.5450  224.7710 C   0  0  0  0  0  0  0  0  0  0  0  0
  139.7950   70.0290  225.9670 C   0  0  0  0  0  0  0  0  0  0  0  0
  139.5990   69.3700  227.1600 C   0  0  0  0  0  0  0  0  0  0  0  0
  140.0910   69.8630  228.3500 C   0  0  0  0  0  0  0  0  0  0  0  0
  140.8000   71.0580  228.3220 C   0  0  0  0  0  0  0  0  0  0  0  0
  141.0020   71.7280  227.1270 C   0  0  0  0  0  0  0  0  0  0  0  0
  140.5050   71.2310  225.9190 C   0  0  0  0  0  0  0  0  0  0  0  0
  140.7040   71.8870  224.7510 N   0  0  0  0  0  0  0  0  0  0  0  0
  139.5920   73.9570  223.0560 H   0  0  0  0  0  0  0  0  0  0  0  0
  141.1116   74.9037  221.0868 H   0  0  0  0  0  0  0  0  0  0  0  0
  140.3724   73.5816  220.1420 H   0  0  0  0  0  0  0  0  0  0  0  0
  136.5495   74.0427  221.4201 H   0  0  0  0  0  0  0  0  0  0  0  0
  137.2991   73.7208  222.9847 H   0  0  0  0  0  0  0  0  0  0  0  0
  135.0529   75.4585  222.4308 H   0  0  0  0  0  0  0  0  0  0  0  0
  135.8234   75.2584  223.9923 H   0  0  0  0  0  0  0  0  0  0  0  0
  136.4929   77.2853  221.7525 H   0  0  0  0  0  0  0  0  0  0  0  0
  136.3808   77.6501  223.4321 H   0  0  0  0  0  0  0  0  0  0  0  0
  138.4412   76.0807  223.8826 H   0  0  0  0  0  0  0  0  0  0  0  0
  140.7811   76.0791  222.7339 H   0  0  0  0  0  0  0  0  0  0  0  0
  142.5090   77.7979  222.5606 H   0  0  0  0  0  0  0  0  0  0  0  0
  139.4898   80.8185  222.6547 H   0  0  0  0  0  0  0  0  0  0  0  0
  137.7413   79.0691  222.8357 H   0  0  0  0  0  0  0  0  0  0  0  0
  139.1314   69.8341  222.6577 H   0  0  0  0  0  0  0  0  0  0  0  0
  138.7414   68.6023  224.7510 H   0  0  0  0  0  0  0  0  0  0  0  0
  139.0351   68.4255  227.1638 H   0  0  0  0  0  0  0  0  0  0  0  0
  139.9269   69.3253  229.2955 H   0  0  0  0  0  0  0  0  0  0  0  0
  141.2039   71.4749  229.2564 H   0  0  0  0  0  0  0  0  0  0  0  0
  141.5661   72.6723  227.1286 H   0  0  0  0  0  0  0  0  0  0  0  0
  1  2  2  0
  2  3  1  0
  3  4  1  0
  4  5  1  0
  5  6  2  0
  5  7  1  0
  7  8  1  0
  8  9  1  0
  9 10  1  0
 10 11  1  0
 11 12  1  0
 12 13  2  0
 13 14  1  0
 14 15  2  0
 15 16  1  0
 16 17  1  0
 16 18  1  0
 16 19  1  0
 15 20  1  0
 20 21  2  0
  2 22  1  0
 22 23  2  0
 23 24  1  0
 24 25  2  0
 25 26  1  0
 26 27  2  0
 27 28  1  0
 28 29  2  0
 29 30  1  0
 30 31  2  0
 11  7  1  0
 21 12  1  0
 31 22  1  0
 30 25  1  0
  3 32  1  0
  4 33  1  0
  4 34  1  0
  8 35  1  0
  8 36  1  0
  9 37  1  0
  9 38  1  0
 10 39  1  0
 10 40  1  0
 11 41  1  1
 13 42  1  0
 14 43  1  0
 20 44  1  0
 21 45  1  0
 23 46  1  0
 24 47  1  0
 26 48  1  0
 27 49  1  0
 28 50  1  0
 29 51  1  0
M  END
>  <smiles>  (40) 
O=C(NCC(=O)N1CCCC1c1ccc(C(F)(F)F)cc1)c1ccc2ccccc2n1

>  <score_type>  (40) 
oracle

>  <origin>  (40) 
autodockgpu

>  <m_score__min__energy>  (40) 
-8.4199999999999999

>  <m_primary>  (40) 
energy

>  <rmsd>  (40) 
3.3269432188854426

>  <m_score__min__rmsd>  (40) 
3.3269432188854426

>  <meeko>  (40) 
{"free_energy": -8.16, "intermolecular_energy": -9.94, "internal_energy": -1.6, "cluster_size": 14, "cluster_id": 1, "rank_in_cluster": 5}

>  <energy>  (40) 
-7.73

>  <cluster_rmsd>  (40) 
0.91

>  <cluster>  (40) 
4

$$$$

     RDKit          3D

 51 54  0  0  0  0  0  0  0  0999 V2000
  141.3060   71.7050  221.4440 O   0  0  0  0  0  0  0  0  0  0  0  0
  140.6440   72.2540  222.3660 C   0  0  0  0  0  0  0  0  0  0  0  0
  140.1600   73.5840  222.2880 N   0  0  0  0  0  0  0  0  0  0  0  0
  140.4030   74.4060  221.1180 C   0  0  0  0  0  0  0  0  0  0  0  0
  140.6600   75.8180  221.5870 C   0  0  0  0  0  0  0  0  0  0  0  0
  140.1220   76.1280  222.6690 O   0  0  0  0  0  0  0  0  0  0  0  0
  141.4630   76.6520  220.7910 N   0  0  0  0  0  0  0  0  0  0  0  0
  141.2940   78.1230  220.6570 C   0  0  0  0  0  0  0  0  0  0  0  0
  141.7670   78.4470  219.2570 C   0  0  0  0  0  0  0  0  0  0  0  0
  142.0860   77.0670  218.6650 C   0  0  0  0  0  0  0  0  0  0  0  0
  142.5870   76.3920  219.9220 C   0  0  2  0  0  0  0  0  0  0  0  0
  143.0460   75.0370  219.7880 C   0  0  0  0  0  0  0  0  0  0  0  0
  142.6950   74.2690  218.7040 C   0  0  0  0  0  0  0  0  0  0  0  0
  143.1360   72.9790  218.5430 C   0  0  0  0  0  0  0  0  0  0  0  0
  143.9540   72.3940  219.4640 C   0  0  0  0  0  0  0  0  0  0  0  0
  144.4570   71.0000  219.3310 C   0  0  0  0  0  0  0  0  0  0  0  0
  143.9330   70.3780  218.2250 F   0  0  0  0  0  0  0  0  0  0  0  0
  144.0590   70.3120  220.4740 F   0  0  0  0  0  0  0  0  0  0  0  0
  145.8490   70.9890  219.3340 F   0  0  0  0  0  0  0  0  0  0  0  0
  144.3210   73.1540  220.5680 C   0  0  0  0  0  0  0  0  0  0  0  0
  143.8700   74.4640  220.7280 C   0  0  0  0  0  0  0  0  0  0  0  0
  140.3620   71.4790  223.5770 C   0  0  0  0  0  0  0  0  0  0  0  0
  139.6940   70.2600  223.4980 C   0  0  0  0  0  0  0  0  0  0  0  0
  139.4130   69.5060  224.6170 C   0  0  0  0  0  0  0  0  0  0  0  0
  139.7950   69.9480  225.8660 C   0  0  0  0  0  0  0  0  0  0  0  0
  139.5370   69.2280  227.0110 C   0  0  0  0  0  0  0  0  0  0  0  0
  139.9230   69.6810  228.2560 C   0  0  0  0  0  0  0  0  0  0  0  0
  140.5910   70.8970  228.3320 C   0  0  0  0  0  0  0  0  0  0  0  0
  140.8550   71.6280  227.1870 C   0  0  0  0  0  0  0  0  0  0  0  0
  140.4650   71.1730  225.9240 C   0  0  0  0  0  0  0  0  0  0  0  0
  140.7240   71.8900  224.8050 N   0  0  0  0  0  0  0  0  0  0  0  0
  139.6120   73.9800  223.1000 H   0  0  0  0  0  0  0  0  0  0  0  0
  141.2799   74.0284  220.5717 H   0  0  0  0  0  0  0  0  0  0  0  0
  139.5342   74.3787  220.4438 H   0  0  0  0  0  0  0  0  0  0  0  0
  140.2378   78.4036  220.7826 H   0  0  0  0  0  0  0  0  0  0  0  0
  141.8602   78.6747  221.4218 H   0  0  0  0  0  0  0  0  0  0  0  0
  140.9768   78.9502  218.6805 H   0  0  0  0  0  0  0  0  0  0  0  0
  142.6273   79.1322  219.2406 H   0  0  0  0  0  0  0  0  0  0  0  0
  141.1907   76.5737  218.2587 H   0  0  0  0  0  0  0  0  0  0  0  0
  142.7807   77.0629  217.8121 H   0  0  0  0  0  0  0  0  0  0  0  0
  143.5417   76.7746  220.3121 H   0  0  0  0  0  0  0  0  0  0  0  0
  142.0367   74.7037  217.9374 H   0  0  0  0  0  0  0  0  0  0  0  0
  142.8243   72.4076  217.6562 H   0  0  0  0  0  0  0  0  0  0  0  0
  144.9802   72.7137  221.3307 H   0  0  0  0  0  0  0  0  0  0  0  0
  144.1755   75.0428  221.6121 H   0  0  0  0  0  0  0  0  0  0  0  0
  139.3807   69.8870  222.5117 H   0  0  0  0  0  0  0  0  0  0  0  0
  138.8821   68.5482  224.5133 H   0  0  0  0  0  0  0  0  0  0  0  0
  139.0092   68.2662  226.9312 H   0  0  0  0  0  0  0  0  0  0  0  0
  139.7080   69.0961  229.1625 H   0  0  0  0  0  0  0  0  0  0  0  0
  140.9128   71.2820  229.3109 H   0  0  0  0  0  0  0  0  0  0  0  0
  141.3837   72.5888  227.2726 H   0  0  0  0  0  0  0  0  0  0  0  0
  1  2  2  0
  2  3  1  0
  3  4  1  0
  4  5  1  0
  5  6  2  0
  5  7  1  0
  7  8  1  0
  8  9  1  0
  9 10  1  0
 10 11  1  0
 11 12  1  0
 12 13  2  0
 13 14  1  0
 14 15  2  0
 15 16  1  0
 16 17  1  0
 16 18  1  0
 16 19  1  0
 15 20  1  0
 20 21  2  0
  2 22  1  0
 22 23  2  0
 23 24  1  0
 24 25  2  0
 25 26  1  0
 26 27  2  0
 27 28  1  0
 28 29  2  0
 29 30  1  0
 30 31  2  0
 11  7  1  0
 21 12  1  0
 31 22  1  0
 30 25  1  0
  3 32  1  0
  4 33  1  0
  4 34  1  0
  8 35  1  0
  8 36  1  0
  9 37  1  0
  9 38  1  0
 10 39  1  0
 10 40  1  0
 11 41  1  1
 13 42  1  0
 14 43  1  0
 20 44  1  0
 21 45  1  0
 23 46  1  0
 24 47  1  0
 26 48  1  0
 27 49  1  0
 28 50  1  0
 29 51  1  0
M  END
>  <smiles>  (41) 
O=C(NCC(=O)N1CCCC1c1ccc(C(F)(F)F)cc1)c1ccc2ccccc2n1

>  <score_type>  (41) 
oracle

>  <origin>  (41) 
autodockgpu

>  <m_score__min__energy>  (41) 
-8.4199999999999999

>  <m_primary>  (41) 
energy

>  <rmsd>  (41) 
2.2935357096477538

>  <m_score__min__rmsd>  (41) 
2.2935357096477538

>  <meeko>  (41) 
{"free_energy": -7.81, "intermolecular_energy": -9.6, "internal_energy": -2.27, "cluster_size": 19, "cluster_id": 4, "rank_in_cluster": 16}

>  <energy>  (41) 
-7.62

>  <cluster_rmsd>  (41) 
1.4

>  <cluster>  (41) 
4

$$$$

     RDKit          3D

 51 54  0  0  0  0  0  0  0  0999 V2000
  141.2950   71.6490  221.4590 O   0  0  0  0  0  0  0  0  0  0  0  0
  140.6370   72.2250  222.3680 C   0  0  0  0  0  0  0  0  0  0  0  0
  140.1860   73.5640  222.2700 N   0  0  0  0  0  0  0  0  0  0  0  0
  140.4590   74.3660  221.0930 C   0  0  0  0  0  0  0  0  0  0  0  0
  140.7540   75.7760  221.5480 C   0  0  0  0  0  0  0  0  0  0  0  0
  140.2810   76.0870  222.6600 O   0  0  0  0  0  0  0  0  0  0  0  0
  141.5180   76.6040  220.7090 N   0  0  0  0  0  0  0  0  0  0  0  0
  141.3150   78.0680  220.5440 C   0  0  0  0  0  0  0  0  0  0  0  0
  141.7420   78.3650  219.1240 C   0  0  0  0  0  0  0  0  0  0  0  0
  142.0710   76.9770  218.5570 C   0  0  0  0  0  0  0  0  0  0  0  0
  142.6210   76.3440  219.8150 C   0  0  2  0  0  0  0  0  0  0  0  0
  143.1030   74.9950  219.7020 C   0  0  0  0  0  0  0  0  0  0  0  0
  144.0990   74.5230  220.5220 C   0  0  0  0  0  0  0  0  0  0  0  0
  144.5630   73.2330  220.4480 C   0  0  0  0  0  0  0  0  0  0  0  0
  144.0480   72.3500  219.5440 C   0  0  0  0  0  0  0  0  0  0  0  0
  144.5190   70.9440  219.4270 C   0  0  0  0  0  0  0  0  0  0  0  0
  145.8890   70.8740  219.3610 F   0  0  0  0  0  0  0  0  0  0  0  0
  143.9780   70.4280  218.2530 F   0  0  0  0  0  0  0  0  0  0  0  0
  144.0020   70.1750  220.4670 F   0  0  0  0  0  0  0  0  0  0  0  0
  143.0390   72.8080  218.7060 C   0  0  0  0  0  0  0  0  0  0  0  0
  142.5710   74.1190  218.7850 C   0  0  0  0  0  0  0  0  0  0  0  0
  140.3250   71.4700  223.5850 C   0  0  0  0  0  0  0  0  0  0  0  0
  139.6290   70.2670  223.5130 C   0  0  0  0  0  0  0  0  0  0  0  0
  139.3200   69.5340  224.6390 C   0  0  0  0  0  0  0  0  0  0  0  0
  139.7010   69.9810  225.8860 C   0  0  0  0  0  0  0  0  0  0  0  0
  139.4140   69.2800  227.0370 C   0  0  0  0  0  0  0  0  0  0  0  0
  139.8000   69.7380  228.2800 C   0  0  0  0  0  0  0  0  0  0  0  0
  140.4960   70.9390  228.3490 C   0  0  0  0  0  0  0  0  0  0  0  0
  140.7890   71.6500  227.1970 C   0  0  0  0  0  0  0  0  0  0  0  0
  140.3990   71.1900  225.9370 C   0  0  0  0  0  0  0  0  0  0  0  0
  140.6870   71.8870  224.8120 N   0  0  0  0  0  0  0  0  0  0  0  0
  139.6390   73.9830  223.0720 H   0  0  0  0  0  0  0  0  0  0  0  0
  141.3277   73.9574  220.5560 H   0  0  0  0  0  0  0  0  0  0  0  0
  139.5933   74.3563  220.4144 H   0  0  0  0  0  0  0  0  0  0  0  0
  140.2572   78.3308  220.6926 H   0  0  0  0  0  0  0  0  0  0  0  0
  141.8905   78.6502  221.2788 H   0  0  0  0  0  0  0  0  0  0  0  0
  140.9263   78.8387  218.5581 H   0  0  0  0  0  0  0  0  0  0  0  0
  142.5883   79.0654  219.0664 H   0  0  0  0  0  0  0  0  0  0  0  0
  141.1744   76.4566  218.1893 H   0  0  0  0  0  0  0  0  0  0  0  0
  142.7407   76.9645  217.6845 H   0  0  0  0  0  0  0  0  0  0  0  0
  143.5787   76.7548  220.1671 H   0  0  0  0  0  0  0  0  0  0  0  0
  144.5408   75.2034  221.2649 H   0  0  0  0  0  0  0  0  0  0  0  0
  145.3629   72.9059  221.1285 H   0  0  0  0  0  0  0  0  0  0  0  0
  142.6007   72.1228  217.9655 H   0  0  0  0  0  0  0  0  0  0  0  0
  141.7707   74.4549  218.1092 H   0  0  0  0  0  0  0  0  0  0  0  0
  139.3161   69.8897  222.5282 H   0  0  0  0  0  0  0  0  0  0  0  0
  138.7669   68.5881  224.5419 H   0  0  0  0  0  0  0  0  0  0  0  0
  138.8630   68.3308  226.9630 H   0  0  0  0  0  0  0  0  0  0  0  0
  139.5635   69.1685  229.1909 H   0  0  0  0  0  0  0  0  0  0  0  0
  140.8168   71.3281  229.3266 H   0  0  0  0  0  0  0  0  0  0  0  0
  141.3412   72.5981  227.2761 H   0  0  0  0  0  0  0  0  0  0  0  0
  1  2  2  0
  2  3  1  0
  3  4  1  0
  4  5  1  0
  5  6  2  0
  5  7  1  0
  7  8  1  0
  8  9  1  0
  9 10  1  0
 10 11  1  0
 11 12  1  0
 12 13  2  0
 13 14  1  0
 14 15  2  0
 15 16  1  0
 16 17  1  0
 16 18  1  0
 16 19  1  0
 15 20  1  0
 20 21  2  0
  2 22  1  0
 22 23  2  0
 23 24  1  0
 24 25  2  0
 25 26  1  0
 26 27  2  0
 27 28  1  0
 28 29  2  0
 29 30  1  0
 30 31  2  0
 11  7  1  0
 21 12  1  0
 31 22  1  0
 30 25  1  0
  3 32  1  0
  4 33  1  0
  4 34  1  0
  8 35  1  0
  8 36  1  0
  9 37  1  0
  9 38  1  0
 10 39  1  0
 10 40  1  0
 11 41  1  1
 13 42  1  0
 14 43  1  0
 20 44  1  0
 21 45  1  0
 23 46  1  0
 24 47  1  0
 26 48  1  0
 27 49  1  0
 28 50  1  0
 29 51  1  0
M  END
>  <smiles>  (42) 
O=C(NCC(=O)N1CCCC1c1ccc(C(F)(F)F)cc1)c1ccc2ccccc2n1

>  <score_type>  (42) 
oracle

>  <origin>  (42) 
autodockgpu

>  <m_score__min__energy>  (42) 
-8.4199999999999999

>  <m_primary>  (42) 
energy

>  <rmsd>  (42) 
2.280221652555434

>  <m_score__min__rmsd>  (42) 
2.280221652555434

>  <meeko>  (42) 
{"free_energy": -7.9, "intermolecular_energy": -9.69, "internal_energy": -2.24, "cluster_size": 19, "cluster_id": 4, "rank_in_cluster": 7}

>  <energy>  (42) 
-7.97

>  <cluster_rmsd>  (42) 
0.0

>  <cluster>  (42) 
5

$$$$

     RDKit          3D

 51 54  0  0  0  0  0  0  0  0999 V2000
  138.8900   75.1880  221.7960 O   0  0  0  0  0  0  0  0  0  0  0  0
  140.0550   75.6470  221.9390 C   0  0  0  0  0  0  0  0  0  0  0  0
  141.2250   74.8750  221.7300 N   0  0  0  0  0  0  0  0  0  0  0  0
  141.1460   73.4830  221.3290 C   0  0  0  0  0  0  0  0  0  0  0  0
  141.7050   73.3680  219.9310 C   0  0  0  0  0  0  0  0  0  0  0  0
  140.8570   73.2220  219.0280 O   0  0  0  0  0  0  0  0  0  0  0  0
  143.0980   73.4330  219.7600 N   0  0  0  0  0  0  0  0  0  0  0  0
  144.0430   72.3200  220.0390 C   0  0  0  0  0  0  0  0  0  0  0  0
  145.3300   72.9940  220.4600 C   0  0  0  0  0  0  0  0  0  0  0  0
  144.9590   74.4840  220.4760 C   0  0  0  0  0  0  0  0  0  0  0  0
  143.9830   74.4850  219.3200 C   0  0  2  0  0  0  0  0  0  0  0  0
  143.4100   75.7530  218.9610 C   0  0  0  0  0  0  0  0  0  0  0  0
  142.8010   76.5510  219.8980 C   0  0  0  0  0  0  0  0  0  0  0  0
  142.2640   77.7750  219.5850 C   0  0  0  0  0  0  0  0  0  0  0  0
  142.3120   78.2590  218.3110 C   0  0  0  0  0  0  0  0  0  0  0  0
  141.7430   79.5790  217.9240 C   0  0  0  0  0  0  0  0  0  0  0  0
  141.6800   79.7210  216.5590 F   0  0  0  0  0  0  0  0  0  0  0  0
  142.5850   80.5550  218.4470 F   0  0  0  0  0  0  0  0  0  0  0  0
  140.5040   79.7650  218.5310 F   0  0  0  0  0  0  0  0  0  0  0  0
  142.9240   77.4670  217.3470 C   0  0  0  0  0  0  0  0  0  0  0  0
  143.4680   76.2240  217.6700 C   0  0  0  0  0  0  0  0  0  0  0  0
  140.2070   77.0480  222.3420 C   0  0  0  0  0  0  0  0  0  0  0  0
  139.0880   77.8440  222.5690 C   0  0  0  0  0  0  0  0  0  0  0  0
  139.1960   79.1650  222.9490 C   0  0  0  0  0  0  0  0  0  0  0  0
  140.4380   79.7400  223.1180 C   0  0  0  0  0  0  0  0  0  0  0  0
  140.5930   81.0550  223.4970 C   0  0  0  0  0  0  0  0  0  0  0  0
  141.8400   81.6200  223.6620 C   0  0  0  0  0  0  0  0  0  0  0  0
  142.9560   80.8230  223.4350 C   0  0  0  0  0  0  0  0  0  0  0  0
  142.8100   79.5000  223.0540 C   0  0  0  0  0  0  0  0  0  0  0  0
  141.5480   78.9240  222.8850 C   0  0  0  0  0  0  0  0  0  0  0  0
  141.4070   77.6300  222.5120 N   0  0  0  0  0  0  0  0  0  0  0  0
  142.1710   75.3260  221.8690 H   0  0  0  0  0  0  0  0  0  0  0  0
  141.7356   72.8616  222.0191 H   0  0  0  0  0  0  0  0  0  0  0  0
  140.1021   73.1370  221.3529 H   0  0  0  0  0  0  0  0  0  0  0  0
  143.6591   71.6807  220.8476 H   0  0  0  0  0  0  0  0  0  0  0  0
  144.1849   71.6697  219.1632 H   0  0  0  0  0  0  0  0  0  0  0  0
  145.6440   72.6553  221.4583 H   0  0  0  0  0  0  0  0  0  0  0  0
  146.1736   72.7674  219.7914 H   0  0  0  0  0  0  0  0  0  0  0  0
  144.4820   74.7821  221.4213 H   0  0  0  0  0  0  0  0  0  0  0  0
  145.8010   75.1867  220.3906 H   0  0  0  0  0  0  0  0  0  0  0  0
  144.4261   74.3002  218.3303 H   0  0  0  0  0  0  0  0  0  0  0  0
  142.7412   76.1964  220.9376 H   0  0  0  0  0  0  0  0  0  0  0  0
  141.7875   78.3749  220.3744 H   0  0  0  0  0  0  0  0  0  0  0  0
  142.9805   77.8273  216.3092 H   0  0  0  0  0  0  0  0  0  0  0  0
  143.9464   75.6166  216.8875 H   0  0  0  0  0  0  0  0  0  0  0  0
  138.0871   77.4059  222.4414 H   0  0  0  0  0  0  0  0  0  0  0  0
  138.2880   79.7625  223.1180 H   0  0  0  0  0  0  0  0  0  0  0  0
  139.6986   81.6707  223.6727 H   0  0  0  0  0  0  0  0  0  0  0  0
  141.9486   82.6719  223.9648 H   0  0  0  0  0  0  0  0  0  0  0  0
  143.9634   81.2469  223.5591 H   0  0  0  0  0  0  0  0  0  0  0  0
  143.7077   78.8884  222.8804 H   0  0  0  0  0  0  0  0  0  0  0  0
  1  2  2  0
  2  3  1  0
  3  4  1  0
  4  5  1  0
  5  6  2  0
  5  7  1  0
  7  8  1  0
  8  9  1  0
  9 10  1  0
 10 11  1  0
 11 12  1  0
 12 13  2  0
 13 14  1  0
 14 15  2  0
 15 16  1  0
 16 17  1  0
 16 18  1  0
 16 19  1  0
 15 20  1  0
 20 21  2  0
  2 22  1  0
 22 23  2  0
 23 24  1  0
 24 25  2  0
 25 26  1  0
 26 27  2  0
 27 28  1  0
 28 29  2  0
 29 30  1  0
 30 31  2  0
 11  7  1  0
 21 12  1  0
 31 22  1  0
 30 25  1  0
  3 32  1  0
  4 33  1  0
  4 34  1  0
  8 35  1  0
  8 36  1  0
  9 37  1  0
  9 38  1  0
 10 39  1  0
 10 40  1  0
 11 41  1  6
 13 42  1  0
 14 43  1  0
 20 44  1  0
 21 45  1  0
 23 46  1  0
 24 47  1  0
 26 48  1  0
 27 49  1  0
 28 50  1  0
 29 51  1  0
M  END
>  <smiles>  (43) 
O=C(NCC(=O)N1CCCC1c1ccc(C(F)(F)F)cc1)c1ccc2ccccc2n1

>  <score_type>  (43) 
oracle

>  <origin>  (43) 
autodockgpu

>  <m_score__min__energy>  (43) 
-8.4199999999999999

>  <m_primary>  (43) 
energy

>  <rmsd>  (43) 
7.754284319848568

>  <m_score__min__rmsd>  (43) 
7.754284319848568

>  <meeko>  (43) 
{"free_energy": -7.41, "intermolecular_energy": -9.2, "internal_energy": -2.55, "cluster_size": 5, "cluster_id": 7, "rank_in_cluster": 1}

>  <energy>  (43) 
-7.44

>  <cluster_rmsd>  (43) 
0.0

>  <cluster>  (43) 
6

$$$$

     RDKit          3D

 51 54  0  0  0  0  0  0  0  0999 V2000
  140.0890   70.6490  221.2950 O   0  0  0  0  0  0  0  0  0  0  0  0
  139.8910   71.3730  222.3070 C   0  0  0  0  0  0  0  0  0  0  0  0
  139.7370   72.7800  222.2370 N   0  0  0  0  0  0  0  0  0  0  0  0
  139.7970   73.4810  220.9690 C   0  0  0  0  0  0  0  0  0  0  0  0
  140.5150   74.7910  221.1940 C   0  0  0  0  0  0  0  0  0  0  0  0
  140.4160   75.2610  222.3460 O   0  0  0  0  0  0  0  0  0  0  0  0
  141.2190   75.3610  220.1220 N   0  0  0  0  0  0  0  0  0  0  0  0
  141.7760   74.6040  218.9700 C   0  0  0  0  0  0  0  0  0  0  0  0
  143.0010   75.3830  218.5430 C   0  0  0  0  0  0  0  0  0  0  0  0
  143.0870   76.5030  219.5900 C   0  0  0  0  0  0  0  0  0  0  0  0
  141.6070   76.7170  219.8140 C   0  0  2  0  0  0  0  0  0  0  0  0
  141.2380   77.7570  220.7350 C   0  0  0  0  0  0  0  0  0  0  0  0
  142.1860   78.5570  221.3240 C   0  0  0  0  0  0  0  0  0  0  0  0
  141.8590   79.5700  222.1900 C   0  0  0  0  0  0  0  0  0  0  0  0
  140.5580   79.8310  222.5090 C   0  0  0  0  0  0  0  0  0  0  0  0
  140.1550   80.9170  223.4430 C   0  0  0  0  0  0  0  0  0  0  0  0
  141.2080   81.3290  224.2220 F   0  0  0  0  0  0  0  0  0  0  0  0
  139.1550   80.4020  224.2620 F   0  0  0  0  0  0  0  0  0  0  0  0
  139.5780   81.9690  222.7360 F   0  0  0  0  0  0  0  0  0  0  0  0
  139.5830   79.0330  221.9230 C   0  0  0  0  0  0  0  0  0  0  0  0
  139.9210   78.0050  221.0430 C   0  0  0  0  0  0  0  0  0  0  0  0
  139.8180   70.7280  223.6210 C   0  0  0  0  0  0  0  0  0  0  0  0
  139.2330   69.4730  223.7620 C   0  0  0  0  0  0  0  0  0  0  0  0
  139.1490   68.8390  224.9830 C   0  0  0  0  0  0  0  0  0  0  0  0
  139.6520   69.4420  226.1160 C   0  0  0  0  0  0  0  0  0  0  0  0
  139.5900   68.8460  227.3560 C   0  0  0  0  0  0  0  0  0  0  0  0
  140.0970   69.4590  228.4820 C   0  0  0  0  0  0  0  0  0  0  0  0
  140.6810   70.7120  228.3390 C   0  0  0  0  0  0  0  0  0  0  0  0
  140.7480   71.3200  227.0970 C   0  0  0  0  0  0  0  0  0  0  0  0
  140.2360   70.7010  225.9530 C   0  0  0  0  0  0  0  0  0  0  0  0
  140.3020   71.2970  224.7390 N   0  0  0  0  0  0  0  0  0  0  0  0
  139.5740   73.3240  223.1280 H   0  0  0  0  0  0  0  0  0  0  0  0
  140.3466   72.8755  220.2332 H   0  0  0  0  0  0  0  0  0  0  0  0
  138.7827   73.6621  220.5838 H   0  0  0  0  0  0  0  0  0  0  0  0
  142.0536   73.5844  219.2756 H   0  0  0  0  0  0  0  0  0  0  0  0
  141.0470   74.5010  218.1527 H   0  0  0  0  0  0  0  0  0  0  0  0
  143.8999   74.7495  218.5683 H   0  0  0  0  0  0  0  0  0  0  0  0
  142.9345   75.7605  217.5119 H   0  0  0  0  0  0  0  0  0  0  0  0
  143.6014   76.1755  220.5055 H   0  0  0  0  0  0  0  0  0  0  0  0
  143.6577   77.3941  219.2895 H   0  0  0  0  0  0  0  0  0  0  0  0
  141.0602   77.1480  218.9624 H   0  0  0  0  0  0  0  0  0  0  0  0
  143.2467   78.3793  221.0931 H   0  0  0  0  0  0  0  0  0  0  0  0
  142.6583   80.1814  222.6342 H   0  0  0  0  0  0  0  0  0  0  0  0
  138.5239   79.2156  222.1577 H   0  0  0  0  0  0  0  0  0  0  0  0
  139.1290   77.3887  220.5925 H   0  0  0  0  0  0  0  0  0  0  0  0
  138.8252   68.9718  222.8718 H   0  0  0  0  0  0  0  0  0  0  0  0
  138.6784   67.8473  225.0537 H   0  0  0  0  0  0  0  0  0  0  0  0
  139.1235   67.8543  227.4505 H   0  0  0  0  0  0  0  0  0  0  0  0
  140.0409   68.9702  229.4658 H   0  0  0  0  0  0  0  0  0  0  0  0
  141.0935   71.2251  229.2202 H   0  0  0  0  0  0  0  0  0  0  0  0
  141.2145   72.3122  227.0084 H   0  0  0  0  0  0  0  0  0  0  0  0
  1  2  2  0
  2  3  1  0
  3  4  1  0
  4  5  1  0
  5  6  2  0
  5  7  1  0
  7  8  1  0
  8  9  1  0
  9 10  1  0
 10 11  1  0
 11 12  1  0
 12 13  2  0
 13 14  1  0
 14 15  2  0
 15 16  1  0
 16 17  1  0
 16 18  1  0
 16 19  1  0
 15 20  1  0
 20 21  2  0
  2 22  1  0
 22 23  2  0
 23 24  1  0
 24 25  2  0
 25 26  1  0
 26 27  2  0
 27 28  1  0
 28 29  2  0
 29 30  1  0
 30 31  2  0
 11  7  1  0
 21 12  1  0
 31 22  1  0
 30 25  1  0
  3 32  1  0
  4 33  1  0
  4 34  1  0
  8 35  1  0
  8 36  1  0
  9 37  1  0
  9 38  1  0
 10 39  1  0
 10 40  1  0
 11 41  1  6
 13 42  1  0
 14 43  1  0
 20 44  1  0
 21 45  1  0
 23 46  1  0
 24 47  1  0
 26 48  1  0
 27 49  1  0
 28 50  1  0
 29 51  1  0
M  END
>  <smiles>  (44) 
O=C(NCC(=O)N1CCCC1c1ccc(C(F)(F)F)cc1)c1ccc2ccccc2n1

>  <score_type>  (44) 
oracle

>  <origin>  (44) 
autodockgpu

>  <m_score__min__energy>  (44) 
-8.4199999999999999

>  <m_primary>  (44) 
energy

>  <rmsd>  (44) 
1.7690854418245998

>  <m_score__min__rmsd>  (44) 
1.7690854418245998

>  <meeko>  (44) 
{"free_energy": -8.01, "intermolecular_energy": -9.8, "internal_energy": -1.97, "cluster_size": 14, "cluster_id": 1, "rank_in_cluster": 8}

>  <energy>  (44) 
-7.41

>  <cluster_rmsd>  (44) 
0.0

>  <cluster>  (44) 
7

$$$$

     RDKit          3D

 51 54  0  0  0  0  0  0  0  0999 V2000
  137.2130   76.3820  222.3570 O   0  0  0  0  0  0  0  0  0  0  0  0
  138.4730   76.4120  222.3430 C   0  0  0  0  0  0  0  0  0  0  0  0
  139.2710   75.2980  221.9820 N   0  0  0  0  0  0  0  0  0  0  0  0
  138.6710   74.0350  221.5970 C   0  0  0  0  0  0  0  0  0  0  0  0
  139.6500   72.9340  221.9280 C   0  0  0  0  0  0  0  0  0  0  0  0
  140.7170   73.3100  222.4570 O   0  0  0  0  0  0  0  0  0  0  0  0
  139.2960   71.6090  221.6240 N   0  0  0  0  0  0  0  0  0  0  0  0
  138.8650   71.1290  220.2850 C   0  0  0  0  0  0  0  0  0  0  0  0
  137.9120   69.9880  220.5650 C   0  0  0  0  0  0  0  0  0  0  0  0
  137.8080   69.9840  222.0960 C   0  0  0  0  0  0  0  0  0  0  0  0
  139.2230   70.4070  222.4200 C   0  0  2  0  0  0  0  0  0  0  0  0
  139.5700   70.4890  223.8120 C   0  0  0  0  0  0  0  0  0  0  0  0
  140.6680   71.1990  224.2320 C   0  0  0  0  0  0  0  0  0  0  0  0
  141.0100   71.3100  225.5570 C   0  0  0  0  0  0  0  0  0  0  0  0
  140.2640   70.7110  226.5290 C   0  0  0  0  0  0  0  0  0  0  0  0
  140.5950   70.8030  227.9760 C   0  0  0  0  0  0  0  0  0  0  0  0
  139.4710   71.0010  228.7400 F   0  0  0  0  0  0  0  0  0  0  0  0
  141.4500   71.8910  228.1320 F   0  0  0  0  0  0  0  0  0  0  0  0
  141.3150   69.6800  228.3770 F   0  0  0  0  0  0  0  0  0  0  0  0
  139.1480   69.9880  226.1250 C   0  0  0  0  0  0  0  0  0  0  0  0
  138.8050   69.8780  224.7780 C   0  0  0  0  0  0  0  0  0  0  0  0
  139.1440   77.6590  222.7210 C   0  0  0  0  0  0  0  0  0  0  0  0
  138.4040   78.7750  223.0980 C   0  0  0  0  0  0  0  0  0  0  0  0
  139.0050   79.9620  223.4580 C   0  0  0  0  0  0  0  0  0  0  0  0
  140.3780   80.0750  223.4540 C   0  0  0  0  0  0  0  0  0  0  0  0
  141.0210   81.2420  223.8070 C   0  0  0  0  0  0  0  0  0  0  0  0
  142.3960   81.3430  223.7990 C   0  0  0  0  0  0  0  0  0  0  0  0
  143.1340   80.2270  223.4220 C   0  0  0  0  0  0  0  0  0  0  0  0
  142.4970   79.0500  223.0660 C   0  0  0  0  0  0  0  0  0  0  0  0
  141.1030   78.9440  223.0730 C   0  0  0  0  0  0  0  0  0  0  0  0
  140.4830   77.7920  222.7240 N   0  0  0  0  0  0  0  0  0  0  0  0
  140.3240   75.3940  221.9930 H   0  0  0  0  0  0  0  0  0  0  0  0
  137.7345   73.8816  222.1532 H   0  0  0  0  0  0  0  0  0  0  0  0
  138.4422   74.0326  220.5211 H   0  0  0  0  0  0  0  0  0  0  0  0
  138.3549   71.9318  219.7325 H   0  0  0  0  0  0  0  0  0  0  0  0
  139.7174   70.8124  219.6660 H   0  0  0  0  0  0  0  0  0  0  0  0
  136.9305   70.1719  220.1037 H   0  0  0  0  0  0  0  0  0  0  0  0
  138.2570   69.0277  220.1541 H   0  0  0  0  0  0  0  0  0  0  0  0
  137.0652   70.7078  222.4625 H   0  0  0  0  0  0  0  0  0  0  0  0
  137.4776   69.0377  222.5491 H   0  0  0  0  0  0  0  0  0  0  0  0
  140.0014   69.6695  222.1746 H   0  0  0  0  0  0  0  0  0  0  0  0
  141.2966   71.6971  223.4791 H   0  0  0  0  0  0  0  0  0  0  0  0
  141.9001   71.8915  225.8392 H   0  0  0  0  0  0  0  0  0  0  0  0
  138.5230   69.4928  226.8827 H   0  0  0  0  0  0  0  0  0  0  0  0
  137.9167   69.2987  224.4860 H   0  0  0  0  0  0  0  0  0  0  0  0
  137.3061   78.7081  223.1092 H   0  0  0  0  0  0  0  0  0  0  0  0
  138.3856   80.8229  223.7498 H   0  0  0  0  0  0  0  0  0  0  0  0
  140.4215   82.1155  224.1028 H   0  0  0  0  0  0  0  0  0  0  0  0
  142.8953   82.2810  224.0832 H   0  0  0  0  0  0  0  0  0  0  0  0
  144.2327   80.2792  223.4063 H   0  0  0  0  0  0  0  0  0  0  0  0
  143.1012   78.1793  222.7712 H   0  0  0  0  0  0  0  0  0  0  0  0
  1  2  2  0
  2  3  1  0
  3  4  1  0
  4  5  1  0
  5  6  2  0
  5  7  1  0
  7  8  1  0
  8  9  1  0
  9 10  1  0
 10 11  1  0
 11 12  1  0
 12 13  2  0
 13 14  1  0
 14 15  2  0
 15 16  1  0
 16 17  1  0
 16 18  1  0
 16 19  1  0
 15 20  1  0
 20 21  2  0
  2 22  1  0
 22 23  2  0
 23 24  1  0
 24 25  2  0
 25 26  1  0
 26 27  2  0
 27 28  1  0
 28 29  2  0
 29 30  1  0
 30 31  2  0
 11  7  1  0
 21 12  1  0
 31 22  1  0
 30 25  1  0
  3 32  1  0
  4 33  1  0
  4 34  1  0
  8 35  1  0
  8 36  1  0
  9 37  1  0
  9 38  1  0
 10 39  1  0
 10 40  1  0
 11 41  1  6
 13 42  1  0
 14 43  1  0
 20 44  1  0
 21 45  1  0
 23 46  1  0
 24 47  1  0
 26 48  1  0
 27 49  1  0
 28 50  1  0
 29 51  1  0
M  END
>  <smiles>  (45) 
O=C(NCC(=O)N1CCCC1c1ccc(C(F)(F)F)cc1)c1ccc2ccccc2n1

>  <score_type>  (45) 
oracle

>  <origin>  (45) 
autodockgpu

>  <m_score__min__energy>  (45) 
-8.4199999999999999

>  <m_primary>  (45) 
energy

>  <rmsd>  (45) 
8.17504102042714

>  <m_score__min__rmsd>  (45) 
8.17504102042714

>  <meeko>  (45) 
{"free_energy": -8.03, "intermolecular_energy": -9.82, "internal_energy": -1.99, "cluster_size": 7, "cluster_id": 2, "rank_in_cluster": 6}

>  <energy>  (45) 
-7.4

>  <cluster_rmsd>  (45) 
0.11

>  <cluster>  (45) 
7

$$$$

     RDKit          3D

 51 54  0  0  0  0  0  0  0  0999 V2000
  138.9000   75.1690  221.8530 O   0  0  0  0  0  0  0  0  0  0  0  0
  140.0650   75.6270  221.9970 C   0  0  0  0  0  0  0  0  0  0  0  0
  141.2340   74.8490  221.8080 N   0  0  0  0  0  0  0  0  0  0  0  0
  141.1550   73.4510  221.4280 C   0  0  0  0  0  0  0  0  0  0  0  0
  141.6880   73.3200  220.0210 C   0  0  0  0  0  0  0  0  0  0  0  0
  140.8220   73.1800  219.1340 O   0  0  0  0  0  0  0  0  0  0  0  0
  143.0780   73.3660  219.8250 N   0  0  0  0  0  0  0  0  0  0  0  0
  144.0110   72.2380  220.0830 C   0  0  0  0  0  0  0  0  0  0  0  0
  145.3160   72.8920  220.4830 C   0  0  0  0  0  0  0  0  0  0  0  0
  144.9670   74.3870  220.5100 C   0  0  0  0  0  0  0  0  0  0  0  0
  143.9700   74.4060  219.3720 C   0  0  2  0  0  0  0  0  0  0  0  0
  143.4090   75.6830  219.0270 C   0  0  0  0  0  0  0  0  0  0  0  0
  142.8400   76.4920  219.9800 C   0  0  0  0  0  0  0  0  0  0  0  0
  142.3150   77.7250  219.6810 C   0  0  0  0  0  0  0  0  0  0  0  0
  142.3360   78.2080  218.4050 C   0  0  0  0  0  0  0  0  0  0  0  0
  141.7800   79.5370  218.0330 C   0  0  0  0  0  0  0  0  0  0  0  0
  142.6190   80.5580  218.4060 F   0  0  0  0  0  0  0  0  0  0  0  0
  140.5670   79.6740  218.7020 F   0  0  0  0  0  0  0  0  0  0  0  0
  141.4810   79.5690  216.6730 F   0  0  0  0  0  0  0  0  0  0  0  0
  142.9080   77.4050  217.4260 C   0  0  0  0  0  0  0  0  0  0  0  0
  143.4400   76.1530  217.7350 C   0  0  0  0  0  0  0  0  0  0  0  0
  140.2170   77.0330  222.3810 C   0  0  0  0  0  0  0  0  0  0  0  0
  139.1010   77.8490  222.5350 C   0  0  0  0  0  0  0  0  0  0  0  0
  139.2090   79.1760  222.8950 C   0  0  0  0  0  0  0  0  0  0  0  0
  140.4490   79.7370  223.1150 C   0  0  0  0  0  0  0  0  0  0  0  0
  140.6050   81.0570  223.4760 C   0  0  0  0  0  0  0  0  0  0  0  0
  141.8500   81.6080  223.6930 C   0  0  0  0  0  0  0  0  0  0  0  0
  142.9640   80.7910  223.5390 C   0  0  0  0  0  0  0  0  0  0  0  0
  142.8180   79.4620  223.1760 C   0  0  0  0  0  0  0  0  0  0  0  0
  141.5570   78.9010  222.9550 C   0  0  0  0  0  0  0  0  0  0  0  0
  141.4160   77.6020  222.6000 N   0  0  0  0  0  0  0  0  0  0  0  0
  142.1800   75.2990  221.9480 H   0  0  0  0  0  0  0  0  0  0  0  0
  141.7611   72.8424  222.1152 H   0  0  0  0  0  0  0  0  0  0  0  0
  140.1138   73.0995  221.4769 H   0  0  0  0  0  0  0  0  0  0  0  0
  143.6324   71.6015  220.8963 H   0  0  0  0  0  0  0  0  0  0  0  0
  144.1273   71.5887  219.2027 H   0  0  0  0  0  0  0  0  0  0  0  0
  145.6429   72.5455  221.4745 H   0  0  0  0  0  0  0  0  0  0  0  0
  146.1441   72.6552  219.7988 H   0  0  0  0  0  0  0  0  0  0  0  0
  144.5118   74.6890  221.4647 H   0  0  0  0  0  0  0  0  0  0  0  0
  145.8175   75.0776  220.4111 H   0  0  0  0  0  0  0  0  0  0  0  0
  144.3925   74.2181  218.3739 H   0  0  0  0  0  0  0  0  0  0  0  0
  142.8035   76.1391  221.0212 H   0  0  0  0  0  0  0  0  0  0  0  0
  141.8705   78.3330  220.4827 H   0  0  0  0  0  0  0  0  0  0  0  0
  142.9420   77.7636  216.3866 H   0  0  0  0  0  0  0  0  0  0  0  0
  143.8871   75.5378  216.9402 H   0  0  0  0  0  0  0  0  0  0  0  0
  138.1014   77.4227  222.3644 H   0  0  0  0  0  0  0  0  0  0  0  0
  138.3025   79.7890  223.0070 H   0  0  0  0  0  0  0  0  0  0  0  0
  139.7122   81.6886  223.5944 H   0  0  0  0  0  0  0  0  0  0  0  0
  141.9587   82.6643  223.9799 H   0  0  0  0  0  0  0  0  0  0  0  0
  143.9700   81.2032  223.7068 H   0  0  0  0  0  0  0  0  0  0  0  0
  143.7140   78.8346  223.0591 H   0  0  0  0  0  0  0  0  0  0  0  0
  1  2  2  0
  2  3  1  0
  3  4  1  0
  4  5  1  0
  5  6  2  0
  5  7  1  0
  7  8  1  0
  8  9  1  0
  9 10  1  0
 10 11  1  0
 11 12  1  0
 12 13  2  0
 13 14  1  0
 14 15  2  0
 15 16  1  0
 16 17  1  0
 16 18  1  0
 16 19  1  0
 15 20  1  0
 20 21  2  0
  2 22  1  0
 22 23  2  0
 23 24  1  0
 24 25  2  0
 25 26  1  0
 26 27  2  0
 27 28  1  0
 28 29  2  0
 29 30  1  0
 30 31  2  0
 11  7  1  0
 21 12  1  0
 31 22  1  0
 30 25  1  0
  3 32  1  0
  4 33  1  0
  4 34  1  0
  8 35  1  0
  8 36  1  0
  9 37  1  0
  9 38  1  0
 10 39  1  0
 10 40  1  0
 11 41  1  6
 13 42  1  0
 14 43  1  0
 20 44  1  0
 21 45  1  0
 23 46  1  0
 24 47  1  0
 26 48  1  0
 27 49  1  0
 28 50  1  0
 29 51  1  0
M  END
>  <smiles>  (46) 
O=C(NCC(=O)N1CCCC1c1ccc(C(F)(F)F)cc1)c1ccc2ccccc2n1

>  <score_type>  (46) 
oracle

>  <origin>  (46) 
autodockgpu

>  <m_score__min__energy>  (46) 
-8.4199999999999999

>  <m_primary>  (46) 
energy

>  <rmsd>  (46) 
7.751264692325345

>  <m_score__min__rmsd>  (46) 
7.751264692325345

>  <meeko>  (46) 
{"free_energy": -7.37, "intermolecular_energy": -9.16, "internal_energy": -2.57, "cluster_size": 5, "cluster_id": 7, "rank_in_cluster": 4}

>  <energy>  (46) 
-7.38

>  <cluster_rmsd>  (46) 
0.11

>  <cluster>  (46) 
7

$$$$

     RDKit          3D

 51 54  0  0  0  0  0  0  0  0999 V2000
  140.9280   71.6250  221.9880 O   0  0  0  0  0  0  0  0  0  0  0  0
  140.0400   71.7990  222.8650 C   0  0  0  0  0  0  0  0  0  0  0  0
  138.8660   72.5590  222.6410 N   0  0  0  0  0  0  0  0  0  0  0  0
  138.6120   73.1930  221.3610 C   0  0  0  0  0  0  0  0  0  0  0  0
  139.5570   74.3630  221.2250 C   0  0  0  0  0  0  0  0  0  0  0  0
  140.1220   74.7180  222.2800 O   0  0  0  0  0  0  0  0  0  0  0  0
  139.7240   74.9450  219.9580 N   0  0  0  0  0  0  0  0  0  0  0  0
  138.6350   75.5560  219.1510 C   0  0  0  0  0  0  0  0  0  0  0  0
  139.0410   75.3340  217.7110 C   0  0  0  0  0  0  0  0  0  0  0  0
  140.3250   74.5020  217.8310 C   0  0  0  0  0  0  0  0  0  0  0  0
  140.8730   75.1150  219.1010 C   0  0  2  0  0  0  0  0  0  0  0  0
  142.1440   74.6240  219.5590 C   0  0  0  0  0  0  0  0  0  0  0  0
  142.3360   73.2920  219.8320 C   0  0  0  0  0  0  0  0  0  0  0  0
  143.5450   72.7940  220.2520 C   0  0  0  0  0  0  0  0  0  0  0  0
  144.6240   73.6120  220.4170 C   0  0  0  0  0  0  0  0  0  0  0  0
  145.9520   73.1180  220.8700 C   0  0  0  0  0  0  0  0  0  0  0  0
  146.0040   72.9880  222.2360 F   0  0  0  0  0  0  0  0  0  0  0  0
  146.8960   74.0580  220.4650 F   0  0  0  0  0  0  0  0  0  0  0  0
  146.2740   71.9330  220.2130 F   0  0  0  0  0  0  0  0  0  0  0  0
  144.4500   74.9640  220.1450 C   0  0  0  0  0  0  0  0  0  0  0  0
  143.2200   75.4650  219.7200 C   0  0  0  0  0  0  0  0  0  0  0  0
  140.2330   71.1850  224.1820 C   0  0  0  0  0  0  0  0  0  0  0  0
  140.8740   71.8830  225.2010 C   0  0  0  0  0  0  0  0  0  0  0  0
  141.0710   71.3340  226.4510 C   0  0  0  0  0  0  0  0  0  0  0  0
  140.6290   70.0580  226.7260 C   0  0  0  0  0  0  0  0  0  0  0  0
  140.8040   69.4700  227.9600 C   0  0  0  0  0  0  0  0  0  0  0  0
  140.3590   68.1920  228.2240 C   0  0  0  0  0  0  0  0  0  0  0  0
  139.7180   67.4970  227.2050 C   0  0  0  0  0  0  0  0  0  0  0  0
  139.5380   68.0790  225.9620 C   0  0  0  0  0  0  0  0  0  0  0  0
  139.9880   69.3740  225.6900 C   0  0  0  0  0  0  0  0  0  0  0  0
  139.8110   69.9420  224.4740 N   0  0  0  0  0  0  0  0  0  0  0  0
  138.1630   72.6630  223.4230 H   0  0  0  0  0  0  0  0  0  0  0  0
  138.7878   72.4744  220.5469 H   0  0  0  0  0  0  0  0  0  0  0  0
  137.5683   73.5358  221.3043 H   0  0  0  0  0  0  0  0  0  0  0  0
  137.6746   75.0630  219.3620 H   0  0  0  0  0  0  0  0  0  0  0  0
  138.4995   76.6230  219.3816 H   0  0  0  0  0  0  0  0  0  0  0  0
  138.2634   74.7819  217.1629 H   0  0  0  0  0  0  0  0  0  0  0  0
  139.1860   76.2720  217.1549 H   0  0  0  0  0  0  0  0  0  0  0  0
  140.1138   73.4287  217.9467 H   0  0  0  0  0  0  0  0  0  0  0  0
  140.9954   74.5306  216.9594 H   0  0  0  0  0  0  0  0  0  0  0  0
  141.2043   76.1602  219.0129 H   0  0  0  0  0  0  0  0  0  0  0  0
  141.4908   72.5987  219.7099 H   0  0  0  0  0  0  0  0  0  0  0  0
  143.6448   71.7182  220.4586 H   0  0  0  0  0  0  0  0  0  0  0  0
  145.2993   75.6523  220.2674 H   0  0  0  0  0  0  0  0  0  0  0  0
  143.1098   76.5396  219.5122 H   0  0  0  0  0  0  0  0  0  0  0  0
  141.2345   72.9034  225.0037 H   0  0  0  0  0  0  0  0  0  0  0  0
  141.5827   71.9168  227.2311 H   0  0  0  0  0  0  0  0  0  0  0  0
  141.3121   70.0351  228.7553 H   0  0  0  0  0  0  0  0  0  0  0  0
  140.5071   67.7350  229.2136 H   0  0  0  0  0  0  0  0  0  0  0  0
  139.3509   66.4763  227.3878 H   0  0  0  0  0  0  0  0  0  0  0  0
  139.0292   67.5094  225.1704 H   0  0  0  0  0  0  0  0  0  0  0  0
  1  2  2  0
  2  3  1  0
  3  4  1  0
  4  5  1  0
  5  6  2  0
  5  7  1  0
  7  8  1  0
  8  9  1  0
  9 10  1  0
 10 11  1  0
 11 12  1  0
 12 13  2  0
 13 14  1  0
 14 15  2  0
 15 16  1  0
 16 17  1  0
 16 18  1  0
 16 19  1  0
 15 20  1  0
 20 21  2  0
  2 22  1  0
 22 23  2  0
 23 24  1  0
 24 25  2  0
 25 26  1  0
 26 27  2  0
 27 28  1  0
 28 29  2  0
 29 30  1  0
 30 31  2  0
 11  7  1  0
 21 12  1  0
 31 22  1  0
 30 25  1  0
  3 32  1  0
  4 33  1  0
  4 34  1  0
  8 35  1  0
  8 36  1  0
  9 37  1  0
  9 38  1  0
 10 39  1  0
 10 40  1  0
 11 41  1  6
 13 42  1  0
 14 43  1  0
 20 44  1  0
 21 45  1  0
 23 46  1  0
 24 47  1  0
 26 48  1  0
 27 49  1  0
 28 50  1  0
 29 51  1  0
M  END
>  <smiles>  (47) 
O=C(NCC(=O)N1CCCC1c1ccc(C(F)(F)F)cc1)c1ccc2ccccc2n1

>  <score_type>  (47) 
oracle

>  <origin>  (47) 
autodockgpu

>  <m_score__min__energy>  (47) 
-8.4199999999999999

>  <m_primary>  (47) 
energy

>  <rmsd>  (47) 
2.779663634338627

>  <m_score__min__rmsd>  (47) 
2.779663634338627

>  <meeko>  (47) 
{"free_energy": -7.98, "intermolecular_energy": -9.77, "internal_energy": -1.69, "cluster_size": 19, "cluster_id": 4, "rank_in_cluster": 1}

>  <energy>  (47) 
-7.37

>  <cluster_rmsd>  (47) 
0.11

>  <cluster>  (47) 
7

$$$$

     RDKit          3D

 51 54  0  0  0  0  0  0  0  0999 V2000
  140.1460   70.7450  221.2840 O   0  0  0  0  0  0  0  0  0  0  0  0
  139.9370   71.4590  222.3010 C   0  0  0  0  0  0  0  0  0  0  0  0
  139.7570   72.8630  222.2410 N   0  0  0  0  0  0  0  0  0  0  0  0
  139.8020   73.5740  220.9770 C   0  0  0  0  0  0  0  0  0  0  0  0
  140.4960   74.8950  221.2100 C   0  0  0  0  0  0  0  0  0  0  0  0
  140.3280   75.3930  222.3410 O   0  0  0  0  0  0  0  0  0  0  0  0
  141.2570   75.4440  220.1650 N   0  0  0  0  0  0  0  0  0  0  0  0
  141.8600   74.6660  219.0500 C   0  0  0  0  0  0  0  0  0  0  0  0
  143.1130   75.4270  218.6730 C   0  0  0  0  0  0  0  0  0  0  0  0
  143.1620   76.5590  219.7090 C   0  0  0  0  0  0  0  0  0  0  0  0
  141.6750   76.7920  219.8600 C   0  0  2  0  0  0  0  0  0  0  0  0
  141.2730   77.8470  220.7480 C   0  0  0  0  0  0  0  0  0  0  0  0
  139.9480   78.1580  220.9330 C   0  0  0  0  0  0  0  0  0  0  0  0
  139.5370   79.1470  221.7910 C   0  0  0  0  0  0  0  0  0  0  0  0
  140.4390   79.8760  222.5090 C   0  0  0  0  0  0  0  0  0  0  0  0
  140.0410   80.9580  223.4500 C   0  0  0  0  0  0  0  0  0  0  0  0
  141.1070   81.3940  224.1980 F   0  0  0  0  0  0  0  0  0  0  0  0
  139.0750   80.4260  224.2980 F   0  0  0  0  0  0  0  0  0  0  0  0
  139.4230   81.9960  222.7560 F   0  0  0  0  0  0  0  0  0  0  0  0
  141.7850   79.5780  222.3370 C   0  0  0  0  0  0  0  0  0  0  0  0
  142.1980   78.5720  221.4640 C   0  0  0  0  0  0  0  0  0  0  0  0
  139.8790   70.8040  223.6110 C   0  0  0  0  0  0  0  0  0  0  0  0
  139.3450   69.5250  223.7390 C   0  0  0  0  0  0  0  0  0  0  0  0
  139.2750   68.8810  224.9560 C   0  0  0  0  0  0  0  0  0  0  0  0
  139.7420   69.4990  226.0970 C   0  0  0  0  0  0  0  0  0  0  0  0
  139.6940   68.8930  227.3330 C   0  0  0  0  0  0  0  0  0  0  0  0
  140.1640   69.5210  228.4680 C   0  0  0  0  0  0  0  0  0  0  0  0
  140.6970   70.7970  228.3370 C   0  0  0  0  0  0  0  0  0  0  0  0
  140.7510   71.4150  227.0980 C   0  0  0  0  0  0  0  0  0  0  0  0
  140.2750   70.7810  225.9470 C   0  0  0  0  0  0  0  0  0  0  0  0
  140.3280   71.3870  224.7370 N   0  0  0  0  0  0  0  0  0  0  0  0
  139.5860   73.3990  223.1350 H   0  0  0  0  0  0  0  0  0  0  0  0
  140.3614   72.9838  220.2363 H   0  0  0  0  0  0  0  0  0  0  0  0
  138.7839   73.7390  220.5945 H   0  0  0  0  0  0  0  0  0  0  0  0
  142.1113   73.6475  219.3810 H   0  0  0  0  0  0  0  0  0  0  0  0
  141.1699   74.5600  218.2000 H   0  0  0  0  0  0  0  0  0  0  0  0
  144.0025   74.7843  218.7488 H   0  0  0  0  0  0  0  0  0  0  0  0
  143.0997   75.7924  217.6356 H   0  0  0  0  0  0  0  0  0  0  0  0
  143.6287   76.2376  220.6518 H   0  0  0  0  0  0  0  0  0  0  0  0
  143.7564   77.4400  219.4251 H   0  0  0  0  0  0  0  0  0  0  0  0
  141.1750   77.2188  218.9781 H   0  0  0  0  0  0  0  0  0  0  0  0
  139.1882   77.5934  220.3727 H   0  0  0  0  0  0  0  0  0  0  0  0
  138.4626   79.3553  221.9015 H   0  0  0  0  0  0  0  0  0  0  0  0
  142.5396   80.1466  222.9003 H   0  0  0  0  0  0  0  0  0  0  0  0
  143.2703   78.3565  221.3469 H   0  0  0  0  0  0  0  0  0  0  0  0
  138.9674   69.0125  222.8419 H   0  0  0  0  0  0  0  0  0  0  0  0
  138.8450   67.8704  225.0171 H   0  0  0  0  0  0  0  0  0  0  0  0
  139.2697   67.8816  227.4174 H   0  0  0  0  0  0  0  0  0  0  0  0
  140.1179   69.0253  229.4489 H   0  0  0  0  0  0  0  0  0  0  0  0
  141.0797   71.3216  229.2249 H   0  0  0  0  0  0  0  0  0  0  0  0
  141.1775   72.4259  227.0186 H   0  0  0  0  0  0  0  0  0  0  0  0
  1  2  2  0
  2  3  1  0
  3  4  1  0
  4  5  1  0
  5  6  2  0
  5  7  1  0
  7  8  1  0
  8  9  1  0
  9 10  1  0
 10 11  1  0
 11 12  1  0
 12 13  2  0
 13 14  1  0
 14 15  2  0
 15 16  1  0
 16 17  1  0
 16 18  1  0
 16 19  1  0
 15 20  1  0
 20 21  2  0
  2 22  1  0
 22 23  2  0
 23 24  1  0
 24 25  2  0
 25 26  1  0
 26 27  2  0
 27 28  1  0
 28 29  2  0
 29 30  1  0
 30 31  2  0
 11  7  1  0
 21 12  1  0
 31 22  1  0
 30 25  1  0
  3 32  1  0
  4 33  1  0
  4 34  1  0
  8 35  1  0
  8 36  1  0
  9 37  1  0
  9 38  1  0
 10 39  1  0
 10 40  1  0
 11 41  1  6
 13 42  1  0
 14 43  1  0
 20 44  1  0
 21 45  1  0
 23 46  1  0
 24 47  1  0
 26 48  1  0
 27 49  1  0
 28 50  1  0
 29 51  1  0
M  END
>  <smiles>  (48) 
O=C(NCC(=O)N1CCCC1c1ccc(C(F)(F)F)cc1)c1ccc2ccccc2n1

>  <score_type>  (48) 
oracle

>  <origin>  (48) 
autodockgpu

>  <m_score__min__energy>  (48) 
-8.4199999999999999

>  <m_primary>  (48) 
energy

>  <rmsd>  (48) 
1.8197267427454165

>  <m_score__min__rmsd>  (48) 
1.8197267427454165

>  <meeko>  (48) 
{"free_energy": -8.02, "intermolecular_energy": -9.81, "internal_energy": -1.97, "cluster_size": 14, "cluster_id": 1, "rank_in_cluster": 6}

>  <energy>  (48) 
-7.34

>  <cluster_rmsd>  (48) 
0.31

>  <cluster>  (48) 
7

$$$$

     RDKit          3D

 51 54  0  0  0  0  0  0  0  0999 V2000
  141.2490   71.9860  221.6040 O   0  0  0  0  0  0  0  0  0  0  0  0
  140.4000   72.3470  222.4630 C   0  0  0  0  0  0  0  0  0  0  0  0
  139.6050   73.5110  222.3250 N   0  0  0  0  0  0  0  0  0  0  0  0
  139.7240   74.3720  221.1640 C   0  0  0  0  0  0  0  0  0  0  0  0
  139.6930   75.8050  221.6400 C   0  0  0  0  0  0  0  0  0  0  0  0
  139.0850   75.9980  222.7120 O   0  0  0  0  0  0  0  0  0  0  0  0
  140.3340   76.7820  220.8610 N   0  0  0  0  0  0  0  0  0  0  0  0
  141.2830   76.5000  219.7520 C   0  0  0  0  0  0  0  0  0  0  0  0
  142.2390   77.6720  219.7450 C   0  0  0  0  0  0  0  0  0  0  0  0
  141.7900   78.5000  220.9570 C   0  0  0  0  0  0  0  0  0  0  0  0
  140.3050   78.2250  220.8800 C   0  0  2  0  0  0  0  0  0  0  0  0
  139.4760   78.8770  221.8560 C   0  0  0  0  0  0  0  0  0  0  0  0
  140.0240   79.5710  222.9070 C   0  0  0  0  0  0  0  0  0  0  0  0
  139.2560   80.2200  223.8410 C   0  0  0  0  0  0  0  0  0  0  0  0
  137.8940   80.2030  223.7670 C   0  0  0  0  0  0  0  0  0  0  0  0
  137.0200   80.8900  224.7560 C   0  0  0  0  0  0  0  0  0  0  0  0
  135.7610   80.3410  224.7840 F   0  0  0  0  0  0  0  0  0  0  0  0
  136.9280   82.2220  224.3640 F   0  0  0  0  0  0  0  0  0  0  0  0
  137.6230   80.8930  226.0110 F   0  0  0  0  0  0  0  0  0  0  0  0
  137.3190   79.5060  222.7110 C   0  0  0  0  0  0  0  0  0  0  0  0
  138.1040   78.8490  221.7640 C   0  0  0  0  0  0  0  0  0  0  0  0
  140.2290   71.5220  223.6610 C   0  0  0  0  0  0  0  0  0  0  0  0
  139.5390   70.3150  223.5970 C   0  0  0  0  0  0  0  0  0  0  0  0
  139.3600   69.5150  224.7060 C   0  0  0  0  0  0  0  0  0  0  0  0
  139.8700   69.8980  225.9280 C   0  0  0  0  0  0  0  0  0  0  0  0
  139.7160   69.1310  227.0620 C   0  0  0  0  0  0  0  0  0  0  0  0
  140.2290   69.5250  228.2790 C   0  0  0  0  0  0  0  0  0  0  0  0
  140.9180   70.7300  228.3410 C   0  0  0  0  0  0  0  0  0  0  0  0
  141.0780   71.5090  227.2070 C   0  0  0  0  0  0  0  0  0  0  0  0
  140.5590   71.1130  225.9720 C   0  0  0  0  0  0  0  0  0  0  0  0
  140.7160   71.8750  224.8640 N   0  0  0  0  0  0  0  0  0  0  0  0
  138.9120   73.7540  223.0860 H   0  0  0  0  0  0  0  0  0  0  0  0
  140.6735   74.1712  220.6462 H   0  0  0  0  0  0  0  0  0  0  0  0
  138.8973   74.1844  220.4630 H   0  0  0  0  0  0  0  0  0  0  0  0
  141.8248   75.5606  219.9366 H   0  0  0  0  0  0  0  0  0  0  0  0
  140.7672   76.3827  218.7875 H   0  0  0  0  0  0  0  0  0  0  0  0
  143.2789   77.3332  219.8625 H   0  0  0  0  0  0  0  0  0  0  0  0
  142.2173   78.2400  218.8033 H   0  0  0  0  0  0  0  0  0  0  0  0
  142.2311   78.1333  221.8956 H   0  0  0  0  0  0  0  0  0  0  0  0
  142.0802   79.5609  220.9442 H   0  0  0  0  0  0  0  0  0  0  0  0
  139.7908   78.6653  220.0130 H   0  0  0  0  0  0  0  0  0  0  0  0
  141.1191   79.6080  223.0037 H   0  0  0  0  0  0  0  0  0  0  0  0
  139.7466   80.7626  224.6625 H   0  0  0  0  0  0  0  0  0  0  0  0
  136.2233   79.4719  222.6204 H   0  0  0  0  0  0  0  0  0  0  0  0
  137.6228   78.3048  220.9380 H   0  0  0  0  0  0  0  0  0  0  0  0
  139.1236   69.9891  222.6320 H   0  0  0  0  0  0  0  0  0  0  0  0
  138.8082   68.5678  224.6150 H   0  0  0  0  0  0  0  0  0  0  0  0
  139.1692   68.1790  226.9943 H   0  0  0  0  0  0  0  0  0  0  0  0
  140.0966   68.9027  229.1764 H   0  0  0  0  0  0  0  0  0  0  0  0
  141.3400   71.0682  229.2989 H   0  0  0  0  0  0  0  0  0  0  0  0
  141.6256   72.4602  227.2805 H   0  0  0  0  0  0  0  0  0  0  0  0
  1  2  2  0
  2  3  1  0
  3  4  1  0
  4  5  1  0
  5  6  2  0
  5  7  1  0
  7  8  1  0
  8  9  1  0
  9 10  1  0
 10 11  1  0
 11 12  1  0
 12 13  2  0
 13 14  1  0
 14 15  2  0
 15 16  1  0
 16 17  1  0
 16 18  1  0
 16 19  1  0
 15 20  1  0
 20 21  2  0
  2 22  1  0
 22 23  2  0
 23 24  1  0
 24 25  2  0
 25 26  1  0
 26 27  2  0
 27 28  1  0
 28 29  2  0
 29 30  1  0
 30 31  2  0
 11  7  1  0
 21 12  1  0
 31 22  1  0
 30 25  1  0
  3 32  1  0
  4 33  1  0
  4 34  1  0
  8 35  1  0
  8 36  1  0
  9 37  1  0
  9 38  1  0
 10 39  1  0
 10 40  1  0
 11 41  1  6
 13 42  1  0
 14 43  1  0
 20 44  1  0
 21 45  1  0
 23 46  1  0
 24 47  1  0
 26 48  1  0
 27 49  1  0
 28 50  1  0
 29 51  1  0
M  END
>  <smiles>  (49) 
O=C(NCC(=O)N1CCCC1c1ccc(C(F)(F)F)cc1)c1ccc2ccccc2n1

>  <score_type>  (49) 
oracle

>  <origin>  (49) 
autodockgpu

>  <m_score__min__energy>  (49) 
-8.4199999999999999

>  <m_primary>  (49) 
energy

>  <rmsd>  (49) 
2.1498733933548433

>  <m_score__min__rmsd>  (49) 
2.1498733933548433

>  <meeko>  (49) 
{"free_energy": -8.04, "intermolecular_energy": -9.83, "internal_energy": -1.82, "cluster_size": 1, "cluster_id": 3, "rank_in_cluster": 1}

>  <energy>  (49) 
-6.84

>  <cluster_rmsd>  (49) 
0.0

>  <cluster>  (49) 
8

$$$$

     RDKit          3D

 51 54  0  0  0  0  0  0  0  0999 V2000
  141.2610   71.6480  221.4270 O   0  0  0  0  0  0  0  0  0  0  0  0
  140.6190   72.2190  222.3490 C   0  0  0  0  0  0  0  0  0  0  0  0
  140.1700   73.5600  222.2660 N   0  0  0  0  0  0  0  0  0  0  0  0
  140.4270   74.3690  221.0890 C   0  0  0  0  0  0  0  0  0  0  0  0
  140.7540   75.7700  221.5480 C   0  0  0  0  0  0  0  0  0  0  0  0
  140.3230   76.0740  222.6790 O   0  0  0  0  0  0  0  0  0  0  0  0
  141.4980   76.5980  220.6920 N   0  0  0  0  0  0  0  0  0  0  0  0
  141.2770   78.0580  220.5170 C   0  0  0  0  0  0  0  0  0  0  0  0
  141.6830   78.3470  219.0880 C   0  0  0  0  0  0  0  0  0  0  0  0
  142.0200   76.9580  218.5300 C   0  0  0  0  0  0  0  0  0  0  0  0
  142.5920   76.3420  219.7870 C   0  0  2  0  0  0  0  0  0  0  0  0
  143.0870   74.9970  219.6800 C   0  0  0  0  0  0  0  0  0  0  0  0
  144.0820   74.5360  220.5070 C   0  0  0  0  0  0  0  0  0  0  0  0
  144.5580   73.2500  220.4390 C   0  0  0  0  0  0  0  0  0  0  0  0
  144.0580   72.3610  219.5340 C   0  0  0  0  0  0  0  0  0  0  0  0
  144.5430   70.9590  219.4230 C   0  0  0  0  0  0  0  0  0  0  0  0
  145.9140   70.9020  219.3610 F   0  0  0  0  0  0  0  0  0  0  0  0
  144.0110   70.4340  218.2490 F   0  0  0  0  0  0  0  0  0  0  0  0
  144.0290   70.1880  220.4630 F   0  0  0  0  0  0  0  0  0  0  0  0
  143.0510   72.8080  218.6870 C   0  0  0  0  0  0  0  0  0  0  0  0
  142.5700   74.1150  218.7600 C   0  0  0  0  0  0  0  0  0  0  0  0
  140.3250   71.4590  223.5660 C   0  0  0  0  0  0  0  0  0  0  0  0
  139.6350   70.2520  223.4980 C   0  0  0  0  0  0  0  0  0  0  0  0
  139.3420   69.5120  224.6240 C   0  0  0  0  0  0  0  0  0  0  0  0
  139.7330   69.9580  225.8680 C   0  0  0  0  0  0  0  0  0  0  0  0
  139.4620   69.2520  227.0200 C   0  0  0  0  0  0  0  0  0  0  0  0
  139.8580   69.7070  228.2600 C   0  0  0  0  0  0  0  0  0  0  0  0
  140.5470   70.9120  228.3260 C   0  0  0  0  0  0  0  0  0  0  0  0
  140.8230   71.6290  227.1740 C   0  0  0  0  0  0  0  0  0  0  0  0
  140.4240   71.1710  225.9160 C   0  0  0  0  0  0  0  0  0  0  0  0
  140.6950   71.8730  224.7910 N   0  0  0  0  0  0  0  0  0  0  0  0
  139.6370   73.9760  223.0780 H   0  0  0  0  0  0  0  0  0  0  0  0
  141.2763   73.9523  220.5278 H   0  0  0  0  0  0  0  0  0  0  0  0
  139.5450   74.3783  220.4317 H   0  0  0  0  0  0  0  0  0  0  0  0
  140.2184   78.3107  220.6768 H   0  0  0  0  0  0  0  0  0  0  0  0
  141.8553   78.6530  221.2392 H   0  0  0  0  0  0  0  0  0  0  0  0
  140.8550   78.8065  218.5282 H   0  0  0  0  0  0  0  0  0  0  0  0
  142.5205   79.0562  219.0131 H   0  0  0  0  0  0  0  0  0  0  0  0
  141.1247   76.4247  218.1779 H   0  0  0  0  0  0  0  0  0  0  0  0
  142.6795   76.9448  217.6497 H   0  0  0  0  0  0  0  0  0  0  0  0
  143.5494   76.7663  220.1235 H   0  0  0  0  0  0  0  0  0  0  0  0
  144.5132   75.2221  221.2509 H   0  0  0  0  0  0  0  0  0  0  0  0
  145.3559   72.9315  221.1259 H   0  0  0  0  0  0  0  0  0  0  0  0
  142.6249   72.1173  217.9444 H   0  0  0  0  0  0  0  0  0  0  0  0
  141.7720   74.4426  218.0774 H   0  0  0  0  0  0  0  0  0  0  0  0
  139.3134   69.8768  222.5153 H   0  0  0  0  0  0  0  0  0  0  0  0
  138.7944   68.5627  224.5290 H   0  0  0  0  0  0  0  0  0  0  0  0
  138.9153   68.3002  226.9485 H   0  0  0  0  0  0  0  0  0  0  0  0
  139.6348   69.1324  229.1711 H   0  0  0  0  0  0  0  0  0  0  0  0
  140.8759   71.2995  229.3015 H   0  0  0  0  0  0  0  0  0  0  0  0
  141.3689   72.5809  227.2512 H   0  0  0  0  0  0  0  0  0  0  0  0
  1  2  2  0
  2  3  1  0
  3  4  1  0
  4  5  1  0
  5  6  2  0
  5  7  1  0
  7  8  1  0
  8  9  1  0
  9 10  1  0
 10 11  1  0
 11 12  1  0
 12 13  2  0
 13 14  1  0
 14 15  2  0
 15 16  1  0
 16 17  1  0
 16 18  1  0
 16 19  1  0
 15 20  1  0
 20 21  2  0
  2 22  1  0
 22 23  2  0
 23 24  1  0
 24 25  2  0
 25 26  1  0
 26 27  2  0
 27 28  1  0
 28 29  2  0
 29 30  1  0
 30 31  2  0
 11  7  1  0
 21 12  1  0
 31 22  1  0
 30 25  1  0
  3 32  1  0
  4 33  1  0
  4 34  1  0
  8 35  1  0
  8 36  1  0
  9 37  1  0
  9 38  1  0
 10 39  1  0
 10 40  1  0
 11 41  1  1
 13 42  1  0
 14 43  1  0
 20 44  1  0
 21 45  1  0
 23 46  1  0
 24 47  1  0
 26 48  1  0
 27 49  1  0
 28 50  1  0
 29 51  1  0
M  END
>  <smiles>  (50) 
O=C(NCC(=O)N1CCCC1c1ccc(C(F)(F)F)cc1)c1ccc2ccccc2n1

>  <score_type>  (50) 
oracle

>  <origin>  (50) 
autodockgpu

>  <m_score__min__energy>  (50) 
-8.4199999999999999

>  <m_primary>  (50) 
energy

>  <rmsd>  (50) 
2.2529034563336676

>  <m_score__min__rmsd>  (50) 
2.2529034563336676

>  <meeko>  (50) 
{"free_energy": -7.89, "intermolecular_energy": -9.68, "internal_energy": -2.28, "cluster_size": 19, "cluster_id": 4, "rank_in_cluster": 11}

>  <energy>  (50) 
-6.64

>  <cluster_rmsd>  (50) 
0.48

>  <cluster>  (50) 
8

$$$$

     RDKit          3D

 51 54  0  0  0  0  0  0  0  0999 V2000
  141.4340   71.8200  221.5380 O   0  0  0  0  0  0  0  0  0  0  0  0
  140.6650   72.2460  222.4470 C   0  0  0  0  0  0  0  0  0  0  0  0
  140.1380   73.5710  222.3440 N   0  0  0  0  0  0  0  0  0  0  0  0
  140.4930   74.4090  221.2000 C   0  0  0  0  0  0  0  0  0  0  0  0
  140.1850   75.8350  221.4660 C   0  0  0  0  0  0  0  0  0  0  0  0
  139.2960   76.1690  222.3210 O   0  0  0  0  0  0  0  0  0  0  0  0
  140.8380   76.9150  220.8030 N   0  0  0  0  0  0  0  0  0  0  0  0
  141.2130   76.7820  219.3760 C   0  0  0  0  0  0  0  0  0  0  0  0
  142.1200   77.9740  219.1330 C   0  0  0  0  0  0  0  0  0  0  0  0
  141.5360   78.9930  220.0660 C   0  0  0  0  0  0  0  0  0  0  0  0
  141.2230   78.1820  221.3000 C   0  0  1  0  0  0  0  0  0  0  0  0
  140.1820   78.9420  222.0310 C   0  0  0  0  0  0  0  0  0  0  0  0
  140.3290   79.0990  223.4020 C   0  0  0  0  0  0  0  0  0  0  0  0
  139.4140   79.7870  224.1680 C   0  0  0  0  0  0  0  0  0  0  0  0
  138.3090   80.3400  223.5300 C   0  0  0  0  0  0  0  0  0  0  0  0
  137.3460   81.0740  224.3900 C   0  0  0  0  0  0  0  0  0  0  0  0
  137.7170   80.7870  225.6990 F   0  0  0  0  0  0  0  0  0  0  0  0
  136.0860   80.5140  224.2330 F   0  0  0  0  0  0  0  0  0  0  0  0
  137.3200   82.4200  224.1380 F   0  0  0  0  0  0  0  0  0  0  0  0
  138.1410   80.1970  222.1680 C   0  0  0  0  0  0  0  0  0  0  0  0
  139.0760   79.5000  221.4220 C   0  0  0  0  0  0  0  0  0  0  0  0
  140.2900   71.4350  223.6020 C   0  0  0  0  0  0  0  0  0  0  0  0
  139.5720   70.2800  223.4230 C   0  0  0  0  0  0  0  0  0  0  0  0
  139.1990   69.4830  224.4980 C   0  0  0  0  0  0  0  0  0  0  0  0
  139.5810   69.9020  225.7640 C   0  0  0  0  0  0  0  0  0  0  0  0
  139.2550   69.1750  226.8920 C   0  0  0  0  0  0  0  0  0  0  0  0
  139.6440   69.6070  228.1400 C   0  0  0  0  0  0  0  0  0  0  0  0
  140.3740   70.7830  228.3170 C   0  0  0  0  0  0  0  0  0  0  0  0
  140.7040   71.5150  227.1900 C   0  0  0  0  0  0  0  0  0  0  0  0
  140.3050   71.0670  225.9440 C   0  0  0  0  0  0  0  0  0  0  0  0
  140.6390   71.7960  224.8720 N   0  0  0  0  0  0  0  0  0  0  0  0
  139.4950   73.9220  223.1080 H   0  0  0  0  0  0  0  0  0  0  0  0
  141.5696   74.3055  220.9993 H   0  0  0  0  0  0  0  0  0  0  0  0
  139.9041   74.0809  220.3308 H   0  0  0  0  0  0  0  0  0  0  0  0
  141.7486   75.8380  219.1970 H   0  0  0  0  0  0  0  0  0  0  0  0
  140.3416   76.7640  218.7049 H   0  0  0  0  0  0  0  0  0  0  0  0
  143.1638   77.7436  219.3927 H   0  0  0  0  0  0  0  0  0  0  0  0
  142.1594   78.2995  218.0830 H   0  0  0  0  0  0  0  0  0  0  0  0
  142.2630   79.7878  220.2889 H   0  0  0  0  0  0  0  0  0  0  0  0
  140.6572   79.5081  219.6509 H   0  0  0  0  0  0  0  0  0  0  0  0
  142.0394   78.0177  222.0187 H   0  0  0  0  0  0  0  0  0  0  0  0
  141.2080   78.6581  223.8948 H   0  0  0  0  0  0  0  0  0  0  0  0
  139.5534   79.8959  225.2537 H   0  0  0  0  0  0  0  0  0  0  0  0
  137.2625   80.6376  221.6740 H   0  0  0  0  0  0  0  0  0  0  0  0
  138.9366   79.3901  220.3364 H   0  0  0  0  0  0  0  0  0  0  0  0
  139.2850   69.9779  222.4050 H   0  0  0  0  0  0  0  0  0  0  0  0
  138.6239   68.5569  224.3512 H   0  0  0  0  0  0  0  0  0  0  0  0
  138.6796   68.2428  226.7925 H   0  0  0  0  0  0  0  0  0  0  0  0
  139.3718   69.0086  229.0220 H   0  0  0  0  0  0  0  0  0  0  0  0
  140.6773   71.1174  229.3201 H   0  0  0  0  0  0  0  0  0  0  0  0
  141.2800   72.4473  227.2846 H   0  0  0  0  0  0  0  0  0  0  0  0
  1  2  2  0
  2  3  1  0
  3  4  1  0
  4  5  1  0
  5  6  2  0
  5  7  1  0
  7  8  1  0
  8  9  1  0
  9 10  1  0
 10 11  1  0
 11 12  1  0
 12 13  2  0
 13 14  1  0
 14 15  2  0
 15 16  1  0
 16 17  1  0
 16 18  1  0
 16 19  1  0
 15 20  1  0
 20 21  2  0
  2 22  1  0
 22 23  2  0
 23 24  1  0
 24 25  2  0
 25 26  1  0
 26 27  2  0
 27 28  1  0
 28 29  2  0
 29 30  1  0
 30 31  2  0
 11  7  1  0
 21 12  1  0
 31 22  1  0
 30 25  1  0
  3 32  1  0
  4 33  1  0
  4 34  1  0
  8 35  1  0
  8 36  1  0
  9 37  1  0
  9 38  1  0
 10 39  1  0
 10 40  1  0
 11 41  1  1
 13 42  1  0
 14 43  1  0
 20 44  1  0
 21 45  1  0
 23 46  1  0
 24 47  1  0
 26 48  1  0
 27 49  1  0
 28 50  1  0
 29 51  1  0
M  END
>  <smiles>  (51) 
O=C(NCC(=O)N1CCCC1c1ccc(C(F)(F)F)cc1)c1ccc2ccccc2n1

>  <score_type>  (51) 
oracle

>  <origin>  (51) 
autodockgpu

>  <m_score__min__energy>  (51) 
-8.6199999999999992

>  <m_primary>  (51) 
energy

>  <rmsd>  (51) 
2.128585896804021

>  <m_score__min__rmsd>  (51) 
2.128585896804021

>  <meeko>  (51) 
{"free_energy": -7.93, "intermolecular_energy": -9.72, "internal_energy": -1.65, "cluster_size": 9, "cluster_id": 3, "rank_in_cluster": 9}

>  <energy>  (51) 
-8.62

>  <cluster_rmsd>  (51) 
0.0

>  <cluster>  (51) 
1

$$$$

     RDKit          3D

 51 54  0  0  0  0  0  0  0  0999 V2000
  137.3190   76.1230  222.3600 O   0  0  0  0  0  0  0  0  0  0  0  0
  138.5700   76.3020  222.4130 C   0  0  0  0  0  0  0  0  0  0  0  0
  139.4390   75.1940  222.1670 N   0  0  0  0  0  0  0  0  0  0  0  0
  138.8750   73.8800  221.8610 C   0  0  0  0  0  0  0  0  0  0  0  0
  139.9000   72.8160  221.9870 C   0  0  0  0  0  0  0  0  0  0  0  0
  141.0940   73.0910  222.3460 O   0  0  0  0  0  0  0  0  0  0  0  0
  139.6380   71.4400  221.7230 N   0  0  0  0  0  0  0  0  0  0  0  0
  140.1590   70.8180  220.4840 C   0  0  0  0  0  0  0  0  0  0  0  0
  139.4390   69.4830  220.4240 C   0  0  0  0  0  0  0  0  0  0  0  0
  139.2810   69.1600  221.8800 C   0  0  0  0  0  0  0  0  0  0  0  0
  138.9120   70.4930  222.4850 C   0  0  1  0  0  0  0  0  0  0  0  0
  139.2680   70.4000  223.9200 C   0  0  0  0  0  0  0  0  0  0  0  0
  140.3430   71.1480  224.3770 C   0  0  0  0  0  0  0  0  0  0  0  0
  140.7510   71.1280  225.6930 C   0  0  0  0  0  0  0  0  0  0  0  0
  140.0490   70.3230  226.5830 C   0  0  0  0  0  0  0  0  0  0  0  0
  140.5190   70.3280  227.9920 C   0  0  0  0  0  0  0  0  0  0  0  0
  141.1350   69.0960  228.1870 F   0  0  0  0  0  0  0  0  0  0  0  0
  139.4150   70.3240  228.8350 F   0  0  0  0  0  0  0  0  0  0  0  0
  141.3500   71.3780  228.2780 F   0  0  0  0  0  0  0  0  0  0  0  0
  138.9770   69.5690  226.1520 C   0  0  0  0  0  0  0  0  0  0  0  0
  138.5880   69.6090  224.8240 C   0  0  0  0  0  0  0  0  0  0  0  0
  139.1660   77.6010  222.7160 C   0  0  0  0  0  0  0  0  0  0  0  0
  138.3590   78.6820  222.9620 C   0  0  0  0  0  0  0  0  0  0  0  0
  138.8890   79.9330  223.2540 C   0  0  0  0  0  0  0  0  0  0  0  0
  140.2720   80.0460  223.2870 C   0  0  0  0  0  0  0  0  0  0  0  0
  140.8890   81.2490  223.5680 C   0  0  0  0  0  0  0  0  0  0  0  0
  142.2630   81.3400  223.5970 C   0  0  0  0  0  0  0  0  0  0  0  0
  143.0790   80.2370  223.3450 C   0  0  0  0  0  0  0  0  0  0  0  0
  142.4660   79.0280  223.0640 C   0  0  0  0  0  0  0  0  0  0  0  0
  141.0850   78.9540  223.0390 C   0  0  0  0  0  0  0  0  0  0  0  0
  140.5190   77.7720  222.7630 N   0  0  0  0  0  0  0  0  0  0  0  0
  140.4850   75.3490  222.2130 H   0  0  0  0  0  0  0  0  0  0  0  0
  138.0522   73.6706  222.5603 H   0  0  0  0  0  0  0  0  0  0  0  0
  138.5082   73.8904  220.8240 H   0  0  0  0  0  0  0  0  0  0  0  0
  139.9187   71.4336  219.6046 H   0  0  0  0  0  0  0  0  0  0  0  0
  141.2540   70.7131  220.4865 H   0  0  0  0  0  0  0  0  0  0  0  0
  138.4630   69.5754  219.9251 H   0  0  0  0  0  0  0  0  0  0  0  0
  139.9734   68.7117  219.8499 H   0  0  0  0  0  0  0  0  0  0  0  0
  138.4823   68.4200  222.0365 H   0  0  0  0  0  0  0  0  0  0  0  0
  140.1832   68.7161  222.3261 H   0  0  0  0  0  0  0  0  0  0  0  0
  137.8525   70.7871  222.4534 H   0  0  0  0  0  0  0  0  0  0  0  0
  140.8900   71.7806  223.6624 H   0  0  0  0  0  0  0  0  0  0  0  0
  141.6071   71.7313  226.0295 H   0  0  0  0  0  0  0  0  0  0  0  0
  138.4302   68.9346  226.8651 H   0  0  0  0  0  0  0  0  0  0  0  0
  137.7315   69.0066  224.4871 H   0  0  0  0  0  0  0  0  0  0  0  0
  137.2668   78.5560  222.9274 H   0  0  0  0  0  0  0  0  0  0  0  0
  138.2391   80.7983  223.4509 H   0  0  0  0  0  0  0  0  0  0  0  0
  140.2785   82.1414  223.7702 H   0  0  0  0  0  0  0  0  0  0  0  0
  142.7299   82.3095  223.8252 H   0  0  0  0  0  0  0  0  0  0  0  0
  144.1752   80.3251  223.3688 H   0  0  0  0  0  0  0  0  0  0  0  0
  143.0726   78.1329  222.8621 H   0  0  0  0  0  0  0  0  0  0  0  0
  1  2  2  0
  2  3  1  0
  3  4  1  0
  4  5  1  0
  5  6  2  0
  5  7  1  0
  7  8  1  0
  8  9  1  0
  9 10  1  0
 10 11  1  0
 11 12  1  0
 12 13  2  0
 13 14  1  0
 14 15  2  0
 15 16  1  0
 16 17  1  0
 16 18  1  0
 16 19  1  0
 15 20  1  0
 20 21  2  0
  2 22  1  0
 22 23  2  0
 23 24  1  0
 24 25  2  0
 25 26  1  0
 26 27  2  0
 27 28  1  0
 28 29  2  0
 29 30  1  0
 30 31  2  0
 11  7  1  0
 21 12  1  0
 31 22  1  0
 30 25  1  0
  3 32  1  0
  4 33  1  0
  4 34  1  0
  8 35  1  0
  8 36  1  0
  9 37  1  0
  9 38  1  0
 10 39  1  0
 10 40  1  0
 11 41  1  1
 13 42  1  0
 14 43  1  0
 20 44  1  0
 21 45  1  0
 23 46  1  0
 24 47  1  0
 26 48  1  0
 27 49  1  0
 28 50  1  0
 29 51  1  0
M  END
>  <smiles>  (52) 
O=C(NCC(=O)N1CCCC1c1ccc(C(F)(F)F)cc1)c1ccc2ccccc2n1

>  <score_type>  (52) 
oracle

>  <origin>  (52) 
autodockgpu

>  <m_score__min__energy>  (52) 
-8.6199999999999992

>  <m_primary>  (52) 
energy

>  <rmsd>  (52) 
8.237584701534235

>  <m_score__min__rmsd>  (52) 
8.237584701534235

>  <meeko>  (52) 
{"free_energy": -7.91, "intermolecular_energy": -9.7, "internal_energy": -1.8, "cluster_size": 2, "cluster_id": 2, "rank_in_cluster": 2}

>  <energy>  (52) 
-8.62

>  <cluster_rmsd>  (52) 
0.07

>  <cluster>  (52) 
1

$$$$

     RDKit          3D

 51 54  0  0  0  0  0  0  0  0999 V2000
  140.9080   71.6480  221.3320 O   0  0  0  0  0  0  0  0  0  0  0  0
  140.3900   72.1380  222.3760 C   0  0  0  0  0  0  0  0  0  0  0  0
  139.9260   73.4910  222.3490 N   0  0  0  0  0  0  0  0  0  0  0  0
  140.0560   74.2810  221.1260 C   0  0  0  0  0  0  0  0  0  0  0  0
  140.3110   75.7090  221.4370 C   0  0  0  0  0  0  0  0  0  0  0  0
  139.8600   76.2400  222.5070 O   0  0  0  0  0  0  0  0  0  0  0  0
  141.0580   76.5750  220.5860 N   0  0  0  0  0  0  0  0  0  0  0  0
  141.2360   77.9970  220.9610 C   0  0  0  0  0  0  0  0  0  0  0  0
  141.8030   78.6290  219.7030 C   0  0  0  0  0  0  0  0  0  0  0  0
  142.5980   77.4950  219.1270 C   0  0  0  0  0  0  0  0  0  0  0  0
  141.7010   76.3020  219.3560 C   0  0  1  0  0  0  0  0  0  0  0  0
  142.5900   75.1170  219.3330 C   0  0  0  0  0  0  0  0  0  0  0  0
  143.7560   75.1600  220.0840 C   0  0  0  0  0  0  0  0  0  0  0  0
  144.6450   74.1080  220.1260 C   0  0  0  0  0  0  0  0  0  0  0  0
  144.3500   72.9700  219.3840 C   0  0  0  0  0  0  0  0  0  0  0  0
  145.3330   71.8590  219.4550 C   0  0  0  0  0  0  0  0  0  0  0  0
  146.3340   72.2980  220.3150 F   0  0  0  0  0  0  0  0  0  0  0  0
  145.9460   71.7210  218.2180 F   0  0  0  0  0  0  0  0  0  0  0  0
  144.7770   70.6760  219.8620 F   0  0  0  0  0  0  0  0  0  0  0  0
  143.1970   72.9050  218.6290 C   0  0  0  0  0  0  0  0  0  0  0  0
  142.3200   73.9760  218.6060 C   0  0  0  0  0  0  0  0  0  0  0  0
  140.2440   71.3770  223.6130 C   0  0  0  0  0  0  0  0  0  0  0  0
  139.6590   70.1360  223.5870 C   0  0  0  0  0  0  0  0  0  0  0  0
  139.5040   69.3810  224.7440 C   0  0  0  0  0  0  0  0  0  0  0  0
  139.9650   69.9330  225.9300 C   0  0  0  0  0  0  0  0  0  0  0  0
  139.8540   69.2580  227.1300 C   0  0  0  0  0  0  0  0  0  0  0  0
  140.3190   69.8230  228.2960 C   0  0  0  0  0  0  0  0  0  0  0  0
  140.9130   71.0850  228.3170 C   0  0  0  0  0  0  0  0  0  0  0  0
  141.0280   71.7660  227.1180 C   0  0  0  0  0  0  0  0  0  0  0  0
  140.5560   71.1850  225.9560 C   0  0  0  0  0  0  0  0  0  0  0  0
  140.6800   71.8680  224.8100 N   0  0  0  0  0  0  0  0  0  0  0  0
  139.4930   73.8960  223.2260 H   0  0  0  0  0  0  0  0  0  0  0  0
  140.8938   73.8876  220.5316 H   0  0  0  0  0  0  0  0  0  0  0  0
  139.1144   74.2091  220.5620 H   0  0  0  0  0  0  0  0  0  0  0  0
  140.2733   78.4554  221.2313 H   0  0  0  0  0  0  0  0  0  0  0  0
  141.8875   78.1298  221.8373 H   0  0  0  0  0  0  0  0  0  0  0  0
  141.0031   78.9469  219.0181 H   0  0  0  0  0  0  0  0  0  0  0  0
  142.3915   79.5400  219.8864 H   0  0  0  0  0  0  0  0  0  0  0  0
  142.7858   77.6485  218.0541 H   0  0  0  0  0  0  0  0  0  0  0  0
  143.5919   77.3850  219.5854 H   0  0  0  0  0  0  0  0  0  0  0  0
  140.9160   76.1075  218.6104 H   0  0  0  0  0  0  0  0  0  0  0  0
  143.9786   76.0661  220.6666 H   0  0  0  0  0  0  0  0  0  0  0  0
  145.5626   74.1670  220.7298 H   0  0  0  0  0  0  0  0  0  0  0  0
  142.9741   72.0004  218.0442 H   0  0  0  0  0  0  0  0  0  0  0  0
  141.4014   73.9168  218.0038 H   0  0  0  0  0  0  0  0  0  0  0  0
  139.3045   69.7292  222.6285 H   0  0  0  0  0  0  0  0  0  0  0  0
  139.0349   68.3863  224.7199 H   0  0  0  0  0  0  0  0  0  0  0  0
  139.3903   68.2608  227.1541 H   0  0  0  0  0  0  0  0  0  0  0  0
  140.2194   69.2635  229.2378 H   0  0  0  0  0  0  0  0  0  0  0  0
  141.2783   71.5248  229.2568 H   0  0  0  0  0  0  0  0  0  0  0  0
  141.4919   72.7630  227.0897 H   0  0  0  0  0  0  0  0  0  0  0  0
  1  2  2  0
  2  3  1  0
  3  4  1  0
  4  5  1  0
  5  6  2  0
  5  7  1  0
  7  8  1  0
  8  9  1  0
  9 10  1  0
 10 11  1  0
 11 12  1  0
 12 13  2  0
 13 14  1  0
 14 15  2  0
 15 16  1  0
 16 17  1  0
 16 18  1  0
 16 19  1  0
 15 20  1  0
 20 21  2  0
  2 22  1  0
 22 23  2  0
 23 24  1  0
 24 25  2  0
 25 26  1  0
 26 27  2  0
 27 28  1  0
 28 29  2  0
 29 30  1  0
 30 31  2  0
 11  7  1  0
 21 12  1  0
 31 22  1  0
 30 25  1  0
  3 32  1  0
  4 33  1  0
  4 34  1  0
  8 35  1  0
  8 36  1  0
  9 37  1  0
  9 38  1  0
 10 39  1  0
 10 40  1  0
 11 41  1  6
 13 42  1  0
 14 43  1  0
 20 44  1  0
 21 45  1  0
 23 46  1  0
 24 47  1  0
 26 48  1  0
 27 49  1  0
 28 50  1  0
 29 51  1  0
M  END
>  <smiles>  (53) 
O=C(NCC(=O)N1CCCC1c1ccc(C(F)(F)F)cc1)c1ccc2ccccc2n1

>  <score_type>  (53) 
oracle

>  <origin>  (53) 
autodockgpu

>  <m_score__min__energy>  (53) 
-8.6199999999999992

>  <m_primary>  (53) 
energy

>  <rmsd>  (53) 
2.3020307126208763

>  <m_score__min__rmsd>  (53) 
2.3020307126208763

>  <meeko>  (53) 
{"free_energy": -8.07, "intermolecular_energy": -9.86, "internal_energy": -1.91, "cluster_size": 12, "cluster_id": 4, "rank_in_cluster": 7}

>  <energy>  (53) 
-8.6

>  <cluster_rmsd>  (53) 
0.05

>  <cluster>  (53) 
1

$$$$

     RDKit          3D

 51 54  0  0  0  0  0  0  0  0999 V2000
  138.7120   70.7630  221.6200 O   0  0  0  0  0  0  0  0  0  0  0  0
  139.2050   71.2330  222.6860 C   0  0  0  0  0  0  0  0  0  0  0  0
  139.5470   72.6200  222.7380 N   0  0  0  0  0  0  0  0  0  0  0  0
  139.3240   73.4700  221.5690 C   0  0  0  0  0  0  0  0  0  0  0  0
  139.5140   74.9010  221.9050 C   0  0  0  0  0  0  0  0  0  0  0  0
  140.6710   75.3640  222.1830 O   0  0  0  0  0  0  0  0  0  0  0  0
  138.4470   75.8460  221.9430 N   0  0  0  0  0  0  0  0  0  0  0  0
  137.1490   75.4630  222.5440 C   0  0  0  0  0  0  0  0  0  0  0  0
  136.2200   76.5910  222.1340 C   0  0  0  0  0  0  0  0  0  0  0  0
  137.1590   77.7600  222.1030 C   0  0  0  0  0  0  0  0  0  0  0  0
  138.4010   77.1790  221.4720 C   0  0  1  0  0  0  0  0  0  0  0  0
  139.5180   78.0590  221.8900 C   0  0  0  0  0  0  0  0  0  0  0  0
  139.4370   78.6700  223.1330 C   0  0  0  0  0  0  0  0  0  0  0  0
  140.4240   79.5050  223.6090 C   0  0  0  0  0  0  0  0  0  0  0  0
  141.5340   79.7330  222.8050 C   0  0  0  0  0  0  0  0  0  0  0  0
  142.5760   80.6390  223.3540 C   0  0  0  0  0  0  0  0  0  0  0  0
  143.6920   80.4620  222.5430 F   0  0  0  0  0  0  0  0  0  0  0  0
  142.9560   80.1800  224.6080 F   0  0  0  0  0  0  0  0  0  0  0  0
  142.1740   81.9470  223.4110 F   0  0  0  0  0  0  0  0  0  0  0  0
  141.6370   79.1370  221.5650 C   0  0  0  0  0  0  0  0  0  0  0  0
  140.6300   78.3020  221.1110 C   0  0  0  0  0  0  0  0  0  0  0  0
  139.4400   70.4130  223.8710 C   0  0  0  0  0  0  0  0  0  0  0  0
  139.0700   69.0920  223.8730 C   0  0  0  0  0  0  0  0  0  0  0  0
  139.2780   68.2800  224.9810 C   0  0  0  0  0  0  0  0  0  0  0  0
  139.8760   68.8600  226.0910 C   0  0  0  0  0  0  0  0  0  0  0  0
  140.1220   68.1320  227.2390 C   0  0  0  0  0  0  0  0  0  0  0  0
  140.7170   68.7260  228.3290 C   0  0  0  0  0  0  0  0  0  0  0  0
  141.0910   70.0700  228.3230 C   0  0  0  0  0  0  0  0  0  0  0  0
  140.8480   70.8040  227.1750 C   0  0  0  0  0  0  0  0  0  0  0  0
  140.2490   70.1930  226.0890 C   0  0  0  0  0  0  0  0  0  0  0  0
  140.0250   70.9280  224.9920 N   0  0  0  0  0  0  0  0  0  0  0  0
  139.9590   73.0080  223.6330 H   0  0  0  0  0  0  0  0  0  0  0  0
  140.0364   73.1888  220.7794 H   0  0  0  0  0  0  0  0  0  0  0  0
  138.2890   73.3265  221.2253 H   0  0  0  0  0  0  0  0  0  0  0  0
  136.7991   74.5004  222.1428 H   0  0  0  0  0  0  0  0  0  0  0  0
  137.2052   75.3302  223.6345 H   0  0  0  0  0  0  0  0  0  0  0  0
  135.7767   76.4061  221.1444 H   0  0  0  0  0  0  0  0  0  0  0  0
  135.3587   76.7270  222.8045 H   0  0  0  0  0  0  0  0  0  0  0  0
  136.7511   78.5790  221.4924 H   0  0  0  0  0  0  0  0  0  0  0  0
  137.3404   78.1976  223.0958 H   0  0  0  0  0  0  0  0  0  0  0  0
  138.4400   77.1404  220.3734 H   0  0  0  0  0  0  0  0  0  0  0  0
  138.5536   78.4811  223.7606 H   0  0  0  0  0  0  0  0  0  0  0  0
  140.3357   79.9781  224.5981 H   0  0  0  0  0  0  0  0  0  0  0  0
  142.5199   79.3253  220.9364 H   0  0  0  0  0  0  0  0  0  0  0  0
  140.7175   77.8290  220.1218 H   0  0  0  0  0  0  0  0  0  0  0  0
  138.5974   68.6655  222.9759 H   0  0  0  0  0  0  0  0  0  0  0  0
  138.9809   67.2209  224.9786 H   0  0  0  0  0  0  0  0  0  0  0  0
  139.8403   67.0696  227.2824 H   0  0  0  0  0  0  0  0  0  0  0  0
  140.9029   68.1237  229.2305 H   0  0  0  0  0  0  0  0  0  0  0  0
  141.5638   70.5316  229.2024 H   0  0  0  0  0  0  0  0  0  0  0  0
  141.1296   71.8663  227.1270 H   0  0  0  0  0  0  0  0  0  0  0  0
  1  2  2  0
  2  3  1  0
  3  4  1  0
  4  5  1  0
  5  6  2  0
  5  7  1  0
  7  8  1  0
  8  9  1  0
  9 10  1  0
 10 11  1  0
 11 12  1  0
 12 13  2  0
 13 14  1  0
 14 15  2  0
 15 16  1  0
 16 17  1  0
 16 18  1  0
 16 19  1  0
 15 20  1  0
 20 21  2  0
  2 22  1  0
 22 23  2  0
 23 24  1  0
 24 25  2  0
 25 26  1  0
 26 27  2  0
 27 28  1  0
 28 29  2  0
 29 30  1  0
 30 31  2  0
 11  7  1  0
 21 12  1  0
 31 22  1  0
 30 25  1  0
  3 32  1  0
  4 33  1  0
  4 34  1  0
  8 35  1  0
  8 36  1  0
  9 37  1  0
  9 38  1  0
 10 39  1  0
 10 40  1  0
 11 41  1  6
 13 42  1  0
 14 43  1  0
 20 44  1  0
 21 45  1  0
 23 46  1  0
 24 47  1  0
 26 48  1  0
 27 49  1  0
 28 50  1  0
 29 51  1  0
M  END
>  <smiles>  (54) 
O=C(NCC(=O)N1CCCC1c1ccc(C(F)(F)F)cc1)c1ccc2ccccc2n1

>  <score_type>  (54) 
oracle

>  <origin>  (54) 
autodockgpu

>  <m_score__min__energy>  (54) 
-8.6199999999999992

>  <m_primary>  (54) 
energy

>  <rmsd>  (54) 
2.823875071955202

>  <m_score__min__rmsd>  (54) 
2.823875071955202

>  <meeko>  (54) 
{"free_energy": -8.36, "intermolecular_energy": -10.15, "internal_energy": -1.63, "cluster_size": 15, "cluster_id": 1, "rank_in_cluster": 7}

>  <energy>  (54) 
-8.57

>  <cluster_rmsd>  (54) 
0.08

>  <cluster>  (54) 
1

$$$$

     RDKit          3D

 51 54  0  0  0  0  0  0  0  0999 V2000
  140.2060   77.5110  219.0230 O   0  0  0  0  0  0  0  0  0  0  0  0
  141.4330   77.3470  219.2790 C   0  0  0  0  0  0  0  0  0  0  0  0
  142.2790   78.4960  219.3790 N   0  0  0  0  0  0  0  0  0  0  0  0
  141.7180   79.8330  219.1860 C   0  0  0  0  0  0  0  0  0  0  0  0
  140.9970   80.2900  220.3980 C   0  0  0  0  0  0  0  0  0  0  0  0
  139.8830   80.9080  220.3090 O   0  0  0  0  0  0  0  0  0  0  0  0
  141.4810   80.0820  221.7230 N   0  0  0  0  0  0  0  0  0  0  0  0
  141.8910   81.2440  222.5450 C   0  0  0  0  0  0  0  0  0  0  0  0
  142.6030   80.6100  223.7270 C   0  0  0  0  0  0  0  0  0  0  0  0
  141.8540   79.3190  223.8730 C   0  0  0  0  0  0  0  0  0  0  0  0
  141.6570   78.8770  222.4440 C   0  0  1  0  0  0  0  0  0  0  0  0
  140.5000   77.9520  222.4610 C   0  0  0  0  0  0  0  0  0  0  0  0
  139.2330   78.4920  222.6260 C   0  0  0  0  0  0  0  0  0  0  0  0
  138.0970   77.7130  222.6570 C   0  0  0  0  0  0  0  0  0  0  0  0
  138.2420   76.3380  222.5140 C   0  0  0  0  0  0  0  0  0  0  0  0
  136.9940   75.5330  222.5520 C   0  0  0  0  0  0  0  0  0  0  0  0
  136.1280   76.1400  221.6480 F   0  0  0  0  0  0  0  0  0  0  0  0
  136.3950   75.6890  223.7950 F   0  0  0  0  0  0  0  0  0  0  0  0
  137.2000   74.2090  222.2690 F   0  0  0  0  0  0  0  0  0  0  0  0
  139.4920   75.7770  222.3490 C   0  0  0  0  0  0  0  0  0  0  0  0
  140.6170   76.5830  222.3220 C   0  0  0  0  0  0  0  0  0  0  0  0
  142.0250   76.0280  219.4780 C   0  0  0  0  0  0  0  0  0  0  0  0
  141.2770   74.9010  219.2460 C   0  0  0  0  0  0  0  0  0  0  0  0
  141.8060   73.6290  219.4230 C   0  0  0  0  0  0  0  0  0  0  0  0
  143.1240   73.5410  219.8470 C   0  0  0  0  0  0  0  0  0  0  0  0
  143.7350   72.3190  220.0510 C   0  0  0  0  0  0  0  0  0  0  0  0
  145.0450   72.2530  220.4710 C   0  0  0  0  0  0  0  0  0  0  0  0
  145.8010   73.4020  220.7060 C   0  0  0  0  0  0  0  0  0  0  0  0
  145.1940   74.6290  220.5020 C   0  0  0  0  0  0  0  0  0  0  0  0
  143.8780   74.6780  220.0810 C   0  0  0  0  0  0  0  0  0  0  0  0
  143.3170   75.8790  219.8920 N   0  0  0  0  0  0  0  0  0  0  0  0
  143.3050   78.3530  219.5930 H   0  0  0  0  0  0  0  0  0  0  0  0
  142.5345   80.5369  218.9670 H   0  0  0  0  0  0  0  0  0  0  0  0
  141.0050   79.7950  218.3492 H   0  0  0  0  0  0  0  0  0  0  0  0
  142.5706   81.9022  221.9838 H   0  0  0  0  0  0  0  0  0  0  0  0
  141.0426   81.8764  222.8454 H   0  0  0  0  0  0  0  0  0  0  0  0
  143.6666   80.4345  223.5079 H   0  0  0  0  0  0  0  0  0  0  0  0
  142.6045   81.2316  224.6345 H   0  0  0  0  0  0  0  0  0  0  0  0
  142.4437   78.5815  224.4372 H   0  0  0  0  0  0  0  0  0  0  0  0
  140.9101   79.4260  224.4275 H   0  0  0  0  0  0  0  0  0  0  0  0
  142.4800   78.3246  221.9669 H   0  0  0  0  0  0  0  0  0  0  0  0
  139.1315   79.5818  222.7361 H   0  0  0  0  0  0  0  0  0  0  0  0
  137.1037   78.1662  222.7911 H   0  0  0  0  0  0  0  0  0  0  0  0
  139.5945   74.6874  222.2387 H   0  0  0  0  0  0  0  0  0  0  0  0
  141.6106   76.1302  222.1890 H   0  0  0  0  0  0  0  0  0  0  0  0
  140.2343   75.0075  218.9121 H   0  0  0  0  0  0  0  0  0  0  0  0
  141.2042   72.7277  219.2346 H   0  0  0  0  0  0  0  0  0  0  0  0
  143.1707   71.3911  219.8766 H   0  0  0  0  0  0  0  0  0  0  0  0
  145.5081   71.2673  220.6254 H   0  0  0  0  0  0  0  0  0  0  0  0
  146.8461   73.3348  221.0426 H   0  0  0  0  0  0  0  0  0  0  0  0
  145.7551   75.5594  220.6738 H   0  0  0  0  0  0  0  0  0  0  0  0
  1  2  2  0
  2  3  1  0
  3  4  1  0
  4  5  1  0
  5  6  2  0
  5  7  1  0
  7  8  1  0
  8  9  1  0
  9 10  1  0
 10 11  1  0
 11 12  1  0
 12 13  2  0
 13 14  1  0
 14 15  2  0
 15 16  1  0
 16 17  1  0
 16 18  1  0
 16 19  1  0
 15 20  1  0
 20 21  2  0
  2 22  1  0
 22 23  2  0
 23 24  1  0
 24 25  2  0
 25 26  1  0
 26 27  2  0
 27 28  1  0
 28 29  2  0
 29 30  1  0
 30 31  2  0
 11  7  1  0
 21 12  1  0
 31 22  1  0
 30 25  1  0
  3 32  1  0
  4 33  1  0
  4 34  1  0
  8 35  1  0
  8 36  1  0
  9 37  1  0
  9 38  1  0
 10 39  1  0
 10 40  1  0
 11 41  1  6
 13 42  1  0
 14 43  1  0
 20 44  1  0
 21 45  1  0
 23 46  1  0
 24 47  1  0
 26 48  1  0
 27 49  1  0
 28 50  1  0
 29 51  1  0
M  END
>  <smiles>  (55) 
O=C(NCC(=O)N1CCCC1c1ccc(C(F)(F)F)cc1)c1ccc2ccccc2n1

>  <score_type>  (55) 
oracle

>  <origin>  (55) 
autodockgpu

>  <m_score__min__energy>  (55) 
-8.6199999999999992

>  <m_primary>  (55) 
energy

>  <rmsd>  (55) 
7.454201004617269

>  <m_score__min__rmsd>  (55) 
7.454201004617269

>  <meeko>  (55) 
{"free_energy": -6.93, "intermolecular_energy": -8.72, "internal_energy": -2.67, "cluster_size": 5, "cluster_id": 8, "rank_in_cluster": 2}

>  <energy>  (55) 
-8.4

>  <cluster_rmsd>  (55) 
0.87

>  <cluster>  (55) 
1

$$$$

     RDKit          3D

 51 54  0  0  0  0  0  0  0  0999 V2000
  141.0410   72.7960  222.5840 O   0  0  0  0  0  0  0  0  0  0  0  0
  139.9620   72.2540  222.9600 C   0  0  0  0  0  0  0  0  0  0  0  0
  138.7300   72.6860  222.3760 N   0  0  0  0  0  0  0  0  0  0  0  0
  138.7350   73.7380  221.3610 C   0  0  0  0  0  0  0  0  0  0  0  0
  139.0410   75.0590  221.9620 C   0  0  0  0  0  0  0  0  0  0  0  0
  140.2380   75.3820  222.2670 O   0  0  0  0  0  0  0  0  0  0  0  0
  138.0480   76.0430  222.2390 N   0  0  0  0  0  0  0  0  0  0  0  0
  136.8340   75.6670  222.9990 C   0  0  0  0  0  0  0  0  0  0  0  0
  135.9210   76.8670  222.8290 C   0  0  0  0  0  0  0  0  0  0  0  0
  136.9110   77.9910  222.7490 C   0  0  0  0  0  0  0  0  0  0  0  0
  138.0090   77.4140  221.8900 C   0  0  1  0  0  0  0  0  0  0  0  0
  139.2240   78.2020  222.2010 C   0  0  0  0  0  0  0  0  0  0  0  0
  139.2160   78.9910  223.3430 C   0  0  0  0  0  0  0  0  0  0  0  0
  140.2970   79.7600  223.7160 C   0  0  0  0  0  0  0  0  0  0  0  0
  141.4290   79.7330  222.9100 C   0  0  0  0  0  0  0  0  0  0  0  0
  142.5730   80.5740  223.3460 C   0  0  0  0  0  0  0  0  0  0  0  0
  142.1540   81.8910  223.1820 F   0  0  0  0  0  0  0  0  0  0  0  0
  143.6210   80.4080  222.4510 F   0  0  0  0  0  0  0  0  0  0  0  0
  142.9760   80.3110  224.6280 F   0  0  0  0  0  0  0  0  0  0  0  0
  141.4610   78.9560  221.7700 C   0  0  0  0  0  0  0  0  0  0  0  0
  140.3610   78.1930  221.4190 C   0  0  0  0  0  0  0  0  0  0  0  0
  139.9220   71.2010  223.9700 C   0  0  0  0  0  0  0  0  0  0  0  0
  139.3020   70.0100  223.6920 C   0  0  0  0  0  0  0  0  0  0  0  0
  139.2450   68.9840  224.6280 C   0  0  0  0  0  0  0  0  0  0  0  0
  139.8420   69.2120  225.8590 C   0  0  0  0  0  0  0  0  0  0  0  0
  139.8350   68.2520  226.8520 C   0  0  0  0  0  0  0  0  0  0  0  0
  140.4330   68.4980  228.0680 C   0  0  0  0  0  0  0  0  0  0  0  0
  141.0620   69.7120  228.3460 C   0  0  0  0  0  0  0  0  0  0  0  0
  141.0730   70.6780  227.3540 C   0  0  0  0  0  0  0  0  0  0  0  0
  140.4670   70.4140  226.1400 C   0  0  0  0  0  0  0  0  0  0  0  0
  140.4930   71.3680  225.2000 N   0  0  0  0  0  0  0  0  0  0  0  0
  137.8300   72.2280  222.6940 H   0  0  0  0  0  0  0  0  0  0  0  0
  139.4973   73.5027  220.6036 H   0  0  0  0  0  0  0  0  0  0  0  0
  137.7362   73.7858  220.9027 H   0  0  0  0  0  0  0  0  0  0  0  0
  136.3732   74.7604  222.5798 H   0  0  0  0  0  0  0  0  0  0  0  0
  137.0444   75.4359  224.0537 H   0  0  0  0  0  0  0  0  0  0  0  0
  135.3253   76.7906  221.9075 H   0  0  0  0  0  0  0  0  0  0  0  0
  135.1784   76.9814  223.6324 H   0  0  0  0  0  0  0  0  0  0  0  0
  136.4645   78.8785  222.2769 H   0  0  0  0  0  0  0  0  0  0  0  0
  137.2636   78.3297  223.7344 H   0  0  0  0  0  0  0  0  0  0  0  0
  137.8813   77.4717  220.7990 H   0  0  0  0  0  0  0  0  0  0  0  0
  138.3143   79.0028  223.9729 H   0  0  0  0  0  0  0  0  0  0  0  0
  140.2649   80.3776  224.6257 H   0  0  0  0  0  0  0  0  0  0  0  0
  142.3622   78.9431  221.1393 H   0  0  0  0  0  0  0  0  0  0  0  0
  140.3932   77.5747  220.5098 H   0  0  0  0  0  0  0  0  0  0  0  0
  138.8389   69.8631  222.7051 H   0  0  0  0  0  0  0  0  0  0  0  0
  138.7466   68.0299  224.4016 H   0  0  0  0  0  0  0  0  0  0  0  0
  139.3477   67.2828  226.6701 H   0  0  0  0  0  0  0  0  0  0  0  0
  140.4142   67.7159  228.8413 H   0  0  0  0  0  0  0  0  0  0  0  0
  141.5342   69.8959  229.3223 H   0  0  0  0  0  0  0  0  0  0  0  0
  141.5603   71.6482  227.5307 H   0  0  0  0  0  0  0  0  0  0  0  0
  1  2  2  0
  2  3  1  0
  3  4  1  0
  4  5  1  0
  5  6  2  0
  5  7  1  0
  7  8  1  0
  8  9  1  0
  9 10  1  0
 10 11  1  0
 11 12  1  0
 12 13  2  0
 13 14  1  0
 14 15  2  0
 15 16  1  0
 16 17  1  0
 16 18  1  0
 16 19  1  0
 15 20  1  0
 20 21  2  0
  2 22  1  0
 22 23  2  0
 23 24  1  0
 24 25  2  0
 25 26  1  0
 26 27  2  0
 27 28  1  0
 28 29  2  0
 29 30  1  0
 30 31  2  0
 11  7  1  0
 21 12  1  0
 31 22  1  0
 30 25  1  0
  3 32  1  0
  4 33  1  0
  4 34  1  0
  8 35  1  0
  8 36  1  0
  9 37  1  0
  9 38  1  0
 10 39  1  0
 10 40  1  0
 11 41  1  6
 13 42  1  0
 14 43  1  0
 20 44  1  0
 21 45  1  0
 23 46  1  0
 24 47  1  0
 26 48  1  0
 27 49  1  0
 28 50  1  0
 29 51  1  0
M  END
>  <smiles>  (56) 
O=C(NCC(=O)N1CCCC1c1ccc(C(F)(F)F)cc1)c1ccc2ccccc2n1

>  <score_type>  (56) 
oracle

>  <origin>  (56) 
autodockgpu

>  <m_score__min__energy>  (56) 
-8.6199999999999992

>  <m_primary>  (56) 
energy

>  <rmsd>  (56) 
3.222773770999307

>  <m_score__min__rmsd>  (56) 
3.222773770999307

>  <meeko>  (56) 
{"free_energy": -8.62, "intermolecular_energy": -10.41, "internal_energy": -1.27, "cluster_size": 15, "cluster_id": 1, "rank_in_cluster": 1}

>  <energy>  (56) 
-8.36

>  <cluster_rmsd>  (56) 
0.85

>  <cluster>  (56) 
1

$$$$

     RDKit          3D

 51 54  0  0  0  0  0  0  0  0999 V2000
  138.6320   75.2770  221.9510 O   0  0  0  0  0  0  0  0  0  0  0  0
  139.7860   75.7670  222.1130 C   0  0  0  0  0  0  0  0  0  0  0  0
  140.9270   74.9230  221.9400 N   0  0  0  0  0  0  0  0  0  0  0  0
  140.7450   73.5170  221.5820 C   0  0  0  0  0  0  0  0  0  0  0  0
  141.5840   73.1500  220.4150 C   0  0  0  0  0  0  0  0  0  0  0  0
  141.0650   72.6500  219.3610 O   0  0  0  0  0  0  0  0  0  0  0  0
  142.9990   73.3200  220.3830 N   0  0  0  0  0  0  0  0  0  0  0  0
  143.8780   72.1350  220.2570 C   0  0  0  0  0  0  0  0  0  0  0  0
  145.2620   72.6840  220.5540 C   0  0  0  0  0  0  0  0  0  0  0  0
  145.1530   74.0820  220.0230 C   0  0  0  0  0  0  0  0  0  0  0  0
  143.7710   74.5030  220.4600 C   0  0  1  0  0  0  0  0  0  0  0  0
  143.3750   75.6020  219.5480 C   0  0  0  0  0  0  0  0  0  0  0  0
  142.6420   76.6550  220.0740 C   0  0  0  0  0  0  0  0  0  0  0  0
  142.2270   77.7220  219.3060 C   0  0  0  0  0  0  0  0  0  0  0  0
  142.5640   77.7280  217.9580 C   0  0  0  0  0  0  0  0  0  0  0  0
  142.0980   78.8940  217.1640 C   0  0  0  0  0  0  0  0  0  0  0  0
  142.5700   78.6810  215.8730 F   0  0  0  0  0  0  0  0  0  0  0  0
  142.7540   80.0330  217.6110 F   0  0  0  0  0  0  0  0  0  0  0  0
  140.7400   79.0630  217.2030 F   0  0  0  0  0  0  0  0  0  0  0  0
  143.2920   76.6910  217.4120 C   0  0  0  0  0  0  0  0  0  0  0  0
  143.6960   75.6320  218.2060 C   0  0  0  0  0  0  0  0  0  0  0  0
  140.0030   77.1660  222.4700 C   0  0  0  0  0  0  0  0  0  0  0  0
  138.9280   77.9980  222.6570 C   0  0  0  0  0  0  0  0  0  0  0  0
  139.0950   79.3350  222.9980 C   0  0  0  0  0  0  0  0  0  0  0  0
  140.3950   79.7970  223.1420 C   0  0  0  0  0  0  0  0  0  0  0  0
  140.6590   81.1110  223.4780 C   0  0  0  0  0  0  0  0  0  0  0  0
  141.9570   81.5500  223.6170 C   0  0  0  0  0  0  0  0  0  0  0  0
  143.0460   80.7000  223.4250 C   0  0  0  0  0  0  0  0  0  0  0  0
  142.7880   79.3820  223.0890 C   0  0  0  0  0  0  0  0  0  0  0  0
  141.4790   78.9580  222.9530 C   0  0  0  0  0  0  0  0  0  0  0  0
  141.2590   77.6780  222.6260 N   0  0  0  0  0  0  0  0  0  0  0  0
  141.8910   75.3380  222.0760 H   0  0  0  0  0  0  0  0  0  0  0  0
  141.0275   72.8885  222.4394 H   0  0  0  0  0  0  0  0  0  0  0  0
  139.6893   73.3578  221.3171 H   0  0  0  0  0  0  0  0  0  0  0  0
  143.5985   71.3595  220.9853 H   0  0  0  0  0  0  0  0  0  0  0  0
  143.8111   71.6563  219.2689 H   0  0  0  0  0  0  0  0  0  0  0  0
  145.4720   72.6801  221.6338 H   0  0  0  0  0  0  0  0  0  0  0  0
  146.0802   72.0990  220.1086 H   0  0  0  0  0  0  0  0  0  0  0  0
  145.9226   74.7334  220.4629 H   0  0  0  0  0  0  0  0  0  0  0  0
  145.3024   74.1459  218.9351 H   0  0  0  0  0  0  0  0  0  0  0  0
  143.6618   74.9002  221.4800 H   0  0  0  0  0  0  0  0  0  0  0  0
  142.3822   76.6384  221.1428 H   0  0  0  0  0  0  0  0  0  0  0  0
  141.6458   78.5449  219.7476 H   0  0  0  0  0  0  0  0  0  0  0  0
  143.5519   76.7060  216.3432 H   0  0  0  0  0  0  0  0  0  0  0  0
  144.2768   74.8087  217.7646 H   0  0  0  0  0  0  0  0  0  0  0  0
  137.9108   77.5977  222.5342 H   0  0  0  0  0  0  0  0  0  0  0  0
  138.2314   79.9997  223.1476 H   0  0  0  0  0  0  0  0  0  0  0  0
  139.8260   81.8119  223.6357 H   0  0  0  0  0  0  0  0  0  0  0  0
  142.1400   82.6005  223.8870 H   0  0  0  0  0  0  0  0  0  0  0  0
  144.0775   81.0654  223.5370 H   0  0  0  0  0  0  0  0  0  0  0  0
  143.6180   78.6775  222.9314 H   0  0  0  0  0  0  0  0  0  0  0  0
  1  2  2  0
  2  3  1  0
  3  4  1  0
  4  5  1  0
  5  6  2  0
  5  7  1  0
  7  8  1  0
  8  9  1  0
  9 10  1  0
 10 11  1  0
 11 12  1  0
 12 13  2  0
 13 14  1  0
 14 15  2  0
 15 16  1  0
 16 17  1  0
 16 18  1  0
 16 19  1  0
 15 20  1  0
 20 21  2  0
  2 22  1  0
 22 23  2  0
 23 24  1  0
 24 25  2  0
 25 26  1  0
 26 27  2  0
 27 28  1  0
 28 29  2  0
 29 30  1  0
 30 31  2  0
 11  7  1  0
 21 12  1  0
 31 22  1  0
 30 25  1  0
  3 32  1  0
  4 33  1  0
  4 34  1  0
  8 35  1  0
  8 36  1  0
  9 37  1  0
  9 38  1  0
 10 39  1  0
 10 40  1  0
 11 41  1  1
 13 42  1  0
 14 43  1  0
 20 44  1  0
 21 45  1  0
 23 46  1  0
 24 47  1  0
 26 48  1  0
 27 49  1  0
 28 50  1  0
 29 51  1  0
M  END
>  <smiles>  (57) 
O=C(NCC(=O)N1CCCC1c1ccc(C(F)(F)F)cc1)c1ccc2ccccc2n1

>  <score_type>  (57) 
oracle

>  <origin>  (57) 
autodockgpu

>  <m_score__min__energy>  (57) 
-8.6199999999999992

>  <m_primary>  (57) 
energy

>  <rmsd>  (57) 
7.758093165182448

>  <m_score__min__rmsd>  (57) 
7.758093165182448

>  <meeko>  (57) 
{"free_energy": -7.23, "intermolecular_energy": -9.02, "internal_energy": -2.42, "cluster_size": 5, "cluster_id": 7, "rank_in_cluster": 4}

>  <energy>  (57) 
-8.36

>  <cluster_rmsd>  (57) 
0.9

>  <cluster>  (57) 
1

$$$$

     RDKit          3D

 51 54  0  0  0  0  0  0  0  0999 V2000
  140.1790   75.4710  220.5960 O   0  0  0  0  0  0  0  0  0  0  0  0
  139.6270   75.8670  221.6630 C   0  0  0  0  0  0  0  0  0  0  0  0
  138.7210   74.9910  222.3390 N   0  0  0  0  0  0  0  0  0  0  0  0
  138.4480   73.6620  221.7940 C   0  0  0  0  0  0  0  0  0  0  0  0
  139.6180   72.7670  221.9580 C   0  0  0  0  0  0  0  0  0  0  0  0
  140.7430   73.2190  222.3610 O   0  0  0  0  0  0  0  0  0  0  0  0
  139.5800   71.3680  221.6840 N   0  0  0  0  0  0  0  0  0  0  0  0
  140.2290   70.8410  220.4620 C   0  0  0  0  0  0  0  0  0  0  0  0
  139.7260   69.4120  220.3780 C   0  0  0  0  0  0  0  0  0  0  0  0
  139.5740   69.0600  221.8280 C   0  0  0  0  0  0  0  0  0  0  0  0
  138.9860   70.3170  222.4220 C   0  0  1  0  0  0  0  0  0  0  0  0
  139.3060   70.2710  223.8680 C   0  0  0  0  0  0  0  0  0  0  0  0
  140.3390   71.0710  224.3340 C   0  0  0  0  0  0  0  0  0  0  0  0
  140.7120   71.0970  225.6600 C   0  0  0  0  0  0  0  0  0  0  0  0
  140.0180   70.2870  226.5510 C   0  0  0  0  0  0  0  0  0  0  0  0
  140.4490   70.3430  227.9710 C   0  0  0  0  0  0  0  0  0  0  0  0
  141.0700   69.1230  228.2230 F   0  0  0  0  0  0  0  0  0  0  0  0
  139.3240   70.3560  228.7830 F   0  0  0  0  0  0  0  0  0  0  0  0
  141.2640   71.4100  228.2440 F   0  0  0  0  0  0  0  0  0  0  0  0
  138.9870   69.4820  226.1120 C   0  0  0  0  0  0  0  0  0  0  0  0
  138.6330   69.4760  224.7730 C   0  0  0  0  0  0  0  0  0  0  0  0
  139.8780   77.1870  222.2340 C   0  0  0  0  0  0  0  0  0  0  0  0
  138.8330   77.9300  222.7210 C   0  0  0  0  0  0  0  0  0  0  0  0
  139.0330   79.1900  223.2730 C   0  0  0  0  0  0  0  0  0  0  0  0
  140.3350   79.6680  223.3120 C   0  0  0  0  0  0  0  0  0  0  0  0
  140.6310   80.9090  223.8420 C   0  0  0  0  0  0  0  0  0  0  0  0
  141.9300   81.3650  223.8720 C   0  0  0  0  0  0  0  0  0  0  0  0
  142.9880   80.6050  223.3750 C   0  0  0  0  0  0  0  0  0  0  0  0
  142.6980   79.3600  222.8440 C   0  0  0  0  0  0  0  0  0  0  0  0
  141.3880   78.9170  222.8210 C   0  0  0  0  0  0  0  0  0  0  0  0
  141.1370   77.7090  222.3010 N   0  0  0  0  0  0  0  0  0  0  0  0
  138.2620   75.3280  223.2320 H   0  0  0  0  0  0  0  0  0  0  0  0
  137.5864   73.2273  222.3220 H   0  0  0  0  0  0  0  0  0  0  0  0
  138.2330   73.7624  220.7199 H   0  0  0  0  0  0  0  0  0  0  0  0
  139.9243   71.4172  219.5759 H   0  0  0  0  0  0  0  0  0  0  0  0
  141.3264   70.9061  220.4993 H   0  0  0  0  0  0  0  0  0  0  0  0
  138.7636   69.3557  219.8483 H   0  0  0  0  0  0  0  0  0  0  0  0
  140.3908   68.7357  219.8206 H   0  0  0  0  0  0  0  0  0  0  0  0
  138.8939   68.2053  221.9583 H   0  0  0  0  0  0  0  0  0  0  0  0
  140.5192   68.7571  222.3022 H   0  0  0  0  0  0  0  0  0  0  0  0
  137.8955   70.4457  222.3573 H   0  0  0  0  0  0  0  0  0  0  0  0
  140.8801   71.7079  223.6187 H   0  0  0  0  0  0  0  0  0  0  0  0
  141.5354   71.7403  226.0036 H   0  0  0  0  0  0  0  0  0  0  0  0
  138.4456   68.8443  226.8263 H   0  0  0  0  0  0  0  0  0  0  0  0
  137.8096   68.8330  224.4286 H   0  0  0  0  0  0  0  0  0  0  0  0
  137.8135   77.5195  222.6737 H   0  0  0  0  0  0  0  0  0  0  0  0
  138.1933   79.7839  223.6630 H   0  0  0  0  0  0  0  0  0  0  0  0
  139.8226   81.5379  224.2432 H   0  0  0  0  0  0  0  0  0  0  0  0
  142.1388   82.3566  224.3000 H   0  0  0  0  0  0  0  0  0  0  0  0
  144.0207   80.9829  223.4040 H   0  0  0  0  0  0  0  0  0  0  0  0
  143.5037   78.7274  222.4431 H   0  0  0  0  0  0  0  0  0  0  0  0
  1  2  2  0
  2  3  1  0
  3  4  1  0
  4  5  1  0
  5  6  2  0
  5  7  1  0
  7  8  1  0
  8  9  1  0
  9 10  1  0
 10 11  1  0
 11 12  1  0
 12 13  2  0
 13 14  1  0
 14 15  2  0
 15 16  1  0
 16 17  1  0
 16 18  1  0
 16 19  1  0
 15 20  1  0
 20 21  2  0
  2 22  1  0
 22 23  2  0
 23 24  1  0
 24 25  2  0
 25 26  1  0
 26 27  2  0
 27 28  1  0
 28 29  2  0
 29 30  1  0
 30 31  2  0
 11  7  1  0
 21 12  1  0
 31 22  1  0
 30 25  1  0
  3 32  1  0
  4 33  1  0
  4 34  1  0
  8 35  1  0
  8 36  1  0
  9 37  1  0
  9 38  1  0
 10 39  1  0
 10 40  1  0
 11 41  1  1
 13 42  1  0
 14 43  1  0
 20 44  1  0
 21 45  1  0
 23 46  1  0
 24 47  1  0
 26 48  1  0
 27 49  1  0
 28 50  1  0
 29 51  1  0
M  END
>  <smiles>  (58) 
O=C(NCC(=O)N1CCCC1c1ccc(C(F)(F)F)cc1)c1ccc2ccccc2n1

>  <score_type>  (58) 
oracle

>  <origin>  (58) 
autodockgpu

>  <m_score__min__energy>  (58) 
-8.6199999999999992

>  <m_primary>  (58) 
energy

>  <rmsd>  (58) 
8.07364669653262

>  <m_score__min__rmsd>  (58) 
8.07364669653262

>  <meeko>  (58) 
{"free_energy": -8.47, "intermolecular_energy": -10.26, "internal_energy": -1.16, "cluster_size": 2, "cluster_id": 2, "rank_in_cluster": 1}

>  <energy>  (58) 
-8.35

>  <cluster_rmsd>  (58) 
0.91

>  <cluster>  (58) 
1

$$$$

     RDKit          3D

 51 54  0  0  0  0  0  0  0  0999 V2000
  141.0480   72.7530  222.4880 O   0  0  0  0  0  0  0  0  0  0  0  0
  139.9770   72.2500  222.9340 C   0  0  0  0  0  0  0  0  0  0  0  0
  138.7270   72.7190  222.4230 N   0  0  0  0  0  0  0  0  0  0  0  0
  138.7040   73.7630  221.4000 C   0  0  0  0  0  0  0  0  0  0  0  0
  139.0110   75.0910  221.9850 C   0  0  0  0  0  0  0  0  0  0  0  0
  140.2070   75.4140  222.2920 O   0  0  0  0  0  0  0  0  0  0  0  0
  138.0190   76.0810  222.2440 N   0  0  0  0  0  0  0  0  0  0  0  0
  136.7990   75.7180  223.0020 C   0  0  0  0  0  0  0  0  0  0  0  0
  135.8900   76.9190  222.8120 C   0  0  0  0  0  0  0  0  0  0  0  0
  136.8840   78.0390  222.7230 C   0  0  0  0  0  0  0  0  0  0  0  0
  137.9860   77.4480  221.8780 C   0  0  1  0  0  0  0  0  0  0  0  0
  139.2020   78.2360  222.1870 C   0  0  0  0  0  0  0  0  0  0  0  0
  139.1990   79.0180  223.3330 C   0  0  0  0  0  0  0  0  0  0  0  0
  140.2810   79.7860  223.7050 C   0  0  0  0  0  0  0  0  0  0  0  0
  141.4080   79.7660  222.8930 C   0  0  0  0  0  0  0  0  0  0  0  0
  142.5530   80.6070  223.3270 C   0  0  0  0  0  0  0  0  0  0  0  0
  142.1290   81.9240  223.1770 F   0  0  0  0  0  0  0  0  0  0  0  0
  143.5940   80.4520  222.4220 F   0  0  0  0  0  0  0  0  0  0  0  0
  142.9670   80.3340  224.6030 F   0  0  0  0  0  0  0  0  0  0  0  0
  141.4350   78.9970  221.7480 C   0  0  0  0  0  0  0  0  0  0  0  0
  140.3340   78.2340  221.3980 C   0  0  0  0  0  0  0  0  0  0  0  0
  139.9650   71.2060  223.9550 C   0  0  0  0  0  0  0  0  0  0  0  0
  139.4050   69.9850  223.6760 C   0  0  0  0  0  0  0  0  0  0  0  0
  139.3760   68.9660  224.6210 C   0  0  0  0  0  0  0  0  0  0  0  0
  139.9360   69.2330  225.8620 C   0  0  0  0  0  0  0  0  0  0  0  0
  139.9530   68.2830  226.8640 C   0  0  0  0  0  0  0  0  0  0  0  0
  140.5150   68.5680  228.0890 C   0  0  0  0  0  0  0  0  0  0  0  0
  141.0820   69.8120  228.3670 C   0  0  0  0  0  0  0  0  0  0  0  0
  141.0690   70.7670  227.3660 C   0  0  0  0  0  0  0  0  0  0  0  0
  140.5010   70.4660  226.1420 C   0  0  0  0  0  0  0  0  0  0  0  0
  140.5020   71.4100  225.1930 N   0  0  0  0  0  0  0  0  0  0  0  0
  137.8340   72.2940  222.7990 H   0  0  0  0  0  0  0  0  0  0  0  0
  139.4533   73.5278  220.6298 H   0  0  0  0  0  0  0  0  0  0  0  0
  137.6962   73.7994  220.9607 H   0  0  0  0  0  0  0  0  0  0  0  0
  136.3379   74.8076  222.5914 H   0  0  0  0  0  0  0  0  0  0  0  0
  137.0028   75.4995  224.0606 H   0  0  0  0  0  0  0  0  0  0  0  0
  135.2988   76.8327  221.8884 H   0  0  0  0  0  0  0  0  0  0  0  0
  135.1435   77.0457  223.6099 H   0  0  0  0  0  0  0  0  0  0  0  0
  136.4428   78.9215  222.2367 H   0  0  0  0  0  0  0  0  0  0  0  0
  137.2318   78.3893  223.7060 H   0  0  0  0  0  0  0  0  0  0  0  0
  137.8649   77.4929  220.7856 H   0  0  0  0  0  0  0  0  0  0  0  0
  138.3005   79.0252  223.9675 H   0  0  0  0  0  0  0  0  0  0  0  0
  140.2531   80.3975  224.6189 H   0  0  0  0  0  0  0  0  0  0  0  0
  142.3326   78.9900  221.1122 H   0  0  0  0  0  0  0  0  0  0  0  0
  140.3619   77.6219  220.4845 H   0  0  0  0  0  0  0  0  0  0  0  0
  138.9690   69.8084  222.6817 H   0  0  0  0  0  0  0  0  0  0  0  0
  138.9273   67.9876  224.3941 H   0  0  0  0  0  0  0  0  0  0  0  0
  139.5143   67.2907  226.6826 H   0  0  0  0  0  0  0  0  0  0  0  0
  140.5167   67.7931  228.8697 H   0  0  0  0  0  0  0  0  0  0  0  0
  141.5252   70.0267  229.3506 H   0  0  0  0  0  0  0  0  0  0  0  0
  141.5080   71.7599  227.5430 H   0  0  0  0  0  0  0  0  0  0  0  0
  1  2  2  0
  2  3  1  0
  3  4  1  0
  4  5  1  0
  5  6  2  0
  5  7  1  0
  7  8  1  0
  8  9  1  0
  9 10  1  0
 10 11  1  0
 11 12  1  0
 12 13  2  0
 13 14  1  0
 14 15  2  0
 15 16  1  0
 16 17  1  0
 16 18  1  0
 16 19  1  0
 15 20  1  0
 20 21  2  0
  2 22  1  0
 22 23  2  0
 23 24  1  0
 24 25  2  0
 25 26  1  0
 26 27  2  0
 27 28  1  0
 28 29  2  0
 29 30  1  0
 30 31  2  0
 11  7  1  0
 21 12  1  0
 31 22  1  0
 30 25  1  0
  3 32  1  0
  4 33  1  0
  4 34  1  0
  8 35  1  0
  8 36  1  0
  9 37  1  0
  9 38  1  0
 10 39  1  0
 10 40  1  0
 11 41  1  6
 13 42  1  0
 14 43  1  0
 20 44  1  0
 21 45  1  0
 23 46  1  0
 24 47  1  0
 26 48  1  0
 27 49  1  0
 28 50  1  0
 29 51  1  0
M  END
>  <smiles>  (59) 
O=C(NCC(=O)N1CCCC1c1ccc(C(F)(F)F)cc1)c1ccc2ccccc2n1

>  <score_type>  (59) 
oracle

>  <origin>  (59) 
autodockgpu

>  <m_score__min__energy>  (59) 
-8.6199999999999992

>  <m_primary>  (59) 
energy

>  <rmsd>  (59) 
3.225203748117104

>  <m_score__min__rmsd>  (59) 
3.225203748117104

>  <meeko>  (59) 
{"free_energy": -8.62, "intermolecular_energy": -10.41, "internal_energy": -1.28, "cluster_size": 15, "cluster_id": 1, "rank_in_cluster": 2}

>  <energy>  (59) 
-8.3

>  <cluster_rmsd>  (59) 
0.88

>  <cluster>  (59) 
1

$$$$

     RDKit          3D

 51 54  0  0  0  0  0  0  0  0999 V2000
  138.6660   75.3280  221.9920 O   0  0  0  0  0  0  0  0  0  0  0  0
  139.8260   75.8090  222.1400 C   0  0  0  0  0  0  0  0  0  0  0  0
  140.9580   74.9550  221.9560 N   0  0  0  0  0  0  0  0  0  0  0  0
  140.7600   73.5500  221.6020 C   0  0  0  0  0  0  0  0  0  0  0  0
  141.6310   73.1570  220.4680 C   0  0  0  0  0  0  0  0  0  0  0  0
  141.1430   72.6140  219.4200 O   0  0  0  0  0  0  0  0  0  0  0  0
  143.0430   73.3500  220.4600 N   0  0  0  0  0  0  0  0  0  0  0  0
  143.9440   72.1760  220.3860 C   0  0  0  0  0  0  0  0  0  0  0  0
  145.3120   72.7550  220.6970 C   0  0  0  0  0  0  0  0  0  0  0  0
  145.1920   74.1360  220.1250 C   0  0  0  0  0  0  0  0  0  0  0  0
  143.7940   74.5470  220.5200 C   0  0  1  0  0  0  0  0  0  0  0  0
  143.4010   75.6140  219.5700 C   0  0  0  0  0  0  0  0  0  0  0  0
  142.6970   76.7020  220.0640 C   0  0  0  0  0  0  0  0  0  0  0  0
  142.2870   77.7430  219.2600 C   0  0  0  0  0  0  0  0  0  0  0  0
  142.5980   77.6860  217.9060 C   0  0  0  0  0  0  0  0  0  0  0  0
  142.1390   78.8260  217.0720 C   0  0  0  0  0  0  0  0  0  0  0  0
  142.6280   79.9690  217.6970 F   0  0  0  0  0  0  0  0  0  0  0  0
  140.7570   78.9220  217.1620 F   0  0  0  0  0  0  0  0  0  0  0  0
  142.5400   78.7320  215.7660 F   0  0  0  0  0  0  0  0  0  0  0  0
  143.2970   76.6130  217.3910 C   0  0  0  0  0  0  0  0  0  0  0  0
  143.6970   75.5810  218.2220 C   0  0  0  0  0  0  0  0  0  0  0  0
  140.0580   77.2070  222.4930 C   0  0  0  0  0  0  0  0  0  0  0  0
  138.9930   78.0500  222.6800 C   0  0  0  0  0  0  0  0  0  0  0  0
  139.1750   79.3860  223.0170 C   0  0  0  0  0  0  0  0  0  0  0  0
  140.4800   79.8350  223.1570 C   0  0  0  0  0  0  0  0  0  0  0  0
  140.7590   81.1470  223.4890 C   0  0  0  0  0  0  0  0  0  0  0  0
  142.0610   81.5720  223.6240 C   0  0  0  0  0  0  0  0  0  0  0  0
  143.1410   80.7100  223.4330 C   0  0  0  0  0  0  0  0  0  0  0  0
  142.8680   79.3940  223.1000 C   0  0  0  0  0  0  0  0  0  0  0  0
  141.5540   78.9830  222.9680 C   0  0  0  0  0  0  0  0  0  0  0  0
  141.3200   77.7050  222.6450 N   0  0  0  0  0  0  0  0  0  0  0  0
  141.9270   75.3620  222.0820 H   0  0  0  0  0  0  0  0  0  0  0  0
  140.9998   72.9228  222.4733 H   0  0  0  0  0  0  0  0  0  0  0  0
  139.7111   73.4100  221.3016 H   0  0  0  0  0  0  0  0  0  0  0  0
  143.6609   71.4163  221.1295 H   0  0  0  0  0  0  0  0  0  0  0  0
  143.9063   71.6695  219.4103 H   0  0  0  0  0  0  0  0  0  0  0  0
  145.4986   72.7842  221.7807 H   0  0  0  0  0  0  0  0  0  0  0  0
  146.1489   72.1715  220.2858 H   0  0  0  0  0  0  0  0  0  0  0  0
  145.9414   74.8118  220.5629 H   0  0  0  0  0  0  0  0  0  0  0  0
  145.3638   74.1718  219.0391 H   0  0  0  0  0  0  0  0  0  0  0  0
  143.6560   74.9709  221.5256 H   0  0  0  0  0  0  0  0  0  0  0  0
  142.4572   76.7350  221.1370 H   0  0  0  0  0  0  0  0  0  0  0  0
  141.7297   78.5947  219.6772 H   0  0  0  0  0  0  0  0  0  0  0  0
  143.5366   76.5780  216.3180 H   0  0  0  0  0  0  0  0  0  0  0  0
  144.2544   74.7290  217.8057 H   0  0  0  0  0  0  0  0  0  0  0  0
  137.9714   77.6601  222.5606 H   0  0  0  0  0  0  0  0  0  0  0  0
  138.3188   80.0601  223.1667 H   0  0  0  0  0  0  0  0  0  0  0  0
  139.9340   81.8573  223.6466 H   0  0  0  0  0  0  0  0  0  0  0  0
  142.2556   82.6214  223.8901 H   0  0  0  0  0  0  0  0  0  0  0  0
  144.1765   81.0644  223.5434 H   0  0  0  0  0  0  0  0  0  0  0  0
  143.6902   78.6806  222.9416 H   0  0  0  0  0  0  0  0  0  0  0  0
  1  2  2  0
  2  3  1  0
  3  4  1  0
  4  5  1  0
  5  6  2  0
  5  7  1  0
  7  8  1  0
  8  9  1  0
  9 10  1  0
 10 11  1  0
 11 12  1  0
 12 13  2  0
 13 14  1  0
 14 15  2  0
 15 16  1  0
 16 17  1  0
 16 18  1  0
 16 19  1  0
 15 20  1  0
 20 21  2  0
  2 22  1  0
 22 23  2  0
 23 24  1  0
 24 25  2  0
 25 26  1  0
 26 27  2  0
 27 28  1  0
 28 29  2  0
 29 30  1  0
 30 31  2  0
 11  7  1  0
 21 12  1  0
 31 22  1  0
 30 25  1  0
  3 32  1  0
  4 33  1  0
  4 34  1  0
  8 35  1  0
  8 36  1  0
  9 37  1  0
  9 38  1  0
 10 39  1  0
 10 40  1  0
 11 41  1  1
 13 42  1  0
 14 43  1  0
 20 44  1  0
 21 45  1  0
 23 46  1  0
 24 47  1  0
 26 48  1  0
 27 49  1  0
 28 50  1  0
 29 51  1  0
M  END
>  <smiles>  (60) 
O=C(NCC(=O)N1CCCC1c1ccc(C(F)(F)F)cc1)c1ccc2ccccc2n1

>  <score_type>  (60) 
oracle

>  <origin>  (60) 
autodockgpu

>  <m_score__min__energy>  (60) 
-8.6199999999999992

>  <m_primary>  (60) 
energy

>  <rmsd>  (60) 
7.793354367234616

>  <m_score__min__rmsd>  (60) 
7.793354367234616

>  <meeko>  (60) 
{"free_energy": -7.3, "intermolecular_energy": -9.09, "internal_energy": -2.42, "cluster_size": 5, "cluster_id": 7, "rank_in_cluster": 2}

>  <energy>  (60) 
-8.26

>  <cluster_rmsd>  (60) 
0.91

>  <cluster>  (60) 
1

$$$$

     RDKit          3D

 51 54  0  0  0  0  0  0  0  0999 V2000
  141.0660   72.8070  222.5490 O   0  0  0  0  0  0  0  0  0  0  0  0
  139.9810   72.2820  222.9320 C   0  0  0  0  0  0  0  0  0  0  0  0
  138.7550   72.7220  222.3440 N   0  0  0  0  0  0  0  0  0  0  0  0
  138.7710   73.7630  221.3170 C   0  0  0  0  0  0  0  0  0  0  0  0
  139.0760   75.0890  221.9070 C   0  0  0  0  0  0  0  0  0  0  0  0
  140.2770   75.4280  222.1790 O   0  0  0  0  0  0  0  0  0  0  0  0
  138.0790   76.0610  222.2080 N   0  0  0  0  0  0  0  0  0  0  0  0
  136.8750   75.6650  222.9740 C   0  0  0  0  0  0  0  0  0  0  0  0
  135.9510   76.8600  222.8310 C   0  0  0  0  0  0  0  0  0  0  0  0
  136.9320   77.9930  222.7580 C   0  0  0  0  0  0  0  0  0  0  0  0
  138.0270   77.4370  221.8800 C   0  0  1  0  0  0  0  0  0  0  0  0
  139.2380   78.2300  222.1930 C   0  0  0  0  0  0  0  0  0  0  0  0
  139.2250   79.0220  223.3310 C   0  0  0  0  0  0  0  0  0  0  0  0
  140.3030   79.7950  223.7050 C   0  0  0  0  0  0  0  0  0  0  0  0
  141.4370   79.7690  222.9030 C   0  0  0  0  0  0  0  0  0  0  0  0
  142.5770   80.6150  223.3380 C   0  0  0  0  0  0  0  0  0  0  0  0
  142.1630   81.9300  223.1480 F   0  0  0  0  0  0  0  0  0  0  0  0
  143.6360   80.4330  222.4590 F   0  0  0  0  0  0  0  0  0  0  0  0
  142.9650   80.3710  224.6290 F   0  0  0  0  0  0  0  0  0  0  0  0
  141.4740   78.9890  221.7650 C   0  0  0  0  0  0  0  0  0  0  0  0
  140.3770   78.2210  221.4130 C   0  0  0  0  0  0  0  0  0  0  0  0
  139.9300   71.2400  223.9530 C   0  0  0  0  0  0  0  0  0  0  0  0
  139.2920   70.0550  223.6900 C   0  0  0  0  0  0  0  0  0  0  0  0
  139.2230   69.0400  224.6370 C   0  0  0  0  0  0  0  0  0  0  0  0
  139.8270   69.2730  225.8640 C   0  0  0  0  0  0  0  0  0  0  0  0
  139.8100   68.3230  226.8670 C   0  0  0  0  0  0  0  0  0  0  0  0
  140.4160   68.5740  228.0770 C   0  0  0  0  0  0  0  0  0  0  0  0
  141.0640   69.7810  228.3400 C   0  0  0  0  0  0  0  0  0  0  0  0
  141.0860   70.7360  227.3390 C   0  0  0  0  0  0  0  0  0  0  0  0
  140.4720   70.4690  226.1290 C   0  0  0  0  0  0  0  0  0  0  0  0
  140.5080   71.4120  225.1790 N   0  0  0  0  0  0  0  0  0  0  0  0
  137.8500   72.2790  222.6680 H   0  0  0  0  0  0  0  0  0  0  0  0
  139.5386   73.5175  220.5683 H   0  0  0  0  0  0  0  0  0  0  0  0
  137.7763   73.8085  220.8495 H   0  0  0  0  0  0  0  0  0  0  0  0
  136.4170   74.7612  222.5459 H   0  0  0  0  0  0  0  0  0  0  0  0
  137.0976   75.4204  224.0231 H   0  0  0  0  0  0  0  0  0  0  0  0
  135.3467   76.7927  221.9144 H   0  0  0  0  0  0  0  0  0  0  0  0
  135.2155   76.9566  223.6432 H   0  0  0  0  0  0  0  0  0  0  0  0
  136.4743   78.8838  222.3030 H   0  0  0  0  0  0  0  0  0  0  0  0
  137.2913   78.3200  223.7449 H   0  0  0  0  0  0  0  0  0  0  0  0
  137.8898   77.5096  220.7910 H   0  0  0  0  0  0  0  0  0  0  0  0
  138.3214   79.0338  223.9582 H   0  0  0  0  0  0  0  0  0  0  0  0
  140.2665   80.4150  224.6129 H   0  0  0  0  0  0  0  0  0  0  0  0
  142.3767   78.9774  221.1365 H   0  0  0  0  0  0  0  0  0  0  0  0
  140.4133   77.5997  220.5060 H   0  0  0  0  0  0  0  0  0  0  0  0
  138.8237   69.9041  222.7062 H   0  0  0  0  0  0  0  0  0  0  0  0
  138.7104   68.0907  224.4223 H   0  0  0  0  0  0  0  0  0  0  0  0
  139.3084   67.3588  226.6973 H   0  0  0  0  0  0  0  0  0  0  0  0
  140.3886   67.8008  228.8589 H   0  0  0  0  0  0  0  0  0  0  0  0
  141.5425   69.9677  229.3127 H   0  0  0  0  0  0  0  0  0  0  0  0
  141.5882   71.7006  227.5045 H   0  0  0  0  0  0  0  0  0  0  0  0
  1  2  2  0
  2  3  1  0
  3  4  1  0
  4  5  1  0
  5  6  2  0
  5  7  1  0
  7  8  1  0
  8  9  1  0
  9 10  1  0
 10 11  1  0
 11 12  1  0
 12 13  2  0
 13 14  1  0
 14 15  2  0
 15 16  1  0
 16 17  1  0
 16 18  1  0
 16 19  1  0
 15 20  1  0
 20 21  2  0
  2 22  1  0
 22 23  2  0
 23 24  1  0
 24 25  2  0
 25 26  1  0
 26 27  2  0
 27 28  1  0
 28 29  2  0
 29 30  1  0
 30 31  2  0
 11  7  1  0
 21 12  1  0
 31 22  1  0
 30 25  1  0
  3 32  1  0
  4 33  1  0
  4 34  1  0
  8 35  1  0
  8 36  1  0
  9 37  1  0
  9 38  1  0
 10 39  1  0
 10 40  1  0
 11 41  1  6
 13 42  1  0
 14 43  1  0
 20 44  1  0
 21 45  1  0
 23 46  1  0
 24 47  1  0
 26 48  1  0
 27 49  1  0
 28 50  1  0
 29 51  1  0
M  END
>  <smiles>  (61) 
O=C(NCC(=O)N1CCCC1c1ccc(C(F)(F)F)cc1)c1ccc2ccccc2n1

>  <score_type>  (61) 
oracle

>  <origin>  (61) 
autodockgpu

>  <m_score__min__energy>  (61) 
-8.6199999999999992

>  <m_primary>  (61) 
energy

>  <rmsd>  (61) 
3.2120212664453636

>  <m_score__min__rmsd>  (61) 
3.2120212664453636

>  <meeko>  (61) 
{"free_energy": -8.6, "intermolecular_energy": -10.39, "internal_energy": -1.27, "cluster_size": 15, "cluster_id": 1, "rank_in_cluster": 3}

>  <energy>  (61) 
-8.07

>  <cluster_rmsd>  (61) 
1.76

>  <cluster>  (61) 
1

$$$$

     RDKit          3D

 51 54  0  0  0  0  0  0  0  0999 V2000
  141.4130   72.1530  221.6550 O   0  0  0  0  0  0  0  0  0  0  0  0
  140.4830   72.3550  222.4880 C   0  0  0  0  0  0  0  0  0  0  0  0
  139.6010   73.4620  222.2850 N   0  0  0  0  0  0  0  0  0  0  0  0
  139.7840   74.3370  221.1280 C   0  0  0  0  0  0  0  0  0  0  0  0
  140.2420   75.6840  221.5430 C   0  0  0  0  0  0  0  0  0  0  0  0
  139.9630   76.1470  222.7010 O   0  0  0  0  0  0  0  0  0  0  0  0
  141.0080   76.5450  220.7040 N   0  0  0  0  0  0  0  0  0  0  0  0
  141.1890   77.9660  221.0800 C   0  0  0  0  0  0  0  0  0  0  0  0
  141.7810   78.5930  219.8310 C   0  0  0  0  0  0  0  0  0  0  0  0
  142.5780   77.4540  219.2700 C   0  0  0  0  0  0  0  0  0  0  0  0
  141.6710   76.2660  219.4860 C   0  0  1  0  0  0  0  0  0  0  0  0
  142.5530   75.0760  219.4790 C   0  0  0  0  0  0  0  0  0  0  0  0
  143.7910   75.1760  220.0970 C   0  0  0  0  0  0  0  0  0  0  0  0
  144.6800   74.1250  220.1420 C   0  0  0  0  0  0  0  0  0  0  0  0
  144.3090   72.9270  219.5430 C   0  0  0  0  0  0  0  0  0  0  0  0
  145.2950   71.8180  219.6130 C   0  0  0  0  0  0  0  0  0  0  0  0
  146.3090   72.2690  220.4520 F   0  0  0  0  0  0  0  0  0  0  0  0
  145.8890   71.6650  218.3680 F   0  0  0  0  0  0  0  0  0  0  0  0
  144.7470   70.6390  220.0430 F   0  0  0  0  0  0  0  0  0  0  0  0
  143.0830   72.8030  218.9220 C   0  0  0  0  0  0  0  0  0  0  0  0
  142.2090   73.8760  218.8910 C   0  0  0  0  0  0  0  0  0  0  0  0
  140.2730   71.5010  223.6530 C   0  0  0  0  0  0  0  0  0  0  0  0
  139.6020   70.3120  223.5170 C   0  0  0  0  0  0  0  0  0  0  0  0
  139.3840   69.4730  224.6030 C   0  0  0  0  0  0  0  0  0  0  0  0
  139.8720   69.8850  225.8340 C   0  0  0  0  0  0  0  0  0  0  0  0
  139.7020   69.1180  226.9700 C   0  0  0  0  0  0  0  0  0  0  0  0
  140.1940   69.5450  228.1830 C   0  0  0  0  0  0  0  0  0  0  0  0
  140.8750   70.7550  228.3160 C   0  0  0  0  0  0  0  0  0  0  0  0
  141.0490   71.5280  227.1810 C   0  0  0  0  0  0  0  0  0  0  0  0
  140.5480   71.0850  225.9710 C   0  0  0  0  0  0  0  0  0  0  0  0
  140.7310   71.8540  224.8900 N   0  0  0  0  0  0  0  0  0  0  0  0
  138.8250   73.6260  222.9850 H   0  0  0  0  0  0  0  0  0  0  0  0
  140.5348   73.8933  220.4576 H   0  0  0  0  0  0  0  0  0  0  0  0
  138.8176   74.4406  220.6129 H   0  0  0  0  0  0  0  0  0  0  0  0
  140.2249   78.4310  221.3337 H   0  0  0  0  0  0  0  0  0  0  0  0
  141.8268   78.0956  221.9668 H   0  0  0  0  0  0  0  0  0  0  0  0
  140.9948   78.9151  219.1324 H   0  0  0  0  0  0  0  0  0  0  0  0
  142.3721   79.5006  220.0232 H   0  0  0  0  0  0  0  0  0  0  0  0
  142.7840   77.6048  218.2000 H   0  0  0  0  0  0  0  0  0  0  0  0
  143.5635   77.3391  219.7450 H   0  0  0  0  0  0  0  0  0  0  0  0
  140.8977   76.0741  218.7276 H   0  0  0  0  0  0  0  0  0  0  0  0
  144.0728   76.1292  220.5681 H   0  0  0  0  0  0  0  0  0  0  0  0
  145.6561   74.2308  220.6380 H   0  0  0  0  0  0  0  0  0  0  0  0
  142.7998   71.8502  218.4509 H   0  0  0  0  0  0  0  0  0  0  0  0
  141.2332   73.7713  218.3941 H   0  0  0  0  0  0  0  0  0  0  0  0
  139.2281   70.0162  222.5257 H   0  0  0  0  0  0  0  0  0  0  0  0
  138.8459   68.5202  224.4908 H   0  0  0  0  0  0  0  0  0  0  0  0
  139.1690   68.1579  226.9051 H   0  0  0  0  0  0  0  0  0  0  0  0
  140.0459   68.9143  229.0720 H   0  0  0  0  0  0  0  0  0  0  0  0
  141.2615   71.0844  229.2918 H   0  0  0  0  0  0  0  0  0  0  0  0
  141.5822   72.4882  227.2414 H   0  0  0  0  0  0  0  0  0  0  0  0
  1  2  2  0
  2  3  1  0
  3  4  1  0
  4  5  1  0
  5  6  2  0
  5  7  1  0
  7  8  1  0
  8  9  1  0
  9 10  1  0
 10 11  1  0
 11 12  1  0
 12 13  2  0
 13 14  1  0
 14 15  2  0
 15 16  1  0
 16 17  1  0
 16 18  1  0
 16 19  1  0
 15 20  1  0
 20 21  2  0
  2 22  1  0
 22 23  2  0
 23 24  1  0
 24 25  2  0
 25 26  1  0
 26 27  2  0
 27 28  1  0
 28 29  2  0
 29 30  1  0
 30 31  2  0
 11  7  1  0
 21 12  1  0
 31 22  1  0
 30 25  1  0
  3 32  1  0
  4 33  1  0
  4 34  1  0
  8 35  1  0
  8 36  1  0
  9 37  1  0
  9 38  1  0
 10 39  1  0
 10 40  1  0
 11 41  1  6
 13 42  1  0
 14 43  1  0
 20 44  1  0
 21 45  1  0
 23 46  1  0
 24 47  1  0
 26 48  1  0
 27 49  1  0
 28 50  1  0
 29 51  1  0
M  END
>  <smiles>  (62) 
O=C(NCC(=O)N1CCCC1c1ccc(C(F)(F)F)cc1)c1ccc2ccccc2n1

>  <score_type>  (62) 
oracle

>  <origin>  (62) 
autodockgpu

>  <m_score__min__energy>  (62) 
-8.6199999999999992

>  <m_primary>  (62) 
energy

>  <rmsd>  (62) 
2.2998866765880868

>  <m_score__min__rmsd>  (62) 
2.2998866765880868

>  <meeko>  (62) 
{"free_energy": -8.21, "intermolecular_energy": -10.0, "internal_energy": -1.77, "cluster_size": 12, "cluster_id": 4, "rank_in_cluster": 1}

>  <energy>  (62) 
-8.05

>  <cluster_rmsd>  (62) 
1.76

>  <cluster>  (62) 
1

$$$$

     RDKit          3D

 51 54  0  0  0  0  0  0  0  0999 V2000
  140.9520   71.6500  221.3510 O   0  0  0  0  0  0  0  0  0  0  0  0
  140.4230   72.1480  222.3870 C   0  0  0  0  0  0  0  0  0  0  0  0
  139.9650   73.5020  222.3460 N   0  0  0  0  0  0  0  0  0  0  0  0
  140.1130   74.2850  221.1200 C   0  0  0  0  0  0  0  0  0  0  0  0
  140.4120   75.7050  221.4250 C   0  0  0  0  0  0  0  0  0  0  0  0
  140.0330   76.2370  222.5230 O   0  0  0  0  0  0  0  0  0  0  0  0
  141.1250   76.5640  220.5390 N   0  0  0  0  0  0  0  0  0  0  0  0
  141.2880   77.9970  220.8780 C   0  0  0  0  0  0  0  0  0  0  0  0
  141.8170   78.6090  219.5930 C   0  0  0  0  0  0  0  0  0  0  0  0
  142.6170   77.4750  219.0250 C   0  0  0  0  0  0  0  0  0  0  0  0
  141.7460   76.2740  219.3010 C   0  0  1  0  0  0  0  0  0  0  0  0
  142.6530   75.1030  219.2840 C   0  0  0  0  0  0  0  0  0  0  0  0
  143.7690   75.1290  220.1080 C   0  0  0  0  0  0  0  0  0  0  0  0
  144.6720   74.0890  220.1610 C   0  0  0  0  0  0  0  0  0  0  0  0
  144.4410   72.9800  219.3560 C   0  0  0  0  0  0  0  0  0  0  0  0
  145.4360   71.8800  219.4420 C   0  0  0  0  0  0  0  0  0  0  0  0
  145.8820   71.6750  218.1410 F   0  0  0  0  0  0  0  0  0  0  0  0
  144.7810   70.7080  219.7950 F   0  0  0  0  0  0  0  0  0  0  0  0
  146.4610   72.1500  220.3100 F   0  0  0  0  0  0  0  0  0  0  0  0
  143.3380   72.9310  218.5280 C   0  0  0  0  0  0  0  0  0  0  0  0
  142.4470   73.9900  218.4940 C   0  0  0  0  0  0  0  0  0  0  0  0
  140.2590   71.3950  223.6260 C   0  0  0  0  0  0  0  0  0  0  0  0
  139.6560   70.1630  223.6030 C   0  0  0  0  0  0  0  0  0  0  0  0
  139.4840   69.4160  224.7620 C   0  0  0  0  0  0  0  0  0  0  0  0
  139.9470   69.9660  225.9480 C   0  0  0  0  0  0  0  0  0  0  0  0
  139.8200   69.2980  227.1500 C   0  0  0  0  0  0  0  0  0  0  0  0
  140.2870   69.8610  228.3160 C   0  0  0  0  0  0  0  0  0  0  0  0
  140.9000   71.1140  228.3350 C   0  0  0  0  0  0  0  0  0  0  0  0
  141.0310   71.7880  227.1330 C   0  0  0  0  0  0  0  0  0  0  0  0
  140.5560   71.2090  225.9710 C   0  0  0  0  0  0  0  0  0  0  0  0
  140.6970   71.8850  224.8230 N   0  0  0  0  0  0  0  0  0  0  0  0
  139.5230   73.9140  223.2150 H   0  0  0  0  0  0  0  0  0  0  0  0
  140.9359   73.8651  220.5229 H   0  0  0  0  0  0  0  0  0  0  0  0
  139.1668   74.2400  220.5609 H   0  0  0  0  0  0  0  0  0  0  0  0
  140.3242   78.4463  221.1595 H   0  0  0  0  0  0  0  0  0  0  0  0
  141.9563   78.1602  221.7364 H   0  0  0  0  0  0  0  0  0  0  0  0
  140.9971   78.8987  218.9193 H   0  0  0  0  0  0  0  0  0  0  0  0
  142.3948   79.5330  219.7425 H   0  0  0  0  0  0  0  0  0  0  0  0
  142.7781   77.6068  217.9449 H   0  0  0  0  0  0  0  0  0  0  0  0
  143.6225   77.3914  219.4632 H   0  0  0  0  0  0  0  0  0  0  0  0
  140.9480   76.0505  218.5776 H   0  0  0  0  0  0  0  0  0  0  0  0
  143.9393   76.0116  220.7420 H   0  0  0  0  0  0  0  0  0  0  0  0
  145.5503   74.1355  220.8216 H   0  0  0  0  0  0  0  0  0  0  0  0
  143.1665   72.0487  217.8938 H   0  0  0  0  0  0  0  0  0  0  0  0
  141.5690   73.9442  217.8330 H   0  0  0  0  0  0  0  0  0  0  0  0
  139.3003   69.7569  222.6446 H   0  0  0  0  0  0  0  0  0  0  0  0
  139.0002   68.4284  224.7397 H   0  0  0  0  0  0  0  0  0  0  0  0
  139.3417   68.3078  227.1758 H   0  0  0  0  0  0  0  0  0  0  0  0
  140.1736   69.3072  229.2596 H   0  0  0  0  0  0  0  0  0  0  0  0
  141.2673   71.5522  229.2747 H   0  0  0  0  0  0  0  0  0  0  0  0
  141.5099   72.7778  227.1026 H   0  0  0  0  0  0  0  0  0  0  0  0
  1  2  2  0
  2  3  1  0
  3  4  1  0
  4  5  1  0
  5  6  2  0
  5  7  1  0
  7  8  1  0
  8  9  1  0
  9 10  1  0
 10 11  1  0
 11 12  1  0
 12 13  2  0
 13 14  1  0
 14 15  2  0
 15 16  1  0
 16 17  1  0
 16 18  1  0
 16 19  1  0
 15 20  1  0
 20 21  2  0
  2 22  1  0
 22 23  2  0
 23 24  1  0
 24 25  2  0
 25 26  1  0
 26 27  2  0
 27 28  1  0
 28 29  2  0
 29 30  1  0
 30 31  2  0
 11  7  1  0
 21 12  1  0
 31 22  1  0
 30 25  1  0
  3 32  1  0
  4 33  1  0
  4 34  1  0
  8 35  1  0
  8 36  1  0
  9 37  1  0
  9 38  1  0
 10 39  1  0
 10 40  1  0
 11 41  1  6
 13 42  1  0
 14 43  1  0
 20 44  1  0
 21 45  1  0
 23 46  1  0
 24 47  1  0
 26 48  1  0
 27 49  1  0
 28 50  1  0
 29 51  1  0
M  END
>  <smiles>  (63) 
O=C(NCC(=O)N1CCCC1c1ccc(C(F)(F)F)cc1)c1ccc2ccccc2n1

>  <score_type>  (63) 
oracle

>  <origin>  (63) 
autodockgpu

>  <m_score__min__energy>  (63) 
-8.6199999999999992

>  <m_primary>  (63) 
energy

>  <rmsd>  (63) 
2.306548100650187

>  <m_score__min__rmsd>  (63) 
2.306548100650187

>  <meeko>  (63) 
{"free_energy": -8.07, "intermolecular_energy": -9.86, "internal_energy": -1.9, "cluster_size": 12, "cluster_id": 4, "rank_in_cluster": 8}

>  <energy>  (63) 
-7.91

>  <cluster_rmsd>  (63) 
1.06

>  <cluster>  (63) 
1

$$$$

     RDKit          3D

 51 54  0  0  0  0  0  0  0  0999 V2000
  141.1010   71.5200  221.4200 O   0  0  0  0  0  0  0  0  0  0  0  0
  140.5030   71.9690  222.4400 C   0  0  0  0  0  0  0  0  0  0  0  0
  140.0490   73.3250  222.4360 N   0  0  0  0  0  0  0  0  0  0  0  0
  140.2800   74.1670  221.2630 C   0  0  0  0  0  0  0  0  0  0  0  0
  140.3080   75.6030  221.6340 C   0  0  0  0  0  0  0  0  0  0  0  0
  139.7120   76.0240  222.6820 O   0  0  0  0  0  0  0  0  0  0  0  0
  140.9820   76.5970  220.8660 N   0  0  0  0  0  0  0  0  0  0  0  0
  141.2360   76.3660  219.4260 C   0  0  0  0  0  0  0  0  0  0  0  0
  142.2030   77.4750  219.0520 C   0  0  0  0  0  0  0  0  0  0  0  0
  141.7650   78.5790  219.9680 C   0  0  0  0  0  0  0  0  0  0  0  0
  141.4930   77.8550  221.2650 C   0  0  1  0  0  0  0  0  0  0  0  0
  140.5670   78.7250  222.0270 C   0  0  0  0  0  0  0  0  0  0  0  0
  139.2610   78.8450  221.5750 C   0  0  0  0  0  0  0  0  0  0  0  0
  138.3270   79.6300  222.2150 C   0  0  0  0  0  0  0  0  0  0  0  0
  138.7220   80.3190  223.3550 C   0  0  0  0  0  0  0  0  0  0  0  0
  137.6880   81.1540  224.0170 C   0  0  0  0  0  0  0  0  0  0  0  0
  138.0780   81.2500  225.3490 F   0  0  0  0  0  0  0  0  0  0  0  0
  136.4890   80.4540  224.0360 F   0  0  0  0  0  0  0  0  0  0  0  0
  137.5300   82.3810  223.4290 F   0  0  0  0  0  0  0  0  0  0  0  0
  140.0160   80.2160  223.8250 C   0  0  0  0  0  0  0  0  0  0  0  0
  140.9340   79.4200  223.1610 C   0  0  0  0  0  0  0  0  0  0  0  0
  140.2550   71.1550  223.6270 C   0  0  0  0  0  0  0  0  0  0  0  0
  139.5800   69.9660  223.5110 C   0  0  0  0  0  0  0  0  0  0  0  0
  139.3270   69.1640  224.6180 C   0  0  0  0  0  0  0  0  0  0  0  0
  139.7840   69.6150  225.8480 C   0  0  0  0  0  0  0  0  0  0  0  0
  139.5780   68.8860  227.0030 C   0  0  0  0  0  0  0  0  0  0  0  0
  140.0400   69.3500  228.2140 C   0  0  0  0  0  0  0  0  0  0  0  0
  140.7260   70.5600  228.3260 C   0  0  0  0  0  0  0  0  0  0  0  0
  140.9360   71.2940  227.1710 C   0  0  0  0  0  0  0  0  0  0  0  0
  140.4650   70.8140  225.9630 C   0  0  0  0  0  0  0  0  0  0  0  0
  140.6820   71.5460  224.8630 N   0  0  0  0  0  0  0  0  0  0  0  0
  139.5490   73.6950  223.2920 H   0  0  0  0  0  0  0  0  0  0  0  0
  141.2442   73.8943  220.8092 H   0  0  0  0  0  0  0  0  0  0  0  0
  139.4580   74.0062  220.5499 H   0  0  0  0  0  0  0  0  0  0  0  0
  141.6891   75.3774  219.2607 H   0  0  0  0  0  0  0  0  0  0  0  0
  140.3166   76.3788  218.8222 H   0  0  0  0  0  0  0  0  0  0  0  0
  143.2451   77.1815  219.2468 H   0  0  0  0  0  0  0  0  0  0  0  0
  142.1841   77.7444  217.9857 H   0  0  0  0  0  0  0  0  0  0  0  0
  142.5604   79.3285  220.0927 H   0  0  0  0  0  0  0  0  0  0  0  0
  140.8945   79.1359  219.5911 H   0  0  0  0  0  0  0  0  0  0  0  0
  142.3486   77.6663  221.9301 H   0  0  0  0  0  0  0  0  0  0  0  0
  138.9600   78.2931  220.6723 H   0  0  0  0  0  0  0  0  0  0  0  0
  137.2980   79.7090  221.8343 H   0  0  0  0  0  0  0  0  0  0  0  0
  140.3181   80.7669  224.7279 H   0  0  0  0  0  0  0  0  0  0  0  0
  141.9635   79.3411  223.5404 H   0  0  0  0  0  0  0  0  0  0  0  0
  139.2313   69.6401  222.5199 H   0  0  0  0  0  0  0  0  0  0  0  0
  138.7865   68.2107  224.5227 H   0  0  0  0  0  0  0  0  0  0  0  0
  139.0407   67.9274  226.9548 H   0  0  0  0  0  0  0  0  0  0  0  0
  139.8634   68.7500  229.1189 H   0  0  0  0  0  0  0  0  0  0  0  0
  141.0883   70.9191  229.3006 H   0  0  0  0  0  0  0  0  0  0  0  0
  141.4739   72.2525  227.2142 H   0  0  0  0  0  0  0  0  0  0  0  0
  1  2  2  0
  2  3  1  0
  3  4  1  0
  4  5  1  0
  5  6  2  0
  5  7  1  0
  7  8  1  0
  8  9  1  0
  9 10  1  0
 10 11  1  0
 11 12  1  0
 12 13  2  0
 13 14  1  0
 14 15  2  0
 15 16  1  0
 16 17  1  0
 16 18  1  0
 16 19  1  0
 15 20  1  0
 20 21  2  0
  2 22  1  0
 22 23  2  0
 23 24  1  0
 24 25  2  0
 25 26  1  0
 26 27  2  0
 27 28  1  0
 28 29  2  0
 29 30  1  0
 30 31  2  0
 11  7  1  0
 21 12  1  0
 31 22  1  0
 30 25  1  0
  3 32  1  0
  4 33  1  0
  4 34  1  0
  8 35  1  0
  8 36  1  0
  9 37  1  0
  9 38  1  0
 10 39  1  0
 10 40  1  0
 11 41  1  1
 13 42  1  0
 14 43  1  0
 20 44  1  0
 21 45  1  0
 23 46  1  0
 24 47  1  0
 26 48  1  0
 27 49  1  0
 28 50  1  0
 29 51  1  0
M  END
>  <smiles>  (64) 
O=C(NCC(=O)N1CCCC1c1ccc(C(F)(F)F)cc1)c1ccc2ccccc2n1

>  <score_type>  (64) 
oracle

>  <origin>  (64) 
autodockgpu

>  <m_score__min__energy>  (64) 
-8.6199999999999992

>  <m_primary>  (64) 
energy

>  <rmsd>  (64) 
1.9066109113872944

>  <m_score__min__rmsd>  (64) 
1.9066109113872944

>  <meeko>  (64) 
{"free_energy": -8.25, "intermolecular_energy": -10.04, "internal_energy": -1.65, "cluster_size": 9, "cluster_id": 3, "rank_in_cluster": 2}

>  <energy>  (64) 
-7.78

>  <cluster_rmsd>  (64) 
1.81

>  <cluster>  (64) 
1

$$$$

     RDKit          3D

 51 54  0  0  0  0  0  0  0  0999 V2000
  140.1890   77.5000  218.9200 O   0  0  0  0  0  0  0  0  0  0  0  0
  141.4000   77.3440  219.2460 C   0  0  0  0  0  0  0  0  0  0  0  0
  142.2290   78.4980  219.4030 N   0  0  0  0  0  0  0  0  0  0  0  0
  141.6700   79.8320  219.1850 C   0  0  0  0  0  0  0  0  0  0  0  0
  141.1200   80.3930  220.4420 C   0  0  0  0  0  0  0  0  0  0  0  0
  140.1150   81.1790  220.4290 O   0  0  0  0  0  0  0  0  0  0  0  0
  141.6600   80.1060  221.7300 N   0  0  0  0  0  0  0  0  0  0  0  0
  142.1530   81.2120  222.5830 C   0  0  0  0  0  0  0  0  0  0  0  0
  142.8970   80.4990  223.6970 C   0  0  0  0  0  0  0  0  0  0  0  0
  142.1090   79.2300  223.8230 C   0  0  0  0  0  0  0  0  0  0  0  0
  141.8250   78.8630  222.3860 C   0  0  1  0  0  0  0  0  0  0  0  0
  140.6370   77.9790  222.4200 C   0  0  0  0  0  0  0  0  0  0  0  0
  139.3890   78.5680  222.5580 C   0  0  0  0  0  0  0  0  0  0  0  0
  138.2260   77.8300  222.6010 C   0  0  0  0  0  0  0  0  0  0  0  0
  138.3230   76.4470  222.5000 C   0  0  0  0  0  0  0  0  0  0  0  0
  137.0480   75.6880  222.5500 C   0  0  0  0  0  0  0  0  0  0  0  0
  137.3610   74.4000  222.1250 F   0  0  0  0  0  0  0  0  0  0  0  0
  136.1850   76.1930  221.5860 F   0  0  0  0  0  0  0  0  0  0  0  0
  136.4620   75.7020  223.7880 F   0  0  0  0  0  0  0  0  0  0  0  0
  139.5540   75.8390  222.3620 C   0  0  0  0  0  0  0  0  0  0  0  0
  140.7070   76.6040  222.3220 C   0  0  0  0  0  0  0  0  0  0  0  0
  141.9900   76.0270  219.4720 C   0  0  0  0  0  0  0  0  0  0  0  0
  141.2350   74.8980  219.2790 C   0  0  0  0  0  0  0  0  0  0  0  0
  141.7610   73.6280  219.4830 C   0  0  0  0  0  0  0  0  0  0  0  0
  143.0850   73.5460  219.8910 C   0  0  0  0  0  0  0  0  0  0  0  0
  143.6940   72.3280  220.1200 C   0  0  0  0  0  0  0  0  0  0  0  0
  145.0080   72.2680  220.5240 C   0  0  0  0  0  0  0  0  0  0  0  0
  145.7720   73.4190  220.7190 C   0  0  0  0  0  0  0  0  0  0  0  0
  145.1670   74.6430  220.4910 C   0  0  0  0  0  0  0  0  0  0  0  0
  143.8460   74.6860  220.0860 C   0  0  0  0  0  0  0  0  0  0  0  0
  143.2870   75.8840  219.8740 N   0  0  0  0  0  0  0  0  0  0  0  0
  143.2430   78.3610  219.6760 H   0  0  0  0  0  0  0  0  0  0  0  0
  142.4628   80.4969  218.8116 H   0  0  0  0  0  0  0  0  0  0  0  0
  140.8539   79.7529  218.4517 H   0  0  0  0  0  0  0  0  0  0  0  0
  142.8287   81.8718  222.0190 H   0  0  0  0  0  0  0  0  0  0  0  0
  141.3442   81.8584  222.9546 H   0  0  0  0  0  0  0  0  0  0  0  0
  143.9413   80.2967  223.4167 H   0  0  0  0  0  0  0  0  0  0  0  0
  142.9657   81.0772  224.6303 H   0  0  0  0  0  0  0  0  0  0  0  0
  142.6981   78.4466  224.3222 H   0  0  0  0  0  0  0  0  0  0  0  0
  141.1985   79.3433  224.4297 H   0  0  0  0  0  0  0  0  0  0  0  0
  142.6019   78.3052  221.8426 H   0  0  0  0  0  0  0  0  0  0  0  0
  139.3252   79.6634  222.6359 H   0  0  0  0  0  0  0  0  0  0  0  0
  137.2482   78.3216  222.7121 H   0  0  0  0  0  0  0  0  0  0  0  0
  139.6193   74.7437  222.2836 H   0  0  0  0  0  0  0  0  0  0  0  0
  141.6851   76.1130  222.2114 H   0  0  0  0  0  0  0  0  0  0  0  0
  140.1887   75.0004  218.9552 H   0  0  0  0  0  0  0  0  0  0  0  0
  141.1529   72.7247  219.3275 H   0  0  0  0  0  0  0  0  0  0  0  0
  143.1239   71.3980  219.9783 H   0  0  0  0  0  0  0  0  0  0  0  0
  145.4691   71.2846  220.6982 H   0  0  0  0  0  0  0  0  0  0  0  0
  146.8212   73.3559  221.0434 H   0  0  0  0  0  0  0  0  0  0  0  0
  145.7337   75.5753  220.6312 H   0  0  0  0  0  0  0  0  0  0  0  0
  1  2  2  0
  2  3  1  0
  3  4  1  0
  4  5  1  0
  5  6  2  0
  5  7  1  0
  7  8  1  0
  8  9  1  0
  9 10  1  0
 10 11  1  0
 11 12  1  0
 12 13  2  0
 13 14  1  0
 14 15  2  0
 15 16  1  0
 16 17  1  0
 16 18  1  0
 16 19  1  0
 15 20  1  0
 20 21  2  0
  2 22  1  0
 22 23  2  0
 23 24  1  0
 24 25  2  0
 25 26  1  0
 26 27  2  0
 27 28  1  0
 28 29  2  0
 29 30  1  0
 30 31  2  0
 11  7  1  0
 21 12  1  0
 31 22  1  0
 30 25  1  0
  3 32  1  0
  4 33  1  0
  4 34  1  0
  8 35  1  0
  8 36  1  0
  9 37  1  0
  9 38  1  0
 10 39  1  0
 10 40  1  0
 11 41  1  6
 13 42  1  0
 14 43  1  0
 20 44  1  0
 21 45  1  0
 23 46  1  0
 24 47  1  0
 26 48  1  0
 27 49  1  0
 28 50  1  0
 29 51  1  0
M  END
>  <smiles>  (65) 
O=C(NCC(=O)N1CCCC1c1ccc(C(F)(F)F)cc1)c1ccc2ccccc2n1

>  <score_type>  (65) 
oracle

>  <origin>  (65) 
autodockgpu

>  <m_score__min__energy>  (65) 
-8.6199999999999992

>  <m_primary>  (65) 
energy

>  <rmsd>  (65) 
7.445869283660929

>  <m_score__min__rmsd>  (65) 
7.445869283660929

>  <meeko>  (65) 
{"free_energy": -6.93, "intermolecular_energy": -8.72, "internal_energy": -2.67, "cluster_size": 5, "cluster_id": 8, "rank_in_cluster": 1}

>  <energy>  (65) 
-7.52

>  <cluster_rmsd>  (65) 
1.94

>  <cluster>  (65) 
1

$$$$

     RDKit          3D

 51 54  0  0  0  0  0  0  0  0999 V2000
  141.3010   72.1480  221.6680 O   0  0  0  0  0  0  0  0  0  0  0  0
  140.3440   72.2890  222.4830 C   0  0  0  0  0  0  0  0  0  0  0  0
  139.3550   73.2880  222.2230 N   0  0  0  0  0  0  0  0  0  0  0  0
  139.4630   74.1260  221.0290 C   0  0  0  0  0  0  0  0  0  0  0  0
  140.4680   75.1990  221.2180 C   0  0  0  0  0  0  0  0  0  0  0  0
  140.5970   75.7900  222.3430 O   0  0  0  0  0  0  0  0  0  0  0  0
  141.3440   75.6440  220.1850 N   0  0  0  0  0  0  0  0  0  0  0  0
  141.3230   74.9720  218.8650 C   0  0  0  0  0  0  0  0  0  0  0  0
  142.5590   75.5120  218.1700 C   0  0  0  0  0  0  0  0  0  0  0  0
  142.6470   76.8960  218.7420 C   0  0  0  0  0  0  0  0  0  0  0  0
  142.3030   76.6840  220.1970 C   0  0  1  0  0  0  0  0  0  0  0  0
  141.8370   77.9970  220.6990 C   0  0  0  0  0  0  0  0  0  0  0  0
  141.4110   78.9370  219.7720 C   0  0  0  0  0  0  0  0  0  0  0  0
  140.9600   80.1860  220.1410 C   0  0  0  0  0  0  0  0  0  0  0  0
  140.9370   80.5000  221.4950 C   0  0  0  0  0  0  0  0  0  0  0  0
  140.4450   81.8550  221.8520 C   0  0  0  0  0  0  0  0  0  0  0  0
  139.6200   81.6750  222.9580 F   0  0  0  0  0  0  0  0  0  0  0  0
  139.6100   82.3120  220.8420 F   0  0  0  0  0  0  0  0  0  0  0  0
  141.4560   82.7470  222.0940 F   0  0  0  0  0  0  0  0  0  0  0  0
  141.3560   79.5820  222.4350 C   0  0  0  0  0  0  0  0  0  0  0  0
  141.8040   78.3340  222.0370 C   0  0  0  0  0  0  0  0  0  0  0  0
  140.2070   71.4690  223.6830 C   0  0  0  0  0  0  0  0  0  0  0  0
  139.5660   70.2580  223.6140 C   0  0  0  0  0  0  0  0  0  0  0  0
  139.4180   69.4500  224.7350 C   0  0  0  0  0  0  0  0  0  0  0  0
  139.9440   69.9170  225.9310 C   0  0  0  0  0  0  0  0  0  0  0  0
  139.8440   69.1840  227.0970 C   0  0  0  0  0  0  0  0  0  0  0  0
  140.3730   69.6650  228.2730 C   0  0  0  0  0  0  0  0  0  0  0  0
  141.0240   70.8970  228.3380 C   0  0  0  0  0  0  0  0  0  0  0  0
  141.1280   71.6360  227.1720 C   0  0  0  0  0  0  0  0  0  0  0  0
  140.5900   71.1390  225.9990 C   0  0  0  0  0  0  0  0  0  0  0  0
  140.7060   71.8760  224.8870 N   0  0  0  0  0  0  0  0  0  0  0  0
  138.5570   73.4020  222.9090 H   0  0  0  0  0  0  0  0  0  0  0  0
  139.7630   73.4992  220.1763 H   0  0  0  0  0  0  0  0  0  0  0  0
  138.4850   74.5931  220.8409 H   0  0  0  0  0  0  0  0  0  0  0  0
  141.3825   73.8796  218.9794 H   0  0  0  0  0  0  0  0  0  0  0  0
  140.3977   75.1644  218.3021 H   0  0  0  0  0  0  0  0  0  0  0  0
  143.4508   74.9178  218.4182 H   0  0  0  0  0  0  0  0  0  0  0  0
  142.5025   75.4847  217.0718 H   0  0  0  0  0  0  0  0  0  0  0  0
  143.6617   77.3059  218.6312 H   0  0  0  0  0  0  0  0  0  0  0  0
  141.9838   77.6158  218.2399 H   0  0  0  0  0  0  0  0  0  0  0  0
  143.1159   76.3737  220.8700 H   0  0  0  0  0  0  0  0  0  0  0  0
  141.4340   78.6760  218.7037 H   0  0  0  0  0  0  0  0  0  0  0  0
  140.6278   80.9135  219.3858 H   0  0  0  0  0  0  0  0  0  0  0  0
  141.3342   79.8420  223.5036 H   0  0  0  0  0  0  0  0  0  0  0  0
  142.1358   77.6062  222.7921 H   0  0  0  0  0  0  0  0  0  0  0  0
  139.1600   69.9189  222.6496 H   0  0  0  0  0  0  0  0  0  0  0  0
  138.9044   68.4790  224.6764 H   0  0  0  0  0  0  0  0  0  0  0  0
  139.3374   68.2077  227.0858 H   0  0  0  0  0  0  0  0  0  0  0  0
  140.2798   69.0609  229.1875 H   0  0  0  0  0  0  0  0  0  0  0  0
  141.4413   71.2693  229.2852 H   0  0  0  0  0  0  0  0  0  0  0  0
  141.6352   72.6121  227.1785 H   0  0  0  0  0  0  0  0  0  0  0  0
  1  2  2  0
  2  3  1  0
  3  4  1  0
  4  5  1  0
  5  6  2  0
  5  7  1  0
  7  8  1  0
  8  9  1  0
  9 10  1  0
 10 11  1  0
 11 12  1  0
 12 13  2  0
 13 14  1  0
 14 15  2  0
 15 16  1  0
 16 17  1  0
 16 18  1  0
 16 19  1  0
 15 20  1  0
 20 21  2  0
  2 22  1  0
 22 23  2  0
 23 24  1  0
 24 25  2  0
 25 26  1  0
 26 27  2  0
 27 28  1  0
 28 29  2  0
 29 30  1  0
 30 31  2  0
 11  7  1  0
 21 12  1  0
 31 22  1  0
 30 25  1  0
  3 32  1  0
  4 33  1  0
  4 34  1  0
  8 35  1  0
  8 36  1  0
  9 37  1  0
  9 38  1  0
 10 39  1  0
 10 40  1  0
 11 41  1  1
 13 42  1  0
 14 43  1  0
 20 44  1  0
 21 45  1  0
 23 46  1  0
 24 47  1  0
 26 48  1  0
 27 49  1  0
 28 50  1  0
 29 51  1  0
M  END
>  <smiles>  (66) 
O=C(NCC(=O)N1CCCC1c1ccc(C(F)(F)F)cc1)c1ccc2ccccc2n1

>  <score_type>  (66) 
oracle

>  <origin>  (66) 
autodockgpu

>  <m_score__min__energy>  (66) 
-8.6199999999999992

>  <m_primary>  (66) 
energy

>  <rmsd>  (66) 
1.6325560593853585

>  <m_score__min__rmsd>  (66) 
1.6325560593853585

>  <meeko>  (66) 
{"free_energy": -8.19, "intermolecular_energy": -9.98, "internal_energy": -1.35, "cluster_size": 9, "cluster_id": 3, "rank_in_cluster": 5}

>  <energy>  (66) 
-8.47

>  <cluster_rmsd>  (66) 
0.0

>  <cluster>  (66) 
2

$$$$

     RDKit          3D

 51 54  0  0  0  0  0  0  0  0999 V2000
  139.3540   70.8060  221.1270 O   0  0  0  0  0  0  0  0  0  0  0  0
  139.0820   71.3860  222.2170 C   0  0  0  0  0  0  0  0  0  0  0  0
  138.4260   72.6560  222.1800 N   0  0  0  0  0  0  0  0  0  0  0  0
  138.0810   73.2610  220.8950 C   0  0  0  0  0  0  0  0  0  0  0  0
  139.0260   74.3490  220.5460 C   0  0  0  0  0  0  0  0  0  0  0  0
  138.6070   75.5270  220.2850 O   0  0  0  0  0  0  0  0  0  0  0  0
  140.4380   74.1680  220.4740 N   0  0  0  0  0  0  0  0  0  0  0  0
  141.0130   73.2930  219.4260 C   0  0  0  0  0  0  0  0  0  0  0  0
  142.4590   73.1250  219.8560 C   0  0  0  0  0  0  0  0  0  0  0  0
  142.7330   74.4450  220.5150 C   0  0  0  0  0  0  0  0  0  0  0  0
  141.4630   74.7100  221.2850 C   0  0  1  0  0  0  0  0  0  0  0  0
  141.4180   76.1740  221.5030 C   0  0  0  0  0  0  0  0  0  0  0  0
  141.8230   77.0010  220.4650 C   0  0  0  0  0  0  0  0  0  0  0  0
  141.8190   78.3750  220.5720 C   0  0  0  0  0  0  0  0  0  0  0  0
  141.3890   78.9380  221.7680 C   0  0  0  0  0  0  0  0  0  0  0  0
  141.3980   80.4210  221.8440 C   0  0  0  0  0  0  0  0  0  0  0  0
  142.5910   80.7570  222.4770 F   0  0  0  0  0  0  0  0  0  0  0  0
  140.3940   80.8340  222.7090 F   0  0  0  0  0  0  0  0  0  0  0  0
  141.2690   81.0220  220.6210 F   0  0  0  0  0  0  0  0  0  0  0  0
  140.9820   78.1360  222.8150 C   0  0  0  0  0  0  0  0  0  0  0  0
  140.9960   76.7580  222.6800 C   0  0  0  0  0  0  0  0  0  0  0  0
  139.4120   70.8100  223.5170 C   0  0  0  0  0  0  0  0  0  0  0  0
  139.1840   69.4770  223.7510 C   0  0  0  0  0  0  0  0  0  0  0  0
  139.4870   68.8930  224.9760 C   0  0  0  0  0  0  0  0  0  0  0  0
  140.0280   69.7130  225.9550 C   0  0  0  0  0  0  0  0  0  0  0  0
  140.3590   69.2210  227.2030 C   0  0  0  0  0  0  0  0  0  0  0  0
  140.8970   70.0510  228.1620 C   0  0  0  0  0  0  0  0  0  0  0  0
  141.1250   71.4050  227.9180 C   0  0  0  0  0  0  0  0  0  0  0  0
  140.7960   71.9030  226.6690 C   0  0  0  0  0  0  0  0  0  0  0  0
  140.2570   71.0570  225.7180 C   0  0  0  0  0  0  0  0  0  0  0  0
  139.9480   71.5660  224.5190 N   0  0  0  0  0  0  0  0  0  0  0  0
  138.2000   73.1370  223.0960 H   0  0  0  0  0  0  0  0  0  0  0  0
  138.1179   72.4885  220.1128 H   0  0  0  0  0  0  0  0  0  0  0  0
  137.0698   73.6874  220.9700 H   0  0  0  0  0  0  0  0  0  0  0  0
  140.4963   72.3223  219.3976 H   0  0  0  0  0  0  0  0  0  0  0  0
  140.9137   73.7147  218.4149 H   0  0  0  0  0  0  0  0  0  0  0  0
  142.5728   72.2913  220.5645 H   0  0  0  0  0  0  0  0  0  0  0  0
  143.1462   72.8854  219.0312 H   0  0  0  0  0  0  0  0  0  0  0  0
  143.5983   74.3774  221.1908 H   0  0  0  0  0  0  0  0  0  0  0  0
  142.9810   75.2433  219.8000 H   0  0  0  0  0  0  0  0  0  0  0  0
  141.3704   74.2526  222.2811 H   0  0  0  0  0  0  0  0  0  0  0  0
  142.1593   76.5435  219.5229 H   0  0  0  0  0  0  0  0  0  0  0  0
  142.1469   79.0084  219.7345 H   0  0  0  0  0  0  0  0  0  0  0  0
  140.6461   78.5921  223.7579 H   0  0  0  0  0  0  0  0  0  0  0  0
  140.6683   76.1241  223.5171 H   0  0  0  0  0  0  0  0  0  0  0  0
  138.7520   68.8569  222.9518 H   0  0  0  0  0  0  0  0  0  0  0  0
  139.3050   67.8241  225.1611 H   0  0  0  0  0  0  0  0  0  0  0  0
  140.1916   68.1583  227.4326 H   0  0  0  0  0  0  0  0  0  0  0  0
  141.1538   69.6343  229.1471 H   0  0  0  0  0  0  0  0  0  0  0  0
  141.5529   72.0569  228.6938 H   0  0  0  0  0  0  0  0  0  0  0  0
  140.9624   72.9648  226.4349 H   0  0  0  0  0  0  0  0  0  0  0  0
  1  2  2  0
  2  3  1  0
  3  4  1  0
  4  5  1  0
  5  6  2  0
  5  7  1  0
  7  8  1  0
  8  9  1  0
  9 10  1  0
 10 11  1  0
 11 12  1  0
 12 13  2  0
 13 14  1  0
 14 15  2  0
 15 16  1  0
 16 17  1  0
 16 18  1  0
 16 19  1  0
 15 20  1  0
 20 21  2  0
  2 22  1  0
 22 23  2  0
 23 24  1  0
 24 25  2  0
 25 26  1  0
 26 27  2  0
 27 28  1  0
 28 29  2  0
 29 30  1  0
 30 31  2  0
 11  7  1  0
 21 12  1  0
 31 22  1  0
 30 25  1  0
  3 32  1  0
  4 33  1  0
  4 34  1  0
  8 35  1  0
  8 36  1  0
  9 37  1  0
  9 38  1  0
 10 39  1  0
 10 40  1  0
 11 41  1  1
 13 42  1  0
 14 43  1  0
 20 44  1  0
 21 45  1  0
 23 46  1  0
 24 47  1  0
 26 48  1  0
 27 49  1  0
 28 50  1  0
 29 51  1  0
M  END
>  <smiles>  (67) 
O=C(NCC(=O)N1CCCC1c1ccc(C(F)(F)F)cc1)c1ccc2ccccc2n1

>  <score_type>  (67) 
oracle

>  <origin>  (67) 
autodockgpu

>  <m_score__min__energy>  (67) 
-8.6199999999999992

>  <m_primary>  (67) 
energy

>  <rmsd>  (67) 
2.1719790298816775

>  <m_score__min__rmsd>  (67) 
2.1719790298816775

>  <meeko>  (67) 
{"free_energy": -7.52, "intermolecular_energy": -9.31, "internal_energy": -1.81, "cluster_size": 15, "cluster_id": 1, "rank_in_cluster": 15}

>  <energy>  (67) 
-7.91

>  <cluster_rmsd>  (67) 
0.87

>  <cluster>  (67) 
2

$$$$

     RDKit          3D

 51 54  0  0  0  0  0  0  0  0999 V2000
  141.2020   71.5350  221.4160 O   0  0  0  0  0  0  0  0  0  0  0  0
  140.5650   71.9940  222.4070 C   0  0  0  0  0  0  0  0  0  0  0  0
  140.0870   73.3410  222.3590 N   0  0  0  0  0  0  0  0  0  0  0  0
  140.3390   74.1620  221.1750 C   0  0  0  0  0  0  0  0  0  0  0  0
  140.0620   75.5920  221.4480 C   0  0  0  0  0  0  0  0  0  0  0  0
  139.1330   75.9420  222.2520 O   0  0  0  0  0  0  0  0  0  0  0  0
  140.7900   76.6610  220.8470 N   0  0  0  0  0  0  0  0  0  0  0  0
  141.2200   76.5520  219.4340 C   0  0  0  0  0  0  0  0  0  0  0  0
  142.1880   77.7090  219.2660 C   0  0  0  0  0  0  0  0  0  0  0  0
  141.6110   78.7250  220.2060 C   0  0  0  0  0  0  0  0  0  0  0  0
  141.2100   77.8940  221.4000 C   0  0  1  0  0  0  0  0  0  0  0  0
  140.1730   78.6780  222.1100 C   0  0  0  0  0  0  0  0  0  0  0  0
  140.4630   79.1370  223.3870 C   0  0  0  0  0  0  0  0  0  0  0  0
  139.5640   79.8730  224.1280 C   0  0  0  0  0  0  0  0  0  0  0  0
  138.3270   80.1590  223.5610 C   0  0  0  0  0  0  0  0  0  0  0  0
  137.3860   80.9550  224.3910 C   0  0  0  0  0  0  0  0  0  0  0  0
  136.1210   80.4470  224.1140 F   0  0  0  0  0  0  0  0  0  0  0  0
  137.3680   82.2610  223.9220 F   0  0  0  0  0  0  0  0  0  0  0  0
  137.6830   80.9160  225.7270 F   0  0  0  0  0  0  0  0  0  0  0  0
  138.0160   79.7130  222.2930 C   0  0  0  0  0  0  0  0  0  0  0  0
  138.9380   78.9750  221.5710 C   0  0  0  0  0  0  0  0  0  0  0  0
  140.2950   71.2020  223.6030 C   0  0  0  0  0  0  0  0  0  0  0  0
  139.6210   70.0120  223.4980 C   0  0  0  0  0  0  0  0  0  0  0  0
  139.3470   69.2310  224.6140 C   0  0  0  0  0  0  0  0  0  0  0  0
  139.7830   69.7020  225.8430 C   0  0  0  0  0  0  0  0  0  0  0  0
  139.5560   68.9950  227.0080 C   0  0  0  0  0  0  0  0  0  0  0  0
  139.9980   69.4800  228.2180 C   0  0  0  0  0  0  0  0  0  0  0  0
  140.6830   70.6900  228.3200 C   0  0  0  0  0  0  0  0  0  0  0  0
  140.9150   71.4030  227.1560 C   0  0  0  0  0  0  0  0  0  0  0  0
  140.4640   70.9030  225.9490 C   0  0  0  0  0  0  0  0  0  0  0  0
  140.7010   71.6140  224.8400 N   0  0  0  0  0  0  0  0  0  0  0  0
  139.5540   73.7200  223.1910 H   0  0  0  0  0  0  0  0  0  0  0  0
  141.3923   74.0505  220.8782 H   0  0  0  0  0  0  0  0  0  0  0  0
  139.6719   73.8250  220.3679 H   0  0  0  0  0  0  0  0  0  0  0  0
  141.7211   75.5904  219.2489 H   0  0  0  0  0  0  0  0  0  0  0  0
  140.3786   76.5921  218.7266 H   0  0  0  0  0  0  0  0  0  0  0  0
  143.2088   77.4241  219.5605 H   0  0  0  0  0  0  0  0  0  0  0  0
  142.2855   78.0635  218.2293 H   0  0  0  0  0  0  0  0  0  0  0  0
  142.3626   79.4787  220.4834 H   0  0  0  0  0  0  0  0  0  0  0  0
  140.7741   79.2914  219.7715 H   0  0  0  0  0  0  0  0  0  0  0  0
  141.9868   77.6723  222.1466 H   0  0  0  0  0  0  0  0  0  0  0  0
  141.4457   78.9051  223.8234 H   0  0  0  0  0  0  0  0  0  0  0  0
  139.8177   80.2242  225.1391 H   0  0  0  0  0  0  0  0  0  0  0  0
  137.0338   79.9442  221.8551 H   0  0  0  0  0  0  0  0  0  0  0  0
  138.6843   78.6228  220.5603 H   0  0  0  0  0  0  0  0  0  0  0  0
  139.2897   69.6679  222.5071 H   0  0  0  0  0  0  0  0  0  0  0  0
  138.8059   68.2773  224.5260 H   0  0  0  0  0  0  0  0  0  0  0  0
  139.0176   68.0366  226.9683 H   0  0  0  0  0  0  0  0  0  0  0  0
  139.8053   68.8964  229.1303 H   0  0  0  0  0  0  0  0  0  0  0  0
  141.0282   71.0663  229.2943 H   0  0  0  0  0  0  0  0  0  0  0  0
  141.4546   72.3609  227.1916 H   0  0  0  0  0  0  0  0  0  0  0  0
  1  2  2  0
  2  3  1  0
  3  4  1  0
  4  5  1  0
  5  6  2  0
  5  7  1  0
  7  8  1  0
  8  9  1  0
  9 10  1  0
 10 11  1  0
 11 12  1  0
 12 13  2  0
 13 14  1  0
 14 15  2  0
 15 16  1  0
 16 17  1  0
 16 18  1  0
 16 19  1  0
 15 20  1  0
 20 21  2  0
  2 22  1  0
 22 23  2  0
 23 24  1  0
 24 25  2  0
 25 26  1  0
 26 27  2  0
 27 28  1  0
 28 29  2  0
 29 30  1  0
 30 31  2  0
 11  7  1  0
 21 12  1  0
 31 22  1  0
 30 25  1  0
  3 32  1  0
  4 33  1  0
  4 34  1  0
  8 35  1  0
  8 36  1  0
  9 37  1  0
  9 38  1  0
 10 39  1  0
 10 40  1  0
 11 41  1  1
 13 42  1  0
 14 43  1  0
 20 44  1  0
 21 45  1  0
 23 46  1  0
 24 47  1  0
 26 48  1  0
 27 49  1  0
 28 50  1  0
 29 51  1  0
M  END
>  <smiles>  (68) 
O=C(NCC(=O)N1CCCC1c1ccc(C(F)(F)F)cc1)c1ccc2ccccc2n1

>  <score_type>  (68) 
oracle

>  <origin>  (68) 
autodockgpu

>  <m_score__min__energy>  (68) 
-8.6199999999999992

>  <m_primary>  (68) 
energy

>  <rmsd>  (68) 
2.006358591308059

>  <m_score__min__rmsd>  (68) 
2.006358591308059

>  <meeko>  (68) 
{"free_energy": -8.05, "intermolecular_energy": -9.84, "internal_energy": -1.6, "cluster_size": 9, "cluster_id": 3, "rank_in_cluster": 7}

>  <energy>  (68) 
-8.28

>  <cluster_rmsd>  (68) 
0.0

>  <cluster>  (68) 
3

$$$$

     RDKit          3D

 51 54  0  0  0  0  0  0  0  0999 V2000
  140.9440   71.5360  221.3400 O   0  0  0  0  0  0  0  0  0  0  0  0
  140.4360   72.0550  222.3750 C   0  0  0  0  0  0  0  0  0  0  0  0
  140.0000   73.4160  222.3230 N   0  0  0  0  0  0  0  0  0  0  0  0
  140.1460   74.1810  221.0850 C   0  0  0  0  0  0  0  0  0  0  0  0
  140.3660   75.6200  221.3700 C   0  0  0  0  0  0  0  0  0  0  0  0
  139.8710   76.1690  222.4120 O   0  0  0  0  0  0  0  0  0  0  0  0
  141.1250   76.4790  220.5230 N   0  0  0  0  0  0  0  0  0  0  0  0
  141.2410   77.9190  220.8510 C   0  0  0  0  0  0  0  0  0  0  0  0
  141.8480   78.5230  219.5980 C   0  0  0  0  0  0  0  0  0  0  0  0
  142.7040   77.3950  219.1040 C   0  0  0  0  0  0  0  0  0  0  0  0
  141.8360   76.1830  219.3360 C   0  0  1  0  0  0  0  0  0  0  0  0
  142.7610   75.0270  219.3990 C   0  0  0  0  0  0  0  0  0  0  0  0
  142.6460   74.0440  218.4280 C   0  0  0  0  0  0  0  0  0  0  0  0
  143.4590   72.9320  218.4040 C   0  0  0  0  0  0  0  0  0  0  0  0
  144.4270   72.8060  219.3940 C   0  0  0  0  0  0  0  0  0  0  0  0
  145.2840   71.5950  219.3330 C   0  0  0  0  0  0  0  0  0  0  0  0
  146.4100   71.8930  220.0950 F   0  0  0  0  0  0  0  0  0  0  0  0
  145.7500   71.4370  218.0350 F   0  0  0  0  0  0  0  0  0  0  0  0
  144.6450   70.4630  219.7660 F   0  0  0  0  0  0  0  0  0  0  0  0
  144.5610   73.7710  220.3710 C   0  0  0  0  0  0  0  0  0  0  0  0
  143.7300   74.8790  220.3720 C   0  0  0  0  0  0  0  0  0  0  0  0
  140.2750   71.3190  223.6260 C   0  0  0  0  0  0  0  0  0  0  0  0
  139.6710   70.0880  223.6210 C   0  0  0  0  0  0  0  0  0  0  0  0
  139.5010   69.3580  224.7910 C   0  0  0  0  0  0  0  0  0  0  0  0
  139.9670   69.9250  225.9690 C   0  0  0  0  0  0  0  0  0  0  0  0
  139.8420   69.2740  227.1800 C   0  0  0  0  0  0  0  0  0  0  0  0
  140.3120   69.8540  228.3370 C   0  0  0  0  0  0  0  0  0  0  0  0
  140.9250   71.1070  228.3360 C   0  0  0  0  0  0  0  0  0  0  0  0
  141.0540   71.7640  227.1250 C   0  0  0  0  0  0  0  0  0  0  0  0
  140.5770   71.1680  225.9720 C   0  0  0  0  0  0  0  0  0  0  0  0
  140.7150   71.8270  224.8150 N   0  0  0  0  0  0  0  0  0  0  0  0
  139.5750   73.8460  223.1920 H   0  0  0  0  0  0  0  0  0  0  0  0
  141.0059   73.7908  220.5207 H   0  0  0  0  0  0  0  0  0  0  0  0
  139.2207   74.0781  220.4992 H   0  0  0  0  0  0  0  0  0  0  0  0
  140.2528   78.3554  221.0582 H   0  0  0  0  0  0  0  0  0  0  0  0
  141.8455   78.1049  221.7510 H   0  0  0  0  0  0  0  0  0  0  0  0
  141.0727   78.7895  218.8646 H   0  0  0  0  0  0  0  0  0  0  0  0
  142.3986   79.4589  219.7738 H   0  0  0  0  0  0  0  0  0  0  0  0
  142.9382   77.5149  218.0359 H   0  0  0  0  0  0  0  0  0  0  0  0
  143.6774   77.3347  219.6128 H   0  0  0  0  0  0  0  0  0  0  0  0
  141.0945   75.9358  218.5620 H   0  0  0  0  0  0  0  0  0  0  0  0
  141.8779   74.1560  217.6486 H   0  0  0  0  0  0  0  0  0  0  0  0
  143.3454   72.1653  217.6234 H   0  0  0  0  0  0  0  0  0  0  0  0
  145.3292   73.6602  221.1505 H   0  0  0  0  0  0  0  0  0  0  0  0
  143.8424   75.6459  221.1525 H   0  0  0  0  0  0  0  0  0  0  0  0
  139.3129   69.6688  222.6691 H   0  0  0  0  0  0  0  0  0  0  0  0
  139.0166   68.3704  224.7839 H   0  0  0  0  0  0  0  0  0  0  0  0
  139.3633   68.2845  227.2209 H   0  0  0  0  0  0  0  0  0  0  0  0
  140.2009   69.3140  229.2889 H   0  0  0  0  0  0  0  0  0  0  0  0
  141.2943   71.5586  229.2686 H   0  0  0  0  0  0  0  0  0  0  0  0
  141.5326   72.7534  227.0798 H   0  0  0  0  0  0  0  0  0  0  0  0
  1  2  2  0
  2  3  1  0
  3  4  1  0
  4  5  1  0
  5  6  2  0
  5  7  1  0
  7  8  1  0
  8  9  1  0
  9 10  1  0
 10 11  1  0
 11 12  1  0
 12 13  2  0
 13 14  1  0
 14 15  2  0
 15 16  1  0
 16 17  1  0
 16 18  1  0
 16 19  1  0
 15 20  1  0
 20 21  2  0
  2 22  1  0
 22 23  2  0
 23 24  1  0
 24 25  2  0
 25 26  1  0
 26 27  2  0
 27 28  1  0
 28 29  2  0
 29 30  1  0
 30 31  2  0
 11  7  1  0
 21 12  1  0
 31 22  1  0
 30 25  1  0
  3 32  1  0
  4 33  1  0
  4 34  1  0
  8 35  1  0
  8 36  1  0
  9 37  1  0
  9 38  1  0
 10 39  1  0
 10 40  1  0
 11 41  1  6
 13 42  1  0
 14 43  1  0
 20 44  1  0
 21 45  1  0
 23 46  1  0
 24 47  1  0
 26 48  1  0
 27 49  1  0
 28 50  1  0
 29 51  1  0
M  END
>  <smiles>  (69) 
O=C(NCC(=O)N1CCCC1c1ccc(C(F)(F)F)cc1)c1ccc2ccccc2n1

>  <score_type>  (69) 
oracle

>  <origin>  (69) 
autodockgpu

>  <m_score__min__energy>  (69) 
-8.6199999999999992

>  <m_primary>  (69) 
energy

>  <rmsd>  (69) 
2.289289716760328

>  <m_score__min__rmsd>  (69) 
2.289289716760328

>  <meeko>  (69) 
{"free_energy": -8.07, "intermolecular_energy": -9.86, "internal_energy": -1.93, "cluster_size": 12, "cluster_id": 4, "rank_in_cluster": 10}

>  <energy>  (69) 
-8.25

>  <cluster_rmsd>  (69) 
0.07

>  <cluster>  (69) 
3

$$$$

     RDKit          3D

 51 54  0  0  0  0  0  0  0  0999 V2000
  141.3680   72.1460  221.5880 O   0  0  0  0  0  0  0  0  0  0  0  0
  140.4820   72.3850  222.4580 C   0  0  0  0  0  0  0  0  0  0  0  0
  139.6390   73.5270  222.2910 N   0  0  0  0  0  0  0  0  0  0  0  0
  139.8110   74.3960  221.1280 C   0  0  0  0  0  0  0  0  0  0  0  0
  140.3780   75.7090  221.5200 C   0  0  0  0  0  0  0  0  0  0  0  0
  140.2380   76.1590  222.7070 O   0  0  0  0  0  0  0  0  0  0  0  0
  141.1030   76.5480  220.6240 N   0  0  0  0  0  0  0  0  0  0  0  0
  141.2680   77.9860  220.9380 C   0  0  0  0  0  0  0  0  0  0  0  0
  141.8110   78.5730  219.6470 C   0  0  0  0  0  0  0  0  0  0  0  0
  142.6130   77.4250  219.1090 C   0  0  0  0  0  0  0  0  0  0  0  0
  141.7360   76.2320  219.3990 C   0  0  1  0  0  0  0  0  0  0  0  0
  142.6390   75.0580  219.4140 C   0  0  0  0  0  0  0  0  0  0  0  0
  143.8440   75.1700  220.0920 C   0  0  0  0  0  0  0  0  0  0  0  0
  144.7500   74.1340  220.1610 C   0  0  0  0  0  0  0  0  0  0  0  0
  144.4310   72.9410  219.5250 C   0  0  0  0  0  0  0  0  0  0  0  0
  145.4330   71.8490  219.6230 C   0  0  0  0  0  0  0  0  0  0  0  0
  145.8550   71.6090  218.3190 F   0  0  0  0  0  0  0  0  0  0  0  0
  144.7920   70.6840  220.0210 F   0  0  0  0  0  0  0  0  0  0  0  0
  146.4730   72.1480  220.4620 F   0  0  0  0  0  0  0  0  0  0  0  0
  143.2390   72.8060  218.8440 C   0  0  0  0  0  0  0  0  0  0  0  0
  142.3460   73.8630  218.7900 C   0  0  0  0  0  0  0  0  0  0  0  0
  140.2840   71.5380  223.6310 C   0  0  0  0  0  0  0  0  0  0  0  0
  139.6110   70.3490  223.5090 C   0  0  0  0  0  0  0  0  0  0  0  0
  139.4040   69.5160  224.6030 C   0  0  0  0  0  0  0  0  0  0  0  0
  139.9050   69.9360  225.8260 C   0  0  0  0  0  0  0  0  0  0  0  0
  139.7470   69.1750  226.9680 C   0  0  0  0  0  0  0  0  0  0  0  0
  140.2540   69.6090  228.1730 C   0  0  0  0  0  0  0  0  0  0  0  0
  140.9370   70.8190  228.2910 C   0  0  0  0  0  0  0  0  0  0  0  0
  141.0990   71.5850  227.1490 C   0  0  0  0  0  0  0  0  0  0  0  0
  140.5840   71.1350  225.9480 C   0  0  0  0  0  0  0  0  0  0  0  0
  140.7560   71.8980  224.8600 N   0  0  0  0  0  0  0  0  0  0  0  0
  138.8990   73.7230  223.0230 H   0  0  0  0  0  0  0  0  0  0  0  0
  140.4920   73.9096  220.4140 H   0  0  0  0  0  0  0  0  0  0  0  0
  138.8253   74.5646  220.6698 H   0  0  0  0  0  0  0  0  0  0  0  0
  140.3032   78.4436  221.2023 H   0  0  0  0  0  0  0  0  0  0  0  0
  141.9291   78.1625  221.7993 H   0  0  0  0  0  0  0  0  0  0  0  0
  140.9987   78.8523  218.9599 H   0  0  0  0  0  0  0  0  0  0  0  0
  142.3897   79.4984  219.7842 H   0  0  0  0  0  0  0  0  0  0  0  0
  142.7854   77.5354  218.0282 H   0  0  0  0  0  0  0  0  0  0  0  0
  143.6136   77.3468  219.5593 H   0  0  0  0  0  0  0  0  0  0  0  0
  140.9452   75.9964  218.6716 H   0  0  0  0  0  0  0  0  0  0  0  0
  144.0849   76.1195  220.5923 H   0  0  0  0  0  0  0  0  0  0  0  0
  145.6994   74.2486  220.7046 H   0  0  0  0  0  0  0  0  0  0  0  0
  142.9974   71.8570  218.3429 H   0  0  0  0  0  0  0  0  0  0  0  0
  141.3968   73.7491  218.2460 H   0  0  0  0  0  0  0  0  0  0  0  0
  139.2263   70.0477  222.5235 H   0  0  0  0  0  0  0  0  0  0  0  0
  138.8647   68.5625  224.5024 H   0  0  0  0  0  0  0  0  0  0  0  0
  139.2123   68.2152  226.9147 H   0  0  0  0  0  0  0  0  0  0  0  0
  140.1162   68.9835  229.0673 H   0  0  0  0  0  0  0  0  0  0  0  0
  141.3344   71.1542  229.2604 H   0  0  0  0  0  0  0  0  0  0  0  0
  141.6339   72.5450  227.1973 H   0  0  0  0  0  0  0  0  0  0  0  0
  1  2  2  0
  2  3  1  0
  3  4  1  0
  4  5  1  0
  5  6  2  0
  5  7  1  0
  7  8  1  0
  8  9  1  0
  9 10  1  0
 10 11  1  0
 11 12  1  0
 12 13  2  0
 13 14  1  0
 14 15  2  0
 15 16  1  0
 16 17  1  0
 16 18  1  0
 16 19  1  0
 15 20  1  0
 20 21  2  0
  2 22  1  0
 22 23  2  0
 23 24  1  0
 24 25  2  0
 25 26  1  0
 26 27  2  0
 27 28  1  0
 28 29  2  0
 29 30  1  0
 30 31  2  0
 11  7  1  0
 21 12  1  0
 31 22  1  0
 30 25  1  0
  3 32  1  0
  4 33  1  0
  4 34  1  0
  8 35  1  0
  8 36  1  0
  9 37  1  0
  9 38  1  0
 10 39  1  0
 10 40  1  0
 11 41  1  6
 13 42  1  0
 14 43  1  0
 20 44  1  0
 21 45  1  0
 23 46  1  0
 24 47  1  0
 26 48  1  0
 27 49  1  0
 28 50  1  0
 29 51  1  0
M  END
>  <smiles>  (70) 
O=C(NCC(=O)N1CCCC1c1ccc(C(F)(F)F)cc1)c1ccc2ccccc2n1

>  <score_type>  (70) 
oracle

>  <origin>  (70) 
autodockgpu

>  <m_score__min__energy>  (70) 
-8.6199999999999992

>  <m_primary>  (70) 
energy

>  <rmsd>  (70) 
2.29299578904682

>  <m_score__min__rmsd>  (70) 
2.29299578904682

>  <meeko>  (70) 
{"free_energy": -8.13, "intermolecular_energy": -9.92, "internal_energy": -1.77, "cluster_size": 12, "cluster_id": 4, "rank_in_cluster": 4}

>  <energy>  (70) 
-8.24

>  <cluster_rmsd>  (70) 
0.11

>  <cluster>  (70) 
3

$$$$

     RDKit          3D

 51 54  0  0  0  0  0  0  0  0999 V2000
  140.5780   71.0320  221.3440 O   0  0  0  0  0  0  0  0  0  0  0  0
  140.2720   71.5480  222.4580 C   0  0  0  0  0  0  0  0  0  0  0  0
  140.1030   72.9650  222.5400 N   0  0  0  0  0  0  0  0  0  0  0  0
  140.2840   73.7920  221.3480 C   0  0  0  0  0  0  0  0  0  0  0  0
  140.2620   75.2350  221.6890 C   0  0  0  0  0  0  0  0  0  0  0  0
  139.5770   75.6680  222.6770 O   0  0  0  0  0  0  0  0  0  0  0  0
  140.9830   76.2240  220.9590 N   0  0  0  0  0  0  0  0  0  0  0  0
  141.3800   75.9580  219.5570 C   0  0  0  0  0  0  0  0  0  0  0  0
  142.3520   77.0810  219.2420 C   0  0  0  0  0  0  0  0  0  0  0  0
  141.8020   78.1990  220.0770 C   0  0  0  0  0  0  0  0  0  0  0  0
  141.4230   77.5060  221.3640 C   0  0  1  0  0  0  0  0  0  0  0  0
  140.4080   78.3730  222.0070 C   0  0  0  0  0  0  0  0  0  0  0  0
  140.7630   79.0420  223.1690 C   0  0  0  0  0  0  0  0  0  0  0  0
  139.8880   79.8700  223.8400 C   0  0  0  0  0  0  0  0  0  0  0  0
  138.6090   80.0300  223.3210 C   0  0  0  0  0  0  0  0  0  0  0  0
  137.6970   80.9290  224.0720 C   0  0  0  0  0  0  0  0  0  0  0  0
  136.4280   80.3740  223.9370 F   0  0  0  0  0  0  0  0  0  0  0  0
  137.6330   82.1530  223.4190 F   0  0  0  0  0  0  0  0  0  0  0  0
  138.0600   81.0900  225.3820 F   0  0  0  0  0  0  0  0  0  0  0  0
  138.2330   79.3740  222.1660 C   0  0  0  0  0  0  0  0  0  0  0  0
  139.1320   78.5490  221.5120 C   0  0  0  0  0  0  0  0  0  0  0  0
  140.0840   70.7520  223.6670 C   0  0  0  0  0  0  0  0  0  0  0  0
  139.3900   69.5700  223.6060 C   0  0  0  0  0  0  0  0  0  0  0  0
  139.1920   68.7850  224.7360 C   0  0  0  0  0  0  0  0  0  0  0  0
  139.7230   69.2450  225.9320 C   0  0  0  0  0  0  0  0  0  0  0  0
  139.5760   68.5340  227.1060 C   0  0  0  0  0  0  0  0  0  0  0  0
  140.1120   69.0070  228.2830 C   0  0  0  0  0  0  0  0  0  0  0  0
  140.8160   70.2100  228.3390 C   0  0  0  0  0  0  0  0  0  0  0  0
  140.9670   70.9270  227.1650 C   0  0  0  0  0  0  0  0  0  0  0  0
  140.4230   70.4380  225.9920 C   0  0  0  0  0  0  0  0  0  0  0  0
  140.5850   71.1530  224.8720 N   0  0  0  0  0  0  0  0  0  0  0  0
  139.8480   73.3920  223.4750 H   0  0  0  0  0  0  0  0  0  0  0  0
  141.2513   73.5473  220.8849 H   0  0  0  0  0  0  0  0  0  0  0  0
  139.4578   73.5856  220.6517 H   0  0  0  0  0  0  0  0  0  0  0  0
  141.8703   74.9774  219.4669 H   0  0  0  0  0  0  0  0  0  0  0  0
  140.5228   75.9289  218.8682 H   0  0  0  0  0  0  0  0  0  0  0  0
  143.3772   76.8211  219.5443 H   0  0  0  0  0  0  0  0  0  0  0  0
  142.4292   77.3187  218.1708 H   0  0  0  0  0  0  0  0  0  0  0  0
  142.5640   78.9724  220.2538 H   0  0  0  0  0  0  0  0  0  0  0  0
  140.9591   78.7216  219.6012 H   0  0  0  0  0  0  0  0  0  0  0  0
  142.2151   77.3595  222.1131 H   0  0  0  0  0  0  0  0  0  0  0  0
  141.7786   78.9073  223.5695 H   0  0  0  0  0  0  0  0  0  0  0  0
  140.1939   80.3893  224.7602 H   0  0  0  0  0  0  0  0  0  0  0  0
  137.2175   79.5070  221.7647 H   0  0  0  0  0  0  0  0  0  0  0  0
  138.8270   78.0301  220.5913 H   0  0  0  0  0  0  0  0  0  0  0  0
  138.9810   69.2360  222.6410 H   0  0  0  0  0  0  0  0  0  0  0  0
  138.6365   67.8370  224.6838 H   0  0  0  0  0  0  0  0  0  0  0  0
  139.0260   67.5814  227.1013 H   0  0  0  0  0  0  0  0  0  0  0  0
  139.9814   68.4202  229.2042 H   0  0  0  0  0  0  0  0  0  0  0  0
  141.2377   70.5771  229.2863 H   0  0  0  0  0  0  0  0  0  0  0  0
  141.5164   71.8800  227.1652 H   0  0  0  0  0  0  0  0  0  0  0  0
  1  2  2  0
  2  3  1  0
  3  4  1  0
  4  5  1  0
  5  6  2  0
  5  7  1  0
  7  8  1  0
  8  9  1  0
  9 10  1  0
 10 11  1  0
 11 12  1  0
 12 13  2  0
 13 14  1  0
 14 15  2  0
 15 16  1  0
 16 17  1  0
 16 18  1  0
 16 19  1  0
 15 20  1  0
 20 21  2  0
  2 22  1  0
 22 23  2  0
 23 24  1  0
 24 25  2  0
 25 26  1  0
 26 27  2  0
 27 28  1  0
 28 29  2  0
 29 30  1  0
 30 31  2  0
 11  7  1  0
 21 12  1  0
 31 22  1  0
 30 25  1  0
  3 32  1  0
  4 33  1  0
  4 34  1  0
  8 35  1  0
  8 36  1  0
  9 37  1  0
  9 38  1  0
 10 39  1  0
 10 40  1  0
 11 41  1  1
 13 42  1  0
 14 43  1  0
 20 44  1  0
 21 45  1  0
 23 46  1  0
 24 47  1  0
 26 48  1  0
 27 49  1  0
 28 50  1  0
 29 51  1  0
M  END
>  <smiles>  (71) 
O=C(NCC(=O)N1CCCC1c1ccc(C(F)(F)F)cc1)c1ccc2ccccc2n1

>  <score_type>  (71) 
oracle

>  <origin>  (71) 
autodockgpu

>  <m_score__min__energy>  (71) 
-8.6199999999999992

>  <m_primary>  (71) 
energy

>  <rmsd>  (71) 
1.8369085964191176

>  <m_score__min__rmsd>  (71) 
1.8369085964191176

>  <meeko>  (71) 
{"free_energy": -8.15, "intermolecular_energy": -9.94, "internal_energy": -1.67, "cluster_size": 9, "cluster_id": 3, "rank_in_cluster": 6}

>  <energy>  (71) 
-8.22

>  <cluster_rmsd>  (71) 
0.43

>  <cluster>  (71) 
3

$$$$

     RDKit          3D

 51 54  0  0  0  0  0  0  0  0999 V2000
  138.8900   70.6230  221.5370 O   0  0  0  0  0  0  0  0  0  0  0  0
  139.2190   71.1370  222.6450 C   0  0  0  0  0  0  0  0  0  0  0  0
  139.3760   72.5560  222.7310 N   0  0  0  0  0  0  0  0  0  0  0  0
  139.1570   73.3860  221.5470 C   0  0  0  0  0  0  0  0  0  0  0  0
  139.3830   74.8190  221.8500 C   0  0  0  0  0  0  0  0  0  0  0  0
  140.5570   75.2670  222.0770 O   0  0  0  0  0  0  0  0  0  0  0  0
  138.3340   75.7830  221.9120 N   0  0  0  0  0  0  0  0  0  0  0  0
  137.0370   75.4170  222.5270 C   0  0  0  0  0  0  0  0  0  0  0  0
  136.1230   76.5660  222.1410 C   0  0  0  0  0  0  0  0  0  0  0  0
  137.0830   77.7170  222.1090 C   0  0  0  0  0  0  0  0  0  0  0  0
  138.3060   77.1210  221.4560 C   0  0  1  0  0  0  0  0  0  0  0  0
  139.4430   77.9760  221.8680 C   0  0  0  0  0  0  0  0  0  0  0  0
  139.3220   78.7010  223.0450 C   0  0  0  0  0  0  0  0  0  0  0  0
  140.3250   79.5240  223.5110 C   0  0  0  0  0  0  0  0  0  0  0  0
  141.4930   79.6200  222.7640 C   0  0  0  0  0  0  0  0  0  0  0  0
  142.5500   80.5170  223.2990 C   0  0  0  0  0  0  0  0  0  0  0  0
  142.0430   81.8070  223.1800 F   0  0  0  0  0  0  0  0  0  0  0  0
  143.6480   80.4740  222.4520 F   0  0  0  0  0  0  0  0  0  0  0  0
  142.9110   80.2140  224.5850 F   0  0  0  0  0  0  0  0  0  0  0  0
  141.6370   78.9090  221.5910 C   0  0  0  0  0  0  0  0  0  0  0  0
  140.6140   78.0890  221.1450 C   0  0  0  0  0  0  0  0  0  0  0  0
  139.4450   70.3380  223.8460 C   0  0  0  0  0  0  0  0  0  0  0  0
  139.0700   69.0180  223.8690 C   0  0  0  0  0  0  0  0  0  0  0  0
  139.2700   68.2260  224.9930 C   0  0  0  0  0  0  0  0  0  0  0  0
  139.8650   68.8230  226.0950 C   0  0  0  0  0  0  0  0  0  0  0  0
  140.1030   68.1150  227.2570 C   0  0  0  0  0  0  0  0  0  0  0  0
  140.6960   68.7260  228.3390 C   0  0  0  0  0  0  0  0  0  0  0  0
  141.0750   70.0680  228.3100 C   0  0  0  0  0  0  0  0  0  0  0  0
  140.8400   70.7820  227.1480 C   0  0  0  0  0  0  0  0  0  0  0  0
  140.2430   70.1540  226.0710 C   0  0  0  0  0  0  0  0  0  0  0  0
  140.0270   70.8700  224.9600 N   0  0  0  0  0  0  0  0  0  0  0  0
  139.6510   72.9800  223.6600 H   0  0  0  0  0  0  0  0  0  0  0  0
  139.8528   73.0723  220.7548 H   0  0  0  0  0  0  0  0  0  0  0  0
  138.1147   73.2586  221.2193 H   0  0  0  0  0  0  0  0  0  0  0  0
  136.6643   74.4651  222.1209 H   0  0  0  0  0  0  0  0  0  0  0  0
  137.1054   75.2718  223.6152 H   0  0  0  0  0  0  0  0  0  0  0  0
  135.6630   76.3995  221.1558 H   0  0  0  0  0  0  0  0  0  0  0  0
  135.2732   76.7109  222.8243 H   0  0  0  0  0  0  0  0  0  0  0  0
  136.6822   78.5496  221.5122 H   0  0  0  0  0  0  0  0  0  0  0  0
  137.2856   78.1403  223.1039 H   0  0  0  0  0  0  0  0  0  0  0  0
  138.3304   77.0935  220.3566 H   0  0  0  0  0  0  0  0  0  0  0  0
  138.3925   78.6160  223.6270 H   0  0  0  0  0  0  0  0  0  0  0  0
  140.2043   80.0886  224.4473 H   0  0  0  0  0  0  0  0  0  0  0  0
  142.5663   78.9934  221.0085 H   0  0  0  0  0  0  0  0  0  0  0  0
  140.7350   77.5241  220.2089 H   0  0  0  0  0  0  0  0  0  0  0  0
  138.6004   68.5770  222.9774 H   0  0  0  0  0  0  0  0  0  0  0  0
  138.9687   67.1682  225.0085 H   0  0  0  0  0  0  0  0  0  0  0  0
  139.8165   67.0547  227.3184 H   0  0  0  0  0  0  0  0  0  0  0  0
  140.8759   68.1393  229.2519 H   0  0  0  0  0  0  0  0  0  0  0  0
  141.5457   70.5437  229.1830 H   0  0  0  0  0  0  0  0  0  0  0  0
  141.1263   71.8420  227.0819 H   0  0  0  0  0  0  0  0  0  0  0  0
  1  2  2  0
  2  3  1  0
  3  4  1  0
  4  5  1  0
  5  6  2  0
  5  7  1  0
  7  8  1  0
  8  9  1  0
  9 10  1  0
 10 11  1  0
 11 12  1  0
 12 13  2  0
 13 14  1  0
 14 15  2  0
 15 16  1  0
 16 17  1  0
 16 18  1  0
 16 19  1  0
 15 20  1  0
 20 21  2  0
  2 22  1  0
 22 23  2  0
 23 24  1  0
 24 25  2  0
 25 26  1  0
 26 27  2  0
 27 28  1  0
 28 29  2  0
 29 30  1  0
 30 31  2  0
 11  7  1  0
 21 12  1  0
 31 22  1  0
 30 25  1  0
  3 32  1  0
  4 33  1  0
  4 34  1  0
  8 35  1  0
  8 36  1  0
  9 37  1  0
  9 38  1  0
 10 39  1  0
 10 40  1  0
 11 41  1  6
 13 42  1  0
 14 43  1  0
 20 44  1  0
 21 45  1  0
 23 46  1  0
 24 47  1  0
 26 48  1  0
 27 49  1  0
 28 50  1  0
 29 51  1  0
M  END
>  <smiles>  (72) 
O=C(NCC(=O)N1CCCC1c1ccc(C(F)(F)F)cc1)c1ccc2ccccc2n1

>  <score_type>  (72) 
oracle

>  <origin>  (72) 
autodockgpu

>  <m_score__min__energy>  (72) 
-8.6199999999999992

>  <m_primary>  (72) 
energy

>  <rmsd>  (72) 
2.839620135414554

>  <m_score__min__rmsd>  (72) 
2.839620135414554

>  <meeko>  (72) 
{"free_energy": -8.4, "intermolecular_energy": -10.19, "internal_energy": -1.56, "cluster_size": 15, "cluster_id": 1, "rank_in_cluster": 5}

>  <energy>  (72) 
-8.19

>  <cluster_rmsd>  (72) 
1.63

>  <cluster>  (72) 
3

$$$$

     RDKit          3D

 51 54  0  0  0  0  0  0  0  0999 V2000
  138.2530   70.8110  221.8020 O   0  0  0  0  0  0  0  0  0  0  0  0
  138.8960   71.2570  222.7960 C   0  0  0  0  0  0  0  0  0  0  0  0
  139.3330   72.6180  222.7820 N   0  0  0  0  0  0  0  0  0  0  0  0
  139.0330   73.4690  221.6310 C   0  0  0  0  0  0  0  0  0  0  0  0
  139.2960   74.8950  221.9380 C   0  0  0  0  0  0  0  0  0  0  0  0
  140.4800   75.3110  222.1750 O   0  0  0  0  0  0  0  0  0  0  0  0
  138.2720   75.8870  221.9940 N   0  0  0  0  0  0  0  0  0  0  0  0
  136.9680   75.5610  222.6170 C   0  0  0  0  0  0  0  0  0  0  0  0
  136.0840   76.7300  222.2220 C   0  0  0  0  0  0  0  0  0  0  0  0
  137.0730   77.8560  222.1750 C   0  0  0  0  0  0  0  0  0  0  0  0
  138.2780   77.2210  221.5230 C   0  0  1  0  0  0  0  0  0  0  0  0
  139.4390   78.0500  221.9230 C   0  0  0  0  0  0  0  0  0  0  0  0
  139.3220   78.8320  223.0630 C   0  0  0  0  0  0  0  0  0  0  0  0
  140.3450   79.6360  223.5140 C   0  0  0  0  0  0  0  0  0  0  0  0
  141.5320   79.6540  222.7910 C   0  0  0  0  0  0  0  0  0  0  0  0
  142.6110   80.5330  223.3090 C   0  0  0  0  0  0  0  0  0  0  0  0
  142.1280   81.8320  223.1870 F   0  0  0  0  0  0  0  0  0  0  0  0
  143.7000   80.4630  222.4500 F   0  0  0  0  0  0  0  0  0  0  0  0
  142.9800   80.2310  224.5930 F   0  0  0  0  0  0  0  0  0  0  0  0
  141.6720   78.8850  221.6540 C   0  0  0  0  0  0  0  0  0  0  0  0
  140.6280   78.0850  221.2230 C   0  0  0  0  0  0  0  0  0  0  0  0
  139.2120   70.4350  223.9610 C   0  0  0  0  0  0  0  0  0  0  0  0
  138.9020   69.0990  223.9580 C   0  0  0  0  0  0  0  0  0  0  0  0
  139.1880   68.2850  225.0480 C   0  0  0  0  0  0  0  0  0  0  0  0
  139.8000   68.8790  226.1430 C   0  0  0  0  0  0  0  0  0  0  0  0
  140.1220   68.1510  227.2710 C   0  0  0  0  0  0  0  0  0  0  0  0
  140.7290   68.7590  228.3470 C   0  0  0  0  0  0  0  0  0  0  0  0
  141.0410   70.1180  228.3440 C   0  0  0  0  0  0  0  0  0  0  0  0
  140.7220   70.8530  227.2150 C   0  0  0  0  0  0  0  0  0  0  0  0
  140.1120   70.2280  226.1440 C   0  0  0  0  0  0  0  0  0  0  0  0
  139.8140   70.9640  225.0660 N   0  0  0  0  0  0  0  0  0  0  0  0
  139.8710   72.9860  223.6170 H   0  0  0  0  0  0  0  0  0  0  0  0
  139.6633   73.1620  220.7834 H   0  0  0  0  0  0  0  0  0  0  0  0
  137.9676   73.3563  221.3817 H   0  0  0  0  0  0  0  0  0  0  0  0
  136.5690   74.6152  222.2217 H   0  0  0  0  0  0  0  0  0  0  0  0
  137.0360   75.4244  223.7064 H   0  0  0  0  0  0  0  0  0  0  0  0
  135.6166   76.5655  221.2399 H   0  0  0  0  0  0  0  0  0  0  0  0
  135.2411   76.9041  222.9069 H   0  0  0  0  0  0  0  0  0  0  0  0
  136.6915   78.6926  221.5713 H   0  0  0  0  0  0  0  0  0  0  0  0
  137.2903   78.2843  223.1646 H   0  0  0  0  0  0  0  0  0  0  0  0
  138.2978   77.1816  220.4239 H   0  0  0  0  0  0  0  0  0  0  0  0
  138.3779   78.8090  223.6270 H   0  0  0  0  0  0  0  0  0  0  0  0
  140.2261   80.2469  224.4210 H   0  0  0  0  0  0  0  0  0  0  0  0
  142.6154   78.9078  221.0888 H   0  0  0  0  0  0  0  0  0  0  0  0
  140.7467   77.4731  220.3167 H   0  0  0  0  0  0  0  0  0  0  0  0
  138.4161   68.6618  223.0732 H   0  0  0  0  0  0  0  0  0  0  0  0
  138.9393   67.2135  225.0429 H   0  0  0  0  0  0  0  0  0  0  0  0
  139.8917   67.0761  227.3105 H   0  0  0  0  0  0  0  0  0  0  0  0
  140.9746   68.1559  229.2335 H   0  0  0  0  0  0  0  0  0  0  0  0
  141.5252   70.5910  229.2111 H   0  0  0  0  0  0  0  0  0  0  0  0
  140.9526   71.9276  227.1707 H   0  0  0  0  0  0  0  0  0  0  0  0
  1  2  2  0
  2  3  1  0
  3  4  1  0
  4  5  1  0
  5  6  2  0
  5  7  1  0
  7  8  1  0
  8  9  1  0
  9 10  1  0
 10 11  1  0
 11 12  1  0
 12 13  2  0
 13 14  1  0
 14 15  2  0
 15 16  1  0
 16 17  1  0
 16 18  1  0
 16 19  1  0
 15 20  1  0
 20 21  2  0
  2 22  1  0
 22 23  2  0
 23 24  1  0
 24 25  2  0
 25 26  1  0
 26 27  2  0
 27 28  1  0
 28 29  2  0
 29 30  1  0
 30 31  2  0
 11  7  1  0
 21 12  1  0
 31 22  1  0
 30 25  1  0
  3 32  1  0
  4 33  1  0
  4 34  1  0
  8 35  1  0
  8 36  1  0
  9 37  1  0
  9 38  1  0
 10 39  1  0
 10 40  1  0
 11 41  1  6
 13 42  1  0
 14 43  1  0
 20 44  1  0
 21 45  1  0
 23 46  1  0
 24 47  1  0
 26 48  1  0
 27 49  1  0
 28 50  1  0
 29 51  1  0
M  END
>  <smiles>  (73) 
O=C(NCC(=O)N1CCCC1c1ccc(C(F)(F)F)cc1)c1ccc2ccccc2n1

>  <score_type>  (73) 
oracle

>  <origin>  (73) 
autodockgpu

>  <m_score__min__energy>  (73) 
-8.6199999999999992

>  <m_primary>  (73) 
energy

>  <rmsd>  (73) 
2.895695031089046

>  <m_score__min__rmsd>  (73) 
2.895695031089046

>  <meeko>  (73) 
{"free_energy": -8.35, "intermolecular_energy": -10.14, "internal_energy": -1.62, "cluster_size": 15, "cluster_id": 1, "rank_in_cluster": 8}

>  <energy>  (73) 
-8.15

>  <cluster_rmsd>  (73) 
0.37

>  <cluster>  (73) 
3

$$$$

     RDKit          3D

 51 54  0  0  0  0  0  0  0  0999 V2000
  138.1520   70.7800  221.8940 O   0  0  0  0  0  0  0  0  0  0  0  0
  138.8780   71.2540  222.8150 C   0  0  0  0  0  0  0  0  0  0  0  0
  139.3230   72.6090  222.7170 N   0  0  0  0  0  0  0  0  0  0  0  0
  138.9380   73.4210  221.5630 C   0  0  0  0  0  0  0  0  0  0  0  0
  139.2220   74.8570  221.8020 C   0  0  0  0  0  0  0  0  0  0  0  0
  140.3360   75.2340  222.3000 O   0  0  0  0  0  0  0  0  0  0  0  0
  138.2980   75.9000  221.5030 N   0  0  0  0  0  0  0  0  0  0  0  0
  136.8680   75.7350  221.8520 C   0  0  0  0  0  0  0  0  0  0  0  0
  136.1890   76.8830  221.1270 C   0  0  0  0  0  0  0  0  0  0  0  0
  137.2560   77.9360  221.1640 C   0  0  0  0  0  0  0  0  0  0  0  0
  138.5160   77.1530  220.8840 C   0  0  1  0  0  0  0  0  0  0  0  0
  139.6280   77.9660  221.4280 C   0  0  0  0  0  0  0  0  0  0  0  0
  139.4510   78.5740  222.6620 C   0  0  0  0  0  0  0  0  0  0  0  0
  140.4260   79.3490  223.2500 C   0  0  0  0  0  0  0  0  0  0  0  0
  141.6260   79.5190  222.5700 C   0  0  0  0  0  0  0  0  0  0  0  0
  142.6520   80.3610  223.2360 C   0  0  0  0  0  0  0  0  0  0  0  0
  142.3670   81.6690  222.8590 F   0  0  0  0  0  0  0  0  0  0  0  0
  143.8940   80.0810  222.6820 F   0  0  0  0  0  0  0  0  0  0  0  0
  142.6760   80.2030  224.5970 F   0  0  0  0  0  0  0  0  0  0  0  0
  141.8270   78.9240  221.3410 C   0  0  0  0  0  0  0  0  0  0  0  0
  140.8290   78.1500  220.7730 C   0  0  0  0  0  0  0  0  0  0  0  0
  139.2800   70.4710  223.9800 C   0  0  0  0  0  0  0  0  0  0  0  0
  139.0660   69.1160  224.0000 C   0  0  0  0  0  0  0  0  0  0  0  0
  139.4360   68.3380  225.0900 C   0  0  0  0  0  0  0  0  0  0  0  0
  140.0330   68.9870  226.1610 C   0  0  0  0  0  0  0  0  0  0  0  0
  140.4340   68.2970  227.2880 C   0  0  0  0  0  0  0  0  0  0  0  0
  141.0250   68.9590  228.3410 C   0  0  0  0  0  0  0  0  0  0  0  0
  141.2400   70.3370  228.3150 C   0  0  0  0  0  0  0  0  0  0  0  0
  140.8410   71.0340  227.1880 C   0  0  0  0  0  0  0  0  0  0  0  0
  140.2490   70.3540  226.1400 C   0  0  0  0  0  0  0  0  0  0  0  0
  139.8720   71.0540  225.0630 N   0  0  0  0  0  0  0  0  0  0  0  0
  139.9300   73.0010  223.4900 H   0  0  0  0  0  0  0  0  0  0  0  0
  139.5043   73.0846  220.6820 H   0  0  0  0  0  0  0  0  0  0  0  0
  137.8572   73.3015  221.3967 H   0  0  0  0  0  0  0  0  0  0  0  0
  136.4865   74.7661  221.4975 H   0  0  0  0  0  0  0  0  0  0  0  0
  136.6885   75.7488  222.9372 H   0  0  0  0  0  0  0  0  0  0  0  0
  135.9314   76.6087  220.0934 H   0  0  0  0  0  0  0  0  0  0  0  0
  135.2357   77.1958  221.5780 H   0  0  0  0  0  0  0  0  0  0  0  0
  137.0850   78.6994  220.3908 H   0  0  0  0  0  0  0  0  0  0  0  0
  137.2898   78.4855  222.1163 H   0  0  0  0  0  0  0  0  0  0  0  0
  138.7689   76.9598  219.8311 H   0  0  0  0  0  0  0  0  0  0  0  0
  138.4968   78.4320  223.1905 H   0  0  0  0  0  0  0  0  0  0  0  0
  140.2596   79.8200  224.2300 H   0  0  0  0  0  0  0  0  0  0  0  0
  142.7811   79.0648  220.8120 H   0  0  0  0  0  0  0  0  0  0  0  0
  140.9945   77.6785  219.7930 H   0  0  0  0  0  0  0  0  0  0  0  0
  138.5904   68.6344  223.1329 H   0  0  0  0  0  0  0  0  0  0  0  0
  139.2627   67.2518  225.1033 H   0  0  0  0  0  0  0  0  0  0  0  0
  140.2800   67.2093  227.3451 H   0  0  0  0  0  0  0  0  0  0  0  0
  141.3360   68.3856  229.2267 H   0  0  0  0  0  0  0  0  0  0  0  0
  141.7120   70.8535  229.1638 H   0  0  0  0  0  0  0  0  0  0  0  0
  140.9939   72.1216  227.1265 H   0  0  0  0  0  0  0  0  0  0  0  0
  1  2  2  0
  2  3  1  0
  3  4  1  0
  4  5  1  0
  5  6  2  0
  5  7  1  0
  7  8  1  0
  8  9  1  0
  9 10  1  0
 10 11  1  0
 11 12  1  0
 12 13  2  0
 13 14  1  0
 14 15  2  0
 15 16  1  0
 16 17  1  0
 16 18  1  0
 16 19  1  0
 15 20  1  0
 20 21  2  0
  2 22  1  0
 22 23  2  0
 23 24  1  0
 24 25  2  0
 25 26  1  0
 26 27  2  0
 27 28  1  0
 28 29  2  0
 29 30  1  0
 30 31  2  0
 11  7  1  0
 21 12  1  0
 31 22  1  0
 30 25  1  0
  3 32  1  0
  4 33  1  0
  4 34  1  0
  8 35  1  0
  8 36  1  0
  9 37  1  0
  9 38  1  0
 10 39  1  0
 10 40  1  0
 11 41  1  6
 13 42  1  0
 14 43  1  0
 20 44  1  0
 21 45  1  0
 23 46  1  0
 24 47  1  0
 26 48  1  0
 27 49  1  0
 28 50  1  0
 29 51  1  0
M  END
>  <smiles>  (74) 
O=C(NCC(=O)N1CCCC1c1ccc(C(F)(F)F)cc1)c1ccc2ccccc2n1

>  <score_type>  (74) 
oracle

>  <origin>  (74) 
autodockgpu

>  <m_score__min__energy>  (74) 
-8.6199999999999992

>  <m_primary>  (74) 
energy

>  <rmsd>  (74) 
2.5300133171625827

>  <m_score__min__rmsd>  (74) 
2.5300133171625827

>  <meeko>  (74) 
{"free_energy": -7.91, "intermolecular_energy": -9.7, "internal_energy": -1.76, "cluster_size": 15, "cluster_id": 1, "rank_in_cluster": 13}

>  <energy>  (74) 
-8.05

>  <cluster_rmsd>  (74) 
0.34

>  <cluster>  (74) 
3

$$$$

     RDKit          3D

 51 54  0  0  0  0  0  0  0  0999 V2000
  140.8210   71.9790  222.0320 O   0  0  0  0  0  0  0  0  0  0  0  0
  139.9360   71.9380  222.9350 C   0  0  0  0  0  0  0  0  0  0  0  0
  138.6800   72.5800  222.7030 N   0  0  0  0  0  0  0  0  0  0  0  0
  138.4360   73.2680  221.4360 C   0  0  0  0  0  0  0  0  0  0  0  0
  139.2210   74.5240  221.3510 C   0  0  0  0  0  0  0  0  0  0  0  0
  138.7510   75.6250  221.7960 O   0  0  0  0  0  0  0  0  0  0  0  0
  140.5240   74.5960  220.7790 N   0  0  0  0  0  0  0  0  0  0  0  0
  140.8310   73.8270  219.5510 C   0  0  0  0  0  0  0  0  0  0  0  0
  142.3410   73.9250  219.4370 C   0  0  0  0  0  0  0  0  0  0  0  0
  142.6020   75.2790  220.0270 C   0  0  0  0  0  0  0  0  0  0  0  0
  141.6620   75.3210  221.2070 C   0  0  1  0  0  0  0  0  0  0  0  0
  141.4490   76.7560  221.5050 C   0  0  0  0  0  0  0  0  0  0  0  0
  141.6370   77.6710  220.4790 C   0  0  0  0  0  0  0  0  0  0  0  0
  141.4640   79.0260  220.6580 C   0  0  0  0  0  0  0  0  0  0  0  0
  141.0860   79.4780  221.9160 C   0  0  0  0  0  0  0  0  0  0  0  0
  140.9090   80.9440  222.0690 C   0  0  0  0  0  0  0  0  0  0  0  0
  141.4550   81.5100  220.9210 F   0  0  0  0  0  0  0  0  0  0  0  0
  141.7090   81.3880  223.1130 F   0  0  0  0  0  0  0  0  0  0  0  0
  139.6040   81.3110  222.2610 F   0  0  0  0  0  0  0  0  0  0  0  0
  140.8920   78.5870  222.9530 C   0  0  0  0  0  0  0  0  0  0  0  0
  141.0730   77.2300  222.7450 C   0  0  0  0  0  0  0  0  0  0  0  0
  140.1470   71.2590  224.2100 C   0  0  0  0  0  0  0  0  0  0  0  0
  140.8220   71.8960  225.2210 C   0  0  0  0  0  0  0  0  0  0  0  0
  141.0400   71.2830  226.4480 C   0  0  0  0  0  0  0  0  0  0  0  0
  140.5490   69.9960  226.6130 C   0  0  0  0  0  0  0  0  0  0  0  0
  140.7190   69.3060  227.7970 C   0  0  0  0  0  0  0  0  0  0  0  0
  140.2230   68.0300  227.9410 C   0  0  0  0  0  0  0  0  0  0  0  0
  139.5370   67.3860  226.9100 C   0  0  0  0  0  0  0  0  0  0  0  0
  139.3630   68.0730  225.7210 C   0  0  0  0  0  0  0  0  0  0  0  0
  139.8680   69.3540  225.5930 C   0  0  0  0  0  0  0  0  0  0  0  0
  139.6850   69.9930  224.4310 N   0  0  0  0  0  0  0  0  0  0  0  0
  137.9440   72.5430  223.4630 H   0  0  0  0  0  0  0  0  0  0  0  0
  138.7256   72.6064  220.6063 H   0  0  0  0  0  0  0  0  0  0  0  0
  137.3668   73.5192  221.3748 H   0  0  0  0  0  0  0  0  0  0  0  0
  140.5120   72.7793  219.6536 H   0  0  0  0  0  0  0  0  0  0  0  0
  140.3093   74.2134  218.6630 H   0  0  0  0  0  0  0  0  0  0  0  0
  142.8392   73.1327  220.0150 H   0  0  0  0  0  0  0  0  0  0  0  0
  142.7207   73.8034  218.4118 H   0  0  0  0  0  0  0  0  0  0  0  0
  143.6487   75.3739  220.3516 H   0  0  0  0  0  0  0  0  0  0  0  0
  142.4407   76.1012  219.3143 H   0  0  0  0  0  0  0  0  0  0  0  0
  142.0076   74.8647  222.1463 H   0  0  0  0  0  0  0  0  0  0  0  0
  141.9349   77.3011  219.4868 H   0  0  0  0  0  0  0  0  0  0  0  0
  141.6209   79.7304  219.8278 H   0  0  0  0  0  0  0  0  0  0  0  0
  140.5933   78.9556  223.9454 H   0  0  0  0  0  0  0  0  0  0  0  0
  140.9159   76.5248  223.5744 H   0  0  0  0  0  0  0  0  0  0  0  0
  141.1992   72.9160  225.0556 H   0  0  0  0  0  0  0  0  0  0  0  0
  141.5802   71.7973  227.2565 H   0  0  0  0  0  0  0  0  0  0  0  0
  141.2553   69.7800  228.6322 H   0  0  0  0  0  0  0  0  0  0  0  0
  140.3714   67.5032  228.8952 H   0  0  0  0  0  0  0  0  0  0  0  0
  139.1472   66.3654  227.0383 H   0  0  0  0  0  0  0  0  0  0  0  0
  138.8266   67.6031  224.8835 H   0  0  0  0  0  0  0  0  0  0  0  0
  1  2  2  0
  2  3  1  0
  3  4  1  0
  4  5  1  0
  5  6  2  0
  5  7  1  0
  7  8  1  0
  8  9  1  0
  9 10  1  0
 10 11  1  0
 11 12  1  0
 12 13  2  0
 13 14  1  0
 14 15  2  0
 15 16  1  0
 16 17  1  0
 16 18  1  0
 16 19  1  0
 15 20  1  0
 20 21  2  0
  2 22  1  0
 22 23  2  0
 23 24  1  0
 24 25  2  0
 25 26  1  0
 26 27  2  0
 27 28  1  0
 28 29  2  0
 29 30  1  0
 30 31  2  0
 11  7  1  0
 21 12  1  0
 31 22  1  0
 30 25  1  0
  3 32  1  0
  4 33  1  0
  4 34  1  0
  8 35  1  0
  8 36  1  0
  9 37  1  0
  9 38  1  0
 10 39  1  0
 10 40  1  0
 11 41  1  1
 13 42  1  0
 14 43  1  0
 20 44  1  0
 21 45  1  0
 23 46  1  0
 24 47  1  0
 26 48  1  0
 27 49  1  0
 28 50  1  0
 29 51  1  0
M  END
>  <smiles>  (75) 
O=C(NCC(=O)N1CCCC1c1ccc(C(F)(F)F)cc1)c1ccc2ccccc2n1

>  <score_type>  (75) 
oracle

>  <origin>  (75) 
autodockgpu

>  <m_score__min__energy>  (75) 
-8.6199999999999992

>  <m_primary>  (75) 
energy

>  <rmsd>  (75) 
2.9645901268551684

>  <m_score__min__rmsd>  (75) 
2.9645901268551684

>  <meeko>  (75) 
{"free_energy": -7.78, "intermolecular_energy": -9.57, "internal_energy": -1.58, "cluster_size": 15, "cluster_id": 1, "rank_in_cluster": 14}

>  <energy>  (75) 
-7.94

>  <cluster_rmsd>  (75) 
1.89

>  <cluster>  (75) 
3

$$$$

     RDKit          3D

 51 54  0  0  0  0  0  0  0  0999 V2000
  140.0610   70.6870  221.5290 O   0  0  0  0  0  0  0  0  0  0  0  0
  139.5560   71.2710  222.5300 C   0  0  0  0  0  0  0  0  0  0  0  0
  138.5550   72.2690  222.3170 N   0  0  0  0  0  0  0  0  0  0  0  0
  138.1330   72.5990  220.9560 C   0  0  0  0  0  0  0  0  0  0  0  0
  139.0280   73.6140  220.3500 C   0  0  0  0  0  0  0  0  0  0  0  0
  139.4940   73.4610  219.1710 O   0  0  0  0  0  0  0  0  0  0  0  0
  139.4280   74.8070  221.0210 N   0  0  0  0  0  0  0  0  0  0  0  0
  138.6510   75.2890  222.1860 C   0  0  0  0  0  0  0  0  0  0  0  0
  139.1910   76.6890  222.4200 C   0  0  0  0  0  0  0  0  0  0  0  0
  140.6190   76.5380  221.9860 C   0  0  0  0  0  0  0  0  0  0  0  0
  140.5090   75.6780  220.7500 C   0  0  1  0  0  0  0  0  0  0  0  0
  141.8350   75.0410  220.5800 C   0  0  0  0  0  0  0  0  0  0  0  0
  141.9760   73.7150  220.9630 C   0  0  0  0  0  0  0  0  0  0  0  0
  143.1700   73.0360  220.8440 C   0  0  0  0  0  0  0  0  0  0  0  0
  144.2620   73.7170  220.3200 C   0  0  0  0  0  0  0  0  0  0  0  0
  145.5290   72.9510  220.2090 C   0  0  0  0  0  0  0  0  0  0  0  0
  145.1520   71.6190  220.0680 F   0  0  0  0  0  0  0  0  0  0  0  0
  146.2030   73.0150  221.4210 F   0  0  0  0  0  0  0  0  0  0  0  0
  146.3270   73.3790  219.1810 F   0  0  0  0  0  0  0  0  0  0  0  0
  144.1460   75.0360  219.9330 C   0  0  0  0  0  0  0  0  0  0  0  0
  142.9350   75.6950  220.0630 C   0  0  0  0  0  0  0  0  0  0  0  0
  139.9550   70.9650  223.9010 C   0  0  0  0  0  0  0  0  0  0  0  0
  140.6630   71.8880  224.6290 C   0  0  0  0  0  0  0  0  0  0  0  0
  141.0580   71.6330  225.9360 C   0  0  0  0  0  0  0  0  0  0  0  0
  140.7090   70.4060  226.4790 C   0  0  0  0  0  0  0  0  0  0  0  0
  141.0590   70.0630  227.7710 C   0  0  0  0  0  0  0  0  0  0  0  0
  140.7020   68.8400  228.2920 C   0  0  0  0  0  0  0  0  0  0  0  0
  139.9820   67.9050  227.5470 C   0  0  0  0  0  0  0  0  0  0  0  0
  139.6270   68.2430  226.2530 C   0  0  0  0  0  0  0  0  0  0  0  0
  139.9940   69.4750  225.7450 C   0  0  0  0  0  0  0  0  0  0  0  0
  139.6380   69.7750  224.4890 N   0  0  0  0  0  0  0  0  0  0  0  0
  138.1360   72.7550  223.1590 H   0  0  0  0  0  0  0  0  0  0  0  0
  138.1565   71.6869  220.3416 H   0  0  0  0  0  0  0  0  0  0  0  0
  137.1143   73.0119  220.9969 H   0  0  0  0  0  0  0  0  0  0  0  0
  137.5755   75.3160  221.9569 H   0  0  0  0  0  0  0  0  0  0  0  0
  138.7532   74.6384  223.0670 H   0  0  0  0  0  0  0  0  0  0  0  0
  138.6611   77.4315  221.8054 H   0  0  0  0  0  0  0  0  0  0  0  0
  139.0728   77.0473  223.4533 H   0  0  0  0  0  0  0  0  0  0  0  0
  141.0658   77.5150  221.7494 H   0  0  0  0  0  0  0  0  0  0  0  0
  141.2642   76.1009  222.7623 H   0  0  0  0  0  0  0  0  0  0  0  0
  140.2921   76.1844  219.7979 H   0  0  0  0  0  0  0  0  0  0  0  0
  141.1042   73.1866  221.3763 H   0  0  0  0  0  0  0  0  0  0  0  0
  143.2558   71.9844  221.1552 H   0  0  0  0  0  0  0  0  0  0  0  0
  145.0174   75.5655  219.5202 H   0  0  0  0  0  0  0  0  0  0  0  0
  142.8492   76.7467  219.7522 H   0  0  0  0  0  0  0  0  0  0  0  0
  140.9236   72.8517  224.1670 H   0  0  0  0  0  0  0  0  0  0  0  0
  141.6251   72.3750  226.5171 H   0  0  0  0  0  0  0  0  0  0  0  0
  141.6279   70.7736  228.3886 H   0  0  0  0  0  0  0  0  0  0  0  0
  140.9921   68.5928  229.3239 H   0  0  0  0  0  0  0  0  0  0  0  0
  139.7054   66.9301  227.9749 H   0  0  0  0  0  0  0  0  0  0  0  0
  139.0565   67.5360  225.6328 H   0  0  0  0  0  0  0  0  0  0  0  0
  1  2  2  0
  2  3  1  0
  3  4  1  0
  4  5  1  0
  5  6  2  0
  5  7  1  0
  7  8  1  0
  8  9  1  0
  9 10  1  0
 10 11  1  0
 11 12  1  0
 12 13  2  0
 13 14  1  0
 14 15  2  0
 15 16  1  0
 16 17  1  0
 16 18  1  0
 16 19  1  0
 15 20  1  0
 20 21  2  0
  2 22  1  0
 22 23  2  0
 23 24  1  0
 24 25  2  0
 25 26  1  0
 26 27  2  0
 27 28  1  0
 28 29  2  0
 29 30  1  0
 30 31  2  0
 11  7  1  0
 21 12  1  0
 31 22  1  0
 30 25  1  0
  3 32  1  0
  4 33  1  0
  4 34  1  0
  8 35  1  0
  8 36  1  0
  9 37  1  0
  9 38  1  0
 10 39  1  0
 10 40  1  0
 11 41  1  6
 13 42  1  0
 14 43  1  0
 20 44  1  0
 21 45  1  0
 23 46  1  0
 24 47  1  0
 26 48  1  0
 27 49  1  0
 28 50  1  0
 29 51  1  0
M  END
>  <smiles>  (76) 
O=C(NCC(=O)N1CCCC1c1ccc(C(F)(F)F)cc1)c1ccc2ccccc2n1

>  <score_type>  (76) 
oracle

>  <origin>  (76) 
autodockgpu

>  <m_score__min__energy>  (76) 
-8.6199999999999992

>  <m_primary>  (76) 
energy

>  <rmsd>  (76) 
3.230667752693664

>  <m_score__min__rmsd>  (76) 
3.230667752693664

>  <meeko>  (76) 
{"free_energy": -8.02, "intermolecular_energy": -9.81, "internal_energy": -1.69, "cluster_size": 12, "cluster_id": 4, "rank_in_cluster": 11}

>  <energy>  (76) 
-7.93

>  <cluster_rmsd>  (76) 
0.51

>  <cluster>  (76) 
3

$$$$

     RDKit          3D

 51 54  0  0  0  0  0  0  0  0999 V2000
  140.8500   71.6090  221.3080 O   0  0  0  0  0  0  0  0  0  0  0  0
  140.3800   72.1220  222.3640 C   0  0  0  0  0  0  0  0  0  0  0  0
  139.9550   73.4870  222.3400 N   0  0  0  0  0  0  0  0  0  0  0  0
  140.0690   74.2640  221.1060 C   0  0  0  0  0  0  0  0  0  0  0  0
  140.2970   75.7000  221.3980 C   0  0  0  0  0  0  0  0  0  0  0  0
  139.8300   76.2400  222.4570 O   0  0  0  0  0  0  0  0  0  0  0  0
  141.0350   76.5670  220.5400 N   0  0  0  0  0  0  0  0  0  0  0  0
  141.1070   78.0140  220.8440 C   0  0  0  0  0  0  0  0  0  0  0  0
  141.7030   78.6140  219.5830 C   0  0  0  0  0  0  0  0  0  0  0  0
  142.5950   77.5040  219.1130 C   0  0  0  0  0  0  0  0  0  0  0  0
  141.7610   76.2710  219.3610 C   0  0  1  0  0  0  0  0  0  0  0  0
  142.7190   75.1450  219.4490 C   0  0  0  0  0  0  0  0  0  0  0  0
  142.3580   73.9340  218.8770 C   0  0  0  0  0  0  0  0  0  0  0  0
  143.1810   72.8290  218.9080 C   0  0  0  0  0  0  0  0  0  0  0  0
  144.4140   72.9470  219.5380 C   0  0  0  0  0  0  0  0  0  0  0  0
  145.2720   71.7350  219.5500 C   0  0  0  0  0  0  0  0  0  0  0  0
  146.3770   72.0650  220.3290 F   0  0  0  0  0  0  0  0  0  0  0  0
  145.7730   71.5250  218.2730 F   0  0  0  0  0  0  0  0  0  0  0  0
  144.6220   70.6220  220.0120 F   0  0  0  0  0  0  0  0  0  0  0  0
  144.7950   74.1420  220.1150 C   0  0  0  0  0  0  0  0  0  0  0  0
  143.9490   75.2370  220.0690 C   0  0  0  0  0  0  0  0  0  0  0  0
  140.2530   71.3750  223.6120 C   0  0  0  0  0  0  0  0  0  0  0  0
  139.6700   70.1330  223.6080 C   0  0  0  0  0  0  0  0  0  0  0  0
  139.5330   69.3920  224.7750 C   0  0  0  0  0  0  0  0  0  0  0  0
  140.0080   69.9590  225.9490 C   0  0  0  0  0  0  0  0  0  0  0  0
  139.9140   69.2970  227.1580 C   0  0  0  0  0  0  0  0  0  0  0  0
  140.3930   69.8770  228.3110 C   0  0  0  0  0  0  0  0  0  0  0  0
  140.9840   71.1400  228.3090 C   0  0  0  0  0  0  0  0  0  0  0  0
  141.0820   71.8080  227.1010 C   0  0  0  0  0  0  0  0  0  0  0  0
  140.5960   71.2120  225.9520 C   0  0  0  0  0  0  0  0  0  0  0  0
  140.7030   71.8810  224.7970 N   0  0  0  0  0  0  0  0  0  0  0  0
  139.5630   73.9120  223.2260 H   0  0  0  0  0  0  0  0  0  0  0  0
  140.9136   73.8789  220.5158 H   0  0  0  0  0  0  0  0  0  0  0  0
  139.1284   74.1670  220.5441 H   0  0  0  0  0  0  0  0  0  0  0  0
  140.1054   78.4247  221.0390 H   0  0  0  0  0  0  0  0  0  0  0  0
  141.7008   78.2329  221.7437 H   0  0  0  0  0  0  0  0  0  0  0  0
  140.9241   78.8443  218.8412 H   0  0  0  0  0  0  0  0  0  0  0  0
  142.2245   79.5688  219.7451 H   0  0  0  0  0  0  0  0  0  0  0  0
  142.8321   77.6127  218.0444 H   0  0  0  0  0  0  0  0  0  0  0  0
  143.5668   77.4810  219.6278 H   0  0  0  0  0  0  0  0  0  0  0  0
  141.0314   75.9886  218.5878 H   0  0  0  0  0  0  0  0  0  0  0  0
  141.3797   73.8527  218.3808 H   0  0  0  0  0  0  0  0  0  0  0  0
  142.8705   71.8799  218.4468 H   0  0  0  0  0  0  0  0  0  0  0  0
  145.7727   74.2243  220.6123 H   0  0  0  0  0  0  0  0  0  0  0  0
  144.2590   76.1866  220.5295 H   0  0  0  0  0  0  0  0  0  0  0  0
  139.3028   69.7146  222.6593 H   0  0  0  0  0  0  0  0  0  0  0  0
  139.0667   68.3957  224.7686 H   0  0  0  0  0  0  0  0  0  0  0  0
  139.4530   68.2991  227.1996 H   0  0  0  0  0  0  0  0  0  0  0  0
  140.3071   69.3286  229.2607 H   0  0  0  0  0  0  0  0  0  0  0  0
  141.3606   71.5913  229.2388 H   0  0  0  0  0  0  0  0  0  0  0  0
  141.5431   72.8056  227.0553 H   0  0  0  0  0  0  0  0  0  0  0  0
  1  2  2  0
  2  3  1  0
  3  4  1  0
  4  5  1  0
  5  6  2  0
  5  7  1  0
  7  8  1  0
  8  9  1  0
  9 10  1  0
 10 11  1  0
 11 12  1  0
 12 13  2  0
 13 14  1  0
 14 15  2  0
 15 16  1  0
 16 17  1  0
 16 18  1  0
 16 19  1  0
 15 20  1  0
 20 21  2  0
  2 22  1  0
 22 23  2  0
 23 24  1  0
 24 25  2  0
 25 26  1  0
 26 27  2  0
 27 28  1  0
 28 29  2  0
 29 30  1  0
 30 31  2  0
 11  7  1  0
 21 12  1  0
 31 22  1  0
 30 25  1  0
  3 32  1  0
  4 33  1  0
  4 34  1  0
  8 35  1  0
  8 36  1  0
  9 37  1  0
  9 38  1  0
 10 39  1  0
 10 40  1  0
 11 41  1  6
 13 42  1  0
 14 43  1  0
 20 44  1  0
 21 45  1  0
 23 46  1  0
 24 47  1  0
 26 48  1  0
 27 49  1  0
 28 50  1  0
 29 51  1  0
M  END
>  <smiles>  (77) 
O=C(NCC(=O)N1CCCC1c1ccc(C(F)(F)F)cc1)c1ccc2ccccc2n1

>  <score_type>  (77) 
oracle

>  <origin>  (77) 
autodockgpu

>  <m_score__min__energy>  (77) 
-8.6199999999999992

>  <m_primary>  (77) 
energy

>  <rmsd>  (77) 
2.2714206152185685

>  <m_score__min__rmsd>  (77) 
2.2714206152185685

>  <meeko>  (77) 
{"free_energy": -8.11, "intermolecular_energy": -9.9, "internal_energy": -1.9, "cluster_size": 12, "cluster_id": 4, "rank_in_cluster": 5}

>  <energy>  (77) 
-8.21

>  <cluster_rmsd>  (77) 
0.0

>  <cluster>  (77) 
4

$$$$

     RDKit          3D

 51 54  0  0  0  0  0  0  0  0999 V2000
  140.9910   72.2790  221.6310 O   0  0  0  0  0  0  0  0  0  0  0  0
  140.0720   72.3270  222.4990 C   0  0  0  0  0  0  0  0  0  0  0  0
  139.0100   73.2690  222.3310 N   0  0  0  0  0  0  0  0  0  0  0  0
  138.9990   74.1560  221.1680 C   0  0  0  0  0  0  0  0  0  0  0  0
  140.0080   75.2330  221.3080 C   0  0  0  0  0  0  0  0  0  0  0  0
  139.9360   76.0840  222.2580 O   0  0  0  0  0  0  0  0  0  0  0  0
  141.1080   75.3980  220.4160 N   0  0  0  0  0  0  0  0  0  0  0  0
  141.2250   74.5250  219.2250 C   0  0  0  0  0  0  0  0  0  0  0  0
  142.6290   74.7990  218.7180 C   0  0  0  0  0  0  0  0  0  0  0  0
  142.8100   76.2390  219.0960 C   0  0  0  0  0  0  0  0  0  0  0  0
  142.1880   76.3100  220.4700 C   0  0  1  0  0  0  0  0  0  0  0  0
  141.8330   77.7330  220.6810 C   0  0  0  0  0  0  0  0  0  0  0  0
  141.5650   78.5110  219.5640 C   0  0  0  0  0  0  0  0  0  0  0  0
  141.2270   79.8440  219.6580 C   0  0  0  0  0  0  0  0  0  0  0  0
  141.1540   80.4140  220.9230 C   0  0  0  0  0  0  0  0  0  0  0  0
  140.7860   81.8510  220.9830 C   0  0  0  0  0  0  0  0  0  0  0  0
  141.2190   82.4000  219.7800 F   0  0  0  0  0  0  0  0  0  0  0  0
  141.5480   82.4710  221.9640 F   0  0  0  0  0  0  0  0  0  0  0  0
  139.4490   82.0550  221.1990 F   0  0  0  0  0  0  0  0  0  0  0  0
  141.4160   79.6590  222.0490 C   0  0  0  0  0  0  0  0  0  0  0  0
  141.7540   78.3220  221.9260 C   0  0  0  0  0  0  0  0  0  0  0  0
  140.0520   71.4570  223.6710 C   0  0  0  0  0  0  0  0  0  0  0  0
  139.5500   70.1840  223.5680 C   0  0  0  0  0  0  0  0  0  0  0  0
  139.5150   69.3260  224.6610 C   0  0  0  0  0  0  0  0  0  0  0  0
  140.0090   69.8090  225.8640 C   0  0  0  0  0  0  0  0  0  0  0  0
  140.0150   69.0290  227.0050 C   0  0  0  0  0  0  0  0  0  0  0  0
  140.5110   69.5260  228.1890 C   0  0  0  0  0  0  0  0  0  0  0  0
  141.0200   70.8210  228.2880 C   0  0  0  0  0  0  0  0  0  0  0  0
  141.0170   71.6070  227.1480 C   0  0  0  0  0  0  0  0  0  0  0  0
  140.5160   71.0930  225.9670 C   0  0  0  0  0  0  0  0  0  0  0  0
  140.5250   71.8760  224.8810 N   0  0  0  0  0  0  0  0  0  0  0  0
  138.2430   73.3050  223.0600 H   0  0  0  0  0  0  0  0  0  0  0  0
  139.2239   73.5682  220.2658 H   0  0  0  0  0  0  0  0  0  0  0  0
  138.0037   74.6179  221.0906 H   0  0  0  0  0  0  0  0  0  0  0  0
  141.1066   73.4667  219.5007 H   0  0  0  0  0  0  0  0  0  0  0  0
  140.4510   74.7265  218.4698 H   0  0  0  0  0  0  0  0  0  0  0  0
  143.3689   74.1566  219.2180 H   0  0  0  0  0  0  0  0  0  0  0  0
  142.7649   74.5973  217.6452 H   0  0  0  0  0  0  0  0  0  0  0  0
  143.8761   76.5078  219.1302 H   0  0  0  0  0  0  0  0  0  0  0  0
  142.3547   76.9364  218.3774 H   0  0  0  0  0  0  0  0  0  0  0  0
  142.8164   76.0244  221.3265 H   0  0  0  0  0  0  0  0  0  0  0  0
  141.6244   78.0477  218.5681 H   0  0  0  0  0  0  0  0  0  0  0  0
  141.0208   80.4399  218.7567 H   0  0  0  0  0  0  0  0  0  0  0  0
  141.3561   80.1206  223.0456 H   0  0  0  0  0  0  0  0  0  0  0  0
  141.9609   77.7256  222.8268 H   0  0  0  0  0  0  0  0  0  0  0  0
  139.1665   69.8345  222.5981 H   0  0  0  0  0  0  0  0  0  0  0  0
  139.1122   68.3060  224.5756 H   0  0  0  0  0  0  0  0  0  0  0  0
  139.6203   68.0030  226.9667 H   0  0  0  0  0  0  0  0  0  0  0  0
  140.5058   68.8839  229.0822 H   0  0  0  0  0  0  0  0  0  0  0  0
  141.4113   71.2056  229.2414 H   0  0  0  0  0  0  0  0  0  0  0  0
  141.4107   72.6336  227.1822 H   0  0  0  0  0  0  0  0  0  0  0  0
  1  2  2  0
  2  3  1  0
  3  4  1  0
  4  5  1  0
  5  6  2  0
  5  7  1  0
  7  8  1  0
  8  9  1  0
  9 10  1  0
 10 11  1  0
 11 12  1  0
 12 13  2  0
 13 14  1  0
 14 15  2  0
 15 16  1  0
 16 17  1  0
 16 18  1  0
 16 19  1  0
 15 20  1  0
 20 21  2  0
  2 22  1  0
 22 23  2  0
 23 24  1  0
 24 25  2  0
 25 26  1  0
 26 27  2  0
 27 28  1  0
 28 29  2  0
 29 30  1  0
 30 31  2  0
 11  7  1  0
 21 12  1  0
 31 22  1  0
 30 25  1  0
  3 32  1  0
  4 33  1  0
  4 34  1  0
  8 35  1  0
  8 36  1  0
  9 37  1  0
  9 38  1  0
 10 39  1  0
 10 40  1  0
 11 41  1  1
 13 42  1  0
 14 43  1  0
 20 44  1  0
 21 45  1  0
 23 46  1  0
 24 47  1  0
 26 48  1  0
 27 49  1  0
 28 50  1  0
 29 51  1  0
M  END
>  <smiles>  (78) 
O=C(NCC(=O)N1CCCC1c1ccc(C(F)(F)F)cc1)c1ccc2ccccc2n1

>  <score_type>  (78) 
oracle

>  <origin>  (78) 
autodockgpu

>  <m_score__min__energy>  (78) 
-8.6199999999999992

>  <m_primary>  (78) 
energy

>  <rmsd>  (78) 
1.6777565587238439

>  <m_score__min__rmsd>  (78) 
1.6777565587238439

>  <meeko>  (78) 
{"free_energy": -7.94, "intermolecular_energy": -9.73, "internal_energy": -1.43, "cluster_size": 9, "cluster_id": 3, "rank_in_cluster": 8}

>  <energy>  (78) 
-8.2

>  <cluster_rmsd>  (78) 
0.05

>  <cluster>  (78) 
4

$$$$

     RDKit          3D

 51 54  0  0  0  0  0  0  0  0999 V2000
  141.0030   72.8140  222.6050 O   0  0  0  0  0  0  0  0  0  0  0  0
  139.9280   72.2580  222.9730 C   0  0  0  0  0  0  0  0  0  0  0  0
  138.6940   72.6840  222.3880 N   0  0  0  0  0  0  0  0  0  0  0  0
  138.6920   73.7460  221.3830 C   0  0  0  0  0  0  0  0  0  0  0  0
  139.0060   75.0600  221.9940 C   0  0  0  0  0  0  0  0  0  0  0  0
  140.2020   75.3640  222.3250 O   0  0  0  0  0  0  0  0  0  0  0  0
  138.0230   76.0590  222.2550 N   0  0  0  0  0  0  0  0  0  0  0  0
  136.8090   75.7090  223.0270 C   0  0  0  0  0  0  0  0  0  0  0  0
  135.9050   76.9130  222.8360 C   0  0  0  0  0  0  0  0  0  0  0  0
  136.9040   78.0260  222.7270 C   0  0  0  0  0  0  0  0  0  0  0  0
  137.9940   77.4220  221.8760 C   0  0  1  0  0  0  0  0  0  0  0  0
  139.2170   78.2060  222.1660 C   0  0  0  0  0  0  0  0  0  0  0  0
  139.2780   78.9010  223.3650 C   0  0  0  0  0  0  0  0  0  0  0  0
  140.3720   79.6590  223.7230 C   0  0  0  0  0  0  0  0  0  0  0  0
  141.4450   79.7180  222.8420 C   0  0  0  0  0  0  0  0  0  0  0  0
  142.6040   80.5450  223.2650 C   0  0  0  0  0  0  0  0  0  0  0  0
  142.8500   80.1970  224.5890 F   0  0  0  0  0  0  0  0  0  0  0  0
  142.2180   81.8780  223.3000 F   0  0  0  0  0  0  0  0  0  0  0  0
  143.7040   80.3740  222.4670 F   0  0  0  0  0  0  0  0  0  0  0  0
  141.4070   79.0360  221.6440 C   0  0  0  0  0  0  0  0  0  0  0  0
  140.2960   78.2820  221.3080 C   0  0  0  0  0  0  0  0  0  0  0  0
  139.8950   71.1950  223.9720 C   0  0  0  0  0  0  0  0  0  0  0  0
  139.2840   70.0020  223.6810 C   0  0  0  0  0  0  0  0  0  0  0  0
  139.2330   68.9660  224.6070 C   0  0  0  0  0  0  0  0  0  0  0  0
  139.8260   69.1870  225.8420 C   0  0  0  0  0  0  0  0  0  0  0  0
  139.8250   68.2170  226.8250 C   0  0  0  0  0  0  0  0  0  0  0  0
  140.4200   68.4560  228.0440 C   0  0  0  0  0  0  0  0  0  0  0  0
  141.0400   69.6710  228.3340 C   0  0  0  0  0  0  0  0  0  0  0  0
  141.0450   70.6470  227.3520 C   0  0  0  0  0  0  0  0  0  0  0  0
  140.4430   70.3910  226.1350 C   0  0  0  0  0  0  0  0  0  0  0  0
  140.4620   71.3540  225.2040 N   0  0  0  0  0  0  0  0  0  0  0  0
  137.7980   72.2150  222.6990 H   0  0  0  0  0  0  0  0  0  0  0  0
  139.4469   73.5167  220.6165 H   0  0  0  0  0  0  0  0  0  0  0  0
  137.6892   73.8002  220.9341 H   0  0  0  0  0  0  0  0  0  0  0  0
  136.3391   74.7979  222.6282 H   0  0  0  0  0  0  0  0  0  0  0  0
  137.0217   75.4979  224.0854 H   0  0  0  0  0  0  0  0  0  0  0  0
  135.3038   76.8221  221.9193 H   0  0  0  0  0  0  0  0  0  0  0  0
  135.1675   77.0509  223.6404 H   0  0  0  0  0  0  0  0  0  0  0  0
  136.4627   78.9068  222.2376 H   0  0  0  0  0  0  0  0  0  0  0  0
  137.2639   78.3825  223.7034 H   0  0  0  0  0  0  0  0  0  0  0  0
  137.8626   77.4578  220.7845 H   0  0  0  0  0  0  0  0  0  0  0  0
  138.4228   78.8451  224.0546 H   0  0  0  0  0  0  0  0  0  0  0  0
  140.3951   80.2020  224.6793 H   0  0  0  0  0  0  0  0  0  0  0  0
  142.2617   79.0914  220.9538 H   0  0  0  0  0  0  0  0  0  0  0  0
  140.2726   77.7398  220.3512 H   0  0  0  0  0  0  0  0  0  0  0  0
  138.8236   69.8615  222.6919 H   0  0  0  0  0  0  0  0  0  0  0  0
  138.7426   68.0102  224.3703 H   0  0  0  0  0  0  0  0  0  0  0  0
  139.3453   67.2459  226.6329 H   0  0  0  0  0  0  0  0  0  0  0  0
  140.4057   67.6666  228.8100 H   0  0  0  0  0  0  0  0  0  0  0  0
  141.5104   69.8484  229.3124 H   0  0  0  0  0  0  0  0  0  0  0  0
  141.5247   71.6190  227.5393 H   0  0  0  0  0  0  0  0  0  0  0  0
  1  2  2  0
  2  3  1  0
  3  4  1  0
  4  5  1  0
  5  6  2  0
  5  7  1  0
  7  8  1  0
  8  9  1  0
  9 10  1  0
 10 11  1  0
 11 12  1  0
 12 13  2  0
 13 14  1  0
 14 15  2  0
 15 16  1  0
 16 17  1  0
 16 18  1  0
 16 19  1  0
 15 20  1  0
 20 21  2  0
  2 22  1  0
 22 23  2  0
 23 24  1  0
 24 25  2  0
 25 26  1  0
 26 27  2  0
 27 28  1  0
 28 29  2  0
 29 30  1  0
 30 31  2  0
 11  7  1  0
 21 12  1  0
 31 22  1  0
 30 25  1  0
  3 32  1  0
  4 33  1  0
  4 34  1  0
  8 35  1  0
  8 36  1  0
  9 37  1  0
  9 38  1  0
 10 39  1  0
 10 40  1  0
 11 41  1  6
 13 42  1  0
 14 43  1  0
 20 44  1  0
 21 45  1  0
 23 46  1  0
 24 47  1  0
 26 48  1  0
 27 49  1  0
 28 50  1  0
 29 51  1  0
M  END
>  <smiles>  (79) 
O=C(NCC(=O)N1CCCC1c1ccc(C(F)(F)F)cc1)c1ccc2ccccc2n1

>  <score_type>  (79) 
oracle

>  <origin>  (79) 
autodockgpu

>  <m_score__min__energy>  (79) 
-8.6199999999999992

>  <m_primary>  (79) 
energy

>  <rmsd>  (79) 
3.2310550147010972

>  <m_score__min__rmsd>  (79) 
3.2310550147010972

>  <meeko>  (79) 
{"free_energy": -8.57, "intermolecular_energy": -10.35, "internal_energy": -1.29, "cluster_size": 15, "cluster_id": 1, "rank_in_cluster": 4}

>  <energy>  (79) 
-8.16

>  <cluster_rmsd>  (79) 
0.29

>  <cluster>  (79) 
4

$$$$

     RDKit          3D

 51 54  0  0  0  0  0  0  0  0999 V2000
  141.3510   72.0700  221.5620 O   0  0  0  0  0  0  0  0  0  0  0  0
  140.4950   72.3450  222.4510 C   0  0  0  0  0  0  0  0  0  0  0  0
  139.6900   73.5170  222.2970 N   0  0  0  0  0  0  0  0  0  0  0  0
  139.8650   74.3730  221.1240 C   0  0  0  0  0  0  0  0  0  0  0  0
  140.5610   75.6320  221.4820 C   0  0  0  0  0  0  0  0  0  0  0  0
  140.5800   76.0550  222.6870 O   0  0  0  0  0  0  0  0  0  0  0  0
  141.2420   76.4480  220.5320 N   0  0  0  0  0  0  0  0  0  0  0  0
  141.3610   77.9060  220.7670 C   0  0  0  0  0  0  0  0  0  0  0  0
  141.8640   78.4420  219.4390 C   0  0  0  0  0  0  0  0  0  0  0  0
  142.6980   77.2960  218.9470 C   0  0  0  0  0  0  0  0  0  0  0  0
  141.8670   76.0900  219.3140 C   0  0  1  0  0  0  0  0  0  0  0  0
  142.8110   74.9500  219.3740 C   0  0  0  0  0  0  0  0  0  0  0  0
  142.5030   73.8080  218.6490 C   0  0  0  0  0  0  0  0  0  0  0  0
  143.3180   72.6970  218.6420 C   0  0  0  0  0  0  0  0  0  0  0  0
  144.4870   72.7370  219.3920 C   0  0  0  0  0  0  0  0  0  0  0  0
  145.3380   71.5200  219.3590 C   0  0  0  0  0  0  0  0  0  0  0  0
  146.4600   71.8260  220.1230 F   0  0  0  0  0  0  0  0  0  0  0  0
  145.8110   71.3370  218.0670 F   0  0  0  0  0  0  0  0  0  0  0  0
  144.6910   70.3990  219.8080 F   0  0  0  0  0  0  0  0  0  0  0  0
  144.8140   73.8610  220.1220 C   0  0  0  0  0  0  0  0  0  0  0  0
  143.9780   74.9640  220.1110 C   0  0  0  0  0  0  0  0  0  0  0  0
  140.2940   71.5130  223.6330 C   0  0  0  0  0  0  0  0  0  0  0  0
  139.6400   70.3120  223.5200 C   0  0  0  0  0  0  0  0  0  0  0  0
  139.4310   69.4920  224.6230 C   0  0  0  0  0  0  0  0  0  0  0  0
  139.9100   69.9360  225.8460 C   0  0  0  0  0  0  0  0  0  0  0  0
  139.7480   69.1900  226.9970 C   0  0  0  0  0  0  0  0  0  0  0  0
  140.2310   69.6490  228.2020 C   0  0  0  0  0  0  0  0  0  0  0  0
  140.8950   70.8710  228.3110 C   0  0  0  0  0  0  0  0  0  0  0  0
  141.0610   71.6220  227.1610 C   0  0  0  0  0  0  0  0  0  0  0  0
  140.5690   71.1480  225.9600 C   0  0  0  0  0  0  0  0  0  0  0  0
  140.7440   71.8970  224.8640 N   0  0  0  0  0  0  0  0  0  0  0  0
  138.9740   73.7430  223.0440 H   0  0  0  0  0  0  0  0  0  0  0  0
  140.4603   73.8346  220.3718 H   0  0  0  0  0  0  0  0  0  0  0  0
  138.8719   74.6242  220.7231 H   0  0  0  0  0  0  0  0  0  0  0  0
  140.3847   78.3435  221.0226 H   0  0  0  0  0  0  0  0  0  0  0  0
  142.0281   78.1504  221.6067 H   0  0  0  0  0  0  0  0  0  0  0  0
  141.0322   78.6570  218.7520 H   0  0  0  0  0  0  0  0  0  0  0  0
  142.4123   79.3923  219.5189 H   0  0  0  0  0  0  0  0  0  0  0  0
  142.8496   77.3556  217.8591 H   0  0  0  0  0  0  0  0  0  0  0  0
  143.7078   77.2759  219.3828 H   0  0  0  0  0  0  0  0  0  0  0  0
  141.0735   75.7898  218.6138 H   0  0  0  0  0  0  0  0  0  0  0  0
  141.5750   73.7888  218.0587 H   0  0  0  0  0  0  0  0  0  0  0  0
  143.0506   71.8034  218.0590 H   0  0  0  0  0  0  0  0  0  0  0  0
  145.7409   73.8806  220.7139 H   0  0  0  0  0  0  0  0  0  0  0  0
  144.2454   75.8579  220.6936 H   0  0  0  0  0  0  0  0  0  0  0  0
  139.2727   69.9907  222.5342 H   0  0  0  0  0  0  0  0  0  0  0  0
  138.9067   68.5296  224.5292 H   0  0  0  0  0  0  0  0  0  0  0  0
  139.2289   68.2213  226.9507 H   0  0  0  0  0  0  0  0  0  0  0  0
  140.0893   69.0351  229.1037 H   0  0  0  0  0  0  0  0  0  0  0  0
  141.2745   71.2262  229.2805 H   0  0  0  0  0  0  0  0  0  0  0  0
  141.5813   72.5903  227.2025 H   0  0  0  0  0  0  0  0  0  0  0  0
  1  2  2  0
  2  3  1  0
  3  4  1  0
  4  5  1  0
  5  6  2  0
  5  7  1  0
  7  8  1  0
  8  9  1  0
  9 10  1  0
 10 11  1  0
 11 12  1  0
 12 13  2  0
 13 14  1  0
 14 15  2  0
 15 16  1  0
 16 17  1  0
 16 18  1  0
 16 19  1  0
 15 20  1  0
 20 21  2  0
  2 22  1  0
 22 23  2  0
 23 24  1  0
 24 25  2  0
 25 26  1  0
 26 27  2  0
 27 28  1  0
 28 29  2  0
 29 30  1  0
 30 31  2  0
 11  7  1  0
 21 12  1  0
 31 22  1  0
 30 25  1  0
  3 32  1  0
  4 33  1  0
  4 34  1  0
  8 35  1  0
  8 36  1  0
  9 37  1  0
  9 38  1  0
 10 39  1  0
 10 40  1  0
 11 41  1  6
 13 42  1  0
 14 43  1  0
 20 44  1  0
 21 45  1  0
 23 46  1  0
 24 47  1  0
 26 48  1  0
 27 49  1  0
 28 50  1  0
 29 51  1  0
M  END
>  <smiles>  (80) 
O=C(NCC(=O)N1CCCC1c1ccc(C(F)(F)F)cc1)c1ccc2ccccc2n1

>  <score_type>  (80) 
oracle

>  <origin>  (80) 
autodockgpu

>  <m_score__min__energy>  (80) 
-8.6199999999999992

>  <m_primary>  (80) 
energy

>  <rmsd>  (80) 
2.2679733732530605

>  <m_score__min__rmsd>  (80) 
2.2679733732530605

>  <meeko>  (80) 
{"free_energy": -8.16, "intermolecular_energy": -9.95, "internal_energy": -1.76, "cluster_size": 12, "cluster_id": 4, "rank_in_cluster": 3}

>  <energy>  (80) 
-8.13

>  <cluster_rmsd>  (80) 
0.12

>  <cluster>  (80) 
4

$$$$

     RDKit          3D

 51 54  0  0  0  0  0  0  0  0999 V2000
  140.4150   71.9720  221.4990 O   0  0  0  0  0  0  0  0  0  0  0  0
  139.6050   72.0620  222.4660 C   0  0  0  0  0  0  0  0  0  0  0  0
  138.4840   72.9420  222.3500 N   0  0  0  0  0  0  0  0  0  0  0  0
  138.2900   73.7170  221.1250 C   0  0  0  0  0  0  0  0  0  0  0  0
  139.1330   74.9370  221.1260 C   0  0  0  0  0  0  0  0  0  0  0  0
  138.6860   76.0470  221.5720 O   0  0  0  0  0  0  0  0  0  0  0  0
  140.4730   74.9640  220.6390 N   0  0  0  0  0  0  0  0  0  0  0  0
  140.8250   74.2080  219.4150 C   0  0  0  0  0  0  0  0  0  0  0  0
  142.3420   74.2410  219.3990 C   0  0  0  0  0  0  0  0  0  0  0  0
  142.6220   75.5700  220.0360 C   0  0  0  0  0  0  0  0  0  0  0  0
  141.6100   75.6290  221.1560 C   0  0  1  0  0  0  0  0  0  0  0  0
  141.4400   77.0660  221.4730 C   0  0  0  0  0  0  0  0  0  0  0  0
  141.0930   77.4110  222.7710 C   0  0  0  0  0  0  0  0  0  0  0  0
  140.9110   78.7200  223.1620 C   0  0  0  0  0  0  0  0  0  0  0  0
  141.0860   79.7190  222.2110 C   0  0  0  0  0  0  0  0  0  0  0  0
  140.8810   81.1160  222.6720 C   0  0  0  0  0  0  0  0  0  0  0  0
  141.5880   81.2250  223.8650 F   0  0  0  0  0  0  0  0  0  0  0  0
  139.5470   81.2850  223.0180 F   0  0  0  0  0  0  0  0  0  0  0  0
  141.2690   82.0480  221.7470 F   0  0  0  0  0  0  0  0  0  0  0  0
  141.4300   79.3990  220.9140 C   0  0  0  0  0  0  0  0  0  0  0  0
  141.6070   78.0760  220.5470 C   0  0  0  0  0  0  0  0  0  0  0  0
  139.7690   71.3020  223.7020 C   0  0  0  0  0  0  0  0  0  0  0  0
  139.3990   69.9820  223.7470 C   0  0  0  0  0  0  0  0  0  0  0  0
  139.5410   69.2270  224.9050 C   0  0  0  0  0  0  0  0  0  0  0  0
  140.0730   69.8620  226.0170 C   0  0  0  0  0  0  0  0  0  0  0  0
  140.2510   69.1920  227.2120 C   0  0  0  0  0  0  0  0  0  0  0  0
  140.7820   69.8400  228.3050 C   0  0  0  0  0  0  0  0  0  0  0  0
  141.1560   71.1830  228.2540 C   0  0  0  0  0  0  0  0  0  0  0  0
  140.9820   71.8590  227.0590 C   0  0  0  0  0  0  0  0  0  0  0  0
  140.4470   71.1930  225.9710 C   0  0  0  0  0  0  0  0  0  0  0  0
  140.2880   71.8730  224.8290 N   0  0  0  0  0  0  0  0  0  0  0  0
  137.8100   73.0140  223.1620 H   0  0  0  0  0  0  0  0  0  0  0  0
  138.5602   73.0943  220.2594 H   0  0  0  0  0  0  0  0  0  0  0  0
  137.2346   74.0216  221.0677 H   0  0  0  0  0  0  0  0  0  0  0  0
  140.4553   73.1736  219.4723 H   0  0  0  0  0  0  0  0  0  0  0  0
  140.3786   74.6358  218.5052 H   0  0  0  0  0  0  0  0  0  0  0  0
  142.7676   73.4157  219.9887 H   0  0  0  0  0  0  0  0  0  0  0  0
  142.7814   74.1235  218.3975 H   0  0  0  0  0  0  0  0  0  0  0  0
  143.6488   75.6121  220.4282 H   0  0  0  0  0  0  0  0  0  0  0  0
  142.5418   76.4131  219.3340 H   0  0  0  0  0  0  0  0  0  0  0  0
  141.8740   75.1390  222.1048 H   0  0  0  0  0  0  0  0  0  0  0  0
  140.9583   76.6116  223.5145 H   0  0  0  0  0  0  0  0  0  0  0  0
  140.6350   78.9675  224.1976 H   0  0  0  0  0  0  0  0  0  0  0  0
  141.5640   80.1974  220.1693 H   0  0  0  0  0  0  0  0  0  0  0  0
  141.8824   77.8281  219.5113 H   0  0  0  0  0  0  0  0  0  0  0  0
  138.9803   69.5102  222.8458 H   0  0  0  0  0  0  0  0  0  0  0  0
  139.2434   68.1685  224.9382 H   0  0  0  0  0  0  0  0  0  0  0  0
  139.9663   68.1324  227.2911 H   0  0  0  0  0  0  0  0  0  0  0  0
  140.9149   69.2832  229.2443 H   0  0  0  0  0  0  0  0  0  0  0  0
  141.5760   71.6888  229.1359 H   0  0  0  0  0  0  0  0  0  0  0  0
  141.2670   72.9181  226.9750 H   0  0  0  0  0  0  0  0  0  0  0  0
  1  2  2  0
  2  3  1  0
  3  4  1  0
  4  5  1  0
  5  6  2  0
  5  7  1  0
  7  8  1  0
  8  9  1  0
  9 10  1  0
 10 11  1  0
 11 12  1  0
 12 13  2  0
 13 14  1  0
 14 15  2  0
 15 16  1  0
 16 17  1  0
 16 18  1  0
 16 19  1  0
 15 20  1  0
 20 21  2  0
  2 22  1  0
 22 23  2  0
 23 24  1  0
 24 25  2  0
 25 26  1  0
 26 27  2  0
 27 28  1  0
 28 29  2  0
 29 30  1  0
 30 31  2  0
 11  7  1  0
 21 12  1  0
 31 22  1  0
 30 25  1  0
  3 32  1  0
  4 33  1  0
  4 34  1  0
  8 35  1  0
  8 36  1  0
  9 37  1  0
  9 38  1  0
 10 39  1  0
 10 40  1  0
 11 41  1  1
 13 42  1  0
 14 43  1  0
 20 44  1  0
 21 45  1  0
 23 46  1  0
 24 47  1  0
 26 48  1  0
 27 49  1  0
 28 50  1  0
 29 51  1  0
M  END
>  <smiles>  (81) 
O=C(NCC(=O)N1CCCC1c1ccc(C(F)(F)F)cc1)c1ccc2ccccc2n1

>  <score_type>  (81) 
oracle

>  <origin>  (81) 
autodockgpu

>  <m_score__min__energy>  (81) 
-8.6199999999999992

>  <m_primary>  (81) 
energy

>  <rmsd>  (81) 
1.7919531585630735

>  <m_score__min__rmsd>  (81) 
1.7919531585630735

>  <meeko>  (81) 
{"free_energy": -8.05, "intermolecular_energy": -9.84, "internal_energy": -1.58, "cluster_size": 15, "cluster_id": 1, "rank_in_cluster": 12}

>  <energy>  (81) 
-8.11

>  <cluster_rmsd>  (81) 
0.31

>  <cluster>  (81) 
4

$$$$

     RDKit          3D

 51 54  0  0  0  0  0  0  0  0999 V2000
  138.5010   70.2640  221.5260 O   0  0  0  0  0  0  0  0  0  0  0  0
  138.6840   70.9600  222.5660 C   0  0  0  0  0  0  0  0  0  0  0  0
  138.4010   72.3600  222.5200 N   0  0  0  0  0  0  0  0  0  0  0  0
  137.9090   72.9640  221.2820 C   0  0  0  0  0  0  0  0  0  0  0  0
  138.9770   73.7360  220.6030 C   0  0  0  0  0  0  0  0  0  0  0  0
  139.4810   73.3350  219.5000 O   0  0  0  0  0  0  0  0  0  0  0  0
  139.5130   74.9530  221.1170 N   0  0  0  0  0  0  0  0  0  0  0  0
  138.8290   75.6410  222.2370 C   0  0  0  0  0  0  0  0  0  0  0  0
  139.5070   76.9980  222.2890 C   0  0  0  0  0  0  0  0  0  0  0  0
  140.8970   76.6590  221.8400 C   0  0  0  0  0  0  0  0  0  0  0  0
  140.6610   75.6770  220.7180 C   0  0  1  0  0  0  0  0  0  0  0  0
  141.9140   74.8970  220.5900 C   0  0  0  0  0  0  0  0  0  0  0  0
  143.0220   75.5260  220.0420 C   0  0  0  0  0  0  0  0  0  0  0  0
  144.2310   74.8840  219.8820 C   0  0  0  0  0  0  0  0  0  0  0  0
  144.3280   73.5600  220.2900 C   0  0  0  0  0  0  0  0  0  0  0  0
  145.6470   72.9030  220.1020 C   0  0  0  0  0  0  0  0  0  0  0  0
  145.3740   71.5440  219.9720 F   0  0  0  0  0  0  0  0  0  0  0  0
  146.3800   73.0200  221.2750 F   0  0  0  0  0  0  0  0  0  0  0  0
  146.3460   73.3990  219.0340 F   0  0  0  0  0  0  0  0  0  0  0  0
  143.2400   72.9130  220.8390 C   0  0  0  0  0  0  0  0  0  0  0  0
  142.0370   73.5810  220.9880 C   0  0  0  0  0  0  0  0  0  0  0  0
  139.1730   70.3880  223.8170 C   0  0  0  0  0  0  0  0  0  0  0  0
  139.0950   69.0350  224.0270 C   0  0  0  0  0  0  0  0  0  0  0  0
  139.5510   68.4550  225.2050 C   0  0  0  0  0  0  0  0  0  0  0  0
  140.0900   69.3010  226.1640 C   0  0  0  0  0  0  0  0  0  0  0  0
  140.5680   68.8160  227.3660 C   0  0  0  0  0  0  0  0  0  0  0  0
  141.0990   69.6720  228.3040 C   0  0  0  0  0  0  0  0  0  0  0  0
  141.1750   71.0480  228.0850 C   0  0  0  0  0  0  0  0  0  0  0  0
  140.6990   71.5400  226.8830 C   0  0  0  0  0  0  0  0  0  0  0  0
  140.1680   70.6660  225.9510 C   0  0  0  0  0  0  0  0  0  0  0  0
  139.7140   71.1710  224.7970 N   0  0  0  0  0  0  0  0  0  0  0  0
  138.5550   72.9380  223.3940 H   0  0  0  0  0  0  0  0  0  0  0  0
  137.5579   72.1680  220.6089 H   0  0  0  0  0  0  0  0  0  0  0  0
  137.0866   73.6506  221.5313 H   0  0  0  0  0  0  0  0  0  0  0  0
  137.7530   75.7470  222.0345 H   0  0  0  0  0  0  0  0  0  0  0  0
  138.9022   75.0897  223.1861 H   0  0  0  0  0  0  0  0  0  0  0  0
  139.0272   77.7127  221.6042 H   0  0  0  0  0  0  0  0  0  0  0  0
  139.4615   77.4831  223.2752 H   0  0  0  0  0  0  0  0  0  0  0  0
  141.4248   77.5536  221.4780 H   0  0  0  0  0  0  0  0  0  0  0  0
  141.5263   76.2535  222.6460 H   0  0  0  0  0  0  0  0  0  0  0  0
  140.4581   76.0897  219.7187 H   0  0  0  0  0  0  0  0  0  0  0  0
  142.9326   76.5751  219.7236 H   0  0  0  0  0  0  0  0  0  0  0  0
  145.0946   75.4055  219.4436 H   0  0  0  0  0  0  0  0  0  0  0  0
  143.3289   71.8643  221.1589 H   0  0  0  0  0  0  0  0  0  0  0  0
  141.1733   73.0598  221.4265 H   0  0  0  0  0  0  0  0  0  0  0  0
  138.6616   68.3940  223.2452 H   0  0  0  0  0  0  0  0  0  0  0  0
  139.4872   67.3694  225.3704 H   0  0  0  0  0  0  0  0  0  0  0  0
  140.5239   67.7370  227.5752 H   0  0  0  0  0  0  0  0  0  0  0  0
  141.4738   69.2600  229.2525 H   0  0  0  0  0  0  0  0  0  0  0  0
  141.6002   71.7205  228.8446 H   0  0  0  0  0  0  0  0  0  0  0  0
  140.7423   72.6182  226.6696 H   0  0  0  0  0  0  0  0  0  0  0  0
  1  2  2  0
  2  3  1  0
  3  4  1  0
  4  5  1  0
  5  6  2  0
  5  7  1  0
  7  8  1  0
  8  9  1  0
  9 10  1  0
 10 11  1  0
 11 12  1  0
 12 13  2  0
 13 14  1  0
 14 15  2  0
 15 16  1  0
 16 17  1  0
 16 18  1  0
 16 19  1  0
 15 20  1  0
 20 21  2  0
  2 22  1  0
 22 23  2  0
 23 24  1  0
 24 25  2  0
 25 26  1  0
 26 27  2  0
 27 28  1  0
 28 29  2  0
 29 30  1  0
 30 31  2  0
 11  7  1  0
 21 12  1  0
 31 22  1  0
 30 25  1  0
  3 32  1  0
  4 33  1  0
  4 34  1  0
  8 35  1  0
  8 36  1  0
  9 37  1  0
  9 38  1  0
 10 39  1  0
 10 40  1  0
 11 41  1  6
 13 42  1  0
 14 43  1  0
 20 44  1  0
 21 45  1  0
 23 46  1  0
 24 47  1  0
 26 48  1  0
 27 49  1  0
 28 50  1  0
 29 51  1  0
M  END
>  <smiles>  (82) 
O=C(NCC(=O)N1CCCC1c1ccc(C(F)(F)F)cc1)c1ccc2ccccc2n1

>  <score_type>  (82) 
oracle

>  <origin>  (82) 
autodockgpu

>  <m_score__min__energy>  (82) 
-8.6199999999999992

>  <m_primary>  (82) 
energy

>  <rmsd>  (82) 
2.3290816343525504

>  <m_score__min__rmsd>  (82) 
2.3290816343525504

>  <meeko>  (82) 
{"free_energy": -7.97, "intermolecular_energy": -9.76, "internal_energy": -1.69, "cluster_size": 12, "cluster_id": 4, "rank_in_cluster": 12}

>  <energy>  (82) 
-8.08

>  <cluster_rmsd>  (82) 
0.31

>  <cluster>  (82) 
4

$$$$

     RDKit          3D

 51 54  0  0  0  0  0  0  0  0999 V2000
  138.6310   75.2880  221.9920 O   0  0  0  0  0  0  0  0  0  0  0  0
  139.7850   75.7840  222.1390 C   0  0  0  0  0  0  0  0  0  0  0  0
  140.9270   74.9430  221.9580 N   0  0  0  0  0  0  0  0  0  0  0  0
  140.7480   73.5350  221.6070 C   0  0  0  0  0  0  0  0  0  0  0  0
  141.6050   73.1570  220.4580 C   0  0  0  0  0  0  0  0  0  0  0  0
  141.1030   72.6380  219.4040 O   0  0  0  0  0  0  0  0  0  0  0  0
  143.0190   73.3360  220.4420 N   0  0  0  0  0  0  0  0  0  0  0  0
  143.9080   72.1540  220.3520 C   0  0  0  0  0  0  0  0  0  0  0  0
  145.2830   72.7190  220.6580 C   0  0  0  0  0  0  0  0  0  0  0  0
  145.1720   74.1050  220.0980 C   0  0  0  0  0  0  0  0  0  0  0  0
  143.7810   74.5260  220.5070 C   0  0  1  0  0  0  0  0  0  0  0  0
  143.3910   75.6040  219.5680 C   0  0  0  0  0  0  0  0  0  0  0  0
  142.6940   76.6910  220.0750 C   0  0  0  0  0  0  0  0  0  0  0  0
  142.2870   77.7420  219.2820 C   0  0  0  0  0  0  0  0  0  0  0  0
  142.5950   77.6970  217.9280 C   0  0  0  0  0  0  0  0  0  0  0  0
  142.1390   78.8480  217.1060 C   0  0  0  0  0  0  0  0  0  0  0  0
  140.7500   78.7710  217.0900 F   0  0  0  0  0  0  0  0  0  0  0  0
  142.5340   78.6460  215.7910 F   0  0  0  0  0  0  0  0  0  0  0  0
  142.5900   80.0530  217.5740 F   0  0  0  0  0  0  0  0  0  0  0  0
  143.2870   76.6260  217.4000 C   0  0  0  0  0  0  0  0  0  0  0  0
  143.6840   75.5830  218.2200 C   0  0  0  0  0  0  0  0  0  0  0  0
  140.0000   77.1850  222.4870 C   0  0  0  0  0  0  0  0  0  0  0  0
  138.9240   78.0160  222.6730 C   0  0  0  0  0  0  0  0  0  0  0  0
  139.0890   79.3550  223.0070 C   0  0  0  0  0  0  0  0  0  0  0  0
  140.3890   79.8210  223.1440 C   0  0  0  0  0  0  0  0  0  0  0  0
  140.6510   81.1360  223.4730 C   0  0  0  0  0  0  0  0  0  0  0  0
  141.9480   81.5790  223.6050 C   0  0  0  0  0  0  0  0  0  0  0  0
  143.0380   80.7300  223.4150 C   0  0  0  0  0  0  0  0  0  0  0  0
  142.7820   79.4100  223.0860 C   0  0  0  0  0  0  0  0  0  0  0  0
  141.4730   78.9820  222.9560 C   0  0  0  0  0  0  0  0  0  0  0  0
  141.2560   77.7000  222.6370 N   0  0  0  0  0  0  0  0  0  0  0  0
  141.8910   75.3630  222.0820 H   0  0  0  0  0  0  0  0  0  0  0  0
  141.0144   72.9123  222.4737 H   0  0  0  0  0  0  0  0  0  0  0  0
  139.6966   73.3768  221.3249 H   0  0  0  0  0  0  0  0  0  0  0  0
  143.6233   71.3910  221.0914 H   0  0  0  0  0  0  0  0  0  0  0  0
  143.8586   71.6550  219.3729 H   0  0  0  0  0  0  0  0  0  0  0  0
  145.4771   72.7380  221.7406 H   0  0  0  0  0  0  0  0  0  0  0  0
  146.1118   72.1314  220.2362 H   0  0  0  0  0  0  0  0  0  0  0  0
  145.9311   74.7702  220.5355 H   0  0  0  0  0  0  0  0  0  0  0  0
  145.3359   74.1479  219.0111 H   0  0  0  0  0  0  0  0  0  0  0  0
  143.6541   74.9432  221.5169 H   0  0  0  0  0  0  0  0  0  0  0  0
  142.4576   76.7149  221.1490 H   0  0  0  0  0  0  0  0  0  0  0  0
  141.7343   78.5919  219.7087 H   0  0  0  0  0  0  0  0  0  0  0  0
  143.5236   76.6008  216.3260 H   0  0  0  0  0  0  0  0  0  0  0  0
  144.2364   74.7325  217.7939 H   0  0  0  0  0  0  0  0  0  0  0  0
  137.9073   77.6131  222.5550 H   0  0  0  0  0  0  0  0  0  0  0  0
  138.2244   80.0184  223.1567 H   0  0  0  0  0  0  0  0  0  0  0  0
  139.8168   81.8355  223.6310 H   0  0  0  0  0  0  0  0  0  0  0  0
  142.1295   82.6317  223.8676 H   0  0  0  0  0  0  0  0  0  0  0  0
  144.0690   81.0978  223.5232 H   0  0  0  0  0  0  0  0  0  0  0  0
  143.6132   78.7068  222.9291 H   0  0  0  0  0  0  0  0  0  0  0  0
  1  2  2  0
  2  3  1  0
  3  4  1  0
  4  5  1  0
  5  6  2  0
  5  7  1  0
  7  8  1  0
  8  9  1  0
  9 10  1  0
 10 11  1  0
 11 12  1  0
 12 13  2  0
 13 14  1  0
 14 15  2  0
 15 16  1  0
 16 17  1  0
 16 18  1  0
 16 19  1  0
 15 20  1  0
 20 21  2  0
  2 22  1  0
 22 23  2  0
 23 24  1  0
 24 25  2  0
 25 26  1  0
 26 27  2  0
 27 28  1  0
 28 29  2  0
 29 30  1  0
 30 31  2  0
 11  7  1  0
 21 12  1  0
 31 22  1  0
 30 25  1  0
  3 32  1  0
  4 33  1  0
  4 34  1  0
  8 35  1  0
  8 36  1  0
  9 37  1  0
  9 38  1  0
 10 39  1  0
 10 40  1  0
 11 41  1  1
 13 42  1  0
 14 43  1  0
 20 44  1  0
 21 45  1  0
 23 46  1  0
 24 47  1  0
 26 48  1  0
 27 49  1  0
 28 50  1  0
 29 51  1  0
M  END
>  <smiles>  (83) 
O=C(NCC(=O)N1CCCC1c1ccc(C(F)(F)F)cc1)c1ccc2ccccc2n1

>  <score_type>  (83) 
oracle

>  <origin>  (83) 
autodockgpu

>  <m_score__min__energy>  (83) 
-8.6199999999999992

>  <m_primary>  (83) 
energy

>  <rmsd>  (83) 
7.779186116329505

>  <m_score__min__rmsd>  (83) 
7.779186116329505

>  <meeko>  (83) 
{"free_energy": -7.28, "intermolecular_energy": -9.07, "internal_energy": -2.41, "cluster_size": 5, "cluster_id": 7, "rank_in_cluster": 3}

>  <energy>  (83) 
-8.07

>  <cluster_rmsd>  (83) 
0.28

>  <cluster>  (83) 
4

$$$$

     RDKit          3D

 51 54  0  0  0  0  0  0  0  0999 V2000
  141.0550   71.4850  221.4100 O   0  0  0  0  0  0  0  0  0  0  0  0
  140.4830   71.9380  222.4430 C   0  0  0  0  0  0  0  0  0  0  0  0
  140.0380   73.2970  222.4480 N   0  0  0  0  0  0  0  0  0  0  0  0
  140.2480   74.1370  221.2690 C   0  0  0  0  0  0  0  0  0  0  0  0
  140.2590   75.5740  221.6330 C   0  0  0  0  0  0  0  0  0  0  0  0
  139.6420   75.9970  222.6680 O   0  0  0  0  0  0  0  0  0  0  0  0
  140.9400   76.5700  220.8730 N   0  0  0  0  0  0  0  0  0  0  0  0
  141.1820   76.3530  219.4280 C   0  0  0  0  0  0  0  0  0  0  0  0
  142.1590   77.4540  219.0600 C   0  0  0  0  0  0  0  0  0  0  0  0
  141.7410   78.5520  219.9920 C   0  0  0  0  0  0  0  0  0  0  0  0
  141.4680   77.8170  221.2810 C   0  0  1  0  0  0  0  0  0  0  0  0
  140.5580   78.6890  222.0600 C   0  0  0  0  0  0  0  0  0  0  0  0
  139.2310   78.7670  221.6650 C   0  0  0  0  0  0  0  0  0  0  0  0
  138.3090   79.5500  222.3240 C   0  0  0  0  0  0  0  0  0  0  0  0
  138.7390   80.2820  223.4250 C   0  0  0  0  0  0  0  0  0  0  0  0
  137.7160   81.1130  224.1090 C   0  0  0  0  0  0  0  0  0  0  0  0
  136.5330   80.3850  224.0400 F   0  0  0  0  0  0  0  0  0  0  0  0
  137.4880   82.2570  223.3560 F   0  0  0  0  0  0  0  0  0  0  0  0
  138.0580   81.4340  225.3960 F   0  0  0  0  0  0  0  0  0  0  0  0
  140.0550   80.2210  223.8370 C   0  0  0  0  0  0  0  0  0  0  0  0
  140.9600   79.4250  223.1560 C   0  0  0  0  0  0  0  0  0  0  0  0
  140.2570   71.1270  223.6360 C   0  0  0  0  0  0  0  0  0  0  0  0
  139.5930   69.9320  223.5340 C   0  0  0  0  0  0  0  0  0  0  0  0
  139.3600   69.1320  224.6460 C   0  0  0  0  0  0  0  0  0  0  0  0
  139.8270   69.5920  225.8690 C   0  0  0  0  0  0  0  0  0  0  0  0
  139.6420   68.8660  227.0300 C   0  0  0  0  0  0  0  0  0  0  0  0
  140.1140   69.3400  228.2330 C   0  0  0  0  0  0  0  0  0  0  0  0
  140.7890   70.5570  228.3320 C   0  0  0  0  0  0  0  0  0  0  0  0
  140.9790   71.2880  227.1720 C   0  0  0  0  0  0  0  0  0  0  0  0
  140.4980   70.7980  225.9710 C   0  0  0  0  0  0  0  0  0  0  0  0
  140.6950   71.5280  224.8660 N   0  0  0  0  0  0  0  0  0  0  0  0
  139.5600   73.6710  223.3150 H   0  0  0  0  0  0  0  0  0  0  0  0
  141.2122   73.8756  220.8087 H   0  0  0  0  0  0  0  0  0  0  0  0
  139.4226   73.9615  220.5633 H   0  0  0  0  0  0  0  0  0  0  0  0
  141.6223   75.3611  219.2482 H   0  0  0  0  0  0  0  0  0  0  0  0
  140.2587   76.3840  218.8308 H   0  0  0  0  0  0  0  0  0  0  0  0
  143.1989   77.1458  219.2436 H   0  0  0  0  0  0  0  0  0  0  0  0
  142.1356   77.7362  217.9971 H   0  0  0  0  0  0  0  0  0  0  0  0
  142.5468   79.2897  220.1205 H   0  0  0  0  0  0  0  0  0  0  0  0
  140.8752   79.1242  219.6273 H   0  0  0  0  0  0  0  0  0  0  0  0
  142.3261   77.6106  221.9375 H   0  0  0  0  0  0  0  0  0  0  0  0
  138.9025   78.1820  220.7933 H   0  0  0  0  0  0  0  0  0  0  0  0
  137.2623   79.5948  221.9887 H   0  0  0  0  0  0  0  0  0  0  0  0
  140.3852   80.8060  224.7081 H   0  0  0  0  0  0  0  0  0  0  0  0
  142.0068   79.3788  223.4908 H   0  0  0  0  0  0  0  0  0  0  0  0
  139.2362   69.5985  222.5484 H   0  0  0  0  0  0  0  0  0  0  0  0
  138.8272   68.1734  224.5603 H   0  0  0  0  0  0  0  0  0  0  0  0
  139.1135   67.9020  226.9926 H   0  0  0  0  0  0  0  0  0  0  0  0
  139.9544   68.7421  229.1424 H   0  0  0  0  0  0  0  0  0  0  0  0
  141.1584   70.9239  229.3010 H   0  0  0  0  0  0  0  0  0  0  0  0
  141.5086   72.2516  227.2049 H   0  0  0  0  0  0  0  0  0  0  0  0
  1  2  2  0
  2  3  1  0
  3  4  1  0
  4  5  1  0
  5  6  2  0
  5  7  1  0
  7  8  1  0
  8  9  1  0
  9 10  1  0
 10 11  1  0
 11 12  1  0
 12 13  2  0
 13 14  1  0
 14 15  2  0
 15 16  1  0
 16 17  1  0
 16 18  1  0
 16 19  1  0
 15 20  1  0
 20 21  2  0
  2 22  1  0
 22 23  2  0
 23 24  1  0
 24 25  2  0
 25 26  1  0
 26 27  2  0
 27 28  1  0
 28 29  2  0
 29 30  1  0
 30 31  2  0
 11  7  1  0
 21 12  1  0
 31 22  1  0
 30 25  1  0
  3 32  1  0
  4 33  1  0
  4 34  1  0
  8 35  1  0
  8 36  1  0
  9 37  1  0
  9 38  1  0
 10 39  1  0
 10 40  1  0
 11 41  1  1
 13 42  1  0
 14 43  1  0
 20 44  1  0
 21 45  1  0
 23 46  1  0
 24 47  1  0
 26 48  1  0
 27 49  1  0
 28 50  1  0
 29 51  1  0
M  END
>  <smiles>  (84) 
O=C(NCC(=O)N1CCCC1c1ccc(C(F)(F)F)cc1)c1ccc2ccccc2n1

>  <score_type>  (84) 
oracle

>  <origin>  (84) 
autodockgpu

>  <m_score__min__energy>  (84) 
-8.6199999999999992

>  <m_primary>  (84) 
energy

>  <rmsd>  (84) 
1.8838464591960533

>  <m_score__min__rmsd>  (84) 
1.8838464591960533

>  <meeko>  (84) 
{"free_energy": -8.28, "intermolecular_energy": -10.07, "internal_energy": -1.62, "cluster_size": 9, "cluster_id": 3, "rank_in_cluster": 1}

>  <energy>  (84) 
-8.07

>  <cluster_rmsd>  (84) 
0.31

>  <cluster>  (84) 
4

$$$$

     RDKit          3D

 51 54  0  0  0  0  0  0  0  0999 V2000
  140.1250   70.9990  221.3320 O   0  0  0  0  0  0  0  0  0  0  0  0
  140.0140   71.5290  222.4750 C   0  0  0  0  0  0  0  0  0  0  0  0
  139.9500   72.9540  222.5740 N   0  0  0  0  0  0  0  0  0  0  0  0
  140.0130   73.7720  221.3630 C   0  0  0  0  0  0  0  0  0  0  0  0
  140.0840   75.2150  221.6960 C   0  0  0  0  0  0  0  0  0  0  0  0
  139.4440   75.6940  222.6930 O   0  0  0  0  0  0  0  0  0  0  0  0
  140.8500   76.1560  220.9470 N   0  0  0  0  0  0  0  0  0  0  0  0
  141.1240   75.9040  219.5140 C   0  0  0  0  0  0  0  0  0  0  0  0
  142.1810   76.9370  219.1660 C   0  0  0  0  0  0  0  0  0  0  0  0
  141.8030   78.0720  220.0710 C   0  0  0  0  0  0  0  0  0  0  0  0
  141.4430   77.3730  221.3590 C   0  0  1  0  0  0  0  0  0  0  0  0
  140.5650   78.3100  222.0980 C   0  0  0  0  0  0  0  0  0  0  0  0
  139.2610   78.4730  221.6520 C   0  0  0  0  0  0  0  0  0  0  0  0
  138.3700   79.3210  222.2710 C   0  0  0  0  0  0  0  0  0  0  0  0
  138.8070   80.0330  223.3820 C   0  0  0  0  0  0  0  0  0  0  0  0
  137.8170   80.9370  224.0220 C   0  0  0  0  0  0  0  0  0  0  0  0
  136.5800   80.3280  223.8400 F   0  0  0  0  0  0  0  0  0  0  0  0
  137.7540   82.1200  223.2980 F   0  0  0  0  0  0  0  0  0  0  0  0
  138.0890   81.1830  225.3420 F   0  0  0  0  0  0  0  0  0  0  0  0
  140.0990   79.8880  223.8440 C   0  0  0  0  0  0  0  0  0  0  0  0
  140.9740   79.0280  223.2030 C   0  0  0  0  0  0  0  0  0  0  0  0
  139.9470   70.7430  223.7030 C   0  0  0  0  0  0  0  0  0  0  0  0
  139.3360   69.5150  223.6960 C   0  0  0  0  0  0  0  0  0  0  0  0
  139.2540   68.7370  224.8450 C   0  0  0  0  0  0  0  0  0  0  0  0
  139.8160   69.2520  226.0030 C   0  0  0  0  0  0  0  0  0  0  0  0
  139.7830   68.5520  227.1930 C   0  0  0  0  0  0  0  0  0  0  0  0
  140.3470   69.0810  228.3320 C   0  0  0  0  0  0  0  0  0  0  0  0
  140.9680   70.3300  228.3340 C   0  0  0  0  0  0  0  0  0  0  0  0
  141.0050   71.0360  227.1440 C   0  0  0  0  0  0  0  0  0  0  0  0
  140.4330   70.4910  226.0100 C   0  0  0  0  0  0  0  0  0  0  0  0
  140.4840   71.1970  224.8730 N   0  0  0  0  0  0  0  0  0  0  0  0
  139.8560   73.3930  223.5320 H   0  0  0  0  0  0  0  0  0  0  0  0
  140.9071   73.4920  220.7866 H   0  0  0  0  0  0  0  0  0  0  0  0
  139.1013   73.5941  220.7737 H   0  0  0  0  0  0  0  0  0  0  0  0
  141.5061   74.8840  219.3606 H   0  0  0  0  0  0  0  0  0  0  0  0
  140.2244   75.9844  218.8861 H   0  0  0  0  0  0  0  0  0  0  0  0
  143.1927   76.5665  219.3879 H   0  0  0  0  0  0  0  0  0  0  0  0
  142.2103   77.2056  218.0997 H   0  0  0  0  0  0  0  0  0  0  0  0
  142.6490   78.7597  220.2174 H   0  0  0  0  0  0  0  0  0  0  0  0
  140.9871   78.6921  219.6714 H   0  0  0  0  0  0  0  0  0  0  0  0
  142.2650   77.1225  222.0457 H   0  0  0  0  0  0  0  0  0  0  0  0
  138.9270   77.9040  220.7718 H   0  0  0  0  0  0  0  0  0  0  0  0
  137.3415   79.4318  221.8969 H   0  0  0  0  0  0  0  0  0  0  0  0
  140.4344   80.4570  224.7236 H   0  0  0  0  0  0  0  0  0  0  0  0
  142.0024   78.9162  223.5771 H   0  0  0  0  0  0  0  0  0  0  0  0
  138.9007   69.1370  222.7592 H   0  0  0  0  0  0  0  0  0  0  0  0
  138.7631   67.7526  224.8358 H   0  0  0  0  0  0  0  0  0  0  0  0
  139.3020   67.5635  227.2311 H   0  0  0  0  0  0  0  0  0  0  0  0
  140.3068   68.5025  229.2667 H   0  0  0  0  0  0  0  0  0  0  0  0
  141.4140   70.7407  229.2518 H   0  0  0  0  0  0  0  0  0  0  0  0
  141.4864   72.0241  227.1011 H   0  0  0  0  0  0  0  0  0  0  0  0
  1  2  2  0
  2  3  1  0
  3  4  1  0
  4  5  1  0
  5  6  2  0
  5  7  1  0
  7  8  1  0
  8  9  1  0
  9 10  1  0
 10 11  1  0
 11 12  1  0
 12 13  2  0
 13 14  1  0
 14 15  2  0
 15 16  1  0
 16 17  1  0
 16 18  1  0
 16 19  1  0
 15 20  1  0
 20 21  2  0
  2 22  1  0
 22 23  2  0
 23 24  1  0
 24 25  2  0
 25 26  1  0
 26 27  2  0
 27 28  1  0
 28 29  2  0
 29 30  1  0
 30 31  2  0
 11  7  1  0
 21 12  1  0
 31 22  1  0
 30 25  1  0
  3 32  1  0
  4 33  1  0
  4 34  1  0
  8 35  1  0
  8 36  1  0
  9 37  1  0
  9 38  1  0
 10 39  1  0
 10 40  1  0
 11 41  1  1
 13 42  1  0
 14 43  1  0
 20 44  1  0
 21 45  1  0
 23 46  1  0
 24 47  1  0
 26 48  1  0
 27 49  1  0
 28 50  1  0
 29 51  1  0
M  END
>  <smiles>  (85) 
O=C(NCC(=O)N1CCCC1c1ccc(C(F)(F)F)cc1)c1ccc2ccccc2n1

>  <score_type>  (85) 
oracle

>  <origin>  (85) 
autodockgpu

>  <m_score__min__energy>  (85) 
-8.6199999999999992

>  <m_primary>  (85) 
energy

>  <rmsd>  (85) 
1.7040845353490497

>  <m_score__min__rmsd>  (85) 
1.7040845353490497

>  <meeko>  (85) 
{"free_energy": -8.22, "intermolecular_energy": -10.01, "internal_energy": -1.66, "cluster_size": 9, "cluster_id": 3, "rank_in_cluster": 4}

>  <energy>  (85) 
-8.07

>  <cluster_rmsd>  (85) 
0.38

>  <cluster>  (85) 
4

$$$$

     RDKit          3D

 51 54  0  0  0  0  0  0  0  0999 V2000
  138.5500   70.8170  221.6850 O   0  0  0  0  0  0  0  0  0  0  0  0
  139.1140   71.2660  222.7250 C   0  0  0  0  0  0  0  0  0  0  0  0
  139.5000   72.6420  222.7620 N   0  0  0  0  0  0  0  0  0  0  0  0
  139.2390   73.5040  221.6100 C   0  0  0  0  0  0  0  0  0  0  0  0
  139.4480   74.9310  221.9520 C   0  0  0  0  0  0  0  0  0  0  0  0
  140.5960   75.3620  222.3090 O   0  0  0  0  0  0  0  0  0  0  0  0
  138.4100   75.9070  221.9130 N   0  0  0  0  0  0  0  0  0  0  0  0
  137.0740   75.5800  222.4610 C   0  0  0  0  0  0  0  0  0  0  0  0
  136.1990   76.7220  221.9760 C   0  0  0  0  0  0  0  0  0  0  0  0
  137.1740   77.8610  221.9560 C   0  0  0  0  0  0  0  0  0  0  0  0
  138.4260   77.2270  221.4020 C   0  0  1  0  0  0  0  0  0  0  0  0
  139.5480   78.0860  221.8470 C   0  0  0  0  0  0  0  0  0  0  0  0
  139.4520   78.6920  223.0920 C   0  0  0  0  0  0  0  0  0  0  0  0
  140.4420   79.5080  223.5930 C   0  0  0  0  0  0  0  0  0  0  0  0
  141.5720   79.7230  222.8130 C   0  0  0  0  0  0  0  0  0  0  0  0
  142.6160   80.6080  223.3880 C   0  0  0  0  0  0  0  0  0  0  0  0
  143.7490   80.4110  222.6040 F   0  0  0  0  0  0  0  0  0  0  0  0
  142.9570   80.1420  224.6500 F   0  0  0  0  0  0  0  0  0  0  0  0
  142.2380   81.9240  223.4370 F   0  0  0  0  0  0  0  0  0  0  0  0
  141.6900   79.1310  221.5710 C   0  0  0  0  0  0  0  0  0  0  0  0
  140.6800   78.3150  221.0920 C   0  0  0  0  0  0  0  0  0  0  0  0
  139.3880   70.4330  223.8920 C   0  0  0  0  0  0  0  0  0  0  0  0
  139.0440   69.1050  223.8810 C   0  0  0  0  0  0  0  0  0  0  0  0
  139.2900   68.2820  224.9730 C   0  0  0  0  0  0  0  0  0  0  0  0
  139.8980   68.8570  226.0790 C   0  0  0  0  0  0  0  0  0  0  0  0
  140.1810   68.1170  227.2110 C   0  0  0  0  0  0  0  0  0  0  0  0
  140.7860   68.7060  228.2980 C   0  0  0  0  0  0  0  0  0  0  0  0
  141.1340   70.0570  228.3050 C   0  0  0  0  0  0  0  0  0  0  0  0
  140.8540   70.8030  227.1730 C   0  0  0  0  0  0  0  0  0  0  0  0
  140.2450   70.1960  226.0900 C   0  0  0  0  0  0  0  0  0  0  0  0
  139.9860   70.9430  225.0090 N   0  0  0  0  0  0  0  0  0  0  0  0
  139.9710   73.0130  223.6340 H   0  0  0  0  0  0  0  0  0  0  0  0
  139.9209   73.2271  220.7925 H   0  0  0  0  0  0  0  0  0  0  0  0
  138.1914   73.3685  221.3030 H   0  0  0  0  0  0  0  0  0  0  0  0
  136.7144   74.6166  222.0703 H   0  0  0  0  0  0  0  0  0  0  0  0
  137.0749   75.4780  223.5563 H   0  0  0  0  0  0  0  0  0  0  0  0
  135.7961   76.5208  220.9724 H   0  0  0  0  0  0  0  0  0  0  0  0
  135.3121   76.9029  222.6010 H   0  0  0  0  0  0  0  0  0  0  0  0
  136.8201   78.6728  221.3036 H   0  0  0  0  0  0  0  0  0  0  0  0
  137.3223   78.3218  222.9437 H   0  0  0  0  0  0  0  0  0  0  0  0
  138.5151   77.1552  220.3080 H   0  0  0  0  0  0  0  0  0  0  0  0
  138.5530   78.5142  223.7004 H   0  0  0  0  0  0  0  0  0  0  0  0
  140.3411   79.9766  224.5831 H   0  0  0  0  0  0  0  0  0  0  0  0
  142.5883   79.3083  220.9613 H   0  0  0  0  0  0  0  0  0  0  0  0
  140.7804   77.8456  220.1022 H   0  0  0  0  0  0  0  0  0  0  0  0
  138.5624   68.6821  222.9871 H   0  0  0  0  0  0  0  0  0  0  0  0
  139.0137   67.2173  224.9609 H   0  0  0  0  0  0  0  0  0  0  0  0
  139.9208   67.0487  227.2438 H   0  0  0  0  0  0  0  0  0  0  0  0
  141.0012   68.0941  229.1864 H   0  0  0  0  0  0  0  0  0  0  0  0
  141.6154   70.5147  229.1818 H   0  0  0  0  0  0  0  0  0  0  0  0
  141.1141   71.8711  227.1353 H   0  0  0  0  0  0  0  0  0  0  0  0
  1  2  2  0
  2  3  1  0
  3  4  1  0
  4  5  1  0
  5  6  2  0
  5  7  1  0
  7  8  1  0
  8  9  1  0
  9 10  1  0
 10 11  1  0
 11 12  1  0
 12 13  2  0
 13 14  1  0
 14 15  2  0
 15 16  1  0
 16 17  1  0
 16 18  1  0
 16 19  1  0
 15 20  1  0
 20 21  2  0
  2 22  1  0
 22 23  2  0
 23 24  1  0
 24 25  2  0
 25 26  1  0
 26 27  2  0
 27 28  1  0
 28 29  2  0
 29 30  1  0
 30 31  2  0
 11  7  1  0
 21 12  1  0
 31 22  1  0
 30 25  1  0
  3 32  1  0
  4 33  1  0
  4 34  1  0
  8 35  1  0
  8 36  1  0
  9 37  1  0
  9 38  1  0
 10 39  1  0
 10 40  1  0
 11 41  1  6
 13 42  1  0
 14 43  1  0
 20 44  1  0
 21 45  1  0
 23 46  1  0
 24 47  1  0
 26 48  1  0
 27 49  1  0
 28 50  1  0
 29 51  1  0
M  END
>  <smiles>  (86) 
O=C(NCC(=O)N1CCCC1c1ccc(C(F)(F)F)cc1)c1ccc2ccccc2n1

>  <score_type>  (86) 
oracle

>  <origin>  (86) 
autodockgpu

>  <m_score__min__energy>  (86) 
-8.6199999999999992

>  <m_primary>  (86) 
energy

>  <rmsd>  (86) 
2.7850197812740842

>  <m_score__min__rmsd>  (86) 
2.7850197812740842

>  <meeko>  (86) 
{"free_energy": -8.26, "intermolecular_energy": -10.05, "internal_energy": -1.67, "cluster_size": 15, "cluster_id": 1, "rank_in_cluster": 10}

>  <energy>  (86) 
-8.07

>  <cluster_rmsd>  (86) 
0.39

>  <cluster>  (86) 
4

$$$$

     RDKit          3D

 51 54  0  0  0  0  0  0  0  0999 V2000
  140.2300   77.5940  219.3200 O   0  0  0  0  0  0  0  0  0  0  0  0
  141.4760   77.3830  219.3800 C   0  0  0  0  0  0  0  0  0  0  0  0
  142.3710   78.4930  219.2710 N   0  0  0  0  0  0  0  0  0  0  0  0
  141.8400   79.8430  219.0930 C   0  0  0  0  0  0  0  0  0  0  0  0
  141.1220   80.2990  220.3080 C   0  0  0  0  0  0  0  0  0  0  0  0
  140.0140   80.9290  220.2210 O   0  0  0  0  0  0  0  0  0  0  0  0
  141.6030   80.0780  221.6310 N   0  0  0  0  0  0  0  0  0  0  0  0
  142.1940   81.2010  222.3950 C   0  0  0  0  0  0  0  0  0  0  0  0
  142.8360   80.5210  223.5900 C   0  0  0  0  0  0  0  0  0  0  0  0
  141.9150   79.3580  223.8060 C   0  0  0  0  0  0  0  0  0  0  0  0
  141.6220   78.8910  222.4010 C   0  0  1  0  0  0  0  0  0  0  0  0
  140.3460   78.1430  222.4800 C   0  0  0  0  0  0  0  0  0  0  0  0
  140.3910   76.7610  222.3660 C   0  0  0  0  0  0  0  0  0  0  0  0
  139.2590   75.9780  222.4260 C   0  0  0  0  0  0  0  0  0  0  0  0
  138.0350   76.6100  222.6080 C   0  0  0  0  0  0  0  0  0  0  0  0
  136.8380   75.7330  222.6670 C   0  0  0  0  0  0  0  0  0  0  0  0
  137.2430   74.5090  222.1420 F   0  0  0  0  0  0  0  0  0  0  0  0
  135.8830   76.2140  221.7820 F   0  0  0  0  0  0  0  0  0  0  0  0
  136.3210   75.6140  223.9300 F   0  0  0  0  0  0  0  0  0  0  0  0
  137.9640   77.9830  222.7230 C   0  0  0  0  0  0  0  0  0  0  0  0
  139.1180   78.7460  222.6600 C   0  0  0  0  0  0  0  0  0  0  0  0
  142.0400   76.0480  219.5580 C   0  0  0  0  0  0  0  0  0  0  0  0
  141.2550   74.9420  219.3520 C   0  0  0  0  0  0  0  0  0  0  0  0
  141.7570   73.6560  219.5100 C   0  0  0  0  0  0  0  0  0  0  0  0
  143.0860   73.5330  219.8870 C   0  0  0  0  0  0  0  0  0  0  0  0
  143.6720   72.2960  220.0690 C   0  0  0  0  0  0  0  0  0  0  0  0
  144.9930   72.1950  220.4430 C   0  0  0  0  0  0  0  0  0  0  0  0
  145.7870   73.3240  220.6520 C   0  0  0  0  0  0  0  0  0  0  0  0
  145.2050   74.5670  220.4690 C   0  0  0  0  0  0  0  0  0  0  0  0
  143.8770   74.6500  220.0950 C   0  0  0  0  0  0  0  0  0  0  0  0
  143.3410   75.8650  219.9270 N   0  0  0  0  0  0  0  0  0  0  0  0
  143.4130   78.3110  219.3220 H   0  0  0  0  0  0  0  0  0  0  0  0
  142.6723   80.5322  218.8877 H   0  0  0  0  0  0  0  0  0  0  0  0
  141.1311   79.8314  218.2520 H   0  0  0  0  0  0  0  0  0  0  0  0
  142.9469   81.7317  221.7938 H   0  0  0  0  0  0  0  0  0  0  0  0
  141.4513   81.9596  222.6830 H   0  0  0  0  0  0  0  0  0  0  0  0
  143.8582   80.1861  223.3599 H   0  0  0  0  0  0  0  0  0  0  0  0
  142.9475   81.1727  224.4691 H   0  0  0  0  0  0  0  0  0  0  0  0
  142.4074   78.5671  224.3908 H   0  0  0  0  0  0  0  0  0  0  0  0
  141.0098   79.6215  224.3727 H   0  0  0  0  0  0  0  0  0  0  0  0
  142.3456   78.2072  221.9332 H   0  0  0  0  0  0  0  0  0  0  0  0
  141.3661   76.2726  222.2225 H   0  0  0  0  0  0  0  0  0  0  0  0
  139.3224   74.8838  222.3325 H   0  0  0  0  0  0  0  0  0  0  0  0
  136.9892   78.4725  222.8650 H   0  0  0  0  0  0  0  0  0  0  0  0
  139.0552   79.8402  222.7541 H   0  0  0  0  0  0  0  0  0  0  0  0
  140.2044   75.0762  219.0550 H   0  0  0  0  0  0  0  0  0  0  0  0
  141.1256   72.7709  219.3427 H   0  0  0  0  0  0  0  0  0  0  0  0
  143.0780   71.3832  219.9138 H   0  0  0  0  0  0  0  0  0  0  0  0
  145.4350   71.1972  220.5809 H   0  0  0  0  0  0  0  0  0  0  0  0
  146.8409   73.2292  220.9523 H   0  0  0  0  0  0  0  0  0  0  0  0
  145.7957   75.4825  220.6203 H   0  0  0  0  0  0  0  0  0  0  0  0
  1  2  2  0
  2  3  1  0
  3  4  1  0
  4  5  1  0
  5  6  2  0
  5  7  1  0
  7  8  1  0
  8  9  1  0
  9 10  1  0
 10 11  1  0
 11 12  1  0
 12 13  2  0
 13 14  1  0
 14 15  2  0
 15 16  1  0
 16 17  1  0
 16 18  1  0
 16 19  1  0
 15 20  1  0
 20 21  2  0
  2 22  1  0
 22 23  2  0
 23 24  1  0
 24 25  2  0
 25 26  1  0
 26 27  2  0
 27 28  1  0
 28 29  2  0
 29 30  1  0
 30 31  2  0
 11  7  1  0
 21 12  1  0
 31 22  1  0
 30 25  1  0
  3 32  1  0
  4 33  1  0
  4 34  1  0
  8 35  1  0
  8 36  1  0
  9 37  1  0
  9 38  1  0
 10 39  1  0
 10 40  1  0
 11 41  1  6
 13 42  1  0
 14 43  1  0
 20 44  1  0
 21 45  1  0
 23 46  1  0
 24 47  1  0
 26 48  1  0
 27 49  1  0
 28 50  1  0
 29 51  1  0
M  END
>  <smiles>  (87) 
O=C(NCC(=O)N1CCCC1c1ccc(C(F)(F)F)cc1)c1ccc2ccccc2n1

>  <score_type>  (87) 
oracle

>  <origin>  (87) 
autodockgpu

>  <m_score__min__energy>  (87) 
-8.6199999999999992

>  <m_primary>  (87) 
energy

>  <rmsd>  (87) 
7.452266812021267

>  <m_score__min__rmsd>  (87) 
7.452266812021267

>  <meeko>  (87) 
{"free_energy": -6.87, "intermolecular_energy": -8.66, "internal_energy": -2.6, "cluster_size": 5, "cluster_id": 8, "rank_in_cluster": 5}

>  <energy>  (87) 
-8.02

>  <cluster_rmsd>  (87) 
1.49

>  <cluster>  (87) 
4

$$$$

     RDKit          3D

 51 54  0  0  0  0  0  0  0  0999 V2000
  138.6860   75.2240  221.8530 O   0  0  0  0  0  0  0  0  0  0  0  0
  139.8470   75.6940  222.0280 C   0  0  0  0  0  0  0  0  0  0  0  0
  140.9760   74.8380  221.8350 N   0  0  0  0  0  0  0  0  0  0  0  0
  140.7750   73.4450  221.4390 C   0  0  0  0  0  0  0  0  0  0  0  0
  141.8230   73.0030  220.4880 C   0  0  0  0  0  0  0  0  0  0  0  0
  141.5330   72.2750  219.4800 O   0  0  0  0  0  0  0  0  0  0  0  0
  143.2000   73.3460  220.6250 N   0  0  0  0  0  0  0  0  0  0  0  0
  144.2150   72.2740  220.7500 C   0  0  0  0  0  0  0  0  0  0  0  0
  145.4710   73.0190  221.1640 C   0  0  0  0  0  0  0  0  0  0  0  0
  145.2850   74.3350  220.4690 C   0  0  0  0  0  0  0  0  0  0  0  0
  143.8160   74.6190  220.6690 C   0  0  1  0  0  0  0  0  0  0  0  0
  143.4370   75.5660  219.5950 C   0  0  0  0  0  0  0  0  0  0  0  0
  142.7830   76.7350  219.9560 C   0  0  0  0  0  0  0  0  0  0  0  0
  142.3890   77.6770  219.0300 C   0  0  0  0  0  0  0  0  0  0  0  0
  142.6650   77.4330  217.6900 C   0  0  0  0  0  0  0  0  0  0  0  0
  142.2250   78.4710  216.7230 C   0  0  0  0  0  0  0  0  0  0  0  0
  142.5700   79.6900  217.2990 F   0  0  0  0  0  0  0  0  0  0  0  0
  140.8380   78.4720  216.6630 F   0  0  0  0  0  0  0  0  0  0  0  0
  142.7700   78.3090  215.4770 F   0  0  0  0  0  0  0  0  0  0  0  0
  143.3140   76.2770  217.3070 C   0  0  0  0  0  0  0  0  0  0  0  0
  143.6990   75.3480  218.2580 C   0  0  0  0  0  0  0  0  0  0  0  0
  140.0820   77.0800  222.4220 C   0  0  0  0  0  0  0  0  0  0  0  0
  139.0190   77.9080  222.6780 C   0  0  0  0  0  0  0  0  0  0  0  0
  139.2040   79.2320  223.0560 C   0  0  0  0  0  0  0  0  0  0  0  0
  140.5100   79.6870  223.1640 C   0  0  0  0  0  0  0  0  0  0  0  0
  140.7920   80.9880  223.5330 C   0  0  0  0  0  0  0  0  0  0  0  0
  142.0950   81.4190  223.6350 C   0  0  0  0  0  0  0  0  0  0  0  0
  143.1730   80.5730  223.3730 C   0  0  0  0  0  0  0  0  0  0  0  0
  142.8970   79.2680  223.0040 C   0  0  0  0  0  0  0  0  0  0  0  0
  141.5820   78.8510  222.9060 C   0  0  0  0  0  0  0  0  0  0  0  0
  141.3450   77.5830  222.5460 N   0  0  0  0  0  0  0  0  0  0  0  0
  141.9450   75.2370  221.9830 H   0  0  0  0  0  0  0  0  0  0  0  0
  140.8115   72.8081  222.3351 H   0  0  0  0  0  0  0  0  0  0  0  0
  139.7964   73.3607  220.9438 H   0  0  0  0  0  0  0  0  0  0  0  0
  143.9213   71.5424  221.5172 H   0  0  0  0  0  0  0  0  0  0  0  0
  144.3456   71.6984  219.8218 H   0  0  0  0  0  0  0  0  0  0  0  0
  145.5212   73.1453  222.2556 H   0  0  0  0  0  0  0  0  0  0  0  0
  146.4052   72.5019  220.8998 H   0  0  0  0  0  0  0  0  0  0  0  0
  145.9055   75.1172  220.9306 H   0  0  0  0  0  0  0  0  0  0  0  0
  145.5822   74.3122  219.4102 H   0  0  0  0  0  0  0  0  0  0  0  0
  143.5163   75.0959  221.6139 H   0  0  0  0  0  0  0  0  0  0  0  0
  142.5711   76.9168  221.0200 H   0  0  0  0  0  0  0  0  0  0  0  0
  141.8710   78.5956  219.3428 H   0  0  0  0  0  0  0  0  0  0  0  0
  143.5259   76.0934  216.2433 H   0  0  0  0  0  0  0  0  0  0  0  0
  144.2175   74.4295  217.9457 H   0  0  0  0  0  0  0  0  0  0  0  0
  137.9963   77.5146  222.5818 H   0  0  0  0  0  0  0  0  0  0  0  0
  138.3491   79.8930  223.2614 H   0  0  0  0  0  0  0  0  0  0  0  0
  139.9685   81.6851  223.7470 H   0  0  0  0  0  0  0  0  0  0  0  0
  142.2921   82.4598  223.9314 H   0  0  0  0  0  0  0  0  0  0  0  0
  144.2094   80.9318  223.4571 H   0  0  0  0  0  0  0  0  0  0  0  0
  143.7177   78.5674  222.7902 H   0  0  0  0  0  0  0  0  0  0  0  0
  1  2  2  0
  2  3  1  0
  3  4  1  0
  4  5  1  0
  5  6  2  0
  5  7  1  0
  7  8  1  0
  8  9  1  0
  9 10  1  0
 10 11  1  0
 11 12  1  0
 12 13  2  0
 13 14  1  0
 14 15  2  0
 15 16  1  0
 16 17  1  0
 16 18  1  0
 16 19  1  0
 15 20  1  0
 20 21  2  0
  2 22  1  0
 22 23  2  0
 23 24  1  0
 24 25  2  0
 25 26  1  0
 26 27  2  0
 27 28  1  0
 28 29  2  0
 29 30  1  0
 30 31  2  0
 11  7  1  0
 21 12  1  0
 31 22  1  0
 30 25  1  0
  3 32  1  0
  4 33  1  0
  4 34  1  0
  8 35  1  0
  8 36  1  0
  9 37  1  0
  9 38  1  0
 10 39  1  0
 10 40  1  0
 11 41  1  1
 13 42  1  0
 14 43  1  0
 20 44  1  0
 21 45  1  0
 23 46  1  0
 24 47  1  0
 26 48  1  0
 27 49  1  0
 28 50  1  0
 29 51  1  0
M  END
>  <smiles>  (88) 
O=C(NCC(=O)N1CCCC1c1ccc(C(F)(F)F)cc1)c1ccc2ccccc2n1

>  <score_type>  (88) 
oracle

>  <origin>  (88) 
autodockgpu

>  <m_score__min__energy>  (88) 
-8.6199999999999992

>  <m_primary>  (88) 
energy

>  <rmsd>  (88) 
7.76277985394618

>  <m_score__min__rmsd>  (88) 
7.76277985394618

>  <meeko>  (88) 
{"free_energy": -7.12, "intermolecular_energy": -8.91, "internal_energy": -2.41, "cluster_size": 5, "cluster_id": 7, "rank_in_cluster": 5}

>  <energy>  (88) 
-7.97

>  <cluster_rmsd>  (88) 
1.51

>  <cluster>  (88) 
4

$$$$

     RDKit          3D

 51 54  0  0  0  0  0  0  0  0999 V2000
  140.8660   71.6520  221.3140 O   0  0  0  0  0  0  0  0  0  0  0  0
  140.3780   72.1570  222.3660 C   0  0  0  0  0  0  0  0  0  0  0  0
  139.9550   73.5230  222.3460 N   0  0  0  0  0  0  0  0  0  0  0  0
  140.0900   74.3090  221.1210 C   0  0  0  0  0  0  0  0  0  0  0  0
  140.3920   75.7280  221.4270 C   0  0  0  0  0  0  0  0  0  0  0  0
  140.0220   76.2580  222.5280 O   0  0  0  0  0  0  0  0  0  0  0  0
  141.1000   76.5890  220.5380 N   0  0  0  0  0  0  0  0  0  0  0  0
  141.1670   78.0410  220.8190 C   0  0  0  0  0  0  0  0  0  0  0  0
  141.7240   78.6280  219.5350 C   0  0  0  0  0  0  0  0  0  0  0  0
  142.6140   77.5190  219.0570 C   0  0  0  0  0  0  0  0  0  0  0  0
  141.7980   76.2820  219.3450 C   0  0  1  0  0  0  0  0  0  0  0  0
  142.7680   75.1660  219.4250 C   0  0  0  0  0  0  0  0  0  0  0  0
  142.4410   73.9710  218.8000 C   0  0  0  0  0  0  0  0  0  0  0  0
  143.2780   72.8760  218.8190 C   0  0  0  0  0  0  0  0  0  0  0  0
  144.4890   72.9880  219.4910 C   0  0  0  0  0  0  0  0  0  0  0  0
  145.3630   71.7870  219.4880 C   0  0  0  0  0  0  0  0  0  0  0  0
  144.5990   70.7670  220.0470 F   0  0  0  0  0  0  0  0  0  0  0  0
  146.4100   71.9900  220.3760 F   0  0  0  0  0  0  0  0  0  0  0  0
  145.8310   71.4660  218.2420 F   0  0  0  0  0  0  0  0  0  0  0  0
  144.8360   74.1660  220.1200 C   0  0  0  0  0  0  0  0  0  0  0  0
  143.9770   75.2510  220.0850 C   0  0  0  0  0  0  0  0  0  0  0  0
  140.2300   71.4000  223.6050 C   0  0  0  0  0  0  0  0  0  0  0  0
  139.6370   70.1630  223.5830 C   0  0  0  0  0  0  0  0  0  0  0  0
  139.4790   69.4120  224.7430 C   0  0  0  0  0  0  0  0  0  0  0  0
  139.9450   69.9650  225.9270 C   0  0  0  0  0  0  0  0  0  0  0  0
  139.8300   69.2940  227.1280 C   0  0  0  0  0  0  0  0  0  0  0  0
  140.2990   69.8600  228.2930 C   0  0  0  0  0  0  0  0  0  0  0  0
  140.9010   71.1180  228.3100 C   0  0  0  0  0  0  0  0  0  0  0  0
  141.0190   71.7950  227.1080 C   0  0  0  0  0  0  0  0  0  0  0  0
  140.5420   71.2130  225.9480 C   0  0  0  0  0  0  0  0  0  0  0  0
  140.6690   71.8920  224.8010 N   0  0  0  0  0  0  0  0  0  0  0  0
  139.5480   73.9410  223.2290 H   0  0  0  0  0  0  0  0  0  0  0  0
  140.9066   73.8908  220.5141 H   0  0  0  0  0  0  0  0  0  0  0  0
  139.1381   74.2653  220.5716 H   0  0  0  0  0  0  0  0  0  0  0  0
  140.1672   78.4458  221.0345 H   0  0  0  0  0  0  0  0  0  0  0  0
  141.7825   78.2779  221.6994 H   0  0  0  0  0  0  0  0  0  0  0  0
  140.9238   78.8408  218.8108 H   0  0  0  0  0  0  0  0  0  0  0  0
  142.2408   79.5896  219.6701 H   0  0  0  0  0  0  0  0  0  0  0  0
  142.8215   77.6143  217.9810 H   0  0  0  0  0  0  0  0  0  0  0  0
  143.5994   77.5122  219.5458 H   0  0  0  0  0  0  0  0  0  0  0  0
  141.0514   75.9817  218.5950 H   0  0  0  0  0  0  0  0  0  0  0  0
  141.4798   73.8949  218.2706 H   0  0  0  0  0  0  0  0  0  0  0  0
  142.9951   71.9395  218.3161 H   0  0  0  0  0  0  0  0  0  0  0  0
  145.7967   74.2431  220.6501 H   0  0  0  0  0  0  0  0  0  0  0  0
  144.2602   76.1879  220.5870 H   0  0  0  0  0  0  0  0  0  0  0  0
  139.2783   69.7559  222.6261 H   0  0  0  0  0  0  0  0  0  0  0  0
  139.0040   68.4201  224.7225 H   0  0  0  0  0  0  0  0  0  0  0  0
  139.3602   68.2997  227.1549 H   0  0  0  0  0  0  0  0  0  0  0  0
  140.1958   69.3041  229.2366 H   0  0  0  0  0  0  0  0  0  0  0  0
  141.2701   71.5581  229.2481 H   0  0  0  0  0  0  0  0  0  0  0  0
  141.4890   72.7890  227.0761 H   0  0  0  0  0  0  0  0  0  0  0  0
  1  2  2  0
  2  3  1  0
  3  4  1  0
  4  5  1  0
  5  6  2  0
  5  7  1  0
  7  8  1  0
  8  9  1  0
  9 10  1  0
 10 11  1  0
 11 12  1  0
 12 13  2  0
 13 14  1  0
 14 15  2  0
 15 16  1  0
 16 17  1  0
 16 18  1  0
 16 19  1  0
 15 20  1  0
 20 21  2  0
  2 22  1  0
 22 23  2  0
 23 24  1  0
 24 25  2  0
 25 26  1  0
 26 27  2  0
 27 28  1  0
 28 29  2  0
 29 30  1  0
 30 31  2  0
 11  7  1  0
 21 12  1  0
 31 22  1  0
 30 25  1  0
  3 32  1  0
  4 33  1  0
  4 34  1  0
  8 35  1  0
  8 36  1  0
  9 37  1  0
  9 38  1  0
 10 39  1  0
 10 40  1  0
 11 41  1  6
 13 42  1  0
 14 43  1  0
 20 44  1  0
 21 45  1  0
 23 46  1  0
 24 47  1  0
 26 48  1  0
 27 49  1  0
 28 50  1  0
 29 51  1  0
M  END
>  <smiles>  (89) 
O=C(NCC(=O)N1CCCC1c1ccc(C(F)(F)F)cc1)c1ccc2ccccc2n1

>  <score_type>  (89) 
oracle

>  <origin>  (89) 
autodockgpu

>  <m_score__min__energy>  (89) 
-8.6199999999999992

>  <m_primary>  (89) 
energy

>  <rmsd>  (89) 
2.2795273830395257

>  <m_score__min__rmsd>  (89) 
2.2795273830395257

>  <meeko>  (89) 
{"free_energy": -8.08, "intermolecular_energy": -9.87, "internal_energy": -1.91, "cluster_size": 12, "cluster_id": 4, "rank_in_cluster": 6}

>  <energy>  (89) 
-8.09

>  <cluster_rmsd>  (89) 
0.0

>  <cluster>  (89) 
5

$$$$

     RDKit          3D

 51 54  0  0  0  0  0  0  0  0999 V2000
  140.9650   71.6370  221.3690 O   0  0  0  0  0  0  0  0  0  0  0  0
  140.4170   72.1360  222.3930 C   0  0  0  0  0  0  0  0  0  0  0  0
  139.9420   73.4830  222.3370 N   0  0  0  0  0  0  0  0  0  0  0  0
  140.0940   74.2590  221.1070 C   0  0  0  0  0  0  0  0  0  0  0  0
  140.4630   75.6640  221.4030 C   0  0  0  0  0  0  0  0  0  0  0  0
  140.1350   76.2120  222.5090 O   0  0  0  0  0  0  0  0  0  0  0  0
  141.1920   76.4900  220.4990 N   0  0  0  0  0  0  0  0  0  0  0  0
  141.3230   77.9400  220.7720 C   0  0  0  0  0  0  0  0  0  0  0  0
  141.8850   78.4980  219.4760 C   0  0  0  0  0  0  0  0  0  0  0  0
  142.7200   77.3500  218.9910 C   0  0  0  0  0  0  0  0  0  0  0  0
  141.8580   76.1500  219.2970 C   0  0  1  0  0  0  0  0  0  0  0  0
  142.7820   74.9940  219.3670 C   0  0  0  0  0  0  0  0  0  0  0  0
  142.5990   73.9560  218.4650 C   0  0  0  0  0  0  0  0  0  0  0  0
  143.4060   72.8390  218.4520 C   0  0  0  0  0  0  0  0  0  0  0  0
  144.4370   72.7650  219.3810 C   0  0  0  0  0  0  0  0  0  0  0  0
  145.2850   71.5470  219.3350 C   0  0  0  0  0  0  0  0  0  0  0  0
  144.5720   70.5680  220.0210 F   0  0  0  0  0  0  0  0  0  0  0  0
  146.4290   71.7650  220.0910 F   0  0  0  0  0  0  0  0  0  0  0  0
  145.6050   71.1630  218.0600 F   0  0  0  0  0  0  0  0  0  0  0  0
  144.6390   73.7860  220.2880 C   0  0  0  0  0  0  0  0  0  0  0  0
  143.8130   74.8970  220.2790 C   0  0  0  0  0  0  0  0  0  0  0  0
  140.2490   71.3900  223.6370 C   0  0  0  0  0  0  0  0  0  0  0  0
  139.6360   70.1630  223.6200 C   0  0  0  0  0  0  0  0  0  0  0  0
  139.4590   69.4230  224.7830 C   0  0  0  0  0  0  0  0  0  0  0  0
  139.9280   69.9750  225.9660 C   0  0  0  0  0  0  0  0  0  0  0  0
  139.7970   69.3140  227.1710 C   0  0  0  0  0  0  0  0  0  0  0  0
  140.2690   69.8790  228.3340 C   0  0  0  0  0  0  0  0  0  0  0  0
  140.8920   71.1270  228.3460 C   0  0  0  0  0  0  0  0  0  0  0  0
  141.0280   71.7940  227.1410 C   0  0  0  0  0  0  0  0  0  0  0  0
  140.5470   71.2130  225.9820 C   0  0  0  0  0  0  0  0  0  0  0  0
  140.6910   71.8820  224.8310 N   0  0  0  0  0  0  0  0  0  0  0  0
  139.4840   73.8960  223.1980 H   0  0  0  0  0  0  0  0  0  0  0  0
  140.8823   73.8031  220.4900 H   0  0  0  0  0  0  0  0  0  0  0  0
  139.1330   74.2561  220.5717 H   0  0  0  0  0  0  0  0  0  0  0  0
  140.3440   78.3867  221.0001 H   0  0  0  0  0  0  0  0  0  0  0  0
  141.9606   78.1552  221.6421 H   0  0  0  0  0  0  0  0  0  0  0  0
  141.0837   78.7412  218.7627 H   0  0  0  0  0  0  0  0  0  0  0  0
  142.4436   79.4377  219.5981 H   0  0  0  0  0  0  0  0  0  0  0  0
  142.9153   77.4315  217.9115 H   0  0  0  0  0  0  0  0  0  0  0  0
  143.7112   77.3040  219.4658 H   0  0  0  0  0  0  0  0  0  0  0  0
  141.0879   75.8787  218.5598 H   0  0  0  0  0  0  0  0  0  0  0  0
  141.7803   74.0271  217.7338 H   0  0  0  0  0  0  0  0  0  0  0  0
  143.2389   72.0289  217.7269 H   0  0  0  0  0  0  0  0  0  0  0  0
  145.4578   73.7167  221.0192 H   0  0  0  0  0  0  0  0  0  0  0  0
  143.9797   75.7077  221.0036 H   0  0  0  0  0  0  0  0  0  0  0  0
  139.2762   69.7553  222.6638 H   0  0  0  0  0  0  0  0  0  0  0  0
  138.9669   68.4394  224.7661 H   0  0  0  0  0  0  0  0  0  0  0  0
  139.3113   68.3275  227.2019 H   0  0  0  0  0  0  0  0  0  0  0  0
  140.1516   69.3310  229.2805 H   0  0  0  0  0  0  0  0  0  0  0  0
  141.2633   71.5670  229.2833 H   0  0  0  0  0  0  0  0  0  0  0  0
  141.5154   72.7795  227.1055 H   0  0  0  0  0  0  0  0  0  0  0  0
  1  2  2  0
  2  3  1  0
  3  4  1  0
  4  5  1  0
  5  6  2  0
  5  7  1  0
  7  8  1  0
  8  9  1  0
  9 10  1  0
 10 11  1  0
 11 12  1  0
 12 13  2  0
 13 14  1  0
 14 15  2  0
 15 16  1  0
 16 17  1  0
 16 18  1  0
 16 19  1  0
 15 20  1  0
 20 21  2  0
  2 22  1  0
 22 23  2  0
 23 24  1  0
 24 25  2  0
 25 26  1  0
 26 27  2  0
 27 28  1  0
 28 29  2  0
 29 30  1  0
 30 31  2  0
 11  7  1  0
 21 12  1  0
 31 22  1  0
 30 25  1  0
  3 32  1  0
  4 33  1  0
  4 34  1  0
  8 35  1  0
  8 36  1  0
  9 37  1  0
  9 38  1  0
 10 39  1  0
 10 40  1  0
 11 41  1  6
 13 42  1  0
 14 43  1  0
 20 44  1  0
 21 45  1  0
 23 46  1  0
 24 47  1  0
 26 48  1  0
 27 49  1  0
 28 50  1  0
 29 51  1  0
M  END
>  <smiles>  (90) 
O=C(NCC(=O)N1CCCC1c1ccc(C(F)(F)F)cc1)c1ccc2ccccc2n1

>  <score_type>  (90) 
oracle

>  <origin>  (90) 
autodockgpu

>  <m_score__min__energy>  (90) 
-8.6199999999999992

>  <m_primary>  (90) 
energy

>  <rmsd>  (90) 
2.2894613210471446

>  <m_score__min__rmsd>  (90) 
2.2894613210471446

>  <meeko>  (90) 
{"free_energy": -8.07, "intermolecular_energy": -9.86, "internal_energy": -1.91, "cluster_size": 12, "cluster_id": 4, "rank_in_cluster": 9}

>  <energy>  (90) 
-7.43

>  <cluster_rmsd>  (90) 
0.0

>  <cluster>  (90) 
6

$$$$

     RDKit          3D

 51 54  0  0  0  0  0  0  0  0999 V2000
  138.2230   70.5120  221.5770 O   0  0  0  0  0  0  0  0  0  0  0  0
  138.6660   71.2380  222.5130 C   0  0  0  0  0  0  0  0  0  0  0  0
  138.6920   72.6570  222.3350 N   0  0  0  0  0  0  0  0  0  0  0  0
  138.2110   73.2440  221.0860 C   0  0  0  0  0  0  0  0  0  0  0  0
  139.1010   74.3390  220.6320 C   0  0  0  0  0  0  0  0  0  0  0  0
  138.6280   75.4750  220.2920 O   0  0  0  0  0  0  0  0  0  0  0  0
  140.5180   74.2100  220.5400 N   0  0  0  0  0  0  0  0  0  0  0  0
  141.1090   73.3080  219.5250 C   0  0  0  0  0  0  0  0  0  0  0  0
  142.5680   73.2180  219.9330 C   0  0  0  0  0  0  0  0  0  0  0  0
  142.8010   74.5780  220.5210 C   0  0  0  0  0  0  0  0  0  0  0  0
  141.5350   74.8310  221.3030 C   0  0  1  0  0  0  0  0  0  0  0  0
  141.4360   76.3010  221.4510 C   0  0  0  0  0  0  0  0  0  0  0  0
  141.7560   77.0910  220.3550 C   0  0  0  0  0  0  0  0  0  0  0  0
  141.6950   78.4670  220.3950 C   0  0  0  0  0  0  0  0  0  0  0  0
  141.2960   79.0710  221.5810 C   0  0  0  0  0  0  0  0  0  0  0  0
  141.2430   80.5550  221.5830 C   0  0  0  0  0  0  0  0  0  0  0  0
  141.8650   80.9510  222.7630 F   0  0  0  0  0  0  0  0  0  0  0  0
  139.9210   80.9580  221.7120 F   0  0  0  0  0  0  0  0  0  0  0  0
  141.8200   81.1150  220.4750 F   0  0  0  0  0  0  0  0  0  0  0  0
  140.9730   78.3070  222.6840 C   0  0  0  0  0  0  0  0  0  0  0  0
  141.0420   76.9260  222.6170 C   0  0  0  0  0  0  0  0  0  0  0  0
  139.1530   70.6850  223.7730 C   0  0  0  0  0  0  0  0  0  0  0  0
  139.0680   69.3350  224.0050 C   0  0  0  0  0  0  0  0  0  0  0  0
  139.5220   68.7720  225.1910 C   0  0  0  0  0  0  0  0  0  0  0  0
  140.0660   69.6300  226.1360 C   0  0  0  0  0  0  0  0  0  0  0  0
  140.5430   69.1620  227.3450 C   0  0  0  0  0  0  0  0  0  0  0  0
  141.0790   70.0310  228.2690 C   0  0  0  0  0  0  0  0  0  0  0  0
  141.1630   71.4020  228.0280 C   0  0  0  0  0  0  0  0  0  0  0  0
  140.6880   71.8770  226.8180 C   0  0  0  0  0  0  0  0  0  0  0  0
  140.1510   70.9920  225.9010 C   0  0  0  0  0  0  0  0  0  0  0  0
  139.6990   71.4800  224.7390 N   0  0  0  0  0  0  0  0  0  0  0  0
  139.0630   73.2590  223.1220 H   0  0  0  0  0  0  0  0  0  0  0  0
  138.1784   72.4634  220.3116 H   0  0  0  0  0  0  0  0  0  0  0  0
  137.2074   73.6595  221.2596 H   0  0  0  0  0  0  0  0  0  0  0  0
  140.6313   72.3176  219.5542 H   0  0  0  0  0  0  0  0  0  0  0  0
  140.9748   73.6755  218.4969 H   0  0  0  0  0  0  0  0  0  0  0  0
  142.7281   72.4254  220.6788 H   0  0  0  0  0  0  0  0  0  0  0  0
  143.2489   72.9649  219.1070 H   0  0  0  0  0  0  0  0  0  0  0  0
  143.6805   74.5777  221.1817 H   0  0  0  0  0  0  0  0  0  0  0  0
  143.0039   75.3491  219.7632 H   0  0  0  0  0  0  0  0  0  0  0  0
  141.4785   74.4200  222.3218 H   0  0  0  0  0  0  0  0  0  0  0  0
  142.0694   76.6009  219.4214 H   0  0  0  0  0  0  0  0  0  0  0  0
  141.9549   79.0704  219.5127 H   0  0  0  0  0  0  0  0  0  0  0  0
  140.6601   78.7963  223.6182 H   0  0  0  0  0  0  0  0  0  0  0  0
  140.7811   76.3226  223.4989 H   0  0  0  0  0  0  0  0  0  0  0  0
  138.6303   68.6838  223.2341 H   0  0  0  0  0  0  0  0  0  0  0  0
  139.4530   67.6895  225.3736 H   0  0  0  0  0  0  0  0  0  0  0  0
  140.4943   68.0867  227.5714 H   0  0  0  0  0  0  0  0  0  0  0  0
  141.4514   69.6325  229.2242 H   0  0  0  0  0  0  0  0  0  0  0  0
  141.5932   72.0843  228.7760 H   0  0  0  0  0  0  0  0  0  0  0  0
  140.7373   72.9514  226.5872 H   0  0  0  0  0  0  0  0  0  0  0  0
  1  2  2  0
  2  3  1  0
  3  4  1  0
  4  5  1  0
  5  6  2  0
  5  7  1  0
  7  8  1  0
  8  9  1  0
  9 10  1  0
 10 11  1  0
 11 12  1  0
 12 13  2  0
 13 14  1  0
 14 15  2  0
 15 16  1  0
 16 17  1  0
 16 18  1  0
 16 19  1  0
 15 20  1  0
 20 21  2  0
  2 22  1  0
 22 23  2  0
 23 24  1  0
 24 25  2  0
 25 26  1  0
 26 27  2  0
 27 28  1  0
 28 29  2  0
 29 30  1  0
 30 31  2  0
 11  7  1  0
 21 12  1  0
 31 22  1  0
 30 25  1  0
  3 32  1  0
  4 33  1  0
  4 34  1  0
  8 35  1  0
  8 36  1  0
  9 37  1  0
  9 38  1  0
 10 39  1  0
 10 40  1  0
 11 41  1  1
 13 42  1  0
 14 43  1  0
 20 44  1  0
 21 45  1  0
 23 46  1  0
 24 47  1  0
 26 48  1  0
 27 49  1  0
 28 50  1  0
 29 51  1  0
M  END
>  <smiles>  (91) 
O=C(NCC(=O)N1CCCC1c1ccc(C(F)(F)F)cc1)c1ccc2ccccc2n1

>  <score_type>  (91) 
oracle

>  <origin>  (91) 
autodockgpu

>  <m_score__min__energy>  (91) 
-8.6199999999999992

>  <m_primary>  (91) 
energy

>  <rmsd>  (91) 
2.197948751839558

>  <m_score__min__rmsd>  (91) 
2.197948751839558

>  <meeko>  (91) 
{"free_energy": -7.43, "intermolecular_energy": -9.22, "internal_energy": -1.83, "cluster_size": 1, "cluster_id": 6, "rank_in_cluster": 1}

>  <energy>  (91) 
-7.3

>  <cluster_rmsd>  (91) 
0.0

>  <cluster>  (91) 
7

$$$$

     RDKit          3D

 51 54  0  0  0  0  0  0  0  0999 V2000
  140.4020   71.8780  221.4390 O   0  0  0  0  0  0  0  0  0  0  0  0
  139.6330   72.0220  222.4320 C   0  0  0  0  0  0  0  0  0  0  0  0
  138.5390   72.9380  222.3320 N   0  0  0  0  0  0  0  0  0  0  0  0
  138.3260   73.6870  221.0950 C   0  0  0  0  0  0  0  0  0  0  0  0
  139.1300   74.9330  221.0800 C   0  0  0  0  0  0  0  0  0  0  0  0
  138.6720   76.0170  221.5780 O   0  0  0  0  0  0  0  0  0  0  0  0
  140.4390   75.0160  220.5230 N   0  0  0  0  0  0  0  0  0  0  0  0
  140.7200   74.3840  219.2130 C   0  0  0  0  0  0  0  0  0  0  0  0
  142.2340   74.4280  219.1140 C   0  0  0  0  0  0  0  0  0  0  0  0
  142.5490   75.6910  219.8600 C   0  0  0  0  0  0  0  0  0  0  0  0
  141.6040   75.6350  221.0350 C   0  0  1  0  0  0  0  0  0  0  0  0
  141.4510   77.0330  221.4990 C   0  0  0  0  0  0  0  0  0  0  0  0
  141.7090   78.0530  220.5950 C   0  0  0  0  0  0  0  0  0  0  0  0
  141.5950   79.3840  220.9330 C   0  0  0  0  0  0  0  0  0  0  0  0
  141.2050   79.7010  222.2290 C   0  0  0  0  0  0  0  0  0  0  0  0
  141.0940   81.1450  222.5540 C   0  0  0  0  0  0  0  0  0  0  0  0
  141.7440   81.8140  221.5210 F   0  0  0  0  0  0  0  0  0  0  0  0
  141.8440   81.4100  223.6920 F   0  0  0  0  0  0  0  0  0  0  0  0
  139.7990   81.5620  222.7120 F   0  0  0  0  0  0  0  0  0  0  0  0
  140.9430   78.7030  223.1460 C   0  0  0  0  0  0  0  0  0  0  0  0
  141.0650   77.3740  222.7800 C   0  0  0  0  0  0  0  0  0  0  0  0
  139.8170   71.2890  223.6810 C   0  0  0  0  0  0  0  0  0  0  0  0
  139.4770   69.9620  223.7520 C   0  0  0  0  0  0  0  0  0  0  0  0
  139.6390   69.2320  224.9230 C   0  0  0  0  0  0  0  0  0  0  0  0
  140.1580   69.9000  226.0230 C   0  0  0  0  0  0  0  0  0  0  0  0
  140.3530   69.2570  227.2290 C   0  0  0  0  0  0  0  0  0  0  0  0
  140.8700   69.9370  228.3090 C   0  0  0  0  0  0  0  0  0  0  0  0
  141.2130   71.2870  228.2320 C   0  0  0  0  0  0  0  0  0  0  0  0
  141.0200   71.9370  227.0250 C   0  0  0  0  0  0  0  0  0  0  0  0
  140.5000   71.2390  225.9510 C   0  0  0  0  0  0  0  0  0  0  0  0
  140.3240   71.8930  224.7960 N   0  0  0  0  0  0  0  0  0  0  0  0
  137.8980   73.0550  223.1670 H   0  0  0  0  0  0  0  0  0  0  0  0
  138.6194   73.0598  220.2403 H   0  0  0  0  0  0  0  0  0  0  0  0
  137.2617   73.9572  221.0291 H   0  0  0  0  0  0  0  0  0  0  0  0
  140.3548   73.3466  219.1908 H   0  0  0  0  0  0  0  0  0  0  0  0
  140.2215   74.8947  218.3759 H   0  0  0  0  0  0  0  0  0  0  0  0
  142.6933   73.5522  219.5957 H   0  0  0  0  0  0  0  0  0  0  0  0
  142.6155   74.4108  218.0824 H   0  0  0  0  0  0  0  0  0  0  0  0
  143.5966   75.7015  220.1952 H   0  0  0  0  0  0  0  0  0  0  0  0
  142.4279   76.5975  219.2488 H   0  0  0  0  0  0  0  0  0  0  0  0
  141.9233   75.0568  221.9146 H   0  0  0  0  0  0  0  0  0  0  0  0
  142.0155   77.7900  219.5718 H   0  0  0  0  0  0  0  0  0  0  0  0
  141.8068   80.1740  220.1974 H   0  0  0  0  0  0  0  0  0  0  0  0
  140.6366   78.9646  224.1696 H   0  0  0  0  0  0  0  0  0  0  0  0
  140.8529   76.5836  223.5150 H   0  0  0  0  0  0  0  0  0  0  0  0
  139.0665   69.4642  222.8611 H   0  0  0  0  0  0  0  0  0  0  0  0
  139.3668   68.1675  224.9760 H   0  0  0  0  0  0  0  0  0  0  0  0
  140.0932   68.1927  227.3280 H   0  0  0  0  0  0  0  0  0  0  0  0
  141.0165   69.4011  229.2584 H   0  0  0  0  0  0  0  0  0  0  0  0
  141.6239   71.8184  229.1030 H   0  0  0  0  0  0  0  0  0  0  0  0
  141.2786   73.0011  226.9213 H   0  0  0  0  0  0  0  0  0  0  0  0
  1  2  2  0
  2  3  1  0
  3  4  1  0
  4  5  1  0
  5  6  2  0
  5  7  1  0
  7  8  1  0
  8  9  1  0
  9 10  1  0
 10 11  1  0
 11 12  1  0
 12 13  2  0
 13 14  1  0
 14 15  2  0
 15 16  1  0
 16 17  1  0
 16 18  1  0
 16 19  1  0
 15 20  1  0
 20 21  2  0
  2 22  1  0
 22 23  2  0
 23 24  1  0
 24 25  2  0
 25 26  1  0
 26 27  2  0
 27 28  1  0
 28 29  2  0
 29 30  1  0
 30 31  2  0
 11  7  1  0
 21 12  1  0
 31 22  1  0
 30 25  1  0
  3 32  1  0
  4 33  1  0
  4 34  1  0
  8 35  1  0
  8 36  1  0
  9 37  1  0
  9 38  1  0
 10 39  1  0
 10 40  1  0
 11 41  1  1
 13 42  1  0
 14 43  1  0
 20 44  1  0
 21 45  1  0
 23 46  1  0
 24 47  1  0
 26 48  1  0
 27 49  1  0
 28 50  1  0
 29 51  1  0
M  END
>  <smiles>  (92) 
O=C(NCC(=O)N1CCCC1c1ccc(C(F)(F)F)cc1)c1ccc2ccccc2n1

>  <score_type>  (92) 
oracle

>  <origin>  (92) 
autodockgpu

>  <m_score__min__energy>  (92) 
-8.6199999999999992

>  <m_primary>  (92) 
energy

>  <rmsd>  (92) 
1.7014927219985008

>  <m_score__min__rmsd>  (92) 
1.7014927219985008

>  <meeko>  (92) 
{"free_energy": -8.07, "intermolecular_energy": -9.86, "internal_energy": -1.57, "cluster_size": 15, "cluster_id": 1, "rank_in_cluster": 11}

>  <energy>  (92) 
-7.3

>  <cluster_rmsd>  (92) 
0.96

>  <cluster>  (92) 
7

$$$$

     RDKit          3D

 51 54  0  0  0  0  0  0  0  0999 V2000
  139.0110   70.8130  221.5350 O   0  0  0  0  0  0  0  0  0  0  0  0
  139.3750   71.3010  222.6440 C   0  0  0  0  0  0  0  0  0  0  0  0
  139.6190   72.7060  222.7350 N   0  0  0  0  0  0  0  0  0  0  0  0
  139.4460   73.5540  221.5550 C   0  0  0  0  0  0  0  0  0  0  0  0
  139.5650   74.9890  221.9070 C   0  0  0  0  0  0  0  0  0  0  0  0
  140.7040   75.5200  222.1330 O   0  0  0  0  0  0  0  0  0  0  0  0
  138.4450   75.8640  222.0190 N   0  0  0  0  0  0  0  0  0  0  0  0
  137.1710   75.3580  222.5790 C   0  0  0  0  0  0  0  0  0  0  0  0
  136.1780   76.4610  222.2610 C   0  0  0  0  0  0  0  0  0  0  0  0
  137.0480   77.6800  222.3330 C   0  0  0  0  0  0  0  0  0  0  0  0
  138.3220   77.2280  221.6610 C   0  0  1  0  0  0  0  0  0  0  0  0
  139.3850   78.1320  222.1580 C   0  0  0  0  0  0  0  0  0  0  0  0
  140.5020   78.3270  221.3590 C   0  0  0  0  0  0  0  0  0  0  0  0
  141.5430   79.1490  221.7340 C   0  0  0  0  0  0  0  0  0  0  0  0
  141.4560   79.7980  222.9590 C   0  0  0  0  0  0  0  0  0  0  0  0
  142.5970   80.6740  223.3280 C   0  0  0  0  0  0  0  0  0  0  0  0
  142.1630   81.9750  223.0950 F   0  0  0  0  0  0  0  0  0  0  0  0
  143.6330   80.4670  222.4270 F   0  0  0  0  0  0  0  0  0  0  0  0
  143.0230   80.4880  224.6160 F   0  0  0  0  0  0  0  0  0  0  0  0
  140.3550   79.6190  223.7720 C   0  0  0  0  0  0  0  0  0  0  0  0
  139.3230   78.7880  223.3700 C   0  0  0  0  0  0  0  0  0  0  0  0
  139.5560   70.4830  223.8400 C   0  0  0  0  0  0  0  0  0  0  0  0
  139.1590   69.1700  223.8370 C   0  0  0  0  0  0  0  0  0  0  0  0
  139.3170   68.3610  224.9560 C   0  0  0  0  0  0  0  0  0  0  0  0
  139.8910   68.9350  226.0810 C   0  0  0  0  0  0  0  0  0  0  0  0
  140.0870   68.2100  227.2400 C   0  0  0  0  0  0  0  0  0  0  0  0
  140.6600   68.7980  228.3450 C   0  0  0  0  0  0  0  0  0  0  0  0
  141.0610   70.1340  228.3420 C   0  0  0  0  0  0  0  0  0  0  0  0
  140.8680   70.8660  227.1840 C   0  0  0  0  0  0  0  0  0  0  0  0
  140.2910   70.2600  226.0830 C   0  0  0  0  0  0  0  0  0  0  0  0
  140.1160   70.9930  224.9760 N   0  0  0  0  0  0  0  0  0  0  0  0
  139.9230   73.1090  223.6650 H   0  0  0  0  0  0  0  0  0  0  0  0
  140.2185   73.3006  220.8141 H   0  0  0  0  0  0  0  0  0  0  0  0
  138.4418   73.3776  221.1422 H   0  0  0  0  0  0  0  0  0  0  0  0
  136.8773   74.4141  222.0964 H   0  0  0  0  0  0  0  0  0  0  0  0
  137.2348   75.1375  223.6548 H   0  0  0  0  0  0  0  0  0  0  0  0
  135.7459   76.3350  221.2573 H   0  0  0  0  0  0  0  0  0  0  0  0
  135.3102   76.4901  222.9363 H   0  0  0  0  0  0  0  0  0  0  0  0
  136.5932   78.5229  221.7920 H   0  0  0  0  0  0  0  0  0  0  0  0
  137.2042   78.0410  223.3602 H   0  0  0  0  0  0  0  0  0  0  0  0
  138.3639   77.2852  220.5633 H   0  0  0  0  0  0  0  0  0  0  0  0
  140.5591   77.8070  220.3914 H   0  0  0  0  0  0  0  0  0  0  0  0
  142.4178   79.2871  221.0816 H   0  0  0  0  0  0  0  0  0  0  0  0
  140.2974   80.1372  224.7406 H   0  0  0  0  0  0  0  0  0  0  0  0
  138.4476   78.6499  224.0216 H   0  0  0  0  0  0  0  0  0  0  0  0
  138.7052   68.7478  222.9283 H   0  0  0  0  0  0  0  0  0  0  0  0
  138.9996   67.3078  224.9499 H   0  0  0  0  0  0  0  0  0  0  0  0
  139.7827   67.1537  227.2805 H   0  0  0  0  0  0  0  0  0  0  0  0
  140.8056   68.1978  229.2553 H   0  0  0  0  0  0  0  0  0  0  0  0
  141.5165   70.5914  229.2327 H   0  0  0  0  0  0  0  0  0  0  0  0
  141.1713   71.9224  227.1394 H   0  0  0  0  0  0  0  0  0  0  0  0
  1  2  2  0
  2  3  1  0
  3  4  1  0
  4  5  1  0
  5  6  2  0
  5  7  1  0
  7  8  1  0
  8  9  1  0
  9 10  1  0
 10 11  1  0
 11 12  1  0
 12 13  2  0
 13 14  1  0
 14 15  2  0
 15 16  1  0
 16 17  1  0
 16 18  1  0
 16 19  1  0
 15 20  1  0
 20 21  2  0
  2 22  1  0
 22 23  2  0
 23 24  1  0
 24 25  2  0
 25 26  1  0
 26 27  2  0
 27 28  1  0
 28 29  2  0
 29 30  1  0
 30 31  2  0
 11  7  1  0
 21 12  1  0
 31 22  1  0
 30 25  1  0
  3 32  1  0
  4 33  1  0
  4 34  1  0
  8 35  1  0
  8 36  1  0
  9 37  1  0
  9 38  1  0
 10 39  1  0
 10 40  1  0
 11 41  1  6
 13 42  1  0
 14 43  1  0
 20 44  1  0
 21 45  1  0
 23 46  1  0
 24 47  1  0
 26 48  1  0
 27 49  1  0
 28 50  1  0
 29 51  1  0
M  END
>  <smiles>  (93) 
O=C(NCC(=O)N1CCCC1c1ccc(C(F)(F)F)cc1)c1ccc2ccccc2n1

>  <score_type>  (93) 
oracle

>  <origin>  (93) 
autodockgpu

>  <m_score__min__energy>  (93) 
-8.6199999999999992

>  <m_primary>  (93) 
energy

>  <rmsd>  (93) 
2.8967433336333466

>  <m_score__min__rmsd>  (93) 
2.8967433336333466

>  <meeko>  (93) 
{"free_energy": -8.36, "intermolecular_energy": -10.15, "internal_energy": -1.57, "cluster_size": 15, "cluster_id": 1, "rank_in_cluster": 6}

>  <energy>  (93) 
-7.28

>  <cluster_rmsd>  (93) 
0.96

>  <cluster>  (93) 
7

$$$$

     RDKit          3D

 51 54  0  0  0  0  0  0  0  0999 V2000
  141.1760   71.5400  221.3940 O   0  0  0  0  0  0  0  0  0  0  0  0
  140.5420   71.9740  222.3990 C   0  0  0  0  0  0  0  0  0  0  0  0
  140.0780   73.3260  222.3930 N   0  0  0  0  0  0  0  0  0  0  0  0
  140.3390   74.1810  221.2350 C   0  0  0  0  0  0  0  0  0  0  0  0
  140.3550   75.6130  221.6220 C   0  0  0  0  0  0  0  0  0  0  0  0
  139.7730   76.0150  222.6850 O   0  0  0  0  0  0  0  0  0  0  0  0
  141.0030   76.6240  220.8540 N   0  0  0  0  0  0  0  0  0  0  0  0
  141.2460   76.4070  219.4090 C   0  0  0  0  0  0  0  0  0  0  0  0
  142.1880   77.5360  219.0320 C   0  0  0  0  0  0  0  0  0  0  0  0
  141.7410   78.6260  219.9610 C   0  0  0  0  0  0  0  0  0  0  0  0
  141.4950   77.8890  221.2550 C   0  0  1  0  0  0  0  0  0  0  0  0
  140.5620   78.7370  222.0330 C   0  0  0  0  0  0  0  0  0  0  0  0
  139.2480   78.8310  221.5980 C   0  0  0  0  0  0  0  0  0  0  0  0
  138.3070   79.5940  222.2540 C   0  0  0  0  0  0  0  0  0  0  0  0
  138.7030   80.2880  223.3910 C   0  0  0  0  0  0  0  0  0  0  0  0
  137.6600   81.0990  224.0700 C   0  0  0  0  0  0  0  0  0  0  0  0
  137.6650   82.3320  223.4260 F   0  0  0  0  0  0  0  0  0  0  0  0
  138.0690   81.3620  225.3700 F   0  0  0  0  0  0  0  0  0  0  0  0
  136.4250   80.5070  224.0550 F   0  0  0  0  0  0  0  0  0  0  0  0
  140.0040   80.2100  223.8430 C   0  0  0  0  0  0  0  0  0  0  0  0
  140.9300   79.4360  223.1650 C   0  0  0  0  0  0  0  0  0  0  0  0
  140.2640   71.1470  223.5690 C   0  0  0  0  0  0  0  0  0  0  0  0
  139.5680   69.9740  223.4270 C   0  0  0  0  0  0  0  0  0  0  0  0
  139.2850   69.1600  224.5180 C   0  0  0  0  0  0  0  0  0  0  0  0
  139.7350   69.5820  225.7600 C   0  0  0  0  0  0  0  0  0  0  0  0
  139.5010   68.8400  226.9020 C   0  0  0  0  0  0  0  0  0  0  0  0
  139.9580   69.2770  228.1250 C   0  0  0  0  0  0  0  0  0  0  0  0
  140.6650   70.4710  228.2640 C   0  0  0  0  0  0  0  0  0  0  0  0
  140.9040   71.2180  227.1240 C   0  0  0  0  0  0  0  0  0  0  0  0
  140.4380   70.7660  225.9030 C   0  0  0  0  0  0  0  0  0  0  0  0
  140.6830   71.5100  224.8170 N   0  0  0  0  0  0  0  0  0  0  0  0
  139.5480   73.6840  223.2360 H   0  0  0  0  0  0  0  0  0  0  0  0
  141.3153   73.9143  220.8041 H   0  0  0  0  0  0  0  0  0  0  0  0
  139.5366   74.0268  220.4986 H   0  0  0  0  0  0  0  0  0  0  0  0
  141.7157   75.4281  219.2324 H   0  0  0  0  0  0  0  0  0  0  0  0
  140.3201   76.4066  218.8152 H   0  0  0  0  0  0  0  0  0  0  0  0
  143.2374   77.2602  219.2126 H   0  0  0  0  0  0  0  0  0  0  0  0
  142.1514   77.8124  217.9679 H   0  0  0  0  0  0  0  0  0  0  0  0
  142.5249   79.3880  220.0828 H   0  0  0  0  0  0  0  0  0  0  0  0
  140.8571   79.1704  219.5972 H   0  0  0  0  0  0  0  0  0  0  0  0
  142.3611   77.7115  221.9096 H   0  0  0  0  0  0  0  0  0  0  0  0
  138.9467   78.2765  220.6971 H   0  0  0  0  0  0  0  0  0  0  0  0
  137.2713   79.6523  221.8881 H   0  0  0  0  0  0  0  0  0  0  0  0
  140.3062   80.7640  224.7440 H   0  0  0  0  0  0  0  0  0  0  0  0
  141.9658   79.3776  223.5307 H   0  0  0  0  0  0  0  0  0  0  0  0
  139.2257   69.6701  222.4268 H   0  0  0  0  0  0  0  0  0  0  0  0
  138.7268   68.2194  224.4008 H   0  0  0  0  0  0  0  0  0  0  0  0
  138.9455   67.8931  226.8334 H   0  0  0  0  0  0  0  0  0  0  0  0
  139.7597   68.6667  229.0184 H   0  0  0  0  0  0  0  0  0  0  0  0
  141.0213   70.8082  229.2485 H   0  0  0  0  0  0  0  0  0  0  0  0
  141.4607   72.1645  227.1885 H   0  0  0  0  0  0  0  0  0  0  0  0
  1  2  2  0
  2  3  1  0
  3  4  1  0
  4  5  1  0
  5  6  2  0
  5  7  1  0
  7  8  1  0
  8  9  1  0
  9 10  1  0
 10 11  1  0
 11 12  1  0
 12 13  2  0
 13 14  1  0
 14 15  2  0
 15 16  1  0
 16 17  1  0
 16 18  1  0
 16 19  1  0
 15 20  1  0
 20 21  2  0
  2 22  1  0
 22 23  2  0
 23 24  1  0
 24 25  2  0
 25 26  1  0
 26 27  2  0
 27 28  1  0
 28 29  2  0
 29 30  1  0
 30 31  2  0
 11  7  1  0
 21 12  1  0
 31 22  1  0
 30 25  1  0
  3 32  1  0
  4 33  1  0
  4 34  1  0
  8 35  1  0
  8 36  1  0
  9 37  1  0
  9 38  1  0
 10 39  1  0
 10 40  1  0
 11 41  1  1
 13 42  1  0
 14 43  1  0
 20 44  1  0
 21 45  1  0
 23 46  1  0
 24 47  1  0
 26 48  1  0
 27 49  1  0
 28 50  1  0
 29 51  1  0
M  END
>  <smiles>  (94) 
O=C(NCC(=O)N1CCCC1c1ccc(C(F)(F)F)cc1)c1ccc2ccccc2n1

>  <score_type>  (94) 
oracle

>  <origin>  (94) 
autodockgpu

>  <m_score__min__energy>  (94) 
-8.6199999999999992

>  <m_primary>  (94) 
energy

>  <rmsd>  (94) 
1.920512908210046

>  <m_score__min__rmsd>  (94) 
1.920512908210046

>  <meeko>  (94) 
{"free_energy": -8.24, "intermolecular_energy": -10.03, "internal_energy": -1.64, "cluster_size": 9, "cluster_id": 3, "rank_in_cluster": 3}

>  <energy>  (94) 
-7.23

>  <cluster_rmsd>  (94) 
0.98

>  <cluster>  (94) 
7

$$$$

     RDKit          3D

 51 54  0  0  0  0  0  0  0  0999 V2000
  140.0260   73.4460  222.3620 O   0  0  0  0  0  0  0  0  0  0  0  0
  140.3590   72.2280  222.4410 C   0  0  0  0  0  0  0  0  0  0  0  0
  140.9130   71.5870  221.2890 N   0  0  0  0  0  0  0  0  0  0  0  0
  141.0850   72.3400  220.0480 C   0  0  0  0  0  0  0  0  0  0  0  0
  142.3890   72.0330  219.4130 C   0  0  0  0  0  0  0  0  0  0  0  0
  142.4660   71.2420  218.4140 O   0  0  0  0  0  0  0  0  0  0  0  0
  143.6270   72.5830  219.8590 N   0  0  0  0  0  0  0  0  0  0  0  0
  144.9020   71.9900  219.3970 C   0  0  0  0  0  0  0  0  0  0  0  0
  145.9420   72.6350  220.2960 C   0  0  0  0  0  0  0  0  0  0  0  0
  145.3350   73.9850  220.5390 C   0  0  0  0  0  0  0  0  0  0  0  0
  143.8720   73.6690  220.7320 C   0  0  1  0  0  0  0  0  0  0  0  0
  143.1440   74.9240  220.4340 C   0  0  0  0  0  0  0  0  0  0  0  0
  143.6990   75.7980  219.5110 C   0  0  0  0  0  0  0  0  0  0  0  0
  143.0980   76.9900  219.1680 C   0  0  0  0  0  0  0  0  0  0  0  0
  141.8920   77.3140  219.7780 C   0  0  0  0  0  0  0  0  0  0  0  0
  141.2750   78.6060  219.3820 C   0  0  0  0  0  0  0  0  0  0  0  0
  142.1710   79.1920  218.4930 F   0  0  0  0  0  0  0  0  0  0  0  0
  141.2480   79.4480  220.4860 F   0  0  0  0  0  0  0  0  0  0  0  0
  140.0240   78.4620  218.8450 F   0  0  0  0  0  0  0  0  0  0  0  0
  141.3200   76.4610  220.7000 C   0  0  0  0  0  0  0  0  0  0  0  0
  141.9460   75.2700  221.0260 C   0  0  0  0  0  0  0  0  0  0  0  0
  140.2020   71.4480  223.6650 C   0  0  0  0  0  0  0  0  0  0  0  0
  139.5360   70.2490  223.6300 C   0  0  0  0  0  0  0  0  0  0  0  0
  139.3670   69.4790  224.7750 C   0  0  0  0  0  0  0  0  0  0  0  0
  139.9000   69.9700  225.9570 C   0  0  0  0  0  0  0  0  0  0  0  0
  139.7810   69.2750  227.1450 C   0  0  0  0  0  0  0  0  0  0  0  0
  140.3180   69.7800  228.3080 C   0  0  0  0  0  0  0  0  0  0  0  0
  140.9950   70.9990  228.3370 C   0  0  0  0  0  0  0  0  0  0  0  0
  141.1180   71.7000  227.1500 C   0  0  0  0  0  0  0  0  0  0  0  0
  140.5720   71.1800  225.9910 C   0  0  0  0  0  0  0  0  0  0  0  0
  140.7060   71.8800  224.8580 N   0  0  0  0  0  0  0  0  0  0  0  0
  141.1900   70.5680  221.3610 H   0  0  0  0  0  0  0  0  0  0  0  0
  140.2754   72.0751  219.3520 H   0  0  0  0  0  0  0  0  0  0  0  0
  141.0561   73.4139  220.2844 H   0  0  0  0  0  0  0  0  0  0  0  0
  144.8960   70.8974  219.5244 H   0  0  0  0  0  0  0  0  0  0  0  0
  145.0927   72.1659  218.3280 H   0  0  0  0  0  0  0  0  0  0  0  0
  146.0640   72.0749  221.2348 H   0  0  0  0  0  0  0  0  0  0  0  0
  146.9511   72.6700  219.8594 H   0  0  0  0  0  0  0  0  0  0  0  0
  145.7604   74.4537  221.4387 H   0  0  0  0  0  0  0  0  0  0  0  0
  145.5207   74.6975  219.7218 H   0  0  0  0  0  0  0  0  0  0  0  0
  143.5482   73.3618  221.7374 H   0  0  0  0  0  0  0  0  0  0  0  0
  144.6539   75.5300  219.0353 H   0  0  0  0  0  0  0  0  0  0  0  0
  143.5596   77.6654  218.4326 H   0  0  0  0  0  0  0  0  0  0  0  0
  140.3652   76.7279  221.1766 H   0  0  0  0  0  0  0  0  0  0  0  0
  141.4854   74.5946  221.7620 H   0  0  0  0  0  0  0  0  0  0  0  0
  139.1266   69.8890  222.6746 H   0  0  0  0  0  0  0  0  0  0  0  0
  138.8318   68.5185  224.7445 H   0  0  0  0  0  0  0  0  0  0  0  0
  139.2529   68.3102  227.1620 H   0  0  0  0  0  0  0  0  0  0  0  0
  140.2100   69.2060  229.2401 H   0  0  0  0  0  0  0  0  0  0  0  0
  141.4179   71.3909  229.2738 H   0  0  0  0  0  0  0  0  0  0  0  0
  141.6466   72.6644  227.1288 H   0  0  0  0  0  0  0  0  0  0  0  0
  1  2  2  0
  2  3  1  0
  3  4  1  0
  4  5  1  0
  5  6  2  0
  5  7  1  0
  7  8  1  0
  8  9  1  0
  9 10  1  0
 10 11  1  0
 11 12  1  0
 12 13  2  0
 13 14  1  0
 14 15  2  0
 15 16  1  0
 16 17  1  0
 16 18  1  0
 16 19  1  0
 15 20  1  0
 20 21  2  0
  2 22  1  0
 22 23  2  0
 23 24  1  0
 24 25  2  0
 25 26  1  0
 26 27  2  0
 27 28  1  0
 28 29  2  0
 29 30  1  0
 30 31  2  0
 11  7  1  0
 21 12  1  0
 31 22  1  0
 30 25  1  0
  3 32  1  0
  4 33  1  0
  4 34  1  0
  8 35  1  0
  8 36  1  0
  9 37  1  0
  9 38  1  0
 10 39  1  0
 10 40  1  0
 11 41  1  1
 13 42  1  0
 14 43  1  0
 20 44  1  0
 21 45  1  0
 23 46  1  0
 24 47  1  0
 26 48  1  0
 27 49  1  0
 28 50  1  0
 29 51  1  0
M  END
>  <smiles>  (95) 
O=C(NCC(=O)N1CCCC1c1ccc(C(F)(F)F)cc1)c1ccc2ccccc2n1

>  <score_type>  (95) 
oracle

>  <origin>  (95) 
autodockgpu

>  <m_score__min__energy>  (95) 
-8.6199999999999992

>  <m_primary>  (95) 
energy

>  <rmsd>  (95) 
3.984457016616087

>  <m_score__min__rmsd>  (95) 
3.984457016616087

>  <meeko>  (95) 
{"free_energy": -8.09, "intermolecular_energy": -9.88, "internal_energy": -1.54, "cluster_size": 1, "cluster_id": 5, "rank_in_cluster": 1}

>  <energy>  (95) 
-7.12

>  <cluster_rmsd>  (95) 
0.85

>  <cluster>  (95) 
7

$$$$

     RDKit          3D

 51 54  0  0  0  0  0  0  0  0999 V2000
  141.3570   72.1500  221.6100 O   0  0  0  0  0  0  0  0  0  0  0  0
  140.4640   72.3770  222.4770 C   0  0  0  0  0  0  0  0  0  0  0  0
  139.6090   73.5100  222.3090 N   0  0  0  0  0  0  0  0  0  0  0  0
  139.7760   74.3840  221.1480 C   0  0  0  0  0  0  0  0  0  0  0  0
  140.2370   75.7330  221.5570 C   0  0  0  0  0  0  0  0  0  0  0  0
  139.9630   76.2000  222.7140 O   0  0  0  0  0  0  0  0  0  0  0  0
  141.0000   76.5900  220.7120 N   0  0  0  0  0  0  0  0  0  0  0  0
  141.1880   78.0110  221.0850 C   0  0  0  0  0  0  0  0  0  0  0  0
  141.7730   78.6350  219.8310 C   0  0  0  0  0  0  0  0  0  0  0  0
  142.5620   77.4920  219.2650 C   0  0  0  0  0  0  0  0  0  0  0  0
  141.6530   76.3090  219.4890 C   0  0  1  0  0  0  0  0  0  0  0  0
  142.5300   75.1150  219.4760 C   0  0  0  0  0  0  0  0  0  0  0  0
  143.7580   75.2010  220.1160 C   0  0  0  0  0  0  0  0  0  0  0  0
  144.6430   74.1450  220.1580 C   0  0  0  0  0  0  0  0  0  0  0  0
  144.2780   72.9590  219.5330 C   0  0  0  0  0  0  0  0  0  0  0  0
  145.2580   71.8450  219.6010 C   0  0  0  0  0  0  0  0  0  0  0  0
  146.2950   72.3060  220.4060 F   0  0  0  0  0  0  0  0  0  0  0  0
  145.8210   71.6640  218.3450 F   0  0  0  0  0  0  0  0  0  0  0  0
  144.7140   70.6780  220.0670 F   0  0  0  0  0  0  0  0  0  0  0  0
  143.0620   72.8500  218.8900 C   0  0  0  0  0  0  0  0  0  0  0  0
  142.1910   73.9260  218.8630 C   0  0  0  0  0  0  0  0  0  0  0  0
  140.2690   71.5240  223.6460 C   0  0  0  0  0  0  0  0  0  0  0  0
  139.6100   70.3280  223.5180 C   0  0  0  0  0  0  0  0  0  0  0  0
  139.4070   69.4900  224.6080 C   0  0  0  0  0  0  0  0  0  0  0  0
  139.8980   69.9120  225.8350 C   0  0  0  0  0  0  0  0  0  0  0  0
  139.7430   69.1460  226.9740 C   0  0  0  0  0  0  0  0  0  0  0  0
  140.2380   69.5820  228.1820 C   0  0  0  0  0  0  0  0  0  0  0  0
  140.9080   70.7990  228.3070 C   0  0  0  0  0  0  0  0  0  0  0  0
  141.0670   71.5700  227.1690 C   0  0  0  0  0  0  0  0  0  0  0  0
  140.5630   71.1180  225.9630 C   0  0  0  0  0  0  0  0  0  0  0  0
  140.7310   71.8860  224.8790 N   0  0  0  0  0  0  0  0  0  0  0  0
  138.8630   73.6950  223.0370 H   0  0  0  0  0  0  0  0  0  0  0  0
  140.5193   73.9410  220.4688 H   0  0  0  0  0  0  0  0  0  0  0  0
  138.8035   74.4851  220.6440 H   0  0  0  0  0  0  0  0  0  0  0  0
  140.2272   78.4792  221.3451 H   0  0  0  0  0  0  0  0  0  0  0  0
  141.8326   78.1396  221.9670 H   0  0  0  0  0  0  0  0  0  0  0  0
  140.9828   78.9594  219.1379 H   0  0  0  0  0  0  0  0  0  0  0  0
  142.3687   79.5407  220.0180 H   0  0  0  0  0  0  0  0  0  0  0  0
  142.7605   77.6408  218.1933 H   0  0  0  0  0  0  0  0  0  0  0  0
  143.5507   77.3739  219.7325 H   0  0  0  0  0  0  0  0  0  0  0  0
  140.8732   76.1208  218.7364 H   0  0  0  0  0  0  0  0  0  0  0  0
  144.0352   76.1453  220.6073 H   0  0  0  0  0  0  0  0  0  0  0  0
  145.6111   74.2386  220.6719 H   0  0  0  0  0  0  0  0  0  0  0  0
  142.7840   71.9063  218.3978 H   0  0  0  0  0  0  0  0  0  0  0  0
  141.2226   73.8325  218.3497 H   0  0  0  0  0  0  0  0  0  0  0  0
  139.2335   70.0251  222.5299 H   0  0  0  0  0  0  0  0  0  0  0  0
  138.8785   68.5311  224.5021 H   0  0  0  0  0  0  0  0  0  0  0  0
  139.2199   68.1801  226.9151 H   0  0  0  0  0  0  0  0  0  0  0  0
  140.1014   68.9530  229.0740 H   0  0  0  0  0  0  0  0  0  0  0  0
  141.2976   71.1351  229.2792 H   0  0  0  0  0  0  0  0  0  0  0  0
  141.5907   72.5358  227.2232 H   0  0  0  0  0  0  0  0  0  0  0  0
  1  2  2  0
  2  3  1  0
  3  4  1  0
  4  5  1  0
  5  6  2  0
  5  7  1  0
  7  8  1  0
  8  9  1  0
  9 10  1  0
 10 11  1  0
 11 12  1  0
 12 13  2  0
 13 14  1  0
 14 15  2  0
 15 16  1  0
 16 17  1  0
 16 18  1  0
 16 19  1  0
 15 20  1  0
 20 21  2  0
  2 22  1  0
 22 23  2  0
 23 24  1  0
 24 25  2  0
 25 26  1  0
 26 27  2  0
 27 28  1  0
 28 29  2  0
 29 30  1  0
 30 31  2  0
 11  7  1  0
 21 12  1  0
 31 22  1  0
 30 25  1  0
  3 32  1  0
  4 33  1  0
  4 34  1  0
  8 35  1  0
  8 36  1  0
  9 37  1  0
  9 38  1  0
 10 39  1  0
 10 40  1  0
 11 41  1  6
 13 42  1  0
 14 43  1  0
 20 44  1  0
 21 45  1  0
 23 46  1  0
 24 47  1  0
 26 48  1  0
 27 49  1  0
 28 50  1  0
 29 51  1  0
M  END
>  <smiles>  (96) 
O=C(NCC(=O)N1CCCC1c1ccc(C(F)(F)F)cc1)c1ccc2ccccc2n1

>  <score_type>  (96) 
oracle

>  <origin>  (96) 
autodockgpu

>  <m_score__min__energy>  (96) 
-8.6199999999999992

>  <m_primary>  (96) 
energy

>  <rmsd>  (96) 
2.3090480603543826

>  <m_score__min__rmsd>  (96) 
2.3090480603543826

>  <meeko>  (96) 
{"free_energy": -8.2, "intermolecular_energy": -9.99, "internal_energy": -1.78, "cluster_size": 12, "cluster_id": 4, "rank_in_cluster": 2}

>  <energy>  (96) 
-6.93

>  <cluster_rmsd>  (96) 
0.0

>  <cluster>  (96) 
8

$$$$

     RDKit          3D

 51 54  0  0  0  0  0  0  0  0999 V2000
  140.1760   77.5230  218.9120 O   0  0  0  0  0  0  0  0  0  0  0  0
  141.3820   77.3620  219.2550 C   0  0  0  0  0  0  0  0  0  0  0  0
  142.2140   78.5130  219.4220 N   0  0  0  0  0  0  0  0  0  0  0  0
  141.6630   79.8490  219.1970 C   0  0  0  0  0  0  0  0  0  0  0  0
  141.1050   80.4150  220.4490 C   0  0  0  0  0  0  0  0  0  0  0  0
  140.1060   81.2090  220.4250 O   0  0  0  0  0  0  0  0  0  0  0  0
  141.6310   80.1240  221.7420 N   0  0  0  0  0  0  0  0  0  0  0  0
  142.1050   81.2290  222.6070 C   0  0  0  0  0  0  0  0  0  0  0  0
  142.8400   80.5150  223.7270 C   0  0  0  0  0  0  0  0  0  0  0  0
  142.0590   79.2400  223.8350 C   0  0  0  0  0  0  0  0  0  0  0  0
  141.7960   78.8790  222.3930 C   0  0  1  0  0  0  0  0  0  0  0  0
  140.6140   77.9870  222.4070 C   0  0  0  0  0  0  0  0  0  0  0  0
  139.3570   78.5690  222.4950 C   0  0  0  0  0  0  0  0  0  0  0  0
  138.1990   77.8230  222.5150 C   0  0  0  0  0  0  0  0  0  0  0  0
  138.3090   76.4390  222.4440 C   0  0  0  0  0  0  0  0  0  0  0  0
  137.0380   75.6710  222.4690 C   0  0  0  0  0  0  0  0  0  0  0  0
  136.5710   75.7610  223.7760 F   0  0  0  0  0  0  0  0  0  0  0  0
  137.3210   74.3260  222.2720 F   0  0  0  0  0  0  0  0  0  0  0  0
  136.1220   76.1180  221.5540 F   0  0  0  0  0  0  0  0  0  0  0  0
  139.5480   75.8370  222.3560 C   0  0  0  0  0  0  0  0  0  0  0  0
  140.6960   76.6110  222.3380 C   0  0  0  0  0  0  0  0  0  0  0  0
  141.9640   76.0430  219.4880 C   0  0  0  0  0  0  0  0  0  0  0  0
  141.2000   74.9180  219.3090 C   0  0  0  0  0  0  0  0  0  0  0  0
  141.7190   73.6460  219.5200 C   0  0  0  0  0  0  0  0  0  0  0  0
  143.0440   73.5580  219.9220 C   0  0  0  0  0  0  0  0  0  0  0  0
  143.6460   72.3370  220.1570 C   0  0  0  0  0  0  0  0  0  0  0  0
  144.9620   72.2710  220.5540 C   0  0  0  0  0  0  0  0  0  0  0  0
  145.7350   73.4190  220.7350 C   0  0  0  0  0  0  0  0  0  0  0  0
  145.1370   74.6450  220.5000 C   0  0  0  0  0  0  0  0  0  0  0  0
  143.8140   74.6940  220.1020 C   0  0  0  0  0  0  0  0  0  0  0  0
  143.2620   75.8940  219.8830 N   0  0  0  0  0  0  0  0  0  0  0  0
  143.2230   78.3720  219.7080 H   0  0  0  0  0  0  0  0  0  0  0  0
  142.4618   80.5096  218.8290 H   0  0  0  0  0  0  0  0  0  0  0  0
  140.8527   79.7723  218.4571 H   0  0  0  0  0  0  0  0  0  0  0  0
  142.7831   81.8966  222.0552 H   0  0  0  0  0  0  0  0  0  0  0  0
  141.2869   81.8677  222.9715 H   0  0  0  0  0  0  0  0  0  0  0  0
  143.8892   80.3216  223.4592 H   0  0  0  0  0  0  0  0  0  0  0  0
  142.8929   81.0882  224.6643 H   0  0  0  0  0  0  0  0  0  0  0  0
  142.6469   78.4577  224.3374 H   0  0  0  0  0  0  0  0  0  0  0  0
  141.1398   79.3441  224.4302 H   0  0  0  0  0  0  0  0  0  0  0  0
  142.5835   78.3294  221.8566 H   0  0  0  0  0  0  0  0  0  0  0  0
  139.2828   79.6651  222.5508 H   0  0  0  0  0  0  0  0  0  0  0  0
  137.2147   78.3090  222.5852 H   0  0  0  0  0  0  0  0  0  0  0  0
  139.6235   74.7410  222.3001 H   0  0  0  0  0  0  0  0  0  0  0  0
  141.6806   76.1256  222.2682 H   0  0  0  0  0  0  0  0  0  0  0  0
  140.1524   75.0249  218.9911 H   0  0  0  0  0  0  0  0  0  0  0  0
  141.1042   72.7456  219.3742 H   0  0  0  0  0  0  0  0  0  0  0  0
  143.0687   71.4099  220.0257 H   0  0  0  0  0  0  0  0  0  0  0  0
  145.4175   71.2860  220.7337 H   0  0  0  0  0  0  0  0  0  0  0  0
  146.7855   73.3516  221.0541 H   0  0  0  0  0  0  0  0  0  0  0  0
  145.7109   75.5745  220.6291 H   0  0  0  0  0  0  0  0  0  0  0  0
  1  2  2  0
  2  3  1  0
  3  4  1  0
  4  5  1  0
  5  6  2  0
  5  7  1  0
  7  8  1  0
  8  9  1  0
  9 10  1  0
 10 11  1  0
 11 12  1  0
 12 13  2  0
 13 14  1  0
 14 15  2  0
 15 16  1  0
 16 17  1  0
 16 18  1  0
 16 19  1  0
 15 20  1  0
 20 21  2  0
  2 22  1  0
 22 23  2  0
 23 24  1  0
 24 25  2  0
 25 26  1  0
 26 27  2  0
 27 28  1  0
 28 29  2  0
 29 30  1  0
 30 31  2  0
 11  7  1  0
 21 12  1  0
 31 22  1  0
 30 25  1  0
  3 32  1  0
  4 33  1  0
  4 34  1  0
  8 35  1  0
  8 36  1  0
  9 37  1  0
  9 38  1  0
 10 39  1  0
 10 40  1  0
 11 41  1  6
 13 42  1  0
 14 43  1  0
 20 44  1  0
 21 45  1  0
 23 46  1  0
 24 47  1  0
 26 48  1  0
 27 49  1  0
 28 50  1  0
 29 51  1  0
M  END
>  <smiles>  (97) 
O=C(NCC(=O)N1CCCC1c1ccc(C(F)(F)F)cc1)c1ccc2ccccc2n1

>  <score_type>  (97) 
oracle

>  <origin>  (97) 
autodockgpu

>  <m_score__min__energy>  (97) 
-8.6199999999999992

>  <m_primary>  (97) 
energy

>  <rmsd>  (97) 
7.438284648875055

>  <m_score__min__rmsd>  (97) 
7.438284648875055

>  <meeko>  (97) 
{"free_energy": -6.92, "intermolecular_energy": -8.71, "internal_energy": -2.68, "cluster_size": 5, "cluster_id": 8, "rank_in_cluster": 3}

>  <energy>  (97) 
-6.93

>  <cluster_rmsd>  (97) 
0.16

>  <cluster>  (97) 
8

$$$$

     RDKit          3D

 51 54  0  0  0  0  0  0  0  0999 V2000
  138.3820   70.8320  221.7450 O   0  0  0  0  0  0  0  0  0  0  0  0
  138.9900   71.2750  222.7620 C   0  0  0  0  0  0  0  0  0  0  0  0
  139.3960   72.6460  222.7820 N   0  0  0  0  0  0  0  0  0  0  0  0
  139.1050   73.5090  221.6380 C   0  0  0  0  0  0  0  0  0  0  0  0
  139.2800   74.9390  221.9900 C   0  0  0  0  0  0  0  0  0  0  0  0
  140.4370   75.4190  222.2400 O   0  0  0  0  0  0  0  0  0  0  0  0
  138.1990   75.8640  222.0750 N   0  0  0  0  0  0  0  0  0  0  0  0
  136.8990   75.4230  222.6310 C   0  0  0  0  0  0  0  0  0  0  0  0
  135.9580   76.5630  222.2840 C   0  0  0  0  0  0  0  0  0  0  0  0
  136.8800   77.7440  222.3420 C   0  0  0  0  0  0  0  0  0  0  0  0
  138.1390   77.2240  221.6920 C   0  0  1  0  0  0  0  0  0  0  0  0
  139.2360   78.0900  222.1820 C   0  0  0  0  0  0  0  0  0  0  0  0
  140.3880   78.1820  221.4150 C   0  0  0  0  0  0  0  0  0  0  0  0
  141.4620   78.9610  221.7880 C   0  0  0  0  0  0  0  0  0  0  0  0
  141.3730   79.6740  222.9770 C   0  0  0  0  0  0  0  0  0  0  0  0
  142.5510   80.5010  223.3440 C   0  0  0  0  0  0  0  0  0  0  0  0
  142.1870   81.8160  223.0680 F   0  0  0  0  0  0  0  0  0  0  0  0
  143.5910   80.2170  222.4690 F   0  0  0  0  0  0  0  0  0  0  0  0
  142.9430   80.3300  224.6450 F   0  0  0  0  0  0  0  0  0  0  0  0
  140.2370   79.5980  223.7570 C   0  0  0  0  0  0  0  0  0  0  0  0
  139.1720   78.8090  223.3590 C   0  0  0  0  0  0  0  0  0  0  0  0
  139.2960   70.4410  223.9210 C   0  0  0  0  0  0  0  0  0  0  0  0
  138.9870   69.1040  223.9010 C   0  0  0  0  0  0  0  0  0  0  0  0
  139.2640   68.2790  224.9840 C   0  0  0  0  0  0  0  0  0  0  0  0
  139.8650   68.8610  226.0910 C   0  0  0  0  0  0  0  0  0  0  0  0
  140.1770   68.1200  227.2140 C   0  0  0  0  0  0  0  0  0  0  0  0
  140.7740   68.7170  228.3020 C   0  0  0  0  0  0  0  0  0  0  0  0
  141.0860   70.0770  228.3160 C   0  0  0  0  0  0  0  0  0  0  0  0
  140.7760   70.8240  227.1930 C   0  0  0  0  0  0  0  0  0  0  0  0
  140.1760   70.2090  226.1100 C   0  0  0  0  0  0  0  0  0  0  0  0
  139.8880   70.9580  225.0370 N   0  0  0  0  0  0  0  0  0  0  0  0
  139.9040   73.0120  223.6360 H   0  0  0  0  0  0  0  0  0  0  0  0
  139.7881   73.2557  220.8139 H   0  0  0  0  0  0  0  0  0  0  0  0
  138.0593   73.3488  221.3365 H   0  0  0  0  0  0  0  0  0  0  0  0
  136.5690   74.4845  222.1616 H   0  0  0  0  0  0  0  0  0  0  0  0
  136.9430   75.2183  223.7109 H   0  0  0  0  0  0  0  0  0  0  0  0
  135.5292   76.4376  221.2788 H   0  0  0  0  0  0  0  0  0  0  0  0
  135.0868   76.6426  222.9508 H   0  0  0  0  0  0  0  0  0  0  0  0
  136.4678   78.5954  221.7805 H   0  0  0  0  0  0  0  0  0  0  0  0
  137.0422   78.1176  223.3638 H   0  0  0  0  0  0  0  0  0  0  0  0
  138.1933   77.2585  220.5939 H   0  0  0  0  0  0  0  0  0  0  0  0
  140.4465   77.6129  220.4755 H   0  0  0  0  0  0  0  0  0  0  0  0
  142.3646   79.0167  221.1617 H   0  0  0  0  0  0  0  0  0  0  0  0
  140.1779   80.1659  224.6972 H   0  0  0  0  0  0  0  0  0  0  0  0
  138.2687   78.7543  223.9843 H   0  0  0  0  0  0  0  0  0  0  0  0
  138.5093   68.6759  223.0074 H   0  0  0  0  0  0  0  0  0  0  0  0
  139.0168   67.2073  224.9647 H   0  0  0  0  0  0  0  0  0  0  0  0
  139.9469   67.0447  227.2396 H   0  0  0  0  0  0  0  0  0  0  0  0
  141.0115   68.1048  229.1845 H   0  0  0  0  0  0  0  0  0  0  0  0
  141.5632   70.5407  229.1919 H   0  0  0  0  0  0  0  0  0  0  0  0
  141.0054   71.8994  227.1623 H   0  0  0  0  0  0  0  0  0  0  0  0
  1  2  2  0
  2  3  1  0
  3  4  1  0
  4  5  1  0
  5  6  2  0
  5  7  1  0
  7  8  1  0
  8  9  1  0
  9 10  1  0
 10 11  1  0
 11 12  1  0
 12 13  2  0
 13 14  1  0
 14 15  2  0
 15 16  1  0
 16 17  1  0
 16 18  1  0
 16 19  1  0
 15 20  1  0
 20 21  2  0
  2 22  1  0
 22 23  2  0
 23 24  1  0
 24 25  2  0
 25 26  1  0
 26 27  2  0
 27 28  1  0
 28 29  2  0
 29 30  1  0
 30 31  2  0
 11  7  1  0
 21 12  1  0
 31 22  1  0
 30 25  1  0
  3 32  1  0
  4 33  1  0
  4 34  1  0
  8 35  1  0
  8 36  1  0
  9 37  1  0
  9 38  1  0
 10 39  1  0
 10 40  1  0
 11 41  1  6
 13 42  1  0
 14 43  1  0
 20 44  1  0
 21 45  1  0
 23 46  1  0
 24 47  1  0
 26 48  1  0
 27 49  1  0
 28 50  1  0
 29 51  1  0
M  END
>  <smiles>  (98) 
O=C(NCC(=O)N1CCCC1c1ccc(C(F)(F)F)cc1)c1ccc2ccccc2n1

>  <score_type>  (98) 
oracle

>  <origin>  (98) 
autodockgpu

>  <m_score__min__energy>  (98) 
-8.6199999999999992

>  <m_primary>  (98) 
energy

>  <rmsd>  (98) 
2.9712178802514524

>  <m_score__min__rmsd>  (98) 
2.9712178802514524

>  <meeko>  (98) 
{"free_energy": -8.3, "intermolecular_energy": -10.09, "internal_energy": -1.6, "cluster_size": 15, "cluster_id": 1, "rank_in_cluster": 9}

>  <energy>  (98) 
-6.92

>  <cluster_rmsd>  (98) 
0.06

>  <cluster>  (98) 
8

$$$$

     RDKit          3D

 51 54  0  0  0  0  0  0  0  0999 V2000
  140.2380   77.5440  218.8780 O   0  0  0  0  0  0  0  0  0  0  0  0
  141.4410   77.3800  219.2320 C   0  0  0  0  0  0  0  0  0  0  0  0
  142.2690   78.5310  219.4200 N   0  0  0  0  0  0  0  0  0  0  0  0
  141.7190   79.8680  219.2030 C   0  0  0  0  0  0  0  0  0  0  0  0
  141.0540   80.3780  220.4270 C   0  0  0  0  0  0  0  0  0  0  0  0
  139.9870   81.0760  220.3560 O   0  0  0  0  0  0  0  0  0  0  0  0
  141.5440   80.1350  221.7440 N   0  0  0  0  0  0  0  0  0  0  0  0
  141.9140   81.2770  222.6110 C   0  0  0  0  0  0  0  0  0  0  0  0
  142.6470   80.6240  223.7690 C   0  0  0  0  0  0  0  0  0  0  0  0
  141.9420   79.3030  223.8640 C   0  0  0  0  0  0  0  0  0  0  0  0
  141.7610   78.9100  222.4180 C   0  0  1  0  0  0  0  0  0  0  0  0
  140.6360   77.9460  222.3980 C   0  0  0  0  0  0  0  0  0  0  0  0
  139.3440   78.4490  222.4390 C   0  0  0  0  0  0  0  0  0  0  0  0
  138.2340   77.6320  222.4260 C   0  0  0  0  0  0  0  0  0  0  0  0
  138.4320   76.2580  222.3670 C   0  0  0  0  0  0  0  0  0  0  0  0
  137.2120   75.4120  222.3540 C   0  0  0  0  0  0  0  0  0  0  0  0
  136.4320   75.8940  221.3070 F   0  0  0  0  0  0  0  0  0  0  0  0
  136.4770   75.6640  223.5040 F   0  0  0  0  0  0  0  0  0  0  0  0
  137.4850   74.0760  222.2300 F   0  0  0  0  0  0  0  0  0  0  0  0
  139.7080   75.7340  222.3250 C   0  0  0  0  0  0  0  0  0  0  0  0
  140.8060   76.5780  222.3400 C   0  0  0  0  0  0  0  0  0  0  0  0
  142.0220   76.0600  219.4580 C   0  0  0  0  0  0  0  0  0  0  0  0
  141.2600   74.9360  219.2640 C   0  0  0  0  0  0  0  0  0  0  0  0
  141.7780   73.6630  219.4680 C   0  0  0  0  0  0  0  0  0  0  0  0
  143.1010   73.5720  219.8770 C   0  0  0  0  0  0  0  0  0  0  0  0
  143.7020   72.3500  220.1050 C   0  0  0  0  0  0  0  0  0  0  0  0
  145.0160   72.2810  220.5100 C   0  0  0  0  0  0  0  0  0  0  0  0
  145.7860   73.4270  220.7060 C   0  0  0  0  0  0  0  0  0  0  0  0
  145.1900   74.6550  220.4780 C   0  0  0  0  0  0  0  0  0  0  0  0
  143.8690   74.7070  220.0720 C   0  0  0  0  0  0  0  0  0  0  0  0
  143.3180   75.9090  219.8600 N   0  0  0  0  0  0  0  0  0  0  0  0
  143.2750   78.3890  219.7170 H   0  0  0  0  0  0  0  0  0  0  0  0
  142.5353   80.5515  218.9265 H   0  0  0  0  0  0  0  0  0  0  0  0
  140.9718   79.8115  218.3977 H   0  0  0  0  0  0  0  0  0  0  0  0
  142.5707   81.9791  222.0765 H   0  0  0  0  0  0  0  0  0  0  0  0
  141.0439   81.8672  222.9345 H   0  0  0  0  0  0  0  0  0  0  0  0
  143.7161   80.4935  223.5452 H   0  0  0  0  0  0  0  0  0  0  0  0
  142.6273   81.2103  224.6995 H   0  0  0  0  0  0  0  0  0  0  0  0
  142.5562   78.5648  224.4004 H   0  0  0  0  0  0  0  0  0  0  0  0
  140.9947   79.3562  224.4206 H   0  0  0  0  0  0  0  0  0  0  0  0
  142.6025   78.4052  221.9210 H   0  0  0  0  0  0  0  0  0  0  0  0
  139.2001   79.5386  222.4835 H   0  0  0  0  0  0  0  0  0  0  0  0
  137.2196   78.0560  222.4613 H   0  0  0  0  0  0  0  0  0  0  0  0
  139.8532   74.6446  222.2795 H   0  0  0  0  0  0  0  0  0  0  0  0
  141.8207   76.1547  222.3054 H   0  0  0  0  0  0  0  0  0  0  0  0
  140.2146   75.0450  218.9394 H   0  0  0  0  0  0  0  0  0  0  0  0
  141.1642   72.7636  219.3116 H   0  0  0  0  0  0  0  0  0  0  0  0
  143.1261   71.4238  219.9618 H   0  0  0  0  0  0  0  0  0  0  0  0
  145.4710   71.2947  220.6838 H   0  0  0  0  0  0  0  0  0  0  0  0
  146.8344   73.3571  221.0317 H   0  0  0  0  0  0  0  0  0  0  0  0
  145.7631   75.5833  220.6187 H   0  0  0  0  0  0  0  0  0  0  0  0
  1  2  2  0
  2  3  1  0
  3  4  1  0
  4  5  1  0
  5  6  2  0
  5  7  1  0
  7  8  1  0
  8  9  1  0
  9 10  1  0
 10 11  1  0
 11 12  1  0
 12 13  2  0
 13 14  1  0
 14 15  2  0
 15 16  1  0
 16 17  1  0
 16 18  1  0
 16 19  1  0
 15 20  1  0
 20 21  2  0
  2 22  1  0
 22 23  2  0
 23 24  1  0
 24 25  2  0
 25 26  1  0
 26 27  2  0
 27 28  1  0
 28 29  2  0
 29 30  1  0
 30 31  2  0
 11  7  1  0
 21 12  1  0
 31 22  1  0
 30 25  1  0
  3 32  1  0
  4 33  1  0
  4 34  1  0
  8 35  1  0
  8 36  1  0
  9 37  1  0
  9 38  1  0
 10 39  1  0
 10 40  1  0
 11 41  1  6
 13 42  1  0
 14 43  1  0
 20 44  1  0
 21 45  1  0
 23 46  1  0
 24 47  1  0
 26 48  1  0
 27 49  1  0
 28 50  1  0
 29 51  1  0
M  END
>  <smiles>  (99) 
O=C(NCC(=O)N1CCCC1c1ccc(C(F)(F)F)cc1)c1ccc2ccccc2n1

>  <score_type>  (99) 
oracle

>  <origin>  (99) 
autodockgpu

>  <m_score__min__energy>  (99) 
-8.6199999999999992

>  <m_primary>  (99) 
energy

>  <rmsd>  (99) 
7.473964291464641

>  <m_score__min__rmsd>  (99) 
7.473964291464641

>  <meeko>  (99) 
{"free_energy": -6.88, "intermolecular_energy": -8.67, "internal_energy": -2.73, "cluster_size": 5, "cluster_id": 8, "rank_in_cluster": 4}

>  <energy>  (99) 
-6.88

>  <cluster_rmsd>  (99) 
0.18

>  <cluster>  (99) 
8

$$$$

     RDKit          3D

 51 54  0  0  0  0  0  0  0  0999 V2000
  140.0860   74.3460  222.3370 O   0  0  0  0  0  0  0  0  0  0  0  0
  140.3360   75.3610  221.6250 C   0  0  0  0  0  0  0  0  0  0  0  0
  140.6790   75.1730  220.2490 N   0  0  0  0  0  0  0  0  0  0  0  0
  140.7360   73.8240  219.6900 C   0  0  0  0  0  0  0  0  0  0  0  0
  141.6990   72.9770  220.4340 C   0  0  0  0  0  0  0  0  0  0  0  0
  141.3140   71.9280  221.0520 O   0  0  0  0  0  0  0  0  0  0  0  0
  143.0930   73.2630  220.5170 N   0  0  0  0  0  0  0  0  0  0  0  0
  144.0640   72.1530  220.6580 C   0  0  0  0  0  0  0  0  0  0  0  0
  145.3630   72.8570  221.0060 C   0  0  0  0  0  0  0  0  0  0  0  0
  145.2130   74.1520  220.2630 C   0  0  0  0  0  0  0  0  0  0  0  0
  143.7650   74.5090  220.4930 C   0  0  1  0  0  0  0  0  0  0  0  0
  143.3950   75.4290  219.3930 C   0  0  0  0  0  0  0  0  0  0  0  0
  143.0910   76.7440  219.7150 C   0  0  0  0  0  0  0  0  0  0  0  0
  142.7350   77.6740  218.7620 C   0  0  0  0  0  0  0  0  0  0  0  0
  142.6840   77.2650  217.4350 C   0  0  0  0  0  0  0  0  0  0  0  0
  142.2970   78.2960  216.4380 C   0  0  0  0  0  0  0  0  0  0  0  0
  142.5330   79.5210  217.0540 F   0  0  0  0  0  0  0  0  0  0  0  0
  140.9230   78.2410  216.2440 F   0  0  0  0  0  0  0  0  0  0  0  0
  142.9650   78.1720  215.2500 F   0  0  0  0  0  0  0  0  0  0  0  0
  142.9820   75.9630  217.0900 C   0  0  0  0  0  0  0  0  0  0  0  0
  143.3370   75.0490  218.0670 C   0  0  0  0  0  0  0  0  0  0  0  0
  140.2870   76.7210  222.1520 C   0  0  0  0  0  0  0  0  0  0  0  0
  139.0820   77.2760  222.5010 C   0  0  0  0  0  0  0  0  0  0  0  0
  138.9960   78.5680  223.0070 C   0  0  0  0  0  0  0  0  0  0  0  0
  140.1810   79.2770  223.1450 C   0  0  0  0  0  0  0  0  0  0  0  0
  140.1940   80.5670  223.6380 C   0  0  0  0  0  0  0  0  0  0  0  0
  141.3800   81.2540  223.7670 C   0  0  0  0  0  0  0  0  0  0  0  0
  142.6030   80.6850  223.4100 C   0  0  0  0  0  0  0  0  0  0  0  0
  142.5960   79.3920  222.9160 C   0  0  0  0  0  0  0  0  0  0  0  0
  141.3960   78.7170  222.7920 C   0  0  0  0  0  0  0  0  0  0  0  0
  141.4190   77.4670  222.3100 N   0  0  0  0  0  0  0  0  0  0  0  0
  140.8860   76.0260  219.6580 H   0  0  0  0  0  0  0  0  0  0  0  0
  139.7366   73.3683  219.7492 H   0  0  0  0  0  0  0  0  0  0  0  0
  141.0684   73.8936  218.6437 H   0  0  0  0  0  0  0  0  0  0  0  0
  143.7616   71.4665  221.4625 H   0  0  0  0  0  0  0  0  0  0  0  0
  144.1421   71.5357  219.7509 H   0  0  0  0  0  0  0  0  0  0  0  0
  145.4513   73.0239  222.0897 H   0  0  0  0  0  0  0  0  0  0  0  0
  146.2658   72.2889  220.7371 H   0  0  0  0  0  0  0  0  0  0  0  0
  145.8806   74.9235  220.6742 H   0  0  0  0  0  0  0  0  0  0  0  0
  145.4765   74.0739  219.1979 H   0  0  0  0  0  0  0  0  0  0  0  0
  143.5152   75.0353  221.4260 H   0  0  0  0  0  0  0  0  0  0  0  0
  143.1357   77.0556  220.7690 H   0  0  0  0  0  0  0  0  0  0  0  0
  142.4980   78.7105  219.0439 H   0  0  0  0  0  0  0  0  0  0  0  0
  142.9374   75.6505  216.0363 H   0  0  0  0  0  0  0  0  0  0  0  0
  143.5746   74.0127  217.7850 H   0  0  0  0  0  0  0  0  0  0  0  0
  138.1625   76.6850  222.3776 H   0  0  0  0  0  0  0  0  0  0  0  0
  138.0284   79.0102  223.2865 H   0  0  0  0  0  0  0  0  0  0  0  0
  139.2494   81.0493  223.9298 H   0  0  0  0  0  0  0  0  0  0  0  0
  141.3630   82.2803  224.1626 H   0  0  0  0  0  0  0  0  0  0  0  0
  143.5429   81.2462  223.5177 H   0  0  0  0  0  0  0  0  0  0  0  0
  143.5383   78.9052  222.6243 H   0  0  0  0  0  0  0  0  0  0  0  0
  1  2  2  0
  2  3  1  0
  3  4  1  0
  4  5  1  0
  5  6  2  0
  5  7  1  0
  7  8  1  0
  8  9  1  0
  9 10  1  0
 10 11  1  0
 11 12  1  0
 12 13  2  0
 13 14  1  0
 14 15  2  0
 15 16  1  0
 16 17  1  0
 16 18  1  0
 16 19  1  0
 15 20  1  0
 20 21  2  0
  2 22  1  0
 22 23  2  0
 23 24  1  0
 24 25  2  0
 25 26  1  0
 26 27  2  0
 27 28  1  0
 28 29  2  0
 29 30  1  0
 30 31  2  0
 11  7  1  0
 21 12  1  0
 31 22  1  0
 30 25  1  0
  3 32  1  0
  4 33  1  0
  4 34  1  0
  8 35  1  0
  8 36  1  0
  9 37  1  0
  9 38  1  0
 10 39  1  0
 10 40  1  0
 11 41  1  1
 13 42  1  0
 14 43  1  0
 20 44  1  0
 21 45  1  0
 23 46  1  0
 24 47  1  0
 26 48  1  0
 27 49  1  0
 28 50  1  0
 29 51  1  0
M  END
>  <smiles>  (100) 
O=C(NCC(=O)N1CCCC1c1ccc(C(F)(F)F)cc1)c1ccc2ccccc2n1

>  <score_type>  (100) 
oracle

>  <origin>  (100) 
autodockgpu

>  <m_score__min__energy>  (100) 
-8.6199999999999992

>  <m_primary>  (100) 
energy

>  <rmsd>  (100) 
7.574112797164514

>  <m_score__min__rmsd>  (100) 
7.574112797164514

>  <meeko>  (100) 
{"free_energy": -7.3, "intermolecular_energy": -9.09, "internal_energy": -1.96, "cluster_size": 5, "cluster_id": 7, "rank_in_cluster": 1}

>  <energy>  (100) 
-6.87

>  <cluster_rmsd>  (100) 
0.23

>  <cluster>  (100) 
8

$$$$
