
     RDKit          3D

 54 58  0  0  0  0  0  0  0  0999 V2000
  138.5330   69.4330  221.6610 O   0  0  0  0  0  0  0  0  0  0  0  0
  139.1780   70.3340  222.2690 C   0  0  0  0  0  0  0  0  0  0  0  0
  139.5400   71.5400  221.5090 C   0  0  0  0  0  0  0  0  0  0  0  0
  140.2970   72.5150  222.3480 C   0  0  0  0  0  0  0  0  0  0  0  0
  140.7280   73.7720  221.7420 C   0  0  0  0  0  0  0  0  0  0  0  0
  141.8530   73.7930  220.9300 C   0  0  0  0  0  0  0  0  0  0  0  0
  142.2130   75.0270  220.3780 C   0  0  0  0  0  0  0  0  0  0  0  0
  141.4940   76.1790  220.6200 C   0  0  0  0  0  0  0  0  0  0  0  0
  140.3820   76.1510  221.4240 C   0  0  0  0  0  0  0  0  0  0  0  0
  139.5550   77.2960  221.7390 C   0  0  0  0  0  0  0  0  0  0  0  0
  138.8060   77.1710  222.7730 O   0  0  0  0  0  0  0  0  0  0  0  0
  139.5250   78.4980  221.0020 N   0  0  0  0  0  0  0  0  0  0  0  0
  140.3240   78.7670  219.8290 C   0  0  0  0  0  0  0  0  0  0  0  0
  141.2960   79.8750  220.1720 C   0  0  0  0  0  0  0  0  0  0  0  0
  140.8060   80.6390  221.2340 N   0  0  0  0  0  0  0  0  0  0  0  0
  141.6360   81.4520  222.0110 C   0  0  0  0  0  0  0  0  0  0  0  0
  142.2060   80.8540  223.2600 C   0  0  0  0  0  0  0  0  0  0  0  0
  141.6160   79.6390  223.8440 C   0  0  0  0  0  0  0  0  0  0  0  0
  142.9330   79.5470  223.0790 C   0  0  0  0  0  0  0  0  0  0  0  0
  139.4270   80.8620  221.3870 C   0  0  0  0  0  0  0  0  0  0  0  0
  138.6150   79.5720  221.4300 C   0  0  0  0  0  0  0  0  0  0  0  0
  140.0250   74.9360  221.9700 C   0  0  0  0  0  0  0  0  0  0  0  0
  140.5810   72.2940  223.5910 N   0  0  0  0  0  0  0  0  0  0  0  0
  140.2440   71.1540  224.3280 C   0  0  0  0  0  0  0  0  0  0  0  0
  140.5890   71.0010  225.6560 C   0  0  0  0  0  0  0  0  0  0  0  0
  140.2170   69.8480  226.3070 C   0  0  0  0  0  0  0  0  0  0  0  0
  140.6810   69.7010  228.0020 Cl  0  0  0  0  0  0  0  0  0  0  0  0
  139.5090   68.8390  225.6710 C   0  0  0  0  0  0  0  0  0  0  0  0
  139.1550   68.9810  224.3290 C   0  0  0  0  0  0  0  0  0  0  0  0
  139.5330   70.1500  223.6760 C   0  0  0  0  0  0  0  0  0  0  0  0
  140.1643   71.2472  220.6519 H   0  0  0  0  0  0  0  0  0  0  0  0
  138.6116   72.0251  221.1732 H   0  0  0  0  0  0  0  0  0  0  0  0
  142.4350   72.8813  220.7295 H   0  0  0  0  0  0  0  0  0  0  0  0
  143.0995   75.0804  219.7290 H   0  0  0  0  0  0  0  0  0  0  0  0
  141.8144   77.1278  220.1649 H   0  0  0  0  0  0  0  0  0  0  0  0
  140.8769   77.8617  219.5378 H   0  0  0  0  0  0  0  0  0  0  0  0
  139.6813   79.0678  218.9885 H   0  0  0  0  0  0  0  0  0  0  0  0
  142.2624   79.4342  220.4578 H   0  0  0  0  0  0  0  0  0  0  0  0
  141.4228   80.5242  219.2931 H   0  0  0  0  0  0  0  0  0  0  0  0
  142.4802   81.7636  221.3783 H   0  0  0  0  0  0  0  0  0  0  0  0
  140.9869   82.2692  222.3588 H   0  0  0  0  0  0  0  0  0  0  0  0
  142.4344   81.8423  223.6857 H   0  0  0  0  0  0  0  0  0  0  0  0
  141.6045   79.5042  224.9356 H   0  0  0  0  0  0  0  0  0  0  0  0
  140.6394   79.1382  223.7706 H   0  0  0  0  0  0  0  0  0  0  0  0
  143.8744   79.3563  223.6151 H   0  0  0  0  0  0  0  0  0  0  0  0
  143.3104   78.9657  222.2248 H   0  0  0  0  0  0  0  0  0  0  0  0
  139.2629   81.4107  222.3261 H   0  0  0  0  0  0  0  0  0  0  0  0
  139.0876   81.4349  220.5114 H   0  0  0  0  0  0  0  0  0  0  0  0
  138.2554   79.3820  222.4520 H   0  0  0  0  0  0  0  0  0  0  0  0
  137.7323   79.6328  220.7765 H   0  0  0  0  0  0  0  0  0  0  0  0
  139.1373   74.8935  222.6182 H   0  0  0  0  0  0  0  0  0  0  0  0
  141.1506   71.7862  226.1833 H   0  0  0  0  0  0  0  0  0  0  0  0
  139.2276   67.9300  226.2228 H   0  0  0  0  0  0  0  0  0  0  0  0
  138.5947   68.1935  223.8037 H   0  0  0  0  0  0  0  0  0  0  0  0
  1  2  2  0
  2  3  1  0
  3  4  1  0
  4  5  1  0
  5  6  2  0
  6  7  1  0
  7  8  2  0
  8  9  1  0
  9 10  1  0
 10 11  2  0
 10 12  1  0
 12 13  1  0
 13 14  1  0
 14 15  1  0
 15 16  1  0
 16 17  1  0
 17 18  1  0
 18 19  1  0
 15 20  1  0
 20 21  1  0
  9 22  2  0
  4 23  2  0
 23 24  1  0
 24 25  2  0
 25 26  1  0
 26 27  1  0
 26 28  2  0
 28 29  1  0
 29 30  2  0
 30  2  1  0
 22  5  1  0
 30 24  1  0
 21 12  1  0
 19 17  1  0
  3 31  1  0
  3 32  1  0
  6 33  1  0
  7 34  1  0
  8 35  1  0
 13 36  1  0
 13 37  1  0
 14 38  1  0
 14 39  1  0
 16 40  1  0
 16 41  1  0
 17 42  1  0
 18 43  1  0
 18 44  1  0
 19 45  1  0
 19 46  1  0
 20 47  1  0
 20 48  1  0
 21 49  1  0
 21 50  1  0
 22 51  1  0
 25 52  1  0
 28 53  1  0
 29 54  1  0
M  END
>  <smiles>  (1) 
O=C1CC(c2cccc(C(=O)N3CCN(CC4CC4)CC3)c2)=Nc2cc(Cl)ccc21

>  <score_type>  (1) 
oracle

>  <origin>  (1) 
autodockgpu

>  <m_score__min__energy>  (1) 
-8.7699999999999996

>  <m_primary>  (1) 
energy

>  <rmsd>  (1) 
6.186523777360889

>  <m_score__min__rmsd>  (1) 
6.186523777360889

>  <meeko>  (1) 
{"free_energy": -8.1, "intermolecular_energy": -9.29, "internal_energy": -1.18, "cluster_size": 18, "cluster_id": 2, "rank_in_cluster": 12}

>  <energy>  (1) 
-8.77

>  <cluster_rmsd>  (1) 
0.0

>  <cluster>  (1) 
1

$$$$

     RDKit          3D

 54 58  0  0  0  0  0  0  0  0999 V2000
  137.1390   77.2460  222.3480 O   0  0  0  0  0  0  0  0  0  0  0  0
  138.3780   76.9980  222.3290 C   0  0  0  0  0  0  0  0  0  0  0  0
  138.7940   75.6470  221.9200 C   0  0  0  0  0  0  0  0  0  0  0  0
  140.2790   75.4950  221.9440 C   0  0  0  0  0  0  0  0  0  0  0  0
  140.8570   74.2100  221.5600 C   0  0  0  0  0  0  0  0  0  0  0  0
  142.0440   74.1780  220.8420 C   0  0  0  0  0  0  0  0  0  0  0  0
  142.5470   72.9170  220.5060 C   0  0  0  0  0  0  0  0  0  0  0  0
  141.9050   71.7500  220.8640 C   0  0  0  0  0  0  0  0  0  0  0  0
  140.7310   71.7890  221.5750 C   0  0  0  0  0  0  0  0  0  0  0  0
  139.9800   70.6290  222.0040 C   0  0  0  0  0  0  0  0  0  0  0  0
  139.9050   69.6720  221.1520 O   0  0  0  0  0  0  0  0  0  0  0  0
  139.3480   70.4940  223.2570 N   0  0  0  0  0  0  0  0  0  0  0  0
  139.3660   71.4910  224.3030 C   0  0  0  0  0  0  0  0  0  0  0  0
  140.1450   70.9250  225.4710 C   0  0  0  0  0  0  0  0  0  0  0  0
  140.1290   69.5280  225.4330 N   0  0  0  0  0  0  0  0  0  0  0  0
  141.0660   68.7550  226.1260 C   0  0  0  0  0  0  0  0  0  0  0  0
  140.6160   68.1160  227.4030 C   0  0  0  0  0  0  0  0  0  0  0  0
  141.2670   68.4550  228.6790 C   0  0  0  0  0  0  0  0  0  0  0  0
  139.8880   69.0240  228.3600 C   0  0  0  0  0  0  0  0  0  0  0  0
  139.0090   68.8310  224.9510 C   0  0  0  0  0  0  0  0  0  0  0  0
  138.5980   69.2620  223.5470 C   0  0  0  0  0  0  0  0  0  0  0  0
  140.2330   73.0310  221.9060 C   0  0  0  0  0  0  0  0  0  0  0  0
  141.0740   76.4580  222.2850 N   0  0  0  0  0  0  0  0  0  0  0  0
  140.6950   77.7470  222.6750 C   0  0  0  0  0  0  0  0  0  0  0  0
  141.6150   78.7160  223.0240 C   0  0  0  0  0  0  0  0  0  0  0  0
  141.1570   79.9590  223.3940 C   0  0  0  0  0  0  0  0  0  0  0  0
  142.3710   81.1610  223.8300 Cl  0  0  0  0  0  0  0  0  0  0  0  0
  139.8040   80.2650  223.4270 C   0  0  0  0  0  0  0  0  0  0  0  0
  138.8650   79.2950  223.0770 C   0  0  0  0  0  0  0  0  0  0  0  0
  139.3340   78.0400  222.7030 C   0  0  0  0  0  0  0  0  0  0  0  0
  138.3495   74.9134  222.6087 H   0  0  0  0  0  0  0  0  0  0  0  0
  138.4490   75.4796  220.8890 H   0  0  0  0  0  0  0  0  0  0  0  0
  142.5653   75.1018  220.5506 H   0  0  0  0  0  0  0  0  0  0  0  0
  143.4863   72.8538  219.9370 H   0  0  0  0  0  0  0  0  0  0  0  0
  142.3371   70.7798  220.5775 H   0  0  0  0  0  0  0  0  0  0  0  0
  139.8529   72.4073  223.9378 H   0  0  0  0  0  0  0  0  0  0  0  0
  138.3403   71.7416  224.6116 H   0  0  0  0  0  0  0  0  0  0  0  0
  141.1856   71.2776  225.4182 H   0  0  0  0  0  0  0  0  0  0  0  0
  139.6799   71.2629  226.4088 H   0  0  0  0  0  0  0  0  0  0  0  0
  141.3951   67.9507  225.4516 H   0  0  0  0  0  0  0  0  0  0  0  0
  141.8522   69.4637  226.4254 H   0  0  0  0  0  0  0  0  0  0  0  0
  140.4177   67.1542  226.9074 H   0  0  0  0  0  0  0  0  0  0  0  0
  141.3774   67.6882  229.4599 H   0  0  0  0  0  0  0  0  0  0  0  0
  142.2376   68.8869  228.9642 H   0  0  0  0  0  0  0  0  0  0  0  0
  139.0002   68.6639  228.9005 H   0  0  0  0  0  0  0  0  0  0  0  0
  139.4411   70.0279  228.3097 H   0  0  0  0  0  0  0  0  0  0  0  0
  139.2457   67.7569  224.9328 H   0  0  0  0  0  0  0  0  0  0  0  0
  138.1677   69.0547  225.6234 H   0  0  0  0  0  0  0  0  0  0  0  0
  138.8547   68.4793  222.8179 H   0  0  0  0  0  0  0  0  0  0  0  0
  137.5128   69.4299  223.4820 H   0  0  0  0  0  0  0  0  0  0  0  0
  139.2922   73.0836  222.4737 H   0  0  0  0  0  0  0  0  0  0  0  0
  142.6930   78.4980  223.0064 H   0  0  0  0  0  0  0  0  0  0  0  0
  139.4729   81.2698  223.7284 H   0  0  0  0  0  0  0  0  0  0  0  0
  137.7875   79.5155  223.0961 H   0  0  0  0  0  0  0  0  0  0  0  0
  1  2  2  0
  2  3  1  0
  3  4  1  0
  4  5  1  0
  5  6  2  0
  6  7  1  0
  7  8  2  0
  8  9  1  0
  9 10  1  0
 10 11  2  0
 10 12  1  0
 12 13  1  0
 13 14  1  0
 14 15  1  0
 15 16  1  0
 16 17  1  0
 17 18  1  0
 18 19  1  0
 15 20  1  0
 20 21  1  0
  9 22  2  0
  4 23  2  0
 23 24  1  0
 24 25  2  0
 25 26  1  0
 26 27  1  0
 26 28  2  0
 28 29  1  0
 29 30  2  0
 30  2  1  0
 22  5  1  0
 30 24  1  0
 21 12  1  0
 19 17  1  0
  3 31  1  0
  3 32  1  0
  6 33  1  0
  7 34  1  0
  8 35  1  0
 13 36  1  0
 13 37  1  0
 14 38  1  0
 14 39  1  0
 16 40  1  0
 16 41  1  0
 17 42  1  0
 18 43  1  0
 18 44  1  0
 19 45  1  0
 19 46  1  0
 20 47  1  0
 20 48  1  0
 21 49  1  0
 21 50  1  0
 22 51  1  0
 25 52  1  0
 28 53  1  0
 29 54  1  0
M  END
>  <smiles>  (2) 
O=C1CC(c2cccc(C(=O)N3CCN(CC4CC4)CC3)c2)=Nc2cc(Cl)ccc21

>  <score_type>  (2) 
oracle

>  <origin>  (2) 
autodockgpu

>  <m_score__min__energy>  (2) 
-8.7699999999999996

>  <m_primary>  (2) 
energy

>  <rmsd>  (2) 
8.836145828447869

>  <m_score__min__rmsd>  (2) 
8.836145828447869

>  <meeko>  (2) 
{"free_energy": -8.75, "intermolecular_energy": -9.94, "internal_energy": -0.89, "cluster_size": 14, "cluster_id": 1, "rank_in_cluster": 4}

>  <energy>  (2) 
-8.75

>  <cluster_rmsd>  (2) 
0.13

>  <cluster>  (2) 
1

$$$$

     RDKit          3D

 54 58  0  0  0  0  0  0  0  0999 V2000
  137.0270   73.1100  221.3180 O   0  0  0  0  0  0  0  0  0  0  0  0
  138.2480   73.1620  221.6370 C   0  0  0  0  0  0  0  0  0  0  0  0
  139.0940   74.1350  220.9290 C   0  0  0  0  0  0  0  0  0  0  0  0
  140.5090   74.0870  221.4050 C   0  0  0  0  0  0  0  0  0  0  0  0
  141.4800   74.9960  220.8040 C   0  0  0  0  0  0  0  0  0  0  0  0
  142.6400   74.4870  220.2370 C   0  0  0  0  0  0  0  0  0  0  0  0
  143.5300   75.4090  219.6770 C   0  0  0  0  0  0  0  0  0  0  0  0
  143.2800   76.7660  219.6780 C   0  0  0  0  0  0  0  0  0  0  0  0
  142.1300   77.2630  220.2390 C   0  0  0  0  0  0  0  0  0  0  0  0
  141.7690   78.6630  220.2910 C   0  0  0  0  0  0  0  0  0  0  0  0
  141.3670   79.1730  219.1840 O   0  0  0  0  0  0  0  0  0  0  0  0
  141.8330   79.4720  221.4450 N   0  0  0  0  0  0  0  0  0  0  0  0
  142.2570   79.0180  222.7490 C   0  0  0  0  0  0  0  0  0  0  0  0
  141.0630   79.0840  223.6760 C   0  0  0  0  0  0  0  0  0  0  0  0
  140.1350   80.0160  223.2050 N   0  0  0  0  0  0  0  0  0  0  0  0
  138.7980   80.0060  223.6140 C   0  0  0  0  0  0  0  0  0  0  0  0
  137.8550   79.1270  222.8520 C   0  0  0  0  0  0  0  0  0  0  0  0
  138.2090   78.6360  221.5110 C   0  0  0  0  0  0  0  0  0  0  0  0
  138.2840   77.6900  222.7050 C   0  0  0  0  0  0  0  0  0  0  0  0
  140.5530   81.1790  222.5380 C   0  0  0  0  0  0  0  0  0  0  0  0
  141.4530   80.8900  221.3420 C   0  0  0  0  0  0  0  0  0  0  0  0
  141.2520   76.3560  220.7940 C   0  0  0  0  0  0  0  0  0  0  0  0
  140.9060   73.2760  222.3320 N   0  0  0  0  0  0  0  0  0  0  0  0
  140.1150   72.3460  223.0160 C   0  0  0  0  0  0  0  0  0  0  0  0
  140.6240   71.5170  223.9950 C   0  0  0  0  0  0  0  0  0  0  0  0
  139.7770   70.6320  224.6180 C   0  0  0  0  0  0  0  0  0  0  0  0
  140.4750   69.5960  225.8620 Cl  0  0  0  0  0  0  0  0  0  0  0  0
  138.4300   70.5480  224.2920 C   0  0  0  0  0  0  0  0  0  0  0  0
  137.9040   71.3800  223.3040 C   0  0  0  0  0  0  0  0  0  0  0  0
  138.7660   72.2740  222.6780 C   0  0  0  0  0  0  0  0  0  0  0  0
  139.0722   73.9095  219.8526 H   0  0  0  0  0  0  0  0  0  0  0  0
  138.6991   75.1420  221.1291 H   0  0  0  0  0  0  0  0  0  0  0  0
  142.8499   73.4072  220.2285 H   0  0  0  0  0  0  0  0  0  0  0  0
  144.4603   75.0401  219.2205 H   0  0  0  0  0  0  0  0  0  0  0  0
  144.0082   77.4552  219.2255 H   0  0  0  0  0  0  0  0  0  0  0  0
  142.6224   77.9825  222.6835 H   0  0  0  0  0  0  0  0  0  0  0  0
  143.0721   79.6516  223.1287 H   0  0  0  0  0  0  0  0  0  0  0  0
  140.5882   78.0931  223.7274 H   0  0  0  0  0  0  0  0  0  0  0  0
  141.4028   79.3911  224.6761 H   0  0  0  0  0  0  0  0  0  0  0  0
  138.7760   79.6820  224.6650 H   0  0  0  0  0  0  0  0  0  0  0  0
  138.4390   81.0300  223.4336 H   0  0  0  0  0  0  0  0  0  0  0  0
  136.9729   79.6619  223.2340 H   0  0  0  0  0  0  0  0  0  0  0  0
  137.4251   78.5003  220.7514 H   0  0  0  0  0  0  0  0  0  0  0  0
  138.9135   78.9554  220.7289 H   0  0  0  0  0  0  0  0  0  0  0  0
  137.5510   76.8774  222.8166 H   0  0  0  0  0  0  0  0  0  0  0  0
  139.0545   77.0466  223.1548 H   0  0  0  0  0  0  0  0  0  0  0  0
  139.6625   81.7191  222.1839 H   0  0  0  0  0  0  0  0  0  0  0  0
  141.1383   81.7756  223.2532 H   0  0  0  0  0  0  0  0  0  0  0  0
  140.9091   81.0715  220.4032 H   0  0  0  0  0  0  0  0  0  0  0  0
  142.3386   81.5425  221.3408 H   0  0  0  0  0  0  0  0  0  0  0  0
  140.3258   76.7353  221.2504 H   0  0  0  0  0  0  0  0  0  0  0  0
  141.6877   71.5637  224.2714 H   0  0  0  0  0  0  0  0  0  0  0  0
  137.7802   69.8280  224.8110 H   0  0  0  0  0  0  0  0  0  0  0  0
  136.8402   71.3306  223.0284 H   0  0  0  0  0  0  0  0  0  0  0  0
  1  2  2  0
  2  3  1  0
  3  4  1  0
  4  5  1  0
  5  6  2  0
  6  7  1  0
  7  8  2  0
  8  9  1  0
  9 10  1  0
 10 11  2  0
 10 12  1  0
 12 13  1  0
 13 14  1  0
 14 15  1  0
 15 16  1  0
 16 17  1  0
 17 18  1  0
 18 19  1  0
 15 20  1  0
 20 21  1  0
  9 22  2  0
  4 23  2  0
 23 24  1  0
 24 25  2  0
 25 26  1  0
 26 27  1  0
 26 28  2  0
 28 29  1  0
 29 30  2  0
 30  2  1  0
 22  5  1  0
 30 24  1  0
 21 12  1  0
 19 17  1  0
  3 31  1  0
  3 32  1  0
  6 33  1  0
  7 34  1  0
  8 35  1  0
 13 36  1  0
 13 37  1  0
 14 38  1  0
 14 39  1  0
 16 40  1  0
 16 41  1  0
 17 42  1  0
 18 43  1  0
 18 44  1  0
 19 45  1  0
 19 46  1  0
 20 47  1  0
 20 48  1  0
 21 49  1  0
 21 50  1  0
 22 51  1  0
 25 52  1  0
 28 53  1  0
 29 54  1  0
M  END
>  <smiles>  (3) 
O=C1CC(c2cccc(C(=O)N3CCN(CC4CC4)CC3)c2)=Nc2cc(Cl)ccc21

>  <score_type>  (3) 
oracle

>  <origin>  (3) 
autodockgpu

>  <m_score__min__energy>  (3) 
-8.7699999999999996

>  <m_primary>  (3) 
energy

>  <rmsd>  (3) 
6.905594822761696

>  <m_score__min__rmsd>  (3) 
6.905594822761696

>  <meeko>  (3) 
{"free_energy": -7.51, "intermolecular_energy": -8.71, "internal_energy": -1.7, "cluster_size": 16, "cluster_id": 4, "rank_in_cluster": 16}

>  <energy>  (3) 
-8.75

>  <cluster_rmsd>  (3) 
0.04

>  <cluster>  (3) 
1

$$$$

     RDKit          3D

 54 58  0  0  0  0  0  0  0  0999 V2000
  137.1180   77.1350  222.4230 O   0  0  0  0  0  0  0  0  0  0  0  0
  138.3660   76.9430  222.3700 C   0  0  0  0  0  0  0  0  0  0  0  0
  138.8310   75.6150  221.9410 C   0  0  0  0  0  0  0  0  0  0  0  0
  140.3210   75.5290  221.9260 C   0  0  0  0  0  0  0  0  0  0  0  0
  140.9460   74.2740  221.5180 C   0  0  0  0  0  0  0  0  0  0  0  0
  142.1550   74.2970  220.8370 C   0  0  0  0  0  0  0  0  0  0  0  0
  142.7020   73.0620  220.4750 C   0  0  0  0  0  0  0  0  0  0  0  0
  142.0820   71.8670  220.7740 C   0  0  0  0  0  0  0  0  0  0  0  0
  140.8870   71.8510  221.4500 C   0  0  0  0  0  0  0  0  0  0  0  0
  140.1560   70.6570  221.8170 C   0  0  0  0  0  0  0  0  0  0  0  0
  140.2210   69.6880  220.9790 O   0  0  0  0  0  0  0  0  0  0  0  0
  139.4010   70.5040  222.9980 N   0  0  0  0  0  0  0  0  0  0  0  0
  139.2570   71.5120  224.0220 C   0  0  0  0  0  0  0  0  0  0  0  0
  139.9340   71.0030  225.2760 C   0  0  0  0  0  0  0  0  0  0  0  0
  139.9950   69.6070  225.2610 N   0  0  0  0  0  0  0  0  0  0  0  0
  140.8920   68.8930  226.0620 C   0  0  0  0  0  0  0  0  0  0  0  0
  141.0350   69.3310  227.4870 C   0  0  0  0  0  0  0  0  0  0  0  0
  139.8510   69.4630  228.3510 C   0  0  0  0  0  0  0  0  0  0  0  0
  140.7790   68.2650  228.5210 C   0  0  0  0  0  0  0  0  0  0  0  0
  138.9710   68.8450  224.6750 C   0  0  0  0  0  0  0  0  0  0  0  0
  138.6900   69.2370  223.2280 C   0  0  0  0  0  0  0  0  0  0  0  0
  140.3440   73.0680  221.8060 C   0  0  0  0  0  0  0  0  0  0  0  0
  141.0810   76.5240  222.2540 N   0  0  0  0  0  0  0  0  0  0  0  0
  140.6560   77.7930  222.6620 C   0  0  0  0  0  0  0  0  0  0  0  0
  141.5400   78.8000  222.9950 C   0  0  0  0  0  0  0  0  0  0  0  0
  141.0370   80.0190  223.3850 C   0  0  0  0  0  0  0  0  0  0  0  0
  142.2060   81.2710  223.7990 Cl  0  0  0  0  0  0  0  0  0  0  0  0
  139.6730   80.2640  223.4550 C   0  0  0  0  0  0  0  0  0  0  0  0
  138.7690   79.2540  223.1220 C   0  0  0  0  0  0  0  0  0  0  0  0
  139.2840   78.0250  222.7270 C   0  0  0  0  0  0  0  0  0  0  0  0
  138.4374   74.8582  222.6355 H   0  0  0  0  0  0  0  0  0  0  0  0
  138.4675   75.4389  220.9178 H   0  0  0  0  0  0  0  0  0  0  0  0
  142.6599   75.2434  220.5932 H   0  0  0  0  0  0  0  0  0  0  0  0
  143.6592   73.0431  219.9334 H   0  0  0  0  0  0  0  0  0  0  0  0
  142.5486   70.9189  220.4684 H   0  0  0  0  0  0  0  0  0  0  0  0
  139.7329   72.4480  223.6943 H   0  0  0  0  0  0  0  0  0  0  0  0
  138.1927   71.7113  224.2158 H   0  0  0  0  0  0  0  0  0  0  0  0
  140.9544   71.4104  225.3285 H   0  0  0  0  0  0  0  0  0  0  0  0
  139.3538   71.3267  226.1527 H   0  0  0  0  0  0  0  0  0  0  0  0
  140.5650   67.8427  226.0698 H   0  0  0  0  0  0  0  0  0  0  0  0
  141.8791   69.0707  225.6102 H   0  0  0  0  0  0  0  0  0  0  0  0
  141.8517   70.0258  227.2414 H   0  0  0  0  0  0  0  0  0  0  0  0
  139.8189   70.2464  229.1225 H   0  0  0  0  0  0  0  0  0  0  0  0
  138.7726   69.5901  228.1751 H   0  0  0  0  0  0  0  0  0  0  0  0
  141.4253   68.1847  229.4075 H   0  0  0  0  0  0  0  0  0  0  0  0
  140.6643   67.1710  228.5146 H   0  0  0  0  0  0  0  0  0  0  0  0
  139.2643   67.7851  224.7004 H   0  0  0  0  0  0  0  0  0  0  0  0
  138.0522   69.0306  225.2506 H   0  0  0  0  0  0  0  0  0  0  0  0
  139.0636   68.4610  222.5437 H   0  0  0  0  0  0  0  0  0  0  0  0
  137.6107   69.3454  223.0455 H   0  0  0  0  0  0  0  0  0  0  0  0
  139.3853   73.0764  222.3452 H   0  0  0  0  0  0  0  0  0  0  0  0
  142.6259   78.6304  222.9492 H   0  0  0  0  0  0  0  0  0  0  0  0
  139.3053   81.2511  223.7719 H   0  0  0  0  0  0  0  0  0  0  0  0
  137.6835   79.4253  223.1706 H   0  0  0  0  0  0  0  0  0  0  0  0
  1  2  2  0
  2  3  1  0
  3  4  1  0
  4  5  1  0
  5  6  2  0
  6  7  1  0
  7  8  2  0
  8  9  1  0
  9 10  1  0
 10 11  2  0
 10 12  1  0
 12 13  1  0
 13 14  1  0
 14 15  1  0
 15 16  1  0
 16 17  1  0
 17 18  1  0
 18 19  1  0
 15 20  1  0
 20 21  1  0
  9 22  2  0
  4 23  2  0
 23 24  1  0
 24 25  2  0
 25 26  1  0
 26 27  1  0
 26 28  2  0
 28 29  1  0
 29 30  2  0
 30  2  1  0
 22  5  1  0
 30 24  1  0
 21 12  1  0
 19 17  1  0
  3 31  1  0
  3 32  1  0
  6 33  1  0
  7 34  1  0
  8 35  1  0
 13 36  1  0
 13 37  1  0
 14 38  1  0
 14 39  1  0
 16 40  1  0
 16 41  1  0
 17 42  1  0
 18 43  1  0
 18 44  1  0
 19 45  1  0
 19 46  1  0
 20 47  1  0
 20 48  1  0
 21 49  1  0
 21 50  1  0
 22 51  1  0
 25 52  1  0
 28 53  1  0
 29 54  1  0
M  END
>  <smiles>  (4) 
O=C1CC(c2cccc(C(=O)N3CCN(CC4CC4)CC3)c2)=Nc2cc(Cl)ccc21

>  <score_type>  (4) 
oracle

>  <origin>  (4) 
autodockgpu

>  <m_score__min__energy>  (4) 
-8.7699999999999996

>  <m_primary>  (4) 
energy

>  <rmsd>  (4) 
8.836537563051415

>  <m_score__min__rmsd>  (4) 
8.836537563051415

>  <meeko>  (4) 
{"free_energy": -8.59, "intermolecular_energy": -9.78, "internal_energy": -0.84, "cluster_size": 14, "cluster_id": 1, "rank_in_cluster": 8}

>  <energy>  (4) 
-8.75

>  <cluster_rmsd>  (4) 
0.05

>  <cluster>  (4) 
1

$$$$

     RDKit          3D

 54 58  0  0  0  0  0  0  0  0999 V2000
  137.6280   69.1550  222.4780 O   0  0  0  0  0  0  0  0  0  0  0  0
  138.5630   69.8890  222.9070 C   0  0  0  0  0  0  0  0  0  0  0  0
  139.0060   70.9960  222.0460 C   0  0  0  0  0  0  0  0  0  0  0  0
  140.1120   71.7770  222.6750 C   0  0  0  0  0  0  0  0  0  0  0  0
  140.6650   72.9160  221.9490 C   0  0  0  0  0  0  0  0  0  0  0  0
  141.8500   72.7710  221.2410 C   0  0  0  0  0  0  0  0  0  0  0  0
  142.3270   73.8990  220.5650 C   0  0  0  0  0  0  0  0  0  0  0  0
  141.6620   75.1070  220.5900 C   0  0  0  0  0  0  0  0  0  0  0  0
  140.4890   75.2440  221.2910 C   0  0  0  0  0  0  0  0  0  0  0  0
  139.7110   76.4600  221.3790 C   0  0  0  0  0  0  0  0  0  0  0  0
  138.8480   76.4980  222.3280 O   0  0  0  0  0  0  0  0  0  0  0  0
  139.8400   77.5670  220.5140 N   0  0  0  0  0  0  0  0  0  0  0  0
  140.7770   77.6520  219.4180 C   0  0  0  0  0  0  0  0  0  0  0  0
  141.7780   78.7390  219.7450 C   0  0  0  0  0  0  0  0  0  0  0  0
  141.2270   79.6490  220.6510 N   0  0  0  0  0  0  0  0  0  0  0  0
  142.0210   80.5030  221.4230 C   0  0  0  0  0  0  0  0  0  0  0  0
  142.7060   79.9100  222.6150 C   0  0  0  0  0  0  0  0  0  0  0  0
  142.6240   80.5690  223.9290 C   0  0  0  0  0  0  0  0  0  0  0  0
  141.7940   79.3180  223.6580 C   0  0  0  0  0  0  0  0  0  0  0  0
  139.8580   79.9610  220.6190 C   0  0  0  0  0  0  0  0  0  0  0  0
  138.9620   78.7310  220.7120 C   0  0  0  0  0  0  0  0  0  0  0  0
  140.0180   74.1330  221.9590 C   0  0  0  0  0  0  0  0  0  0  0  0
  140.5960   71.4880  223.8400 N   0  0  0  0  0  0  0  0  0  0  0  0
  140.1850   70.4400  224.6720 C   0  0  0  0  0  0  0  0  0  0  0  0
  140.7590   70.2040  225.9050 C   0  0  0  0  0  0  0  0  0  0  0  0
  140.2940   69.1530  226.6600 C   0  0  0  0  0  0  0  0  0  0  0  0
  141.0600   68.8920  228.2260 Cl  0  0  0  0  0  0  0  0  0  0  0  0
  139.2710   68.3260  226.2190 C   0  0  0  0  0  0  0  0  0  0  0  0
  138.6820   68.5550  224.9750 C   0  0  0  0  0  0  0  0  0  0  0  0
  139.1560   69.6200  224.2170 C   0  0  0  0  0  0  0  0  0  0  0  0
  139.3599   70.5839  221.0895 H   0  0  0  0  0  0  0  0  0  0  0  0
  138.1528   71.6731  221.8923 H   0  0  0  0  0  0  0  0  0  0  0  0
  142.3895   71.8128  221.2127 H   0  0  0  0  0  0  0  0  0  0  0  0
  143.2640   73.8199  219.9943 H   0  0  0  0  0  0  0  0  0  0  0  0
  142.0746   75.9681  220.0438 H   0  0  0  0  0  0  0  0  0  0  0  0
  141.2965   76.6902  219.2950 H   0  0  0  0  0  0  0  0  0  0  0  0
  140.2504   77.8854  218.4809 H   0  0  0  0  0  0  0  0  0  0  0  0
  142.6759   78.2839  220.1885 H   0  0  0  0  0  0  0  0  0  0  0  0
  142.0432   79.2714  218.8197 H   0  0  0  0  0  0  0  0  0  0  0  0
  142.8001   80.9153  220.7649 H   0  0  0  0  0  0  0  0  0  0  0  0
  141.3207   81.2430  221.8378 H   0  0  0  0  0  0  0  0  0  0  0  0
  143.5599   79.5659  222.0130 H   0  0  0  0  0  0  0  0  0  0  0  0
  143.4778   80.5223  224.6210 H   0  0  0  0  0  0  0  0  0  0  0  0
  142.3998   81.5896  224.2726 H   0  0  0  0  0  0  0  0  0  0  0  0
  142.0510   78.3652  224.1439 H   0  0  0  0  0  0  0  0  0  0  0  0
  140.7284   79.0508  223.7142 H   0  0  0  0  0  0  0  0  0  0  0  0
  139.6303   80.6248  221.4661 H   0  0  0  0  0  0  0  0  0  0  0  0
  139.6540   80.4431  219.6515 H   0  0  0  0  0  0  0  0  0  0  0  0
  138.4821   78.6828  221.7006 H   0  0  0  0  0  0  0  0  0  0  0  0
  138.1608   78.7612  219.9589 H   0  0  0  0  0  0  0  0  0  0  0  0
  139.0805   74.2226  222.5273 H   0  0  0  0  0  0  0  0  0  0  0  0
  141.5727   70.8443  226.2764 H   0  0  0  0  0  0  0  0  0  0  0  0
  138.9254   67.4924  226.8481 H   0  0  0  0  0  0  0  0  0  0  0  0
  137.8685   67.9134  224.6056 H   0  0  0  0  0  0  0  0  0  0  0  0
  1  2  2  0
  2  3  1  0
  3  4  1  0
  4  5  1  0
  5  6  2  0
  6  7  1  0
  7  8  2  0
  8  9  1  0
  9 10  1  0
 10 11  2  0
 10 12  1  0
 12 13  1  0
 13 14  1  0
 14 15  1  0
 15 16  1  0
 16 17  1  0
 17 18  1  0
 18 19  1  0
 15 20  1  0
 20 21  1  0
  9 22  2  0
  4 23  2  0
 23 24  1  0
 24 25  2  0
 25 26  1  0
 26 27  1  0
 26 28  2  0
 28 29  1  0
 29 30  2  0
 30  2  1  0
 22  5  1  0
 30 24  1  0
 21 12  1  0
 19 17  1  0
  3 31  1  0
  3 32  1  0
  6 33  1  0
  7 34  1  0
  8 35  1  0
 13 36  1  0
 13 37  1  0
 14 38  1  0
 14 39  1  0
 16 40  1  0
 16 41  1  0
 17 42  1  0
 18 43  1  0
 18 44  1  0
 19 45  1  0
 19 46  1  0
 20 47  1  0
 20 48  1  0
 21 49  1  0
 21 50  1  0
 22 51  1  0
 25 52  1  0
 28 53  1  0
 29 54  1  0
M  END
>  <smiles>  (5) 
O=C1CC(c2cccc(C(=O)N3CCN(CC4CC4)CC3)c2)=Nc2cc(Cl)ccc21

>  <score_type>  (5) 
oracle

>  <origin>  (5) 
autodockgpu

>  <m_score__min__energy>  (5) 
-8.7699999999999996

>  <m_primary>  (5) 
energy

>  <rmsd>  (5) 
5.581694811392047

>  <m_score__min__rmsd>  (5) 
5.581694811392047

>  <meeko>  (5) 
{"free_energy": -8.19, "intermolecular_energy": -9.38, "internal_energy": -1.0, "cluster_size": 18, "cluster_id": 2, "rank_in_cluster": 4}

>  <energy>  (5) 
-8.75

>  <cluster_rmsd>  (5) 
0.04

>  <cluster>  (5) 
1

$$$$

     RDKit          3D

 54 58  0  0  0  0  0  0  0  0999 V2000
  137.0660   73.0320  221.2770 O   0  0  0  0  0  0  0  0  0  0  0  0
  138.2830   73.0910  221.6100 C   0  0  0  0  0  0  0  0  0  0  0  0
  139.1320   74.0690  220.9120 C   0  0  0  0  0  0  0  0  0  0  0  0
  140.5410   74.0290  221.4040 C   0  0  0  0  0  0  0  0  0  0  0  0
  141.5140   74.9440  220.8140 C   0  0  0  0  0  0  0  0  0  0  0  0
  142.6900   74.4420  220.2750 C   0  0  0  0  0  0  0  0  0  0  0  0
  143.5810   75.3690  219.7230 C   0  0  0  0  0  0  0  0  0  0  0  0
  143.3170   76.7220  219.7070 C   0  0  0  0  0  0  0  0  0  0  0  0
  142.1510   77.2120  220.2420 C   0  0  0  0  0  0  0  0  0  0  0  0
  141.7740   78.6090  220.2740 C   0  0  0  0  0  0  0  0  0  0  0  0
  141.2400   79.0640  219.1990 O   0  0  0  0  0  0  0  0  0  0  0  0
  141.9550   79.4690  221.3770 N   0  0  0  0  0  0  0  0  0  0  0  0
  142.5320   79.0790  222.6420 C   0  0  0  0  0  0  0  0  0  0  0  0
  141.4510   79.1730  223.6970 C   0  0  0  0  0  0  0  0  0  0  0  0
  140.4590   80.0710  223.2940 N   0  0  0  0  0  0  0  0  0  0  0  0
  139.1770   80.0630  223.8550 C   0  0  0  0  0  0  0  0  0  0  0  0
  138.1340   79.2390  223.1650 C   0  0  0  0  0  0  0  0  0  0  0  0
  138.2360   78.9570  221.7250 C   0  0  0  0  0  0  0  0  0  0  0  0
  138.5750   77.8650  222.7340 C   0  0  0  0  0  0  0  0  0  0  0  0
  140.7790   81.2080  222.5340 C   0  0  0  0  0  0  0  0  0  0  0  0
  141.5420   80.8760  221.2570 C   0  0  0  0  0  0  0  0  0  0  0  0
  141.2720   76.3000  220.7870 C   0  0  0  0  0  0  0  0  0  0  0  0
  140.9320   73.2210  222.3360 N   0  0  0  0  0  0  0  0  0  0  0  0
  140.1380   72.2870  223.0110 C   0  0  0  0  0  0  0  0  0  0  0  0
  140.6410   71.4610  223.9960 C   0  0  0  0  0  0  0  0  0  0  0  0
  139.7910   70.5710  224.6100 C   0  0  0  0  0  0  0  0  0  0  0  0
  140.4810   69.5390  225.8620 Cl  0  0  0  0  0  0  0  0  0  0  0  0
  138.4490   70.4790  224.2680 C   0  0  0  0  0  0  0  0  0  0  0  0
  137.9300   71.3080  223.2740 C   0  0  0  0  0  0  0  0  0  0  0  0
  138.7940   72.2060  222.6570 C   0  0  0  0  0  0  0  0  0  0  0  0
  139.1240   73.8436  219.8354 H   0  0  0  0  0  0  0  0  0  0  0  0
  138.7292   75.0737  221.1079 H   0  0  0  0  0  0  0  0  0  0  0  0
  142.9117   73.3646  220.2814 H   0  0  0  0  0  0  0  0  0  0  0  0
  144.5236   75.0061  219.2873 H   0  0  0  0  0  0  0  0  0  0  0  0
  144.0464   77.4148  219.2620 H   0  0  0  0  0  0  0  0  0  0  0  0
  142.9044   78.0458  222.5799 H   0  0  0  0  0  0  0  0  0  0  0  0
  143.3744   79.7386  222.8977 H   0  0  0  0  0  0  0  0  0  0  0  0
  141.0026   78.1798  223.8471 H   0  0  0  0  0  0  0  0  0  0  0  0
  141.8974   79.5299  224.6369 H   0  0  0  0  0  0  0  0  0  0  0  0
  139.2685   79.6868  224.8846 H   0  0  0  0  0  0  0  0  0  0  0  0
  138.8225   81.1007  223.7679 H   0  0  0  0  0  0  0  0  0  0  0  0
  137.3255   79.6620  223.7794 H   0  0  0  0  0  0  0  0  0  0  0  0
  137.3240   78.8772  221.1152 H   0  0  0  0  0  0  0  0  0  0  0  0
  138.7628   79.4221  220.8787 H   0  0  0  0  0  0  0  0  0  0  0  0
  137.9063   77.0012  222.8631 H   0  0  0  0  0  0  0  0  0  0  0  0
  139.4402   77.2154  222.9328 H   0  0  0  0  0  0  0  0  0  0  0  0
  139.8452   81.7212  222.2609 H   0  0  0  0  0  0  0  0  0  0  0  0
  141.4315   81.8431  223.1512 H   0  0  0  0  0  0  0  0  0  0  0  0
  140.8921   81.0087  220.3795 H   0  0  0  0  0  0  0  0  0  0  0  0
  142.4107   81.5380  221.1266 H   0  0  0  0  0  0  0  0  0  0  0  0
  140.3326   76.6730  221.2210 H   0  0  0  0  0  0  0  0  0  0  0  0
  141.7013   71.5136  224.2843 H   0  0  0  0  0  0  0  0  0  0  0  0
  137.7974   69.7550  224.7790 H   0  0  0  0  0  0  0  0  0  0  0  0
  136.8696   71.2532  222.9868 H   0  0  0  0  0  0  0  0  0  0  0  0
  1  2  2  0
  2  3  1  0
  3  4  1  0
  4  5  1  0
  5  6  2  0
  6  7  1  0
  7  8  2  0
  8  9  1  0
  9 10  1  0
 10 11  2  0
 10 12  1  0
 12 13  1  0
 13 14  1  0
 14 15  1  0
 15 16  1  0
 16 17  1  0
 17 18  1  0
 18 19  1  0
 15 20  1  0
 20 21  1  0
  9 22  2  0
  4 23  2  0
 23 24  1  0
 24 25  2  0
 25 26  1  0
 26 27  1  0
 26 28  2  0
 28 29  1  0
 29 30  2  0
 30  2  1  0
 22  5  1  0
 30 24  1  0
 21 12  1  0
 19 17  1  0
  3 31  1  0
  3 32  1  0
  6 33  1  0
  7 34  1  0
  8 35  1  0
 13 36  1  0
 13 37  1  0
 14 38  1  0
 14 39  1  0
 16 40  1  0
 16 41  1  0
 17 42  1  0
 18 43  1  0
 18 44  1  0
 19 45  1  0
 19 46  1  0
 20 47  1  0
 20 48  1  0
 21 49  1  0
 21 50  1  0
 22 51  1  0
 25 52  1  0
 28 53  1  0
 29 54  1  0
M  END
>  <smiles>  (6) 
O=C1CC(c2cccc(C(=O)N3CCN(CC4CC4)CC3)c2)=Nc2cc(Cl)ccc21

>  <score_type>  (6) 
oracle

>  <origin>  (6) 
autodockgpu

>  <m_score__min__energy>  (6) 
-8.7699999999999996

>  <m_primary>  (6) 
energy

>  <rmsd>  (6) 
6.952712217662839

>  <m_score__min__rmsd>  (6) 
6.952712217662839

>  <meeko>  (6) 
{"free_energy": -7.6, "intermolecular_energy": -8.79, "internal_energy": -1.65, "cluster_size": 16, "cluster_id": 4, "rank_in_cluster": 6}

>  <energy>  (6) 
-8.71

>  <cluster_rmsd>  (6) 
0.15

>  <cluster>  (6) 
1

$$$$

     RDKit          3D

 54 58  0  0  0  0  0  0  0  0999 V2000
  137.1280   77.1780  222.4320 O   0  0  0  0  0  0  0  0  0  0  0  0
  138.3720   76.9570  222.3850 C   0  0  0  0  0  0  0  0  0  0  0  0
  138.8080   75.6170  221.9630 C   0  0  0  0  0  0  0  0  0  0  0  0
  140.2960   75.4970  221.9540 C   0  0  0  0  0  0  0  0  0  0  0  0
  140.8930   74.2270  221.5530 C   0  0  0  0  0  0  0  0  0  0  0  0
  142.0960   74.2210  220.8610 C   0  0  0  0  0  0  0  0  0  0  0  0
  142.6170   72.9720  220.5060 C   0  0  0  0  0  0  0  0  0  0  0  0
  141.9770   71.7910  220.8230 C   0  0  0  0  0  0  0  0  0  0  0  0
  140.7890   71.8040  221.5100 C   0  0  0  0  0  0  0  0  0  0  0  0
  140.0390   70.6280  221.8950 C   0  0  0  0  0  0  0  0  0  0  0  0
  140.0430   69.6660  221.0470 O   0  0  0  0  0  0  0  0  0  0  0  0
  139.3280   70.4850  223.1050 N   0  0  0  0  0  0  0  0  0  0  0  0
  139.2530   71.4870  224.1430 C   0  0  0  0  0  0  0  0  0  0  0  0
  139.9650   70.9460  225.3640 C   0  0  0  0  0  0  0  0  0  0  0  0
  139.9860   69.5490  225.3340 N   0  0  0  0  0  0  0  0  0  0  0  0
  140.8930   68.8030  226.0930 C   0  0  0  0  0  0  0  0  0  0  0  0
  140.3930   68.2180  227.3770 C   0  0  0  0  0  0  0  0  0  0  0  0
  141.1120   68.4600  228.6390 C   0  0  0  0  0  0  0  0  0  0  0  0
  139.8120   69.2060  228.3560 C   0  0  0  0  0  0  0  0  0  0  0  0
  138.9180   68.8220  224.7830 C   0  0  0  0  0  0  0  0  0  0  0  0
  138.5900   69.2360  223.3520 C   0  0  0  0  0  0  0  0  0  0  0  0
  140.2720   73.0350  221.8590 C   0  0  0  0  0  0  0  0  0  0  0  0
  141.0770   76.4750  222.2830 N   0  0  0  0  0  0  0  0  0  0  0  0
  140.6790   77.7550  222.6850 C   0  0  0  0  0  0  0  0  0  0  0  0
  141.5840   78.7420  223.0190 C   0  0  0  0  0  0  0  0  0  0  0  0
  141.1080   79.9740  223.4030 C   0  0  0  0  0  0  0  0  0  0  0  0
  142.3040   81.2000  223.8180 Cl  0  0  0  0  0  0  0  0  0  0  0  0
  139.7500   80.2510  223.4660 C   0  0  0  0  0  0  0  0  0  0  0  0
  138.8250   79.2610  223.1320 C   0  0  0  0  0  0  0  0  0  0  0  0
  139.3130   78.0180  222.7430 C   0  0  0  0  0  0  0  0  0  0  0  0
  138.3947   74.8722  222.6590 H   0  0  0  0  0  0  0  0  0  0  0  0
  138.4443   75.4450  220.9392 H   0  0  0  0  0  0  0  0  0  0  0  0
  142.6160   75.1555  220.6034 H   0  0  0  0  0  0  0  0  0  0  0  0
  143.5686   72.9299  219.9558 H   0  0  0  0  0  0  0  0  0  0  0  0
  142.4228   70.8313  220.5225 H   0  0  0  0  0  0  0  0  0  0  0  0
  139.7417   72.4127  223.8049 H   0  0  0  0  0  0  0  0  0  0  0  0
  138.2034   71.7145  224.3809 H   0  0  0  0  0  0  0  0  0  0  0  0
  140.9978   71.3242  225.3791 H   0  0  0  0  0  0  0  0  0  0  0  0
  139.4295   71.2765  226.2662 H   0  0  0  0  0  0  0  0  0  0  0  0
  141.2442   67.9710  225.4650 H   0  0  0  0  0  0  0  0  0  0  0  0
  141.6699   69.5217  226.3928 H   0  0  0  0  0  0  0  0  0  0  0  0
  140.0596   67.2941  226.8818 H   0  0  0  0  0  0  0  0  0  0  0  0
  141.1397   67.6794  229.4135 H   0  0  0  0  0  0  0  0  0  0  0  0
  142.1369   68.7599  228.9027 H   0  0  0  0  0  0  0  0  0  0  0  0
  138.8977   68.9604  228.9161 H   0  0  0  0  0  0  0  0  0  0  0  0
  139.4988   70.2599  228.3211 H   0  0  0  0  0  0  0  0  0  0  0  0
  139.1819   67.7541  224.7871 H   0  0  0  0  0  0  0  0  0  0  0  0
  138.0287   69.0278  225.3969 H   0  0  0  0  0  0  0  0  0  0  0  0
  138.9131   68.4565  222.6463 H   0  0  0  0  0  0  0  0  0  0  0  0
  137.5078   69.3766  223.2141 H   0  0  0  0  0  0  0  0  0  0  0  0
  139.3190   73.0665  222.4075 H   0  0  0  0  0  0  0  0  0  0  0  0
  142.6658   78.5470  222.9789 H   0  0  0  0  0  0  0  0  0  0  0  0
  139.4037   81.2473  223.7781 H   0  0  0  0  0  0  0  0  0  0  0  0
  137.7436   79.4575  223.1750 H   0  0  0  0  0  0  0  0  0  0  0  0
  1  2  2  0
  2  3  1  0
  3  4  1  0
  4  5  1  0
  5  6  2  0
  6  7  1  0
  7  8  2  0
  8  9  1  0
  9 10  1  0
 10 11  2  0
 10 12  1  0
 12 13  1  0
 13 14  1  0
 14 15  1  0
 15 16  1  0
 16 17  1  0
 17 18  1  0
 18 19  1  0
 15 20  1  0
 20 21  1  0
  9 22  2  0
  4 23  2  0
 23 24  1  0
 24 25  2  0
 25 26  1  0
 26 27  1  0
 26 28  2  0
 28 29  1  0
 29 30  2  0
 30  2  1  0
 22  5  1  0
 30 24  1  0
 21 12  1  0
 19 17  1  0
  3 31  1  0
  3 32  1  0
  6 33  1  0
  7 34  1  0
  8 35  1  0
 13 36  1  0
 13 37  1  0
 14 38  1  0
 14 39  1  0
 16 40  1  0
 16 41  1  0
 17 42  1  0
 18 43  1  0
 18 44  1  0
 19 45  1  0
 19 46  1  0
 20 47  1  0
 20 48  1  0
 21 49  1  0
 21 50  1  0
 22 51  1  0
 25 52  1  0
 28 53  1  0
 29 54  1  0
M  END
>  <smiles>  (7) 
O=C1CC(c2cccc(C(=O)N3CCN(CC4CC4)CC3)c2)=Nc2cc(Cl)ccc21

>  <score_type>  (7) 
oracle

>  <origin>  (7) 
autodockgpu

>  <m_score__min__energy>  (7) 
-8.7699999999999996

>  <m_primary>  (7) 
energy

>  <rmsd>  (7) 
8.770591418971064

>  <m_score__min__rmsd>  (7) 
8.770591418971064

>  <meeko>  (7) 
{"free_energy": -8.71, "intermolecular_energy": -9.91, "internal_energy": -0.86, "cluster_size": 14, "cluster_id": 1, "rank_in_cluster": 6}

>  <energy>  (7) 
-8.69

>  <cluster_rmsd>  (7) 
0.32

>  <cluster>  (7) 
1

$$$$

     RDKit          3D

 54 58  0  0  0  0  0  0  0  0999 V2000
  146.5840   73.2180  219.3560 O   0  0  0  0  0  0  0  0  0  0  0  0
  145.4000   72.8680  219.6240 C   0  0  0  0  0  0  0  0  0  0  0  0
  144.4710   73.9120  220.0840 C   0  0  0  0  0  0  0  0  0  0  0  0
  143.1130   73.3580  220.3640 C   0  0  0  0  0  0  0  0  0  0  0  0
  142.0690   74.2680  220.8260 C   0  0  0  0  0  0  0  0  0  0  0  0
  140.9280   73.7560  221.4290 C   0  0  0  0  0  0  0  0  0  0  0  0
  139.9660   74.6790  221.8520 C   0  0  0  0  0  0  0  0  0  0  0  0
  140.1280   76.0380  221.6860 C   0  0  0  0  0  0  0  0  0  0  0  0
  141.2600   76.5390  221.0910 C   0  0  0  0  0  0  0  0  0  0  0  0
  141.5320   77.9430  220.8720 C   0  0  0  0  0  0  0  0  0  0  0  0
  141.6340   78.3030  219.6440 O   0  0  0  0  0  0  0  0  0  0  0  0
  141.6890   78.9040  221.8920 N   0  0  0  0  0  0  0  0  0  0  0  0
  141.5890   78.6300  223.3070 C   0  0  0  0  0  0  0  0  0  0  0  0
  140.3710   79.3570  223.8370 C   0  0  0  0  0  0  0  0  0  0  0  0
  140.0560   80.4400  223.0120 N   0  0  0  0  0  0  0  0  0  0  0  0
  138.7910   81.0350  223.0170 C   0  0  0  0  0  0  0  0  0  0  0  0
  137.8100   80.5500  224.0400 C   0  0  0  0  0  0  0  0  0  0  0  0
  137.6610   81.2520  225.3240 C   0  0  0  0  0  0  0  0  0  0  0  0
  136.6000   81.4250  224.2420 C   0  0  0  0  0  0  0  0  0  0  0  0
  141.0650   81.1700  222.3620 C   0  0  0  0  0  0  0  0  0  0  0  0
  141.9860   80.2960  221.5190 C   0  0  0  0  0  0  0  0  0  0  0  0
  142.2090   75.6300  220.6710 C   0  0  0  0  0  0  0  0  0  0  0  0
  142.8230   72.1070  220.2070 N   0  0  0  0  0  0  0  0  0  0  0  0
  143.6940   71.1020  219.7700 C   0  0  0  0  0  0  0  0  0  0  0  0
  143.2980   69.7870  219.6310 C   0  0  0  0  0  0  0  0  0  0  0  0
  144.2170   68.8630  219.1940 C   0  0  0  0  0  0  0  0  0  0  0  0
  143.6630   67.1970  219.0320 Cl  0  0  0  0  0  0  0  0  0  0  0  0
  145.5260   69.2120  218.8910 C   0  0  0  0  0  0  0  0  0  0  0  0
  145.9380   70.5380  219.0280 C   0  0  0  0  0  0  0  0  0  0  0  0
  145.0030   71.4680  219.4690 C   0  0  0  0  0  0  0  0  0  0  0  0
  144.8690   74.3628  221.0051 H   0  0  0  0  0  0  0  0  0  0  0  0
  144.3771   74.6635  219.2862 H   0  0  0  0  0  0  0  0  0  0  0  0
  140.7870   72.6739  221.5677 H   0  0  0  0  0  0  0  0  0  0  0  0
  139.0492   74.3080  222.3334 H   0  0  0  0  0  0  0  0  0  0  0  0
  139.3439   76.7270  222.0331 H   0  0  0  0  0  0  0  0  0  0  0  0
  141.4792   77.5479  223.4713 H   0  0  0  0  0  0  0  0  0  0  0  0
  142.4957   78.9709  223.8283 H   0  0  0  0  0  0  0  0  0  0  0  0
  139.5182   78.6629  223.8662 H   0  0  0  0  0  0  0  0  0  0  0  0
  140.5885   79.7292  224.8490 H   0  0  0  0  0  0  0  0  0  0  0  0
  138.9333   82.1135  223.1803 H   0  0  0  0  0  0  0  0  0  0  0  0
  138.3467   80.7645  222.0477 H   0  0  0  0  0  0  0  0  0  0  0  0
  138.0004   79.4952  223.7926 H   0  0  0  0  0  0  0  0  0  0  0  0
  137.4271   80.6839  226.2364 H   0  0  0  0  0  0  0  0  0  0  0  0
  138.2898   81.9379  225.9106 H   0  0  0  0  0  0  0  0  0  0  0  0
  135.6036   80.9753  224.3643 H   0  0  0  0  0  0  0  0  0  0  0  0
  136.1434   82.2746  223.7132 H   0  0  0  0  0  0  0  0  0  0  0  0
  140.5910   81.9144  221.7054 H   0  0  0  0  0  0  0  0  0  0  0  0
  141.6823   81.6417  223.1407 H   0  0  0  0  0  0  0  0  0  0  0  0
  141.7871   80.4544  220.4488 H   0  0  0  0  0  0  0  0  0  0  0  0
  143.0435   80.5409  221.6972 H   0  0  0  0  0  0  0  0  0  0  0  0
  143.1215   76.0109  220.1891 H   0  0  0  0  0  0  0  0  0  0  0  0
  142.2668   69.4844  219.8654 H   0  0  0  0  0  0  0  0  0  0  0  0
  146.2356   68.4463  218.5443 H   0  0  0  0  0  0  0  0  0  0  0  0
  146.9701   70.8383  218.7945 H   0  0  0  0  0  0  0  0  0  0  0  0
  1  2  2  0
  2  3  1  0
  3  4  1  0
  4  5  1  0
  5  6  2  0
  6  7  1  0
  7  8  2  0
  8  9  1  0
  9 10  1  0
 10 11  2  0
 10 12  1  0
 12 13  1  0
 13 14  1  0
 14 15  1  0
 15 16  1  0
 16 17  1  0
 17 18  1  0
 18 19  1  0
 15 20  1  0
 20 21  1  0
  9 22  2  0
  4 23  2  0
 23 24  1  0
 24 25  2  0
 25 26  1  0
 26 27  1  0
 26 28  2  0
 28 29  1  0
 29 30  2  0
 30  2  1  0
 22  5  1  0
 30 24  1  0
 21 12  1  0
 19 17  1  0
  3 31  1  0
  3 32  1  0
  6 33  1  0
  7 34  1  0
  8 35  1  0
 13 36  1  0
 13 37  1  0
 14 38  1  0
 14 39  1  0
 16 40  1  0
 16 41  1  0
 17 42  1  0
 18 43  1  0
 18 44  1  0
 19 45  1  0
 19 46  1  0
 20 47  1  0
 20 48  1  0
 21 49  1  0
 21 50  1  0
 22 51  1  0
 25 52  1  0
 28 53  1  0
 29 54  1  0
M  END
>  <smiles>  (8) 
O=C1CC(c2cccc(C(=O)N3CCN(CC4CC4)CC3)c2)=Nc2cc(Cl)ccc21

>  <score_type>  (8) 
oracle

>  <origin>  (8) 
autodockgpu

>  <m_score__min__energy>  (8) 
-8.7699999999999996

>  <m_primary>  (8) 
energy

>  <rmsd>  (8) 
7.923624158276849

>  <m_score__min__rmsd>  (8) 
7.923624158276849

>  <meeko>  (8) 
{"free_energy": -7.91, "intermolecular_energy": -9.11, "internal_energy": -0.99, "cluster_size": 2, "cluster_id": 3, "rank_in_cluster": 2}

>  <energy>  (8) 
-8.59

>  <cluster_rmsd>  (8) 
0.35

>  <cluster>  (8) 
1

$$$$

     RDKit          3D

 54 58  0  0  0  0  0  0  0  0999 V2000
  138.5660   69.4210  221.6060 O   0  0  0  0  0  0  0  0  0  0  0  0
  139.2040   70.3200  222.2250 C   0  0  0  0  0  0  0  0  0  0  0  0
  139.5480   71.5420  221.4820 C   0  0  0  0  0  0  0  0  0  0  0  0
  140.2980   72.5130  222.3330 C   0  0  0  0  0  0  0  0  0  0  0  0
  140.7120   73.7840  221.7460 C   0  0  0  0  0  0  0  0  0  0  0  0
  141.8510   73.8370  220.9550 C   0  0  0  0  0  0  0  0  0  0  0  0
  142.1930   75.0840  220.4200 C   0  0  0  0  0  0  0  0  0  0  0  0
  141.4430   76.2170  220.6570 C   0  0  0  0  0  0  0  0  0  0  0  0
  140.3170   76.1570  221.4390 C   0  0  0  0  0  0  0  0  0  0  0  0
  139.4580   77.2800  221.7470 C   0  0  0  0  0  0  0  0  0  0  0  0
  138.6740   77.1200  222.7500 O   0  0  0  0  0  0  0  0  0  0  0  0
  139.4330   78.4970  221.0340 N   0  0  0  0  0  0  0  0  0  0  0  0
  140.2690   78.8050  219.8970 C   0  0  0  0  0  0  0  0  0  0  0  0
  141.2080   79.9220  220.2990 C   0  0  0  0  0  0  0  0  0  0  0  0
  140.6650   80.6550  221.3580 N   0  0  0  0  0  0  0  0  0  0  0  0
  141.4510   81.4660  222.1820 C   0  0  0  0  0  0  0  0  0  0  0  0
  142.0790   80.8220  223.3790 C   0  0  0  0  0  0  0  0  0  0  0  0
  141.6080   79.5120  223.8560 C   0  0  0  0  0  0  0  0  0  0  0  0
  142.9250   79.6080  223.0920 C   0  0  0  0  0  0  0  0  0  0  0  0
  139.2780   80.8500  221.4640 C   0  0  0  0  0  0  0  0  0  0  0  0
  138.4890   79.5460  221.4500 C   0  0  0  0  0  0  0  0  0  0  0  0
  139.9780   74.9290  221.9690 C   0  0  0  0  0  0  0  0  0  0  0  0
  140.5910   72.2750  223.5710 N   0  0  0  0  0  0  0  0  0  0  0  0
  140.2700   71.1200  224.2920 C   0  0  0  0  0  0  0  0  0  0  0  0
  140.6240   70.9500  225.6160 C   0  0  0  0  0  0  0  0  0  0  0  0
  140.2680   69.7830  226.2500 C   0  0  0  0  0  0  0  0  0  0  0  0
  140.7420   69.6140  227.9400 Cl  0  0  0  0  0  0  0  0  0  0  0  0
  139.5690   68.7750  225.6010 C   0  0  0  0  0  0  0  0  0  0  0  0
  139.2060   68.9350  224.2630 C   0  0  0  0  0  0  0  0  0  0  0  0
  139.5680   70.1180  223.6270 C   0  0  0  0  0  0  0  0  0  0  0  0
  140.1714   71.2700  220.6175 H   0  0  0  0  0  0  0  0  0  0  0  0
  138.6124   72.0212  221.1581 H   0  0  0  0  0  0  0  0  0  0  0  0
  142.4569   72.9404  220.7577 H   0  0  0  0  0  0  0  0  0  0  0  0
  143.0905   75.1633  219.7890 H   0  0  0  0  0  0  0  0  0  0  0  0
  141.7500   77.1766  220.2155 H   0  0  0  0  0  0  0  0  0  0  0  0
  140.8482   77.9159  219.6072 H   0  0  0  0  0  0  0  0  0  0  0  0
  139.6520   79.1129  219.0399 H   0  0  0  0  0  0  0  0  0  0  0  0
  142.1709   79.4917  220.6117 H   0  0  0  0  0  0  0  0  0  0  0  0
  141.3559   80.5918  219.4391 H   0  0  0  0  0  0  0  0  0  0  0  0
  142.2625   81.8776  221.5640 H   0  0  0  0  0  0  0  0  0  0  0  0
  140.7543   82.2108  222.5940 H   0  0  0  0  0  0  0  0  0  0  0  0
  142.2150   81.7881  223.8872 H   0  0  0  0  0  0  0  0  0  0  0  0
  141.6130   79.2854  224.9324 H   0  0  0  0  0  0  0  0  0  0  0  0
  140.6824   78.9298  223.7363 H   0  0  0  0  0  0  0  0  0  0  0  0
  143.8820   79.4619  223.6144 H   0  0  0  0  0  0  0  0  0  0  0  0
  143.3522   79.1383  222.1937 H   0  0  0  0  0  0  0  0  0  0  0  0
  139.0693   81.3755  222.4075 H   0  0  0  0  0  0  0  0  0  0  0  0
  138.9608   81.4352  220.5883 H   0  0  0  0  0  0  0  0  0  0  0  0
  138.0955   79.3281  222.4538 H   0  0  0  0  0  0  0  0  0  0  0  0
  137.6301   79.6056  220.7653 H   0  0  0  0  0  0  0  0  0  0  0  0
  139.0792   74.8606  222.5995 H   0  0  0  0  0  0  0  0  0  0  0  0
  141.1798   71.7328  226.1528 H   0  0  0  0  0  0  0  0  0  0  0  0
  139.3021   67.8535  226.1391 H   0  0  0  0  0  0  0  0  0  0  0  0
  138.6510   68.1502  223.7281 H   0  0  0  0  0  0  0  0  0  0  0  0
  1  2  2  0
  2  3  1  0
  3  4  1  0
  4  5  1  0
  5  6  2  0
  6  7  1  0
  7  8  2  0
  8  9  1  0
  9 10  1  0
 10 11  2  0
 10 12  1  0
 12 13  1  0
 13 14  1  0
 14 15  1  0
 15 16  1  0
 16 17  1  0
 17 18  1  0
 18 19  1  0
 15 20  1  0
 20 21  1  0
  9 22  2  0
  4 23  2  0
 23 24  1  0
 24 25  2  0
 25 26  1  0
 26 27  1  0
 26 28  2  0
 28 29  1  0
 29 30  2  0
 30  2  1  0
 22  5  1  0
 30 24  1  0
 21 12  1  0
 19 17  1  0
  3 31  1  0
  3 32  1  0
  6 33  1  0
  7 34  1  0
  8 35  1  0
 13 36  1  0
 13 37  1  0
 14 38  1  0
 14 39  1  0
 16 40  1  0
 16 41  1  0
 17 42  1  0
 18 43  1  0
 18 44  1  0
 19 45  1  0
 19 46  1  0
 20 47  1  0
 20 48  1  0
 21 49  1  0
 21 50  1  0
 22 51  1  0
 25 52  1  0
 28 53  1  0
 29 54  1  0
M  END
>  <smiles>  (9) 
O=C1CC(c2cccc(C(=O)N3CCN(CC4CC4)CC3)c2)=Nc2cc(Cl)ccc21

>  <score_type>  (9) 
oracle

>  <origin>  (9) 
autodockgpu

>  <m_score__min__energy>  (9) 
-8.7699999999999996

>  <m_primary>  (9) 
energy

>  <rmsd>  (9) 
6.204924546154152

>  <m_score__min__rmsd>  (9) 
6.204924546154152

>  <meeko>  (9) 
{"free_energy": -8.12, "intermolecular_energy": -9.31, "internal_energy": -1.16, "cluster_size": 18, "cluster_id": 2, "rank_in_cluster": 6}

>  <energy>  (9) 
-8.59

>  <cluster_rmsd>  (9) 
0.39

>  <cluster>  (9) 
1

$$$$

     RDKit          3D

 54 58  0  0  0  0  0  0  0  0999 V2000
  138.9630   70.3390  220.2330 O   0  0  0  0  0  0  0  0  0  0  0  0
  139.4600   71.1810  221.0330 C   0  0  0  0  0  0  0  0  0  0  0  0
  139.8620   72.4850  220.4850 C   0  0  0  0  0  0  0  0  0  0  0  0
  140.4320   73.3760  221.5390 C   0  0  0  0  0  0  0  0  0  0  0  0
  140.8770   74.7130  221.1580 C   0  0  0  0  0  0  0  0  0  0  0  0
  141.4950   74.9090  219.9310 C   0  0  0  0  0  0  0  0  0  0  0  0
  141.8970   76.2130  219.6250 C   0  0  0  0  0  0  0  0  0  0  0  0
  141.6940   77.2680  220.4900 C   0  0  0  0  0  0  0  0  0  0  0  0
  141.0800   77.0680  221.7020 C   0  0  0  0  0  0  0  0  0  0  0  0
  140.8140   78.1010  222.6800 C   0  0  0  0  0  0  0  0  0  0  0  0
  141.7620   78.3300  223.5150 O   0  0  0  0  0  0  0  0  0  0  0  0
  139.6180   78.8420  222.7670 N   0  0  0  0  0  0  0  0  0  0  0  0
  138.4850   78.6880  221.8850 C   0  0  0  0  0  0  0  0  0  0  0  0
  138.3410   79.9640  221.0840 C   0  0  0  0  0  0  0  0  0  0  0  0
  138.9280   81.0330  221.7660 N   0  0  0  0  0  0  0  0  0  0  0  0
  139.2960   82.2160  221.1180 C   0  0  0  0  0  0  0  0  0  0  0  0
  140.7540   82.4180  220.8380 C   0  0  0  0  0  0  0  0  0  0  0  0
  141.7700   81.6500  221.5750 C   0  0  0  0  0  0  0  0  0  0  0  0
  141.4420   81.2780  220.1320 C   0  0  0  0  0  0  0  0  0  0  0  0
  138.9040   81.0950  223.1690 C   0  0  0  0  0  0  0  0  0  0  0  0
  139.4810   79.8490  223.8310 C   0  0  0  0  0  0  0  0  0  0  0  0
  140.6850   75.7820  222.0070 C   0  0  0  0  0  0  0  0  0  0  0  0
  140.5420   73.0120  222.7750 N   0  0  0  0  0  0  0  0  0  0  0  0
  140.1650   71.7760  223.3130 C   0  0  0  0  0  0  0  0  0  0  0  0
  140.3190   71.4720  224.6510 C   0  0  0  0  0  0  0  0  0  0  0  0
  139.9200   70.2340  225.0970 C   0  0  0  0  0  0  0  0  0  0  0  0
  140.1380   69.8940  226.8130 Cl  0  0  0  0  0  0  0  0  0  0  0  0
  139.3710   69.2860  224.2460 C   0  0  0  0  0  0  0  0  0  0  0  0
  139.2100   69.5820  222.8920 C   0  0  0  0  0  0  0  0  0  0  0  0
  139.6140   70.8360  222.4470 C   0  0  0  0  0  0  0  0  0  0  0  0
  140.6209   72.3250  219.7050 H   0  0  0  0  0  0  0  0  0  0  0  0
  138.9674   72.9731  220.0710 H   0  0  0  0  0  0  0  0  0  0  0  0
  141.6610   74.0767  219.2312 H   0  0  0  0  0  0  0  0  0  0  0  0
  142.3921   76.4039  218.6614 H   0  0  0  0  0  0  0  0  0  0  0  0
  142.0265   78.2776  220.2068 H   0  0  0  0  0  0  0  0  0  0  0  0
  138.6522   77.8381  221.2069 H   0  0  0  0  0  0  0  0  0  0  0  0
  137.5710   78.4956  222.4660 H   0  0  0  0  0  0  0  0  0  0  0  0
  138.8365   79.8389  220.1099 H   0  0  0  0  0  0  0  0  0  0  0  0
  137.2716   80.1763  220.9380 H   0  0  0  0  0  0  0  0  0  0  0  0
  138.7669   82.2437  220.1540 H   0  0  0  0  0  0  0  0  0  0  0  0
  139.0281   83.0192  221.8201 H   0  0  0  0  0  0  0  0  0  0  0  0
  140.6212   83.4970  220.6706 H   0  0  0  0  0  0  0  0  0  0  0  0
  142.7389   82.1115  221.8164 H   0  0  0  0  0  0  0  0  0  0  0  0
  141.7892   81.1064  222.5311 H   0  0  0  0  0  0  0  0  0  0  0  0
  142.1661   81.4784  219.3285 H   0  0  0  0  0  0  0  0  0  0  0  0
  141.1210   80.3672  219.6053 H   0  0  0  0  0  0  0  0  0  0  0  0
  139.4919   81.9671  223.4913 H   0  0  0  0  0  0  0  0  0  0  0  0
  137.8508   81.1728  223.4766 H   0  0  0  0  0  0  0  0  0  0  0  0
  140.4633   80.0726  224.2726 H   0  0  0  0  0  0  0  0  0  0  0  0
  138.8299   79.4887  224.6411 H   0  0  0  0  0  0  0  0  0  0  0  0
  140.1932   75.6008  222.9741 H   0  0  0  0  0  0  0  0  0  0  0  0
  140.7524   72.2058  225.3465 H   0  0  0  0  0  0  0  0  0  0  0  0
  139.0638   68.3048  224.6371 H   0  0  0  0  0  0  0  0  0  0  0  0
  138.7770   68.8464  222.1982 H   0  0  0  0  0  0  0  0  0  0  0  0
  1  2  2  0
  2  3  1  0
  3  4  1  0
  4  5  1  0
  5  6  2  0
  6  7  1  0
  7  8  2  0
  8  9  1  0
  9 10  1  0
 10 11  2  0
 10 12  1  0
 12 13  1  0
 13 14  1  0
 14 15  1  0
 15 16  1  0
 16 17  1  0
 17 18  1  0
 18 19  1  0
 15 20  1  0
 20 21  1  0
  9 22  2  0
  4 23  2  0
 23 24  1  0
 24 25  2  0
 25 26  1  0
 26 27  1  0
 26 28  2  0
 28 29  1  0
 29 30  2  0
 30  2  1  0
 22  5  1  0
 30 24  1  0
 21 12  1  0
 19 17  1  0
  3 31  1  0
  3 32  1  0
  6 33  1  0
  7 34  1  0
  8 35  1  0
 13 36  1  0
 13 37  1  0
 14 38  1  0
 14 39  1  0
 16 40  1  0
 16 41  1  0
 17 42  1  0
 18 43  1  0
 18 44  1  0
 19 45  1  0
 19 46  1  0
 20 47  1  0
 20 48  1  0
 21 49  1  0
 21 50  1  0
 22 51  1  0
 25 52  1  0
 28 53  1  0
 29 54  1  0
M  END
>  <smiles>  (10) 
O=C1CC(c2cccc(C(=O)N3CCN(CC4CC4)CC3)c2)=Nc2cc(Cl)ccc21

>  <score_type>  (10) 
oracle

>  <origin>  (10) 
autodockgpu

>  <m_score__min__energy>  (10) 
-8.7699999999999996

>  <m_primary>  (10) 
energy

>  <rmsd>  (10) 
6.477162107508315

>  <m_score__min__rmsd>  (10) 
6.477162107508315

>  <meeko>  (10) 
{"free_energy": -7.15, "intermolecular_energy": -8.34, "internal_energy": -1.38, "cluster_size": 18, "cluster_id": 2, "rank_in_cluster": 18}

>  <energy>  (10) 
-8.56

>  <cluster_rmsd>  (10) 
0.33

>  <cluster>  (10) 
1

$$$$

     RDKit          3D

 54 58  0  0  0  0  0  0  0  0999 V2000
  137.1970   72.7400  221.1020 O   0  0  0  0  0  0  0  0  0  0  0  0
  138.3860   72.8890  221.5030 C   0  0  0  0  0  0  0  0  0  0  0  0
  139.2230   73.8710  220.7980 C   0  0  0  0  0  0  0  0  0  0  0  0
  140.5980   73.9410  221.3760 C   0  0  0  0  0  0  0  0  0  0  0  0
  141.5560   74.8750  220.7910 C   0  0  0  0  0  0  0  0  0  0  0  0
  142.7460   74.3970  220.2610 C   0  0  0  0  0  0  0  0  0  0  0  0
  143.6210   75.3410  219.7140 C   0  0  0  0  0  0  0  0  0  0  0  0
  143.3280   76.6890  219.6920 C   0  0  0  0  0  0  0  0  0  0  0  0
  142.1490   77.1550  220.2160 C   0  0  0  0  0  0  0  0  0  0  0  0
  141.7420   78.5440  220.2420 C   0  0  0  0  0  0  0  0  0  0  0  0
  141.1820   78.9770  219.1720 O   0  0  0  0  0  0  0  0  0  0  0  0
  141.9210   79.4170  221.3340 N   0  0  0  0  0  0  0  0  0  0  0  0
  142.5260   79.0520  222.5940 C   0  0  0  0  0  0  0  0  0  0  0  0
  141.4580   79.1320  223.6640 C   0  0  0  0  0  0  0  0  0  0  0  0
  140.4410   80.0050  223.2690 N   0  0  0  0  0  0  0  0  0  0  0  0
  139.1690   79.9740  223.8490 C   0  0  0  0  0  0  0  0  0  0  0  0
  138.1170   79.1700  223.1500 C   0  0  0  0  0  0  0  0  0  0  0  0
  138.2180   78.8990  221.7070 C   0  0  0  0  0  0  0  0  0  0  0  0
  138.5430   77.7940  222.7070 C   0  0  0  0  0  0  0  0  0  0  0  0
  140.7250   81.1410  222.4940 C   0  0  0  0  0  0  0  0  0  0  0  0
  141.4750   80.8140  221.2080 C   0  0  0  0  0  0  0  0  0  0  0  0
  141.2850   76.2260  220.7580 C   0  0  0  0  0  0  0  0  0  0  0  0
  140.9720   73.2130  222.3780 N   0  0  0  0  0  0  0  0  0  0  0  0
  140.1890   72.2750  223.0600 C   0  0  0  0  0  0  0  0  0  0  0  0
  140.6720   71.5380  224.1220 C   0  0  0  0  0  0  0  0  0  0  0  0
  139.8340   70.6380  224.7380 C   0  0  0  0  0  0  0  0  0  0  0  0
  140.4970   69.7220  226.0900 Cl  0  0  0  0  0  0  0  0  0  0  0  0
  138.5230   70.4490  224.3220 C   0  0  0  0  0  0  0  0  0  0  0  0
  138.0240   71.1880  223.2490 C   0  0  0  0  0  0  0  0  0  0  0  0
  138.8760   72.0970  222.6320 C   0  0  0  0  0  0  0  0  0  0  0  0
  139.2957   73.5825  219.7390 H   0  0  0  0  0  0  0  0  0  0  0  0
  138.7550   74.8606  220.9057 H   0  0  0  0  0  0  0  0  0  0  0  0
  142.9900   73.3245  220.2706 H   0  0  0  0  0  0  0  0  0  0  0  0
  144.5747   74.9972  219.2871 H   0  0  0  0  0  0  0  0  0  0  0  0
  144.0458   77.3960  219.2506 H   0  0  0  0  0  0  0  0  0  0  0  0
  142.9207   78.0269  222.5359 H   0  0  0  0  0  0  0  0  0  0  0  0
  143.3573   79.7323  222.8310 H   0  0  0  0  0  0  0  0  0  0  0  0
  141.0333   78.1307  223.8285 H   0  0  0  0  0  0  0  0  0  0  0  0
  141.9103   79.5067  224.5941 H   0  0  0  0  0  0  0  0  0  0  0  0
  139.2782   79.5646  224.8641 H   0  0  0  0  0  0  0  0  0  0  0  0
  138.8103   81.0128  223.8008 H   0  0  0  0  0  0  0  0  0  0  0  0
  137.3125   79.5976  223.7664 H   0  0  0  0  0  0  0  0  0  0  0  0
  137.3061   78.8350  221.0952 H   0  0  0  0  0  0  0  0  0  0  0  0
  138.7514   79.3653  220.8655 H   0  0  0  0  0  0  0  0  0  0  0  0
  137.8642   76.9369  222.8275 H   0  0  0  0  0  0  0  0  0  0  0  0
  139.4004   77.1328  222.9012 H   0  0  0  0  0  0  0  0  0  0  0  0
  139.7763   81.6318  222.2311 H   0  0  0  0  0  0  0  0  0  0  0  0
  141.3737   81.7950  223.0953 H   0  0  0  0  0  0  0  0  0  0  0  0
  140.8086   80.9243  220.3398 H   0  0  0  0  0  0  0  0  0  0  0  0
  142.3267   81.4937  221.0579 H   0  0  0  0  0  0  0  0  0  0  0  0
  140.3347   76.5803  221.1840 H   0  0  0  0  0  0  0  0  0  0  0  0
  141.7076   71.6679  224.4693 H   0  0  0  0  0  0  0  0  0  0  0  0
  137.8802   69.7194  224.8364 H   0  0  0  0  0  0  0  0  0  0  0  0
  136.9886   71.0556  222.9019 H   0  0  0  0  0  0  0  0  0  0  0  0
  1  2  2  0
  2  3  1  0
  3  4  1  0
  4  5  1  0
  5  6  2  0
  6  7  1  0
  7  8  2  0
  8  9  1  0
  9 10  1  0
 10 11  2  0
 10 12  1  0
 12 13  1  0
 13 14  1  0
 14 15  1  0
 15 16  1  0
 16 17  1  0
 17 18  1  0
 18 19  1  0
 15 20  1  0
 20 21  1  0
  9 22  2  0
  4 23  2  0
 23 24  1  0
 24 25  2  0
 25 26  1  0
 26 27  1  0
 26 28  2  0
 28 29  1  0
 29 30  2  0
 30  2  1  0
 22  5  1  0
 30 24  1  0
 21 12  1  0
 19 17  1  0
  3 31  1  0
  3 32  1  0
  6 33  1  0
  7 34  1  0
  8 35  1  0
 13 36  1  0
 13 37  1  0
 14 38  1  0
 14 39  1  0
 16 40  1  0
 16 41  1  0
 17 42  1  0
 18 43  1  0
 18 44  1  0
 19 45  1  0
 19 46  1  0
 20 47  1  0
 20 48  1  0
 21 49  1  0
 21 50  1  0
 22 51  1  0
 25 52  1  0
 28 53  1  0
 29 54  1  0
M  END
>  <smiles>  (11) 
O=C1CC(c2cccc(C(=O)N3CCN(CC4CC4)CC3)c2)=Nc2cc(Cl)ccc21

>  <score_type>  (11) 
oracle

>  <origin>  (11) 
autodockgpu

>  <m_score__min__energy>  (11) 
-8.7699999999999996

>  <m_primary>  (11) 
energy

>  <rmsd>  (11) 
6.900735025432132

>  <m_score__min__rmsd>  (11) 
6.900735025432132

>  <meeko>  (11) 
{"free_energy": -7.57, "intermolecular_energy": -8.77, "internal_energy": -1.64, "cluster_size": 16, "cluster_id": 4, "rank_in_cluster": 12}

>  <energy>  (11) 
-8.56

>  <cluster_rmsd>  (11) 
0.27

>  <cluster>  (11) 
1

$$$$

     RDKit          3D

 54 58  0  0  0  0  0  0  0  0999 V2000
  136.9970   73.1060  221.3670 O   0  0  0  0  0  0  0  0  0  0  0  0
  138.2210   73.1470  221.6770 C   0  0  0  0  0  0  0  0  0  0  0  0
  139.0680   74.1230  220.9720 C   0  0  0  0  0  0  0  0  0  0  0  0
  140.4850   74.0610  221.4370 C   0  0  0  0  0  0  0  0  0  0  0  0
  141.4570   74.9720  220.8380 C   0  0  0  0  0  0  0  0  0  0  0  0
  142.6150   74.4620  220.2650 C   0  0  0  0  0  0  0  0  0  0  0  0
  143.5050   75.3850  219.7070 C   0  0  0  0  0  0  0  0  0  0  0  0
  143.2590   76.7420  219.7150 C   0  0  0  0  0  0  0  0  0  0  0  0
  142.1110   77.2400  220.2810 C   0  0  0  0  0  0  0  0  0  0  0  0
  141.7540   78.6400  220.3400 C   0  0  0  0  0  0  0  0  0  0  0  0
  141.2960   79.1420  219.2520 O   0  0  0  0  0  0  0  0  0  0  0  0
  141.8770   79.4580  221.4830 N   0  0  0  0  0  0  0  0  0  0  0  0
  142.3670   79.0140  222.7670 C   0  0  0  0  0  0  0  0  0  0  0  0
  141.2220   79.0880  223.7540 C   0  0  0  0  0  0  0  0  0  0  0  0
  140.2710   80.0170  223.3230 N   0  0  0  0  0  0  0  0  0  0  0  0
  138.9570   80.0110  223.8010 C   0  0  0  0  0  0  0  0  0  0  0  0
  137.9620   79.1710  223.0600 C   0  0  0  0  0  0  0  0  0  0  0  0
  138.1880   78.8160  221.6500 C   0  0  0  0  0  0  0  0  0  0  0  0
  138.4120   77.7690  222.7370 C   0  0  0  0  0  0  0  0  0  0  0  0
  140.6550   81.1740  222.6270 C   0  0  0  0  0  0  0  0  0  0  0  0
  141.4930   80.8750  221.3880 C   0  0  0  0  0  0  0  0  0  0  0  0
  141.2330   76.3310  220.8340 C   0  0  0  0  0  0  0  0  0  0  0  0
  140.8850   73.2390  222.3520 N   0  0  0  0  0  0  0  0  0  0  0  0
  140.0940   72.3060  223.0320 C   0  0  0  0  0  0  0  0  0  0  0  0
  140.6060   71.4640  223.9980 C   0  0  0  0  0  0  0  0  0  0  0  0
  139.7580   70.5780  224.6190 C   0  0  0  0  0  0  0  0  0  0  0  0
  140.4600   69.5240  225.8460 Cl  0  0  0  0  0  0  0  0  0  0  0  0
  138.4090   70.5050  224.3030 C   0  0  0  0  0  0  0  0  0  0  0  0
  137.8800   71.3500  223.3280 C   0  0  0  0  0  0  0  0  0  0  0  0
  138.7420   72.2450  222.7040 C   0  0  0  0  0  0  0  0  0  0  0  0
  139.0369   73.9088  219.8935 H   0  0  0  0  0  0  0  0  0  0  0  0
  138.6808   75.1304  221.1848 H   0  0  0  0  0  0  0  0  0  0  0  0
  142.8224   73.3818  220.2508 H   0  0  0  0  0  0  0  0  0  0  0  0
  144.4331   75.0161  219.2459 H   0  0  0  0  0  0  0  0  0  0  0  0
  143.9883   77.4312  219.2643 H   0  0  0  0  0  0  0  0  0  0  0  0
  142.7283   77.9778  222.6910 H   0  0  0  0  0  0  0  0  0  0  0  0
  143.2005   79.6502  223.0994 H   0  0  0  0  0  0  0  0  0  0  0  0
  140.7503   78.0978  223.8379 H   0  0  0  0  0  0  0  0  0  0  0  0
  141.6125   79.4028  224.7330 H   0  0  0  0  0  0  0  0  0  0  0  0
  138.9847   79.6515  224.8402 H   0  0  0  0  0  0  0  0  0  0  0  0
  138.6047   81.0453  223.6742 H   0  0  0  0  0  0  0  0  0  0  0  0
  137.1103   79.6369  223.5773 H   0  0  0  0  0  0  0  0  0  0  0  0
  137.3334   78.7210  220.9640 H   0  0  0  0  0  0  0  0  0  0  0  0
  138.7987   79.2300  220.8341 H   0  0  0  0  0  0  0  0  0  0  0  0
  137.7166   76.9236  222.8456 H   0  0  0  0  0  0  0  0  0  0  0  0
  139.2420   77.1160  223.0447 H   0  0  0  0  0  0  0  0  0  0  0  0
  139.7479   81.7123  222.3149 H   0  0  0  0  0  0  0  0  0  0  0  0
  141.2766   81.7753  223.3068 H   0  0  0  0  0  0  0  0  0  0  0  0
  140.9019   81.0494  220.4769 H   0  0  0  0  0  0  0  0  0  0  0  0
  142.3775   81.5269  221.3360 H   0  0  0  0  0  0  0  0  0  0  0  0
  140.3087   76.7101  221.2943 H   0  0  0  0  0  0  0  0  0  0  0  0
  141.6722   71.5011  224.2660 H   0  0  0  0  0  0  0  0  0  0  0  0
  137.7592   69.7833  224.8196 H   0  0  0  0  0  0  0  0  0  0  0  0
  136.8137   71.3098  223.0608 H   0  0  0  0  0  0  0  0  0  0  0  0
  1  2  2  0
  2  3  1  0
  3  4  1  0
  4  5  1  0
  5  6  2  0
  6  7  1  0
  7  8  2  0
  8  9  1  0
  9 10  1  0
 10 11  2  0
 10 12  1  0
 12 13  1  0
 13 14  1  0
 14 15  1  0
 15 16  1  0
 16 17  1  0
 17 18  1  0
 18 19  1  0
 15 20  1  0
 20 21  1  0
  9 22  2  0
  4 23  2  0
 23 24  1  0
 24 25  2  0
 25 26  1  0
 26 27  1  0
 26 28  2  0
 28 29  1  0
 29 30  2  0
 30  2  1  0
 22  5  1  0
 30 24  1  0
 21 12  1  0
 19 17  1  0
  3 31  1  0
  3 32  1  0
  6 33  1  0
  7 34  1  0
  8 35  1  0
 13 36  1  0
 13 37  1  0
 14 38  1  0
 14 39  1  0
 16 40  1  0
 16 41  1  0
 17 42  1  0
 18 43  1  0
 18 44  1  0
 19 45  1  0
 19 46  1  0
 20 47  1  0
 20 48  1  0
 21 49  1  0
 21 50  1  0
 22 51  1  0
 25 52  1  0
 28 53  1  0
 29 54  1  0
M  END
>  <smiles>  (12) 
O=C1CC(c2cccc(C(=O)N3CCN(CC4CC4)CC3)c2)=Nc2cc(Cl)ccc21

>  <score_type>  (12) 
oracle

>  <origin>  (12) 
autodockgpu

>  <m_score__min__energy>  (12) 
-8.7699999999999996

>  <m_primary>  (12) 
energy

>  <rmsd>  (12) 
6.929908247964964

>  <m_score__min__rmsd>  (12) 
6.929908247964964

>  <meeko>  (12) 
{"free_energy": -7.59, "intermolecular_energy": -8.78, "internal_energy": -1.68, "cluster_size": 16, "cluster_id": 4, "rank_in_cluster": 11}

>  <energy>  (12) 
-8.43

>  <cluster_rmsd>  (12) 
0.4

>  <cluster>  (12) 
1

$$$$

     RDKit          3D

 54 58  0  0  0  0  0  0  0  0999 V2000
  138.5660   69.4370  221.6260 O   0  0  0  0  0  0  0  0  0  0  0  0
  139.2090   70.3350  222.2410 C   0  0  0  0  0  0  0  0  0  0  0  0
  139.5650   71.5500  221.4920 C   0  0  0  0  0  0  0  0  0  0  0  0
  140.3210   72.5190  222.3390 C   0  0  0  0  0  0  0  0  0  0  0  0
  140.7460   73.7830  221.7450 C   0  0  0  0  0  0  0  0  0  0  0  0
  141.8810   73.8200  220.9470 C   0  0  0  0  0  0  0  0  0  0  0  0
  142.2350   75.0610  220.4060 C   0  0  0  0  0  0  0  0  0  0  0  0
  141.5000   76.2040  220.6430 C   0  0  0  0  0  0  0  0  0  0  0  0
  140.3780   76.1600  221.4320 C   0  0  0  0  0  0  0  0  0  0  0  0
  139.5350   77.2940  221.7420 C   0  0  0  0  0  0  0  0  0  0  0  0
  138.7710   77.1550  222.7640 O   0  0  0  0  0  0  0  0  0  0  0  0
  139.5030   78.5010  221.0120 N   0  0  0  0  0  0  0  0  0  0  0  0
  140.3170   78.7860  219.8530 C   0  0  0  0  0  0  0  0  0  0  0  0
  141.2730   79.9010  220.2180 C   0  0  0  0  0  0  0  0  0  0  0  0
  140.7580   80.6530  221.2770 N   0  0  0  0  0  0  0  0  0  0  0  0
  141.5680   81.4700  222.0720 C   0  0  0  0  0  0  0  0  0  0  0  0
  142.1650   80.8550  223.3000 C   0  0  0  0  0  0  0  0  0  0  0  0
  141.6250   79.6000  223.8460 C   0  0  0  0  0  0  0  0  0  0  0  0
  142.9420   79.5830  223.0760 C   0  0  0  0  0  0  0  0  0  0  0  0
  139.3750   80.8610  221.4110 C   0  0  0  0  0  0  0  0  0  0  0  0
  138.5760   79.5630  221.4330 C   0  0  0  0  0  0  0  0  0  0  0  0
  140.0280   74.9380  221.9690 C   0  0  0  0  0  0  0  0  0  0  0  0
  140.6090   72.2870  223.5790 N   0  0  0  0  0  0  0  0  0  0  0  0
  140.2770   71.1380  224.3060 C   0  0  0  0  0  0  0  0  0  0  0  0
  140.6260   70.9730  225.6310 C   0  0  0  0  0  0  0  0  0  0  0  0
  140.2600   69.8130  226.2720 C   0  0  0  0  0  0  0  0  0  0  0  0
  140.7290   69.6500  227.9630 Cl  0  0  0  0  0  0  0  0  0  0  0  0
  139.5540   68.8070  225.6270 C   0  0  0  0  0  0  0  0  0  0  0  0
  139.1960   68.9620  224.2870 C   0  0  0  0  0  0  0  0  0  0  0  0
  139.5680   70.1380  223.6460 C   0  0  0  0  0  0  0  0  0  0  0  0
  140.1880   71.2679  220.6304 H   0  0  0  0  0  0  0  0  0  0  0  0
  138.6342   72.0353  221.1633 H   0  0  0  0  0  0  0  0  0  0  0  0
  142.4749   72.9155  220.7490 H   0  0  0  0  0  0  0  0  0  0  0  0
  143.1300   75.1274  219.7700 H   0  0  0  0  0  0  0  0  0  0  0  0
  141.8157   77.1582  220.1961 H   0  0  0  0  0  0  0  0  0  0  0  0
  140.8830   77.8882  219.5640 H   0  0  0  0  0  0  0  0  0  0  0  0
  139.6840   79.0866  219.0051 H   0  0  0  0  0  0  0  0  0  0  0  0
  142.2390   79.4678  220.5165 H   0  0  0  0  0  0  0  0  0  0  0  0
  141.4082   80.5569  219.3454 H   0  0  0  0  0  0  0  0  0  0  0  0
  142.3976   81.8256  221.4433 H   0  0  0  0  0  0  0  0  0  0  0  0
  140.8963   82.2564  222.4468 H   0  0  0  0  0  0  0  0  0  0  0  0
  142.3561   81.8374  223.7564 H   0  0  0  0  0  0  0  0  0  0  0  0
  141.6222   79.4304  224.9328 H   0  0  0  0  0  0  0  0  0  0  0  0
  140.6683   79.0642  223.7585 H   0  0  0  0  0  0  0  0  0  0  0  0
  143.8918   79.4121  223.6039 H   0  0  0  0  0  0  0  0  0  0  0  0
  143.3389   79.0440  222.2031 H   0  0  0  0  0  0  0  0  0  0  0  0
  139.1915   81.4014  222.3514 H   0  0  0  0  0  0  0  0  0  0  0  0
  139.0428   81.4366  220.5345 H   0  0  0  0  0  0  0  0  0  0  0  0
  138.2028   79.3625  222.4481 H   0  0  0  0  0  0  0  0  0  0  0  0
  137.7029   79.6194  220.7663 H   0  0  0  0  0  0  0  0  0  0  0  0
  139.1331   74.8830  222.6063 H   0  0  0  0  0  0  0  0  0  0  0  0
  141.1865   71.7549  226.1643 H   0  0  0  0  0  0  0  0  0  0  0  0
  139.2777   67.8911  226.1699 H   0  0  0  0  0  0  0  0  0  0  0  0
  138.6370   68.1782  223.7548 H   0  0  0  0  0  0  0  0  0  0  0  0
  1  2  2  0
  2  3  1  0
  3  4  1  0
  4  5  1  0
  5  6  2  0
  6  7  1  0
  7  8  2  0
  8  9  1  0
  9 10  1  0
 10 11  2  0
 10 12  1  0
 12 13  1  0
 13 14  1  0
 14 15  1  0
 15 16  1  0
 16 17  1  0
 17 18  1  0
 18 19  1  0
 15 20  1  0
 20 21  1  0
  9 22  2  0
  4 23  2  0
 23 24  1  0
 24 25  2  0
 25 26  1  0
 26 27  1  0
 26 28  2  0
 28 29  1  0
 29 30  2  0
 30  2  1  0
 22  5  1  0
 30 24  1  0
 21 12  1  0
 19 17  1  0
  3 31  1  0
  3 32  1  0
  6 33  1  0
  7 34  1  0
  8 35  1  0
 13 36  1  0
 13 37  1  0
 14 38  1  0
 14 39  1  0
 16 40  1  0
 16 41  1  0
 17 42  1  0
 18 43  1  0
 18 44  1  0
 19 45  1  0
 19 46  1  0
 20 47  1  0
 20 48  1  0
 21 49  1  0
 21 50  1  0
 22 51  1  0
 25 52  1  0
 28 53  1  0
 29 54  1  0
M  END
>  <smiles>  (13) 
O=C1CC(c2cccc(C(=O)N3CCN(CC4CC4)CC3)c2)=Nc2cc(Cl)ccc21

>  <score_type>  (13) 
oracle

>  <origin>  (13) 
autodockgpu

>  <m_score__min__energy>  (13) 
-8.7699999999999996

>  <m_primary>  (13) 
energy

>  <rmsd>  (13) 
6.199568609716274

>  <m_score__min__rmsd>  (13) 
6.199568609716274

>  <meeko>  (13) 
{"free_energy": -8.11, "intermolecular_energy": -9.3, "internal_energy": -1.18, "cluster_size": 18, "cluster_id": 2, "rank_in_cluster": 9}

>  <energy>  (13) 
-8.34

>  <cluster_rmsd>  (13) 
0.57

>  <cluster>  (13) 
1

$$$$

     RDKit          3D

 54 58  0  0  0  0  0  0  0  0999 V2000
  138.5640   69.4430  221.5670 O   0  0  0  0  0  0  0  0  0  0  0  0
  139.1890   70.3430  222.1960 C   0  0  0  0  0  0  0  0  0  0  0  0
  139.5420   71.5670  221.4600 C   0  0  0  0  0  0  0  0  0  0  0  0
  140.2760   72.5390  222.3240 C   0  0  0  0  0  0  0  0  0  0  0  0
  140.6950   73.8110  221.7440 C   0  0  0  0  0  0  0  0  0  0  0  0
  141.8360   73.8640  220.9550 C   0  0  0  0  0  0  0  0  0  0  0  0
  142.1850   75.1120  220.4270 C   0  0  0  0  0  0  0  0  0  0  0  0
  141.4390   76.2470  220.6690 C   0  0  0  0  0  0  0  0  0  0  0  0
  140.3110   76.1880  221.4500 C   0  0  0  0  0  0  0  0  0  0  0  0
  139.4570   77.3130  221.7630 C   0  0  0  0  0  0  0  0  0  0  0  0
  138.6920   77.1610  222.7820 O   0  0  0  0  0  0  0  0  0  0  0  0
  139.4160   78.5220  221.0380 N   0  0  0  0  0  0  0  0  0  0  0  0
  140.2300   78.8200  219.8830 C   0  0  0  0  0  0  0  0  0  0  0  0
  141.1750   79.9420  220.2560 C   0  0  0  0  0  0  0  0  0  0  0  0
  140.6500   80.6840  221.3170 N   0  0  0  0  0  0  0  0  0  0  0  0
  141.4510   81.5050  222.1180 C   0  0  0  0  0  0  0  0  0  0  0  0
  142.0530   80.8890  223.3430 C   0  0  0  0  0  0  0  0  0  0  0  0
  141.6060   79.5680  223.8130 C   0  0  0  0  0  0  0  0  0  0  0  0
  142.9470   79.7010  223.0980 C   0  0  0  0  0  0  0  0  0  0  0  0
  139.2650   80.8790  221.4480 C   0  0  0  0  0  0  0  0  0  0  0  0
  138.4780   79.5740  221.4620 C   0  0  0  0  0  0  0  0  0  0  0  0
  139.9660   74.9580  221.9720 C   0  0  0  0  0  0  0  0  0  0  0  0
  140.5490   72.3010  223.5660 N   0  0  0  0  0  0  0  0  0  0  0  0
  140.2200   71.1440  224.2810 C   0  0  0  0  0  0  0  0  0  0  0  0
  140.5520   70.9740  225.6100 C   0  0  0  0  0  0  0  0  0  0  0  0
  140.1890   69.8060  226.2380 C   0  0  0  0  0  0  0  0  0  0  0  0
  140.6360   69.6370  227.9350 Cl  0  0  0  0  0  0  0  0  0  0  0  0
  139.5030   68.7970  225.5770 C   0  0  0  0  0  0  0  0  0  0  0  0
  139.1620   68.9570  224.2330 C   0  0  0  0  0  0  0  0  0  0  0  0
  139.5310   70.1410  223.6040 C   0  0  0  0  0  0  0  0  0  0  0  0
  140.1798   71.2975  220.6053 H   0  0  0  0  0  0  0  0  0  0  0  0
  138.6105   72.0444  221.1219 H   0  0  0  0  0  0  0  0  0  0  0  0
  142.4384   72.9658  220.7540 H   0  0  0  0  0  0  0  0  0  0  0  0
  143.0840   75.1907  219.7981 H   0  0  0  0  0  0  0  0  0  0  0  0
  141.7504   77.2075  220.2326 H   0  0  0  0  0  0  0  0  0  0  0  0
  140.8049   77.9288  219.5911 H   0  0  0  0  0  0  0  0  0  0  0  0
  139.5965   79.1190  219.0349 H   0  0  0  0  0  0  0  0  0  0  0  0
  142.1441   79.5162  220.5552 H   0  0  0  0  0  0  0  0  0  0  0  0
  141.3069   80.6033  219.3869 H   0  0  0  0  0  0  0  0  0  0  0  0
  142.2776   81.8728  221.4923 H   0  0  0  0  0  0  0  0  0  0  0  0
  140.7709   82.2822  222.4966 H   0  0  0  0  0  0  0  0  0  0  0  0
  142.1389   81.8625  223.8480 H   0  0  0  0  0  0  0  0  0  0  0  0
  141.5777   79.3493  224.8907 H   0  0  0  0  0  0  0  0  0  0  0  0
  140.7045   78.9556  223.6637 H   0  0  0  0  0  0  0  0  0  0  0  0
  143.8878   79.5894  223.6570 H   0  0  0  0  0  0  0  0  0  0  0  0
  143.4224   79.2390  222.2202 H   0  0  0  0  0  0  0  0  0  0  0  0
  139.0740   81.4135  222.3902 H   0  0  0  0  0  0  0  0  0  0  0  0
  138.9300   81.4556  220.5732 H   0  0  0  0  0  0  0  0  0  0  0  0
  138.1042   79.3654  222.4753 H   0  0  0  0  0  0  0  0  0  0  0  0
  137.6059   79.6256  220.7935 H   0  0  0  0  0  0  0  0  0  0  0  0
  139.0657   74.8899  222.6004 H   0  0  0  0  0  0  0  0  0  0  0  0
  141.0967   71.7581  226.1563 H   0  0  0  0  0  0  0  0  0  0  0  0
  139.2290   67.8747  226.1101 H   0  0  0  0  0  0  0  0  0  0  0  0
  138.6183   68.1710  223.6884 H   0  0  0  0  0  0  0  0  0  0  0  0
  1  2  2  0
  2  3  1  0
  3  4  1  0
  4  5  1  0
  5  6  2  0
  6  7  1  0
  7  8  2  0
  8  9  1  0
  9 10  1  0
 10 11  2  0
 10 12  1  0
 12 13  1  0
 13 14  1  0
 14 15  1  0
 15 16  1  0
 16 17  1  0
 17 18  1  0
 18 19  1  0
 15 20  1  0
 20 21  1  0
  9 22  2  0
  4 23  2  0
 23 24  1  0
 24 25  2  0
 25 26  1  0
 26 27  1  0
 26 28  2  0
 28 29  1  0
 29 30  2  0
 30  2  1  0
 22  5  1  0
 30 24  1  0
 21 12  1  0
 19 17  1  0
  3 31  1  0
  3 32  1  0
  6 33  1  0
  7 34  1  0
  8 35  1  0
 13 36  1  0
 13 37  1  0
 14 38  1  0
 14 39  1  0
 16 40  1  0
 16 41  1  0
 17 42  1  0
 18 43  1  0
 18 44  1  0
 19 45  1  0
 19 46  1  0
 20 47  1  0
 20 48  1  0
 21 49  1  0
 21 50  1  0
 22 51  1  0
 25 52  1  0
 28 53  1  0
 29 54  1  0
M  END
>  <smiles>  (14) 
O=C1CC(c2cccc(C(=O)N3CCN(CC4CC4)CC3)c2)=Nc2cc(Cl)ccc21

>  <score_type>  (14) 
oracle

>  <origin>  (14) 
autodockgpu

>  <m_score__min__energy>  (14) 
-8.7699999999999996

>  <m_primary>  (14) 
energy

>  <rmsd>  (14) 
6.224013915125949

>  <m_score__min__rmsd>  (14) 
6.224013915125949

>  <meeko>  (14) 
{"free_energy": -8.11, "intermolecular_energy": -9.3, "internal_energy": -1.18, "cluster_size": 18, "cluster_id": 2, "rank_in_cluster": 8}

>  <energy>  (14) 
-8.16

>  <cluster_rmsd>  (14) 
0.77

>  <cluster>  (14) 
1

$$$$

     RDKit          3D

 54 58  0  0  0  0  0  0  0  0999 V2000
  137.0390   73.0500  221.3300 O   0  0  0  0  0  0  0  0  0  0  0  0
  138.2600   73.1120  221.6490 C   0  0  0  0  0  0  0  0  0  0  0  0
  139.0970   74.0940  220.9440 C   0  0  0  0  0  0  0  0  0  0  0  0
  140.5120   74.0570  221.4190 C   0  0  0  0  0  0  0  0  0  0  0  0
  141.4750   74.9770  220.8210 C   0  0  0  0  0  0  0  0  0  0  0  0
  142.6330   74.4780  220.2400 C   0  0  0  0  0  0  0  0  0  0  0  0
  143.5150   75.4100  219.6830 C   0  0  0  0  0  0  0  0  0  0  0  0
  143.2600   76.7660  219.7010 C   0  0  0  0  0  0  0  0  0  0  0  0
  142.1130   77.2520  220.2770 C   0  0  0  0  0  0  0  0  0  0  0  0
  141.7470   78.6500  220.3470 C   0  0  0  0  0  0  0  0  0  0  0  0
  141.2830   79.1570  219.2630 O   0  0  0  0  0  0  0  0  0  0  0  0
  141.8670   79.4600  221.4960 N   0  0  0  0  0  0  0  0  0  0  0  0
  142.3640   79.0090  222.7750 C   0  0  0  0  0  0  0  0  0  0  0  0
  141.2210   79.0700  223.7650 C   0  0  0  0  0  0  0  0  0  0  0  0
  140.2630   79.9960  223.3440 N   0  0  0  0  0  0  0  0  0  0  0  0
  138.9500   79.9780  223.8250 C   0  0  0  0  0  0  0  0  0  0  0  0
  137.9520   79.1620  223.0620 C   0  0  0  0  0  0  0  0  0  0  0  0
  138.1750   78.8440  221.6430 C   0  0  0  0  0  0  0  0  0  0  0  0
  138.3960   77.7680  222.7020 C   0  0  0  0  0  0  0  0  0  0  0  0
  140.6380   81.1610  222.6550 C   0  0  0  0  0  0  0  0  0  0  0  0
  141.4740   80.8750  221.4120 C   0  0  0  0  0  0  0  0  0  0  0  0
  141.2420   76.3350  220.8280 C   0  0  0  0  0  0  0  0  0  0  0  0
  140.9170   73.2460  222.3420 N   0  0  0  0  0  0  0  0  0  0  0  0
  140.1350   72.3060  223.0230 C   0  0  0  0  0  0  0  0  0  0  0  0
  140.6520   71.4780  223.9990 C   0  0  0  0  0  0  0  0  0  0  0  0
  139.8120   70.5830  224.6190 C   0  0  0  0  0  0  0  0  0  0  0  0
  140.5200   69.5480  225.8580 Cl  0  0  0  0  0  0  0  0  0  0  0  0
  138.4660   70.4890  224.2940 C   0  0  0  0  0  0  0  0  0  0  0  0
  137.9320   71.3200  223.3090 C   0  0  0  0  0  0  0  0  0  0  0  0
  138.7860   72.2240  222.6860 C   0  0  0  0  0  0  0  0  0  0  0  0
  139.0768   73.8715  219.8669 H   0  0  0  0  0  0  0  0  0  0  0  0
  138.6935   75.0969  221.1474 H   0  0  0  0  0  0  0  0  0  0  0  0
  142.8471   73.3992  220.2187 H   0  0  0  0  0  0  0  0  0  0  0  0
  144.4430   75.0498  219.2149 H   0  0  0  0  0  0  0  0  0  0  0  0
  143.9818   77.4630  219.2501 H   0  0  0  0  0  0  0  0  0  0  0  0
  142.7305   77.9753  222.6903 H   0  0  0  0  0  0  0  0  0  0  0  0
  143.1957   79.6464  223.1097 H   0  0  0  0  0  0  0  0  0  0  0  0
  140.7554   78.0765  223.8432 H   0  0  0  0  0  0  0  0  0  0  0  0
  141.6127   79.3811  224.7447 H   0  0  0  0  0  0  0  0  0  0  0  0
  138.9796   79.5878  224.8530 H   0  0  0  0  0  0  0  0  0  0  0  0
  138.5992   81.0162  223.7298 H   0  0  0  0  0  0  0  0  0  0  0  0
  137.1026   79.6176  223.5920 H   0  0  0  0  0  0  0  0  0  0  0  0
  137.3193   78.7705  220.9557 H   0  0  0  0  0  0  0  0  0  0  0  0
  138.7863   79.2771  220.8376 H   0  0  0  0  0  0  0  0  0  0  0  0
  137.6974   76.9228  222.7891 H   0  0  0  0  0  0  0  0  0  0  0  0
  139.2238   77.1040  222.9916 H   0  0  0  0  0  0  0  0  0  0  0  0
  139.7268   81.6960  222.3492 H   0  0  0  0  0  0  0  0  0  0  0  0
  141.2575   81.7618  223.3372 H   0  0  0  0  0  0  0  0  0  0  0  0
  140.8791   81.0519  220.5038 H   0  0  0  0  0  0  0  0  0  0  0  0
  142.3545   81.5324  221.3622 H   0  0  0  0  0  0  0  0  0  0  0  0
  140.3176   76.7055  221.2951 H   0  0  0  0  0  0  0  0  0  0  0  0
  141.7153   71.5330  224.2754 H   0  0  0  0  0  0  0  0  0  0  0  0
  137.8227   69.7619  224.8112 H   0  0  0  0  0  0  0  0  0  0  0  0
  136.8686   71.2622  223.0336 H   0  0  0  0  0  0  0  0  0  0  0  0
  1  2  2  0
  2  3  1  0
  3  4  1  0
  4  5  1  0
  5  6  2  0
  6  7  1  0
  7  8  2  0
  8  9  1  0
  9 10  1  0
 10 11  2  0
 10 12  1  0
 12 13  1  0
 13 14  1  0
 14 15  1  0
 15 16  1  0
 16 17  1  0
 17 18  1  0
 18 19  1  0
 15 20  1  0
 20 21  1  0
  9 22  2  0
  4 23  2  0
 23 24  1  0
 24 25  2  0
 25 26  1  0
 26 27  1  0
 26 28  2  0
 28 29  1  0
 29 30  2  0
 30  2  1  0
 22  5  1  0
 30 24  1  0
 21 12  1  0
 19 17  1  0
  3 31  1  0
  3 32  1  0
  6 33  1  0
  7 34  1  0
  8 35  1  0
 13 36  1  0
 13 37  1  0
 14 38  1  0
 14 39  1  0
 16 40  1  0
 16 41  1  0
 17 42  1  0
 18 43  1  0
 18 44  1  0
 19 45  1  0
 19 46  1  0
 20 47  1  0
 20 48  1  0
 21 49  1  0
 21 50  1  0
 22 51  1  0
 25 52  1  0
 28 53  1  0
 29 54  1  0
M  END
>  <smiles>  (15) 
O=C1CC(c2cccc(C(=O)N3CCN(CC4CC4)CC3)c2)=Nc2cc(Cl)ccc21

>  <score_type>  (15) 
oracle

>  <origin>  (15) 
autodockgpu

>  <m_score__min__energy>  (15) 
-8.7699999999999996

>  <m_primary>  (15) 
energy

>  <rmsd>  (15) 
6.927153466942716

>  <m_score__min__rmsd>  (15) 
6.927153466942716

>  <meeko>  (15) 
{"free_energy": -7.59, "intermolecular_energy": -8.78, "internal_energy": -1.68, "cluster_size": 16, "cluster_id": 4, "rank_in_cluster": 10}

>  <energy>  (15) 
-8.26

>  <cluster_rmsd>  (15) 
0.0

>  <cluster>  (15) 
2

$$$$

     RDKit          3D

 54 58  0  0  0  0  0  0  0  0999 V2000
  137.2110   76.9220  222.4610 O   0  0  0  0  0  0  0  0  0  0  0  0
  138.4630   76.7690  222.3720 C   0  0  0  0  0  0  0  0  0  0  0  0
  138.9570   75.4630  221.9100 C   0  0  0  0  0  0  0  0  0  0  0  0
  140.4480   75.4250  221.8540 C   0  0  0  0  0  0  0  0  0  0  0  0
  141.1000   74.1960  221.4090 C   0  0  0  0  0  0  0  0  0  0  0  0
  142.3590   74.2570  220.8280 C   0  0  0  0  0  0  0  0  0  0  0  0
  142.9300   73.0460  220.4250 C   0  0  0  0  0  0  0  0  0  0  0  0
  142.2860   71.8380  220.5900 C   0  0  0  0  0  0  0  0  0  0  0  0
  141.0410   71.7840  221.1660 C   0  0  0  0  0  0  0  0  0  0  0  0
  140.2800   70.5740  221.3900 C   0  0  0  0  0  0  0  0  0  0  0  0
  140.6400   69.5570  220.6940 O   0  0  0  0  0  0  0  0  0  0  0  0
  139.2050   70.4510  222.2940 N   0  0  0  0  0  0  0  0  0  0  0  0
  138.7110   71.5140  223.1390 C   0  0  0  0  0  0  0  0  0  0  0  0
  138.9890   71.1320  224.5770 C   0  0  0  0  0  0  0  0  0  0  0  0
  139.1070   69.7450  224.6960 N   0  0  0  0  0  0  0  0  0  0  0  0
  139.7410   69.1440  225.7880 C   0  0  0  0  0  0  0  0  0  0  0  0
  140.9150   69.8610  226.3780 C   0  0  0  0  0  0  0  0  0  0  0  0
  140.7180   71.0460  227.2280 C   0  0  0  0  0  0  0  0  0  0  0  0
  141.0840   69.7110  227.8680 C   0  0  0  0  0  0  0  0  0  0  0  0
  138.3450   68.8830  223.8900 C   0  0  0  0  0  0  0  0  0  0  0  0
  138.5080   69.1590  222.4000 C   0  0  0  0  0  0  0  0  0  0  0  0
  140.4750   72.9770  221.5640 C   0  0  0  0  0  0  0  0  0  0  0  0
  141.1850   76.4370  222.1790 N   0  0  0  0  0  0  0  0  0  0  0  0
  140.7320   77.6860  222.6190 C   0  0  0  0  0  0  0  0  0  0  0  0
  141.5930   78.7140  222.9460 C   0  0  0  0  0  0  0  0  0  0  0  0
  141.0630   79.9100  223.3690 C   0  0  0  0  0  0  0  0  0  0  0  0
  142.2040   81.1920  223.7740 Cl  0  0  0  0  0  0  0  0  0  0  0  0
  139.6950   80.1120  223.4790 C   0  0  0  0  0  0  0  0  0  0  0  0
  138.8140   79.0800  223.1520 C   0  0  0  0  0  0  0  0  0  0  0  0
  139.3560   77.8730  222.7240 C   0  0  0  0  0  0  0  0  0  0  0  0
  138.6063   74.6839  222.6028 H   0  0  0  0  0  0  0  0  0  0  0  0
  138.5712   75.2902  220.8945 H   0  0  0  0  0  0  0  0  0  0  0  0
  142.8835   75.2141  220.6909 H   0  0  0  0  0  0  0  0  0  0  0  0
  143.9270   73.0574  219.9605 H   0  0  0  0  0  0  0  0  0  0  0  0
  142.7738   70.9099  220.2573 H   0  0  0  0  0  0  0  0  0  0  0  0
  139.2263   72.4549  222.8959 H   0  0  0  0  0  0  0  0  0  0  0  0
  137.6318   71.6580  222.9824 H   0  0  0  0  0  0  0  0  0  0  0  0
  139.9268   71.6053  224.9034 H   0  0  0  0  0  0  0  0  0  0  0  0
  138.1547   71.4755  225.2062 H   0  0  0  0  0  0  0  0  0  0  0  0
  138.9903   69.0280  226.5836 H   0  0  0  0  0  0  0  0  0  0  0  0
  140.1527   68.2032  225.3938 H   0  0  0  0  0  0  0  0  0  0  0  0
  141.5305   69.6879  225.4829 H   0  0  0  0  0  0  0  0  0  0  0  0
  141.4524   71.8646  227.2074 H   0  0  0  0  0  0  0  0  0  0  0  0
  139.9064   71.7757  227.3657 H   0  0  0  0  0  0  0  0  0  0  0  0
  142.0836   69.5582  228.3009 H   0  0  0  0  0  0  0  0  0  0  0  0
  140.6552   69.0669  228.6498 H   0  0  0  0  0  0  0  0  0  0  0  0
  138.6581   67.8478  224.0907 H   0  0  0  0  0  0  0  0  0  0  0  0
  137.2869   69.0488  224.1408 H   0  0  0  0  0  0  0  0  0  0  0  0
  139.1047   68.3643  221.9283 H   0  0  0  0  0  0  0  0  0  0  0  0
  137.5342   69.1865  221.8892 H   0  0  0  0  0  0  0  0  0  0  0  0
  139.4775   72.9549  222.0271 H   0  0  0  0  0  0  0  0  0  0  0  0
  142.6820   78.5790  222.8697 H   0  0  0  0  0  0  0  0  0  0  0  0
  139.3060   81.0818  223.8227 H   0  0  0  0  0  0  0  0  0  0  0  0
  137.7254   79.2171  223.2303 H   0  0  0  0  0  0  0  0  0  0  0  0
  1  2  2  0
  2  3  1  0
  3  4  1  0
  4  5  1  0
  5  6  2  0
  6  7  1  0
  7  8  2  0
  8  9  1  0
  9 10  1  0
 10 11  2  0
 10 12  1  0
 12 13  1  0
 13 14  1  0
 14 15  1  0
 15 16  1  0
 16 17  1  0
 17 18  1  0
 18 19  1  0
 15 20  1  0
 20 21  1  0
  9 22  2  0
  4 23  2  0
 23 24  1  0
 24 25  2  0
 25 26  1  0
 26 27  1  0
 26 28  2  0
 28 29  1  0
 29 30  2  0
 30  2  1  0
 22  5  1  0
 30 24  1  0
 21 12  1  0
 19 17  1  0
  3 31  1  0
  3 32  1  0
  6 33  1  0
  7 34  1  0
  8 35  1  0
 13 36  1  0
 13 37  1  0
 14 38  1  0
 14 39  1  0
 16 40  1  0
 16 41  1  0
 17 42  1  0
 18 43  1  0
 18 44  1  0
 19 45  1  0
 19 46  1  0
 20 47  1  0
 20 48  1  0
 21 49  1  0
 21 50  1  0
 22 51  1  0
 25 52  1  0
 28 53  1  0
 29 54  1  0
M  END
>  <smiles>  (16) 
O=C1CC(c2cccc(C(=O)N3CCN(CC4CC4)CC3)c2)=Nc2cc(Cl)ccc21

>  <score_type>  (16) 
oracle

>  <origin>  (16) 
autodockgpu

>  <m_score__min__energy>  (16) 
-8.7699999999999996

>  <m_primary>  (16) 
energy

>  <rmsd>  (16) 
8.30592661950776

>  <m_score__min__rmsd>  (16) 
8.30592661950776

>  <meeko>  (16) 
{"free_energy": -8.16, "intermolecular_energy": -9.35, "internal_energy": -0.68, "cluster_size": 14, "cluster_id": 1, "rank_in_cluster": 14}

>  <energy>  (16) 
-8.24

>  <cluster_rmsd>  (16) 
0.2

>  <cluster>  (16) 
2

$$$$

     RDKit          3D

 54 58  0  0  0  0  0  0  0  0999 V2000
  137.1470   77.2420  222.3880 O   0  0  0  0  0  0  0  0  0  0  0  0
  138.3850   76.9900  222.3620 C   0  0  0  0  0  0  0  0  0  0  0  0
  138.7960   75.6390  221.9470 C   0  0  0  0  0  0  0  0  0  0  0  0
  140.2800   75.4840  221.9640 C   0  0  0  0  0  0  0  0  0  0  0  0
  140.8530   74.1990  221.5730 C   0  0  0  0  0  0  0  0  0  0  0  0
  142.0570   74.1640  220.8830 C   0  0  0  0  0  0  0  0  0  0  0  0
  142.5530   72.9030  220.5380 C   0  0  0  0  0  0  0  0  0  0  0  0
  141.8910   71.7370  220.8620 C   0  0  0  0  0  0  0  0  0  0  0  0
  140.7010   71.7780  221.5460 C   0  0  0  0  0  0  0  0  0  0  0  0
  139.9280   70.6200  221.9390 C   0  0  0  0  0  0  0  0  0  0  0  0
  139.8950   69.6610  221.0870 O   0  0  0  0  0  0  0  0  0  0  0  0
  139.2310   70.4900  223.1580 N   0  0  0  0  0  0  0  0  0  0  0  0
  139.1970   71.4890  224.2010 C   0  0  0  0  0  0  0  0  0  0  0  0
  139.9130   70.9250  225.4090 C   0  0  0  0  0  0  0  0  0  0  0  0
  139.8980   69.5290  225.3740 N   0  0  0  0  0  0  0  0  0  0  0  0
  140.7970   68.7570  226.1160 C   0  0  0  0  0  0  0  0  0  0  0  0
  141.1100   69.2170  227.5060 C   0  0  0  0  0  0  0  0  0  0  0  0
  140.0410   69.3430  228.5100 C   0  0  0  0  0  0  0  0  0  0  0  0
  141.0040   68.1610  228.5760 C   0  0  0  0  0  0  0  0  0  0  0  0
  138.8040   68.8310  224.8360 C   0  0  0  0  0  0  0  0  0  0  0  0
  138.4660   69.2590  223.4120 C   0  0  0  0  0  0  0  0  0  0  0  0
  140.2080   73.0210  221.8860 C   0  0  0  0  0  0  0  0  0  0  0  0
  141.0790   76.4420  222.3060 N   0  0  0  0  0  0  0  0  0  0  0  0
  140.7060   77.7320  222.7020 C   0  0  0  0  0  0  0  0  0  0  0  0
  141.6290   78.6960  223.0510 C   0  0  0  0  0  0  0  0  0  0  0  0
  141.1770   79.9390  223.4270 C   0  0  0  0  0  0  0  0  0  0  0  0
  142.3950   81.1360  223.8640 Cl  0  0  0  0  0  0  0  0  0  0  0  0
  139.8250   80.2490  223.4670 C   0  0  0  0  0  0  0  0  0  0  0  0
  138.8820   79.2820  223.1170 C   0  0  0  0  0  0  0  0  0  0  0  0
  139.3460   78.0280  222.7360 C   0  0  0  0  0  0  0  0  0  0  0  0
  138.3529   74.9044  222.6355 H   0  0  0  0  0  0  0  0  0  0  0  0
  138.4459   75.4753  220.9171 H   0  0  0  0  0  0  0  0  0  0  0  0
  142.5962   75.0860  220.6197 H   0  0  0  0  0  0  0  0  0  0  0  0
  143.5041   72.8386  219.9892 H   0  0  0  0  0  0  0  0  0  0  0  0
  142.3197   70.7669  220.5702 H   0  0  0  0  0  0  0  0  0  0  0  0
  139.7040   72.4034  223.8593 H   0  0  0  0  0  0  0  0  0  0  0  0
  138.1572   71.7419  224.4555 H   0  0  0  0  0  0  0  0  0  0  0  0
  140.9553   71.2767  225.4099 H   0  0  0  0  0  0  0  0  0  0  0  0
  139.3994   71.2654  226.3202 H   0  0  0  0  0  0  0  0  0  0  0  0
  140.3791   67.7421  226.1897 H   0  0  0  0  0  0  0  0  0  0  0  0
  141.7501   68.8310  225.5718 H   0  0  0  0  0  0  0  0  0  0  0  0
  141.8776   69.9210  227.1521 H   0  0  0  0  0  0  0  0  0  0  0  0
  140.0925   70.1363  229.2703 H   0  0  0  0  0  0  0  0  0  0  0  0
  138.9471   69.4513  228.4692 H   0  0  0  0  0  0  0  0  0  0  0  0
  141.7576   68.1027  229.3752 H   0  0  0  0  0  0  0  0  0  0  0  0
  140.9082   67.0654  228.5966 H   0  0  0  0  0  0  0  0  0  0  0  0
  139.0411   67.7569  224.8322 H   0  0  0  0  0  0  0  0  0  0  0  0
  137.9292   69.0563  225.4636 H   0  0  0  0  0  0  0  0  0  0  0  0
  138.7591   68.4745  222.6988 H   0  0  0  0  0  0  0  0  0  0  0  0
  137.3857   69.4276  223.2910 H   0  0  0  0  0  0  0  0  0  0  0  0
  139.2550   73.0749  222.4328 H   0  0  0  0  0  0  0  0  0  0  0  0
  142.7062   78.4745  223.0289 H   0  0  0  0  0  0  0  0  0  0  0  0
  139.4979   81.2535  223.7735 H   0  0  0  0  0  0  0  0  0  0  0  0
  137.8051   79.5048  223.1418 H   0  0  0  0  0  0  0  0  0  0  0  0
  1  2  2  0
  2  3  1  0
  3  4  1  0
  4  5  1  0
  5  6  2  0
  6  7  1  0
  7  8  2  0
  8  9  1  0
  9 10  1  0
 10 11  2  0
 10 12  1  0
 12 13  1  0
 13 14  1  0
 14 15  1  0
 15 16  1  0
 16 17  1  0
 17 18  1  0
 18 19  1  0
 15 20  1  0
 20 21  1  0
  9 22  2  0
  4 23  2  0
 23 24  1  0
 24 25  2  0
 25 26  1  0
 26 27  1  0
 26 28  2  0
 28 29  1  0
 29 30  2  0
 30  2  1  0
 22  5  1  0
 30 24  1  0
 21 12  1  0
 19 17  1  0
  3 31  1  0
  3 32  1  0
  6 33  1  0
  7 34  1  0
  8 35  1  0
 13 36  1  0
 13 37  1  0
 14 38  1  0
 14 39  1  0
 16 40  1  0
 16 41  1  0
 17 42  1  0
 18 43  1  0
 18 44  1  0
 19 45  1  0
 19 46  1  0
 20 47  1  0
 20 48  1  0
 21 49  1  0
 21 50  1  0
 22 51  1  0
 25 52  1  0
 28 53  1  0
 29 54  1  0
M  END
>  <smiles>  (17) 
O=C1CC(c2cccc(C(=O)N3CCN(CC4CC4)CC3)c2)=Nc2cc(Cl)ccc21

>  <score_type>  (17) 
oracle

>  <origin>  (17) 
autodockgpu

>  <m_score__min__energy>  (17) 
-8.7699999999999996

>  <m_primary>  (17) 
energy

>  <rmsd>  (17) 
8.892858071101942

>  <m_score__min__rmsd>  (17) 
8.892858071101942

>  <meeko>  (17) 
{"free_energy": -8.56, "intermolecular_energy": -9.75, "internal_energy": -0.87, "cluster_size": 14, "cluster_id": 1, "rank_in_cluster": 11}

>  <energy>  (17) 
-8.24

>  <cluster_rmsd>  (17) 
0.26

>  <cluster>  (17) 
2

$$$$

     RDKit          3D

 54 58  0  0  0  0  0  0  0  0999 V2000
  138.7230   69.6020  221.2920 O   0  0  0  0  0  0  0  0  0  0  0  0
  139.2740   70.5120  221.9730 C   0  0  0  0  0  0  0  0  0  0  0  0
  139.6270   71.7610  221.2800 C   0  0  0  0  0  0  0  0  0  0  0  0
  140.2700   72.7420  222.2030 C   0  0  0  0  0  0  0  0  0  0  0  0
  140.6780   74.0390  221.6700 C   0  0  0  0  0  0  0  0  0  0  0  0
  141.8000   74.1260  220.8580 C   0  0  0  0  0  0  0  0  0  0  0  0
  142.1370   75.3960  220.3780 C   0  0  0  0  0  0  0  0  0  0  0  0
  141.4000   76.5200  220.6880 C   0  0  0  0  0  0  0  0  0  0  0  0
  140.2900   76.4260  221.4910 C   0  0  0  0  0  0  0  0  0  0  0  0
  139.4450   77.5370  221.8740 C   0  0  0  0  0  0  0  0  0  0  0  0
  138.7180   77.3470  222.9130 O   0  0  0  0  0  0  0  0  0  0  0  0
  139.3760   78.7710  221.1940 N   0  0  0  0  0  0  0  0  0  0  0  0
  140.1480   79.1120  220.0220 C   0  0  0  0  0  0  0  0  0  0  0  0
  141.1030   80.2240  220.4010 C   0  0  0  0  0  0  0  0  0  0  0  0
  140.6150   80.9260  221.5060 N   0  0  0  0  0  0  0  0  0  0  0  0
  141.4420   81.7210  222.3060 C   0  0  0  0  0  0  0  0  0  0  0  0
  142.0740   81.0690  223.4970 C   0  0  0  0  0  0  0  0  0  0  0  0
  141.9000   79.6280  223.7400 C   0  0  0  0  0  0  0  0  0  0  0  0
  143.2270   80.1460  223.1940 C   0  0  0  0  0  0  0  0  0  0  0  0
  139.2350   81.1120  221.6930 C   0  0  0  0  0  0  0  0  0  0  0  0
  138.4520   79.8040  221.6880 C   0  0  0  0  0  0  0  0  0  0  0  0
  139.9560   75.1750  221.9660 C   0  0  0  0  0  0  0  0  0  0  0  0
  140.4740   72.4920  223.4560 N   0  0  0  0  0  0  0  0  0  0  0  0
  140.1440   71.3110  224.1300 C   0  0  0  0  0  0  0  0  0  0  0  0
  140.4000   71.1290  225.4750 C   0  0  0  0  0  0  0  0  0  0  0  0
  140.0420   69.9380  226.0600 C   0  0  0  0  0  0  0  0  0  0  0  0
  140.3900   69.7550  227.7790 Cl  0  0  0  0  0  0  0  0  0  0  0  0
  139.4360   68.9170  225.3420 C   0  0  0  0  0  0  0  0  0  0  0  0
  139.1720   69.0890  223.9820 C   0  0  0  0  0  0  0  0  0  0  0  0
  139.5360   70.2970  223.3960 C   0  0  0  0  0  0  0  0  0  0  0  0
  140.3258   71.5298  220.4625 H   0  0  0  0  0  0  0  0  0  0  0  0
  138.7013   72.2112  220.8921 H   0  0  0  0  0  0  0  0  0  0  0  0
  142.3967   73.2376  220.6036 H   0  0  0  0  0  0  0  0  0  0  0  0
  143.0202   75.5020  219.7310 H   0  0  0  0  0  0  0  0  0  0  0  0
  141.7037   77.4990  220.2890 H   0  0  0  0  0  0  0  0  0  0  0  0
  140.7144   78.2336  219.6790 H   0  0  0  0  0  0  0  0  0  0  0  0
  139.4843   79.4379  219.2076 H   0  0  0  0  0  0  0  0  0  0  0  0
  142.0833   79.7915  220.6498 H   0  0  0  0  0  0  0  0  0  0  0  0
  141.2014   80.9164  219.5519 H   0  0  0  0  0  0  0  0  0  0  0  0
  142.2531   82.1016  221.6678 H   0  0  0  0  0  0  0  0  0  0  0  0
  140.7770   82.4911  222.7239 H   0  0  0  0  0  0  0  0  0  0  0  0
  141.9027   81.9512  224.1313 H   0  0  0  0  0  0  0  0  0  0  0  0
  141.8412   79.2483  224.7707 H   0  0  0  0  0  0  0  0  0  0  0  0
  141.1717   78.8694  223.4174 H   0  0  0  0  0  0  0  0  0  0  0  0
  144.1248   80.1517  223.8296 H   0  0  0  0  0  0  0  0  0  0  0  0
  143.8575   79.9320  222.3184 H   0  0  0  0  0  0  0  0  0  0  0  0
  139.0764   81.6118  222.6600 H   0  0  0  0  0  0  0  0  0  0  0  0
  138.8677   81.7188  220.8522 H   0  0  0  0  0  0  0  0  0  0  0  0
  138.1149   79.5581  222.7058 H   0  0  0  0  0  0  0  0  0  0  0  0
  137.5569   79.8764  221.0527 H   0  0  0  0  0  0  0  0  0  0  0  0
  139.0709   75.0794  222.6121 H   0  0  0  0  0  0  0  0  0  0  0  0
  140.8811   71.9219  226.0665 H   0  0  0  0  0  0  0  0  0  0  0  0
  139.1647   67.9757  225.8424 H   0  0  0  0  0  0  0  0  0  0  0  0
  138.6913   68.2944  223.3924 H   0  0  0  0  0  0  0  0  0  0  0  0
  1  2  2  0
  2  3  1  0
  3  4  1  0
  4  5  1  0
  5  6  2  0
  6  7  1  0
  7  8  2  0
  8  9  1  0
  9 10  1  0
 10 11  2  0
 10 12  1  0
 12 13  1  0
 13 14  1  0
 14 15  1  0
 15 16  1  0
 16 17  1  0
 17 18  1  0
 18 19  1  0
 15 20  1  0
 20 21  1  0
  9 22  2  0
  4 23  2  0
 23 24  1  0
 24 25  2  0
 25 26  1  0
 26 27  1  0
 26 28  2  0
 28 29  1  0
 29 30  2  0
 30  2  1  0
 22  5  1  0
 30 24  1  0
 21 12  1  0
 19 17  1  0
  3 31  1  0
  3 32  1  0
  6 33  1  0
  7 34  1  0
  8 35  1  0
 13 36  1  0
 13 37  1  0
 14 38  1  0
 14 39  1  0
 16 40  1  0
 16 41  1  0
 17 42  1  0
 18 43  1  0
 18 44  1  0
 19 45  1  0
 19 46  1  0
 20 47  1  0
 20 48  1  0
 21 49  1  0
 21 50  1  0
 22 51  1  0
 25 52  1  0
 28 53  1  0
 29 54  1  0
M  END
>  <smiles>  (18) 
O=C1CC(c2cccc(C(=O)N3CCN(CC4CC4)CC3)c2)=Nc2cc(Cl)ccc21

>  <score_type>  (18) 
oracle

>  <origin>  (18) 
autodockgpu

>  <m_score__min__energy>  (18) 
-8.7699999999999996

>  <m_primary>  (18) 
energy

>  <rmsd>  (18) 
6.453688951196972

>  <m_score__min__rmsd>  (18) 
6.453688951196972

>  <meeko>  (18) 
{"free_energy": -8.08, "intermolecular_energy": -9.27, "internal_energy": -1.15, "cluster_size": 18, "cluster_id": 2, "rank_in_cluster": 15}

>  <energy>  (18) 
-8.19

>  <cluster_rmsd>  (18) 
0.34

>  <cluster>  (18) 
2

$$$$

     RDKit          3D

 54 58  0  0  0  0  0  0  0  0999 V2000
  137.8250   69.2920  222.4270 O   0  0  0  0  0  0  0  0  0  0  0  0
  138.7100   70.0750  222.8760 C   0  0  0  0  0  0  0  0  0  0  0  0
  139.1390   71.1840  222.0090 C   0  0  0  0  0  0  0  0  0  0  0  0
  140.1850   72.0240  222.6640 C   0  0  0  0  0  0  0  0  0  0  0  0
  140.7160   73.1730  221.9360 C   0  0  0  0  0  0  0  0  0  0  0  0
  141.8860   73.0400  221.2010 C   0  0  0  0  0  0  0  0  0  0  0  0
  142.3420   74.1760  220.5250 C   0  0  0  0  0  0  0  0  0  0  0  0
  141.6710   75.3800  220.5740 C   0  0  0  0  0  0  0  0  0  0  0  0
  140.5130   75.5040  221.3010 C   0  0  0  0  0  0  0  0  0  0  0  0
  139.7310   76.7160  221.4170 C   0  0  0  0  0  0  0  0  0  0  0  0
  138.8620   76.7260  222.3620 O   0  0  0  0  0  0  0  0  0  0  0  0
  139.8610   77.8450  220.5820 N   0  0  0  0  0  0  0  0  0  0  0  0
  140.8040   77.9630  219.4940 C   0  0  0  0  0  0  0  0  0  0  0  0
  141.7990   79.0440  219.8560 C   0  0  0  0  0  0  0  0  0  0  0  0
  141.2400   79.9270  220.7830 N   0  0  0  0  0  0  0  0  0  0  0  0
  142.0270   80.7630  221.5810 C   0  0  0  0  0  0  0  0  0  0  0  0
  142.7530   80.1300  222.7270 C   0  0  0  0  0  0  0  0  0  0  0  0
  142.6520   80.6970  224.0810 C   0  0  0  0  0  0  0  0  0  0  0  0
  141.8830   79.4260  223.7360 C   0  0  0  0  0  0  0  0  0  0  0  0
  139.8700   80.2360  220.7510 C   0  0  0  0  0  0  0  0  0  0  0  0
  138.9780   79.0010  220.8060 C   0  0  0  0  0  0  0  0  0  0  0  0
  140.0620   74.3860  221.9710 C   0  0  0  0  0  0  0  0  0  0  0  0
  140.6350   71.7780  223.8520 N   0  0  0  0  0  0  0  0  0  0  0  0
  140.2380   70.7300  224.6890 C   0  0  0  0  0  0  0  0  0  0  0  0
  140.7740   70.5420  225.9470 C   0  0  0  0  0  0  0  0  0  0  0  0
  140.3260   69.4860  226.7050 C   0  0  0  0  0  0  0  0  0  0  0  0
  141.0410   69.2890  228.3050 Cl  0  0  0  0  0  0  0  0  0  0  0  0
  139.3560   68.6070  226.2440 C   0  0  0  0  0  0  0  0  0  0  0  0
  138.8070   68.7860  224.9740 C   0  0  0  0  0  0  0  0  0  0  0  0
  139.2640   69.8560  224.2120 C   0  0  0  0  0  0  0  0  0  0  0  0
  139.5476   70.7693  221.0757 H   0  0  0  0  0  0  0  0  0  0  0  0
  138.2645   71.8202  221.8080 H   0  0  0  0  0  0  0  0  0  0  0  0
  142.4295   72.0849  221.1525 H   0  0  0  0  0  0  0  0  0  0  0  0
  143.2672   74.1070  219.9341 H   0  0  0  0  0  0  0  0  0  0  0  0
  142.0669   76.2479  220.0262 H   0  0  0  0  0  0  0  0  0  0  0  0
  141.3277   77.0067  219.3480 H   0  0  0  0  0  0  0  0  0  0  0  0
  140.2818   78.2199  218.5606 H   0  0  0  0  0  0  0  0  0  0  0  0
  142.6961   78.5802  220.2920 H   0  0  0  0  0  0  0  0  0  0  0  0
  142.0672   79.6022  218.9469 H   0  0  0  0  0  0  0  0  0  0  0  0
  142.7803   81.2295  220.9292 H   0  0  0  0  0  0  0  0  0  0  0  0
  141.3163   81.4616  222.0467 H   0  0  0  0  0  0  0  0  0  0  0  0
  143.6167   79.8696  222.0975 H   0  0  0  0  0  0  0  0  0  0  0  0
  143.5145   80.6491  224.7620 H   0  0  0  0  0  0  0  0  0  0  0  0
  142.3805   81.6806  224.4919 H   0  0  0  0  0  0  0  0  0  0  0  0
  142.1927   78.4581  224.1570 H   0  0  0  0  0  0  0  0  0  0  0  0
  140.8329   79.1019  223.7827 H   0  0  0  0  0  0  0  0  0  0  0  0
  139.6351   80.8764  221.6140 H   0  0  0  0  0  0  0  0  0  0  0  0
  139.6700   80.7433  219.7957 H   0  0  0  0  0  0  0  0  0  0  0  0
  138.4928   78.9249  221.7903 H   0  0  0  0  0  0  0  0  0  0  0  0
  138.1811   79.0487  220.0492 H   0  0  0  0  0  0  0  0  0  0  0  0
  139.1370   74.4660  222.5609 H   0  0  0  0  0  0  0  0  0  0  0  0
  141.5447   71.2239  226.3356 H   0  0  0  0  0  0  0  0  0  0  0  0
  139.0213   67.7724  226.8775 H   0  0  0  0  0  0  0  0  0  0  0  0
  138.0369   68.1023  224.5874 H   0  0  0  0  0  0  0  0  0  0  0  0
  1  2  2  0
  2  3  1  0
  3  4  1  0
  4  5  1  0
  5  6  2  0
  6  7  1  0
  7  8  2  0
  8  9  1  0
  9 10  1  0
 10 11  2  0
 10 12  1  0
 12 13  1  0
 13 14  1  0
 14 15  1  0
 15 16  1  0
 16 17  1  0
 17 18  1  0
 18 19  1  0
 15 20  1  0
 20 21  1  0
  9 22  2  0
  4 23  2  0
 23 24  1  0
 24 25  2  0
 25 26  1  0
 26 27  1  0
 26 28  2  0
 28 29  1  0
 29 30  2  0
 30  2  1  0
 22  5  1  0
 30 24  1  0
 21 12  1  0
 19 17  1  0
  3 31  1  0
  3 32  1  0
  6 33  1  0
  7 34  1  0
  8 35  1  0
 13 36  1  0
 13 37  1  0
 14 38  1  0
 14 39  1  0
 16 40  1  0
 16 41  1  0
 17 42  1  0
 18 43  1  0
 18 44  1  0
 19 45  1  0
 19 46  1  0
 20 47  1  0
 20 48  1  0
 21 49  1  0
 21 50  1  0
 22 51  1  0
 25 52  1  0
 28 53  1  0
 29 54  1  0
M  END
>  <smiles>  (19) 
O=C1CC(c2cccc(C(=O)N3CCN(CC4CC4)CC3)c2)=Nc2cc(Cl)ccc21

>  <score_type>  (19) 
oracle

>  <origin>  (19) 
autodockgpu

>  <m_score__min__energy>  (19) 
-8.7699999999999996

>  <m_primary>  (19) 
energy

>  <rmsd>  (19) 
5.761256475872411

>  <m_score__min__rmsd>  (19) 
5.761256475872411

>  <meeko>  (19) 
{"free_energy": -8.24, "intermolecular_energy": -9.43, "internal_energy": -1.0, "cluster_size": 18, "cluster_id": 2, "rank_in_cluster": 3}

>  <energy>  (19) 
-8.12

>  <cluster_rmsd>  (19) 
0.85

>  <cluster>  (19) 
2

$$$$

     RDKit          3D

 54 58  0  0  0  0  0  0  0  0999 V2000
  136.9640   73.1230  221.3580 O   0  0  0  0  0  0  0  0  0  0  0  0
  138.1890   73.1590  221.6690 C   0  0  0  0  0  0  0  0  0  0  0  0
  139.0390   74.1330  220.9670 C   0  0  0  0  0  0  0  0  0  0  0  0
  140.4560   74.0660  221.4320 C   0  0  0  0  0  0  0  0  0  0  0  0
  141.4310   74.9740  220.8350 C   0  0  0  0  0  0  0  0  0  0  0  0
  142.5900   74.4620  220.2690 C   0  0  0  0  0  0  0  0  0  0  0  0
  143.4840   75.3830  219.7130 C   0  0  0  0  0  0  0  0  0  0  0  0
  143.2390   76.7400  219.7170 C   0  0  0  0  0  0  0  0  0  0  0  0
  142.0900   77.2400  220.2780 C   0  0  0  0  0  0  0  0  0  0  0  0
  141.7330   78.6410  220.3330 C   0  0  0  0  0  0  0  0  0  0  0  0
  141.2660   79.1370  219.2450 O   0  0  0  0  0  0  0  0  0  0  0  0
  141.8670   79.4650  221.4700 N   0  0  0  0  0  0  0  0  0  0  0  0
  142.3680   79.0270  222.7520 C   0  0  0  0  0  0  0  0  0  0  0  0
  141.2320   79.1070  223.7490 C   0  0  0  0  0  0  0  0  0  0  0  0
  140.2780   80.0340  223.3210 N   0  0  0  0  0  0  0  0  0  0  0  0
  138.9680   80.0310  223.8110 C   0  0  0  0  0  0  0  0  0  0  0  0
  137.9620   79.2060  223.0700 C   0  0  0  0  0  0  0  0  0  0  0  0
  138.1780   78.8550  221.6570 C   0  0  0  0  0  0  0  0  0  0  0  0
  138.3950   77.8010  222.7380 C   0  0  0  0  0  0  0  0  0  0  0  0
  140.6560   81.1880  222.6150 C   0  0  0  0  0  0  0  0  0  0  0  0
  141.4830   80.8810  221.3710 C   0  0  0  0  0  0  0  0  0  0  0  0
  141.2080   76.3340  220.8280 C   0  0  0  0  0  0  0  0  0  0  0  0
  140.8520   73.2390  222.3450 N   0  0  0  0  0  0  0  0  0  0  0  0
  140.0570   72.3080  223.0220 C   0  0  0  0  0  0  0  0  0  0  0  0
  140.5660   71.4620  223.9870 C   0  0  0  0  0  0  0  0  0  0  0  0
  139.7150   70.5770  224.6050 C   0  0  0  0  0  0  0  0  0  0  0  0
  140.4120   69.5180  225.8300 Cl  0  0  0  0  0  0  0  0  0  0  0  0
  138.3650   70.5090  224.2880 C   0  0  0  0  0  0  0  0  0  0  0  0
  137.8390   71.3590  223.3150 C   0  0  0  0  0  0  0  0  0  0  0  0
  138.7050   72.2530  222.6940 C   0  0  0  0  0  0  0  0  0  0  0  0
  139.0076   73.9211  219.8881 H   0  0  0  0  0  0  0  0  0  0  0  0
  138.6549   75.1410  221.1823 H   0  0  0  0  0  0  0  0  0  0  0  0
  142.7962   73.3815  220.2581 H   0  0  0  0  0  0  0  0  0  0  0  0
  144.4139   75.0122  219.2572 H   0  0  0  0  0  0  0  0  0  0  0  0
  143.9702   77.4276  219.2670 H   0  0  0  0  0  0  0  0  0  0  0  0
  142.7277   77.9901  222.6780 H   0  0  0  0  0  0  0  0  0  0  0  0
  143.2049   79.6642  223.0737 H   0  0  0  0  0  0  0  0  0  0  0  0
  140.7606   78.1176  223.8427 H   0  0  0  0  0  0  0  0  0  0  0  0
  141.6313   79.4268  224.7228 H   0  0  0  0  0  0  0  0  0  0  0  0
  139.0027   79.6597  224.8459 H   0  0  0  0  0  0  0  0  0  0  0  0
  138.6211   81.0689  223.6991 H   0  0  0  0  0  0  0  0  0  0  0  0
  137.1178   79.6790  223.5932 H   0  0  0  0  0  0  0  0  0  0  0  0
  137.3194   78.7726  220.9743 H   0  0  0  0  0  0  0  0  0  0  0  0
  138.7897   79.2660  220.8403 H   0  0  0  0  0  0  0  0  0  0  0  0
  137.6908   76.9629  222.8457 H   0  0  0  0  0  0  0  0  0  0  0  0
  139.2192   77.1375  223.0389 H   0  0  0  0  0  0  0  0  0  0  0  0
  139.7463   81.7246  222.3076 H   0  0  0  0  0  0  0  0  0  0  0  0
  141.2830   81.7937  223.2859 H   0  0  0  0  0  0  0  0  0  0  0  0
  140.8842   81.0508  220.4640 H   0  0  0  0  0  0  0  0  0  0  0  0
  142.3676   81.5318  221.3083 H   0  0  0  0  0  0  0  0  0  0  0  0
  140.2819   76.7150  221.2831 H   0  0  0  0  0  0  0  0  0  0  0  0
  141.6320   71.4955  224.2561 H   0  0  0  0  0  0  0  0  0  0  0  0
  137.7128   69.7877  224.8021 H   0  0  0  0  0  0  0  0  0  0  0  0
  136.7727   71.3234  223.0472 H   0  0  0  0  0  0  0  0  0  0  0  0
  1  2  2  0
  2  3  1  0
  3  4  1  0
  4  5  1  0
  5  6  2  0
  6  7  1  0
  7  8  2  0
  8  9  1  0
  9 10  1  0
 10 11  2  0
 10 12  1  0
 12 13  1  0
 13 14  1  0
 14 15  1  0
 15 16  1  0
 16 17  1  0
 17 18  1  0
 18 19  1  0
 15 20  1  0
 20 21  1  0
  9 22  2  0
  4 23  2  0
 23 24  1  0
 24 25  2  0
 25 26  1  0
 26 27  1  0
 26 28  2  0
 28 29  1  0
 29 30  2  0
 30  2  1  0
 22  5  1  0
 30 24  1  0
 21 12  1  0
 19 17  1  0
  3 31  1  0
  3 32  1  0
  6 33  1  0
  7 34  1  0
  8 35  1  0
 13 36  1  0
 13 37  1  0
 14 38  1  0
 14 39  1  0
 16 40  1  0
 16 41  1  0
 17 42  1  0
 18 43  1  0
 18 44  1  0
 19 45  1  0
 19 46  1  0
 20 47  1  0
 20 48  1  0
 21 49  1  0
 21 50  1  0
 22 51  1  0
 25 52  1  0
 28 53  1  0
 29 54  1  0
M  END
>  <smiles>  (20) 
O=C1CC(c2cccc(C(=O)N3CCN(CC4CC4)CC3)c2)=Nc2cc(Cl)ccc21

>  <score_type>  (20) 
oracle

>  <origin>  (20) 
autodockgpu

>  <m_score__min__energy>  (20) 
-8.7699999999999996

>  <m_primary>  (20) 
energy

>  <rmsd>  (20) 
6.940230005135178

>  <m_score__min__rmsd>  (20) 
6.940230005135178

>  <meeko>  (20) 
{"free_energy": -7.59, "intermolecular_energy": -8.79, "internal_energy": -1.68, "cluster_size": 16, "cluster_id": 4, "rank_in_cluster": 8}

>  <energy>  (20) 
-8.12

>  <cluster_rmsd>  (20) 
0.82

>  <cluster>  (20) 
2

$$$$

     RDKit          3D

 54 58  0  0  0  0  0  0  0  0999 V2000
  137.0330   73.0910  221.2560 O   0  0  0  0  0  0  0  0  0  0  0  0
  138.2480   73.1480  221.5980 C   0  0  0  0  0  0  0  0  0  0  0  0
  139.1050   74.1190  220.9010 C   0  0  0  0  0  0  0  0  0  0  0  0
  140.5100   74.0770  221.4040 C   0  0  0  0  0  0  0  0  0  0  0  0
  141.4910   74.9850  220.8170 C   0  0  0  0  0  0  0  0  0  0  0  0
  142.6600   74.4740  220.2710 C   0  0  0  0  0  0  0  0  0  0  0  0
  143.5590   75.3940  219.7230 C   0  0  0  0  0  0  0  0  0  0  0  0
  143.3090   76.7510  219.7140 C   0  0  0  0  0  0  0  0  0  0  0  0
  142.1490   77.2500  220.2540 C   0  0  0  0  0  0  0  0  0  0  0  0
  141.7860   78.6500  220.2940 C   0  0  0  0  0  0  0  0  0  0  0  0
  141.2790   79.1220  219.2140 O   0  0  0  0  0  0  0  0  0  0  0  0
  141.9530   79.4960  221.4100 N   0  0  0  0  0  0  0  0  0  0  0  0
  142.5010   79.0860  222.6820 C   0  0  0  0  0  0  0  0  0  0  0  0
  141.3990   79.1790  223.7160 C   0  0  0  0  0  0  0  0  0  0  0  0
  140.4250   80.0920  223.3030 N   0  0  0  0  0  0  0  0  0  0  0  0
  139.1330   80.0920  223.8370 C   0  0  0  0  0  0  0  0  0  0  0  0
  138.0920   79.2960  223.1120 C   0  0  0  0  0  0  0  0  0  0  0  0
  138.2470   78.9930  221.6800 C   0  0  0  0  0  0  0  0  0  0  0  0
  138.5040   77.9020  222.7140 C   0  0  0  0  0  0  0  0  0  0  0  0
  140.7720   81.2340  222.5630 C   0  0  0  0  0  0  0  0  0  0  0  0
  141.5580   80.9080  221.2970 C   0  0  0  0  0  0  0  0  0  0  0  0
  141.2620   76.3440  220.7970 C   0  0  0  0  0  0  0  0  0  0  0  0
  140.8910   73.2730  222.3440 N   0  0  0  0  0  0  0  0  0  0  0  0
  140.0890   72.3450  223.0180 C   0  0  0  0  0  0  0  0  0  0  0  0
  140.5810   71.5230  224.0120 C   0  0  0  0  0  0  0  0  0  0  0  0
  139.7240   70.6400  224.6240 C   0  0  0  0  0  0  0  0  0  0  0  0
  140.4000   69.6130  225.8870 Cl  0  0  0  0  0  0  0  0  0  0  0  0
  138.3840   70.5510  224.2730 C   0  0  0  0  0  0  0  0  0  0  0  0
  137.8750   71.3760  223.2690 C   0  0  0  0  0  0  0  0  0  0  0  0
  138.7470   72.2670  222.6550 C   0  0  0  0  0  0  0  0  0  0  0  0
  139.1044   73.8875  219.8256 H   0  0  0  0  0  0  0  0  0  0  0  0
  138.7040   75.1261  221.0879 H   0  0  0  0  0  0  0  0  0  0  0  0
  142.8698   73.3942  220.2694 H   0  0  0  0  0  0  0  0  0  0  0  0
  144.4972   75.0235  219.2843 H   0  0  0  0  0  0  0  0  0  0  0  0
  144.0445   77.4385  219.2709 H   0  0  0  0  0  0  0  0  0  0  0  0
  142.8646   78.0500  222.6157 H   0  0  0  0  0  0  0  0  0  0  0  0
  143.3446   79.7340  222.9622 H   0  0  0  0  0  0  0  0  0  0  0  0
  140.9374   78.1889  223.8450 H   0  0  0  0  0  0  0  0  0  0  0  0
  141.8293   79.5201  224.6692 H   0  0  0  0  0  0  0  0  0  0  0  0
  139.1984   79.6960  224.8612 H   0  0  0  0  0  0  0  0  0  0  0  0
  138.7951   81.1360  223.7609 H   0  0  0  0  0  0  0  0  0  0  0  0
  137.2728   79.7532  223.6864 H   0  0  0  0  0  0  0  0  0  0  0  0
  137.3602   78.9369  221.0316 H   0  0  0  0  0  0  0  0  0  0  0  0
  138.8259   79.4298  220.8529 H   0  0  0  0  0  0  0  0  0  0  0  0
  137.8009   77.0630  222.8224 H   0  0  0  0  0  0  0  0  0  0  0  0
  139.3369   77.2258  222.9571 H   0  0  0  0  0  0  0  0  0  0  0  0
  139.8493   81.7600  222.2770 H   0  0  0  0  0  0  0  0  0  0  0  0
  141.4182   81.8553  223.2005 H   0  0  0  0  0  0  0  0  0  0  0  0
  140.9276   81.0574  220.4080 H   0  0  0  0  0  0  0  0  0  0  0  0
  142.4361   81.5621  221.1914 H   0  0  0  0  0  0  0  0  0  0  0  0
  140.3273   76.7242  221.2349 H   0  0  0  0  0  0  0  0  0  0  0  0
  141.6390   71.5738  224.3086 H   0  0  0  0  0  0  0  0  0  0  0  0
  137.7258   69.8330  224.7842 H   0  0  0  0  0  0  0  0  0  0  0  0
  136.8169   71.3227  222.9730 H   0  0  0  0  0  0  0  0  0  0  0  0
  1  2  2  0
  2  3  1  0
  3  4  1  0
  4  5  1  0
  5  6  2  0
  6  7  1  0
  7  8  2  0
  8  9  1  0
  9 10  1  0
 10 11  2  0
 10 12  1  0
 12 13  1  0
 13 14  1  0
 14 15  1  0
 15 16  1  0
 16 17  1  0
 17 18  1  0
 18 19  1  0
 15 20  1  0
 20 21  1  0
  9 22  2  0
  4 23  2  0
 23 24  1  0
 24 25  2  0
 25 26  1  0
 26 27  1  0
 26 28  2  0
 28 29  1  0
 29 30  2  0
 30  2  1  0
 22  5  1  0
 30 24  1  0
 21 12  1  0
 19 17  1  0
  3 31  1  0
  3 32  1  0
  6 33  1  0
  7 34  1  0
  8 35  1  0
 13 36  1  0
 13 37  1  0
 14 38  1  0
 14 39  1  0
 16 40  1  0
 16 41  1  0
 17 42  1  0
 18 43  1  0
 18 44  1  0
 19 45  1  0
 19 46  1  0
 20 47  1  0
 20 48  1  0
 21 49  1  0
 21 50  1  0
 22 51  1  0
 25 52  1  0
 28 53  1  0
 29 54  1  0
M  END
>  <smiles>  (21) 
O=C1CC(c2cccc(C(=O)N3CCN(CC4CC4)CC3)c2)=Nc2cc(Cl)ccc21

>  <score_type>  (21) 
oracle

>  <origin>  (21) 
autodockgpu

>  <m_score__min__energy>  (21) 
-8.7699999999999996

>  <m_primary>  (21) 
energy

>  <rmsd>  (21) 
6.974225130742473

>  <m_score__min__rmsd>  (21) 
6.974225130742473

>  <meeko>  (21) 
{"free_energy": -7.61, "intermolecular_energy": -8.8, "internal_energy": -1.66, "cluster_size": 16, "cluster_id": 4, "rank_in_cluster": 1}

>  <energy>  (21) 
-8.11

>  <cluster_rmsd>  (21) 
0.78

>  <cluster>  (21) 
2

$$$$

     RDKit          3D

 54 58  0  0  0  0  0  0  0  0999 V2000
  138.5420   69.4030  221.6530 O   0  0  0  0  0  0  0  0  0  0  0  0
  139.1890   70.3010  222.2620 C   0  0  0  0  0  0  0  0  0  0  0  0
  139.5500   71.5100  221.5060 C   0  0  0  0  0  0  0  0  0  0  0  0
  140.3100   72.4820  222.3480 C   0  0  0  0  0  0  0  0  0  0  0  0
  140.7400   73.7410  221.7460 C   0  0  0  0  0  0  0  0  0  0  0  0
  141.8730   73.7670  220.9440 C   0  0  0  0  0  0  0  0  0  0  0  0
  142.2320   75.0030  220.3960 C   0  0  0  0  0  0  0  0  0  0  0  0
  141.5060   76.1510  220.6310 C   0  0  0  0  0  0  0  0  0  0  0  0
  140.3860   76.1180  221.4240 C   0  0  0  0  0  0  0  0  0  0  0  0
  139.5510   77.2590  221.7320 C   0  0  0  0  0  0  0  0  0  0  0  0
  138.7920   77.1290  222.7580 O   0  0  0  0  0  0  0  0  0  0  0  0
  139.5230   78.4610  220.9950 N   0  0  0  0  0  0  0  0  0  0  0  0
  140.3330   78.7350  219.8310 C   0  0  0  0  0  0  0  0  0  0  0  0
  141.2970   79.8470  220.1850 C   0  0  0  0  0  0  0  0  0  0  0  0
  140.7920   80.6080  221.2430 N   0  0  0  0  0  0  0  0  0  0  0  0
  141.6110   81.4240  222.0290 C   0  0  0  0  0  0  0  0  0  0  0  0
  142.1990   80.8170  223.2650 C   0  0  0  0  0  0  0  0  0  0  0  0
  141.6240   79.5910  223.8420 C   0  0  0  0  0  0  0  0  0  0  0  0
  142.9320   79.5160  223.0610 C   0  0  0  0  0  0  0  0  0  0  0  0
  139.4110   80.8250  221.3820 C   0  0  0  0  0  0  0  0  0  0  0  0
  138.6040   79.5310  221.4150 C   0  0  0  0  0  0  0  0  0  0  0  0
  140.0300   74.9010  221.9670 C   0  0  0  0  0  0  0  0  0  0  0  0
  140.5960   72.2560  223.5890 N   0  0  0  0  0  0  0  0  0  0  0  0
  140.2600   71.1130  224.3230 C   0  0  0  0  0  0  0  0  0  0  0  0
  140.6070   70.9540  225.6490 C   0  0  0  0  0  0  0  0  0  0  0  0
  140.2360   69.8000  226.2970 C   0  0  0  0  0  0  0  0  0  0  0  0
  140.7030   69.6450  227.9890 Cl  0  0  0  0  0  0  0  0  0  0  0  0
  139.5260   68.7930  225.6580 C   0  0  0  0  0  0  0  0  0  0  0  0
  139.1690   68.9410  224.3170 C   0  0  0  0  0  0  0  0  0  0  0  0
  139.5470   70.1120  223.6680 C   0  0  0  0  0  0  0  0  0  0  0  0
  140.1722   71.2203  220.6464 H   0  0  0  0  0  0  0  0  0  0  0  0
  138.6211   71.9969  221.1741 H   0  0  0  0  0  0  0  0  0  0  0  0
  142.4610   72.8581  220.7486 H   0  0  0  0  0  0  0  0  0  0  0  0
  143.1244   75.0608  219.7555 H   0  0  0  0  0  0  0  0  0  0  0  0
  141.8268   77.1013  220.1794 H   0  0  0  0  0  0  0  0  0  0  0  0
  140.8928   77.8324  219.5445 H   0  0  0  0  0  0  0  0  0  0  0  0
  139.6976   79.0343  218.9844 H   0  0  0  0  0  0  0  0  0  0  0  0
  142.2623   79.4101  220.4806 H   0  0  0  0  0  0  0  0  0  0  0  0
  141.4306   80.4975  219.3081 H   0  0  0  0  0  0  0  0  0  0  0  0
  142.4457   81.7616  221.3971 H   0  0  0  0  0  0  0  0  0  0  0  0
  140.9485   82.2229  222.3935 H   0  0  0  0  0  0  0  0  0  0  0  0
  142.4257   81.8020  223.6991 H   0  0  0  0  0  0  0  0  0  0  0  0
  141.6262   79.4438  224.9321 H   0  0  0  0  0  0  0  0  0  0  0  0
  140.6499   79.0846  223.7742 H   0  0  0  0  0  0  0  0  0  0  0  0
  143.8808   79.3253  223.5839 H   0  0  0  0  0  0  0  0  0  0  0  0
  143.3029   78.9466  222.1960 H   0  0  0  0  0  0  0  0  0  0  0  0
  139.2349   81.3718  222.3201 H   0  0  0  0  0  0  0  0  0  0  0  0
  139.0782   81.3977  220.5038 H   0  0  0  0  0  0  0  0  0  0  0  0
  138.2347   79.3382  222.4330 H   0  0  0  0  0  0  0  0  0  0  0  0
  137.7279   79.5889  220.7524 H   0  0  0  0  0  0  0  0  0  0  0  0
  139.1366   74.8543  222.6070 H   0  0  0  0  0  0  0  0  0  0  0  0
  141.1704   71.7368  226.1780 H   0  0  0  0  0  0  0  0  0  0  0  0
  139.2457   67.8816  226.2065 H   0  0  0  0  0  0  0  0  0  0  0  0
  138.6064   68.1564  223.7898 H   0  0  0  0  0  0  0  0  0  0  0  0
  1  2  2  0
  2  3  1  0
  3  4  1  0
  4  5  1  0
  5  6  2  0
  6  7  1  0
  7  8  2  0
  8  9  1  0
  9 10  1  0
 10 11  2  0
 10 12  1  0
 12 13  1  0
 13 14  1  0
 14 15  1  0
 15 16  1  0
 16 17  1  0
 17 18  1  0
 18 19  1  0
 15 20  1  0
 20 21  1  0
  9 22  2  0
  4 23  2  0
 23 24  1  0
 24 25  2  0
 25 26  1  0
 26 27  1  0
 26 28  2  0
 28 29  1  0
 29 30  2  0
 30  2  1  0
 22  5  1  0
 30 24  1  0
 21 12  1  0
 19 17  1  0
  3 31  1  0
  3 32  1  0
  6 33  1  0
  7 34  1  0
  8 35  1  0
 13 36  1  0
 13 37  1  0
 14 38  1  0
 14 39  1  0
 16 40  1  0
 16 41  1  0
 17 42  1  0
 18 43  1  0
 18 44  1  0
 19 45  1  0
 19 46  1  0
 20 47  1  0
 20 48  1  0
 21 49  1  0
 21 50  1  0
 22 51  1  0
 25 52  1  0
 28 53  1  0
 29 54  1  0
M  END
>  <smiles>  (22) 
O=C1CC(c2cccc(C(=O)N3CCN(CC4CC4)CC3)c2)=Nc2cc(Cl)ccc21

>  <score_type>  (22) 
oracle

>  <origin>  (22) 
autodockgpu

>  <m_score__min__energy>  (22) 
-8.7699999999999996

>  <m_primary>  (22) 
energy

>  <rmsd>  (22) 
6.164649535424199

>  <m_score__min__rmsd>  (22) 
6.164649535424199

>  <meeko>  (22) 
{"free_energy": -8.1, "intermolecular_energy": -9.3, "internal_energy": -1.18, "cluster_size": 18, "cluster_id": 2, "rank_in_cluster": 10}

>  <energy>  (22) 
-8.11

>  <cluster_rmsd>  (22) 
0.84

>  <cluster>  (22) 
2

$$$$

     RDKit          3D

 54 58  0  0  0  0  0  0  0  0999 V2000
  137.1580   77.2130  222.3850 O   0  0  0  0  0  0  0  0  0  0  0  0
  138.3960   76.9630  222.3540 C   0  0  0  0  0  0  0  0  0  0  0  0
  138.8070   75.6130  221.9400 C   0  0  0  0  0  0  0  0  0  0  0  0
  140.2920   75.4600  221.9500 C   0  0  0  0  0  0  0  0  0  0  0  0
  140.8650   74.1750  221.5590 C   0  0  0  0  0  0  0  0  0  0  0  0
  142.0450   74.1420  220.8290 C   0  0  0  0  0  0  0  0  0  0  0  0
  142.5430   72.8810  220.4870 C   0  0  0  0  0  0  0  0  0  0  0  0
  141.9050   71.7140  220.8510 C   0  0  0  0  0  0  0  0  0  0  0  0
  140.7380   71.7530  221.5740 C   0  0  0  0  0  0  0  0  0  0  0  0
  139.9910   70.5930  222.0100 C   0  0  0  0  0  0  0  0  0  0  0  0
  139.9100   69.6350  221.1600 O   0  0  0  0  0  0  0  0  0  0  0  0
  139.3680   70.4600  223.2680 N   0  0  0  0  0  0  0  0  0  0  0  0
  139.3930   71.4580  224.3120 C   0  0  0  0  0  0  0  0  0  0  0  0
  140.1800   70.8950  225.4750 C   0  0  0  0  0  0  0  0  0  0  0  0
  140.1650   69.4990  225.4390 N   0  0  0  0  0  0  0  0  0  0  0  0
  141.1070   68.7270  226.1270 C   0  0  0  0  0  0  0  0  0  0  0  0
  140.6690   68.0940  227.4110 C   0  0  0  0  0  0  0  0  0  0  0  0
  141.3190   68.4510  228.6810 C   0  0  0  0  0  0  0  0  0  0  0  0
  139.9330   69.0010  228.3620 C   0  0  0  0  0  0  0  0  0  0  0  0
  139.0420   68.8000  224.9660 C   0  0  0  0  0  0  0  0  0  0  0  0
  138.6210   69.2280  223.5650 C   0  0  0  0  0  0  0  0  0  0  0  0
  140.2440   72.9960  221.9110 C   0  0  0  0  0  0  0  0  0  0  0  0
  141.0910   76.4210  222.2850 N   0  0  0  0  0  0  0  0  0  0  0  0
  140.7170   77.7110  222.6790 C   0  0  0  0  0  0  0  0  0  0  0  0
  141.6400   78.6780  223.0210 C   0  0  0  0  0  0  0  0  0  0  0  0
  141.1870   79.9210  223.3960 C   0  0  0  0  0  0  0  0  0  0  0  0
  142.4060   81.1210  223.8230 Cl  0  0  0  0  0  0  0  0  0  0  0  0
  139.8350   80.2280  223.4430 C   0  0  0  0  0  0  0  0  0  0  0  0
  138.8920   79.2590  223.1000 C   0  0  0  0  0  0  0  0  0  0  0  0
  139.3570   78.0050  222.7200 C   0  0  0  0  0  0  0  0  0  0  0  0
  138.3684   74.8790  222.6320 H   0  0  0  0  0  0  0  0  0  0  0  0
  138.4523   75.4469  220.9121 H   0  0  0  0  0  0  0  0  0  0  0  0
  142.5645   75.0654  220.5331 H   0  0  0  0  0  0  0  0  0  0  0  0
  143.4759   72.8177  219.9076 H   0  0  0  0  0  0  0  0  0  0  0  0
  142.3342   70.7439  220.5599 H   0  0  0  0  0  0  0  0  0  0  0  0
  139.8768   72.3739  223.9419 H   0  0  0  0  0  0  0  0  0  0  0  0
  138.3693   71.7081  224.6274 H   0  0  0  0  0  0  0  0  0  0  0  0
  141.2199   71.2485  225.4147 H   0  0  0  0  0  0  0  0  0  0  0  0
  139.7211   71.2339  226.4155 H   0  0  0  0  0  0  0  0  0  0  0  0
  141.4282   67.9192  225.4529 H   0  0  0  0  0  0  0  0  0  0  0  0
  141.8966   69.4361  226.4163 H   0  0  0  0  0  0  0  0  0  0  0  0
  140.4812   67.1256  226.9242 H   0  0  0  0  0  0  0  0  0  0  0  0
  141.4408   67.6920  229.4678 H   0  0  0  0  0  0  0  0  0  0  0  0
  142.2853   68.8967  228.9595 H   0  0  0  0  0  0  0  0  0  0  0  0
  139.0511   68.6350  228.9081 H   0  0  0  0  0  0  0  0  0  0  0  0
  139.4740   69.9990  228.3048 H   0  0  0  0  0  0  0  0  0  0  0  0
  139.2795   67.7261  224.9480 H   0  0  0  0  0  0  0  0  0  0  0  0
  138.2053   69.0240  225.6440 H   0  0  0  0  0  0  0  0  0  0  0  0
  138.8732   68.4444  222.8354 H   0  0  0  0  0  0  0  0  0  0  0  0
  137.5353   69.3948  223.5071 H   0  0  0  0  0  0  0  0  0  0  0  0
  139.3093   73.0488  222.4885 H   0  0  0  0  0  0  0  0  0  0  0  0
  142.7176   78.4587  222.9942 H   0  0  0  0  0  0  0  0  0  0  0  0
  139.5076   81.2323  223.7497 H   0  0  0  0  0  0  0  0  0  0  0  0
  137.8148   79.4800  223.1292 H   0  0  0  0  0  0  0  0  0  0  0  0
  1  2  2  0
  2  3  1  0
  3  4  1  0
  4  5  1  0
  5  6  2  0
  6  7  1  0
  7  8  2  0
  8  9  1  0
  9 10  1  0
 10 11  2  0
 10 12  1  0
 12 13  1  0
 13 14  1  0
 14 15  1  0
 15 16  1  0
 16 17  1  0
 17 18  1  0
 18 19  1  0
 15 20  1  0
 20 21  1  0
  9 22  2  0
  4 23  2  0
 23 24  1  0
 24 25  2  0
 25 26  1  0
 26 27  1  0
 26 28  2  0
 28 29  1  0
 29 30  2  0
 30  2  1  0
 22  5  1  0
 30 24  1  0
 21 12  1  0
 19 17  1  0
  3 31  1  0
  3 32  1  0
  6 33  1  0
  7 34  1  0
  8 35  1  0
 13 36  1  0
 13 37  1  0
 14 38  1  0
 14 39  1  0
 16 40  1  0
 16 41  1  0
 17 42  1  0
 18 43  1  0
 18 44  1  0
 19 45  1  0
 19 46  1  0
 20 47  1  0
 20 48  1  0
 21 49  1  0
 21 50  1  0
 22 51  1  0
 25 52  1  0
 28 53  1  0
 29 54  1  0
M  END
>  <smiles>  (23) 
O=C1CC(c2cccc(C(=O)N3CCN(CC4CC4)CC3)c2)=Nc2cc(Cl)ccc21

>  <score_type>  (23) 
oracle

>  <origin>  (23) 
autodockgpu

>  <m_score__min__energy>  (23) 
-8.7699999999999996

>  <m_primary>  (23) 
energy

>  <rmsd>  (23) 
8.838750376720926

>  <m_score__min__rmsd>  (23) 
8.838750376720926

>  <meeko>  (23) 
{"free_energy": -8.75, "intermolecular_energy": -9.94, "internal_energy": -0.88, "cluster_size": 14, "cluster_id": 1, "rank_in_cluster": 5}

>  <energy>  (23) 
-8.11

>  <cluster_rmsd>  (23) 
0.8

>  <cluster>  (23) 
2

$$$$

     RDKit          3D

 54 58  0  0  0  0  0  0  0  0999 V2000
  137.0360   73.0400  221.3030 O   0  0  0  0  0  0  0  0  0  0  0  0
  138.2550   73.0990  221.6310 C   0  0  0  0  0  0  0  0  0  0  0  0
  139.1010   74.0760  220.9280 C   0  0  0  0  0  0  0  0  0  0  0  0
  140.5120   74.0370  221.4130 C   0  0  0  0  0  0  0  0  0  0  0  0
  141.4820   74.9510  220.8180 C   0  0  0  0  0  0  0  0  0  0  0  0
  142.6560   74.4490  220.2730 C   0  0  0  0  0  0  0  0  0  0  0  0
  143.5440   75.3750  219.7170 C   0  0  0  0  0  0  0  0  0  0  0  0
  143.2800   76.7290  219.7010 C   0  0  0  0  0  0  0  0  0  0  0  0
  142.1160   77.2190  220.2410 C   0  0  0  0  0  0  0  0  0  0  0  0
  141.7390   78.6160  220.2740 C   0  0  0  0  0  0  0  0  0  0  0  0
  141.2110   79.0730  219.1970 O   0  0  0  0  0  0  0  0  0  0  0  0
  141.9140   79.4740  221.3790 N   0  0  0  0  0  0  0  0  0  0  0  0
  142.4860   79.0810  222.6470 C   0  0  0  0  0  0  0  0  0  0  0  0
  141.3980   79.1730  223.6960 C   0  0  0  0  0  0  0  0  0  0  0  0
  140.4090   80.0720  223.2900 N   0  0  0  0  0  0  0  0  0  0  0  0
  139.1240   80.0630  223.8440 C   0  0  0  0  0  0  0  0  0  0  0  0
  138.0790   79.2590  223.1350 C   0  0  0  0  0  0  0  0  0  0  0  0
  138.1990   78.9810  221.6950 C   0  0  0  0  0  0  0  0  0  0  0  0
  138.5040   77.8790  222.7050 C   0  0  0  0  0  0  0  0  0  0  0  0
  140.7330   81.2110  222.5340 C   0  0  0  0  0  0  0  0  0  0  0  0
  141.5020   80.8810  221.2600 C   0  0  0  0  0  0  0  0  0  0  0  0
  141.2400   76.3080  220.7910 C   0  0  0  0  0  0  0  0  0  0  0  0
  140.9070   73.2290  222.3430 N   0  0  0  0  0  0  0  0  0  0  0  0
  140.1170   72.2950  223.0230 C   0  0  0  0  0  0  0  0  0  0  0  0
  140.6240   71.4700  224.0060 C   0  0  0  0  0  0  0  0  0  0  0  0
  139.7770   70.5810  224.6250 C   0  0  0  0  0  0  0  0  0  0  0  0
  140.4730   69.5490  225.8740 Cl  0  0  0  0  0  0  0  0  0  0  0  0
  138.4340   70.4890  224.2890 C   0  0  0  0  0  0  0  0  0  0  0  0
  137.9090   71.3170  223.2970 C   0  0  0  0  0  0  0  0  0  0  0  0
  138.7710   72.2150  222.6760 C   0  0  0  0  0  0  0  0  0  0  0  0
  139.0879   73.8492  219.8517 H   0  0  0  0  0  0  0  0  0  0  0  0
  138.6992   75.0809  221.1249 H   0  0  0  0  0  0  0  0  0  0  0  0
  142.8776   73.3716  220.2783 H   0  0  0  0  0  0  0  0  0  0  0  0
  144.4847   75.0117  219.2776 H   0  0  0  0  0  0  0  0  0  0  0  0
  144.0073   77.4216  219.2523 H   0  0  0  0  0  0  0  0  0  0  0  0
  142.8590   78.0480  222.5848 H   0  0  0  0  0  0  0  0  0  0  0  0
  143.3275   79.7393  222.9086 H   0  0  0  0  0  0  0  0  0  0  0  0
  140.9483   78.1796  223.8407 H   0  0  0  0  0  0  0  0  0  0  0  0
  141.8390   79.5276  224.6393 H   0  0  0  0  0  0  0  0  0  0  0  0
  139.2075   79.6682  224.8673 H   0  0  0  0  0  0  0  0  0  0  0  0
  138.7772   81.1045  223.7728 H   0  0  0  0  0  0  0  0  0  0  0  0
  137.2681   79.6927  223.7387 H   0  0  0  0  0  0  0  0  0  0  0  0
  137.2955   78.9189  221.0706 H   0  0  0  0  0  0  0  0  0  0  0  0
  138.7467   79.4406  220.8591 H   0  0  0  0  0  0  0  0  0  0  0  0
  137.8190   77.0260  222.8199 H   0  0  0  0  0  0  0  0  0  0  0  0
  139.3550   77.2143  222.9147 H   0  0  0  0  0  0  0  0  0  0  0  0
  139.8007   81.7251  222.2575 H   0  0  0  0  0  0  0  0  0  0  0  0
  141.3825   81.8448  223.1556 H   0  0  0  0  0  0  0  0  0  0  0  0
  140.8563   81.0156  220.3797 H   0  0  0  0  0  0  0  0  0  0  0  0
  142.3716   81.5430  221.1352 H   0  0  0  0  0  0  0  0  0  0  0  0
  140.3029   76.6816  221.2294 H   0  0  0  0  0  0  0  0  0  0  0  0
  141.6856   71.5225  224.2891 H   0  0  0  0  0  0  0  0  0  0  0  0
  137.7851   69.7650  224.8036 H   0  0  0  0  0  0  0  0  0  0  0  0
  136.8473   71.2617  223.0147 H   0  0  0  0  0  0  0  0  0  0  0  0
  1  2  2  0
  2  3  1  0
  3  4  1  0
  4  5  1  0
  5  6  2  0
  6  7  1  0
  7  8  2  0
  8  9  1  0
  9 10  1  0
 10 11  2  0
 10 12  1  0
 12 13  1  0
 13 14  1  0
 14 15  1  0
 15 16  1  0
 16 17  1  0
 17 18  1  0
 18 19  1  0
 15 20  1  0
 20 21  1  0
  9 22  2  0
  4 23  2  0
 23 24  1  0
 24 25  2  0
 25 26  1  0
 26 27  1  0
 26 28  2  0
 28 29  1  0
 29 30  2  0
 30  2  1  0
 22  5  1  0
 30 24  1  0
 21 12  1  0
 19 17  1  0
  3 31  1  0
  3 32  1  0
  6 33  1  0
  7 34  1  0
  8 35  1  0
 13 36  1  0
 13 37  1  0
 14 38  1  0
 14 39  1  0
 16 40  1  0
 16 41  1  0
 17 42  1  0
 18 43  1  0
 18 44  1  0
 19 45  1  0
 19 46  1  0
 20 47  1  0
 20 48  1  0
 21 49  1  0
 21 50  1  0
 22 51  1  0
 25 52  1  0
 28 53  1  0
 29 54  1  0
M  END
>  <smiles>  (24) 
O=C1CC(c2cccc(C(=O)N3CCN(CC4CC4)CC3)c2)=Nc2cc(Cl)ccc21

>  <score_type>  (24) 
oracle

>  <origin>  (24) 
autodockgpu

>  <m_score__min__energy>  (24) 
-8.7699999999999996

>  <m_primary>  (24) 
energy

>  <rmsd>  (24) 
6.947584767036543

>  <m_score__min__rmsd>  (24) 
6.947584767036543

>  <meeko>  (24) 
{"free_energy": -7.6, "intermolecular_energy": -8.8, "internal_energy": -1.66, "cluster_size": 16, "cluster_id": 4, "rank_in_cluster": 2}

>  <energy>  (24) 
-8.1

>  <cluster_rmsd>  (24) 
0.76

>  <cluster>  (24) 
2

$$$$

     RDKit          3D

 54 58  0  0  0  0  0  0  0  0999 V2000
  137.0630   73.0720  221.3340 O   0  0  0  0  0  0  0  0  0  0  0  0
  138.2840   73.1270  221.6550 C   0  0  0  0  0  0  0  0  0  0  0  0
  139.1290   74.1020  220.9490 C   0  0  0  0  0  0  0  0  0  0  0  0
  140.5420   74.0560  221.4280 C   0  0  0  0  0  0  0  0  0  0  0  0
  141.5130   74.9690  220.8290 C   0  0  0  0  0  0  0  0  0  0  0  0
  142.6820   74.4640  220.2780 C   0  0  0  0  0  0  0  0  0  0  0  0
  143.5710   75.3880  219.7200 C   0  0  0  0  0  0  0  0  0  0  0  0
  143.3110   76.7430  219.7070 C   0  0  0  0  0  0  0  0  0  0  0  0
  142.1510   77.2360  220.2520 C   0  0  0  0  0  0  0  0  0  0  0  0
  141.7790   78.6340  220.2890 C   0  0  0  0  0  0  0  0  0  0  0  0
  141.3470   79.1210  219.1840 O   0  0  0  0  0  0  0  0  0  0  0  0
  141.8620   79.4620  221.4280 N   0  0  0  0  0  0  0  0  0  0  0  0
  142.3210   79.0340  222.7290 C   0  0  0  0  0  0  0  0  0  0  0  0
  141.1480   79.1060  223.6830 C   0  0  0  0  0  0  0  0  0  0  0  0
  140.2000   80.0210  223.2170 N   0  0  0  0  0  0  0  0  0  0  0  0
  138.8730   80.0070  223.6580 C   0  0  0  0  0  0  0  0  0  0  0  0
  137.9150   79.1250  222.9180 C   0  0  0  0  0  0  0  0  0  0  0  0
  138.2340   78.6460  221.5640 C   0  0  0  0  0  0  0  0  0  0  0  0
  138.3530   77.6930  222.7480 C   0  0  0  0  0  0  0  0  0  0  0  0
  140.5930   81.1770  222.5210 C   0  0  0  0  0  0  0  0  0  0  0  0
  141.4680   80.8740  221.3100 C   0  0  0  0  0  0  0  0  0  0  0  0
  141.2750   76.3260  220.8060 C   0  0  0  0  0  0  0  0  0  0  0  0
  140.9400   73.2450  222.3540 N   0  0  0  0  0  0  0  0  0  0  0  0
  140.1500   72.3130  223.0350 C   0  0  0  0  0  0  0  0  0  0  0  0
  140.6590   71.4830  224.0140 C   0  0  0  0  0  0  0  0  0  0  0  0
  139.8130   70.5960  224.6350 C   0  0  0  0  0  0  0  0  0  0  0  0
  140.5110   69.5590  225.8780 Cl  0  0  0  0  0  0  0  0  0  0  0  0
  138.4670   70.5090  224.3070 C   0  0  0  0  0  0  0  0  0  0  0  0
  137.9400   71.3420  223.3190 C   0  0  0  0  0  0  0  0  0  0  0  0
  138.8020   72.2380  222.6950 C   0  0  0  0  0  0  0  0  0  0  0  0
  139.1099   73.8769  219.8724 H   0  0  0  0  0  0  0  0  0  0  0  0
  138.7317   75.1082  221.1481 H   0  0  0  0  0  0  0  0  0  0  0  0
  142.8996   73.3857  220.2800 H   0  0  0  0  0  0  0  0  0  0  0  0
  144.5089   75.0224  219.2766 H   0  0  0  0  0  0  0  0  0  0  0  0
  144.0388   77.4339  219.2564 H   0  0  0  0  0  0  0  0  0  0  0  0
  142.6939   78.0007  222.6725 H   0  0  0  0  0  0  0  0  0  0  0  0
  143.1394   79.6806  223.0785 H   0  0  0  0  0  0  0  0  0  0  0  0
  140.6840   78.1119  223.7635 H   0  0  0  0  0  0  0  0  0  0  0  0
  141.5081   79.4344  224.6691 H   0  0  0  0  0  0  0  0  0  0  0  0
  138.8770   79.6827  224.7091 H   0  0  0  0  0  0  0  0  0  0  0  0
  138.5066   81.0300  223.4869 H   0  0  0  0  0  0  0  0  0  0  0  0
  137.0397   79.6491  223.3293 H   0  0  0  0  0  0  0  0  0  0  0  0
  137.4293   78.5078  220.8268 H   0  0  0  0  0  0  0  0  0  0  0  0
  138.9122   78.9773  220.7638 H   0  0  0  0  0  0  0  0  0  0  0  0
  137.6313   76.8727  222.8753 H   0  0  0  0  0  0  0  0  0  0  0  0
  139.1425   77.0539  223.1702 H   0  0  0  0  0  0  0  0  0  0  0  0
  139.6902   81.7038  222.1783 H   0  0  0  0  0  0  0  0  0  0  0  0
  141.1889   81.7910  223.2124 H   0  0  0  0  0  0  0  0  0  0  0  0
  140.9014   81.0349  220.3810 H   0  0  0  0  0  0  0  0  0  0  0  0
  142.3480   81.5332  221.2778 H   0  0  0  0  0  0  0  0  0  0  0  0
  140.3416   76.7016  221.2508 H   0  0  0  0  0  0  0  0  0  0  0  0
  141.7223   71.5310  224.2917 H   0  0  0  0  0  0  0  0  0  0  0  0
  137.8183   69.7864  224.8238 H   0  0  0  0  0  0  0  0  0  0  0  0
  136.8765   71.2917  223.0424 H   0  0  0  0  0  0  0  0  0  0  0  0
  1  2  2  0
  2  3  1  0
  3  4  1  0
  4  5  1  0
  5  6  2  0
  6  7  1  0
  7  8  2  0
  8  9  1  0
  9 10  1  0
 10 11  2  0
 10 12  1  0
 12 13  1  0
 13 14  1  0
 14 15  1  0
 15 16  1  0
 16 17  1  0
 17 18  1  0
 18 19  1  0
 15 20  1  0
 20 21  1  0
  9 22  2  0
  4 23  2  0
 23 24  1  0
 24 25  2  0
 25 26  1  0
 26 27  1  0
 26 28  2  0
 28 29  1  0
 29 30  2  0
 30  2  1  0
 22  5  1  0
 30 24  1  0
 21 12  1  0
 19 17  1  0
  3 31  1  0
  3 32  1  0
  6 33  1  0
  7 34  1  0
  8 35  1  0
 13 36  1  0
 13 37  1  0
 14 38  1  0
 14 39  1  0
 16 40  1  0
 16 41  1  0
 17 42  1  0
 18 43  1  0
 18 44  1  0
 19 45  1  0
 19 46  1  0
 20 47  1  0
 20 48  1  0
 21 49  1  0
 21 50  1  0
 22 51  1  0
 25 52  1  0
 28 53  1  0
 29 54  1  0
M  END
>  <smiles>  (25) 
O=C1CC(c2cccc(C(=O)N3CCN(CC4CC4)CC3)c2)=Nc2cc(Cl)ccc21

>  <score_type>  (25) 
oracle

>  <origin>  (25) 
autodockgpu

>  <m_score__min__energy>  (25) 
-8.7699999999999996

>  <m_primary>  (25) 
energy

>  <rmsd>  (25) 
6.902991918330276

>  <m_score__min__rmsd>  (25) 
6.902991918330276

>  <meeko>  (25) 
{"free_energy": -7.54, "intermolecular_energy": -8.73, "internal_energy": -1.69, "cluster_size": 16, "cluster_id": 4, "rank_in_cluster": 14}

>  <energy>  (25) 
-8.1

>  <cluster_rmsd>  (25) 
0.82

>  <cluster>  (25) 
2

$$$$

     RDKit          3D

 54 58  0  0  0  0  0  0  0  0999 V2000
  138.5560   69.4530  221.5730 O   0  0  0  0  0  0  0  0  0  0  0  0
  139.1890   70.3490  222.2010 C   0  0  0  0  0  0  0  0  0  0  0  0
  139.5390   71.5740  221.4670 C   0  0  0  0  0  0  0  0  0  0  0  0
  140.2830   72.5400  222.3280 C   0  0  0  0  0  0  0  0  0  0  0  0
  140.7020   73.8140  221.7500 C   0  0  0  0  0  0  0  0  0  0  0  0
  141.8370   73.8680  220.9540 C   0  0  0  0  0  0  0  0  0  0  0  0
  142.1850   75.1170  220.4280 C   0  0  0  0  0  0  0  0  0  0  0  0
  141.4430   76.2520  220.6790 C   0  0  0  0  0  0  0  0  0  0  0  0
  140.3200   76.1920  221.4670 C   0  0  0  0  0  0  0  0  0  0  0  0
  139.4700   77.3180  221.7890 C   0  0  0  0  0  0  0  0  0  0  0  0
  138.7220   77.1700  222.8220 O   0  0  0  0  0  0  0  0  0  0  0  0
  139.4150   78.5240  221.0600 N   0  0  0  0  0  0  0  0  0  0  0  0
  140.2090   78.8180  219.8900 C   0  0  0  0  0  0  0  0  0  0  0  0
  141.1590   79.9430  220.2420 C   0  0  0  0  0  0  0  0  0  0  0  0
  140.6520   80.6890  221.3090 N   0  0  0  0  0  0  0  0  0  0  0  0
  141.4650   81.5140  222.0930 C   0  0  0  0  0  0  0  0  0  0  0  0
  142.0630   80.9130  223.3280 C   0  0  0  0  0  0  0  0  0  0  0  0
  141.6210   79.5930  223.8050 C   0  0  0  0  0  0  0  0  0  0  0  0
  142.9660   79.7290  223.0990 C   0  0  0  0  0  0  0  0  0  0  0  0
  139.2690   80.8830  221.4630 C   0  0  0  0  0  0  0  0  0  0  0  0
  138.4840   79.5760  221.4950 C   0  0  0  0  0  0  0  0  0  0  0  0
  139.9760   74.9620  221.9870 C   0  0  0  0  0  0  0  0  0  0  0  0
  140.5670   72.2970  223.5670 N   0  0  0  0  0  0  0  0  0  0  0  0
  140.2410   71.1370  224.2800 C   0  0  0  0  0  0  0  0  0  0  0  0
  140.5850   70.9610  225.6050 C   0  0  0  0  0  0  0  0  0  0  0  0
  140.2240   69.7910  226.2310 C   0  0  0  0  0  0  0  0  0  0  0  0
  140.6860   69.6130  227.9230 Cl  0  0  0  0  0  0  0  0  0  0  0  0
  139.5290   68.7870  225.5720 C   0  0  0  0  0  0  0  0  0  0  0  0
  139.1770   68.9540  224.2320 C   0  0  0  0  0  0  0  0  0  0  0  0
  139.5430   70.1390  223.6050 C   0  0  0  0  0  0  0  0  0  0  0  0
  140.1686   71.3059  220.6057 H   0  0  0  0  0  0  0  0  0  0  0  0
  138.6060   72.0554  221.1386 H   0  0  0  0  0  0  0  0  0  0  0  0
  142.4363   72.9694  220.7458 H   0  0  0  0  0  0  0  0  0  0  0  0
  143.0799   75.1962  219.7933 H   0  0  0  0  0  0  0  0  0  0  0  0
  141.7534   77.2136  220.2443 H   0  0  0  0  0  0  0  0  0  0  0  0
  140.7800   77.9262  219.5923 H   0  0  0  0  0  0  0  0  0  0  0  0
  139.5608   79.1126  219.0515 H   0  0  0  0  0  0  0  0  0  0  0  0
  142.1337   79.5196  220.5259 H   0  0  0  0  0  0  0  0  0  0  0  0
  141.2744   80.6009  219.3680 H   0  0  0  0  0  0  0  0  0  0  0  0
  142.2943   81.8602  221.4587 H   0  0  0  0  0  0  0  0  0  0  0  0
  140.7953   82.3060  222.4593 H   0  0  0  0  0  0  0  0  0  0  0  0
  142.1395   81.8910  223.8257 H   0  0  0  0  0  0  0  0  0  0  0  0
  141.5861   79.3825  224.8841 H   0  0  0  0  0  0  0  0  0  0  0  0
  140.7246   78.9737  223.6539 H   0  0  0  0  0  0  0  0  0  0  0  0
  143.9033   79.6277  223.6657 H   0  0  0  0  0  0  0  0  0  0  0  0
  143.4507   79.2632  222.2283 H   0  0  0  0  0  0  0  0  0  0  0  0
  139.0933   81.4206  222.4065 H   0  0  0  0  0  0  0  0  0  0  0  0
  138.9182   81.4564  220.5923 H   0  0  0  0  0  0  0  0  0  0  0  0
  138.1274   79.3709  222.5152 H   0  0  0  0  0  0  0  0  0  0  0  0
  137.6012   79.6240  220.8405 H   0  0  0  0  0  0  0  0  0  0  0  0
  139.0797   74.8934  222.6210 H   0  0  0  0  0  0  0  0  0  0  0  0
  141.1371   71.7412  226.1495 H   0  0  0  0  0  0  0  0  0  0  0  0
  139.2567   67.8633  226.1036 H   0  0  0  0  0  0  0  0  0  0  0  0
  138.6267   68.1717  223.6887 H   0  0  0  0  0  0  0  0  0  0  0  0
  1  2  2  0
  2  3  1  0
  3  4  1  0
  4  5  1  0
  5  6  2  0
  6  7  1  0
  7  8  2  0
  8  9  1  0
  9 10  1  0
 10 11  2  0
 10 12  1  0
 12 13  1  0
 13 14  1  0
 14 15  1  0
 15 16  1  0
 16 17  1  0
 17 18  1  0
 18 19  1  0
 15 20  1  0
 20 21  1  0
  9 22  2  0
  4 23  2  0
 23 24  1  0
 24 25  2  0
 25 26  1  0
 26 27  1  0
 26 28  2  0
 28 29  1  0
 29 30  2  0
 30  2  1  0
 22  5  1  0
 30 24  1  0
 21 12  1  0
 19 17  1  0
  3 31  1  0
  3 32  1  0
  6 33  1  0
  7 34  1  0
  8 35  1  0
 13 36  1  0
 13 37  1  0
 14 38  1  0
 14 39  1  0
 16 40  1  0
 16 41  1  0
 17 42  1  0
 18 43  1  0
 18 44  1  0
 19 45  1  0
 19 46  1  0
 20 47  1  0
 20 48  1  0
 21 49  1  0
 21 50  1  0
 22 51  1  0
 25 52  1  0
 28 53  1  0
 29 54  1  0
M  END
>  <smiles>  (26) 
O=C1CC(c2cccc(C(=O)N3CCN(CC4CC4)CC3)c2)=Nc2cc(Cl)ccc21

>  <score_type>  (26) 
oracle

>  <origin>  (26) 
autodockgpu

>  <m_score__min__energy>  (26) 
-8.7699999999999996

>  <m_primary>  (26) 
energy

>  <rmsd>  (26) 
6.226266718416096

>  <m_score__min__rmsd>  (26) 
6.226266718416096

>  <meeko>  (26) 
{"free_energy": -8.09, "intermolecular_energy": -9.28, "internal_energy": -1.18, "cluster_size": 18, "cluster_id": 2, "rank_in_cluster": 14}

>  <energy>  (26) 
-8.1

>  <cluster_rmsd>  (26) 
0.78

>  <cluster>  (26) 
2

$$$$

     RDKit          3D

 54 58  0  0  0  0  0  0  0  0999 V2000
  137.3190   77.6940  221.8640 O   0  0  0  0  0  0  0  0  0  0  0  0
  138.4950   77.2660  222.0370 C   0  0  0  0  0  0  0  0  0  0  0  0
  138.7510   75.8470  221.7460 C   0  0  0  0  0  0  0  0  0  0  0  0
  140.1770   75.4800  221.9940 C   0  0  0  0  0  0  0  0  0  0  0  0
  140.5980   74.1040  221.7490 C   0  0  0  0  0  0  0  0  0  0  0  0
  141.7810   73.8590  221.0650 C   0  0  0  0  0  0  0  0  0  0  0  0
  142.1300   72.5200  220.8630 C   0  0  0  0  0  0  0  0  0  0  0  0
  141.3470   71.4790  221.3160 C   0  0  0  0  0  0  0  0  0  0  0  0
  140.1790   71.7280  221.9930 C   0  0  0  0  0  0  0  0  0  0  0  0
  139.2870   70.7140  222.5140 C   0  0  0  0  0  0  0  0  0  0  0  0
  138.7930   69.9110  221.6440 O   0  0  0  0  0  0  0  0  0  0  0  0
  138.9410   70.5640  223.8730 N   0  0  0  0  0  0  0  0  0  0  0  0
  139.4350   71.3940  224.9480 C   0  0  0  0  0  0  0  0  0  0  0  0
  140.2970   70.5320  225.8440 C   0  0  0  0  0  0  0  0  0  0  0  0
  139.9380   69.1870  225.7140 N   0  0  0  0  0  0  0  0  0  0  0  0
  140.7920   68.1490  226.0970 C   0  0  0  0  0  0  0  0  0  0  0  0
  141.0250   67.9590  227.5640 C   0  0  0  0  0  0  0  0  0  0  0  0
  141.3870   69.1020  228.4170 C   0  0  0  0  0  0  0  0  0  0  0  0
  139.9690   68.5420  228.4670 C   0  0  0  0  0  0  0  0  0  0  0  0
  138.6030   68.8160  225.4780 C   0  0  0  0  0  0  0  0  0  0  0  0
  138.0020   69.4980  224.2540 C   0  0  0  0  0  0  0  0  0  0  0  0
  139.8310   73.0480  222.1920 C   0  0  0  0  0  0  0  0  0  0  0  0
  141.0540   76.3340  222.4130 N   0  0  0  0  0  0  0  0  0  0  0  0
  140.8280   77.6860  222.6940 C   0  0  0  0  0  0  0  0  0  0  0  0
  141.8270   78.5280  223.1390 C   0  0  0  0  0  0  0  0  0  0  0  0
  141.5190   79.8440  223.3890 C   0  0  0  0  0  0  0  0  0  0  0  0
  142.8290   80.8790  223.9550 Cl  0  0  0  0  0  0  0  0  0  0  0  0
  140.2380   80.3480  223.2110 C   0  0  0  0  0  0  0  0  0  0  0  0
  139.2200   79.5060  222.7620 C   0  0  0  0  0  0  0  0  0  0  0  0
  139.5380   78.1770  222.5090 C   0  0  0  0  0  0  0  0  0  0  0  0
  138.1071   75.2295  222.3895 H   0  0  0  0  0  0  0  0  0  0  0  0
  138.5319   75.6705  220.6826 H   0  0  0  0  0  0  0  0  0  0  0  0
  142.4146   74.6803  220.6988 H   0  0  0  0  0  0  0  0  0  0  0  0
  143.0609   72.2891  220.3244 H   0  0  0  0  0  0  0  0  0  0  0  0
  141.6609   70.4407  221.1333 H   0  0  0  0  0  0  0  0  0  0  0  0
  140.0332   72.2206  224.5371 H   0  0  0  0  0  0  0  0  0  0  0  0
  138.5967   71.8204  225.5185 H   0  0  0  0  0  0  0  0  0  0  0  0
  141.3525   70.6550  225.5598 H   0  0  0  0  0  0  0  0  0  0  0  0
  140.1497   70.8425  226.8889 H   0  0  0  0  0  0  0  0  0  0  0  0
  140.3699   67.2119  225.7051 H   0  0  0  0  0  0  0  0  0  0  0  0
  141.7749   68.4256  225.6878 H   0  0  0  0  0  0  0  0  0  0  0  0
  141.4908   66.9742  227.4119 H   0  0  0  0  0  0  0  0  0  0  0  0
  142.0651   68.9568  229.2709 H   0  0  0  0  0  0  0  0  0  0  0  0
  141.8227   70.0961  228.2383 H   0  0  0  0  0  0  0  0  0  0  0  0
  139.6232   67.9839  229.3495 H   0  0  0  0  0  0  0  0  0  0  0  0
  138.9552   68.9481  228.3358 H   0  0  0  0  0  0  0  0  0  0  0  0
  138.5633   67.7271  225.3272 H   0  0  0  0  0  0  0  0  0  0  0  0
  138.0146   69.1315  226.3522 H   0  0  0  0  0  0  0  0  0  0  0  0
  137.8913   68.7760  223.4315 H   0  0  0  0  0  0  0  0  0  0  0  0
  137.0033   69.9040  224.4725 H   0  0  0  0  0  0  0  0  0  0  0  0
  138.8970   73.2682  222.7298 H   0  0  0  0  0  0  0  0  0  0  0  0
  142.8500   78.1531  223.2907 H   0  0  0  0  0  0  0  0  0  0  0  0
  140.0263   81.4064  223.4229 H   0  0  0  0  0  0  0  0  0  0  0  0
  138.1973   79.8825  222.6129 H   0  0  0  0  0  0  0  0  0  0  0  0
  1  2  2  0
  2  3  1  0
  3  4  1  0
  4  5  1  0
  5  6  2  0
  6  7  1  0
  7  8  2  0
  8  9  1  0
  9 10  1  0
 10 11  2  0
 10 12  1  0
 12 13  1  0
 13 14  1  0
 14 15  1  0
 15 16  1  0
 16 17  1  0
 17 18  1  0
 18 19  1  0
 15 20  1  0
 20 21  1  0
  9 22  2  0
  4 23  2  0
 23 24  1  0
 24 25  2  0
 25 26  1  0
 26 27  1  0
 26 28  2  0
 28 29  1  0
 29 30  2  0
 30  2  1  0
 22  5  1  0
 30 24  1  0
 21 12  1  0
 19 17  1  0
  3 31  1  0
  3 32  1  0
  6 33  1  0
  7 34  1  0
  8 35  1  0
 13 36  1  0
 13 37  1  0
 14 38  1  0
 14 39  1  0
 16 40  1  0
 16 41  1  0
 17 42  1  0
 18 43  1  0
 18 44  1  0
 19 45  1  0
 19 46  1  0
 20 47  1  0
 20 48  1  0
 21 49  1  0
 21 50  1  0
 22 51  1  0
 25 52  1  0
 28 53  1  0
 29 54  1  0
M  END
>  <smiles>  (27) 
O=C1CC(c2cccc(C(=O)N3CCN(CC4CC4)CC3)c2)=Nc2cc(Cl)ccc21

>  <score_type>  (27) 
oracle

>  <origin>  (27) 
autodockgpu

>  <m_score__min__energy>  (27) 
-8.7699999999999996

>  <m_primary>  (27) 
energy

>  <rmsd>  (27) 
9.110495412793053

>  <m_score__min__rmsd>  (27) 
9.110495412793053

>  <meeko>  (27) 
{"free_energy": -8.34, "intermolecular_energy": -9.53, "internal_energy": -0.91, "cluster_size": 14, "cluster_id": 1, "rank_in_cluster": 13}

>  <energy>  (27) 
-8.09

>  <cluster_rmsd>  (27) 
0.8

>  <cluster>  (27) 
2

$$$$

     RDKit          3D

 54 58  0  0  0  0  0  0  0  0999 V2000
  137.1540   77.2530  222.3650 O   0  0  0  0  0  0  0  0  0  0  0  0
  138.3900   76.9900  222.3420 C   0  0  0  0  0  0  0  0  0  0  0  0
  138.7890   75.6350  221.9330 C   0  0  0  0  0  0  0  0  0  0  0  0
  140.2720   75.4660  221.9530 C   0  0  0  0  0  0  0  0  0  0  0  0
  140.8330   74.1740  221.5670 C   0  0  0  0  0  0  0  0  0  0  0  0
  142.0210   74.1280  220.8500 C   0  0  0  0  0  0  0  0  0  0  0  0
  142.5080   72.8610  220.5120 C   0  0  0  0  0  0  0  0  0  0  0  0
  141.8510   71.7010  220.8680 C   0  0  0  0  0  0  0  0  0  0  0  0
  140.6780   71.7540  221.5790 C   0  0  0  0  0  0  0  0  0  0  0  0
  139.9120   70.6030  222.0060 C   0  0  0  0  0  0  0  0  0  0  0  0
  139.8190   69.6510  221.1500 O   0  0  0  0  0  0  0  0  0  0  0  0
  139.2820   70.4720  223.2610 N   0  0  0  0  0  0  0  0  0  0  0  0
  139.3190   71.4640  224.3110 C   0  0  0  0  0  0  0  0  0  0  0  0
  140.0940   70.8820  225.4740 C   0  0  0  0  0  0  0  0  0  0  0  0
  140.0580   69.4860  225.4290 N   0  0  0  0  0  0  0  0  0  0  0  0
  140.9870   68.6970  226.1150 C   0  0  0  0  0  0  0  0  0  0  0  0
  140.5560   68.1180  227.4280 C   0  0  0  0  0  0  0  0  0  0  0  0
  141.2540   68.4840  228.6710 C   0  0  0  0  0  0  0  0  0  0  0  0
  139.8830   69.0810  228.3710 C   0  0  0  0  0  0  0  0  0  0  0  0
  138.9270   68.8070  224.9480 C   0  0  0  0  0  0  0  0  0  0  0  0
  138.5160   69.2490  223.5480 C   0  0  0  0  0  0  0  0  0  0  0  0
  140.1950   73.0020  221.9120 C   0  0  0  0  0  0  0  0  0  0  0  0
  141.0790   76.4180  222.2930 N   0  0  0  0  0  0  0  0  0  0  0  0
  140.7160   77.7120  222.6830 C   0  0  0  0  0  0  0  0  0  0  0  0
  141.6480   78.6700  223.0310 C   0  0  0  0  0  0  0  0  0  0  0  0
  141.2060   79.9180  223.4010 C   0  0  0  0  0  0  0  0  0  0  0  0
  142.4340   81.1060  223.8350 Cl  0  0  0  0  0  0  0  0  0  0  0  0
  139.8570   80.2400  223.4380 C   0  0  0  0  0  0  0  0  0  0  0  0
  138.9060   79.2810  223.0900 C   0  0  0  0  0  0  0  0  0  0  0  0
  139.3590   78.0210  222.7140 C   0  0  0  0  0  0  0  0  0  0  0  0
  138.3380   74.9070  222.6234 H   0  0  0  0  0  0  0  0  0  0  0  0
  138.4392   75.4709  220.9031 H   0  0  0  0  0  0  0  0  0  0  0  0
  142.5546   75.0455  220.5611 H   0  0  0  0  0  0  0  0  0  0  0  0
  143.4465   72.7869  219.9431 H   0  0  0  0  0  0  0  0  0  0  0  0
  142.2706   70.7259  220.5797 H   0  0  0  0  0  0  0  0  0  0  0  0
  139.8180   72.3744  223.9476 H   0  0  0  0  0  0  0  0  0  0  0  0
  138.2983   71.7282  224.6246 H   0  0  0  0  0  0  0  0  0  0  0  0
  141.1393   71.2202  225.4194 H   0  0  0  0  0  0  0  0  0  0  0  0
  139.6372   71.2221  226.4151 H   0  0  0  0  0  0  0  0  0  0  0  0
  141.2592   67.8586  225.4569 H   0  0  0  0  0  0  0  0  0  0  0  0
  141.8116   69.3812  226.3637 H   0  0  0  0  0  0  0  0  0  0  0  0
  140.3154   67.1452  226.9744 H   0  0  0  0  0  0  0  0  0  0  0  0
  141.3660   67.7432  229.4764 H   0  0  0  0  0  0  0  0  0  0  0  0
  142.2445   68.8975  228.9118 H   0  0  0  0  0  0  0  0  0  0  0  0
  139.0019   68.7670  228.9499 H   0  0  0  0  0  0  0  0  0  0  0  0
  139.4633   70.0950  228.2963 H   0  0  0  0  0  0  0  0  0  0  0  0
  139.1489   67.7299  224.9243 H   0  0  0  0  0  0  0  0  0  0  0  0
  138.0916   69.0400  225.6246 H   0  0  0  0  0  0  0  0  0  0  0  0
  138.7590   68.4661  222.8145 H   0  0  0  0  0  0  0  0  0  0  0  0
  137.4329   69.4315  223.4876 H   0  0  0  0  0  0  0  0  0  0  0  0
  139.2553   73.0652  222.4803 H   0  0  0  0  0  0  0  0  0  0  0  0
  142.7233   78.4388  223.0125 H   0  0  0  0  0  0  0  0  0  0  0  0
  139.5385   81.2484  223.7408 H   0  0  0  0  0  0  0  0  0  0  0  0
  137.8312   79.5140  223.1122 H   0  0  0  0  0  0  0  0  0  0  0  0
  1  2  2  0
  2  3  1  0
  3  4  1  0
  4  5  1  0
  5  6  2  0
  6  7  1  0
  7  8  2  0
  8  9  1  0
  9 10  1  0
 10 11  2  0
 10 12  1  0
 12 13  1  0
 13 14  1  0
 14 15  1  0
 15 16  1  0
 16 17  1  0
 17 18  1  0
 18 19  1  0
 15 20  1  0
 20 21  1  0
  9 22  2  0
  4 23  2  0
 23 24  1  0
 24 25  2  0
 25 26  1  0
 26 27  1  0
 26 28  2  0
 28 29  1  0
 29 30  2  0
 30  2  1  0
 22  5  1  0
 30 24  1  0
 21 12  1  0
 19 17  1  0
  3 31  1  0
  3 32  1  0
  6 33  1  0
  7 34  1  0
  8 35  1  0
 13 36  1  0
 13 37  1  0
 14 38  1  0
 14 39  1  0
 16 40  1  0
 16 41  1  0
 17 42  1  0
 18 43  1  0
 18 44  1  0
 19 45  1  0
 19 46  1  0
 20 47  1  0
 20 48  1  0
 21 49  1  0
 21 50  1  0
 22 51  1  0
 25 52  1  0
 28 53  1  0
 29 54  1  0
M  END
>  <smiles>  (28) 
O=C1CC(c2cccc(C(=O)N3CCN(CC4CC4)CC3)c2)=Nc2cc(Cl)ccc21

>  <score_type>  (28) 
oracle

>  <origin>  (28) 
autodockgpu

>  <m_score__min__energy>  (28) 
-8.7699999999999996

>  <m_primary>  (28) 
energy

>  <rmsd>  (28) 
8.832270335674087

>  <m_score__min__rmsd>  (28) 
8.832270335674087

>  <meeko>  (28) 
{"free_energy": -8.75, "intermolecular_energy": -9.94, "internal_energy": -0.89, "cluster_size": 14, "cluster_id": 1, "rank_in_cluster": 3}

>  <energy>  (28) 
-8.09

>  <cluster_rmsd>  (28) 
0.84

>  <cluster>  (28) 
2

$$$$

     RDKit          3D

 54 58  0  0  0  0  0  0  0  0999 V2000
  146.5820   73.2960  219.3810 O   0  0  0  0  0  0  0  0  0  0  0  0
  145.4050   72.9280  219.6570 C   0  0  0  0  0  0  0  0  0  0  0  0
  144.4570   73.9600  220.1040 C   0  0  0  0  0  0  0  0  0  0  0  0
  143.1110   73.3840  220.3950 C   0  0  0  0  0  0  0  0  0  0  0  0
  142.0500   74.2800  220.8470 C   0  0  0  0  0  0  0  0  0  0  0  0
  140.9380   73.7580  221.4920 C   0  0  0  0  0  0  0  0  0  0  0  0
  139.9580   74.6680  221.9020 C   0  0  0  0  0  0  0  0  0  0  0  0
  140.0770   76.0250  221.6840 C   0  0  0  0  0  0  0  0  0  0  0  0
  141.1800   76.5350  221.0460 C   0  0  0  0  0  0  0  0  0  0  0  0
  141.4070   77.9380  220.7710 C   0  0  0  0  0  0  0  0  0  0  0  0
  141.3300   78.2790  219.5370 O   0  0  0  0  0  0  0  0  0  0  0  0
  141.6990   78.9150  221.7450 N   0  0  0  0  0  0  0  0  0  0  0  0
  141.8040   78.6620  223.1630 C   0  0  0  0  0  0  0  0  0  0  0  0
  140.6690   79.3890  223.8510 C   0  0  0  0  0  0  0  0  0  0  0  0
  140.2300   80.4570  223.0640 N   0  0  0  0  0  0  0  0  0  0  0  0
  138.9740   81.0450  223.2410 C   0  0  0  0  0  0  0  0  0  0  0  0
  138.1370   80.5420  224.3770 C   0  0  0  0  0  0  0  0  0  0  0  0
  137.3630   81.4790  225.2070 C   0  0  0  0  0  0  0  0  0  0  0  0
  136.6470   80.6220  224.1680 C   0  0  0  0  0  0  0  0  0  0  0  0
  141.1300   81.1840  222.2670 C   0  0  0  0  0  0  0  0  0  0  0  0
  141.9280   80.3030  221.3130 C   0  0  0  0  0  0  0  0  0  0  0  0
  142.1470   75.6390  220.6400 C   0  0  0  0  0  0  0  0  0  0  0  0
  142.8450   72.1260  220.2570 N   0  0  0  0  0  0  0  0  0  0  0  0
  143.7340   71.1320  219.8320 C   0  0  0  0  0  0  0  0  0  0  0  0
  143.3630   69.8070  219.7140 C   0  0  0  0  0  0  0  0  0  0  0  0
  144.2990   68.8950  219.2880 C   0  0  0  0  0  0  0  0  0  0  0  0
  143.7770   67.2170  219.1520 Cl  0  0  0  0  0  0  0  0  0  0  0  0
  145.6000   69.2650  218.9770 C   0  0  0  0  0  0  0  0  0  0  0  0
  145.9870   70.6010  219.0930 C   0  0  0  0  0  0  0  0  0  0  0  0
  145.0350   71.5180  219.5230 C   0  0  0  0  0  0  0  0  0  0  0  0
  144.8481   74.4317  221.0176 H   0  0  0  0  0  0  0  0  0  0  0  0
  144.3469   74.6979  219.2957 H   0  0  0  0  0  0  0  0  0  0  0  0
  140.8319   72.6781  221.6727 H   0  0  0  0  0  0  0  0  0  0  0  0
  139.0622   74.2888  222.4156 H   0  0  0  0  0  0  0  0  0  0  0  0
  139.2813   76.7039  222.0244 H   0  0  0  0  0  0  0  0  0  0  0  0
  141.7276   77.5819  223.3565 H   0  0  0  0  0  0  0  0  0  0  0  0
  142.7729   79.0165  223.5445 H   0  0  0  0  0  0  0  0  0  0  0  0
  139.8350   78.6900  224.0122 H   0  0  0  0  0  0  0  0  0  0  0  0
  141.0259   79.7783  224.8159 H   0  0  0  0  0  0  0  0  0  0  0  0
  139.1320   82.1222  223.3979 H   0  0  0  0  0  0  0  0  0  0  0  0
  138.4083   80.7840  222.3345 H   0  0  0  0  0  0  0  0  0  0  0  0
  138.8668   79.7592  224.6312 H   0  0  0  0  0  0  0  0  0  0  0  0
  137.2215   81.2752  226.2787 H   0  0  0  0  0  0  0  0  0  0  0  0
  137.4192   82.5571  225.4181 H   0  0  0  0  0  0  0  0  0  0  0  0
  135.9966   79.7933  224.4846 H   0  0  0  0  0  0  0  0  0  0  0  0
  135.9790   80.8105  223.3146 H   0  0  0  0  0  0  0  0  0  0  0  0
  140.5612   81.9161  221.6749 H   0  0  0  0  0  0  0  0  0  0  0  0
  141.8482   81.6710  222.9430 H   0  0  0  0  0  0  0  0  0  0  0  0
  141.5764   80.4436  220.2802 H   0  0  0  0  0  0  0  0  0  0  0  0
  142.9980   80.5573  221.3338 H   0  0  0  0  0  0  0  0  0  0  0  0
  143.0385   76.0280  220.1263 H   0  0  0  0  0  0  0  0  0  0  0  0
  142.3386   69.4877  219.9562 H   0  0  0  0  0  0  0  0  0  0  0  0
  146.3236   68.5080  218.6403 H   0  0  0  0  0  0  0  0  0  0  0  0
  147.0124   70.9180  218.8519 H   0  0  0  0  0  0  0  0  0  0  0  0
  1  2  2  0
  2  3  1  0
  3  4  1  0
  4  5  1  0
  5  6  2  0
  6  7  1  0
  7  8  2  0
  8  9  1  0
  9 10  1  0
 10 11  2  0
 10 12  1  0
 12 13  1  0
 13 14  1  0
 14 15  1  0
 15 16  1  0
 16 17  1  0
 17 18  1  0
 18 19  1  0
 15 20  1  0
 20 21  1  0
  9 22  2  0
  4 23  2  0
 23 24  1  0
 24 25  2  0
 25 26  1  0
 26 27  1  0
 26 28  2  0
 28 29  1  0
 29 30  2  0
 30  2  1  0
 22  5  1  0
 30 24  1  0
 21 12  1  0
 19 17  1  0
  3 31  1  0
  3 32  1  0
  6 33  1  0
  7 34  1  0
  8 35  1  0
 13 36  1  0
 13 37  1  0
 14 38  1  0
 14 39  1  0
 16 40  1  0
 16 41  1  0
 17 42  1  0
 18 43  1  0
 18 44  1  0
 19 45  1  0
 19 46  1  0
 20 47  1  0
 20 48  1  0
 21 49  1  0
 21 50  1  0
 22 51  1  0
 25 52  1  0
 28 53  1  0
 29 54  1  0
M  END
>  <smiles>  (29) 
O=C1CC(c2cccc(C(=O)N3CCN(CC4CC4)CC3)c2)=Nc2cc(Cl)ccc21

>  <score_type>  (29) 
oracle

>  <origin>  (29) 
autodockgpu

>  <m_score__min__energy>  (29) 
-8.7699999999999996

>  <m_primary>  (29) 
energy

>  <rmsd>  (29) 
7.915942197168809

>  <m_score__min__rmsd>  (29) 
7.915942197168809

>  <meeko>  (29) 
{"free_energy": -8.01, "intermolecular_energy": -9.2, "internal_energy": -0.99, "cluster_size": 2, "cluster_id": 3, "rank_in_cluster": 1}

>  <energy>  (29) 
-8.08

>  <cluster_rmsd>  (29) 
1.01

>  <cluster>  (29) 
2

$$$$

     RDKit          3D

 54 58  0  0  0  0  0  0  0  0999 V2000
  138.5690   69.4620  221.5950 O   0  0  0  0  0  0  0  0  0  0  0  0
  139.1970   70.3640  222.2190 C   0  0  0  0  0  0  0  0  0  0  0  0
  139.5440   71.5870  221.4790 C   0  0  0  0  0  0  0  0  0  0  0  0
  140.2820   72.5610  222.3370 C   0  0  0  0  0  0  0  0  0  0  0  0
  140.6970   73.8330  221.7530 C   0  0  0  0  0  0  0  0  0  0  0  0
  141.8460   73.8910  220.9770 C   0  0  0  0  0  0  0  0  0  0  0  0
  142.1890   75.1380  220.4440 C   0  0  0  0  0  0  0  0  0  0  0  0
  141.4300   76.2680  220.6700 C   0  0  0  0  0  0  0  0  0  0  0  0
  140.2930   76.2030  221.4370 C   0  0  0  0  0  0  0  0  0  0  0  0
  139.4250   77.3220  221.7320 C   0  0  0  0  0  0  0  0  0  0  0  0
  138.6210   77.1550  222.7180 O   0  0  0  0  0  0  0  0  0  0  0  0
  139.4110   78.5420  221.0240 N   0  0  0  0  0  0  0  0  0  0  0  0
  140.2690   78.8580  219.9060 C   0  0  0  0  0  0  0  0  0  0  0  0
  141.1960   79.9760  220.3330 C   0  0  0  0  0  0  0  0  0  0  0  0
  140.6280   80.7020  221.3830 N   0  0  0  0  0  0  0  0  0  0  0  0
  141.3950   81.5120  222.2270 C   0  0  0  0  0  0  0  0  0  0  0  0
  142.0370   80.8550  223.4090 C   0  0  0  0  0  0  0  0  0  0  0  0
  141.6320   79.5030  223.8250 C   0  0  0  0  0  0  0  0  0  0  0  0
  142.9540   79.7020  223.0910 C   0  0  0  0  0  0  0  0  0  0  0  0
  139.2390   80.8930  221.4620 C   0  0  0  0  0  0  0  0  0  0  0  0
  138.4540   79.5860  221.4260 C   0  0  0  0  0  0  0  0  0  0  0  0
  139.9540   74.9750  221.9650 C   0  0  0  0  0  0  0  0  0  0  0  0
  140.5640   72.3240  223.5780 N   0  0  0  0  0  0  0  0  0  0  0  0
  140.2410   71.1680  224.2960 C   0  0  0  0  0  0  0  0  0  0  0  0
  140.5830   71.0000  225.6230 C   0  0  0  0  0  0  0  0  0  0  0  0
  140.2250   69.8320  226.2540 C   0  0  0  0  0  0  0  0  0  0  0  0
  140.6840   69.6650  227.9480 Cl  0  0  0  0  0  0  0  0  0  0  0  0
  139.5360   68.8210  225.5990 C   0  0  0  0  0  0  0  0  0  0  0  0
  139.1850   68.9790  224.2580 C   0  0  0  0  0  0  0  0  0  0  0  0
  139.5480   70.1630  223.6250 C   0  0  0  0  0  0  0  0  0  0  0  0
  140.1769   71.3169  220.6208 H   0  0  0  0  0  0  0  0  0  0  0  0
  138.6099   72.0627  221.1457 H   0  0  0  0  0  0  0  0  0  0  0  0
  142.4591   72.9971  220.7896 H   0  0  0  0  0  0  0  0  0  0  0  0
  143.0939   75.2205  219.8241 H   0  0  0  0  0  0  0  0  0  0  0  0
  141.7384   77.2288  220.2321 H   0  0  0  0  0  0  0  0  0  0  0  0
  140.8569   77.9721  219.6239 H   0  0  0  0  0  0  0  0  0  0  0  0
  139.6689   79.1681  219.0378 H   0  0  0  0  0  0  0  0  0  0  0  0
  142.1532   79.5472  220.6643 H   0  0  0  0  0  0  0  0  0  0  0  0
  141.3606   80.6502  219.4795 H   0  0  0  0  0  0  0  0  0  0  0  0
  142.1971   81.9567  221.6196 H   0  0  0  0  0  0  0  0  0  0  0  0
  140.6810   82.2307  222.6556 H   0  0  0  0  0  0  0  0  0  0  0  0
  142.1101   81.8058  223.9572 H   0  0  0  0  0  0  0  0  0  0  0  0
  141.6313   79.2339  224.8916 H   0  0  0  0  0  0  0  0  0  0  0  0
  140.7425   78.8759  223.6648 H   0  0  0  0  0  0  0  0  0  0  0  0
  143.9086   79.5879  223.6255 H   0  0  0  0  0  0  0  0  0  0  0  0
  143.4219   79.2931  222.1834 H   0  0  0  0  0  0  0  0  0  0  0  0
  139.0099   81.4135  222.4036 H   0  0  0  0  0  0  0  0  0  0  0  0
  138.9376   81.4817  220.5830 H   0  0  0  0  0  0  0  0  0  0  0  0
  138.0410   79.3619  222.4206 H   0  0  0  0  0  0  0  0  0  0  0  0
  137.6086   79.6458  220.7248 H   0  0  0  0  0  0  0  0  0  0  0  0
  139.0479   74.9031  222.5846 H   0  0  0  0  0  0  0  0  0  0  0  0
  141.1310   71.7850  226.1647 H   0  0  0  0  0  0  0  0  0  0  0  0
  139.2677   67.8987  226.1350 H   0  0  0  0  0  0  0  0  0  0  0  0
  138.6383   68.1918  223.7182 H   0  0  0  0  0  0  0  0  0  0  0  0
  1  2  2  0
  2  3  1  0
  3  4  1  0
  4  5  1  0
  5  6  2  0
  6  7  1  0
  7  8  2  0
  8  9  1  0
  9 10  1  0
 10 11  2  0
 10 12  1  0
 12 13  1  0
 13 14  1  0
 14 15  1  0
 15 16  1  0
 16 17  1  0
 17 18  1  0
 18 19  1  0
 15 20  1  0
 20 21  1  0
  9 22  2  0
  4 23  2  0
 23 24  1  0
 24 25  2  0
 25 26  1  0
 26 27  1  0
 26 28  2  0
 28 29  1  0
 29 30  2  0
 30  2  1  0
 22  5  1  0
 30 24  1  0
 21 12  1  0
 19 17  1  0
  3 31  1  0
  3 32  1  0
  6 33  1  0
  7 34  1  0
  8 35  1  0
 13 36  1  0
 13 37  1  0
 14 38  1  0
 14 39  1  0
 16 40  1  0
 16 41  1  0
 17 42  1  0
 18 43  1  0
 18 44  1  0
 19 45  1  0
 19 46  1  0
 20 47  1  0
 20 48  1  0
 21 49  1  0
 21 50  1  0
 22 51  1  0
 25 52  1  0
 28 53  1  0
 29 54  1  0
M  END
>  <smiles>  (30) 
O=C1CC(c2cccc(C(=O)N3CCN(CC4CC4)CC3)c2)=Nc2cc(Cl)ccc21

>  <score_type>  (30) 
oracle

>  <origin>  (30) 
autodockgpu

>  <m_score__min__energy>  (30) 
-8.7699999999999996

>  <m_primary>  (30) 
energy

>  <rmsd>  (30) 
6.239943475857405

>  <m_score__min__rmsd>  (30) 
6.239943475857405

>  <meeko>  (30) 
{"free_energy": -8.12, "intermolecular_energy": -9.31, "internal_energy": -1.15, "cluster_size": 18, "cluster_id": 2, "rank_in_cluster": 5}

>  <energy>  (30) 
-8.04

>  <cluster_rmsd>  (30) 
0.81

>  <cluster>  (30) 
2

$$$$

     RDKit          3D

 54 58  0  0  0  0  0  0  0  0999 V2000
  136.9790   73.1090  221.3490 O   0  0  0  0  0  0  0  0  0  0  0  0
  138.2010   73.1450  221.6660 C   0  0  0  0  0  0  0  0  0  0  0  0
  139.0560   74.1150  220.9660 C   0  0  0  0  0  0  0  0  0  0  0  0
  140.4710   74.0470  221.4370 C   0  0  0  0  0  0  0  0  0  0  0  0
  141.4510   74.9520  220.8430 C   0  0  0  0  0  0  0  0  0  0  0  0
  142.6150   74.4370  220.2890 C   0  0  0  0  0  0  0  0  0  0  0  0
  143.5120   75.3550  219.7340 C   0  0  0  0  0  0  0  0  0  0  0  0
  143.2670   76.7130  219.7290 C   0  0  0  0  0  0  0  0  0  0  0  0
  142.1130   77.2150  220.2780 C   0  0  0  0  0  0  0  0  0  0  0  0
  141.7560   78.6170  220.3220 C   0  0  0  0  0  0  0  0  0  0  0  0
  141.2740   79.1000  219.2360 O   0  0  0  0  0  0  0  0  0  0  0  0
  141.9030   79.4520  221.4490 N   0  0  0  0  0  0  0  0  0  0  0  0
  142.4220   79.0290  222.7290 C   0  0  0  0  0  0  0  0  0  0  0  0
  141.2990   79.1190  223.7390 C   0  0  0  0  0  0  0  0  0  0  0  0
  140.3370   80.0400  223.3140 N   0  0  0  0  0  0  0  0  0  0  0  0
  139.0340   80.0420  223.8210 C   0  0  0  0  0  0  0  0  0  0  0  0
  138.0150   79.2210  223.0920 C   0  0  0  0  0  0  0  0  0  0  0  0
  138.2010   78.8890  221.6700 C   0  0  0  0  0  0  0  0  0  0  0  0
  138.4480   77.8230  222.7320 C   0  0  0  0  0  0  0  0  0  0  0  0
  140.7050   81.1870  222.5910 C   0  0  0  0  0  0  0  0  0  0  0  0
  141.5160   80.8680  221.3400 C   0  0  0  0  0  0  0  0  0  0  0  0
  141.2270   76.3120  220.8270 C   0  0  0  0  0  0  0  0  0  0  0  0
  140.8620   73.2230  222.3550 N   0  0  0  0  0  0  0  0  0  0  0  0
  140.0620   72.2940  223.0310 C   0  0  0  0  0  0  0  0  0  0  0  0
  140.5650   71.4500  224.0000 C   0  0  0  0  0  0  0  0  0  0  0  0
  139.7090   70.5680  224.6170 C   0  0  0  0  0  0  0  0  0  0  0  0
  140.3990   69.5110  225.8480 Cl  0  0  0  0  0  0  0  0  0  0  0  0
  138.3620   70.5010  224.2930 C   0  0  0  0  0  0  0  0  0  0  0  0
  137.8420   71.3500  223.3150 C   0  0  0  0  0  0  0  0  0  0  0  0
  138.7120   72.2400  222.6960 C   0  0  0  0  0  0  0  0  0  0  0  0
  139.0289   73.9005  219.8875 H   0  0  0  0  0  0  0  0  0  0  0  0
  138.6730   75.1242  221.1778 H   0  0  0  0  0  0  0  0  0  0  0  0
  142.8222   73.3567  220.2867 H   0  0  0  0  0  0  0  0  0  0  0  0
  144.4448   74.9819  219.2861 H   0  0  0  0  0  0  0  0  0  0  0  0
  144.0018   77.3986  219.2818 H   0  0  0  0  0  0  0  0  0  0  0  0
  142.7821   77.9918  222.6620 H   0  0  0  0  0  0  0  0  0  0  0  0
  143.2626   79.6703  223.0325 H   0  0  0  0  0  0  0  0  0  0  0  0
  140.8305   78.1300  223.8498 H   0  0  0  0  0  0  0  0  0  0  0  0
  141.7108   79.4510  224.7034 H   0  0  0  0  0  0  0  0  0  0  0  0
  139.0806   79.6699  224.8551 H   0  0  0  0  0  0  0  0  0  0  0  0
  138.6898   81.0813  223.7147 H   0  0  0  0  0  0  0  0  0  0  0  0
  137.1804   79.6826  223.6400 H   0  0  0  0  0  0  0  0  0  0  0  0
  137.3277   78.8103  221.0058 H   0  0  0  0  0  0  0  0  0  0  0  0
  138.7919   79.3137  220.8451 H   0  0  0  0  0  0  0  0  0  0  0  0
  137.7510   76.9795  222.8447 H   0  0  0  0  0  0  0  0  0  0  0  0
  139.2824   77.1605  223.0056 H   0  0  0  0  0  0  0  0  0  0  0  0
  139.7910   81.7197  222.2898 H   0  0  0  0  0  0  0  0  0  0  0  0
  141.3401   81.8000  223.2474 H   0  0  0  0  0  0  0  0  0  0  0  0
  140.9054   81.0278  220.4391 H   0  0  0  0  0  0  0  0  0  0  0  0
  142.3990   81.5189  221.2590 H   0  0  0  0  0  0  0  0  0  0  0  0
  140.2975   76.6952  221.2733 H   0  0  0  0  0  0  0  0  0  0  0  0
  141.6300   71.4821  224.2736 H   0  0  0  0  0  0  0  0  0  0  0  0
  137.7061   69.7814  224.8049 H   0  0  0  0  0  0  0  0  0  0  0  0
  136.7768   71.3159  223.0425 H   0  0  0  0  0  0  0  0  0  0  0  0
  1  2  2  0
  2  3  1  0
  3  4  1  0
  4  5  1  0
  5  6  2  0
  6  7  1  0
  7  8  2  0
  8  9  1  0
  9 10  1  0
 10 11  2  0
 10 12  1  0
 12 13  1  0
 13 14  1  0
 14 15  1  0
 15 16  1  0
 16 17  1  0
 17 18  1  0
 18 19  1  0
 15 20  1  0
 20 21  1  0
  9 22  2  0
  4 23  2  0
 23 24  1  0
 24 25  2  0
 25 26  1  0
 26 27  1  0
 26 28  2  0
 28 29  1  0
 29 30  2  0
 30  2  1  0
 22  5  1  0
 30 24  1  0
 21 12  1  0
 19 17  1  0
  3 31  1  0
  3 32  1  0
  6 33  1  0
  7 34  1  0
  8 35  1  0
 13 36  1  0
 13 37  1  0
 14 38  1  0
 14 39  1  0
 16 40  1  0
 16 41  1  0
 17 42  1  0
 18 43  1  0
 18 44  1  0
 19 45  1  0
 19 46  1  0
 20 47  1  0
 20 48  1  0
 21 49  1  0
 21 50  1  0
 22 51  1  0
 25 52  1  0
 28 53  1  0
 29 54  1  0
M  END
>  <smiles>  (31) 
O=C1CC(c2cccc(C(=O)N3CCN(CC4CC4)CC3)c2)=Nc2cc(Cl)ccc21

>  <score_type>  (31) 
oracle

>  <origin>  (31) 
autodockgpu

>  <m_score__min__energy>  (31) 
-8.7699999999999996

>  <m_primary>  (31) 
energy

>  <rmsd>  (31) 
6.937323819014056

>  <m_score__min__rmsd>  (31) 
6.937323819014056

>  <meeko>  (31) 
{"free_energy": -7.6, "intermolecular_energy": -8.79, "internal_energy": -1.67, "cluster_size": 16, "cluster_id": 4, "rank_in_cluster": 5}

>  <energy>  (31) 
-7.99

>  <cluster_rmsd>  (31) 
0.75

>  <cluster>  (31) 
2

$$$$

     RDKit          3D

 54 58  0  0  0  0  0  0  0  0999 V2000
  137.2190   77.4610  222.3060 O   0  0  0  0  0  0  0  0  0  0  0  0
  138.4310   77.1020  222.3130 C   0  0  0  0  0  0  0  0  0  0  0  0
  138.7330   75.7190  221.9130 C   0  0  0  0  0  0  0  0  0  0  0  0
  140.1970   75.4350  221.9690 C   0  0  0  0  0  0  0  0  0  0  0  0
  140.6650   74.1030  221.5970 C   0  0  0  0  0  0  0  0  0  0  0  0
  141.8350   73.9660  220.8630 C   0  0  0  0  0  0  0  0  0  0  0  0
  142.2310   72.6640  220.5390 C   0  0  0  0  0  0  0  0  0  0  0  0
  141.5050   71.5570  220.9240 C   0  0  0  0  0  0  0  0  0  0  0  0
  140.3490   71.6990  221.6510 C   0  0  0  0  0  0  0  0  0  0  0  0
  139.5150   70.6080  222.1090 C   0  0  0  0  0  0  0  0  0  0  0  0
  139.2660   69.6990  221.2390 O   0  0  0  0  0  0  0  0  0  0  0  0
  138.9780   70.4920  223.4080 N   0  0  0  0  0  0  0  0  0  0  0  0
  139.1910   71.4400  224.4770 C   0  0  0  0  0  0  0  0  0  0  0  0
  139.9980   70.7510  225.5560 C   0  0  0  0  0  0  0  0  0  0  0  0
  139.8290   69.3660  225.4770 N   0  0  0  0  0  0  0  0  0  0  0  0
  140.7310   68.4720  226.0630 C   0  0  0  0  0  0  0  0  0  0  0  0
  141.2740   68.8330  227.4110 C   0  0  0  0  0  0  0  0  0  0  0  0
  140.4860   69.6620  228.3370 C   0  0  0  0  0  0  0  0  0  0  0  0
  140.6020   68.1610  228.5810 C   0  0  0  0  0  0  0  0  0  0  0  0
  138.6040   68.8090  225.0730 C   0  0  0  0  0  0  0  0  0  0  0  0
  138.1260   69.3350  223.7240 C   0  0  0  0  0  0  0  0  0  0  0  0
  139.9550   72.9820  221.9700 C   0  0  0  0  0  0  0  0  0  0  0  0
  141.0670   76.3220  222.3290 N   0  0  0  0  0  0  0  0  0  0  0  0
  140.7980   77.6410  222.7110 C   0  0  0  0  0  0  0  0  0  0  0  0
  141.7930   78.5230  223.0820 C   0  0  0  0  0  0  0  0  0  0  0  0
  141.4410   79.8020  223.4420 C   0  0  0  0  0  0  0  0  0  0  0  0
  142.7470   80.8910  223.9070 Cl  0  0  0  0  0  0  0  0  0  0  0  0
  140.1200   80.2290  223.4460 C   0  0  0  0  0  0  0  0  0  0  0  0
  139.1060   79.3470  223.0740 C   0  0  0  0  0  0  0  0  0  0  0  0
  139.4690   78.0550  222.7100 C   0  0  0  0  0  0  0  0  0  0  0  0
  138.2099   75.0294  222.5918 H   0  0  0  0  0  0  0  0  0  0  0  0
  138.3966   75.5813  220.8748 H   0  0  0  0  0  0  0  0  0  0  0  0
  142.4238   74.8410  220.5504 H   0  0  0  0  0  0  0  0  0  0  0  0
  143.1531   72.5185  219.9572 H   0  0  0  0  0  0  0  0  0  0  0  0
  141.8548   70.5517  220.6464 H   0  0  0  0  0  0  0  0  0  0  0  0
  139.7424   72.3131  224.0979 H   0  0  0  0  0  0  0  0  0  0  0  0
  138.2277   71.7852  224.8806 H   0  0  0  0  0  0  0  0  0  0  0  0
  141.0626   70.9949  225.4247 H   0  0  0  0  0  0  0  0  0  0  0  0
  139.6508   71.0987  226.5401 H   0  0  0  0  0  0  0  0  0  0  0  0
  140.2200   67.5028  226.1608 H   0  0  0  0  0  0  0  0  0  0  0  0
  141.6053   68.4730  225.3955 H   0  0  0  0  0  0  0  0  0  0  0  0
  142.2999   68.9273  227.0253 H   0  0  0  0  0  0  0  0  0  0  0  0
  140.9944   70.3684  229.0097 H   0  0  0  0  0  0  0  0  0  0  0  0
  139.6493   70.3674  228.2262 H   0  0  0  0  0  0  0  0  0  0  0  0
  141.2008   67.7796  229.4213 H   0  0  0  0  0  0  0  0  0  0  0  0
  139.8978   67.3264  228.7137 H   0  0  0  0  0  0  0  0  0  0  0  0
  138.7217   67.7176  225.0019 H   0  0  0  0  0  0  0  0  0  0  0  0
  137.8505   69.0929  225.8224 H   0  0  0  0  0  0  0  0  0  0  0  0
  138.2353   68.5591  222.9520 H   0  0  0  0  0  0  0  0  0  0  0  0
  137.0635   69.6177  223.7582 H   0  0  0  0  0  0  0  0  0  0  0  0
  139.0300   73.1169  222.5498 H   0  0  0  0  0  0  0  0  0  0  0  0
  142.8470   78.2084  223.0894 H   0  0  0  0  0  0  0  0  0  0  0  0
  139.8740   81.2596  223.7416 H   0  0  0  0  0  0  0  0  0  0  0  0
  138.0525   79.6633  223.0687 H   0  0  0  0  0  0  0  0  0  0  0  0
  1  2  2  0
  2  3  1  0
  3  4  1  0
  4  5  1  0
  5  6  2  0
  6  7  1  0
  7  8  2  0
  8  9  1  0
  9 10  1  0
 10 11  2  0
 10 12  1  0
 12 13  1  0
 13 14  1  0
 14 15  1  0
 15 16  1  0
 16 17  1  0
 17 18  1  0
 18 19  1  0
 15 20  1  0
 20 21  1  0
  9 22  2  0
  4 23  2  0
 23 24  1  0
 24 25  2  0
 25 26  1  0
 26 27  1  0
 26 28  2  0
 28 29  1  0
 29 30  2  0
 30  2  1  0
 22  5  1  0
 30 24  1  0
 21 12  1  0
 19 17  1  0
  3 31  1  0
  3 32  1  0
  6 33  1  0
  7 34  1  0
  8 35  1  0
 13 36  1  0
 13 37  1  0
 14 38  1  0
 14 39  1  0
 16 40  1  0
 16 41  1  0
 17 42  1  0
 18 43  1  0
 18 44  1  0
 19 45  1  0
 19 46  1  0
 20 47  1  0
 20 48  1  0
 21 49  1  0
 21 50  1  0
 22 51  1  0
 25 52  1  0
 28 53  1  0
 29 54  1  0
M  END
>  <smiles>  (32) 
O=C1CC(c2cccc(C(=O)N3CCN(CC4CC4)CC3)c2)=Nc2cc(Cl)ccc21

>  <score_type>  (32) 
oracle

>  <origin>  (32) 
autodockgpu

>  <m_score__min__energy>  (32) 
-8.7699999999999996

>  <m_primary>  (32) 
energy

>  <rmsd>  (32) 
8.971223667148239

>  <m_score__min__rmsd>  (32) 
8.971223667148239

>  <meeko>  (32) 
{"free_energy": -8.43, "intermolecular_energy": -9.62, "internal_energy": -0.82, "cluster_size": 14, "cluster_id": 1, "rank_in_cluster": 12}

>  <energy>  (32) 
-7.15

>  <cluster_rmsd>  (32) 
1.82

>  <cluster>  (32) 
2

$$$$

     RDKit          3D

 54 58  0  0  0  0  0  0  0  0999 V2000
  136.9850   73.0900  221.3740 O   0  0  0  0  0  0  0  0  0  0  0  0
  138.2090   73.1340  221.6830 C   0  0  0  0  0  0  0  0  0  0  0  0
  139.0530   74.1090  220.9760 C   0  0  0  0  0  0  0  0  0  0  0  0
  140.4720   74.0510  221.4390 C   0  0  0  0  0  0  0  0  0  0  0  0
  141.4420   74.9620  220.8370 C   0  0  0  0  0  0  0  0  0  0  0  0
  142.6000   74.4530  220.2660 C   0  0  0  0  0  0  0  0  0  0  0  0
  143.4880   75.3760  219.7050 C   0  0  0  0  0  0  0  0  0  0  0  0
  143.2390   76.7330  219.7100 C   0  0  0  0  0  0  0  0  0  0  0  0
  142.0910   77.2300  220.2750 C   0  0  0  0  0  0  0  0  0  0  0  0
  141.7300   78.6300  220.3300 C   0  0  0  0  0  0  0  0  0  0  0  0
  141.2610   79.1250  219.2430 O   0  0  0  0  0  0  0  0  0  0  0  0
  141.8620   79.4530  221.4680 N   0  0  0  0  0  0  0  0  0  0  0  0
  142.3650   79.0160  222.7500 C   0  0  0  0  0  0  0  0  0  0  0  0
  141.2290   79.0930  223.7470 C   0  0  0  0  0  0  0  0  0  0  0  0
  140.2710   80.0170  223.3200 N   0  0  0  0  0  0  0  0  0  0  0  0
  138.9620   80.0100  223.8100 C   0  0  0  0  0  0  0  0  0  0  0  0
  137.9560   79.1880  223.0650 C   0  0  0  0  0  0  0  0  0  0  0  0
  138.1690   78.8490  221.6490 C   0  0  0  0  0  0  0  0  0  0  0  0
  138.3930   77.7870  222.7200 C   0  0  0  0  0  0  0  0  0  0  0  0
  140.6460   81.1720  222.6140 C   0  0  0  0  0  0  0  0  0  0  0  0
  141.4730   80.8690  221.3700 C   0  0  0  0  0  0  0  0  0  0  0  0
  141.2140   76.3210  220.8300 C   0  0  0  0  0  0  0  0  0  0  0  0
  140.8740   73.2310  222.3550 N   0  0  0  0  0  0  0  0  0  0  0  0
  140.0850   72.2980  223.0370 C   0  0  0  0  0  0  0  0  0  0  0  0
  140.5990   71.4580  224.0050 C   0  0  0  0  0  0  0  0  0  0  0  0
  139.7530   70.5720  224.6280 C   0  0  0  0  0  0  0  0  0  0  0  0
  140.4580   69.5210  225.8560 Cl  0  0  0  0  0  0  0  0  0  0  0  0
  138.4040   70.4960  224.3130 C   0  0  0  0  0  0  0  0  0  0  0  0
  137.8720   71.3390  223.3370 C   0  0  0  0  0  0  0  0  0  0  0  0
  138.7320   72.2340  222.7110 C   0  0  0  0  0  0  0  0  0  0  0  0
  139.0208   73.8926  219.8980 H   0  0  0  0  0  0  0  0  0  0  0  0
  138.6643   75.1159  221.1882 H   0  0  0  0  0  0  0  0  0  0  0  0
  142.8096   73.3732  220.2553 H   0  0  0  0  0  0  0  0  0  0  0  0
  144.4164   75.0077  219.2441 H   0  0  0  0  0  0  0  0  0  0  0  0
  143.9667   77.4226  219.2573 H   0  0  0  0  0  0  0  0  0  0  0  0
  142.7274   77.9801  222.6758 H   0  0  0  0  0  0  0  0  0  0  0  0
  143.2006   79.6551  223.0715 H   0  0  0  0  0  0  0  0  0  0  0  0
  140.7609   78.1020  223.8410 H   0  0  0  0  0  0  0  0  0  0  0  0
  141.6281   79.4150  224.7202 H   0  0  0  0  0  0  0  0  0  0  0  0
  138.9974   79.6332  224.8428 H   0  0  0  0  0  0  0  0  0  0  0  0
  138.6142   81.0481  223.7035 H   0  0  0  0  0  0  0  0  0  0  0  0
  137.1118   79.6541  223.5943 H   0  0  0  0  0  0  0  0  0  0  0  0
  137.3087   78.7692  220.9682 H   0  0  0  0  0  0  0  0  0  0  0  0
  138.7769   79.2688  220.8340 H   0  0  0  0  0  0  0  0  0  0  0  0
  137.6921   76.9455  222.8228 H   0  0  0  0  0  0  0  0  0  0  0  0
  139.2204   77.1239  223.0128 H   0  0  0  0  0  0  0  0  0  0  0  0
  139.7347   81.7063  222.3072 H   0  0  0  0  0  0  0  0  0  0  0  0
  141.2722   81.7783  223.2850 H   0  0  0  0  0  0  0  0  0  0  0  0
  140.8732   81.0374  220.4634 H   0  0  0  0  0  0  0  0  0  0  0  0
  142.3554   81.5228  221.3072 H   0  0  0  0  0  0  0  0  0  0  0  0
  140.2885   76.6991  221.2888 H   0  0  0  0  0  0  0  0  0  0  0  0
  141.6653   71.4973  224.2724 H   0  0  0  0  0  0  0  0  0  0  0  0
  137.7561   69.7735  224.8310 H   0  0  0  0  0  0  0  0  0  0  0  0
  136.8054   71.2968  223.0711 H   0  0  0  0  0  0  0  0  0  0  0  0
  1  2  2  0
  2  3  1  0
  3  4  1  0
  4  5  1  0
  5  6  2  0
  6  7  1  0
  7  8  2  0
  8  9  1  0
  9 10  1  0
 10 11  2  0
 10 12  1  0
 12 13  1  0
 13 14  1  0
 14 15  1  0
 15 16  1  0
 16 17  1  0
 17 18  1  0
 18 19  1  0
 15 20  1  0
 20 21  1  0
  9 22  2  0
  4 23  2  0
 23 24  1  0
 24 25  2  0
 25 26  1  0
 26 27  1  0
 26 28  2  0
 28 29  1  0
 29 30  2  0
 30  2  1  0
 22  5  1  0
 30 24  1  0
 21 12  1  0
 19 17  1  0
  3 31  1  0
  3 32  1  0
  6 33  1  0
  7 34  1  0
  8 35  1  0
 13 36  1  0
 13 37  1  0
 14 38  1  0
 14 39  1  0
 16 40  1  0
 16 41  1  0
 17 42  1  0
 18 43  1  0
 18 44  1  0
 19 45  1  0
 19 46  1  0
 20 47  1  0
 20 48  1  0
 21 49  1  0
 21 50  1  0
 22 51  1  0
 25 52  1  0
 28 53  1  0
 29 54  1  0
M  END
>  <smiles>  (33) 
O=C1CC(c2cccc(C(=O)N3CCN(CC4CC4)CC3)c2)=Nc2cc(Cl)ccc21

>  <score_type>  (33) 
oracle

>  <origin>  (33) 
autodockgpu

>  <m_score__min__energy>  (33) 
-8.7699999999999996

>  <m_primary>  (33) 
energy

>  <rmsd>  (33) 
6.925158204762544

>  <m_score__min__rmsd>  (33) 
6.925158204762544

>  <meeko>  (33) 
{"free_energy": -7.59, "intermolecular_energy": -8.79, "internal_energy": -1.68, "cluster_size": 16, "cluster_id": 4, "rank_in_cluster": 7}

>  <energy>  (33) 
-8.01

>  <cluster_rmsd>  (33) 
0.0

>  <cluster>  (33) 
3

$$$$

     RDKit          3D

 54 58  0  0  0  0  0  0  0  0999 V2000
  137.0130   73.0290  221.3010 O   0  0  0  0  0  0  0  0  0  0  0  0
  138.2310   73.0890  221.6310 C   0  0  0  0  0  0  0  0  0  0  0  0
  139.0770   74.0680  220.9310 C   0  0  0  0  0  0  0  0  0  0  0  0
  140.4880   74.0290  221.4190 C   0  0  0  0  0  0  0  0  0  0  0  0
  141.4580   74.9450  220.8260 C   0  0  0  0  0  0  0  0  0  0  0  0
  142.6240   74.4420  220.2660 C   0  0  0  0  0  0  0  0  0  0  0  0
  143.5130   75.3710  219.7130 C   0  0  0  0  0  0  0  0  0  0  0  0
  143.2570   76.7260  219.7160 C   0  0  0  0  0  0  0  0  0  0  0  0
  142.1010   77.2160  220.2710 C   0  0  0  0  0  0  0  0  0  0  0  0
  141.7320   78.6150  220.3240 C   0  0  0  0  0  0  0  0  0  0  0  0
  141.2510   79.1020  219.2390 O   0  0  0  0  0  0  0  0  0  0  0  0
  141.8670   79.4430  221.4580 N   0  0  0  0  0  0  0  0  0  0  0  0
  142.3830   79.0140  222.7370 C   0  0  0  0  0  0  0  0  0  0  0  0
  141.2550   79.0880  223.7430 C   0  0  0  0  0  0  0  0  0  0  0  0
  140.2880   80.0050  223.3200 N   0  0  0  0  0  0  0  0  0  0  0  0
  138.9830   79.9920  223.8200 C   0  0  0  0  0  0  0  0  0  0  0  0
  137.9740   79.1700  223.0790 C   0  0  0  0  0  0  0  0  0  0  0  0
  138.1660   78.8570  221.6540 C   0  0  0  0  0  0  0  0  0  0  0  0
  138.4200   77.7810  222.7040 C   0  0  0  0  0  0  0  0  0  0  0  0
  140.6510   81.1590  222.6070 C   0  0  0  0  0  0  0  0  0  0  0  0
  141.4700   80.8560  221.3570 C   0  0  0  0  0  0  0  0  0  0  0  0
  141.2240   76.3030  220.8180 C   0  0  0  0  0  0  0  0  0  0  0  0
  140.8820   73.2200  222.3490 N   0  0  0  0  0  0  0  0  0  0  0  0
  140.0910   72.2850  223.0250 C   0  0  0  0  0  0  0  0  0  0  0  0
  140.5980   71.4590  224.0080 C   0  0  0  0  0  0  0  0  0  0  0  0
  139.7510   70.5680  224.6250 C   0  0  0  0  0  0  0  0  0  0  0  0
  140.4450   69.5360  225.8730 Cl  0  0  0  0  0  0  0  0  0  0  0  0
  138.4080   70.4750  224.2870 C   0  0  0  0  0  0  0  0  0  0  0  0
  137.8840   71.3050  223.2940 C   0  0  0  0  0  0  0  0  0  0  0  0
  138.7460   72.2040  222.6760 C   0  0  0  0  0  0  0  0  0  0  0  0
  139.0660   73.8431  219.8543 H   0  0  0  0  0  0  0  0  0  0  0  0
  138.6739   75.0722  221.1285 H   0  0  0  0  0  0  0  0  0  0  0  0
  142.8395   73.3634  220.2572 H   0  0  0  0  0  0  0  0  0  0  0  0
  144.4476   75.0079  219.2606 H   0  0  0  0  0  0  0  0  0  0  0  0
  143.9849   77.4198  219.2701 H   0  0  0  0  0  0  0  0  0  0  0  0
  142.7509   77.9800  222.6636 H   0  0  0  0  0  0  0  0  0  0  0  0
  143.2173   79.6593  223.0492 H   0  0  0  0  0  0  0  0  0  0  0  0
  140.7935   78.0947  223.8447 H   0  0  0  0  0  0  0  0  0  0  0  0
  141.6600   79.4158  224.7118 H   0  0  0  0  0  0  0  0  0  0  0  0
  139.0275   79.6109  224.8509 H   0  0  0  0  0  0  0  0  0  0  0  0
  138.6312   81.0295  223.7209 H   0  0  0  0  0  0  0  0  0  0  0  0
  137.1340   79.6173  223.6306 H   0  0  0  0  0  0  0  0  0  0  0  0
  137.2949   78.7784  220.9869 H   0  0  0  0  0  0  0  0  0  0  0  0
  138.7548   79.2968  220.8355 H   0  0  0  0  0  0  0  0  0  0  0  0
  137.7302   76.9301  222.8051 H   0  0  0  0  0  0  0  0  0  0  0  0
  139.2596   77.1228  222.9719 H   0  0  0  0  0  0  0  0  0  0  0  0
  139.7344   81.6873  222.3056 H   0  0  0  0  0  0  0  0  0  0  0  0
  141.2793   81.7710  223.2708 H   0  0  0  0  0  0  0  0  0  0  0  0
  140.8621   81.0176  220.4546 H   0  0  0  0  0  0  0  0  0  0  0  0
  142.3481   81.5145  221.2841 H   0  0  0  0  0  0  0  0  0  0  0  0
  140.2931   76.6767  221.2695 H   0  0  0  0  0  0  0  0  0  0  0  0
  141.6592   71.5123  224.2925 H   0  0  0  0  0  0  0  0  0  0  0  0
  137.7588   69.7499  224.7996 H   0  0  0  0  0  0  0  0  0  0  0  0
  136.8228   71.2494  223.0096 H   0  0  0  0  0  0  0  0  0  0  0  0
  1  2  2  0
  2  3  1  0
  3  4  1  0
  4  5  1  0
  5  6  2  0
  6  7  1  0
  7  8  2  0
  8  9  1  0
  9 10  1  0
 10 11  2  0
 10 12  1  0
 12 13  1  0
 13 14  1  0
 14 15  1  0
 15 16  1  0
 16 17  1  0
 17 18  1  0
 18 19  1  0
 15 20  1  0
 20 21  1  0
  9 22  2  0
  4 23  2  0
 23 24  1  0
 24 25  2  0
 25 26  1  0
 26 27  1  0
 26 28  2  0
 28 29  1  0
 29 30  2  0
 30  2  1  0
 22  5  1  0
 30 24  1  0
 21 12  1  0
 19 17  1  0
  3 31  1  0
  3 32  1  0
  6 33  1  0
  7 34  1  0
  8 35  1  0
 13 36  1  0
 13 37  1  0
 14 38  1  0
 14 39  1  0
 16 40  1  0
 16 41  1  0
 17 42  1  0
 18 43  1  0
 18 44  1  0
 19 45  1  0
 19 46  1  0
 20 47  1  0
 20 48  1  0
 21 49  1  0
 21 50  1  0
 22 51  1  0
 25 52  1  0
 28 53  1  0
 29 54  1  0
M  END
>  <smiles>  (34) 
O=C1CC(c2cccc(C(=O)N3CCN(CC4CC4)CC3)c2)=Nc2cc(Cl)ccc21

>  <score_type>  (34) 
oracle

>  <origin>  (34) 
autodockgpu

>  <m_score__min__energy>  (34) 
-8.7699999999999996

>  <m_primary>  (34) 
energy

>  <rmsd>  (34) 
6.919821431608052

>  <m_score__min__rmsd>  (34) 
6.919821431608052

>  <meeko>  (34) 
{"free_energy": -7.6, "intermolecular_energy": -8.79, "internal_energy": -1.67, "cluster_size": 16, "cluster_id": 4, "rank_in_cluster": 4}

>  <energy>  (34) 
-7.91

>  <cluster_rmsd>  (34) 
0.23

>  <cluster>  (34) 
3

$$$$

     RDKit          3D

 54 58  0  0  0  0  0  0  0  0999 V2000
  137.1760   77.2030  222.3890 O   0  0  0  0  0  0  0  0  0  0  0  0
  138.4040   76.9050  222.3610 C   0  0  0  0  0  0  0  0  0  0  0  0
  138.7620   75.5370  221.9580 C   0  0  0  0  0  0  0  0  0  0  0  0
  140.2400   75.3260  221.9700 C   0  0  0  0  0  0  0  0  0  0  0  0
  140.7630   74.0170  221.5900 C   0  0  0  0  0  0  0  0  0  0  0  0
  141.9340   73.9340  220.8490 C   0  0  0  0  0  0  0  0  0  0  0  0
  142.3840   72.6510  220.5170 C   0  0  0  0  0  0  0  0  0  0  0  0
  141.7080   71.5120  220.9020 C   0  0  0  0  0  0  0  0  0  0  0  0
  140.5520   71.6020  221.6360 C   0  0  0  0  0  0  0  0  0  0  0  0
  139.7680   70.4740  222.0940 C   0  0  0  0  0  0  0  0  0  0  0  0
  139.5840   69.5420  221.2320 O   0  0  0  0  0  0  0  0  0  0  0  0
  139.2140   70.3470  223.3850 N   0  0  0  0  0  0  0  0  0  0  0  0
  139.3570   71.3180  224.4440 C   0  0  0  0  0  0  0  0  0  0  0  0
  140.1790   70.6870  225.5470 C   0  0  0  0  0  0  0  0  0  0  0  0
  140.0850   69.2940  225.4850 N   0  0  0  0  0  0  0  0  0  0  0  0
  141.0220   68.4580  226.0990 C   0  0  0  0  0  0  0  0  0  0  0  0
  141.0430   68.4350  227.5960 C   0  0  0  0  0  0  0  0  0  0  0  0
  141.1230   69.6890  228.3620 C   0  0  0  0  0  0  0  0  0  0  0  0
  139.7940   68.9450  228.2680 C   0  0  0  0  0  0  0  0  0  0  0  0
  138.8990   68.6680  225.0670 C   0  0  0  0  0  0  0  0  0  0  0  0
  138.4190   69.1500  223.7020 C   0  0  0  0  0  0  0  0  0  0  0  0
  140.1050   72.8650  221.9630 C   0  0  0  0  0  0  0  0  0  0  0  0
  141.0750   76.2580  222.2990 N   0  0  0  0  0  0  0  0  0  0  0  0
  140.7520   77.5640  222.6830 C   0  0  0  0  0  0  0  0  0  0  0  0
  141.7120   78.4980  223.0190 C   0  0  0  0  0  0  0  0  0  0  0  0
  141.3070   79.7600  223.3840 C   0  0  0  0  0  0  0  0  0  0  0  0
  142.5710   80.9160  223.8030 Cl  0  0  0  0  0  0  0  0  0  0  0  0
  139.9670   80.1200  223.4270 C   0  0  0  0  0  0  0  0  0  0  0  0
  138.9880   79.1850  223.0900 C   0  0  0  0  0  0  0  0  0  0  0  0
  139.4040   77.9110  222.7200 C   0  0  0  0  0  0  0  0  0  0  0  0
  138.2949   74.8262  222.6556 H   0  0  0  0  0  0  0  0  0  0  0  0
  138.4014   75.3769  220.9312 H   0  0  0  0  0  0  0  0  0  0  0  0
  142.4828   74.8349  220.5372 H   0  0  0  0  0  0  0  0  0  0  0  0
  143.3080   72.5475  219.9292 H   0  0  0  0  0  0  0  0  0  0  0  0
  142.0986   70.5236  220.6184 H   0  0  0  0  0  0  0  0  0  0  0  0
  139.8686   72.2140  224.0627 H   0  0  0  0  0  0  0  0  0  0  0  0
  138.3694   71.6166  224.8255 H   0  0  0  0  0  0  0  0  0  0  0  0
  141.2314   70.9853  225.4313 H   0  0  0  0  0  0  0  0  0  0  0  0
  139.7954   71.0288  226.5196 H   0  0  0  0  0  0  0  0  0  0  0  0
  140.8250   67.4318  225.7552 H   0  0  0  0  0  0  0  0  0  0  0  0
  142.0005   68.8681  225.8085 H   0  0  0  0  0  0  0  0  0  0  0  0
  141.6448   67.5145  227.6215 H   0  0  0  0  0  0  0  0  0  0  0  0
  141.6709   69.7160  229.3155 H   0  0  0  0  0  0  0  0  0  0  0  0
  141.4558   70.7137  228.1402 H   0  0  0  0  0  0  0  0  0  0  0  0
  139.3849   68.4257  229.1472 H   0  0  0  0  0  0  0  0  0  0  0  0
  138.7713   69.1937  227.9483 H   0  0  0  0  0  0  0  0  0  0  0  0
  139.0752   67.5835  225.0136 H   0  0  0  0  0  0  0  0  0  0  0  0
  138.1178   68.9219  225.7986 H   0  0  0  0  0  0  0  0  0  0  0  0
  138.5840   68.3710  222.9431 H   0  0  0  0  0  0  0  0  0  0  0  0
  137.3425   69.3758  223.7130 H   0  0  0  0  0  0  0  0  0  0  0  0
  139.1790   72.9573  222.5496 H   0  0  0  0  0  0  0  0  0  0  0  0
  142.7804   78.2372  222.9950 H   0  0  0  0  0  0  0  0  0  0  0  0
  139.6782   81.1385  223.7256 H   0  0  0  0  0  0  0  0  0  0  0  0
  137.9201   79.4476  223.1162 H   0  0  0  0  0  0  0  0  0  0  0  0
  1  2  2  0
  2  3  1  0
  3  4  1  0
  4  5  1  0
  5  6  2  0
  6  7  1  0
  7  8  2  0
  8  9  1  0
  9 10  1  0
 10 11  2  0
 10 12  1  0
 12 13  1  0
 13 14  1  0
 14 15  1  0
 15 16  1  0
 16 17  1  0
 17 18  1  0
 18 19  1  0
 15 20  1  0
 20 21  1  0
  9 22  2  0
  4 23  2  0
 23 24  1  0
 24 25  2  0
 25 26  1  0
 26 27  1  0
 26 28  2  0
 28 29  1  0
 29 30  2  0
 30  2  1  0
 22  5  1  0
 30 24  1  0
 21 12  1  0
 19 17  1  0
  3 31  1  0
  3 32  1  0
  6 33  1  0
  7 34  1  0
  8 35  1  0
 13 36  1  0
 13 37  1  0
 14 38  1  0
 14 39  1  0
 16 40  1  0
 16 41  1  0
 17 42  1  0
 18 43  1  0
 18 44  1  0
 19 45  1  0
 19 46  1  0
 20 47  1  0
 20 48  1  0
 21 49  1  0
 21 50  1  0
 22 51  1  0
 25 52  1  0
 28 53  1  0
 29 54  1  0
M  END
>  <smiles>  (35) 
O=C1CC(c2cccc(C(=O)N3CCN(CC4CC4)CC3)c2)=Nc2cc(Cl)ccc21

>  <score_type>  (35) 
oracle

>  <origin>  (35) 
autodockgpu

>  <m_score__min__energy>  (35) 
-8.7699999999999996

>  <m_primary>  (35) 
energy

>  <rmsd>  (35) 
8.87440468219086

>  <m_score__min__rmsd>  (35) 
8.87440468219086

>  <meeko>  (35) 
{"free_energy": -8.69, "intermolecular_energy": -9.89, "internal_energy": -0.83, "cluster_size": 14, "cluster_id": 1, "rank_in_cluster": 7}

>  <energy>  (35) 
-7.61

>  <cluster_rmsd>  (35) 
0.0

>  <cluster>  (35) 
4

$$$$

     RDKit          3D

 54 58  0  0  0  0  0  0  0  0999 V2000
  137.0370   73.1080  221.3150 O   0  0  0  0  0  0  0  0  0  0  0  0
  138.2570   73.1560  221.6400 C   0  0  0  0  0  0  0  0  0  0  0  0
  139.1100   74.1270  220.9380 C   0  0  0  0  0  0  0  0  0  0  0  0
  140.5210   74.0740  221.4210 C   0  0  0  0  0  0  0  0  0  0  0  0
  141.4980   74.9810  220.8260 C   0  0  0  0  0  0  0  0  0  0  0  0
  142.6720   74.4710  220.2890 C   0  0  0  0  0  0  0  0  0  0  0  0
  143.5670   75.3910  219.7320 C   0  0  0  0  0  0  0  0  0  0  0  0
  143.3090   76.7460  219.7090 C   0  0  0  0  0  0  0  0  0  0  0  0
  142.1460   77.2440  220.2410 C   0  0  0  0  0  0  0  0  0  0  0  0
  141.7750   78.6420  220.2650 C   0  0  0  0  0  0  0  0  0  0  0  0
  141.2540   79.0960  219.1840 O   0  0  0  0  0  0  0  0  0  0  0  0
  141.9480   79.5050  221.3680 N   0  0  0  0  0  0  0  0  0  0  0  0
  142.5110   79.1160  222.6400 C   0  0  0  0  0  0  0  0  0  0  0  0
  141.4190   79.2170  223.6830 C   0  0  0  0  0  0  0  0  0  0  0  0
  140.4360   80.1190  223.2680 N   0  0  0  0  0  0  0  0  0  0  0  0
  139.1490   80.1180  223.8150 C   0  0  0  0  0  0  0  0  0  0  0  0
  138.1080   79.2980  223.1170 C   0  0  0  0  0  0  0  0  0  0  0  0
  138.2360   78.9910  221.6840 C   0  0  0  0  0  0  0  0  0  0  0  0
  138.5390   77.9110  222.7170 C   0  0  0  0  0  0  0  0  0  0  0  0
  140.7690   81.2520  222.5080 C   0  0  0  0  0  0  0  0  0  0  0  0
  141.5430   80.9130  221.2390 C   0  0  0  0  0  0  0  0  0  0  0  0
  141.2620   76.3390  220.7910 C   0  0  0  0  0  0  0  0  0  0  0  0
  140.9120   73.2610  222.3490 N   0  0  0  0  0  0  0  0  0  0  0  0
  140.1140   72.3330  223.0270 C   0  0  0  0  0  0  0  0  0  0  0  0
  140.6160   71.5010  224.0080 C   0  0  0  0  0  0  0  0  0  0  0  0
  139.7630   70.6180  224.6260 C   0  0  0  0  0  0  0  0  0  0  0  0
  140.4520   69.5780  225.8720 Cl  0  0  0  0  0  0  0  0  0  0  0  0
  138.4180   70.5380  224.2930 C   0  0  0  0  0  0  0  0  0  0  0  0
  137.8990   71.3730  223.3030 C   0  0  0  0  0  0  0  0  0  0  0  0
  138.7670   72.2650  222.6830 C   0  0  0  0  0  0  0  0  0  0  0  0
  139.0933   73.9029  219.8612 H   0  0  0  0  0  0  0  0  0  0  0  0
  138.7173   75.1350  221.1374 H   0  0  0  0  0  0  0  0  0  0  0  0
  142.8888   73.3927  220.3008 H   0  0  0  0  0  0  0  0  0  0  0  0
  144.5078   75.0215  219.2979 H   0  0  0  0  0  0  0  0  0  0  0  0
  144.0416   77.4331  219.2605 H   0  0  0  0  0  0  0  0  0  0  0  0
  142.8801   78.0813  222.5845 H   0  0  0  0  0  0  0  0  0  0  0  0
  143.3535   79.7726  222.9028 H   0  0  0  0  0  0  0  0  0  0  0  0
  140.9641   78.2263  223.8297 H   0  0  0  0  0  0  0  0  0  0  0  0
  141.8569   79.5733  224.6271 H   0  0  0  0  0  0  0  0  0  0  0  0
  139.2283   79.7435  224.8463 H   0  0  0  0  0  0  0  0  0  0  0  0
  138.8007   81.1571  223.7209 H   0  0  0  0  0  0  0  0  0  0  0  0
  137.2929   79.7420  223.7073 H   0  0  0  0  0  0  0  0  0  0  0  0
  137.3358   78.9135  221.0566 H   0  0  0  0  0  0  0  0  0  0  0  0
  138.7866   79.4351  220.8416 H   0  0  0  0  0  0  0  0  0  0  0  0
  137.8559   77.0585  222.8458 H   0  0  0  0  0  0  0  0  0  0  0  0
  139.3909   77.2532  222.9441 H   0  0  0  0  0  0  0  0  0  0  0  0
  139.8404   81.7689  222.2244 H   0  0  0  0  0  0  0  0  0  0  0  0
  141.4187   81.8854  223.1298 H   0  0  0  0  0  0  0  0  0  0  0  0
  140.9023   81.0458  220.3548 H   0  0  0  0  0  0  0  0  0  0  0  0
  142.4157   81.5709  221.1145 H   0  0  0  0  0  0  0  0  0  0  0  0
  140.3241   76.7189  221.2222 H   0  0  0  0  0  0  0  0  0  0  0  0
  141.6785   71.5440  224.2896 H   0  0  0  0  0  0  0  0  0  0  0  0
  137.7637   69.8190  224.8077 H   0  0  0  0  0  0  0  0  0  0  0  0
  136.8365   71.3271  223.0218 H   0  0  0  0  0  0  0  0  0  0  0  0
  1  2  2  0
  2  3  1  0
  3  4  1  0
  4  5  1  0
  5  6  2  0
  6  7  1  0
  7  8  2  0
  8  9  1  0
  9 10  1  0
 10 11  2  0
 10 12  1  0
 12 13  1  0
 13 14  1  0
 14 15  1  0
 15 16  1  0
 16 17  1  0
 17 18  1  0
 18 19  1  0
 15 20  1  0
 20 21  1  0
  9 22  2  0
  4 23  2  0
 23 24  1  0
 24 25  2  0
 25 26  1  0
 26 27  1  0
 26 28  2  0
 28 29  1  0
 29 30  2  0
 30  2  1  0
 22  5  1  0
 30 24  1  0
 21 12  1  0
 19 17  1  0
  3 31  1  0
  3 32  1  0
  6 33  1  0
  7 34  1  0
  8 35  1  0
 13 36  1  0
 13 37  1  0
 14 38  1  0
 14 39  1  0
 16 40  1  0
 16 41  1  0
 17 42  1  0
 18 43  1  0
 18 44  1  0
 19 45  1  0
 19 46  1  0
 20 47  1  0
 20 48  1  0
 21 49  1  0
 21 50  1  0
 22 51  1  0
 25 52  1  0
 28 53  1  0
 29 54  1  0
M  END
>  <smiles>  (36) 
O=C1CC(c2cccc(C(=O)N3CCN(CC4CC4)CC3)c2)=Nc2cc(Cl)ccc21

>  <score_type>  (36) 
oracle

>  <origin>  (36) 
autodockgpu

>  <m_score__min__energy>  (36) 
-8.7699999999999996

>  <m_primary>  (36) 
energy

>  <rmsd>  (36) 
6.969710360917169

>  <m_score__min__rmsd>  (36) 
6.969710360917169

>  <meeko>  (36) 
{"free_energy": -7.6, "intermolecular_energy": -8.8, "internal_energy": -1.66, "cluster_size": 16, "cluster_id": 4, "rank_in_cluster": 3}

>  <energy>  (36) 
-7.6

>  <cluster_rmsd>  (36) 
0.06

>  <cluster>  (36) 
4

$$$$

     RDKit          3D

 54 58  0  0  0  0  0  0  0  0999 V2000
  138.5300   69.4280  221.5900 O   0  0  0  0  0  0  0  0  0  0  0  0
  139.1730   70.3200  222.2130 C   0  0  0  0  0  0  0  0  0  0  0  0
  139.5340   71.5390  221.4730 C   0  0  0  0  0  0  0  0  0  0  0  0
  140.2880   72.5020  222.3290 C   0  0  0  0  0  0  0  0  0  0  0  0
  140.7190   73.7690  221.7450 C   0  0  0  0  0  0  0  0  0  0  0  0
  141.8540   73.8070  220.9480 C   0  0  0  0  0  0  0  0  0  0  0  0
  142.2140   75.0500  220.4170 C   0  0  0  0  0  0  0  0  0  0  0  0
  141.4830   76.1940  220.6620 C   0  0  0  0  0  0  0  0  0  0  0  0
  140.3590   76.1490  221.4500 C   0  0  0  0  0  0  0  0  0  0  0  0
  139.5200   77.2840  221.7670 C   0  0  0  0  0  0  0  0  0  0  0  0
  138.7730   77.1480  222.8010 O   0  0  0  0  0  0  0  0  0  0  0  0
  139.4770   78.4870  221.0320 N   0  0  0  0  0  0  0  0  0  0  0  0
  140.2720   78.7670  219.8600 C   0  0  0  0  0  0  0  0  0  0  0  0
  141.2330   79.8850  220.2050 C   0  0  0  0  0  0  0  0  0  0  0  0
  140.7330   80.6410  221.2680 N   0  0  0  0  0  0  0  0  0  0  0  0
  141.5550   81.4620  222.0470 C   0  0  0  0  0  0  0  0  0  0  0  0
  142.1260   80.8710  223.2980 C   0  0  0  0  0  0  0  0  0  0  0  0
  141.6080   79.6000  223.8280 C   0  0  0  0  0  0  0  0  0  0  0  0
  142.9520   79.6250  223.1070 C   0  0  0  0  0  0  0  0  0  0  0  0
  139.3530   80.8490  221.4220 C   0  0  0  0  0  0  0  0  0  0  0  0
  138.5550   79.5500  221.4620 C   0  0  0  0  0  0  0  0  0  0  0  0
  140.0040   74.9240  221.9770 C   0  0  0  0  0  0  0  0  0  0  0  0
  140.5700   72.2610  223.5690 N   0  0  0  0  0  0  0  0  0  0  0  0
  140.2340   71.1080  224.2880 C   0  0  0  0  0  0  0  0  0  0  0  0
  140.5770   70.9340  225.6130 C   0  0  0  0  0  0  0  0  0  0  0  0
  140.2050   69.7710  226.2450 C   0  0  0  0  0  0  0  0  0  0  0  0
  140.6670   69.5970  227.9370 Cl  0  0  0  0  0  0  0  0  0  0  0  0
  139.5000   68.7710  225.5910 C   0  0  0  0  0  0  0  0  0  0  0  0
  139.1480   68.9350  224.2510 C   0  0  0  0  0  0  0  0  0  0  0  0
  139.5250   70.1140  223.6180 C   0  0  0  0  0  0  0  0  0  0  0  0
  140.1602   71.2612  220.6123 H   0  0  0  0  0  0  0  0  0  0  0  0
  138.6052   72.0277  221.1436 H   0  0  0  0  0  0  0  0  0  0  0  0
  142.4437   72.9013  220.7431 H   0  0  0  0  0  0  0  0  0  0  0  0
  143.1102   75.1176  219.7827 H   0  0  0  0  0  0  0  0  0  0  0  0
  141.8030   77.1503  220.2225 H   0  0  0  0  0  0  0  0  0  0  0  0
  140.8343   77.8683  219.5665 H   0  0  0  0  0  0  0  0  0  0  0  0
  139.6256   79.0630  219.0206 H   0  0  0  0  0  0  0  0  0  0  0  0
  142.2039   79.4541  220.4908 H   0  0  0  0  0  0  0  0  0  0  0  0
  141.3547   80.5369  219.3274 H   0  0  0  0  0  0  0  0  0  0  0  0
  142.3985   81.7793  221.4163 H   0  0  0  0  0  0  0  0  0  0  0  0
  140.8982   82.2742  222.3920 H   0  0  0  0  0  0  0  0  0  0  0  0
  142.2676   81.8602  223.7578 H   0  0  0  0  0  0  0  0  0  0  0  0
  141.5709   79.4327  224.9146 H   0  0  0  0  0  0  0  0  0  0  0  0
  140.6734   79.0326  223.7073 H   0  0  0  0  0  0  0  0  0  0  0  0
  143.8869   79.4867  223.6699 H   0  0  0  0  0  0  0  0  0  0  0  0
  143.3982   79.0976  222.2510 H   0  0  0  0  0  0  0  0  0  0  0  0
  139.1835   81.3936  222.3626 H   0  0  0  0  0  0  0  0  0  0  0  0
  139.0071   81.4207  220.5482 H   0  0  0  0  0  0  0  0  0  0  0  0
  138.1971   79.3539  222.4835 H   0  0  0  0  0  0  0  0  0  0  0  0
  137.6718   79.6025  220.8084 H   0  0  0  0  0  0  0  0  0  0  0  0
  139.1079   74.8668  222.6124 H   0  0  0  0  0  0  0  0  0  0  0  0
  141.1375   71.7110  226.1535 H   0  0  0  0  0  0  0  0  0  0  0  0
  139.2196   67.8523  226.1270 H   0  0  0  0  0  0  0  0  0  0  0  0
  138.5894   68.1556  223.7120 H   0  0  0  0  0  0  0  0  0  0  0  0
  1  2  2  0
  2  3  1  0
  3  4  1  0
  4  5  1  0
  5  6  2  0
  6  7  1  0
  7  8  2  0
  8  9  1  0
  9 10  1  0
 10 11  2  0
 10 12  1  0
 12 13  1  0
 13 14  1  0
 14 15  1  0
 15 16  1  0
 16 17  1  0
 17 18  1  0
 18 19  1  0
 15 20  1  0
 20 21  1  0
  9 22  2  0
  4 23  2  0
 23 24  1  0
 24 25  2  0
 25 26  1  0
 26 27  1  0
 26 28  2  0
 28 29  1  0
 29 30  2  0
 30  2  1  0
 22  5  1  0
 30 24  1  0
 21 12  1  0
 19 17  1  0
  3 31  1  0
  3 32  1  0
  6 33  1  0
  7 34  1  0
  8 35  1  0
 13 36  1  0
 13 37  1  0
 14 38  1  0
 14 39  1  0
 16 40  1  0
 16 41  1  0
 17 42  1  0
 18 43  1  0
 18 44  1  0
 19 45  1  0
 19 46  1  0
 20 47  1  0
 20 48  1  0
 21 49  1  0
 21 50  1  0
 22 51  1  0
 25 52  1  0
 28 53  1  0
 29 54  1  0
M  END
>  <smiles>  (37) 
O=C1CC(c2cccc(C(=O)N3CCN(CC4CC4)CC3)c2)=Nc2cc(Cl)ccc21

>  <score_type>  (37) 
oracle

>  <origin>  (37) 
autodockgpu

>  <m_score__min__energy>  (37) 
-8.7699999999999996

>  <m_primary>  (37) 
energy

>  <rmsd>  (37) 
6.196724038783192

>  <m_score__min__rmsd>  (37) 
6.196724038783192

>  <meeko>  (37) 
{"free_energy": -8.09, "intermolecular_energy": -9.28, "internal_energy": -1.18, "cluster_size": 18, "cluster_id": 2, "rank_in_cluster": 13}

>  <energy>  (37) 
-7.6

>  <cluster_rmsd>  (37) 
0.04

>  <cluster>  (37) 
4

$$$$

     RDKit          3D

 54 58  0  0  0  0  0  0  0  0999 V2000
  137.0520   73.1020  221.3470 O   0  0  0  0  0  0  0  0  0  0  0  0
  138.2740   73.1500  221.6670 C   0  0  0  0  0  0  0  0  0  0  0  0
  139.1240   74.1210  220.9610 C   0  0  0  0  0  0  0  0  0  0  0  0
  140.5370   74.0670  221.4380 C   0  0  0  0  0  0  0  0  0  0  0  0
  141.5120   74.9740  220.8380 C   0  0  0  0  0  0  0  0  0  0  0  0
  142.6720   74.4620  220.2740 C   0  0  0  0  0  0  0  0  0  0  0  0
  143.5650   75.3810  219.7150 C   0  0  0  0  0  0  0  0  0  0  0  0
  143.3190   76.7390  219.7150 C   0  0  0  0  0  0  0  0  0  0  0  0
  142.1690   77.2390  220.2730 C   0  0  0  0  0  0  0  0  0  0  0  0
  141.8110   78.6400  220.3240 C   0  0  0  0  0  0  0  0  0  0  0  0
  141.3820   79.1420  219.2240 O   0  0  0  0  0  0  0  0  0  0  0  0
  141.9060   79.4570  221.4700 N   0  0  0  0  0  0  0  0  0  0  0  0
  142.3620   79.0120  222.7660 C   0  0  0  0  0  0  0  0  0  0  0  0
  141.1930   79.0880  223.7230 C   0  0  0  0  0  0  0  0  0  0  0  0
  140.2540   80.0170  223.2680 N   0  0  0  0  0  0  0  0  0  0  0  0
  138.9280   80.0120  223.7120 C   0  0  0  0  0  0  0  0  0  0  0  0
  137.9560   79.1580  222.9570 C   0  0  0  0  0  0  0  0  0  0  0  0
  138.2550   78.7200  221.5850 C   0  0  0  0  0  0  0  0  0  0  0  0
  138.3840   77.7300  222.7380 C   0  0  0  0  0  0  0  0  0  0  0  0
  140.6570   81.1750  222.5820 C   0  0  0  0  0  0  0  0  0  0  0  0
  141.5250   80.8750  221.3650 C   0  0  0  0  0  0  0  0  0  0  0  0
  141.2880   76.3340  220.8270 C   0  0  0  0  0  0  0  0  0  0  0  0
  140.9310   73.2540  222.3640 N   0  0  0  0  0  0  0  0  0  0  0  0
  140.1370   72.3260  223.0460 C   0  0  0  0  0  0  0  0  0  0  0  0
  140.6430   71.4950  224.0250 C   0  0  0  0  0  0  0  0  0  0  0  0
  139.7920   70.6120  224.6470 C   0  0  0  0  0  0  0  0  0  0  0  0
  140.4860   69.5720  225.8900 Cl  0  0  0  0  0  0  0  0  0  0  0  0
  138.4460   70.5320  224.3200 C   0  0  0  0  0  0  0  0  0  0  0  0
  137.9220   71.3670  223.3320 C   0  0  0  0  0  0  0  0  0  0  0  0
  138.7880   72.2590  222.7080 C   0  0  0  0  0  0  0  0  0  0  0  0
  139.1024   73.8970  219.8843 H   0  0  0  0  0  0  0  0  0  0  0  0
  138.7325   75.1292  221.1618 H   0  0  0  0  0  0  0  0  0  0  0  0
  142.8795   73.3818  220.2671 H   0  0  0  0  0  0  0  0  0  0  0  0
  144.4949   75.0092  219.2599 H   0  0  0  0  0  0  0  0  0  0  0  0
  144.0503   77.4260  219.2643 H   0  0  0  0  0  0  0  0  0  0  0  0
  142.7231   77.9751  222.6991 H   0  0  0  0  0  0  0  0  0  0  0  0
  143.1879   79.6467  223.1197 H   0  0  0  0  0  0  0  0  0  0  0  0
  140.7185   78.0982  223.7957 H   0  0  0  0  0  0  0  0  0  0  0  0
  141.5592   79.4037  224.7111 H   0  0  0  0  0  0  0  0  0  0  0  0
  138.9301   79.6666  224.7564 H   0  0  0  0  0  0  0  0  0  0  0  0
  138.5751   81.0430  223.5622 H   0  0  0  0  0  0  0  0  0  0  0  0
  137.0887   79.6736  223.3952 H   0  0  0  0  0  0  0  0  0  0  0  0
  137.4403   78.6087  220.8544 H   0  0  0  0  0  0  0  0  0  0  0  0
  138.9246   79.0726  220.7867 H   0  0  0  0  0  0  0  0  0  0  0  0
  137.6595   76.9098  222.8494 H   0  0  0  0  0  0  0  0  0  0  0  0
  139.1753   77.0743  223.1304 H   0  0  0  0  0  0  0  0  0  0  0  0
  139.7588   81.7146  222.2474 H   0  0  0  0  0  0  0  0  0  0  0  0
  141.2618   81.7756  223.2774 H   0  0  0  0  0  0  0  0  0  0  0  0
  140.9568   81.0494  220.4394 H   0  0  0  0  0  0  0  0  0  0  0  0
  142.4109   81.5263  221.3349 H   0  0  0  0  0  0  0  0  0  0  0  0
  140.3621   76.7159  221.2819 H   0  0  0  0  0  0  0  0  0  0  0  0
  141.7066   71.5383  224.3023 H   0  0  0  0  0  0  0  0  0  0  0  0
  137.7941   69.8129  224.8377 H   0  0  0  0  0  0  0  0  0  0  0  0
  136.8583   71.3212  223.0556 H   0  0  0  0  0  0  0  0  0  0  0  0
  1  2  2  0
  2  3  1  0
  3  4  1  0
  4  5  1  0
  5  6  2  0
  6  7  1  0
  7  8  2  0
  8  9  1  0
  9 10  1  0
 10 11  2  0
 10 12  1  0
 12 13  1  0
 13 14  1  0
 14 15  1  0
 15 16  1  0
 16 17  1  0
 17 18  1  0
 18 19  1  0
 15 20  1  0
 20 21  1  0
  9 22  2  0
  4 23  2  0
 23 24  1  0
 24 25  2  0
 25 26  1  0
 26 27  1  0
 26 28  2  0
 28 29  1  0
 29 30  2  0
 30  2  1  0
 22  5  1  0
 30 24  1  0
 21 12  1  0
 19 17  1  0
  3 31  1  0
  3 32  1  0
  6 33  1  0
  7 34  1  0
  8 35  1  0
 13 36  1  0
 13 37  1  0
 14 38  1  0
 14 39  1  0
 16 40  1  0
 16 41  1  0
 17 42  1  0
 18 43  1  0
 18 44  1  0
 19 45  1  0
 19 46  1  0
 20 47  1  0
 20 48  1  0
 21 49  1  0
 21 50  1  0
 22 51  1  0
 25 52  1  0
 28 53  1  0
 29 54  1  0
M  END
>  <smiles>  (38) 
O=C1CC(c2cccc(C(=O)N3CCN(CC4CC4)CC3)c2)=Nc2cc(Cl)ccc21

>  <score_type>  (38) 
oracle

>  <origin>  (38) 
autodockgpu

>  <m_score__min__energy>  (38) 
-8.7699999999999996

>  <m_primary>  (38) 
energy

>  <rmsd>  (38) 
6.916059019872744

>  <m_score__min__rmsd>  (38) 
6.916059019872744

>  <meeko>  (38) 
{"free_energy": -7.55, "intermolecular_energy": -8.74, "internal_energy": -1.69, "cluster_size": 16, "cluster_id": 4, "rank_in_cluster": 13}

>  <energy>  (38) 
-7.6

>  <cluster_rmsd>  (38) 
0.1

>  <cluster>  (38) 
4

$$$$

     RDKit          3D

 54 58  0  0  0  0  0  0  0  0999 V2000
  138.5340   69.4510  221.6130 O   0  0  0  0  0  0  0  0  0  0  0  0
  139.1760   70.3460  222.2320 C   0  0  0  0  0  0  0  0  0  0  0  0
  139.5340   71.5630  221.4880 C   0  0  0  0  0  0  0  0  0  0  0  0
  140.2890   72.5300  222.3390 C   0  0  0  0  0  0  0  0  0  0  0  0
  140.7160   73.7950  221.7500 C   0  0  0  0  0  0  0  0  0  0  0  0
  141.8440   73.8310  220.9420 C   0  0  0  0  0  0  0  0  0  0  0  0
  142.2010   75.0730  220.4060 C   0  0  0  0  0  0  0  0  0  0  0  0
  141.4750   76.2180  220.6580 C   0  0  0  0  0  0  0  0  0  0  0  0
  140.3590   76.1760  221.4570 C   0  0  0  0  0  0  0  0  0  0  0  0
  139.5260   77.3130  221.7820 C   0  0  0  0  0  0  0  0  0  0  0  0
  138.8120   77.1930  222.8410 O   0  0  0  0  0  0  0  0  0  0  0  0
  139.4530   78.5030  221.0280 N   0  0  0  0  0  0  0  0  0  0  0  0
  140.2090   78.7660  219.8260 C   0  0  0  0  0  0  0  0  0  0  0  0
  141.1760   79.8930  220.1210 C   0  0  0  0  0  0  0  0  0  0  0  0
  140.7080   80.6660  221.1870 N   0  0  0  0  0  0  0  0  0  0  0  0
  141.5500   81.5040  221.9240 C   0  0  0  0  0  0  0  0  0  0  0  0
  142.0970   80.9650  223.2100 C   0  0  0  0  0  0  0  0  0  0  0  0
  141.5280   79.7490  223.8120 C   0  0  0  0  0  0  0  0  0  0  0  0
  142.8730   79.6790  223.0960 C   0  0  0  0  0  0  0  0  0  0  0  0
  139.3320   80.8710  221.3810 C   0  0  0  0  0  0  0  0  0  0  0  0
  138.5410   79.5700  221.4690 C   0  0  0  0  0  0  0  0  0  0  0  0
  140.0070   74.9530  221.9880 C   0  0  0  0  0  0  0  0  0  0  0  0
  140.5740   72.2930  223.5790 N   0  0  0  0  0  0  0  0  0  0  0  0
  140.2400   71.1430  224.3020 C   0  0  0  0  0  0  0  0  0  0  0  0
  140.5860   70.9740  225.6280 C   0  0  0  0  0  0  0  0  0  0  0  0
  140.2170   69.8120  226.2640 C   0  0  0  0  0  0  0  0  0  0  0  0
  140.6820   69.6440  227.9560 Cl  0  0  0  0  0  0  0  0  0  0  0  0
  139.5120   68.8080  225.6140 C   0  0  0  0  0  0  0  0  0  0  0  0
  139.1570   68.9670  224.2750 C   0  0  0  0  0  0  0  0  0  0  0  0
  139.5320   70.1450  223.6370 C   0  0  0  0  0  0  0  0  0  0  0  0
  140.1585   71.2833  220.6268 H   0  0  0  0  0  0  0  0  0  0  0  0
  138.6037   72.0497  221.1597 H   0  0  0  0  0  0  0  0  0  0  0  0
  142.4305   72.9243  220.7326 H   0  0  0  0  0  0  0  0  0  0  0  0
  143.0905   75.1383  219.7621 H   0  0  0  0  0  0  0  0  0  0  0  0
  141.7927   77.1735  220.2151 H   0  0  0  0  0  0  0  0  0  0  0  0
  140.7652   77.8644  219.5296 H   0  0  0  0  0  0  0  0  0  0  0  0
  139.5348   79.0455  219.0030 H   0  0  0  0  0  0  0  0  0  0  0  0
  142.1573   79.4703  220.3824 H   0  0  0  0  0  0  0  0  0  0  0  0
  141.2662   80.5303  219.2289 H   0  0  0  0  0  0  0  0  0  0  0  0
  142.4057   81.7608  221.2822 H   0  0  0  0  0  0  0  0  0  0  0  0
  140.9169   82.3538  222.2191 H   0  0  0  0  0  0  0  0  0  0  0  0
  142.2778   81.9732  223.6110 H   0  0  0  0  0  0  0  0  0  0  0  0
  141.4826   79.6476  224.9064 H   0  0  0  0  0  0  0  0  0  0  0  0
  140.5719   79.2127  223.7214 H   0  0  0  0  0  0  0  0  0  0  0  0
  143.8008   79.5376  223.6697 H   0  0  0  0  0  0  0  0  0  0  0  0
  143.2994   79.0850  222.2742 H   0  0  0  0  0  0  0  0  0  0  0  0
  139.1898   81.4314  222.3168 H   0  0  0  0  0  0  0  0  0  0  0  0
  138.9563   81.4255  220.5085 H   0  0  0  0  0  0  0  0  0  0  0  0
  138.2169   79.3904  222.5047 H   0  0  0  0  0  0  0  0  0  0  0  0
  137.6371   79.6080  220.8433 H   0  0  0  0  0  0  0  0  0  0  0  0
  139.1174   74.8988  222.6327 H   0  0  0  0  0  0  0  0  0  0  0  0
  141.1459   71.7537  226.1652 H   0  0  0  0  0  0  0  0  0  0  0  0
  139.2345   67.8904  226.1534 H   0  0  0  0  0  0  0  0  0  0  0  0
  138.5979   68.1854  223.7398 H   0  0  0  0  0  0  0  0  0  0  0  0
  1  2  2  0
  2  3  1  0
  3  4  1  0
  4  5  1  0
  5  6  2  0
  6  7  1  0
  7  8  2  0
  8  9  1  0
  9 10  1  0
 10 11  2  0
 10 12  1  0
 12 13  1  0
 13 14  1  0
 14 15  1  0
 15 16  1  0
 16 17  1  0
 17 18  1  0
 18 19  1  0
 15 20  1  0
 20 21  1  0
  9 22  2  0
  4 23  2  0
 23 24  1  0
 24 25  2  0
 25 26  1  0
 26 27  1  0
 26 28  2  0
 28 29  1  0
 29 30  2  0
 30  2  1  0
 22  5  1  0
 30 24  1  0
 21 12  1  0
 19 17  1  0
  3 31  1  0
  3 32  1  0
  6 33  1  0
  7 34  1  0
  8 35  1  0
 13 36  1  0
 13 37  1  0
 14 38  1  0
 14 39  1  0
 16 40  1  0
 16 41  1  0
 17 42  1  0
 18 43  1  0
 18 44  1  0
 19 45  1  0
 19 46  1  0
 20 47  1  0
 20 48  1  0
 21 49  1  0
 21 50  1  0
 22 51  1  0
 25 52  1  0
 28 53  1  0
 29 54  1  0
M  END
>  <smiles>  (39) 
O=C1CC(c2cccc(C(=O)N3CCN(CC4CC4)CC3)c2)=Nc2cc(Cl)ccc21

>  <score_type>  (39) 
oracle

>  <origin>  (39) 
autodockgpu

>  <m_score__min__energy>  (39) 
-8.7699999999999996

>  <m_primary>  (39) 
energy

>  <rmsd>  (39) 
6.195080304146725

>  <m_score__min__rmsd>  (39) 
6.195080304146725

>  <meeko>  (39) 
{"free_energy": -8.04, "intermolecular_energy": -9.24, "internal_energy": -1.19, "cluster_size": 18, "cluster_id": 2, "rank_in_cluster": 16}

>  <energy>  (39) 
-7.6

>  <cluster_rmsd>  (39) 
0.08

>  <cluster>  (39) 
4

$$$$

     RDKit          3D

 54 58  0  0  0  0  0  0  0  0999 V2000
  137.1900   77.3560  222.2750 O   0  0  0  0  0  0  0  0  0  0  0  0
  138.4180   77.0590  222.2850 C   0  0  0  0  0  0  0  0  0  0  0  0
  138.7890   75.6890  221.8970 C   0  0  0  0  0  0  0  0  0  0  0  0
  140.2660   75.4790  221.9550 C   0  0  0  0  0  0  0  0  0  0  0  0
  140.8000   74.1680  221.5950 C   0  0  0  0  0  0  0  0  0  0  0  0
  141.9780   74.0840  220.8660 C   0  0  0  0  0  0  0  0  0  0  0  0
  142.4390   72.8000  220.5530 C   0  0  0  0  0  0  0  0  0  0  0  0
  141.7660   71.6620  220.9450 C   0  0  0  0  0  0  0  0  0  0  0  0
  140.6020   71.7530  221.6670 C   0  0  0  0  0  0  0  0  0  0  0  0
  139.8210   70.6260  222.1300 C   0  0  0  0  0  0  0  0  0  0  0  0
  139.6350   69.6910  221.2720 O   0  0  0  0  0  0  0  0  0  0  0  0
  139.2710   70.5020  223.4230 N   0  0  0  0  0  0  0  0  0  0  0  0
  139.4160   71.4760  224.4790 C   0  0  0  0  0  0  0  0  0  0  0  0
  140.2420   70.8480  225.5810 C   0  0  0  0  0  0  0  0  0  0  0  0
  140.1490   69.4550  225.5230 N   0  0  0  0  0  0  0  0  0  0  0  0
  141.0890   68.6210  226.1360 C   0  0  0  0  0  0  0  0  0  0  0  0
  140.7220   68.0380  227.4660 C   0  0  0  0  0  0  0  0  0  0  0  0
  141.3840   68.5050  228.6950 C   0  0  0  0  0  0  0  0  0  0  0  0
  139.9590   68.9540  228.3870 C   0  0  0  0  0  0  0  0  0  0  0  0
  138.9620   68.8270  225.1110 C   0  0  0  0  0  0  0  0  0  0  0  0
  138.4780   69.3050  223.7460 C   0  0  0  0  0  0  0  0  0  0  0  0
  140.1450   73.0170  221.9750 C   0  0  0  0  0  0  0  0  0  0  0  0
  141.0900   76.4120  222.3070 N   0  0  0  0  0  0  0  0  0  0  0  0
  140.7550   77.7190  222.6770 C   0  0  0  0  0  0  0  0  0  0  0  0
  141.7050   78.6530  223.0390 C   0  0  0  0  0  0  0  0  0  0  0  0
  141.2890   79.9170  223.3880 C   0  0  0  0  0  0  0  0  0  0  0  0
  142.5390   81.0740  223.8420 Cl  0  0  0  0  0  0  0  0  0  0  0  0
  139.9490   80.2770  223.3880 C   0  0  0  0  0  0  0  0  0  0  0  0
  138.9800   79.3410  223.0250 C   0  0  0  0  0  0  0  0  0  0  0  0
  139.4070   78.0660  222.6720 C   0  0  0  0  0  0  0  0  0  0  0  0
  138.3010   74.9801  222.5821 H   0  0  0  0  0  0  0  0  0  0  0  0
  138.4601   75.5255  220.8602 H   0  0  0  0  0  0  0  0  0  0  0  0
  142.5240   74.9847  220.5489 H   0  0  0  0  0  0  0  0  0  0  0  0
  143.3691   72.6952  219.9751 H   0  0  0  0  0  0  0  0  0  0  0  0
  142.1654   70.6728  220.6768 H   0  0  0  0  0  0  0  0  0  0  0  0
  139.9257   72.3716  224.0940 H   0  0  0  0  0  0  0  0  0  0  0  0
  138.4294   71.7750  224.8626 H   0  0  0  0  0  0  0  0  0  0  0  0
  141.2939   71.1467  225.4612 H   0  0  0  0  0  0  0  0  0  0  0  0
  139.8610   71.1918  226.5539 H   0  0  0  0  0  0  0  0  0  0  0  0
  141.2855   67.7836  225.4504 H   0  0  0  0  0  0  0  0  0  0  0  0
  141.9538   69.2696  226.3394 H   0  0  0  0  0  0  0  0  0  0  0  0
  140.5782   67.0342  227.0397 H   0  0  0  0  0  0  0  0  0  0  0  0
  141.5719   67.8010  229.5190 H   0  0  0  0  0  0  0  0  0  0  0  0
  142.3290   69.0215  228.9192 H   0  0  0  0  0  0  0  0  0  0  0  0
  139.1154   68.5693  228.9790 H   0  0  0  0  0  0  0  0  0  0  0  0
  139.4399   69.9187  228.2878 H   0  0  0  0  0  0  0  0  0  0  0  0
  139.1385   67.7424  225.0603 H   0  0  0  0  0  0  0  0  0  0  0  0
  138.1829   69.0823  225.8444 H   0  0  0  0  0  0  0  0  0  0  0  0
  138.6415   68.5240  222.9889 H   0  0  0  0  0  0  0  0  0  0  0  0
  137.4014   69.5301  223.7597 H   0  0  0  0  0  0  0  0  0  0  0  0
  139.2130   73.1109  222.5516 H   0  0  0  0  0  0  0  0  0  0  0  0
  142.7735   78.3917  223.0482 H   0  0  0  0  0  0  0  0  0  0  0  0
  139.6516   81.2969  223.6732 H   0  0  0  0  0  0  0  0  0  0  0  0
  137.9118   79.6037  223.0183 H   0  0  0  0  0  0  0  0  0  0  0  0
  1  2  2  0
  2  3  1  0
  3  4  1  0
  4  5  1  0
  5  6  2  0
  6  7  1  0
  7  8  2  0
  8  9  1  0
  9 10  1  0
 10 11  2  0
 10 12  1  0
 12 13  1  0
 13 14  1  0
 14 15  1  0
 15 16  1  0
 16 17  1  0
 17 18  1  0
 18 19  1  0
 15 20  1  0
 20 21  1  0
  9 22  2  0
  4 23  2  0
 23 24  1  0
 24 25  2  0
 25 26  1  0
 26 27  1  0
 26 28  2  0
 28 29  1  0
 29 30  2  0
 30  2  1  0
 22  5  1  0
 30 24  1  0
 21 12  1  0
 19 17  1  0
  3 31  1  0
  3 32  1  0
  6 33  1  0
  7 34  1  0
  8 35  1  0
 13 36  1  0
 13 37  1  0
 14 38  1  0
 14 39  1  0
 16 40  1  0
 16 41  1  0
 17 42  1  0
 18 43  1  0
 18 44  1  0
 19 45  1  0
 19 46  1  0
 20 47  1  0
 20 48  1  0
 21 49  1  0
 21 50  1  0
 22 51  1  0
 25 52  1  0
 28 53  1  0
 29 54  1  0
M  END
>  <smiles>  (40) 
O=C1CC(c2cccc(C(=O)N3CCN(CC4CC4)CC3)c2)=Nc2cc(Cl)ccc21

>  <score_type>  (40) 
oracle

>  <origin>  (40) 
autodockgpu

>  <m_score__min__energy>  (40) 
-8.7699999999999996

>  <m_primary>  (40) 
energy

>  <rmsd>  (40) 
8.897629006815055

>  <m_score__min__rmsd>  (40) 
8.897629006815055

>  <meeko>  (40) 
{"free_energy": -8.75, "intermolecular_energy": -9.95, "internal_energy": -0.91, "cluster_size": 14, "cluster_id": 1, "rank_in_cluster": 2}

>  <energy>  (40) 
-7.6

>  <cluster_rmsd>  (40) 
0.07

>  <cluster>  (40) 
4

$$$$

     RDKit          3D

 54 58  0  0  0  0  0  0  0  0999 V2000
  138.2840   68.9430  222.1120 O   0  0  0  0  0  0  0  0  0  0  0  0
  139.0430   69.8050  222.6400 C   0  0  0  0  0  0  0  0  0  0  0  0
  139.4780   70.9320  221.8000 C   0  0  0  0  0  0  0  0  0  0  0  0
  140.3680   71.8680  222.5500 C   0  0  0  0  0  0  0  0  0  0  0  0
  140.8850   73.0450  221.8580 C   0  0  0  0  0  0  0  0  0  0  0  0
  142.0360   72.9400  221.0900 C   0  0  0  0  0  0  0  0  0  0  0  0
  142.4800   74.1030  220.4510 C   0  0  0  0  0  0  0  0  0  0  0  0
  141.8160   75.3060  220.5690 C   0  0  0  0  0  0  0  0  0  0  0  0
  140.6770   75.4030  221.3300 C   0  0  0  0  0  0  0  0  0  0  0  0
  139.9030   76.6100  221.5180 C   0  0  0  0  0  0  0  0  0  0  0  0
  139.1170   76.6130  222.5320 O   0  0  0  0  0  0  0  0  0  0  0  0
  139.9580   77.7440  220.6790 N   0  0  0  0  0  0  0  0  0  0  0  0
  140.8050   77.8700  219.5160 C   0  0  0  0  0  0  0  0  0  0  0  0
  141.8240   78.9530  219.7970 C   0  0  0  0  0  0  0  0  0  0  0  0
  141.3420   79.8300  220.7730 N   0  0  0  0  0  0  0  0  0  0  0  0
  142.1900   80.6660  221.5050 C   0  0  0  0  0  0  0  0  0  0  0  0
  142.8230   80.0910  222.7350 C   0  0  0  0  0  0  0  0  0  0  0  0
  142.6230   80.7290  224.0460 C   0  0  0  0  0  0  0  0  0  0  0  0
  141.8730   79.4440  223.7100 C   0  0  0  0  0  0  0  0  0  0  0  0
  139.9730   80.1340  220.8580 C   0  0  0  0  0  0  0  0  0  0  0  0
  139.0930   78.8950  220.9830 C   0  0  0  0  0  0  0  0  0  0  0  0
  140.2380   74.2580  221.9620 C   0  0  0  0  0  0  0  0  0  0  0  0
  140.6930   71.6800  223.7880 N   0  0  0  0  0  0  0  0  0  0  0  0
  140.2870   70.6160  224.6000 C   0  0  0  0  0  0  0  0  0  0  0  0
  140.6840   70.4950  225.9170 C   0  0  0  0  0  0  0  0  0  0  0  0
  140.2380   69.4170  226.6450 C   0  0  0  0  0  0  0  0  0  0  0  0
  140.7720   69.3080  228.3220 Cl  0  0  0  0  0  0  0  0  0  0  0  0
  139.4040   68.4520  226.0970 C   0  0  0  0  0  0  0  0  0  0  0  0
  138.9960   68.5640  224.7680 C   0  0  0  0  0  0  0  0  0  0  0  0
  139.4500   69.6560  224.0370 C   0  0  0  0  0  0  0  0  0  0  0  0
  140.0258   70.5385  220.9310 H   0  0  0  0  0  0  0  0  0  0  0  0
  138.5839   71.4887  221.4829 H   0  0  0  0  0  0  0  0  0  0  0  0
  142.5746   71.9863  220.9882 H   0  0  0  0  0  0  0  0  0  0  0  0
  143.3893   74.0562  219.8338 H   0  0  0  0  0  0  0  0  0  0  0  0
  142.2020   76.1953  220.0492 H   0  0  0  0  0  0  0  0  0  0  0  0
  141.3174   76.9162  219.3219 H   0  0  0  0  0  0  0  0  0  0  0  0
  140.2047   78.1293  218.6314 H   0  0  0  0  0  0  0  0  0  0  0  0
  142.7564   78.4906  220.1530 H   0  0  0  0  0  0  0  0  0  0  0  0
  142.0128   79.5162  218.8711 H   0  0  0  0  0  0  0  0  0  0  0  0
  143.0009   80.9848  220.8336 H   0  0  0  0  0  0  0  0  0  0  0  0
  141.5425   81.4763  221.8715 H   0  0  0  0  0  0  0  0  0  0  0  0
  143.7302   79.7948  222.1880 H   0  0  0  0  0  0  0  0  0  0  0  0
  143.4306   80.7141  224.7927 H   0  0  0  0  0  0  0  0  0  0  0  0
  142.3282   81.7338  224.3828 H   0  0  0  0  0  0  0  0  0  0  0  0
  142.1424   78.4986  224.2035 H   0  0  0  0  0  0  0  0  0  0  0  0
  140.8200   79.1264  223.6930 H   0  0  0  0  0  0  0  0  0  0  0  0
  139.8096   80.7702  221.7403 H   0  0  0  0  0  0  0  0  0  0  0  0
  139.6913   80.6443  219.9252 H   0  0  0  0  0  0  0  0  0  0  0  0
  138.6937   78.8125  222.0047 H   0  0  0  0  0  0  0  0  0  0  0  0
  138.2342   78.9428  220.2974 H   0  0  0  0  0  0  0  0  0  0  0  0
  139.3286   74.3156  222.5782 H   0  0  0  0  0  0  0  0  0  0  0  0
  141.3442   71.2463  226.3749 H   0  0  0  0  0  0  0  0  0  0  0  0
  139.0663   67.6023  226.7085 H   0  0  0  0  0  0  0  0  0  0  0  0
  138.3355   67.8116  224.3123 H   0  0  0  0  0  0  0  0  0  0  0  0
  1  2  2  0
  2  3  1  0
  3  4  1  0
  4  5  1  0
  5  6  2  0
  6  7  1  0
  7  8  2  0
  8  9  1  0
  9 10  1  0
 10 11  2  0
 10 12  1  0
 12 13  1  0
 13 14  1  0
 14 15  1  0
 15 16  1  0
 16 17  1  0
 17 18  1  0
 18 19  1  0
 15 20  1  0
 20 21  1  0
  9 22  2  0
  4 23  2  0
 23 24  1  0
 24 25  2  0
 25 26  1  0
 26 27  1  0
 26 28  2  0
 28 29  1  0
 29 30  2  0
 30  2  1  0
 22  5  1  0
 30 24  1  0
 21 12  1  0
 19 17  1  0
  3 31  1  0
  3 32  1  0
  6 33  1  0
  7 34  1  0
  8 35  1  0
 13 36  1  0
 13 37  1  0
 14 38  1  0
 14 39  1  0
 16 40  1  0
 16 41  1  0
 17 42  1  0
 18 43  1  0
 18 44  1  0
 19 45  1  0
 19 46  1  0
 20 47  1  0
 20 48  1  0
 21 49  1  0
 21 50  1  0
 22 51  1  0
 25 52  1  0
 28 53  1  0
 29 54  1  0
M  END
>  <smiles>  (41) 
O=C1CC(c2cccc(C(=O)N3CCN(CC4CC4)CC3)c2)=Nc2cc(Cl)ccc21

>  <score_type>  (41) 
oracle

>  <origin>  (41) 
autodockgpu

>  <m_score__min__energy>  (41) 
-8.7699999999999996

>  <m_primary>  (41) 
energy

>  <rmsd>  (41) 
5.728924110822056

>  <m_score__min__rmsd>  (41) 
5.728924110822056

>  <meeko>  (41) 
{"free_energy": -8.26, "intermolecular_energy": -9.45, "internal_energy": -1.02, "cluster_size": 18, "cluster_id": 2, "rank_in_cluster": 1}

>  <energy>  (41) 
-7.59

>  <cluster_rmsd>  (41) 
0.11

>  <cluster>  (41) 
4

$$$$

     RDKit          3D

 54 58  0  0  0  0  0  0  0  0999 V2000
  137.1460   77.2360  222.3790 O   0  0  0  0  0  0  0  0  0  0  0  0
  138.3830   76.9790  222.3530 C   0  0  0  0  0  0  0  0  0  0  0  0
  138.7870   75.6270  221.9380 C   0  0  0  0  0  0  0  0  0  0  0  0
  140.2710   75.4640  221.9540 C   0  0  0  0  0  0  0  0  0  0  0  0
  140.8370   74.1760  221.5630 C   0  0  0  0  0  0  0  0  0  0  0  0
  142.0200   74.1370  220.8370 C   0  0  0  0  0  0  0  0  0  0  0  0
  142.5120   72.8740  220.4940 C   0  0  0  0  0  0  0  0  0  0  0  0
  141.8640   71.7100  220.8530 C   0  0  0  0  0  0  0  0  0  0  0  0
  140.6950   71.7550  221.5720 C   0  0  0  0  0  0  0  0  0  0  0  0
  139.9390   70.5990  222.0030 C   0  0  0  0  0  0  0  0  0  0  0  0
  139.8460   69.6480  221.1470 O   0  0  0  0  0  0  0  0  0  0  0  0
  139.3190   70.4630  223.2620 N   0  0  0  0  0  0  0  0  0  0  0  0
  139.3570   71.4540  224.3130 C   0  0  0  0  0  0  0  0  0  0  0  0
  140.1430   70.8750  225.4700 C   0  0  0  0  0  0  0  0  0  0  0  0
  140.1160   69.4790  225.4240 N   0  0  0  0  0  0  0  0  0  0  0  0
  141.0540   68.6940  226.1030 C   0  0  0  0  0  0  0  0  0  0  0  0
  140.6290   68.0940  227.4070 C   0  0  0  0  0  0  0  0  0  0  0  0
  141.3060   68.4690  228.6580 C   0  0  0  0  0  0  0  0  0  0  0  0
  139.9210   69.0310  228.3510 C   0  0  0  0  0  0  0  0  0  0  0  0
  138.9850   68.7940  224.9500 C   0  0  0  0  0  0  0  0  0  0  0  0
  138.5620   69.2350  223.5530 C   0  0  0  0  0  0  0  0  0  0  0  0
  140.2070   73.0000  221.9100 C   0  0  0  0  0  0  0  0  0  0  0  0
  141.0740   76.4190  222.2950 N   0  0  0  0  0  0  0  0  0  0  0  0
  140.7070   77.7100  222.6910 C   0  0  0  0  0  0  0  0  0  0  0  0
  141.6350   78.6710  223.0390 C   0  0  0  0  0  0  0  0  0  0  0  0
  141.1890   79.9150  223.4150 C   0  0  0  0  0  0  0  0  0  0  0  0
  142.4130   81.1070  223.8500 Cl  0  0  0  0  0  0  0  0  0  0  0  0
  139.8380   80.2320  223.4560 C   0  0  0  0  0  0  0  0  0  0  0  0
  138.8900   79.2690  223.1070 C   0  0  0  0  0  0  0  0  0  0  0  0
  139.3480   78.0130  222.7260 C   0  0  0  0  0  0  0  0  0  0  0  0
  138.3406   74.8946  222.6267 H   0  0  0  0  0  0  0  0  0  0  0  0
  138.4357   75.4654  220.9082 H   0  0  0  0  0  0  0  0  0  0  0  0
  142.5461   75.0578  220.5450 H   0  0  0  0  0  0  0  0  0  0  0  0
  143.4471   72.8061  219.9186 H   0  0  0  0  0  0  0  0  0  0  0  0
  142.2874   70.7377  220.5608 H   0  0  0  0  0  0  0  0  0  0  0  0
  139.8483   72.3678  223.9475 H   0  0  0  0  0  0  0  0  0  0  0  0
  138.3369   71.7119  224.6336 H   0  0  0  0  0  0  0  0  0  0  0  0
  141.1857   71.2200  225.4091 H   0  0  0  0  0  0  0  0  0  0  0  0
  139.6896   71.2108  226.4143 H   0  0  0  0  0  0  0  0  0  0  0  0
  141.3386   67.8672  225.4356 H   0  0  0  0  0  0  0  0  0  0  0  0
  141.8686   69.3864  226.3618 H   0  0  0  0  0  0  0  0  0  0  0  0
  140.4195   67.1183  226.9443 H   0  0  0  0  0  0  0  0  0  0  0  0
  141.4316   67.7252  229.4586 H   0  0  0  0  0  0  0  0  0  0  0  0
  142.2828   68.9075  228.9103 H   0  0  0  0  0  0  0  0  0  0  0  0
  139.0440   68.6884  228.9198 H   0  0  0  0  0  0  0  0  0  0  0  0
  139.4740   70.0336  228.2803 H   0  0  0  0  0  0  0  0  0  0  0  0
  139.2125   67.7181  224.9238 H   0  0  0  0  0  0  0  0  0  0  0  0
  138.1529   69.0219  225.6325 H   0  0  0  0  0  0  0  0  0  0  0  0
  138.8047   68.4543  222.8171 H   0  0  0  0  0  0  0  0  0  0  0  0
  137.4775   69.4112  223.5000 H   0  0  0  0  0  0  0  0  0  0  0  0
  139.2703   73.0572  222.4839 H   0  0  0  0  0  0  0  0  0  0  0  0
  142.7113   78.4450  223.0157 H   0  0  0  0  0  0  0  0  0  0  0  0
  139.5160   81.2382  223.7623 H   0  0  0  0  0  0  0  0  0  0  0  0
  137.8141   79.4967  223.1326 H   0  0  0  0  0  0  0  0  0  0  0  0
  1  2  2  0
  2  3  1  0
  3  4  1  0
  4  5  1  0
  5  6  2  0
  6  7  1  0
  7  8  2  0
  8  9  1  0
  9 10  1  0
 10 11  2  0
 10 12  1  0
 12 13  1  0
 13 14  1  0
 14 15  1  0
 15 16  1  0
 16 17  1  0
 17 18  1  0
 18 19  1  0
 15 20  1  0
 20 21  1  0
  9 22  2  0
  4 23  2  0
 23 24  1  0
 24 25  2  0
 25 26  1  0
 26 27  1  0
 26 28  2  0
 28 29  1  0
 29 30  2  0
 30  2  1  0
 22  5  1  0
 30 24  1  0
 21 12  1  0
 19 17  1  0
  3 31  1  0
  3 32  1  0
  6 33  1  0
  7 34  1  0
  8 35  1  0
 13 36  1  0
 13 37  1  0
 14 38  1  0
 14 39  1  0
 16 40  1  0
 16 41  1  0
 17 42  1  0
 18 43  1  0
 18 44  1  0
 19 45  1  0
 19 46  1  0
 20 47  1  0
 20 48  1  0
 21 49  1  0
 21 50  1  0
 22 51  1  0
 25 52  1  0
 28 53  1  0
 29 54  1  0
M  END
>  <smiles>  (42) 
O=C1CC(c2cccc(C(=O)N3CCN(CC4CC4)CC3)c2)=Nc2cc(Cl)ccc21

>  <score_type>  (42) 
oracle

>  <origin>  (42) 
autodockgpu

>  <m_score__min__energy>  (42) 
-8.7699999999999996

>  <m_primary>  (42) 
energy

>  <rmsd>  (42) 
8.834350718758852

>  <m_score__min__rmsd>  (42) 
8.834350718758852

>  <meeko>  (42) 
{"free_energy": -8.77, "intermolecular_energy": -9.96, "internal_energy": -0.89, "cluster_size": 14, "cluster_id": 1, "rank_in_cluster": 1}

>  <energy>  (42) 
-7.59

>  <cluster_rmsd>  (42) 
0.11

>  <cluster>  (42) 
4

$$$$

     RDKit          3D

 54 58  0  0  0  0  0  0  0  0999 V2000
  137.9030   69.1520  222.4000 O   0  0  0  0  0  0  0  0  0  0  0  0
  138.7770   69.9440  222.8530 C   0  0  0  0  0  0  0  0  0  0  0  0
  139.2020   71.0540  221.9860 C   0  0  0  0  0  0  0  0  0  0  0  0
  140.2350   71.9060  222.6460 C   0  0  0  0  0  0  0  0  0  0  0  0
  140.7610   73.0570  221.9180 C   0  0  0  0  0  0  0  0  0  0  0  0
  141.9270   72.9270  221.1760 C   0  0  0  0  0  0  0  0  0  0  0  0
  142.3780   74.0660  220.5000 C   0  0  0  0  0  0  0  0  0  0  0  0
  141.7070   75.2700  220.5580 C   0  0  0  0  0  0  0  0  0  0  0  0
  140.5540   75.3910  221.2930 C   0  0  0  0  0  0  0  0  0  0  0  0
  139.7720   76.6020  221.4190 C   0  0  0  0  0  0  0  0  0  0  0  0
  138.9240   76.6160  222.3810 O   0  0  0  0  0  0  0  0  0  0  0  0
  139.8830   77.7260  220.5740 N   0  0  0  0  0  0  0  0  0  0  0  0
  140.8020   77.8390  219.4660 C   0  0  0  0  0  0  0  0  0  0  0  0
  141.8040   78.9240  219.7990 C   0  0  0  0  0  0  0  0  0  0  0  0
  141.2620   79.8110  220.7330 N   0  0  0  0  0  0  0  0  0  0  0  0
  142.0640   80.6540  221.5090 C   0  0  0  0  0  0  0  0  0  0  0  0
  142.7520   80.0450  222.6920 C   0  0  0  0  0  0  0  0  0  0  0  0
  142.6080   80.6440  224.0290 C   0  0  0  0  0  0  0  0  0  0  0  0
  141.8470   79.3660  223.6880 C   0  0  0  0  0  0  0  0  0  0  0  0
  139.8920   80.1190  220.7280 C   0  0  0  0  0  0  0  0  0  0  0  0
  139.0030   78.8820  220.8100 C   0  0  0  0  0  0  0  0  0  0  0  0
  140.1080   74.2700  221.9620 C   0  0  0  0  0  0  0  0  0  0  0  0
  140.6790   71.6680  223.8380 N   0  0  0  0  0  0  0  0  0  0  0  0
  140.2850   70.6180  224.6760 C   0  0  0  0  0  0  0  0  0  0  0  0
  140.8130   70.4390  225.9380 C   0  0  0  0  0  0  0  0  0  0  0  0
  140.3690   69.3820  226.6970 C   0  0  0  0  0  0  0  0  0  0  0  0
  141.0730   69.1960  228.3020 Cl  0  0  0  0  0  0  0  0  0  0  0  0
  139.4110   68.4920  226.2300 C   0  0  0  0  0  0  0  0  0  0  0  0
  138.8700   68.6620  224.9550 C   0  0  0  0  0  0  0  0  0  0  0  0
  139.3220   69.7350  224.1940 C   0  0  0  0  0  0  0  0  0  0  0  0
  139.6216   70.6403  221.0571 H   0  0  0  0  0  0  0  0  0  0  0  0
  138.3230   71.6813  221.7765 H   0  0  0  0  0  0  0  0  0  0  0  0
  142.4713   71.9726  221.1220 H   0  0  0  0  0  0  0  0  0  0  0  0
  143.2988   73.9992  219.9020 H   0  0  0  0  0  0  0  0  0  0  0  0
  142.0991   76.1400  220.0109 H   0  0  0  0  0  0  0  0  0  0  0  0
  141.3238   76.8825  219.3146 H   0  0  0  0  0  0  0  0  0  0  0  0
  140.2590   78.0901  218.5429 H   0  0  0  0  0  0  0  0  0  0  0  0
  142.7113   78.4645  220.2181 H   0  0  0  0  0  0  0  0  0  0  0  0
  142.0528   79.4769  218.8812 H   0  0  0  0  0  0  0  0  0  0  0  0
  142.8418   81.0689  220.8511 H   0  0  0  0  0  0  0  0  0  0  0  0
  141.3699   81.3939  221.9341 H   0  0  0  0  0  0  0  0  0  0  0  0
  143.6351   79.7681  222.0975 H   0  0  0  0  0  0  0  0  0  0  0  0
  143.4474   80.6103  224.7391 H   0  0  0  0  0  0  0  0  0  0  0  0
  142.3258   81.6374  224.4078 H   0  0  0  0  0  0  0  0  0  0  0  0
  142.1401   78.4075  224.1412 H   0  0  0  0  0  0  0  0  0  0  0  0
  140.7950   79.0451  223.7075 H   0  0  0  0  0  0  0  0  0  0  0  0
  139.6747   80.7648  221.5916 H   0  0  0  0  0  0  0  0  0  0  0  0
  139.6709   80.6207  219.7744 H   0  0  0  0  0  0  0  0  0  0  0  0
  138.5394   78.8112  221.8050 H   0  0  0  0  0  0  0  0  0  0  0  0
  138.1898   78.9237  220.0704 H   0  0  0  0  0  0  0  0  0  0  0  0
  139.1874   74.3479  222.5590 H   0  0  0  0  0  0  0  0  0  0  0  0
  141.5749   71.1290  226.3296 H   0  0  0  0  0  0  0  0  0  0  0  0
  139.0796   67.6557  226.8630 H   0  0  0  0  0  0  0  0  0  0  0  0
  138.1101   67.9694  224.5641 H   0  0  0  0  0  0  0  0  0  0  0  0
  1  2  2  0
  2  3  1  0
  3  4  1  0
  4  5  1  0
  5  6  2  0
  6  7  1  0
  7  8  2  0
  8  9  1  0
  9 10  1  0
 10 11  2  0
 10 12  1  0
 12 13  1  0
 13 14  1  0
 14 15  1  0
 15 16  1  0
 16 17  1  0
 17 18  1  0
 18 19  1  0
 15 20  1  0
 20 21  1  0
  9 22  2  0
  4 23  2  0
 23 24  1  0
 24 25  2  0
 25 26  1  0
 26 27  1  0
 26 28  2  0
 28 29  1  0
 29 30  2  0
 30  2  1  0
 22  5  1  0
 30 24  1  0
 21 12  1  0
 19 17  1  0
  3 31  1  0
  3 32  1  0
  6 33  1  0
  7 34  1  0
  8 35  1  0
 13 36  1  0
 13 37  1  0
 14 38  1  0
 14 39  1  0
 16 40  1  0
 16 41  1  0
 17 42  1  0
 18 43  1  0
 18 44  1  0
 19 45  1  0
 19 46  1  0
 20 47  1  0
 20 48  1  0
 21 49  1  0
 21 50  1  0
 22 51  1  0
 25 52  1  0
 28 53  1  0
 29 54  1  0
M  END
>  <smiles>  (43) 
O=C1CC(c2cccc(C(=O)N3CCN(CC4CC4)CC3)c2)=Nc2cc(Cl)ccc21

>  <score_type>  (43) 
oracle

>  <origin>  (43) 
autodockgpu

>  <m_score__min__energy>  (43) 
-8.7699999999999996

>  <m_primary>  (43) 
energy

>  <rmsd>  (43) 
5.685956459329576

>  <m_score__min__rmsd>  (43) 
5.685956459329576

>  <meeko>  (43) 
{"free_energy": -8.24, "intermolecular_energy": -9.43, "internal_energy": -1.0, "cluster_size": 18, "cluster_id": 2, "rank_in_cluster": 2}

>  <energy>  (43) 
-7.59

>  <cluster_rmsd>  (43) 
0.07

>  <cluster>  (43) 
4

$$$$

     RDKit          3D

 54 58  0  0  0  0  0  0  0  0999 V2000
  137.1290   77.1840  222.4360 O   0  0  0  0  0  0  0  0  0  0  0  0
  138.3730   76.9680  222.3890 C   0  0  0  0  0  0  0  0  0  0  0  0
  138.8150   75.6310  221.9640 C   0  0  0  0  0  0  0  0  0  0  0  0
  140.3030   75.5170  221.9560 C   0  0  0  0  0  0  0  0  0  0  0  0
  140.9060   74.2500  221.5520 C   0  0  0  0  0  0  0  0  0  0  0  0
  142.1370   74.2480  220.9100 C   0  0  0  0  0  0  0  0  0  0  0  0
  142.6620   73.0030  220.5500 C   0  0  0  0  0  0  0  0  0  0  0  0
  142.0000   71.8220  220.8130 C   0  0  0  0  0  0  0  0  0  0  0  0
  140.7830   71.8300  221.4490 C   0  0  0  0  0  0  0  0  0  0  0  0
  140.0080   70.6530  221.7770 C   0  0  0  0  0  0  0  0  0  0  0  0
  140.0310   69.7140  220.9030 O   0  0  0  0  0  0  0  0  0  0  0  0
  139.2530   70.4860  222.9570 N   0  0  0  0  0  0  0  0  0  0  0  0
  139.1530   71.4600  224.0180 C   0  0  0  0  0  0  0  0  0  0  0  0
  139.8170   70.8790  225.2480 C   0  0  0  0  0  0  0  0  0  0  0  0
  139.8230   69.4830  225.1810 N   0  0  0  0  0  0  0  0  0  0  0  0
  140.6960   68.7060  225.9490 C   0  0  0  0  0  0  0  0  0  0  0  0
  141.0300   69.2060  227.3210 C   0  0  0  0  0  0  0  0  0  0  0  0
  139.9900   69.2900  228.3590 C   0  0  0  0  0  0  0  0  0  0  0  0
  141.0180   68.1640  228.4100 C   0  0  0  0  0  0  0  0  0  0  0  0
  138.7670   68.7840  224.5730 C   0  0  0  0  0  0  0  0  0  0  0  0
  138.4940   69.2390  223.1440 C   0  0  0  0  0  0  0  0  0  0  0  0
  140.2630   73.0580  221.8040 C   0  0  0  0  0  0  0  0  0  0  0  0
  141.0800   76.4980  222.2870 N   0  0  0  0  0  0  0  0  0  0  0  0
  140.6770   77.7750  222.6930 C   0  0  0  0  0  0  0  0  0  0  0  0
  141.5780   78.7650  223.0300 C   0  0  0  0  0  0  0  0  0  0  0  0
  141.0960   79.9930  223.4170 C   0  0  0  0  0  0  0  0  0  0  0  0
  142.2870   81.2240  223.8360 Cl  0  0  0  0  0  0  0  0  0  0  0  0
  139.7370   80.2640  223.4800 C   0  0  0  0  0  0  0  0  0  0  0  0
  138.8160   79.2720  223.1420 C   0  0  0  0  0  0  0  0  0  0  0  0
  139.3100   78.0320  222.7510 C   0  0  0  0  0  0  0  0  0  0  0  0
  138.4041   74.8827  222.6577 H   0  0  0  0  0  0  0  0  0  0  0  0
  138.4530   75.4603  220.9394 H   0  0  0  0  0  0  0  0  0  0  0  0
  142.6747   75.1831  220.6944 H   0  0  0  0  0  0  0  0  0  0  0  0
  143.6358   72.9642  220.0399 H   0  0  0  0  0  0  0  0  0  0  0  0
  142.4508   70.8653  220.5106 H   0  0  0  0  0  0  0  0  0  0  0  0
  139.6626   72.3888  223.7218 H   0  0  0  0  0  0  0  0  0  0  0  0
  138.0982   71.6926  224.2261 H   0  0  0  0  0  0  0  0  0  0  0  0
  140.8529   71.2441  225.3081 H   0  0  0  0  0  0  0  0  0  0  0  0
  139.2553   71.1925  226.1403 H   0  0  0  0  0  0  0  0  0  0  0  0
  140.2417   67.7105  226.0610 H   0  0  0  0  0  0  0  0  0  0  0  0
  141.6493   68.7243  225.4005 H   0  0  0  0  0  0  0  0  0  0  0  0
  141.7454   69.9447  226.9304 H   0  0  0  0  0  0  0  0  0  0  0  0
  140.0229   70.0977  229.1050 H   0  0  0  0  0  0  0  0  0  0  0  0
  138.8910   69.3375  228.3540 H   0  0  0  0  0  0  0  0  0  0  0  0
  141.7998   68.1605  229.1838 H   0  0  0  0  0  0  0  0  0  0  0  0
  140.9835   67.0653  228.4504 H   0  0  0  0  0  0  0  0  0  0  0  0
  139.0187   67.7133  224.5576 H   0  0  0  0  0  0  0  0  0  0  0  0
  137.8590   68.9848  225.1606 H   0  0  0  0  0  0  0  0  0  0  0  0
  138.8339   68.4751  222.4292 H   0  0  0  0  0  0  0  0  0  0  0  0
  137.4188   69.3950  222.9719 H   0  0  0  0  0  0  0  0  0  0  0  0
  139.2881   73.0864  222.3127 H   0  0  0  0  0  0  0  0  0  0  0  0
  142.6607   78.5750  222.9897 H   0  0  0  0  0  0  0  0  0  0  0  0
  139.3866   81.2578  223.7954 H   0  0  0  0  0  0  0  0  0  0  0  0
  137.7337   79.4644  223.1834 H   0  0  0  0  0  0  0  0  0  0  0  0
  1  2  2  0
  2  3  1  0
  3  4  1  0
  4  5  1  0
  5  6  2  0
  6  7  1  0
  7  8  2  0
  8  9  1  0
  9 10  1  0
 10 11  2  0
 10 12  1  0
 12 13  1  0
 13 14  1  0
 14 15  1  0
 15 16  1  0
 16 17  1  0
 17 18  1  0
 18 19  1  0
 15 20  1  0
 20 21  1  0
  9 22  2  0
  4 23  2  0
 23 24  1  0
 24 25  2  0
 25 26  1  0
 26 27  1  0
 26 28  2  0
 28 29  1  0
 29 30  2  0
 30  2  1  0
 22  5  1  0
 30 24  1  0
 21 12  1  0
 19 17  1  0
  3 31  1  0
  3 32  1  0
  6 33  1  0
  7 34  1  0
  8 35  1  0
 13 36  1  0
 13 37  1  0
 14 38  1  0
 14 39  1  0
 16 40  1  0
 16 41  1  0
 17 42  1  0
 18 43  1  0
 18 44  1  0
 19 45  1  0
 19 46  1  0
 20 47  1  0
 20 48  1  0
 21 49  1  0
 21 50  1  0
 22 51  1  0
 25 52  1  0
 28 53  1  0
 29 54  1  0
M  END
>  <smiles>  (44) 
O=C1CC(c2cccc(C(=O)N3CCN(CC4CC4)CC3)c2)=Nc2cc(Cl)ccc21

>  <score_type>  (44) 
oracle

>  <origin>  (44) 
autodockgpu

>  <m_score__min__energy>  (44) 
-8.7699999999999996

>  <m_primary>  (44) 
energy

>  <rmsd>  (44) 
8.823492097464106

>  <m_score__min__rmsd>  (44) 
8.823492097464106

>  <meeko>  (44) 
{"free_energy": -8.56, "intermolecular_energy": -9.76, "internal_energy": -0.87, "cluster_size": 14, "cluster_id": 1, "rank_in_cluster": 10}

>  <energy>  (44) 
-7.59

>  <cluster_rmsd>  (44) 
0.12

>  <cluster>  (44) 
4

$$$$

     RDKit          3D

 54 58  0  0  0  0  0  0  0  0999 V2000
  138.5490   69.4520  221.5550 O   0  0  0  0  0  0  0  0  0  0  0  0
  139.1870   70.3430  222.1830 C   0  0  0  0  0  0  0  0  0  0  0  0
  139.5450   71.5670  221.4490 C   0  0  0  0  0  0  0  0  0  0  0  0
  140.2940   72.5290  222.3110 C   0  0  0  0  0  0  0  0  0  0  0  0
  140.7210   73.8000  221.7330 C   0  0  0  0  0  0  0  0  0  0  0  0
  141.8620   73.8480  220.9440 C   0  0  0  0  0  0  0  0  0  0  0  0
  142.2170   75.0940  220.4190 C   0  0  0  0  0  0  0  0  0  0  0  0
  141.4780   76.2330  220.6620 C   0  0  0  0  0  0  0  0  0  0  0  0
  140.3490   76.1790  221.4420 C   0  0  0  0  0  0  0  0  0  0  0  0
  139.5010   77.3080  221.7570 C   0  0  0  0  0  0  0  0  0  0  0  0
  138.7510   77.1670  222.7890 O   0  0  0  0  0  0  0  0  0  0  0  0
  139.4520   78.5100  221.0220 N   0  0  0  0  0  0  0  0  0  0  0  0
  140.2490   78.7970  219.8520 C   0  0  0  0  0  0  0  0  0  0  0  0
  141.2000   79.9210  220.2010 C   0  0  0  0  0  0  0  0  0  0  0  0
  140.6920   80.6740  221.2630 N   0  0  0  0  0  0  0  0  0  0  0  0
  141.5060   81.5000  222.0440 C   0  0  0  0  0  0  0  0  0  0  0  0
  142.0650   80.9170  223.3050 C   0  0  0  0  0  0  0  0  0  0  0  0
  141.9940   79.4690  223.5550 C   0  0  0  0  0  0  0  0  0  0  0  0
  143.3190   80.0990  223.1390 C   0  0  0  0  0  0  0  0  0  0  0  0
  139.3100   80.8720  221.4120 C   0  0  0  0  0  0  0  0  0  0  0  0
  138.5210   79.5670  221.4500 C   0  0  0  0  0  0  0  0  0  0  0  0
  139.9980   74.9500  221.9630 C   0  0  0  0  0  0  0  0  0  0  0  0
  140.5750   72.2830  223.5500 N   0  0  0  0  0  0  0  0  0  0  0  0
  140.2410   71.1260  224.2630 C   0  0  0  0  0  0  0  0  0  0  0  0
  140.5830   70.9480  225.5880 C   0  0  0  0  0  0  0  0  0  0  0  0
  140.2150   69.7800  226.2140 C   0  0  0  0  0  0  0  0  0  0  0  0
  140.6740   69.6000  227.9070 Cl  0  0  0  0  0  0  0  0  0  0  0  0
  139.5140   68.7800  225.5540 C   0  0  0  0  0  0  0  0  0  0  0  0
  139.1640   68.9490  224.2140 C   0  0  0  0  0  0  0  0  0  0  0  0
  139.5380   70.1320  223.5880 C   0  0  0  0  0  0  0  0  0  0  0  0
  140.1738   71.2954  220.5883 H   0  0  0  0  0  0  0  0  0  0  0  0
  138.6151   72.0538  221.1200 H   0  0  0  0  0  0  0  0  0  0  0  0
  142.4594   72.9469  220.7412 H   0  0  0  0  0  0  0  0  0  0  0  0
  143.1166   75.1687  219.7905 H   0  0  0  0  0  0  0  0  0  0  0  0
  141.7955   77.1924  220.2275 H   0  0  0  0  0  0  0  0  0  0  0  0
  140.8188   77.9027  219.5594 H   0  0  0  0  0  0  0  0  0  0  0  0
  139.6032   79.0890  219.0108 H   0  0  0  0  0  0  0  0  0  0  0  0
  142.1729   79.4967  220.4898 H   0  0  0  0  0  0  0  0  0  0  0  0
  141.3191   80.5742  219.3240 H   0  0  0  0  0  0  0  0  0  0  0  0
  142.3556   81.8131  221.4194 H   0  0  0  0  0  0  0  0  0  0  0  0
  140.8460   82.3146  222.3771 H   0  0  0  0  0  0  0  0  0  0  0  0
  141.7513   81.7858  223.9023 H   0  0  0  0  0  0  0  0  0  0  0  0
  141.8621   79.0948  224.5809 H   0  0  0  0  0  0  0  0  0  0  0  0
  141.3729   78.6453  223.1733 H   0  0  0  0  0  0  0  0  0  0  0  0
  144.1418   80.1908  223.8633 H   0  0  0  0  0  0  0  0  0  0  0  0
  144.0534   79.9346  222.3367 H   0  0  0  0  0  0  0  0  0  0  0  0
  139.1332   81.4159  222.3517 H   0  0  0  0  0  0  0  0  0  0  0  0
  138.9631   81.4406  220.5366 H   0  0  0  0  0  0  0  0  0  0  0  0
  138.1620   79.3683  222.4706 H   0  0  0  0  0  0  0  0  0  0  0  0
  137.6391   79.6132  220.7942 H   0  0  0  0  0  0  0  0  0  0  0  0
  139.0979   74.8856  222.5920 H   0  0  0  0  0  0  0  0  0  0  0  0
  141.1391   71.7251  226.1329 H   0  0  0  0  0  0  0  0  0  0  0  0
  139.2356   67.8580  226.0854 H   0  0  0  0  0  0  0  0  0  0  0  0
  138.6094   68.1702  223.6701 H   0  0  0  0  0  0  0  0  0  0  0  0
  1  2  2  0
  2  3  1  0
  3  4  1  0
  4  5  1  0
  5  6  2  0
  6  7  1  0
  7  8  2  0
  8  9  1  0
  9 10  1  0
 10 11  2  0
 10 12  1  0
 12 13  1  0
 13 14  1  0
 14 15  1  0
 15 16  1  0
 16 17  1  0
 17 18  1  0
 18 19  1  0
 15 20  1  0
 20 21  1  0
  9 22  2  0
  4 23  2  0
 23 24  1  0
 24 25  2  0
 25 26  1  0
 26 27  1  0
 26 28  2  0
 28 29  1  0
 29 30  2  0
 30  2  1  0
 22  5  1  0
 30 24  1  0
 21 12  1  0
 19 17  1  0
  3 31  1  0
  3 32  1  0
  6 33  1  0
  7 34  1  0
  8 35  1  0
 13 36  1  0
 13 37  1  0
 14 38  1  0
 14 39  1  0
 16 40  1  0
 16 41  1  0
 17 42  1  0
 18 43  1  0
 18 44  1  0
 19 45  1  0
 19 46  1  0
 20 47  1  0
 20 48  1  0
 21 49  1  0
 21 50  1  0
 22 51  1  0
 25 52  1  0
 28 53  1  0
 29 54  1  0
M  END
>  <smiles>  (45) 
O=C1CC(c2cccc(C(=O)N3CCN(CC4CC4)CC3)c2)=Nc2cc(Cl)ccc21

>  <score_type>  (45) 
oracle

>  <origin>  (45) 
autodockgpu

>  <m_score__min__energy>  (45) 
-8.7699999999999996

>  <m_primary>  (45) 
energy

>  <rmsd>  (45) 
6.24832733600963

>  <m_score__min__rmsd>  (45) 
6.24832733600963

>  <meeko>  (45) 
{"free_energy": -8.1, "intermolecular_energy": -9.29, "internal_energy": -1.14, "cluster_size": 18, "cluster_id": 2, "rank_in_cluster": 11}

>  <energy>  (45) 
-7.59

>  <cluster_rmsd>  (45) 
0.11

>  <cluster>  (45) 
4

$$$$

     RDKit          3D

 54 58  0  0  0  0  0  0  0  0999 V2000
  136.9180   73.1300  221.2900 O   0  0  0  0  0  0  0  0  0  0  0  0
  138.1380   73.1630  221.6160 C   0  0  0  0  0  0  0  0  0  0  0  0
  138.9970   74.1430  220.9350 C   0  0  0  0  0  0  0  0  0  0  0  0
  140.4080   74.0710  221.4170 C   0  0  0  0  0  0  0  0  0  0  0  0
  141.3920   74.9850  220.8410 C   0  0  0  0  0  0  0  0  0  0  0  0
  142.6120   74.4920  220.4010 C   0  0  0  0  0  0  0  0  0  0  0  0
  143.5100   75.4170  219.8590 C   0  0  0  0  0  0  0  0  0  0  0  0
  143.2120   76.7600  219.7570 C   0  0  0  0  0  0  0  0  0  0  0  0
  142.0020   77.2400  220.1930 C   0  0  0  0  0  0  0  0  0  0  0  0
  141.5860   78.6250  220.1310 C   0  0  0  0  0  0  0  0  0  0  0  0
  140.9330   78.9600  219.0780 O   0  0  0  0  0  0  0  0  0  0  0  0
  141.8480   79.5930  221.1230 N   0  0  0  0  0  0  0  0  0  0  0  0
  142.5610   79.3410  222.3530 C   0  0  0  0  0  0  0  0  0  0  0  0
  141.5880   79.5140  223.4990 C   0  0  0  0  0  0  0  0  0  0  0  0
  140.5330   80.3470  223.1170 N   0  0  0  0  0  0  0  0  0  0  0  0
  139.3150   80.3660  223.8030 C   0  0  0  0  0  0  0  0  0  0  0  0
  138.2350   79.4540  223.3080 C   0  0  0  0  0  0  0  0  0  0  0  0
  138.0820   79.1900  221.8680 C   0  0  0  0  0  0  0  0  0  0  0  0
  138.7050   78.1270  222.7690 C   0  0  0  0  0  0  0  0  0  0  0  0
  140.7390   81.4110  222.2230 C   0  0  0  0  0  0  0  0  0  0  0  0
  141.3810   80.9720  220.9120 C   0  0  0  0  0  0  0  0  0  0  0  0
  141.1150   76.3300  220.7300 C   0  0  0  0  0  0  0  0  0  0  0  0
  140.7930   73.2360  222.3270 N   0  0  0  0  0  0  0  0  0  0  0  0
  139.9900   72.2990  222.9860 C   0  0  0  0  0  0  0  0  0  0  0  0
  140.4860   71.4430  223.9480 C   0  0  0  0  0  0  0  0  0  0  0  0
  139.6270   70.5530  224.5480 C   0  0  0  0  0  0  0  0  0  0  0  0
  140.3090   69.4820  225.7710 Cl  0  0  0  0  0  0  0  0  0  0  0  0
  138.2820   70.4880  224.2130 C   0  0  0  0  0  0  0  0  0  0  0  0
  137.7680   71.3480  223.2410 C   0  0  0  0  0  0  0  0  0  0  0  0
  138.6420   72.2470  222.6390 C   0  0  0  0  0  0  0  0  0  0  0  0
  138.9792   73.9418  219.8537 H   0  0  0  0  0  0  0  0  0  0  0  0
  138.6106   75.1490  221.1557 H   0  0  0  0  0  0  0  0  0  0  0  0
  142.8613   73.4232  220.4750 H   0  0  0  0  0  0  0  0  0  0  0  0
  144.4877   75.0614  219.5017 H   0  0  0  0  0  0  0  0  0  0  0  0
  143.9494   77.4514  219.3231 H   0  0  0  0  0  0  0  0  0  0  0  0
  142.9579   78.3151  222.3514 H   0  0  0  0  0  0  0  0  0  0  0  0
  143.4038   80.0402  222.4573 H   0  0  0  0  0  0  0  0  0  0  0  0
  141.1881   78.5307  223.7872 H   0  0  0  0  0  0  0  0  0  0  0  0
  142.1146   79.9704  224.3501 H   0  0  0  0  0  0  0  0  0  0  0  0
  139.5207   80.0973  224.8496 H   0  0  0  0  0  0  0  0  0  0  0  0
  138.9201   81.3812  223.6504 H   0  0  0  0  0  0  0  0  0  0  0  0
  137.5259   79.7980  224.0754 H   0  0  0  0  0  0  0  0  0  0  0  0
  137.0803   79.0306  221.4424 H   0  0  0  0  0  0  0  0  0  0  0  0
  138.3925   79.7058  220.9474 H   0  0  0  0  0  0  0  0  0  0  0  0
  138.1528   77.2051  223.0040 H   0  0  0  0  0  0  0  0  0  0  0  0
  139.6463   77.5580  222.7837 H   0  0  0  0  0  0  0  0  0  0  0  0
  139.7666   81.8740  221.9993 H   0  0  0  0  0  0  0  0  0  0  0  0
  141.4291   82.1180  222.7066 H   0  0  0  0  0  0  0  0  0  0  0  0
  140.6429   81.0038  220.0970 H   0  0  0  0  0  0  0  0  0  0  0  0
  142.2110   81.6368  220.6307 H   0  0  0  0  0  0  0  0  0  0  0  0
  140.1406   76.6955  221.0864 H   0  0  0  0  0  0  0  0  0  0  0  0
  141.5490   71.4722  224.2295 H   0  0  0  0  0  0  0  0  0  0  0  0
  137.6233   69.7616  224.7115 H   0  0  0  0  0  0  0  0  0  0  0  0
  136.7050   71.3157  222.9599 H   0  0  0  0  0  0  0  0  0  0  0  0
  1  2  2  0
  2  3  1  0
  3  4  1  0
  4  5  1  0
  5  6  2  0
  6  7  1  0
  7  8  2  0
  8  9  1  0
  9 10  1  0
 10 11  2  0
 10 12  1  0
 12 13  1  0
 13 14  1  0
 14 15  1  0
 15 16  1  0
 16 17  1  0
 17 18  1  0
 18 19  1  0
 15 20  1  0
 20 21  1  0
  9 22  2  0
  4 23  2  0
 23 24  1  0
 24 25  2  0
 25 26  1  0
 26 27  1  0
 26 28  2  0
 28 29  1  0
 29 30  2  0
 30  2  1  0
 22  5  1  0
 30 24  1  0
 21 12  1  0
 19 17  1  0
  3 31  1  0
  3 32  1  0
  6 33  1  0
  7 34  1  0
  8 35  1  0
 13 36  1  0
 13 37  1  0
 14 38  1  0
 14 39  1  0
 16 40  1  0
 16 41  1  0
 17 42  1  0
 18 43  1  0
 18 44  1  0
 19 45  1  0
 19 46  1  0
 20 47  1  0
 20 48  1  0
 21 49  1  0
 21 50  1  0
 22 51  1  0
 25 52  1  0
 28 53  1  0
 29 54  1  0
M  END
>  <smiles>  (46) 
O=C1CC(c2cccc(C(=O)N3CCN(CC4CC4)CC3)c2)=Nc2cc(Cl)ccc21

>  <score_type>  (46) 
oracle

>  <origin>  (46) 
autodockgpu

>  <m_score__min__energy>  (46) 
-8.7699999999999996

>  <m_primary>  (46) 
energy

>  <rmsd>  (46) 
7.0344975717047395

>  <m_score__min__rmsd>  (46) 
7.0344975717047395

>  <meeko>  (46) 
{"free_energy": -7.53, "intermolecular_energy": -8.73, "internal_energy": -1.61, "cluster_size": 16, "cluster_id": 4, "rank_in_cluster": 15}

>  <energy>  (46) 
-7.57

>  <cluster_rmsd>  (46) 
0.17

>  <cluster>  (46) 
4

$$$$

     RDKit          3D

 54 58  0  0  0  0  0  0  0  0999 V2000
  137.2190   77.4970  222.2290 O   0  0  0  0  0  0  0  0  0  0  0  0
  138.4270   77.1260  222.2650 C   0  0  0  0  0  0  0  0  0  0  0  0
  138.7220   75.7350  221.8890 C   0  0  0  0  0  0  0  0  0  0  0  0
  140.1820   75.4360  221.9780 C   0  0  0  0  0  0  0  0  0  0  0  0
  140.6440   74.0950  221.6310 C   0  0  0  0  0  0  0  0  0  0  0  0
  141.7850   73.9400  220.8580 C   0  0  0  0  0  0  0  0  0  0  0  0
  142.1770   72.6300  220.5620 C   0  0  0  0  0  0  0  0  0  0  0  0
  141.4730   71.5320  221.0110 C   0  0  0  0  0  0  0  0  0  0  0  0
  140.3450   71.6930  221.7780 C   0  0  0  0  0  0  0  0  0  0  0  0
  139.5370   70.6140  222.3030 C   0  0  0  0  0  0  0  0  0  0  0  0
  139.1920   69.7160  221.4540 O   0  0  0  0  0  0  0  0  0  0  0  0
  139.1190   70.4980  223.6450 N   0  0  0  0  0  0  0  0  0  0  0  0
  139.4460   71.4330  224.6960 C   0  0  0  0  0  0  0  0  0  0  0  0
  140.3360   70.7210  225.6930 C   0  0  0  0  0  0  0  0  0  0  0  0
  140.1340   69.3400  225.6220 N   0  0  0  0  0  0  0  0  0  0  0  0
  141.0700   68.4260  226.1160 C   0  0  0  0  0  0  0  0  0  0  0  0
  141.0900   68.2000  227.5970 C   0  0  0  0  0  0  0  0  0  0  0  0
  141.1660   69.3390  228.5250 C   0  0  0  0  0  0  0  0  0  0  0  0
  139.8400   68.6110  228.3310 C   0  0  0  0  0  0  0  0  0  0  0  0
  138.8670   68.8090  225.3280 C   0  0  0  0  0  0  0  0  0  0  0  0
  138.2780   69.3540  224.0320 C   0  0  0  0  0  0  0  0  0  0  0  0
  139.9560   72.9840  222.0690 C   0  0  0  0  0  0  0  0  0  0  0  0
  141.0540   76.3190  222.3430 N   0  0  0  0  0  0  0  0  0  0  0  0
  140.7900   77.6460  222.7030 C   0  0  0  0  0  0  0  0  0  0  0  0
  141.7870   78.5230  223.0820 C   0  0  0  0  0  0  0  0  0  0  0  0
  141.4410   79.8100  223.4190 C   0  0  0  0  0  0  0  0  0  0  0  0
  142.7490   80.8920  223.8960 Cl  0  0  0  0  0  0  0  0  0  0  0  0
  140.1250   80.2500  223.3910 C   0  0  0  0  0  0  0  0  0  0  0  0
  139.1090   79.3730  223.0100 C   0  0  0  0  0  0  0  0  0  0  0  0
  139.4660   78.0730  222.6700 C   0  0  0  0  0  0  0  0  0  0  0  0
  138.1781   75.0599  222.5660 H   0  0  0  0  0  0  0  0  0  0  0  0
  138.4050   75.5874  220.8461 H   0  0  0  0  0  0  0  0  0  0  0  0
  142.3556   74.8073  220.4943 H   0  0  0  0  0  0  0  0  0  0  0  0
  143.0772   72.4702  219.9504 H   0  0  0  0  0  0  0  0  0  0  0  0
  141.8176   70.5198  220.7528 H   0  0  0  0  0  0  0  0  0  0  0  0
  139.9763   72.2993  224.2737 H   0  0  0  0  0  0  0  0  0  0  0  0
  138.5299   71.7915  225.1882 H   0  0  0  0  0  0  0  0  0  0  0  0
  141.3885   70.9462  225.4658 H   0  0  0  0  0  0  0  0  0  0  0  0
  140.0874   71.0679  226.7069 H   0  0  0  0  0  0  0  0  0  0  0  0
  140.8712   67.4565  225.6359 H   0  0  0  0  0  0  0  0  0  0  0  0
  142.0495   68.8692  225.8834 H   0  0  0  0  0  0  0  0  0  0  0  0
  141.6939   67.2859  227.4982 H   0  0  0  0  0  0  0  0  0  0  0  0
  141.7137   69.2387  229.4736 H   0  0  0  0  0  0  0  0  0  0  0  0
  141.4957   70.3853  228.4437 H   0  0  0  0  0  0  0  0  0  0  0  0
  139.4324   67.9767  229.1319 H   0  0  0  0  0  0  0  0  0  0  0  0
  138.8166   68.8976  228.0474 H   0  0  0  0  0  0  0  0  0  0  0  0
  138.9570   67.7162  225.2397 H   0  0  0  0  0  0  0  0  0  0  0  0
  138.1906   69.1011  226.1448 H   0  0  0  0  0  0  0  0  0  0  0  0
  138.3013   68.5820  223.2488 H   0  0  0  0  0  0  0  0  0  0  0  0
  137.2288   69.6562  224.1657 H   0  0  0  0  0  0  0  0  0  0  0  0
  139.0536   73.1340  222.6798 H   0  0  0  0  0  0  0  0  0  0  0  0
  142.8375   78.1981  223.1136 H   0  0  0  0  0  0  0  0  0  0  0  0
  139.8838   81.2868  223.6683 H   0  0  0  0  0  0  0  0  0  0  0  0
  138.0591   79.6996  222.9796 H   0  0  0  0  0  0  0  0  0  0  0  0
  1  2  2  0
  2  3  1  0
  3  4  1  0
  4  5  1  0
  5  6  2  0
  6  7  1  0
  7  8  2  0
  8  9  1  0
  9 10  1  0
 10 11  2  0
 10 12  1  0
 12 13  1  0
 13 14  1  0
 14 15  1  0
 15 16  1  0
 16 17  1  0
 17 18  1  0
 18 19  1  0
 15 20  1  0
 20 21  1  0
  9 22  2  0
  4 23  2  0
 23 24  1  0
 24 25  2  0
 25 26  1  0
 26 27  1  0
 26 28  2  0
 28 29  1  0
 29 30  2  0
 30  2  1  0
 22  5  1  0
 30 24  1  0
 21 12  1  0
 19 17  1  0
  3 31  1  0
  3 32  1  0
  6 33  1  0
  7 34  1  0
  8 35  1  0
 13 36  1  0
 13 37  1  0
 14 38  1  0
 14 39  1  0
 16 40  1  0
 16 41  1  0
 17 42  1  0
 18 43  1  0
 18 44  1  0
 19 45  1  0
 19 46  1  0
 20 47  1  0
 20 48  1  0
 21 49  1  0
 21 50  1  0
 22 51  1  0
 25 52  1  0
 28 53  1  0
 29 54  1  0
M  END
>  <smiles>  (47) 
O=C1CC(c2cccc(C(=O)N3CCN(CC4CC4)CC3)c2)=Nc2cc(Cl)ccc21

>  <score_type>  (47) 
oracle

>  <origin>  (47) 
autodockgpu

>  <m_score__min__energy>  (47) 
-8.7699999999999996

>  <m_primary>  (47) 
energy

>  <rmsd>  (47) 
8.993057442404515

>  <m_score__min__rmsd>  (47) 
8.993057442404515

>  <meeko>  (47) 
{"free_energy": -8.59, "intermolecular_energy": -9.78, "internal_energy": -0.88, "cluster_size": 14, "cluster_id": 1, "rank_in_cluster": 9}

>  <energy>  (47) 
-7.55

>  <cluster_rmsd>  (47) 
0.13

>  <cluster>  (47) 
4

$$$$

     RDKit          3D

 54 58  0  0  0  0  0  0  0  0999 V2000
  138.5410   69.4120  221.6290 O   0  0  0  0  0  0  0  0  0  0  0  0
  139.1820   70.3110  222.2440 C   0  0  0  0  0  0  0  0  0  0  0  0
  139.5450   71.5220  221.4910 C   0  0  0  0  0  0  0  0  0  0  0  0
  140.2970   72.4940  222.3390 C   0  0  0  0  0  0  0  0  0  0  0  0
  140.7290   73.7550  221.7410 C   0  0  0  0  0  0  0  0  0  0  0  0
  141.8680   73.7850  220.9480 C   0  0  0  0  0  0  0  0  0  0  0  0
  142.2290   75.0210  220.4040 C   0  0  0  0  0  0  0  0  0  0  0  0
  141.4960   76.1670  220.6330 C   0  0  0  0  0  0  0  0  0  0  0  0
  140.3700   76.1310  221.4160 C   0  0  0  0  0  0  0  0  0  0  0  0
  139.5290   77.2690  221.7170 C   0  0  0  0  0  0  0  0  0  0  0  0
  138.7470   77.1300  222.7250 O   0  0  0  0  0  0  0  0  0  0  0  0
  139.5170   78.4790  220.9910 N   0  0  0  0  0  0  0  0  0  0  0  0
  140.3520   78.7640  219.8480 C   0  0  0  0  0  0  0  0  0  0  0  0
  141.3090   79.8710  220.2340 C   0  0  0  0  0  0  0  0  0  0  0  0
  140.7810   80.6220  221.2880 N   0  0  0  0  0  0  0  0  0  0  0  0
  141.5830   81.4300  222.0990 C   0  0  0  0  0  0  0  0  0  0  0  0
  142.2000   80.7920  223.3050 C   0  0  0  0  0  0  0  0  0  0  0  0
  141.6600   79.5330  223.8430 C   0  0  0  0  0  0  0  0  0  0  0  0
  142.9600   79.5170  223.0450 C   0  0  0  0  0  0  0  0  0  0  0  0
  139.3970   80.8380  221.3980 C   0  0  0  0  0  0  0  0  0  0  0  0
  138.5900   79.5450  221.4010 C   0  0  0  0  0  0  0  0  0  0  0  0
  140.0130   74.9120  221.9560 C   0  0  0  0  0  0  0  0  0  0  0  0
  140.5750   72.2680  223.5820 N   0  0  0  0  0  0  0  0  0  0  0  0
  140.2360   71.1240  224.3120 C   0  0  0  0  0  0  0  0  0  0  0  0
  140.5750   70.9650  225.6410 C   0  0  0  0  0  0  0  0  0  0  0  0
  140.2020   69.8090  226.2850 C   0  0  0  0  0  0  0  0  0  0  0  0
  140.6580   69.6540  227.9810 Cl  0  0  0  0  0  0  0  0  0  0  0  0
  139.4990   68.8010  225.6400 C   0  0  0  0  0  0  0  0  0  0  0  0
  139.1510   68.9500  224.2970 C   0  0  0  0  0  0  0  0  0  0  0  0
  139.5300   70.1210  223.6520 C   0  0  0  0  0  0  0  0  0  0  0  0
  140.1734   71.2348  220.6351 H   0  0  0  0  0  0  0  0  0  0  0  0
  138.6173   72.0071  221.1532 H   0  0  0  0  0  0  0  0  0  0  0  0
  142.4595   72.8775  220.7564 H   0  0  0  0  0  0  0  0  0  0  0  0
  143.1275   75.0819  219.7723 H   0  0  0  0  0  0  0  0  0  0  0  0
  141.8172   77.1183  220.1837 H   0  0  0  0  0  0  0  0  0  0  0  0
  140.9170   77.8638  219.5644 H   0  0  0  0  0  0  0  0  0  0  0  0
  139.7353   79.0728  218.9911 H   0  0  0  0  0  0  0  0  0  0  0  0
  142.2670   79.4301  220.5467 H   0  0  0  0  0  0  0  0  0  0  0  0
  141.4631   80.5299  219.3667 H   0  0  0  0  0  0  0  0  0  0  0  0
  142.4015   81.8169  221.4742 H   0  0  0  0  0  0  0  0  0  0  0  0
  140.9010   82.1940  222.5004 H   0  0  0  0  0  0  0  0  0  0  0  0
  142.4096   81.7655  223.7724 H   0  0  0  0  0  0  0  0  0  0  0  0
  141.6787   79.3463  224.9269 H   0  0  0  0  0  0  0  0  0  0  0  0
  140.6969   79.0069  223.7677 H   0  0  0  0  0  0  0  0  0  0  0  0
  143.9192   79.3295  223.5498 H   0  0  0  0  0  0  0  0  0  0  0  0
  143.3333   78.9884  222.1555 H   0  0  0  0  0  0  0  0  0  0  0  0
  139.1999   81.3762  222.3369 H   0  0  0  0  0  0  0  0  0  0  0  0
  139.0840   81.4187  220.5178 H   0  0  0  0  0  0  0  0  0  0  0  0
  138.1986   79.3426  222.4089 H   0  0  0  0  0  0  0  0  0  0  0  0
  137.7286   79.6097  220.7199 H   0  0  0  0  0  0  0  0  0  0  0  0
  139.1141   74.8620  222.5880 H   0  0  0  0  0  0  0  0  0  0  0  0
  141.1330   71.7485  226.1745 H   0  0  0  0  0  0  0  0  0  0  0  0
  139.2173   67.8882  226.1854 H   0  0  0  0  0  0  0  0  0  0  0  0
  138.5938   68.1647  223.7652 H   0  0  0  0  0  0  0  0  0  0  0  0
  1  2  2  0
  2  3  1  0
  3  4  1  0
  4  5  1  0
  5  6  2  0
  6  7  1  0
  7  8  2  0
  8  9  1  0
  9 10  1  0
 10 11  2  0
 10 12  1  0
 12 13  1  0
 13 14  1  0
 14 15  1  0
 15 16  1  0
 16 17  1  0
 17 18  1  0
 18 19  1  0
 15 20  1  0
 20 21  1  0
  9 22  2  0
  4 23  2  0
 23 24  1  0
 24 25  2  0
 25 26  1  0
 26 27  1  0
 26 28  2  0
 28 29  1  0
 29 30  2  0
 30  2  1  0
 22  5  1  0
 30 24  1  0
 21 12  1  0
 19 17  1  0
  3 31  1  0
  3 32  1  0
  6 33  1  0
  7 34  1  0
  8 35  1  0
 13 36  1  0
 13 37  1  0
 14 38  1  0
 14 39  1  0
 16 40  1  0
 16 41  1  0
 17 42  1  0
 18 43  1  0
 18 44  1  0
 19 45  1  0
 19 46  1  0
 20 47  1  0
 20 48  1  0
 21 49  1  0
 21 50  1  0
 22 51  1  0
 25 52  1  0
 28 53  1  0
 29 54  1  0
M  END
>  <smiles>  (48) 
O=C1CC(c2cccc(C(=O)N3CCN(CC4CC4)CC3)c2)=Nc2cc(Cl)ccc21

>  <score_type>  (48) 
oracle

>  <origin>  (48) 
autodockgpu

>  <m_score__min__energy>  (48) 
-8.7699999999999996

>  <m_primary>  (48) 
energy

>  <rmsd>  (48) 
6.179934523896655

>  <m_score__min__rmsd>  (48) 
6.179934523896655

>  <meeko>  (48) 
{"free_energy": -8.11, "intermolecular_energy": -9.3, "internal_energy": -1.16, "cluster_size": 18, "cluster_id": 2, "rank_in_cluster": 7}

>  <energy>  (48) 
-7.54

>  <cluster_rmsd>  (48) 
0.16

>  <cluster>  (48) 
4

$$$$

     RDKit          3D

 54 58  0  0  0  0  0  0  0  0999 V2000
  137.5990   69.9180  222.3000 O   0  0  0  0  0  0  0  0  0  0  0  0
  138.5230   70.6480  222.7560 C   0  0  0  0  0  0  0  0  0  0  0  0
  138.9630   71.7830  221.9300 C   0  0  0  0  0  0  0  0  0  0  0  0
  140.0580   72.5550  222.5900 C   0  0  0  0  0  0  0  0  0  0  0  0
  140.6060   73.7200  221.9010 C   0  0  0  0  0  0  0  0  0  0  0  0
  141.8070   73.6100  221.2150 C   0  0  0  0  0  0  0  0  0  0  0  0
  142.2790   74.7610  220.5740 C   0  0  0  0  0  0  0  0  0  0  0  0
  141.5920   75.9560  220.6110 C   0  0  0  0  0  0  0  0  0  0  0  0
  140.4030   76.0580  221.2900 C   0  0  0  0  0  0  0  0  0  0  0  0
  139.6020   77.2590  221.3880 C   0  0  0  0  0  0  0  0  0  0  0  0
  138.6510   77.2210  222.2500 O   0  0  0  0  0  0  0  0  0  0  0  0
  139.7970   78.4250  220.6200 N   0  0  0  0  0  0  0  0  0  0  0  0
  140.8330   78.5970  219.6280 C   0  0  0  0  0  0  0  0  0  0  0  0
  141.7810   79.6650  220.1260 C   0  0  0  0  0  0  0  0  0  0  0  0
  141.1330   80.5030  221.0370 N   0  0  0  0  0  0  0  0  0  0  0  0
  141.8360   81.3060  221.9400 C   0  0  0  0  0  0  0  0  0  0  0  0
  142.0290   80.7710  223.3260 C   0  0  0  0  0  0  0  0  0  0  0  0
  141.1530   79.7100  223.8460 C   0  0  0  0  0  0  0  0  0  0  0  0
  142.5730   79.3690  223.4080 C   0  0  0  0  0  0  0  0  0  0  0  0
  139.7680   80.8060  220.8950 C   0  0  0  0  0  0  0  0  0  0  0  0
  138.8870   79.5650  220.8140 C   0  0  0  0  0  0  0  0  0  0  0  0
  139.9370   74.9250  221.9240 C   0  0  0  0  0  0  0  0  0  0  0  0
  140.5350   72.2370  223.7500 N   0  0  0  0  0  0  0  0  0  0  0  0
  140.1280   71.1620  224.5480 C   0  0  0  0  0  0  0  0  0  0  0  0
  140.6960   70.8960  225.7780 C   0  0  0  0  0  0  0  0  0  0  0  0
  140.2350   69.8200  226.4990 C   0  0  0  0  0  0  0  0  0  0  0  0
  140.9910   69.5210  228.0630 Cl  0  0  0  0  0  0  0  0  0  0  0  0
  139.2210   68.9970  226.0280 C   0  0  0  0  0  0  0  0  0  0  0  0
  138.6400   69.2560  224.7860 C   0  0  0  0  0  0  0  0  0  0  0  0
  139.1100   70.3460  224.0620 C   0  0  0  0  0  0  0  0  0  0  0  0
  139.3276   71.4013  220.9649 H   0  0  0  0  0  0  0  0  0  0  0  0
  138.1053   72.4571  221.7888 H   0  0  0  0  0  0  0  0  0  0  0  0
  142.3627   72.6615  221.1767 H   0  0  0  0  0  0  0  0  0  0  0  0
  143.2294   74.7108  220.0225 H   0  0  0  0  0  0  0  0  0  0  0  0
  142.0002   76.8356  220.0918 H   0  0  0  0  0  0  0  0  0  0  0  0
  141.3764   77.6510  219.4873 H   0  0  0  0  0  0  0  0  0  0  0  0
  140.3946   78.8933  218.6636 H   0  0  0  0  0  0  0  0  0  0  0  0
  142.6392   79.1864  220.6204 H   0  0  0  0  0  0  0  0  0  0  0  0
  142.1249   80.2649  219.2705 H   0  0  0  0  0  0  0  0  0  0  0  0
  142.8336   81.4880  221.5137 H   0  0  0  0  0  0  0  0  0  0  0  0
  141.2120   82.2030  222.0668 H   0  0  0  0  0  0  0  0  0  0  0  0
  142.3062   81.7596  223.7208 H   0  0  0  0  0  0  0  0  0  0  0  0
  140.8881   79.6907  224.9134 H   0  0  0  0  0  0  0  0  0  0  0  0
  140.1509   79.3359  223.5892 H   0  0  0  0  0  0  0  0  0  0  0  0
  143.3383   79.1132  224.1555 H   0  0  0  0  0  0  0  0  0  0  0  0
  143.0328   78.6587  222.7051 H   0  0  0  0  0  0  0  0  0  0  0  0
  139.4502   81.4054  221.7609 H   0  0  0  0  0  0  0  0  0  0  0  0
  139.6499   81.3552  219.9493 H   0  0  0  0  0  0  0  0  0  0  0  0
  138.3155   79.4420  221.7458 H   0  0  0  0  0  0  0  0  0  0  0  0
  138.1617   79.6424  219.9907 H   0  0  0  0  0  0  0  0  0  0  0  0
  138.9864   74.9860  222.4741 H   0  0  0  0  0  0  0  0  0  0  0  0
  141.5014   71.5324  226.1733 H   0  0  0  0  0  0  0  0  0  0  0  0
  138.8769   68.1441  226.6315 H   0  0  0  0  0  0  0  0  0  0  0  0
  137.8353   68.6178  224.3920 H   0  0  0  0  0  0  0  0  0  0  0  0
  1  2  2  0
  2  3  1  0
  3  4  1  0
  4  5  1  0
  5  6  2  0
  6  7  1  0
  7  8  2  0
  8  9  1  0
  9 10  1  0
 10 11  2  0
 10 12  1  0
 12 13  1  0
 13 14  1  0
 14 15  1  0
 15 16  1  0
 16 17  1  0
 17 18  1  0
 18 19  1  0
 15 20  1  0
 20 21  1  0
  9 22  2  0
  4 23  2  0
 23 24  1  0
 24 25  2  0
 25 26  1  0
 26 27  1  0
 26 28  2  0
 28 29  1  0
 29 30  2  0
 30  2  1  0
 22  5  1  0
 30 24  1  0
 21 12  1  0
 19 17  1  0
  3 31  1  0
  3 32  1  0
  6 33  1  0
  7 34  1  0
  8 35  1  0
 13 36  1  0
 13 37  1  0
 14 38  1  0
 14 39  1  0
 16 40  1  0
 16 41  1  0
 17 42  1  0
 18 43  1  0
 18 44  1  0
 19 45  1  0
 19 46  1  0
 20 47  1  0
 20 48  1  0
 21 49  1  0
 21 50  1  0
 22 51  1  0
 25 52  1  0
 28 53  1  0
 29 54  1  0
M  END
>  <smiles>  (49) 
O=C1CC(c2cccc(C(=O)N3CCN(CC4CC4)CC3)c2)=Nc2cc(Cl)ccc21

>  <score_type>  (49) 
oracle

>  <origin>  (49) 
autodockgpu

>  <m_score__min__energy>  (49) 
-8.7699999999999996

>  <m_primary>  (49) 
energy

>  <rmsd>  (49) 
6.144411036603665

>  <m_score__min__rmsd>  (49) 
6.144411036603665

>  <meeko>  (49) 
{"free_energy": -7.99, "intermolecular_energy": -9.18, "internal_energy": -1.15, "cluster_size": 18, "cluster_id": 2, "rank_in_cluster": 17}

>  <energy>  (49) 
-7.53

>  <cluster_rmsd>  (49) 
0.25

>  <cluster>  (49) 
4

$$$$

     RDKit          3D

 54 58  0  0  0  0  0  0  0  0999 V2000
  137.0500   73.0520  221.3190 O   0  0  0  0  0  0  0  0  0  0  0  0
  138.2690   73.1080  221.6450 C   0  0  0  0  0  0  0  0  0  0  0  0
  139.1160   74.0830  220.9420 C   0  0  0  0  0  0  0  0  0  0  0  0
  140.5280   74.0400  221.4260 C   0  0  0  0  0  0  0  0  0  0  0  0
  141.5000   74.9520  220.8310 C   0  0  0  0  0  0  0  0  0  0  0  0
  142.6780   74.4480  220.2960 C   0  0  0  0  0  0  0  0  0  0  0  0
  143.5670   75.3720  219.7390 C   0  0  0  0  0  0  0  0  0  0  0  0
  143.3010   76.7250  219.7130 C   0  0  0  0  0  0  0  0  0  0  0  0
  142.1340   77.2170  220.2420 C   0  0  0  0  0  0  0  0  0  0  0  0
  141.7540   78.6140  220.2630 C   0  0  0  0  0  0  0  0  0  0  0  0
  141.2110   79.0560  219.1890 O   0  0  0  0  0  0  0  0  0  0  0  0
  141.9430   79.4850  221.3560 N   0  0  0  0  0  0  0  0  0  0  0  0
  142.5320   79.1090  222.6200 C   0  0  0  0  0  0  0  0  0  0  0  0
  141.4590   79.2110  223.6830 C   0  0  0  0  0  0  0  0  0  0  0  0
  140.4620   80.1030  223.2800 N   0  0  0  0  0  0  0  0  0  0  0  0
  139.1850   80.0990  223.8510 C   0  0  0  0  0  0  0  0  0  0  0  0
  138.1530   79.2220  223.2120 C   0  0  0  0  0  0  0  0  0  0  0  0
  138.1800   78.9680  221.7630 C   0  0  0  0  0  0  0  0  0  0  0  0
  138.6490   77.8840  222.7280 C   0  0  0  0  0  0  0  0  0  0  0  0
  140.7730   81.2330  222.5060 C   0  0  0  0  0  0  0  0  0  0  0  0
  141.5260   80.8900  221.2250 C   0  0  0  0  0  0  0  0  0  0  0  0
  141.2560   76.3080  220.7940 C   0  0  0  0  0  0  0  0  0  0  0  0
  140.9220   73.2310  222.3570 N   0  0  0  0  0  0  0  0  0  0  0  0
  140.1290   72.2990  223.0360 C   0  0  0  0  0  0  0  0  0  0  0  0
  140.6350   71.4730  224.0190 C   0  0  0  0  0  0  0  0  0  0  0  0
  139.7870   70.5860  224.6380 C   0  0  0  0  0  0  0  0  0  0  0  0
  140.4800   69.5530  225.8870 Cl  0  0  0  0  0  0  0  0  0  0  0  0
  138.4430   70.4970  224.3040 C   0  0  0  0  0  0  0  0  0  0  0  0
  137.9200   71.3270  223.3110 C   0  0  0  0  0  0  0  0  0  0  0  0
  138.7830   72.2220  222.6900 C   0  0  0  0  0  0  0  0  0  0  0  0
  139.1013   73.8569  219.8656 H   0  0  0  0  0  0  0  0  0  0  0  0
  138.7168   75.0888  221.1397 H   0  0  0  0  0  0  0  0  0  0  0  0
  142.9015   73.3710  220.3098 H   0  0  0  0  0  0  0  0  0  0  0  0
  144.5106   75.0076  219.3068 H   0  0  0  0  0  0  0  0  0  0  0  0
  144.0303   77.4157  219.2645 H   0  0  0  0  0  0  0  0  0  0  0  0
  142.9065   78.0762  222.5651 H   0  0  0  0  0  0  0  0  0  0  0  0
  143.3750   79.7729  222.8621 H   0  0  0  0  0  0  0  0  0  0  0  0
  141.0139   78.2184  223.8460 H   0  0  0  0  0  0  0  0  0  0  0  0
  141.9123   79.5778  224.6157 H   0  0  0  0  0  0  0  0  0  0  0  0
  139.2913   79.7768  224.8974 H   0  0  0  0  0  0  0  0  0  0  0  0
  138.8100   81.1241  223.7148 H   0  0  0  0  0  0  0  0  0  0  0  0
  137.3611   79.5848  223.8837 H   0  0  0  0  0  0  0  0  0  0  0  0
  137.2375   78.8407  221.2103 H   0  0  0  0  0  0  0  0  0  0  0  0
  138.6223   79.4775  220.8942 H   0  0  0  0  0  0  0  0  0  0  0  0
  138.0440   76.9784  222.8825 H   0  0  0  0  0  0  0  0  0  0  0  0
  139.5632   77.2866  222.8598 H   0  0  0  0  0  0  0  0  0  0  0  0
  139.8357   81.7415  222.2360 H   0  0  0  0  0  0  0  0  0  0  0  0
  141.4296   81.8754  223.1112 H   0  0  0  0  0  0  0  0  0  0  0  0
  140.8682   81.0125  220.3519 H   0  0  0  0  0  0  0  0  0  0  0  0
  142.3919   81.5527  221.0801 H   0  0  0  0  0  0  0  0  0  0  0  0
  140.3162   76.6830  221.2253 H   0  0  0  0  0  0  0  0  0  0  0  0
  141.6968   71.5236  224.3017 H   0  0  0  0  0  0  0  0  0  0  0  0
  137.7924   69.7753  224.8197 H   0  0  0  0  0  0  0  0  0  0  0  0
  136.8581   71.2743  223.0289 H   0  0  0  0  0  0  0  0  0  0  0  0
  1  2  2  0
  2  3  1  0
  3  4  1  0
  4  5  1  0
  5  6  2  0
  6  7  1  0
  7  8  2  0
  8  9  1  0
  9 10  1  0
 10 11  2  0
 10 12  1  0
 12 13  1  0
 13 14  1  0
 14 15  1  0
 15 16  1  0
 16 17  1  0
 17 18  1  0
 18 19  1  0
 15 20  1  0
 20 21  1  0
  9 22  2  0
  4 23  2  0
 23 24  1  0
 24 25  2  0
 25 26  1  0
 26 27  1  0
 26 28  2  0
 28 29  1  0
 29 30  2  0
 30  2  1  0
 22  5  1  0
 30 24  1  0
 21 12  1  0
 19 17  1  0
  3 31  1  0
  3 32  1  0
  6 33  1  0
  7 34  1  0
  8 35  1  0
 13 36  1  0
 13 37  1  0
 14 38  1  0
 14 39  1  0
 16 40  1  0
 16 41  1  0
 17 42  1  0
 18 43  1  0
 18 44  1  0
 19 45  1  0
 19 46  1  0
 20 47  1  0
 20 48  1  0
 21 49  1  0
 21 50  1  0
 22 51  1  0
 25 52  1  0
 28 53  1  0
 29 54  1  0
M  END
>  <smiles>  (50) 
O=C1CC(c2cccc(C(=O)N3CCN(CC4CC4)CC3)c2)=Nc2cc(Cl)ccc21

>  <score_type>  (50) 
oracle

>  <origin>  (50) 
autodockgpu

>  <m_score__min__energy>  (50) 
-8.7699999999999996

>  <m_primary>  (50) 
energy

>  <rmsd>  (50) 
6.956154937666756

>  <m_score__min__rmsd>  (50) 
6.956154937666756

>  <meeko>  (50) 
{"free_energy": -7.59, "intermolecular_energy": -8.79, "internal_energy": -1.65, "cluster_size": 16, "cluster_id": 4, "rank_in_cluster": 9}

>  <energy>  (50) 
-7.51

>  <cluster_rmsd>  (50) 
0.18

>  <cluster>  (50) 
4

$$$$
