
     RDKit          3D

 51 54  0  0  0  0  0  0  0  0999 V2000
  139.1710   71.0920  221.1430 O   0  0  0  0  0  0  0  0  0  0  0  0
  139.3870   71.6850  222.2300 C   0  0  0  0  0  0  0  0  0  0  0  0
  139.4450   73.1250  222.2590 N   0  0  0  0  0  0  0  0  0  0  0  0
  139.2460   73.8180  221.0040 C   0  0  0  0  0  0  0  0  0  0  0  0
  140.3830   73.5560  220.1100 C   0  0  0  0  0  0  0  0  0  0  0  0
  140.4750   72.5310  219.3660 O   0  0  0  0  0  0  0  0  0  0  0  0
  141.4510   74.4890  220.0580 N   0  0  0  0  0  0  0  0  0  0  0  0
  142.7790   74.3390  220.6310 C   0  0  0  0  0  0  0  0  0  0  0  0
  143.7010   75.2640  219.8590 C   0  0  0  0  0  0  0  0  0  0  0  0
  142.8140   75.7570  218.7270 C   0  0  0  0  0  0  0  0  0  0  0  0
  141.4770   75.8090  219.4240 C   0  0  2  0  0  0  0  0  0  0  0  0
  141.4460   76.8750  220.4330 C   0  0  0  0  0  0  0  0  0  0  0  0
  141.8930   78.1500  220.2710 C   0  0  0  0  0  0  0  0  0  0  0  0
  141.8300   79.0900  221.2670 C   0  0  0  0  0  0  0  0  0  0  0  0
  141.2880   78.7510  222.5080 C   0  0  0  0  0  0  0  0  0  0  0  0
  141.2210   79.7760  223.5890 C   0  0  0  0  0  0  0  0  0  0  0  0
  140.0130   79.7650  224.2410 F   0  0  0  0  0  0  0  0  0  0  0  0
  141.4200   81.0220  223.0340 F   0  0  0  0  0  0  0  0  0  0  0  0
  142.1800   79.4770  224.5610 F   0  0  0  0  0  0  0  0  0  0  0  0
  140.8270   77.4700  222.7040 C   0  0  0  0  0  0  0  0  0  0  0  0
  140.9070   76.5510  221.6790 C   0  0  0  0  0  0  0  0  0  0  0  0
  139.5830   70.9440  223.4720 C   0  0  0  0  0  0  0  0  0  0  0  0
  139.1570   69.6330  223.5360 C   0  0  0  0  0  0  0  0  0  0  0  0
  139.2940   68.8460  224.6610 C   0  0  0  0  0  0  0  0  0  0  0  0
  139.8940   69.4370  225.7600 C   0  0  0  0  0  0  0  0  0  0  0  0
  140.0370   68.6610  226.8910 C   0  0  0  0  0  0  0  0  0  0  0  0
  140.6380   69.2470  228.0000 C   0  0  0  0  0  0  0  0  0  0  0  0
  140.7910   68.4940  229.1390 F   0  0  0  0  0  0  0  0  0  0  0  0
  141.0680   70.5640  227.9450 C   0  0  0  0  0  0  0  0  0  0  0  0
  140.9260   71.3420  226.8140 C   0  0  0  0  0  0  0  0  0  0  0  0
  140.3290   70.7630  225.7090 C   0  0  0  0  0  0  0  0  0  0  0  0
  140.1630   71.4870  224.5630 N   0  0  0  0  0  0  0  0  0  0  0  0
  139.6270   73.6320  223.1680 H   0  0  0  0  0  0  0  0  0  0  0  0
  138.3191   73.4608  220.5316 H   0  0  0  0  0  0  0  0  0  0  0  0
  139.1708   74.8992  221.1918 H   0  0  0  0  0  0  0  0  0  0  0  0
  142.7657   74.6199  221.6945 H   0  0  0  0  0  0  0  0  0  0  0  0
  143.1212   73.2958  220.5622 H   0  0  0  0  0  0  0  0  0  0  0  0
  144.0413   76.0996  220.4882 H   0  0  0  0  0  0  0  0  0  0  0  0
  144.6194   74.7701  219.5088 H   0  0  0  0  0  0  0  0  0  0  0  0
  143.1249   76.7504  218.3713 H   0  0  0  0  0  0  0  0  0  0  0  0
  142.8346   75.1297  217.8236 H   0  0  0  0  0  0  0  0  0  0  0  0
  140.6244   76.0199  218.7617 H   0  0  0  0  0  0  0  0  0  0  0  0
  142.3228   78.4385  219.3004 H   0  0  0  0  0  0  0  0  0  0  0  0
  142.2055   80.1084  221.0888 H   0  0  0  0  0  0  0  0  0  0  0  0
  140.3965   77.1800  223.6738 H   0  0  0  0  0  0  0  0  0  0  0  0
  140.5342   75.5301  221.8488 H   0  0  0  0  0  0  0  0  0  0  0  0
  138.6844   69.1933  222.6453 H   0  0  0  0  0  0  0  0  0  0  0  0
  138.9447   67.8032  224.6836 H   0  0  0  0  0  0  0  0  0  0  0  0
  139.6889   67.6178  226.9152 H   0  0  0  0  0  0  0  0  0  0  0  0
  141.5396   71.0050  228.8356 H   0  0  0  0  0  0  0  0  0  0  0  0
  141.2750   72.3849  226.7922 H   0  0  0  0  0  0  0  0  0  0  0  0
  1  2  2  0
  2  3  1  0
  3  4  1  0
  4  5  1  0
  5  6  2  0
  5  7  1  0
  7  8  1  0
  8  9  1  0
  9 10  1  0
 10 11  1  0
 11 12  1  0
 12 13  2  0
 13 14  1  0
 14 15  2  0
 15 16  1  0
 16 17  1  0
 16 18  1  0
 16 19  1  0
 15 20  1  0
 20 21  2  0
  2 22  1  0
 22 23  2  0
 23 24  1  0
 24 25  2  0
 25 26  1  0
 26 27  2  0
 27 28  1  0
 27 29  1  0
 29 30  2  0
 30 31  1  0
 31 32  2  0
 11  7  1  0
 21 12  1  0
 32 22  1  0
 31 25  1  0
  3 33  1  0
  4 34  1  0
  4 35  1  0
  8 36  1  0
  8 37  1  0
  9 38  1  0
  9 39  1  0
 10 40  1  0
 10 41  1  0
 11 42  1  6
 13 43  1  0
 14 44  1  0
 20 45  1  0
 21 46  1  0
 23 47  1  0
 24 48  1  0
 26 49  1  0
 29 50  1  0
 30 51  1  0
M  END
>  <smiles>  (1) 
O=C(NCC(=O)N1CCCC1c1ccc(C(F)(F)F)cc1)c1ccc2cc(F)ccc2n1

>  <score_type>  (1) 
oracle

>  <origin>  (1) 
autodockgpu

>  <m_score__min__energy>  (1) 
-8.8699999999999992

>  <m_primary>  (1) 
energy

>  <rmsd>  (1) 
2.1819187856975435

>  <m_score__min__rmsd>  (1) 
2.1819187856975435

>  <meeko>  (1) 
{"free_energy": -7.94, "intermolecular_energy": -9.73, "internal_energy": -1.47, "cluster_size": 7, "cluster_id": 2, "rank_in_cluster": 7}

>  <energy>  (1) 
-8.87

>  <cluster_rmsd>  (1) 
0.0

>  <cluster>  (1) 
1

$$$$

     RDKit          3D

 51 54  0  0  0  0  0  0  0  0999 V2000
  139.7340   70.8510  221.5680 O   0  0  0  0  0  0  0  0  0  0  0  0
  139.7880   71.6170  222.5620 C   0  0  0  0  0  0  0  0  0  0  0  0
  139.6130   73.0370  222.3810 N   0  0  0  0  0  0  0  0  0  0  0  0
  139.3790   73.5050  221.0310 C   0  0  0  0  0  0  0  0  0  0  0  0
  140.5760   73.2640  220.2110 C   0  0  0  0  0  0  0  0  0  0  0  0
  140.7970   72.1830  219.5840 O   0  0  0  0  0  0  0  0  0  0  0  0
  141.5540   74.2870  220.1000 N   0  0  0  0  0  0  0  0  0  0  0  0
  142.9370   74.2330  220.5470 C   0  0  0  0  0  0  0  0  0  0  0  0
  143.7040   75.2560  219.7310 C   0  0  0  0  0  0  0  0  0  0  0  0
  142.6790   75.7060  218.7020 C   0  0  0  0  0  0  0  0  0  0  0  0
  141.4120   75.6220  219.5170 C   0  0  2  0  0  0  0  0  0  0  0  0
  141.3870   76.6510  220.5630 C   0  0  0  0  0  0  0  0  0  0  0  0
  141.0200   76.4720  221.8620 C   0  0  0  0  0  0  0  0  0  0  0  0
  141.0220   77.4900  222.7800 C   0  0  0  0  0  0  0  0  0  0  0  0
  141.4140   78.7730  222.3940 C   0  0  0  0  0  0  0  0  0  0  0  0
  141.4150   79.8770  223.3960 C   0  0  0  0  0  0  0  0  0  0  0  0
  140.1460   80.2980  223.7060 F   0  0  0  0  0  0  0  0  0  0  0  0
  142.1290   80.9400  222.8850 F   0  0  0  0  0  0  0  0  0  0  0  0
  141.9630   79.4060  224.5920 F   0  0  0  0  0  0  0  0  0  0  0  0
  141.7900   78.9870  221.0890 C   0  0  0  0  0  0  0  0  0  0  0  0
  141.7750   77.9390  220.1920 C   0  0  0  0  0  0  0  0  0  0  0  0
  140.0270   71.1000  223.9060 C   0  0  0  0  0  0  0  0  0  0  0  0
  140.7030   71.8920  224.8100 C   0  0  0  0  0  0  0  0  0  0  0  0
  140.9800   71.4970  226.1040 C   0  0  0  0  0  0  0  0  0  0  0  0
  140.5400   70.2380  226.4740 C   0  0  0  0  0  0  0  0  0  0  0  0
  140.8100   69.8320  227.7630 C   0  0  0  0  0  0  0  0  0  0  0  0
  140.3720   68.5670  228.1440 C   0  0  0  0  0  0  0  0  0  0  0  0
  140.6300   68.1400  229.4240 F   0  0  0  0  0  0  0  0  0  0  0  0
  139.6930   67.7640  227.2400 C   0  0  0  0  0  0  0  0  0  0  0  0
  139.4210   68.1690  225.9490 C   0  0  0  0  0  0  0  0  0  0  0  0
  139.8550   69.4260  225.5680 C   0  0  0  0  0  0  0  0  0  0  0  0
  139.6130   69.8770  224.3020 N   0  0  0  0  0  0  0  0  0  0  0  0
  139.6570   73.6880  223.2110 H   0  0  0  0  0  0  0  0  0  0  0  0
  138.5242   72.9640  220.5990 H   0  0  0  0  0  0  0  0  0  0  0  0
  139.1605   74.5829  221.0507 H   0  0  0  0  0  0  0  0  0  0  0  0
  142.9985   74.4797  221.6172 H   0  0  0  0  0  0  0  0  0  0  0  0
  143.3561   73.2253  220.4096 H   0  0  0  0  0  0  0  0  0  0  0  0
  144.0311   76.0982  220.3584 H   0  0  0  0  0  0  0  0  0  0  0  0
  144.6233   74.8527  219.2813 H   0  0  0  0  0  0  0  0  0  0  0  0
  142.8730   76.7328  218.3584 H   0  0  0  0  0  0  0  0  0  0  0  0
  142.6680   75.1110  217.7769 H   0  0  0  0  0  0  0  0  0  0  0  0
  140.4869   75.7782  218.9427 H   0  0  0  0  0  0  0  0  0  0  0  0
  140.7090   75.4686  222.1883 H   0  0  0  0  0  0  0  0  0  0  0  0
  140.7154   77.2964  223.8185 H   0  0  0  0  0  0  0  0  0  0  0  0
  142.1015   79.9898  220.7614 H   0  0  0  0  0  0  0  0  0  0  0  0
  142.0786   78.1246  219.1511 H   0  0  0  0  0  0  0  0  0  0  0  0
  141.0383   72.8878  224.4843 H   0  0  0  0  0  0  0  0  0  0  0  0
  141.5223   72.1492  226.8044 H   0  0  0  0  0  0  0  0  0  0  0  0
  141.3515   70.4835  228.4647 H   0  0  0  0  0  0  0  0  0  0  0  0
  139.3588   66.7673  227.5639 H   0  0  0  0  0  0  0  0  0  0  0  0
  138.8791   67.5163  225.2488 H   0  0  0  0  0  0  0  0  0  0  0  0
  1  2  2  0
  2  3  1  0
  3  4  1  0
  4  5  1  0
  5  6  2  0
  5  7  1  0
  7  8  1  0
  8  9  1  0
  9 10  1  0
 10 11  1  0
 11 12  1  0
 12 13  2  0
 13 14  1  0
 14 15  2  0
 15 16  1  0
 16 17  1  0
 16 18  1  0
 16 19  1  0
 15 20  1  0
 20 21  2  0
  2 22  1  0
 22 23  2  0
 23 24  1  0
 24 25  2  0
 25 26  1  0
 26 27  2  0
 27 28  1  0
 27 29  1  0
 29 30  2  0
 30 31  1  0
 31 32  2  0
 11  7  1  0
 21 12  1  0
 32 22  1  0
 31 25  1  0
  3 33  1  0
  4 34  1  0
  4 35  1  0
  8 36  1  0
  8 37  1  0
  9 38  1  0
  9 39  1  0
 10 40  1  0
 10 41  1  0
 11 42  1  6
 13 43  1  0
 14 44  1  0
 20 45  1  0
 21 46  1  0
 23 47  1  0
 24 48  1  0
 26 49  1  0
 29 50  1  0
 30 51  1  0
M  END
>  <smiles>  (2) 
O=C(NCC(=O)N1CCCC1c1ccc(C(F)(F)F)cc1)c1ccc2cc(F)ccc2n1

>  <score_type>  (2) 
oracle

>  <origin>  (2) 
autodockgpu

>  <m_score__min__energy>  (2) 
-8.8699999999999992

>  <m_primary>  (2) 
energy

>  <rmsd>  (2) 
3.1419456190357584

>  <m_score__min__rmsd>  (2) 
3.1419456190357584

>  <meeko>  (2) 
{"free_energy": -8.21, "intermolecular_energy": -10.0, "internal_energy": -1.34, "cluster_size": 7, "cluster_id": 2, "rank_in_cluster": 3}

>  <energy>  (2) 
-8.78

>  <cluster_rmsd>  (2) 
0.2

>  <cluster>  (2) 
1

$$$$

     RDKit          3D

 51 54  0  0  0  0  0  0  0  0999 V2000
  138.2780   70.8900  221.4300 O   0  0  0  0  0  0  0  0  0  0  0  0
  138.7460   71.5350  222.4020 C   0  0  0  0  0  0  0  0  0  0  0  0
  138.8760   72.9680  222.3120 N   0  0  0  0  0  0  0  0  0  0  0  0
  138.4490   73.5920  221.0770 C   0  0  0  0  0  0  0  0  0  0  0  0
  139.1770   74.8550  220.8850 C   0  0  0  0  0  0  0  0  0  0  0  0
  140.3260   74.9340  220.3520 O   0  0  0  0  0  0  0  0  0  0  0  0
  138.5780   76.0690  221.3130 N   0  0  0  0  0  0  0  0  0  0  0  0
  137.8930   77.0500  220.4880 C   0  0  0  0  0  0  0  0  0  0  0  0
  136.9630   77.8250  221.4040 C   0  0  0  0  0  0  0  0  0  0  0  0
  137.0640   77.0600  222.7140 C   0  0  0  0  0  0  0  0  0  0  0  0
  138.5070   76.6200  222.6680 C   0  0  2  0  0  0  0  0  0  0  0  0
  139.4150   77.7650  222.8160 C   0  0  0  0  0  0  0  0  0  0  0  0
  139.1280   78.9470  223.4270 C   0  0  0  0  0  0  0  0  0  0  0  0
  140.0340   79.9710  223.5220 C   0  0  0  0  0  0  0  0  0  0  0  0
  141.3120   79.8200  222.9820 C   0  0  0  0  0  0  0  0  0  0  0  0
  142.2950   80.9360  223.0880 C   0  0  0  0  0  0  0  0  0  0  0  0
  143.5920   80.4860  223.1080 F   0  0  0  0  0  0  0  0  0  0  0  0
  142.0460   81.6390  224.2470 F   0  0  0  0  0  0  0  0  0  0  0  0
  142.1910   81.7450  221.9530 F   0  0  0  0  0  0  0  0  0  0  0  0
  141.6340   78.6370  222.3580 C   0  0  0  0  0  0  0  0  0  0  0  0
  140.6960   77.6290  222.2800 C   0  0  0  0  0  0  0  0  0  0  0  0
  139.1630   70.8630  223.6280 C   0  0  0  0  0  0  0  0  0  0  0  0
  138.9740   69.5000  223.7350 C   0  0  0  0  0  0  0  0  0  0  0  0
  139.3330   68.7700  224.8490 C   0  0  0  0  0  0  0  0  0  0  0  0
  139.9090   69.4770  225.8920 C   0  0  0  0  0  0  0  0  0  0  0  0
  140.2720   68.7590  227.0120 C   0  0  0  0  0  0  0  0  0  0  0  0
  140.8520   69.4600  228.0650 C   0  0  0  0  0  0  0  0  0  0  0  0
  141.2210   68.7660  229.1910 F   0  0  0  0  0  0  0  0  0  0  0  0
  141.0440   70.8300  227.9660 C   0  0  0  0  0  0  0  0  0  0  0  0
  140.6820   71.5500  226.8460 C   0  0  0  0  0  0  0  0  0  0  0  0
  140.1060   70.8550  225.7970 C   0  0  0  0  0  0  0  0  0  0  0  0
  139.7270   71.5180  224.6650 N   0  0  0  0  0  0  0  0  0  0  0  0
  139.2680   73.5180  223.1230 H   0  0  0  0  0  0  0  0  0  0  0  0
  138.6586   72.9169  220.2342 H   0  0  0  0  0  0  0  0  0  0  0  0
  137.3693   73.7965  221.1253 H   0  0  0  0  0  0  0  0  0  0  0  0
  138.6227   77.7311  220.0258 H   0  0  0  0  0  0  0  0  0  0  0  0
  137.3307   76.5603  219.6793 H   0  0  0  0  0  0  0  0  0  0  0  0
  137.3021   78.8644  221.5252 H   0  0  0  0  0  0  0  0  0  0  0  0
  135.9346   77.8966  221.0202 H   0  0  0  0  0  0  0  0  0  0  0  0
  136.8653   77.7094  223.5794 H   0  0  0  0  0  0  0  0  0  0  0  0
  136.3389   76.2398  222.8218 H   0  0  0  0  0  0  0  0  0  0  0  0
  138.7980   75.9214  223.4663 H   0  0  0  0  0  0  0  0  0  0  0  0
  138.1275   79.0861  223.8626 H   0  0  0  0  0  0  0  0  0  0  0  0
  139.7545   80.9097  224.0227 H   0  0  0  0  0  0  0  0  0  0  0  0
  142.6346   78.4958  221.9235 H   0  0  0  0  0  0  0  0  0  0  0  0
  140.9664   76.6877  221.7792 H   0  0  0  0  0  0  0  0  0  0  0  0
  138.5137   68.9688  222.8889 H   0  0  0  0  0  0  0  0  0  0  0  0
  139.1705   67.6836  224.9062 H   0  0  0  0  0  0  0  0  0  0  0  0
  140.1092   67.6727  227.0708 H   0  0  0  0  0  0  0  0  0  0  0  0
  141.5022   71.3627  228.8123 H   0  0  0  0  0  0  0  0  0  0  0  0
  140.8452   72.6363  226.7890 H   0  0  0  0  0  0  0  0  0  0  0  0
  1  2  2  0
  2  3  1  0
  3  4  1  0
  4  5  1  0
  5  6  2  0
  5  7  1  0
  7  8  1  0
  8  9  1  0
  9 10  1  0
 10 11  1  0
 11 12  1  0
 12 13  2  0
 13 14  1  0
 14 15  2  0
 15 16  1  0
 16 17  1  0
 16 18  1  0
 16 19  1  0
 15 20  1  0
 20 21  2  0
  2 22  1  0
 22 23  2  0
 23 24  1  0
 24 25  2  0
 25 26  1  0
 26 27  2  0
 27 28  1  0
 27 29  1  0
 29 30  2  0
 30 31  1  0
 31 32  2  0
 11  7  1  0
 21 12  1  0
 32 22  1  0
 31 25  1  0
  3 33  1  0
  4 34  1  0
  4 35  1  0
  8 36  1  0
  8 37  1  0
  9 38  1  0
  9 39  1  0
 10 40  1  0
 10 41  1  0
 11 42  1  1
 13 43  1  0
 14 44  1  0
 20 45  1  0
 21 46  1  0
 23 47  1  0
 24 48  1  0
 26 49  1  0
 29 50  1  0
 30 51  1  0
M  END
>  <smiles>  (3) 
O=C(NCC(=O)N1CCCC1c1ccc(C(F)(F)F)cc1)c1ccc2cc(F)ccc2n1

>  <score_type>  (3) 
oracle

>  <origin>  (3) 
autodockgpu

>  <m_score__min__energy>  (3) 
-8.8699999999999992

>  <m_primary>  (3) 
energy

>  <rmsd>  (3) 
2.723873040547799

>  <m_score__min__rmsd>  (3) 
2.723873040547799

>  <meeko>  (3) 
{"free_energy": -7.86, "intermolecular_energy": -9.65, "internal_energy": -1.52, "cluster_size": 34, "cluster_id": 1, "rank_in_cluster": 31}

>  <energy>  (3) 
-8.76

>  <cluster_rmsd>  (3) 
0.2

>  <cluster>  (3) 
1

$$$$

     RDKit          3D

 51 54  0  0  0  0  0  0  0  0999 V2000
  140.5780   71.3580  221.2720 O   0  0  0  0  0  0  0  0  0  0  0  0
  140.2030   71.9070  222.3390 C   0  0  0  0  0  0  0  0  0  0  0  0
  139.8850   73.3130  222.3460 N   0  0  0  0  0  0  0  0  0  0  0  0
  140.0210   74.0250  221.0920 C   0  0  0  0  0  0  0  0  0  0  0  0
  141.4450   74.2350  220.7960 C   0  0  0  0  0  0  0  0  0  0  0  0
  142.3580   73.4010  221.0860 O   0  0  0  0  0  0  0  0  0  0  0  0
  141.8470   75.4330  220.1480 N   0  0  0  0  0  0  0  0  0  0  0  0
  143.1930   75.8030  219.7390 C   0  0  0  0  0  0  0  0  0  0  0  0
  143.0510   76.8260  218.6280 C   0  0  0  0  0  0  0  0  0  0  0  0
  141.5560   76.8200  218.3520 C   0  0  0  0  0  0  0  0  0  0  0  0
  141.0180   76.5680  219.7390 C   0  0  2  0  0  0  0  0  0  0  0  0
  141.2460   77.7250  220.6130 C   0  0  0  0  0  0  0  0  0  0  0  0
  141.5910   78.9810  220.2160 C   0  0  0  0  0  0  0  0  0  0  0  0
  141.7880   80.0100  221.1000 C   0  0  0  0  0  0  0  0  0  0  0  0
  141.6330   79.7890  222.4700 C   0  0  0  0  0  0  0  0  0  0  0  0
  141.8480   80.9110  223.4270 C   0  0  0  0  0  0  0  0  0  0  0  0
  142.9220   80.6910  224.2530 F   0  0  0  0  0  0  0  0  0  0  0  0
  140.7140   81.0630  224.1960 F   0  0  0  0  0  0  0  0  0  0  0  0
  142.1520   82.0710  222.7090 F   0  0  0  0  0  0  0  0  0  0  0  0
  141.2860   78.5310  222.9040 C   0  0  0  0  0  0  0  0  0  0  0  0
  141.0960   77.5190  221.9860 C   0  0  0  0  0  0  0  0  0  0  0  0
  140.0810   71.1480  223.5800 C   0  0  0  0  0  0  0  0  0  0  0  0
  139.4880   69.9040  223.5400 C   0  0  0  0  0  0  0  0  0  0  0  0
  139.3240   69.1070  224.6550 C   0  0  0  0  0  0  0  0  0  0  0  0
  139.7910   69.6170  225.8540 C   0  0  0  0  0  0  0  0  0  0  0  0
  139.6340   68.8310  226.9760 C   0  0  0  0  0  0  0  0  0  0  0  0
  140.1000   69.3360  228.1850 C   0  0  0  0  0  0  0  0  0  0  0  0
  139.9540   68.5700  229.3170 F   0  0  0  0  0  0  0  0  0  0  0  0
  140.6970   70.5860  228.2340 C   0  0  0  0  0  0  0  0  0  0  0  0
  140.8560   71.3740  227.1130 C   0  0  0  0  0  0  0  0  0  0  0  0
  140.3940   70.8750  225.9080 C   0  0  0  0  0  0  0  0  0  0  0  0
  140.5250   71.6130  224.7670 N   0  0  0  0  0  0  0  0  0  0  0  0
  139.5700   73.7820  223.2380 H   0  0  0  0  0  0  0  0  0  0  0  0
  139.5624   73.4352  220.2846 H   0  0  0  0  0  0  0  0  0  0  0  0
  139.5164   74.9994  221.1687 H   0  0  0  0  0  0  0  0  0  0  0  0
  143.7395   76.2399  220.5878 H   0  0  0  0  0  0  0  0  0  0  0  0
  143.7553   74.9228  219.3939 H   0  0  0  0  0  0  0  0  0  0  0  0
  143.3887   77.8193  218.9588 H   0  0  0  0  0  0  0  0  0  0  0  0
  143.6580   76.5920  217.7410 H   0  0  0  0  0  0  0  0  0  0  0  0
  141.2133   77.7863  217.9534 H   0  0  0  0  0  0  0  0  0  0  0  0
  141.2335   76.0883  217.5967 H   0  0  0  0  0  0  0  0  0  0  0  0
  139.9339   76.3871  219.7836 H   0  0  0  0  0  0  0  0  0  0  0  0
  141.7169   79.1781  219.1412 H   0  0  0  0  0  0  0  0  0  0  0  0
  142.0676   81.0078  220.7309 H   0  0  0  0  0  0  0  0  0  0  0  0
  141.1605   78.3326  223.9787 H   0  0  0  0  0  0  0  0  0  0  0  0
  140.8175   76.5179  222.3470 H   0  0  0  0  0  0  0  0  0  0  0  0
  139.1276   69.5278  222.5712 H   0  0  0  0  0  0  0  0  0  0  0  0
  138.8469   68.1178  224.5938 H   0  0  0  0  0  0  0  0  0  0  0  0
  139.1578   67.8412  226.9169 H   0  0  0  0  0  0  0  0  0  0  0  0
  141.0572   70.9635  229.2024 H   0  0  0  0  0  0  0  0  0  0  0  0
  141.3329   72.3633  227.1748 H   0  0  0  0  0  0  0  0  0  0  0  0
  1  2  2  0
  2  3  1  0
  3  4  1  0
  4  5  1  0
  5  6  2  0
  5  7  1  0
  7  8  1  0
  8  9  1  0
  9 10  1  0
 10 11  1  0
 11 12  1  0
 12 13  2  0
 13 14  1  0
 14 15  2  0
 15 16  1  0
 16 17  1  0
 16 18  1  0
 16 19  1  0
 15 20  1  0
 20 21  2  0
  2 22  1  0
 22 23  2  0
 23 24  1  0
 24 25  2  0
 25 26  1  0
 26 27  2  0
 27 28  1  0
 27 29  1  0
 29 30  2  0
 30 31  1  0
 31 32  2  0
 11  7  1  0
 21 12  1  0
 32 22  1  0
 31 25  1  0
  3 33  1  0
  4 34  1  0
  4 35  1  0
  8 36  1  0
  8 37  1  0
  9 38  1  0
  9 39  1  0
 10 40  1  0
 10 41  1  0
 11 42  1  6
 13 43  1  0
 14 44  1  0
 20 45  1  0
 21 46  1  0
 23 47  1  0
 24 48  1  0
 26 49  1  0
 29 50  1  0
 30 51  1  0
M  END
>  <smiles>  (4) 
O=C(NCC(=O)N1CCCC1c1ccc(C(F)(F)F)cc1)c1ccc2cc(F)ccc2n1

>  <score_type>  (4) 
oracle

>  <origin>  (4) 
autodockgpu

>  <m_score__min__energy>  (4) 
-8.8699999999999992

>  <m_primary>  (4) 
energy

>  <rmsd>  (4) 
2.0506446102614615

>  <m_score__min__rmsd>  (4) 
2.0506446102614615

>  <meeko>  (4) 
{"free_energy": -8.52, "intermolecular_energy": -10.31, "internal_energy": -1.28, "cluster_size": 34, "cluster_id": 1, "rank_in_cluster": 8}

>  <energy>  (4) 
-8.76

>  <cluster_rmsd>  (4) 
0.24

>  <cluster>  (4) 
1

$$$$

     RDKit          3D

 51 54  0  0  0  0  0  0  0  0999 V2000
  140.7410   72.0610  221.8800 O   0  0  0  0  0  0  0  0  0  0  0  0
  139.7890   71.9610  222.6960 C   0  0  0  0  0  0  0  0  0  0  0  0
  138.5800   72.7150  222.4790 N   0  0  0  0  0  0  0  0  0  0  0  0
  138.5340   73.5620  221.3050 C   0  0  0  0  0  0  0  0  0  0  0  0
  138.9010   74.9370  221.6750 C   0  0  0  0  0  0  0  0  0  0  0  0
  138.2080   75.6700  222.4460 O   0  0  0  0  0  0  0  0  0  0  0  0
  140.0960   75.4980  221.1530 N   0  0  0  0  0  0  0  0  0  0  0  0
  141.4570   75.0410  221.3870 C   0  0  0  0  0  0  0  0  0  0  0  0
  142.2950   75.5400  220.2240 C   0  0  0  0  0  0  0  0  0  0  0  0
  141.2530   76.1150  219.2780 C   0  0  0  0  0  0  0  0  0  0  0  0
  140.2480   76.6530  220.2670 C   0  0  2  0  0  0  0  0  0  0  0  0
  140.7870   77.8060  220.9960 C   0  0  0  0  0  0  0  0  0  0  0  0
  141.5210   78.8230  220.4680 C   0  0  0  0  0  0  0  0  0  0  0  0
  141.9920   79.8680  221.2200 C   0  0  0  0  0  0  0  0  0  0  0  0
  141.7190   79.9160  222.5890 C   0  0  0  0  0  0  0  0  0  0  0  0
  142.2310   81.0540  223.4040 C   0  0  0  0  0  0  0  0  0  0  0  0
  143.5520   80.8970  223.7420 F   0  0  0  0  0  0  0  0  0  0  0  0
  141.4810   81.1490  224.5570 F   0  0  0  0  0  0  0  0  0  0  0  0
  142.1700   82.2240  222.6420 F   0  0  0  0  0  0  0  0  0  0  0  0
  140.9800   78.9030  223.1540 C   0  0  0  0  0  0  0  0  0  0  0  0
  140.5230   77.8680  222.3660 C   0  0  0  0  0  0  0  0  0  0  0  0
  139.8820   71.0930  223.8650 C   0  0  0  0  0  0  0  0  0  0  0  0
  139.3930   69.8060  223.7760 C   0  0  0  0  0  0  0  0  0  0  0  0
  139.4320   68.9070  224.8220 C   0  0  0  0  0  0  0  0  0  0  0  0
  139.9960   69.3560  226.0030 C   0  0  0  0  0  0  0  0  0  0  0  0
  140.0400   68.4680  227.0570 C   0  0  0  0  0  0  0  0  0  0  0  0
  140.6060   68.9110  228.2490 C   0  0  0  0  0  0  0  0  0  0  0  0
  140.6600   68.0430  229.3120 F   0  0  0  0  0  0  0  0  0  0  0  0
  141.0970   70.2040  228.3470 C   0  0  0  0  0  0  0  0  0  0  0  0
  141.0540   71.0940  227.2940 C   0  0  0  0  0  0  0  0  0  0  0  0
  140.4940   70.6570  226.1080 C   0  0  0  0  0  0  0  0  0  0  0  0
  140.4240   71.4970  225.0330 N   0  0  0  0  0  0  0  0  0  0  0  0
  137.7760   72.6370  223.1590 H   0  0  0  0  0  0  0  0  0  0  0  0
  139.2418   73.1839  220.5526 H   0  0  0  0  0  0  0  0  0  0  0  0
  137.5159   73.5548  220.8886 H   0  0  0  0  0  0  0  0  0  0  0  0
  141.8377   75.4545  222.3326 H   0  0  0  0  0  0  0  0  0  0  0  0
  141.4973   73.9441  221.4596 H   0  0  0  0  0  0  0  0  0  0  0  0
  143.0039   76.3151  220.5506 H   0  0  0  0  0  0  0  0  0  0  0  0
  142.9129   74.7544  219.7647 H   0  0  0  0  0  0  0  0  0  0  0  0
  141.6725   76.9148  218.6500 H   0  0  0  0  0  0  0  0  0  0  0  0
  140.8432   75.3938  218.5555 H   0  0  0  0  0  0  0  0  0  0  0  0
  139.3119   77.0151  219.8168 H   0  0  0  0  0  0  0  0  0  0  0  0
  141.7461   78.8058  219.3914 H   0  0  0  0  0  0  0  0  0  0  0  0
  142.5830   80.6660  220.7468 H   0  0  0  0  0  0  0  0  0  0  0  0
  140.7544   78.9185  224.2305 H   0  0  0  0  0  0  0  0  0  0  0  0
  139.9316   77.0656  222.8312 H   0  0  0  0  0  0  0  0  0  0  0  0
  138.9498   69.4802  222.8234 H   0  0  0  0  0  0  0  0  0  0  0  0
  139.0352   67.8859  224.7221 H   0  0  0  0  0  0  0  0  0  0  0  0
  139.6424   67.4470  226.9594 H   0  0  0  0  0  0  0  0  0  0  0  0
  141.5373   70.5323  229.3001 H   0  0  0  0  0  0  0  0  0  0  0  0
  141.4511   72.1149  227.3944 H   0  0  0  0  0  0  0  0  0  0  0  0
  1  2  2  0
  2  3  1  0
  3  4  1  0
  4  5  1  0
  5  6  2  0
  5  7  1  0
  7  8  1  0
  8  9  1  0
  9 10  1  0
 10 11  1  0
 11 12  1  0
 12 13  2  0
 13 14  1  0
 14 15  2  0
 15 16  1  0
 16 17  1  0
 16 18  1  0
 16 19  1  0
 15 20  1  0
 20 21  2  0
  2 22  1  0
 22 23  2  0
 23 24  1  0
 24 25  2  0
 25 26  1  0
 26 27  2  0
 27 28  1  0
 27 29  1  0
 29 30  2  0
 30 31  1  0
 31 32  2  0
 11  7  1  0
 21 12  1  0
 32 22  1  0
 31 25  1  0
  3 33  1  0
  4 34  1  0
  4 35  1  0
  8 36  1  0
  8 37  1  0
  9 38  1  0
  9 39  1  0
 10 40  1  0
 10 41  1  0
 11 42  1  6
 13 43  1  0
 14 44  1  0
 20 45  1  0
 21 46  1  0
 23 47  1  0
 24 48  1  0
 26 49  1  0
 29 50  1  0
 30 51  1  0
M  END
>  <smiles>  (5) 
O=C(NCC(=O)N1CCCC1c1ccc(C(F)(F)F)cc1)c1ccc2cc(F)ccc2n1

>  <score_type>  (5) 
oracle

>  <origin>  (5) 
autodockgpu

>  <m_score__min__energy>  (5) 
-8.8699999999999992

>  <m_primary>  (5) 
energy

>  <rmsd>  (5) 
1.9205048632532573

>  <m_score__min__rmsd>  (5) 
1.9205048632532573

>  <meeko>  (5) 
{"free_energy": -8.17, "intermolecular_energy": -9.96, "internal_energy": -1.43, "cluster_size": 34, "cluster_id": 1, "rank_in_cluster": 23}

>  <energy>  (5) 
-8.66

>  <cluster_rmsd>  (5) 
0.24

>  <cluster>  (5) 
1

$$$$

     RDKit          3D

 51 54  0  0  0  0  0  0  0  0999 V2000
  139.4120   70.8670  221.4700 O   0  0  0  0  0  0  0  0  0  0  0  0
  139.5820   71.6310  222.4530 C   0  0  0  0  0  0  0  0  0  0  0  0
  139.4240   73.0550  222.2870 N   0  0  0  0  0  0  0  0  0  0  0  0
  139.0710   73.5290  220.9650 C   0  0  0  0  0  0  0  0  0  0  0  0
  140.2030   73.3250  220.0500 C   0  0  0  0  0  0  0  0  0  0  0  0
  140.2590   72.3900  219.1930 O   0  0  0  0  0  0  0  0  0  0  0  0
  141.3080   74.2140  220.1080 N   0  0  0  0  0  0  0  0  0  0  0  0
  142.5800   73.9940  220.7780 C   0  0  0  0  0  0  0  0  0  0  0  0
  143.5950   74.9000  220.1060 C   0  0  0  0  0  0  0  0  0  0  0  0
  142.8190   75.4600  218.9240 C   0  0  0  0  0  0  0  0  0  0  0  0
  141.4350   75.5480  219.5180 C   0  0  2  0  0  0  0  0  0  0  0  0
  141.3680   76.5880  220.5520 C   0  0  0  0  0  0  0  0  0  0  0  0
  140.8980   76.4340  221.8210 C   0  0  0  0  0  0  0  0  0  0  0  0
  140.8680   77.4600  222.7290 C   0  0  0  0  0  0  0  0  0  0  0  0
  141.3340   78.7250  222.3650 C   0  0  0  0  0  0  0  0  0  0  0  0
  141.3000   79.8380  223.3560 C   0  0  0  0  0  0  0  0  0  0  0  0
  141.7000   81.0320  222.8110 F   0  0  0  0  0  0  0  0  0  0  0  0
  142.1330   79.5220  224.4080 F   0  0  0  0  0  0  0  0  0  0  0  0
  139.9810   80.0340  223.7760 F   0  0  0  0  0  0  0  0  0  0  0  0
  141.8140   78.9130  221.0910 C   0  0  0  0  0  0  0  0  0  0  0  0
  141.8290   77.8580  220.2020 C   0  0  0  0  0  0  0  0  0  0  0  0
  139.9380   71.1080  223.7680 C   0  0  0  0  0  0  0  0  0  0  0  0
  140.6890   71.8960  224.6140 C   0  0  0  0  0  0  0  0  0  0  0  0
  141.0790   71.4960  225.8760 C   0  0  0  0  0  0  0  0  0  0  0  0
  140.6750   70.2340  226.2770 C   0  0  0  0  0  0  0  0  0  0  0  0
  141.0580   69.8220  227.5360 C   0  0  0  0  0  0  0  0  0  0  0  0
  140.6570   68.5540  227.9470 C   0  0  0  0  0  0  0  0  0  0  0  0
  141.0270   68.1220  229.1970 F   0  0  0  0  0  0  0  0  0  0  0  0
  139.9030   67.7540  227.1020 C   0  0  0  0  0  0  0  0  0  0  0  0
  139.5180   68.1650  225.8410 C   0  0  0  0  0  0  0  0  0  0  0  0
  139.9150   69.4250  225.4300 C   0  0  0  0  0  0  0  0  0  0  0  0
  139.5630   69.8820  224.1920 N   0  0  0  0  0  0  0  0  0  0  0  0
  139.5660   73.7050  223.1080 H   0  0  0  0  0  0  0  0  0  0  0  0
  138.1975   72.9708  220.5970 H   0  0  0  0  0  0  0  0  0  0  0  0
  138.8289   74.6009  221.0136 H   0  0  0  0  0  0  0  0  0  0  0  0
  142.4944   74.2478  221.8449 H   0  0  0  0  0  0  0  0  0  0  0  0
  142.8853   72.9397  220.7065 H   0  0  0  0  0  0  0  0  0  0  0  0
  143.9183   75.7037  220.7839 H   0  0  0  0  0  0  0  0  0  0  0  0
  144.5172   74.3772  219.8123 H   0  0  0  0  0  0  0  0  0  0  0  0
  143.1952   76.4490  218.6235 H   0  0  0  0  0  0  0  0  0  0  0  0
  142.8856   74.8575  218.0061 H   0  0  0  0  0  0  0  0  0  0  0  0
  140.6446   75.8108  218.7995 H   0  0  0  0  0  0  0  0  0  0  0  0
  140.5272   75.4455  222.1298 H   0  0  0  0  0  0  0  0  0  0  0  0
  140.4775   77.2873  223.7428 H   0  0  0  0  0  0  0  0  0  0  0  0
  142.1849   79.9011  220.7812 H   0  0  0  0  0  0  0  0  0  0  0  0
  142.2163   78.0230  219.1857 H   0  0  0  0  0  0  0  0  0  0  0  0
  140.9928   72.8941  224.2655 H   0  0  0  0  0  0  0  0  0  0  0  0
  141.6796   72.1461  226.5292 H   0  0  0  0  0  0  0  0  0  0  0  0
  141.6579   70.4710  228.1909 H   0  0  0  0  0  0  0  0  0  0  0  0
  139.6003   66.7550  227.4489 H   0  0  0  0  0  0  0  0  0  0  0  0
  138.9179   67.5146  225.1876 H   0  0  0  0  0  0  0  0  0  0  0  0
  1  2  2  0
  2  3  1  0
  3  4  1  0
  4  5  1  0
  5  6  2  0
  5  7  1  0
  7  8  1  0
  8  9  1  0
  9 10  1  0
 10 11  1  0
 11 12  1  0
 12 13  2  0
 13 14  1  0
 14 15  2  0
 15 16  1  0
 16 17  1  0
 16 18  1  0
 16 19  1  0
 15 20  1  0
 20 21  2  0
  2 22  1  0
 22 23  2  0
 23 24  1  0
 24 25  2  0
 25 26  1  0
 26 27  2  0
 27 28  1  0
 27 29  1  0
 29 30  2  0
 30 31  1  0
 31 32  2  0
 11  7  1  0
 21 12  1  0
 32 22  1  0
 31 25  1  0
  3 33  1  0
  4 34  1  0
  4 35  1  0
  8 36  1  0
  8 37  1  0
  9 38  1  0
  9 39  1  0
 10 40  1  0
 10 41  1  0
 11 42  1  6
 13 43  1  0
 14 44  1  0
 20 45  1  0
 21 46  1  0
 23 47  1  0
 24 48  1  0
 26 49  1  0
 29 50  1  0
 30 51  1  0
M  END
>  <smiles>  (6) 
O=C(NCC(=O)N1CCCC1c1ccc(C(F)(F)F)cc1)c1ccc2cc(F)ccc2n1

>  <score_type>  (6) 
oracle

>  <origin>  (6) 
autodockgpu

>  <m_score__min__energy>  (6) 
-8.8699999999999992

>  <m_primary>  (6) 
energy

>  <rmsd>  (6) 
3.1339561096224333

>  <m_score__min__rmsd>  (6) 
3.1339561096224333

>  <meeko>  (6) 
{"free_energy": -8.11, "intermolecular_energy": -9.9, "internal_energy": -1.44, "cluster_size": 7, "cluster_id": 2, "rank_in_cluster": 4}

>  <energy>  (6) 
-8.56

>  <cluster_rmsd>  (6) 
0.55

>  <cluster>  (6) 
1

$$$$

     RDKit          3D

 51 54  0  0  0  0  0  0  0  0999 V2000
  139.8970   73.6200  222.5360 O   0  0  0  0  0  0  0  0  0  0  0  0
  140.3580   72.4510  222.5430 C   0  0  0  0  0  0  0  0  0  0  0  0
  141.0530   71.9500  221.3830 N   0  0  0  0  0  0  0  0  0  0  0  0
  141.1800   72.8460  220.2530 C   0  0  0  0  0  0  0  0  0  0  0  0
  142.4380   73.5990  220.3600 C   0  0  0  0  0  0  0  0  0  0  0  0
  143.5090   73.1210  220.8460 O   0  0  0  0  0  0  0  0  0  0  0  0
  142.4820   74.9410  219.8970 N   0  0  0  0  0  0  0  0  0  0  0  0
  143.6670   75.7380  219.6230 C   0  0  0  0  0  0  0  0  0  0  0  0
  143.2520   76.8230  218.6460 C   0  0  0  0  0  0  0  0  0  0  0  0
  141.8310   76.4240  218.2810 C   0  0  0  0  0  0  0  0  0  0  0  0
  141.3640   75.8340  219.5890 C   0  0  2  0  0  0  0  0  0  0  0  0
  141.2220   76.8710  220.6170 C   0  0  0  0  0  0  0  0  0  0  0  0
  141.1230   76.6690  221.9590 C   0  0  0  0  0  0  0  0  0  0  0  0
  140.9910   77.6960  222.8560 C   0  0  0  0  0  0  0  0  0  0  0  0
  140.9550   79.0160  222.4020 C   0  0  0  0  0  0  0  0  0  0  0  0
  140.8120   80.1300  223.3810 C   0  0  0  0  0  0  0  0  0  0  0  0
  141.9140   80.2570  224.1890 F   0  0  0  0  0  0  0  0  0  0  0  0
  139.7040   79.8930  224.1660 F   0  0  0  0  0  0  0  0  0  0  0  0
  140.7090   81.3380  222.6850 F   0  0  0  0  0  0  0  0  0  0  0  0
  141.0520   79.2550  221.0510 C   0  0  0  0  0  0  0  0  0  0  0  0
  141.1840   78.1960  220.1770 C   0  0  0  0  0  0  0  0  0  0  0  0
  140.2060   71.5830  223.7060 C   0  0  0  0  0  0  0  0  0  0  0  0
  139.5360   70.3860  223.5560 C   0  0  0  0  0  0  0  0  0  0  0  0
  139.3370   69.4950  224.5910 C   0  0  0  0  0  0  0  0  0  0  0  0
  139.8510   69.8550  225.8250 C   0  0  0  0  0  0  0  0  0  0  0  0
  139.6590   68.9730  226.8680 C   0  0  0  0  0  0  0  0  0  0  0  0
  140.1720   69.3270  228.1120 C   0  0  0  0  0  0  0  0  0  0  0  0
  139.9930   68.4640  229.1660 F   0  0  0  0  0  0  0  0  0  0  0  0
  140.8460   70.5290  228.2710 C   0  0  0  0  0  0  0  0  0  0  0  0
  141.0390   71.4130  227.2290 C   0  0  0  0  0  0  0  0  0  0  0  0
  140.5310   71.0640  225.9900 C   0  0  0  0  0  0  0  0  0  0  0  0
  140.6930   71.9010  224.9240 N   0  0  0  0  0  0  0  0  0  0  0  0
  141.4440   70.9690  221.3800 H   0  0  0  0  0  0  0  0  0  0  0  0
  141.1810   72.2619  219.3209 H   0  0  0  0  0  0  0  0  0  0  0  0
  140.3333   73.5481  220.2464 H   0  0  0  0  0  0  0  0  0  0  0  0
  144.0425   76.1898  220.5530 H   0  0  0  0  0  0  0  0  0  0  0  0
  144.4713   75.1163  219.2028 H   0  0  0  0  0  0  0  0  0  0  0  0
  143.2751   77.8144  219.1220 H   0  0  0  0  0  0  0  0  0  0  0  0
  143.9189   76.9021  217.7748 H   0  0  0  0  0  0  0  0  0  0  0  0
  141.2267   77.2960  217.9905 H   0  0  0  0  0  0  0  0  0  0  0  0
  141.7535   75.7448  217.4192 H   0  0  0  0  0  0  0  0  0  0  0  0
  140.3807   75.3429  219.5444 H   0  0  0  0  0  0  0  0  0  0  0  0
  141.1501   75.6374  222.3398 H   0  0  0  0  0  0  0  0  0  0  0  0
  140.9135   77.4812  223.9320 H   0  0  0  0  0  0  0  0  0  0  0  0
  141.0244   80.2862  220.6691 H   0  0  0  0  0  0  0  0  0  0  0  0
  141.2618   78.4016  219.0992 H   0  0  0  0  0  0  0  0  0  0  0  0
  139.1409   70.1292  222.5621 H   0  0  0  0  0  0  0  0  0  0  0  0
  138.7978   68.5477  224.4431 H   0  0  0  0  0  0  0  0  0  0  0  0
  139.1204   68.0251  226.7217 H   0  0  0  0  0  0  0  0  0  0  0  0
  141.2413   70.7871  229.2645 H   0  0  0  0  0  0  0  0  0  0  0  0
  141.5772   72.3607  227.3779 H   0  0  0  0  0  0  0  0  0  0  0  0
  1  2  2  0
  2  3  1  0
  3  4  1  0
  4  5  1  0
  5  6  2  0
  5  7  1  0
  7  8  1  0
  8  9  1  0
  9 10  1  0
 10 11  1  0
 11 12  1  0
 12 13  2  0
 13 14  1  0
 14 15  2  0
 15 16  1  0
 16 17  1  0
 16 18  1  0
 16 19  1  0
 15 20  1  0
 20 21  2  0
  2 22  1  0
 22 23  2  0
 23 24  1  0
 24 25  2  0
 25 26  1  0
 26 27  2  0
 27 28  1  0
 27 29  1  0
 29 30  2  0
 30 31  1  0
 31 32  2  0
 11  7  1  0
 21 12  1  0
 32 22  1  0
 31 25  1  0
  3 33  1  0
  4 34  1  0
  4 35  1  0
  8 36  1  0
  8 37  1  0
  9 38  1  0
  9 39  1  0
 10 40  1  0
 10 41  1  0
 11 42  1  6
 13 43  1  0
 14 44  1  0
 20 45  1  0
 21 46  1  0
 23 47  1  0
 24 48  1  0
 26 49  1  0
 29 50  1  0
 30 51  1  0
M  END
>  <smiles>  (7) 
O=C(NCC(=O)N1CCCC1c1ccc(C(F)(F)F)cc1)c1ccc2cc(F)ccc2n1

>  <score_type>  (7) 
oracle

>  <origin>  (7) 
autodockgpu

>  <m_score__min__energy>  (7) 
-8.8699999999999992

>  <m_primary>  (7) 
energy

>  <rmsd>  (7) 
2.565937711683912

>  <m_score__min__rmsd>  (7) 
2.565937711683912

>  <meeko>  (7) 
{"free_energy": -8.21, "intermolecular_energy": -10.0, "internal_energy": -1.36, "cluster_size": 7, "cluster_id": 2, "rank_in_cluster": 2}

>  <energy>  (7) 
-8.54

>  <cluster_rmsd>  (7) 
1.83

>  <cluster>  (7) 
1

$$$$

     RDKit          3D

 51 54  0  0  0  0  0  0  0  0999 V2000
  139.9170   71.7070  221.6900 O   0  0  0  0  0  0  0  0  0  0  0  0
  139.1780   71.7390  222.7070 C   0  0  0  0  0  0  0  0  0  0  0  0
  138.0350   72.6160  222.7310 N   0  0  0  0  0  0  0  0  0  0  0  0
  137.8010   73.4260  221.5540 C   0  0  0  0  0  0  0  0  0  0  0  0
  138.7480   74.5510  221.5330 C   0  0  0  0  0  0  0  0  0  0  0  0
  138.8320   75.4200  222.4550 O   0  0  0  0  0  0  0  0  0  0  0  0
  139.6290   74.6920  220.4290 N   0  0  0  0  0  0  0  0  0  0  0  0
  139.6070   73.9400  219.1850 C   0  0  0  0  0  0  0  0  0  0  0  0
  140.3070   74.7910  218.1430 C   0  0  0  0  0  0  0  0  0  0  0  0
  140.5220   76.1090  218.8700 C   0  0  0  0  0  0  0  0  0  0  0  0
  140.7550   75.6150  220.2770 C   0  0  2  0  0  0  0  0  0  0  0  0
  142.0340   74.9020  220.3810 C   0  0  0  0  0  0  0  0  0  0  0  0
  142.2090   73.6140  220.7840 C   0  0  0  0  0  0  0  0  0  0  0  0
  143.4430   73.0210  220.8570 C   0  0  0  0  0  0  0  0  0  0  0  0
  144.5840   73.7450  220.5060 C   0  0  0  0  0  0  0  0  0  0  0  0
  145.9240   73.0960  220.5860 C   0  0  0  0  0  0  0  0  0  0  0  0
  146.8970   73.8360  219.9630 F   0  0  0  0  0  0  0  0  0  0  0  0
  145.8520   71.8550  219.9910 F   0  0  0  0  0  0  0  0  0  0  0  0
  146.3100   73.0120  221.9270 F   0  0  0  0  0  0  0  0  0  0  0  0
  144.4410   75.0500  220.0960 C   0  0  0  0  0  0  0  0  0  0  0  0
  143.1840   75.6140  220.0350 C   0  0  0  0  0  0  0  0  0  0  0  0
  139.4540   70.9030  223.8710 C   0  0  0  0  0  0  0  0  0  0  0  0
  139.1230   69.5650  223.8190 C   0  0  0  0  0  0  0  0  0  0  0  0
  139.3410   68.6900  224.8640 C   0  0  0  0  0  0  0  0  0  0  0  0
  139.9220   69.2200  226.0030 C   0  0  0  0  0  0  0  0  0  0  0  0
  140.1460   68.3560  227.0550 C   0  0  0  0  0  0  0  0  0  0  0  0
  140.7290   68.8800  228.2040 C   0  0  0  0  0  0  0  0  0  0  0  0
  140.9610   68.0380  229.2650 F   0  0  0  0  0  0  0  0  0  0  0  0
  141.0630   70.2240  228.2650 C   0  0  0  0  0  0  0  0  0  0  0  0
  140.8410   71.0900  227.2130 C   0  0  0  0  0  0  0  0  0  0  0  0
  140.2620   70.5730  226.0690 C   0  0  0  0  0  0  0  0  0  0  0  0
  140.0190   71.3850  224.9990 N   0  0  0  0  0  0  0  0  0  0  0  0
  137.4090   72.6500  223.5810 H   0  0  0  0  0  0  0  0  0  0  0  0
  137.9425   72.8115  220.6527 H   0  0  0  0  0  0  0  0  0  0  0  0
  136.7723   73.8149  221.5768 H   0  0  0  0  0  0  0  0  0  0  0  0
  140.1371   72.9845  219.3112 H   0  0  0  0  0  0  0  0  0  0  0  0
  138.5746   73.7141  218.8798 H   0  0  0  0  0  0  0  0  0  0  0  0
  141.2661   74.3424  217.8449 H   0  0  0  0  0  0  0  0  0  0  0  0
  139.7321   74.8974  217.2113 H   0  0  0  0  0  0  0  0  0  0  0  0
  141.3969   76.6496  218.4797 H   0  0  0  0  0  0  0  0  0  0  0  0
  139.6954   76.8276  218.7685 H   0  0  0  0  0  0  0  0  0  0  0  0
  140.8076   76.4075  221.0380 H   0  0  0  0  0  0  0  0  0  0  0  0
  141.3234   73.0240  221.0628 H   0  0  0  0  0  0  0  0  0  0  0  0
  143.5339   71.9770  221.1914 H   0  0  0  0  0  0  0  0  0  0  0  0
  145.3257   75.6415  219.8178 H   0  0  0  0  0  0  0  0  0  0  0  0
  143.0843   76.6580  219.7032 H   0  0  0  0  0  0  0  0  0  0  0  0
  138.6624   69.1759  222.8990 H   0  0  0  0  0  0  0  0  0  0  0  0
  139.0673   67.6268  224.7952 H   0  0  0  0  0  0  0  0  0  0  0  0
  139.8737   67.2924  226.9876 H   0  0  0  0  0  0  0  0  0  0  0  0
  141.5217   70.6148  229.1853 H   0  0  0  0  0  0  0  0  0  0  0  0
  141.1149   72.1531  227.2825 H   0  0  0  0  0  0  0  0  0  0  0  0
  1  2  2  0
  2  3  1  0
  3  4  1  0
  4  5  1  0
  5  6  2  0
  5  7  1  0
  7  8  1  0
  8  9  1  0
  9 10  1  0
 10 11  1  0
 11 12  1  0
 12 13  2  0
 13 14  1  0
 14 15  2  0
 15 16  1  0
 16 17  1  0
 16 18  1  0
 16 19  1  0
 15 20  1  0
 20 21  2  0
  2 22  1  0
 22 23  2  0
 23 24  1  0
 24 25  2  0
 25 26  1  0
 26 27  2  0
 27 28  1  0
 27 29  1  0
 29 30  2  0
 30 31  1  0
 31 32  2  0
 11  7  1  0
 21 12  1  0
 32 22  1  0
 31 25  1  0
  3 33  1  0
  4 34  1  0
  4 35  1  0
  8 36  1  0
  8 37  1  0
  9 38  1  0
  9 39  1  0
 10 40  1  0
 10 41  1  0
 11 42  1  1
 13 43  1  0
 14 44  1  0
 20 45  1  0
 21 46  1  0
 23 47  1  0
 24 48  1  0
 26 49  1  0
 29 50  1  0
 30 51  1  0
M  END
>  <smiles>  (8) 
O=C(NCC(=O)N1CCCC1c1ccc(C(F)(F)F)cc1)c1ccc2cc(F)ccc2n1

>  <score_type>  (8) 
oracle

>  <origin>  (8) 
autodockgpu

>  <m_score__min__energy>  (8) 
-8.8699999999999992

>  <m_primary>  (8) 
energy

>  <rmsd>  (8) 
1.2189052669240696

>  <m_score__min__rmsd>  (8) 
1.2189052669240696

>  <meeko>  (8) 
{"free_energy": -7.67, "intermolecular_energy": -9.46, "internal_energy": -1.61, "cluster_size": 7, "cluster_id": 3, "rank_in_cluster": 7}

>  <energy>  (8) 
-8.52

>  <cluster_rmsd>  (8) 
1.88

>  <cluster>  (8) 
1

$$$$

     RDKit          3D

 51 54  0  0  0  0  0  0  0  0999 V2000
  140.4640   71.4860  221.7320 O   0  0  0  0  0  0  0  0  0  0  0  0
  139.6600   71.5870  222.6930 C   0  0  0  0  0  0  0  0  0  0  0  0
  138.5960   72.5590  222.6340 N   0  0  0  0  0  0  0  0  0  0  0  0
  138.5180   73.3790  221.4430 C   0  0  0  0  0  0  0  0  0  0  0  0
  139.4660   74.4970  221.5510 C   0  0  0  0  0  0  0  0  0  0  0  0
  140.7160   74.3500  221.7180 O   0  0  0  0  0  0  0  0  0  0  0  0
  138.9790   75.8280  221.4650 N   0  0  0  0  0  0  0  0  0  0  0  0
  138.7510   76.6050  220.2580 C   0  0  0  0  0  0  0  0  0  0  0  0
  137.7310   77.6730  220.6060 C   0  0  0  0  0  0  0  0  0  0  0  0
  137.2990   77.2830  222.0110 C   0  0  0  0  0  0  0  0  0  0  0  0
  138.5920   76.7270  222.5540 C   0  0  2  0  0  0  0  0  0  0  0  0
  139.5900   77.7880  222.7370 C   0  0  0  0  0  0  0  0  0  0  0  0
  140.9110   77.7180  222.4160 C   0  0  0  0  0  0  0  0  0  0  0  0
  141.7800   78.7570  222.6210 C   0  0  0  0  0  0  0  0  0  0  0  0
  141.3170   79.9510  223.1780 C   0  0  0  0  0  0  0  0  0  0  0  0
  142.2660   81.0790  223.3980 C   0  0  0  0  0  0  0  0  0  0  0  0
  143.5730   80.6610  223.4280 F   0  0  0  0  0  0  0  0  0  0  0  0
  141.9620   81.6880  224.5970 F   0  0  0  0  0  0  0  0  0  0  0  0
  142.1750   81.9670  222.3220 F   0  0  0  0  0  0  0  0  0  0  0  0
  139.9880   80.0550  223.5130 C   0  0  0  0  0  0  0  0  0  0  0  0
  139.1420   78.9880  223.2930 C   0  0  0  0  0  0  0  0  0  0  0  0
  139.7780   70.7390  223.8740 C   0  0  0  0  0  0  0  0  0  0  0  0
  139.2820   69.4530  223.8180 C   0  0  0  0  0  0  0  0  0  0  0  0
  139.3430   68.5710  224.8780 C   0  0  0  0  0  0  0  0  0  0  0  0
  139.9400   69.0370  226.0370 C   0  0  0  0  0  0  0  0  0  0  0  0
  140.0080   68.1660  227.1040 C   0  0  0  0  0  0  0  0  0  0  0  0
  140.6070   68.6260  228.2720 C   0  0  0  0  0  0  0  0  0  0  0  0
  140.6850   67.7750  229.3490 F   0  0  0  0  0  0  0  0  0  0  0  0
  141.1070   69.9170  228.3370 C   0  0  0  0  0  0  0  0  0  0  0  0
  141.0410   70.7910  227.2700 C   0  0  0  0  0  0  0  0  0  0  0  0
  140.4470   70.3360  226.1060 C   0  0  0  0  0  0  0  0  0  0  0  0
  140.3530   71.1590  225.0200 N   0  0  0  0  0  0  0  0  0  0  0  0
  137.9160   72.6510  223.4370 H   0  0  0  0  0  0  0  0  0  0  0  0
  138.7691   72.7699  220.5621 H   0  0  0  0  0  0  0  0  0  0  0  0
  137.4970   73.7747  221.3382 H   0  0  0  0  0  0  0  0  0  0  0  0
  139.6898   77.0726  219.9264 H   0  0  0  0  0  0  0  0  0  0  0  0
  138.3868   75.9647  219.4411 H   0  0  0  0  0  0  0  0  0  0  0  0
  138.1866   78.6742  220.5953 H   0  0  0  0  0  0  0  0  0  0  0  0
  136.8953   77.7253  219.8927 H   0  0  0  0  0  0  0  0  0  0  0  0
  136.9586   78.1556  222.5878 H   0  0  0  0  0  0  0  0  0  0  0  0
  136.4486   76.5865  222.0515 H   0  0  0  0  0  0  0  0  0  0  0  0
  138.5044   76.2465  223.5396 H   0  0  0  0  0  0  0  0  0  0  0  0
  141.2970   76.7879  221.9733 H   0  0  0  0  0  0  0  0  0  0  0  0
  142.8402   78.6510  222.3475 H   0  0  0  0  0  0  0  0  0  0  0  0
  139.6008   80.9851  223.9546 H   0  0  0  0  0  0  0  0  0  0  0  0
  138.0804   79.0855  223.5642 H   0  0  0  0  0  0  0  0  0  0  0  0
  138.8146   69.1135  222.8819 H   0  0  0  0  0  0  0  0  0  0  0  0
  138.9383   67.5507  224.8057 H   0  0  0  0  0  0  0  0  0  0  0  0
  139.6036   67.1454  227.0340 H   0  0  0  0  0  0  0  0  0  0  0  0
  141.5736   70.2579  229.2730 H   0  0  0  0  0  0  0  0  0  0  0  0
  141.4457   71.8113  227.3426 H   0  0  0  0  0  0  0  0  0  0  0  0
  1  2  2  0
  2  3  1  0
  3  4  1  0
  4  5  1  0
  5  6  2  0
  5  7  1  0
  7  8  1  0
  8  9  1  0
  9 10  1  0
 10 11  1  0
 11 12  1  0
 12 13  2  0
 13 14  1  0
 14 15  2  0
 15 16  1  0
 16 17  1  0
 16 18  1  0
 16 19  1  0
 15 20  1  0
 20 21  2  0
  2 22  1  0
 22 23  2  0
 23 24  1  0
 24 25  2  0
 25 26  1  0
 26 27  2  0
 27 28  1  0
 27 29  1  0
 29 30  2  0
 30 31  1  0
 31 32  2  0
 11  7  1  0
 21 12  1  0
 32 22  1  0
 31 25  1  0
  3 33  1  0
  4 34  1  0
  4 35  1  0
  8 36  1  0
  8 37  1  0
  9 38  1  0
  9 39  1  0
 10 40  1  0
 10 41  1  0
 11 42  1  1
 13 43  1  0
 14 44  1  0
 20 45  1  0
 21 46  1  0
 23 47  1  0
 24 48  1  0
 26 49  1  0
 29 50  1  0
 30 51  1  0
M  END
>  <smiles>  (9) 
O=C(NCC(=O)N1CCCC1c1ccc(C(F)(F)F)cc1)c1ccc2cc(F)ccc2n1

>  <score_type>  (9) 
oracle

>  <origin>  (9) 
autodockgpu

>  <m_score__min__energy>  (9) 
-8.8699999999999992

>  <m_primary>  (9) 
energy

>  <rmsd>  (9) 
2.4339828979107008

>  <m_score__min__rmsd>  (9) 
2.4339828979107008

>  <meeko>  (9) 
{"free_energy": -8.76, "intermolecular_energy": -10.55, "internal_energy": -1.28, "cluster_size": 34, "cluster_id": 1, "rank_in_cluster": 3}

>  <energy>  (9) 
-8.46

>  <cluster_rmsd>  (9) 
0.63

>  <cluster>  (9) 
1

$$$$

     RDKit          3D

 51 54  0  0  0  0  0  0  0  0999 V2000
  139.2330   71.2560  221.1440 O   0  0  0  0  0  0  0  0  0  0  0  0
  139.4280   71.8360  222.2420 C   0  0  0  0  0  0  0  0  0  0  0  0
  139.4830   73.2760  222.2890 N   0  0  0  0  0  0  0  0  0  0  0  0
  139.3070   73.9840  221.0380 C   0  0  0  0  0  0  0  0  0  0  0  0
  140.4680   73.7450  220.1680 C   0  0  0  0  0  0  0  0  0  0  0  0
  140.6310   72.6900  219.4810 O   0  0  0  0  0  0  0  0  0  0  0  0
  141.4770   74.7390  220.0750 N   0  0  0  0  0  0  0  0  0  0  0  0
  142.8590   74.6330  220.5160 C   0  0  0  0  0  0  0  0  0  0  0  0
  143.6550   75.6490  219.7190 C   0  0  0  0  0  0  0  0  0  0  0  0
  142.6420   76.1520  218.7020 C   0  0  0  0  0  0  0  0  0  0  0  0
  141.3750   76.0900  219.5200 C   0  0  2  0  0  0  0  0  0  0  0  0
  141.3850   77.0970  220.5880 C   0  0  0  0  0  0  0  0  0  0  0  0
  141.0370   76.8970  221.8890 C   0  0  0  0  0  0  0  0  0  0  0  0
  141.0720   77.8950  222.8280 C   0  0  0  0  0  0  0  0  0  0  0  0
  141.4790   79.1790  222.4620 C   0  0  0  0  0  0  0  0  0  0  0  0
  141.5160   80.2610  223.4860 C   0  0  0  0  0  0  0  0  0  0  0  0
  142.0550   81.4240  222.9940 F   0  0  0  0  0  0  0  0  0  0  0  0
  142.2710   79.8340  224.5570 F   0  0  0  0  0  0  0  0  0  0  0  0
  140.2070   80.5780  223.8620 F   0  0  0  0  0  0  0  0  0  0  0  0
  141.8370   79.4150  221.1550 C   0  0  0  0  0  0  0  0  0  0  0  0
  141.7890   78.3860  220.2370 C   0  0  0  0  0  0  0  0  0  0  0  0
  139.6010   71.0800  223.4780 C   0  0  0  0  0  0  0  0  0  0  0  0
  139.1630   69.7730  223.5220 C   0  0  0  0  0  0  0  0  0  0  0  0
  139.2800   68.9730  224.6410 C   0  0  0  0  0  0  0  0  0  0  0  0
  139.8700   69.5480  225.7540 C   0  0  0  0  0  0  0  0  0  0  0  0
  139.9920   68.7590  226.8780 C   0  0  0  0  0  0  0  0  0  0  0  0
  140.5840   69.3280  228.0020 C   0  0  0  0  0  0  0  0  0  0  0  0
  140.7150   68.5610  229.1340 F   0  0  0  0  0  0  0  0  0  0  0  0
  141.0250   70.6420  227.9660 C   0  0  0  0  0  0  0  0  0  0  0  0
  140.9040   71.4330  226.8410 C   0  0  0  0  0  0  0  0  0  0  0  0
  140.3170   70.8700  225.7220 C   0  0  0  0  0  0  0  0  0  0  0  0
  140.1710   71.6070  224.5820 N   0  0  0  0  0  0  0  0  0  0  0  0
  139.6480   73.7720  223.2070 H   0  0  0  0  0  0  0  0  0  0  0  0
  138.3953   73.6240  220.5388 H   0  0  0  0  0  0  0  0  0  0  0  0
  139.2164   75.0619  221.2381 H   0  0  0  0  0  0  0  0  0  0  0  0
  142.9311   74.8550  221.5910 H   0  0  0  0  0  0  0  0  0  0  0  0
  143.2465   73.6160  220.3560 H   0  0  0  0  0  0  0  0  0  0  0  0
  144.0092   76.4675  220.3629 H   0  0  0  0  0  0  0  0  0  0  0  0
  144.5603   75.2269  219.2582 H   0  0  0  0  0  0  0  0  0  0  0  0
  142.8668   77.1792  218.3791 H   0  0  0  0  0  0  0  0  0  0  0  0
  142.6103   75.5774  217.7645 H   0  0  0  0  0  0  0  0  0  0  0  0
  140.4538   76.2868  218.9520 H   0  0  0  0  0  0  0  0  0  0  0  0
  140.7142   75.8924  222.1996 H   0  0  0  0  0  0  0  0  0  0  0  0
  140.7801   77.6845  223.8675 H   0  0  0  0  0  0  0  0  0  0  0  0
  142.1600   80.4192  220.8432 H   0  0  0  0  0  0  0  0  0  0  0  0
  142.0784   78.5881  219.1952 H   0  0  0  0  0  0  0  0  0  0  0  0
  138.6974   69.3470  222.6210 H   0  0  0  0  0  0  0  0  0  0  0  0
  138.9230   67.9326  224.6481 H   0  0  0  0  0  0  0  0  0  0  0  0
  139.6348   67.7186  226.8863 H   0  0  0  0  0  0  0  0  0  0  0  0
  141.4884   71.0701  228.8671 H   0  0  0  0  0  0  0  0  0  0  0  0
  141.2614   72.4733  226.8346 H   0  0  0  0  0  0  0  0  0  0  0  0
  1  2  2  0
  2  3  1  0
  3  4  1  0
  4  5  1  0
  5  6  2  0
  5  7  1  0
  7  8  1  0
  8  9  1  0
  9 10  1  0
 10 11  1  0
 11 12  1  0
 12 13  2  0
 13 14  1  0
 14 15  2  0
 15 16  1  0
 16 17  1  0
 16 18  1  0
 16 19  1  0
 15 20  1  0
 20 21  2  0
  2 22  1  0
 22 23  2  0
 23 24  1  0
 24 25  2  0
 25 26  1  0
 26 27  2  0
 27 28  1  0
 27 29  1  0
 29 30  2  0
 30 31  1  0
 31 32  2  0
 11  7  1  0
 21 12  1  0
 32 22  1  0
 31 25  1  0
  3 33  1  0
  4 34  1  0
  4 35  1  0
  8 36  1  0
  8 37  1  0
  9 38  1  0
  9 39  1  0
 10 40  1  0
 10 41  1  0
 11 42  1  6
 13 43  1  0
 14 44  1  0
 20 45  1  0
 21 46  1  0
 23 47  1  0
 24 48  1  0
 26 49  1  0
 29 50  1  0
 30 51  1  0
M  END
>  <smiles>  (10) 
O=C(NCC(=O)N1CCCC1c1ccc(C(F)(F)F)cc1)c1ccc2cc(F)ccc2n1

>  <score_type>  (10) 
oracle

>  <origin>  (10) 
autodockgpu

>  <m_score__min__energy>  (10) 
-8.8699999999999992

>  <m_primary>  (10) 
energy

>  <rmsd>  (10) 
2.1254540629857215

>  <m_score__min__rmsd>  (10) 
2.1254540629857215

>  <meeko>  (10) 
{"free_energy": -8.13, "intermolecular_energy": -9.92, "internal_energy": -1.49, "cluster_size": 34, "cluster_id": 1, "rank_in_cluster": 26}

>  <energy>  (10) 
-8.46

>  <cluster_rmsd>  (10) 
1.81

>  <cluster>  (10) 
1

$$$$

     RDKit          3D

 51 54  0  0  0  0  0  0  0  0999 V2000
  139.5990   70.6980  221.4330 O   0  0  0  0  0  0  0  0  0  0  0  0
  139.7280   71.2670  222.5460 C   0  0  0  0  0  0  0  0  0  0  0  0
  139.8120   72.7050  222.6080 N   0  0  0  0  0  0  0  0  0  0  0  0
  139.7430   73.4240  221.3530 C   0  0  0  0  0  0  0  0  0  0  0  0
  140.6650   74.5680  221.3880 C   0  0  0  0  0  0  0  0  0  0  0  0
  140.6600   75.4520  222.2990 O   0  0  0  0  0  0  0  0  0  0  0  0
  141.6270   74.7120  220.3540 N   0  0  0  0  0  0  0  0  0  0  0  0
  141.3810   74.7310  218.9210 C   0  0  0  0  0  0  0  0  0  0  0  0
  142.5490   75.4590  218.2820 C   0  0  0  0  0  0  0  0  0  0  0  0
  143.3170   75.9860  219.4840 C   0  0  0  0  0  0  0  0  0  0  0  0
  143.0770   74.8740  220.4760 C   0  0  2  0  0  0  0  0  0  0  0  0
  143.7770   73.6470  220.0760 C   0  0  0  0  0  0  0  0  0  0  0  0
  144.9590   73.5760  219.4050 C   0  0  0  0  0  0  0  0  0  0  0  0
  145.5490   72.3860  219.0660 C   0  0  0  0  0  0  0  0  0  0  0  0
  144.9330   71.1820  219.4130 C   0  0  0  0  0  0  0  0  0  0  0  0
  145.5770   69.8900  219.0430 C   0  0  0  0  0  0  0  0  0  0  0  0
  144.9560   68.8130  219.6250 F   0  0  0  0  0  0  0  0  0  0  0  0
  146.8950   69.9190  219.4460 F   0  0  0  0  0  0  0  0  0  0  0  0
  145.4560   69.6990  217.6640 F   0  0  0  0  0  0  0  0  0  0  0  0
  143.7370   71.2190  220.0910 C   0  0  0  0  0  0  0  0  0  0  0  0
  143.1730   72.4360  220.4160 C   0  0  0  0  0  0  0  0  0  0  0  0
  139.7940   70.5000  223.7860 C   0  0  0  0  0  0  0  0  0  0  0  0
  139.2300   69.2420  223.8180 C   0  0  0  0  0  0  0  0  0  0  0  0
  139.2380   68.4370  224.9390 C   0  0  0  0  0  0  0  0  0  0  0  0
  139.8530   68.9530  226.0670 C   0  0  0  0  0  0  0  0  0  0  0  0
  139.8680   68.1580  227.1940 C   0  0  0  0  0  0  0  0  0  0  0  0
  140.4830   68.6690  228.3330 C   0  0  0  0  0  0  0  0  0  0  0  0
  140.5100   67.8960  229.4680 F   0  0  0  0  0  0  0  0  0  0  0  0
  141.0510   69.9340  228.3090 C   0  0  0  0  0  0  0  0  0  0  0  0
  141.0380   70.7310  227.1820 C   0  0  0  0  0  0  0  0  0  0  0  0
  140.4270   70.2260  226.0480 C   0  0  0  0  0  0  0  0  0  0  0  0
  140.3840   70.9710  224.9050 N   0  0  0  0  0  0  0  0  0  0  0  0
  139.9210   73.1910  223.5390 H   0  0  0  0  0  0  0  0  0  0  0  0
  140.0256   72.7513  220.5298 H   0  0  0  0  0  0  0  0  0  0  0  0
  138.7166   73.7872  221.1964 H   0  0  0  0  0  0  0  0  0  0  0  0
  141.3189   73.7031  218.5343 H   0  0  0  0  0  0  0  0  0  0  0  0
  140.4305   75.2349  218.6917 H   0  0  0  0  0  0  0  0  0  0  0  0
  143.1675   74.7704  217.6876 H   0  0  0  0  0  0  0  0  0  0  0  0
  142.2390   76.2497  217.5829 H   0  0  0  0  0  0  0  0  0  0  0  0
  144.3873   76.1064  219.2606 H   0  0  0  0  0  0  0  0  0  0  0  0
  143.0010   76.9819  219.8279 H   0  0  0  0  0  0  0  0  0  0  0  0
  143.4337   75.0849  221.4950 H   0  0  0  0  0  0  0  0  0  0  0  0
  145.4619   74.5127  219.1229 H   0  0  0  0  0  0  0  0  0  0  0  0
  146.5051   72.3797  218.5221 H   0  0  0  0  0  0  0  0  0  0  0  0
  143.2324   70.2831  220.3729 H   0  0  0  0  0  0  0  0  0  0  0  0
  142.2172   72.4518  220.9602 H   0  0  0  0  0  0  0  0  0  0  0  0
  138.7498   68.8612  222.9045 H   0  0  0  0  0  0  0  0  0  0  0  0
  138.7795   67.4371  224.9364 H   0  0  0  0  0  0  0  0  0  0  0  0
  139.4109   67.1575  227.1926 H   0  0  0  0  0  0  0  0  0  0  0  0
  141.5299   70.3166  229.2224 H   0  0  0  0  0  0  0  0  0  0  0  0
  141.4965   71.7309  227.1854 H   0  0  0  0  0  0  0  0  0  0  0  0
  1  2  2  0
  2  3  1  0
  3  4  1  0
  4  5  1  0
  5  6  2  0
  5  7  1  0
  7  8  1  0
  8  9  1  0
  9 10  1  0
 10 11  1  0
 11 12  1  0
 12 13  2  0
 13 14  1  0
 14 15  2  0
 15 16  1  0
 16 17  1  0
 16 18  1  0
 16 19  1  0
 15 20  1  0
 20 21  2  0
  2 22  1  0
 22 23  2  0
 23 24  1  0
 24 25  2  0
 25 26  1  0
 26 27  2  0
 27 28  1  0
 27 29  1  0
 29 30  2  0
 30 31  1  0
 31 32  2  0
 11  7  1  0
 21 12  1  0
 32 22  1  0
 31 25  1  0
  3 33  1  0
  4 34  1  0
  4 35  1  0
  8 36  1  0
  8 37  1  0
  9 38  1  0
  9 39  1  0
 10 40  1  0
 10 41  1  0
 11 42  1  1
 13 43  1  0
 14 44  1  0
 20 45  1  0
 21 46  1  0
 23 47  1  0
 24 48  1  0
 26 49  1  0
 29 50  1  0
 30 51  1  0
M  END
>  <smiles>  (11) 
O=C(NCC(=O)N1CCCC1c1ccc(C(F)(F)F)cc1)c1ccc2cc(F)ccc2n1

>  <score_type>  (11) 
oracle

>  <origin>  (11) 
autodockgpu

>  <m_score__min__energy>  (11) 
-8.8699999999999992

>  <m_primary>  (11) 
energy

>  <rmsd>  (11) 
1.9241647171534682

>  <m_score__min__rmsd>  (11) 
1.9241647171534682

>  <meeko>  (11) 
{"free_energy": -7.8, "intermolecular_energy": -9.59, "internal_energy": -1.77, "cluster_size": 7, "cluster_id": 3, "rank_in_cluster": 6}

>  <energy>  (11) 
-8.46

>  <cluster_rmsd>  (11) 
1.94

>  <cluster>  (11) 
1

$$$$

     RDKit          3D

 51 54  0  0  0  0  0  0  0  0999 V2000
  141.6950   73.9920  221.0300 O   0  0  0  0  0  0  0  0  0  0  0  0
  140.8490   74.7710  221.5350 C   0  0  0  0  0  0  0  0  0  0  0  0
  139.6280   74.2400  222.0880 N   0  0  0  0  0  0  0  0  0  0  0  0
  139.4460   72.8040  222.0250 C   0  0  0  0  0  0  0  0  0  0  0  0
  138.0730   72.4630  222.4220 C   0  0  0  0  0  0  0  0  0  0  0  0
  137.0780   73.2340  222.2590 O   0  0  0  0  0  0  0  0  0  0  0  0
  137.8200   71.2020  223.0240 N   0  0  0  0  0  0  0  0  0  0  0  0
  136.6160   70.7880  223.7250 C   0  0  0  0  0  0  0  0  0  0  0  0
  136.5720   69.2720  223.6690 C   0  0  0  0  0  0  0  0  0  0  0  0
  137.7210   68.9340  222.7310 C   0  0  0  0  0  0  0  0  0  0  0  0
  138.6970   70.0310  223.0830 C   0  0  2  0  0  0  0  0  0  0  0  0
  139.2350   69.8460  224.4360 C   0  0  0  0  0  0  0  0  0  0  0  0
  139.7410   70.8190  225.2420 C   0  0  0  0  0  0  0  0  0  0  0  0
  140.2280   70.5630  226.4970 C   0  0  0  0  0  0  0  0  0  0  0  0
  140.2140   69.2590  226.9950 C   0  0  0  0  0  0  0  0  0  0  0  0
  140.7440   68.9850  228.3610 C   0  0  0  0  0  0  0  0  0  0  0  0
  139.7450   68.8910  229.2970 F   0  0  0  0  0  0  0  0  0  0  0  0
  141.6000   70.0050  228.7190 F   0  0  0  0  0  0  0  0  0  0  0  0
  141.3830   67.7420  228.3610 F   0  0  0  0  0  0  0  0  0  0  0  0
  139.7100   68.2530  226.2060 C   0  0  0  0  0  0  0  0  0  0  0  0
  139.2290   68.5470  224.9470 C   0  0  0  0  0  0  0  0  0  0  0  0
  141.0750   76.2130  221.5770 C   0  0  0  0  0  0  0  0  0  0  0  0
  141.4510   76.8580  220.4170 C   0  0  0  0  0  0  0  0  0  0  0  0
  141.6890   78.2160  220.3490 C   0  0  0  0  0  0  0  0  0  0  0  0
  141.5320   78.9310  221.5240 C   0  0  0  0  0  0  0  0  0  0  0  0
  141.7670   80.2880  221.4690 C   0  0  0  0  0  0  0  0  0  0  0  0
  141.6120   81.0150  222.6460 C   0  0  0  0  0  0  0  0  0  0  0  0
  141.8410   82.3700  222.6160 F   0  0  0  0  0  0  0  0  0  0  0  0
  141.2360   80.3740  223.8160 C   0  0  0  0  0  0  0  0  0  0  0  0
  140.9990   79.0150  223.8730 C   0  0  0  0  0  0  0  0  0  0  0  0
  141.1520   78.2900  222.7050 C   0  0  0  0  0  0  0  0  0  0  0  0
  140.9320   76.9420  222.7040 N   0  0  0  0  0  0  0  0  0  0  0  0
  138.9110   74.8870  222.5140 H   0  0  0  0  0  0  0  0  0  0  0  0
  139.6267   72.4569  220.9969 H   0  0  0  0  0  0  0  0  0  0  0  0
  140.1558   72.3156  222.7088 H   0  0  0  0  0  0  0  0  0  0  0  0
  136.6518   71.1269  224.7709 H   0  0  0  0  0  0  0  0  0  0  0  0
  135.7200   71.2252  223.2602 H   0  0  0  0  0  0  0  0  0  0  0  0
  136.7324   68.8342  224.6653 H   0  0  0  0  0  0  0  0  0  0  0  0
  135.6030   68.8774  223.3293 H   0  0  0  0  0  0  0  0  0  0  0  0
  138.1370   67.9377  222.9413 H   0  0  0  0  0  0  0  0  0  0  0  0
  137.4457   68.8901  221.6669 H   0  0  0  0  0  0  0  0  0  0  0  0
  139.5811   70.0841  222.4307 H   0  0  0  0  0  0  0  0  0  0  0  0
  139.7598   71.8542  224.8704 H   0  0  0  0  0  0  0  0  0  0  0  0
  140.6290   71.3832  227.1106 H   0  0  0  0  0  0  0  0  0  0  0  0
  139.6902   67.2176  226.5769 H   0  0  0  0  0  0  0  0  0  0  0  0
  138.8281   67.7322  224.3262 H   0  0  0  0  0  0  0  0  0  0  0  0
  141.5669   76.2605  219.5007 H   0  0  0  0  0  0  0  0  0  0  0  0
  141.9879   78.7047  219.4099 H   0  0  0  0  0  0  0  0  0  0  0  0
  142.0657   80.7780  220.5306 H   0  0  0  0  0  0  0  0  0  0  0  0
  141.1222   80.9703  224.7333 H   0  0  0  0  0  0  0  0  0  0  0  0
  140.6997   78.5270  224.8123 H   0  0  0  0  0  0  0  0  0  0  0  0
  1  2  2  0
  2  3  1  0
  3  4  1  0
  4  5  1  0
  5  6  2  0
  5  7  1  0
  7  8  1  0
  8  9  1  0
  9 10  1  0
 10 11  1  0
 11 12  1  0
 12 13  2  0
 13 14  1  0
 14 15  2  0
 15 16  1  0
 16 17  1  0
 16 18  1  0
 16 19  1  0
 15 20  1  0
 20 21  2  0
  2 22  1  0
 22 23  2  0
 23 24  1  0
 24 25  2  0
 25 26  1  0
 26 27  2  0
 27 28  1  0
 27 29  1  0
 29 30  2  0
 30 31  1  0
 31 32  2  0
 11  7  1  0
 21 12  1  0
 32 22  1  0
 31 25  1  0
  3 33  1  0
  4 34  1  0
  4 35  1  0
  8 36  1  0
  8 37  1  0
  9 38  1  0
  9 39  1  0
 10 40  1  0
 10 41  1  0
 11 42  1  6
 13 43  1  0
 14 44  1  0
 20 45  1  0
 21 46  1  0
 23 47  1  0
 24 48  1  0
 26 49  1  0
 29 50  1  0
 30 51  1  0
M  END
>  <smiles>  (12) 
O=C(NCC(=O)N1CCCC1c1ccc(C(F)(F)F)cc1)c1ccc2cc(F)ccc2n1

>  <score_type>  (12) 
oracle

>  <origin>  (12) 
autodockgpu

>  <m_score__min__energy>  (12) 
-8.8699999999999992

>  <m_primary>  (12) 
energy

>  <rmsd>  (12) 
8.693166769223179

>  <m_score__min__rmsd>  (12) 
8.693166769223179

>  <meeko>  (12) 
{"free_energy": -7.68, "intermolecular_energy": -9.47, "internal_energy": -1.52, "cluster_size": 2, "cluster_id": 4, "rank_in_cluster": 1}

>  <energy>  (12) 
-8.44

>  <cluster_rmsd>  (12) 
1.76

>  <cluster>  (12) 
1

$$$$

     RDKit          3D

 51 54  0  0  0  0  0  0  0  0999 V2000
  139.0140   70.8710  221.4880 O   0  0  0  0  0  0  0  0  0  0  0  0
  139.2910   71.6330  222.4490 C   0  0  0  0  0  0  0  0  0  0  0  0
  139.1840   73.0610  222.2820 N   0  0  0  0  0  0  0  0  0  0  0  0
  138.7540   73.5420  220.9850 C   0  0  0  0  0  0  0  0  0  0  0  0
  139.8340   73.3530  220.0050 C   0  0  0  0  0  0  0  0  0  0  0  0
  139.7780   72.5260  219.0440 O   0  0  0  0  0  0  0  0  0  0  0  0
  141.0170   74.1290  220.1210 N   0  0  0  0  0  0  0  0  0  0  0  0
  142.2220   73.7900  220.8610 C   0  0  0  0  0  0  0  0  0  0  0  0
  143.3570   74.5850  220.2430 C   0  0  0  0  0  0  0  0  0  0  0  0
  142.7070   75.2080  219.0180 C   0  0  0  0  0  0  0  0  0  0  0  0
  141.3070   75.4380  219.5340 C   0  0  2  0  0  0  0  0  0  0  0  0
  141.2870   76.4890  220.5590 C   0  0  0  0  0  0  0  0  0  0  0  0
  140.8220   76.3650  221.8320 C   0  0  0  0  0  0  0  0  0  0  0  0
  140.8370   77.3990  222.7310 C   0  0  0  0  0  0  0  0  0  0  0  0
  141.3480   78.6420  222.3510 C   0  0  0  0  0  0  0  0  0  0  0  0
  141.3630   79.7640  223.3330 C   0  0  0  0  0  0  0  0  0  0  0  0
  140.0990   80.1270  223.7270 F   0  0  0  0  0  0  0  0  0  0  0  0
  141.9820   80.8520  222.7550 F   0  0  0  0  0  0  0  0  0  0  0  0
  142.0190   79.3450  224.4940 F   0  0  0  0  0  0  0  0  0  0  0  0
  141.8260   78.8000  221.0720 C   0  0  0  0  0  0  0  0  0  0  0  0
  141.7940   77.7370  220.1940 C   0  0  0  0  0  0  0  0  0  0  0  0
  139.7210   71.1020  223.7380 C   0  0  0  0  0  0  0  0  0  0  0  0
  140.5570   71.8680  224.5240 C   0  0  0  0  0  0  0  0  0  0  0  0
  141.0210   71.4590  225.7580 C   0  0  0  0  0  0  0  0  0  0  0  0
  140.6050   70.2130  226.1930 C   0  0  0  0  0  0  0  0  0  0  0  0
  141.0610   69.7920  227.4250 C   0  0  0  0  0  0  0  0  0  0  0  0
  140.6480   68.5400  227.8700 C   0  0  0  0  0  0  0  0  0  0  0  0
  141.0910   68.1000  229.0940 F   0  0  0  0  0  0  0  0  0  0  0  0
  139.8100   67.7630  227.0850 C   0  0  0  0  0  0  0  0  0  0  0  0
  139.3520   68.1830  225.8530 C   0  0  0  0  0  0  0  0  0  0  0  0
  139.7600   69.4270  225.4070 C   0  0  0  0  0  0  0  0  0  0  0  0
  139.3370   69.8920  224.1950 N   0  0  0  0  0  0  0  0  0  0  0  0
  139.4160   73.7090  223.0830 H   0  0  0  0  0  0  0  0  0  0  0  0
  137.8649   72.9802  220.6627 H   0  0  0  0  0  0  0  0  0  0  0  0
  138.5083   74.6119  221.0556 H   0  0  0  0  0  0  0  0  0  0  0  0
  142.1038   74.0605  221.9207 H   0  0  0  0  0  0  0  0  0  0  0  0
  142.4245   72.7100  220.8102 H   0  0  0  0  0  0  0  0  0  0  0  0
  143.7207   75.3590  220.9349 H   0  0  0  0  0  0  0  0  0  0  0  0
  144.2374   73.9708  220.0028 H   0  0  0  0  0  0  0  0  0  0  0  0
  143.1955   76.1522  218.7354 H   0  0  0  0  0  0  0  0  0  0  0  0
  142.7639   74.5936  218.1074 H   0  0  0  0  0  0  0  0  0  0  0  0
  140.5870   75.7709  218.7719 H   0  0  0  0  0  0  0  0  0  0  0  0
  140.4171   75.3938  222.1527 H   0  0  0  0  0  0  0  0  0  0  0  0
  140.4477   77.2505  223.7490 H   0  0  0  0  0  0  0  0  0  0  0  0
  142.2323   79.7702  220.7501 H   0  0  0  0  0  0  0  0  0  0  0  0
  142.1803   77.8772  219.1737 H   0  0  0  0  0  0  0  0  0  0  0  0
  140.8693   72.8537  224.1486 H   0  0  0  0  0  0  0  0  0  0  0  0
  141.6869   72.0908  226.3641 H   0  0  0  0  0  0  0  0  0  0  0  0
  141.7264   70.4226  228.0330 H   0  0  0  0  0  0  0  0  0  0  0  0
  139.4990   66.7760  227.4578 H   0  0  0  0  0  0  0  0  0  0  0  0
  138.6861   67.5509  225.2471 H   0  0  0  0  0  0  0  0  0  0  0  0
  1  2  2  0
  2  3  1  0
  3  4  1  0
  4  5  1  0
  5  6  2  0
  5  7  1  0
  7  8  1  0
  8  9  1  0
  9 10  1  0
 10 11  1  0
 11 12  1  0
 12 13  2  0
 13 14  1  0
 14 15  2  0
 15 16  1  0
 16 17  1  0
 16 18  1  0
 16 19  1  0
 15 20  1  0
 20 21  2  0
  2 22  1  0
 22 23  2  0
 23 24  1  0
 24 25  2  0
 25 26  1  0
 26 27  2  0
 27 28  1  0
 27 29  1  0
 29 30  2  0
 30 31  1  0
 31 32  2  0
 11  7  1  0
 21 12  1  0
 32 22  1  0
 31 25  1  0
  3 33  1  0
  4 34  1  0
  4 35  1  0
  8 36  1  0
  8 37  1  0
  9 38  1  0
  9 39  1  0
 10 40  1  0
 10 41  1  0
 11 42  1  6
 13 43  1  0
 14 44  1  0
 20 45  1  0
 21 46  1  0
 23 47  1  0
 24 48  1  0
 26 49  1  0
 29 50  1  0
 30 51  1  0
M  END
>  <smiles>  (13) 
O=C(NCC(=O)N1CCCC1c1ccc(C(F)(F)F)cc1)c1ccc2cc(F)ccc2n1

>  <score_type>  (13) 
oracle

>  <origin>  (13) 
autodockgpu

>  <m_score__min__energy>  (13) 
-8.8699999999999992

>  <m_primary>  (13) 
energy

>  <rmsd>  (13) 
3.0963467949425247

>  <m_score__min__rmsd>  (13) 
3.0963467949425247

>  <meeko>  (13) 
{"free_energy": -7.96, "intermolecular_energy": -9.75, "internal_energy": -1.47, "cluster_size": 7, "cluster_id": 2, "rank_in_cluster": 6}

>  <energy>  (13) 
-8.36

>  <cluster_rmsd>  (13) 
0.83

>  <cluster>  (13) 
1

$$$$

     RDKit          3D

 51 54  0  0  0  0  0  0  0  0999 V2000
  140.4120   71.4690  221.7840 O   0  0  0  0  0  0  0  0  0  0  0  0
  139.6210   71.5680  222.7560 C   0  0  0  0  0  0  0  0  0  0  0  0
  138.5540   72.5370  222.7130 N   0  0  0  0  0  0  0  0  0  0  0  0
  138.4570   73.3580  221.5230 C   0  0  0  0  0  0  0  0  0  0  0  0
  139.4390   74.4490  221.5960 C   0  0  0  0  0  0  0  0  0  0  0  0
  140.6730   74.2750  221.8420 O   0  0  0  0  0  0  0  0  0  0  0  0
  139.0060   75.7840  221.3800 N   0  0  0  0  0  0  0  0  0  0  0  0
  138.9180   76.4850  220.1100 C   0  0  0  0  0  0  0  0  0  0  0  0
  137.9060   77.6010  220.2920 C   0  0  0  0  0  0  0  0  0  0  0  0
  137.3330   77.3170  221.6720 C   0  0  0  0  0  0  0  0  0  0  0  0
  138.5520   76.7630  222.3690 C   0  0  2  0  0  0  0  0  0  0  0  0
  139.5630   77.8070  222.5770 C   0  0  0  0  0  0  0  0  0  0  0  0
  140.8980   77.6940  222.3410 C   0  0  0  0  0  0  0  0  0  0  0  0
  141.7800   78.7200  222.5640 C   0  0  0  0  0  0  0  0  0  0  0  0
  141.3140   79.9420  223.0520 C   0  0  0  0  0  0  0  0  0  0  0  0
  142.2760   81.0550  223.2930 C   0  0  0  0  0  0  0  0  0  0  0  0
  142.0530   81.6840  224.4920 F   0  0  0  0  0  0  0  0  0  0  0  0
  142.1550   81.9760  222.2740 F   0  0  0  0  0  0  0  0  0  0  0  0
  143.5690   80.5310  223.3730 F   0  0  0  0  0  0  0  0  0  0  0  0
  139.9700   80.0890  223.3020 C   0  0  0  0  0  0  0  0  0  0  0  0
  139.1120   79.0340  223.0660 C   0  0  0  0  0  0  0  0  0  0  0  0
  139.7580   70.7190  223.9350 C   0  0  0  0  0  0  0  0  0  0  0  0
  139.3150   69.4150  223.8670 C   0  0  0  0  0  0  0  0  0  0  0  0
  139.3980   68.5300  224.9240 C   0  0  0  0  0  0  0  0  0  0  0  0
  139.9600   69.0150  226.0920 C   0  0  0  0  0  0  0  0  0  0  0  0
  140.0480   68.1420  227.1560 C   0  0  0  0  0  0  0  0  0  0  0  0
  140.6120   68.6200  228.3350 C   0  0  0  0  0  0  0  0  0  0  0  0
  140.7100   67.7680  229.4080 F   0  0  0  0  0  0  0  0  0  0  0  0
  141.0580   69.9310  228.4120 C   0  0  0  0  0  0  0  0  0  0  0  0
  140.9710   70.8060  227.3480 C   0  0  0  0  0  0  0  0  0  0  0  0
  140.4120   70.3330  226.1750 C   0  0  0  0  0  0  0  0  0  0  0  0
  140.3000   71.1570  225.0910 N   0  0  0  0  0  0  0  0  0  0  0  0
  137.8850   72.6280  223.5250 H   0  0  0  0  0  0  0  0  0  0  0  0
  138.6601   72.7413  220.6351 H   0  0  0  0  0  0  0  0  0  0  0  0
  137.4443   73.7818  221.4528 H   0  0  0  0  0  0  0  0  0  0  0  0
  139.8987   76.9039  219.8403 H   0  0  0  0  0  0  0  0  0  0  0  0
  138.6109   75.8025  219.3039 H   0  0  0  0  0  0  0  0  0  0  0  0
  138.3936   78.5865  220.2609 H   0  0  0  0  0  0  0  0  0  0  0  0
  137.1419   77.6283  219.5012 H   0  0  0  0  0  0  0  0  0  0  0  0
  136.9700   78.2349  222.1575 H   0  0  0  0  0  0  0  0  0  0  0  0
  136.4597   76.6482  221.6763 H   0  0  0  0  0  0  0  0  0  0  0  0
  138.3596   76.3512  223.3707 H   0  0  0  0  0  0  0  0  0  0  0  0
  141.2861   76.7398  221.9552 H   0  0  0  0  0  0  0  0  0  0  0  0
  142.8517   78.5805  222.3589 H   0  0  0  0  0  0  0  0  0  0  0  0
  139.5806   81.0425  223.6881 H   0  0  0  0  0  0  0  0  0  0  0  0
  138.0389   79.1643  223.2697 H   0  0  0  0  0  0  0  0  0  0  0  0
  138.8733   69.0619  222.9235 H   0  0  0  0  0  0  0  0  0  0  0  0
  139.0365   67.4943  224.8419 H   0  0  0  0  0  0  0  0  0  0  0  0
  139.6859   67.1064  227.0757 H   0  0  0  0  0  0  0  0  0  0  0  0
  141.4972   70.2866  229.3557 H   0  0  0  0  0  0  0  0  0  0  0  0
  141.3330   71.8415  227.4302 H   0  0  0  0  0  0  0  0  0  0  0  0
  1  2  2  0
  2  3  1  0
  3  4  1  0
  4  5  1  0
  5  6  2  0
  5  7  1  0
  7  8  1  0
  8  9  1  0
  9 10  1  0
 10 11  1  0
 11 12  1  0
 12 13  2  0
 13 14  1  0
 14 15  2  0
 15 16  1  0
 16 17  1  0
 16 18  1  0
 16 19  1  0
 15 20  1  0
 20 21  2  0
  2 22  1  0
 22 23  2  0
 23 24  1  0
 24 25  2  0
 25 26  1  0
 26 27  2  0
 27 28  1  0
 27 29  1  0
 29 30  2  0
 30 31  1  0
 31 32  2  0
 11  7  1  0
 21 12  1  0
 32 22  1  0
 31 25  1  0
  3 33  1  0
  4 34  1  0
  4 35  1  0
  8 36  1  0
  8 37  1  0
  9 38  1  0
  9 39  1  0
 10 40  1  0
 10 41  1  0
 11 42  1  1
 13 43  1  0
 14 44  1  0
 20 45  1  0
 21 46  1  0
 23 47  1  0
 24 48  1  0
 26 49  1  0
 29 50  1  0
 30 51  1  0
M  END
>  <smiles>  (14) 
O=C(NCC(=O)N1CCCC1c1ccc(C(F)(F)F)cc1)c1ccc2cc(F)ccc2n1

>  <score_type>  (14) 
oracle

>  <origin>  (14) 
autodockgpu

>  <m_score__min__energy>  (14) 
-8.8699999999999992

>  <m_primary>  (14) 
energy

>  <rmsd>  (14) 
2.3283254707560714

>  <m_score__min__rmsd>  (14) 
2.3283254707560714

>  <meeko>  (14) 
{"free_energy": -8.76, "intermolecular_energy": -10.55, "internal_energy": -1.27, "cluster_size": 34, "cluster_id": 1, "rank_in_cluster": 4}

>  <energy>  (14) 
-8.35

>  <cluster_rmsd>  (14) 
1.41

>  <cluster>  (14) 
1

$$$$

     RDKit          3D

 51 54  0  0  0  0  0  0  0  0999 V2000
  140.2750   70.9570  221.3480 O   0  0  0  0  0  0  0  0  0  0  0  0
  139.9620   71.4950  222.4390 C   0  0  0  0  0  0  0  0  0  0  0  0
  139.5970   72.8900  222.4690 N   0  0  0  0  0  0  0  0  0  0  0  0
  139.6150   73.6030  221.2090 C   0  0  0  0  0  0  0  0  0  0  0  0
  140.5440   74.7390  221.2980 C   0  0  0  0  0  0  0  0  0  0  0  0
  140.4580   75.6540  222.1740 O   0  0  0  0  0  0  0  0  0  0  0  0
  141.6060   74.8390  220.3610 N   0  0  0  0  0  0  0  0  0  0  0  0
  141.4960   74.9420  218.9150 C   0  0  0  0  0  0  0  0  0  0  0  0
  142.7760   75.5880  218.4200 C   0  0  0  0  0  0  0  0  0  0  0  0
  143.4740   75.9900  219.7100 C   0  0  0  0  0  0  0  0  0  0  0  0
  143.0470   74.8630  220.6190 C   0  0  2  0  0  0  0  0  0  0  0  0
  143.6710   73.5960  220.2200 C   0  0  0  0  0  0  0  0  0  0  0  0
  143.0310   72.4140  220.0010 C   0  0  0  0  0  0  0  0  0  0  0  0
  143.6910   71.2710  219.6310 C   0  0  0  0  0  0  0  0  0  0  0  0
  145.0770   71.2920  219.4620 C   0  0  0  0  0  0  0  0  0  0  0  0
  145.7900   70.0470  219.0590 C   0  0  0  0  0  0  0  0  0  0  0  0
  147.0750   70.0060  219.5390 F   0  0  0  0  0  0  0  0  0  0  0  0
  145.8220   69.9790  217.6830 F   0  0  0  0  0  0  0  0  0  0  0  0
  145.1380   68.9460  219.6220 F   0  0  0  0  0  0  0  0  0  0  0  0
  145.7530   72.4700  219.6760 C   0  0  0  0  0  0  0  0  0  0  0  0
  145.0570   73.6010  220.0480 C   0  0  0  0  0  0  0  0  0  0  0  0
  139.9580   70.7370  223.6860 C   0  0  0  0  0  0  0  0  0  0  0  0
  139.3700   69.4890  223.7000 C   0  0  0  0  0  0  0  0  0  0  0  0
  139.3130   68.6910  224.8250 C   0  0  0  0  0  0  0  0  0  0  0  0
  139.8850   69.2040  225.9760 C   0  0  0  0  0  0  0  0  0  0  0  0
  139.8350   68.4170  227.1080 C   0  0  0  0  0  0  0  0  0  0  0  0
  140.4070   68.9250  228.2700 C   0  0  0  0  0  0  0  0  0  0  0  0
  140.3690   68.1590  229.4100 F   0  0  0  0  0  0  0  0  0  0  0  0
  140.9990   70.1790  228.2650 C   0  0  0  0  0  0  0  0  0  0  0  0
  141.0500   70.9680  227.1330 C   0  0  0  0  0  0  0  0  0  0  0  0
  140.4830   70.4660  225.9760 C   0  0  0  0  0  0  0  0  0  0  0  0
  140.5050   71.2050  224.8280 N   0  0  0  0  0  0  0  0  0  0  0  0
  139.3320   73.3510  223.3820 H   0  0  0  0  0  0  0  0  0  0  0  0
  139.9433   72.9236  220.4086 H   0  0  0  0  0  0  0  0  0  0  0  0
  138.6041   73.9746  220.9852 H   0  0  0  0  0  0  0  0  0  0  0  0
  141.3816   73.9416  218.4722 H   0  0  0  0  0  0  0  0  0  0  0  0
  140.6177   75.5392  218.6288 H   0  0  0  0  0  0  0  0  0  0  0  0
  143.3844   74.8728  217.8470 H   0  0  0  0  0  0  0  0  0  0  0  0
  142.6007   76.4338  217.7389 H   0  0  0  0  0  0  0  0  0  0  0  0
  144.5667   76.0207  219.5875 H   0  0  0  0  0  0  0  0  0  0  0  0
  143.2168   76.9951  220.0754 H   0  0  0  0  0  0  0  0  0  0  0  0
  143.3246   74.9968  221.6749 H   0  0  0  0  0  0  0  0  0  0  0  0
  141.9389   72.3749  220.1263 H   0  0  0  0  0  0  0  0  0  0  0  0
  143.1299   70.3391  219.4675 H   0  0  0  0  0  0  0  0  0  0  0  0
  146.8451   72.5102  219.5509 H   0  0  0  0  0  0  0  0  0  0  0  0
  145.6110   74.5366  220.2145 H   0  0  0  0  0  0  0  0  0  0  0  0
  138.9243   69.1109  222.7681 H   0  0  0  0  0  0  0  0  0  0  0  0
  138.8377   67.6991  224.8075 H   0  0  0  0  0  0  0  0  0  0  0  0
  139.3605   67.4247  227.0924 H   0  0  0  0  0  0  0  0  0  0  0  0
  141.4440   70.5589  229.1965 H   0  0  0  0  0  0  0  0  0  0  0  0
  141.5246   71.9602  227.1509 H   0  0  0  0  0  0  0  0  0  0  0  0
  1  2  2  0
  2  3  1  0
  3  4  1  0
  4  5  1  0
  5  6  2  0
  5  7  1  0
  7  8  1  0
  8  9  1  0
  9 10  1  0
 10 11  1  0
 11 12  1  0
 12 13  2  0
 13 14  1  0
 14 15  2  0
 15 16  1  0
 16 17  1  0
 16 18  1  0
 16 19  1  0
 15 20  1  0
 20 21  2  0
  2 22  1  0
 22 23  2  0
 23 24  1  0
 24 25  2  0
 25 26  1  0
 26 27  2  0
 27 28  1  0
 27 29  1  0
 29 30  2  0
 30 31  1  0
 31 32  2  0
 11  7  1  0
 21 12  1  0
 32 22  1  0
 31 25  1  0
  3 33  1  0
  4 34  1  0
  4 35  1  0
  8 36  1  0
  8 37  1  0
  9 38  1  0
  9 39  1  0
 10 40  1  0
 10 41  1  0
 11 42  1  1
 13 43  1  0
 14 44  1  0
 20 45  1  0
 21 46  1  0
 23 47  1  0
 24 48  1  0
 26 49  1  0
 29 50  1  0
 30 51  1  0
M  END
>  <smiles>  (15) 
O=C(NCC(=O)N1CCCC1c1ccc(C(F)(F)F)cc1)c1ccc2cc(F)ccc2n1

>  <score_type>  (15) 
oracle

>  <origin>  (15) 
autodockgpu

>  <m_score__min__energy>  (15) 
-8.8699999999999992

>  <m_primary>  (15) 
energy

>  <rmsd>  (15) 
1.9635719003162673

>  <m_score__min__rmsd>  (15) 
1.9635719003162673

>  <meeko>  (15) 
{"free_energy": -8.0, "intermolecular_energy": -9.79, "internal_energy": -1.69, "cluster_size": 7, "cluster_id": 3, "rank_in_cluster": 4}

>  <energy>  (15) 
-8.34

>  <cluster_rmsd>  (15) 
1.86

>  <cluster>  (15) 
1

$$$$

     RDKit          3D

 51 54  0  0  0  0  0  0  0  0999 V2000
  137.6230   70.8390  222.2450 O   0  0  0  0  0  0  0  0  0  0  0  0
  138.5550   71.2290  222.9920 C   0  0  0  0  0  0  0  0  0  0  0  0
  139.1820   72.5040  222.7460 N   0  0  0  0  0  0  0  0  0  0  0  0
  138.6870   73.2760  221.6250 C   0  0  0  0  0  0  0  0  0  0  0  0
  139.5870   74.4110  221.3730 C   0  0  0  0  0  0  0  0  0  0  0  0
  140.8310   74.2910  221.1490 O   0  0  0  0  0  0  0  0  0  0  0  0
  139.0550   75.7280  221.3750 N   0  0  0  0  0  0  0  0  0  0  0  0
  138.7470   76.5530  220.2180 C   0  0  0  0  0  0  0  0  0  0  0  0
  137.7130   77.5690  220.6650 C   0  0  0  0  0  0  0  0  0  0  0  0
  137.3600   77.1000  222.0670 C   0  0  0  0  0  0  0  0  0  0  0  0
  138.6940   76.5610  222.5230 C   0  0  2  0  0  0  0  0  0  0  0  0
  139.6660   77.6450  222.7110 C   0  0  0  0  0  0  0  0  0  0  0  0
  140.9920   77.6010  222.4050 C   0  0  0  0  0  0  0  0  0  0  0  0
  141.8360   78.6600  222.6140 C   0  0  0  0  0  0  0  0  0  0  0  0
  141.3410   79.8470  223.1590 C   0  0  0  0  0  0  0  0  0  0  0  0
  142.2630   80.9970  223.3840 C   0  0  0  0  0  0  0  0  0  0  0  0
  142.1410   81.9580  222.4120 F   0  0  0  0  0  0  0  0  0  0  0  0
  143.5600   80.5310  223.3960 F   0  0  0  0  0  0  0  0  0  0  0  0
  141.9220   81.6250  224.5850 F   0  0  0  0  0  0  0  0  0  0  0  0
  140.0060   79.9230  223.4790 C   0  0  0  0  0  0  0  0  0  0  0  0
  139.1860   78.8370  223.2560 C   0  0  0  0  0  0  0  0  0  0  0  0
  139.0210   70.4170  224.1110 C   0  0  0  0  0  0  0  0  0  0  0  0
  138.8190   69.0530  224.0690 C   0  0  0  0  0  0  0  0  0  0  0  0
  139.2210   68.1960  225.0740 C   0  0  0  0  0  0  0  0  0  0  0  0
  139.8530   68.7730  226.1620 C   0  0  0  0  0  0  0  0  0  0  0  0
  140.2590   67.9270  227.1730 C   0  0  0  0  0  0  0  0  0  0  0  0
  140.8960   68.4980  228.2710 C   0  0  0  0  0  0  0  0  0  0  0  0
  141.3090   67.6760  229.2910 F   0  0  0  0  0  0  0  0  0  0  0  0
  141.1010   69.8680  228.3220 C   0  0  0  0  0  0  0  0  0  0  0  0
  140.6960   70.7160  227.3110 C   0  0  0  0  0  0  0  0  0  0  0  0
  140.0630   70.1520  226.2180 C   0  0  0  0  0  0  0  0  0  0  0  0
  139.6410   70.9430  225.1890 N   0  0  0  0  0  0  0  0  0  0  0  0
  139.9660   72.8400  223.3690 H   0  0  0  0  0  0  0  0  0  0  0  0
  138.6442   72.6370  220.7307 H   0  0  0  0  0  0  0  0  0  0  0  0
  137.6797   73.6525  221.8567 H   0  0  0  0  0  0  0  0  0  0  0  0
  139.6544   77.0660  219.8667 H   0  0  0  0  0  0  0  0  0  0  0  0
  138.3647   75.9407  219.3880 H   0  0  0  0  0  0  0  0  0  0  0  0
  138.1370   78.5838  220.6822 H   0  0  0  0  0  0  0  0  0  0  0  0
  136.8429   77.6271  219.9945 H   0  0  0  0  0  0  0  0  0  0  0  0
  137.0211   77.9331  222.7003 H   0  0  0  0  0  0  0  0  0  0  0  0
  136.5338   76.3752  222.1126 H   0  0  0  0  0  0  0  0  0  0  0  0
  138.6690   76.0316  223.4869 H   0  0  0  0  0  0  0  0  0  0  0  0
  141.4028   76.6770  221.9720 H   0  0  0  0  0  0  0  0  0  0  0  0
  142.9013   78.5755  222.3531 H   0  0  0  0  0  0  0  0  0  0  0  0
  139.5936   80.8466  223.9113 H   0  0  0  0  0  0  0  0  0  0  0  0
  138.1198   78.9125  223.5158 H   0  0  0  0  0  0  0  0  0  0  0  0
  138.3122   68.6268  223.1907 H   0  0  0  0  0  0  0  0  0  0  0  0
  139.0481   67.1114  225.0133 H   0  0  0  0  0  0  0  0  0  0  0  0
  140.0859   66.8423  227.1138 H   0  0  0  0  0  0  0  0  0  0  0  0
  141.6054   70.2954  229.2012 H   0  0  0  0  0  0  0  0  0  0  0  0
  140.8702   71.8004  227.3722 H   0  0  0  0  0  0  0  0  0  0  0  0
  1  2  2  0
  2  3  1  0
  3  4  1  0
  4  5  1  0
  5  6  2  0
  5  7  1  0
  7  8  1  0
  8  9  1  0
  9 10  1  0
 10 11  1  0
 11 12  1  0
 12 13  2  0
 13 14  1  0
 14 15  2  0
 15 16  1  0
 16 17  1  0
 16 18  1  0
 16 19  1  0
 15 20  1  0
 20 21  2  0
  2 22  1  0
 22 23  2  0
 23 24  1  0
 24 25  2  0
 25 26  1  0
 26 27  2  0
 27 28  1  0
 27 29  1  0
 29 30  2  0
 30 31  1  0
 31 32  2  0
 11  7  1  0
 21 12  1  0
 32 22  1  0
 31 25  1  0
  3 33  1  0
  4 34  1  0
  4 35  1  0
  8 36  1  0
  8 37  1  0
  9 38  1  0
  9 39  1  0
 10 40  1  0
 10 41  1  0
 11 42  1  1
 13 43  1  0
 14 44  1  0
 20 45  1  0
 21 46  1  0
 23 47  1  0
 24 48  1  0
 26 49  1  0
 29 50  1  0
 30 51  1  0
M  END
>  <smiles>  (16) 
O=C(NCC(=O)N1CCCC1c1ccc(C(F)(F)F)cc1)c1ccc2cc(F)ccc2n1

>  <score_type>  (16) 
oracle

>  <origin>  (16) 
autodockgpu

>  <m_score__min__energy>  (16) 
-8.8699999999999992

>  <m_primary>  (16) 
energy

>  <rmsd>  (16) 
2.463092151628106

>  <m_score__min__rmsd>  (16) 
2.463092151628106

>  <meeko>  (16) 
{"free_energy": -8.06, "intermolecular_energy": -9.85, "internal_energy": -1.49, "cluster_size": 34, "cluster_id": 1, "rank_in_cluster": 28}

>  <energy>  (16) 
-8.32

>  <cluster_rmsd>  (16) 
1.39

>  <cluster>  (16) 
1

$$$$

     RDKit          3D

 51 54  0  0  0  0  0  0  0  0999 V2000
  137.9080   70.8040  222.2600 O   0  0  0  0  0  0  0  0  0  0  0  0
  138.7660   71.2020  223.0870 C   0  0  0  0  0  0  0  0  0  0  0  0
  139.3480   72.5130  222.9380 N   0  0  0  0  0  0  0  0  0  0  0  0
  138.8970   73.3100  221.8170 C   0  0  0  0  0  0  0  0  0  0  0  0
  139.8050   74.4490  221.6240 C   0  0  0  0  0  0  0  0  0  0  0  0
  141.0710   74.3480  221.6050 O   0  0  0  0  0  0  0  0  0  0  0  0
  139.2590   75.7480  221.4470 N   0  0  0  0  0  0  0  0  0  0  0  0
  139.0670   76.4570  220.1930 C   0  0  0  0  0  0  0  0  0  0  0  0
  137.9760   77.4850  220.4300 C   0  0  0  0  0  0  0  0  0  0  0  0
  137.4790   77.1360  221.8240 C   0  0  0  0  0  0  0  0  0  0  0  0
  138.7630   76.6730  222.4680 C   0  0  2  0  0  0  0  0  0  0  0  0
  139.6930   77.7920  222.6580 C   0  0  0  0  0  0  0  0  0  0  0  0
  141.0290   77.7840  222.3960 C   0  0  0  0  0  0  0  0  0  0  0  0
  141.8320   78.8750  222.6030 C   0  0  0  0  0  0  0  0  0  0  0  0
  141.2820   80.0580  223.1010 C   0  0  0  0  0  0  0  0  0  0  0  0
  142.1590   81.2430  223.3240 C   0  0  0  0  0  0  0  0  0  0  0  0
  142.0190   81.7610  224.5870 F   0  0  0  0  0  0  0  0  0  0  0  0
  141.8370   82.2150  222.4010 F   0  0  0  0  0  0  0  0  0  0  0  0
  143.4950   80.8460  223.2210 F   0  0  0  0  0  0  0  0  0  0  0  0
  139.9350   80.0990  223.3760 C   0  0  0  0  0  0  0  0  0  0  0  0
  139.1580   78.9810  223.1550 C   0  0  0  0  0  0  0  0  0  0  0  0
  139.1910   70.3620  224.2030 C   0  0  0  0  0  0  0  0  0  0  0  0
  138.8890   69.0170  224.1720 C   0  0  0  0  0  0  0  0  0  0  0  0
  139.2440   68.1380  225.1750 C   0  0  0  0  0  0  0  0  0  0  0  0
  139.9370   68.6710  226.2480 C   0  0  0  0  0  0  0  0  0  0  0  0
  140.2980   67.8030  227.2570 C   0  0  0  0  0  0  0  0  0  0  0  0
  140.9950   68.3310  228.3400 C   0  0  0  0  0  0  0  0  0  0  0  0
  141.3640   67.4850  229.3580 F   0  0  0  0  0  0  0  0  0  0  0  0
  141.3010   69.6820  228.3790 C   0  0  0  0  0  0  0  0  0  0  0  0
  140.9420   70.5520  227.3700 C   0  0  0  0  0  0  0  0  0  0  0  0
  140.2490   70.0310  226.2920 C   0  0  0  0  0  0  0  0  0  0  0  0
  139.8680   70.8470  225.2650 N   0  0  0  0  0  0  0  0  0  0  0  0
  140.0700   72.8560  223.6280 H   0  0  0  0  0  0  0  0  0  0  0  0
  138.8882   72.6909  220.9078 H   0  0  0  0  0  0  0  0  0  0  0  0
  137.8819   73.6826  222.0190 H   0  0  0  0  0  0  0  0  0  0  0  0
  140.0000   76.9576  219.8948 H   0  0  0  0  0  0  0  0  0  0  0  0
  138.7855   75.7628  219.3875 H   0  0  0  0  0  0  0  0  0  0  0  0
  138.3814   78.5071  220.3986 H   0  0  0  0  0  0  0  0  0  0  0  0
  137.1836   77.4618  219.6674 H   0  0  0  0  0  0  0  0  0  0  0  0
  137.0612   78.0145  222.3376 H   0  0  0  0  0  0  0  0  0  0  0  0
  136.6632   76.3985  221.8477 H   0  0  0  0  0  0  0  0  0  0  0  0
  138.6405   76.2327  223.4686 H   0  0  0  0  0  0  0  0  0  0  0  0
  141.4830   76.8630  222.0015 H   0  0  0  0  0  0  0  0  0  0  0  0
  142.9072   78.8190  222.3774 H   0  0  0  0  0  0  0  0  0  0  0  0
  139.4794   81.0193  223.7704 H   0  0  0  0  0  0  0  0  0  0  0  0
  138.0818   79.0283  223.3777 H   0  0  0  0  0  0  0  0  0  0  0  0
  138.3377   68.6251  223.3046 H   0  0  0  0  0  0  0  0  0  0  0  0
  138.9894   67.0691  225.1243 H   0  0  0  0  0  0  0  0  0  0  0  0
  140.0447   66.7337  227.2078 H   0  0  0  0  0  0  0  0  0  0  0  0
  141.8506   70.0755  229.2468 H   0  0  0  0  0  0  0  0  0  0  0  0
  141.1975   71.6207  227.4209 H   0  0  0  0  0  0  0  0  0  0  0  0
  1  2  2  0
  2  3  1  0
  3  4  1  0
  4  5  1  0
  5  6  2  0
  5  7  1  0
  7  8  1  0
  8  9  1  0
  9 10  1  0
 10 11  1  0
 11 12  1  0
 12 13  2  0
 13 14  1  0
 14 15  2  0
 15 16  1  0
 16 17  1  0
 16 18  1  0
 16 19  1  0
 15 20  1  0
 20 21  2  0
  2 22  1  0
 22 23  2  0
 23 24  1  0
 24 25  2  0
 25 26  1  0
 26 27  2  0
 27 28  1  0
 27 29  1  0
 29 30  2  0
 30 31  1  0
 31 32  2  0
 11  7  1  0
 21 12  1  0
 32 22  1  0
 31 25  1  0
  3 33  1  0
  4 34  1  0
  4 35  1  0
  8 36  1  0
  8 37  1  0
  9 38  1  0
  9 39  1  0
 10 40  1  0
 10 41  1  0
 11 42  1  1
 13 43  1  0
 14 44  1  0
 20 45  1  0
 21 46  1  0
 23 47  1  0
 24 48  1  0
 26 49  1  0
 29 50  1  0
 30 51  1  0
M  END
>  <smiles>  (17) 
O=C(NCC(=O)N1CCCC1c1ccc(C(F)(F)F)cc1)c1ccc2cc(F)ccc2n1

>  <score_type>  (17) 
oracle

>  <origin>  (17) 
autodockgpu

>  <m_score__min__energy>  (17) 
-8.8699999999999992

>  <m_primary>  (17) 
energy

>  <rmsd>  (17) 
2.4002761414318012

>  <m_score__min__rmsd>  (17) 
2.4002761414318012

>  <meeko>  (17) 
{"free_energy": -8.21, "intermolecular_energy": -10.0, "internal_energy": -1.55, "cluster_size": 34, "cluster_id": 1, "rank_in_cluster": 21}

>  <energy>  (17) 
-8.32

>  <cluster_rmsd>  (17) 
1.39

>  <cluster>  (17) 
1

$$$$

     RDKit          3D

 51 54  0  0  0  0  0  0  0  0999 V2000
  138.6660   71.8480  222.1670 O   0  0  0  0  0  0  0  0  0  0  0  0
  139.7610   71.4920  222.6700 C   0  0  0  0  0  0  0  0  0  0  0  0
  140.9980   71.9050  222.0550 N   0  0  0  0  0  0  0  0  0  0  0  0
  140.9000   72.7250  220.8650 C   0  0  0  0  0  0  0  0  0  0  0  0
  140.5670   74.1050  221.2440 C   0  0  0  0  0  0  0  0  0  0  0  0
  139.6890   74.4080  222.1100 O   0  0  0  0  0  0  0  0  0  0  0  0
  141.2540   75.1790  220.6180 N   0  0  0  0  0  0  0  0  0  0  0  0
  142.6800   75.2730  220.3520 C   0  0  0  0  0  0  0  0  0  0  0  0
  142.8510   76.2580  219.2100 C   0  0  0  0  0  0  0  0  0  0  0  0
  141.4190   76.5210  218.7720 C   0  0  0  0  0  0  0  0  0  0  0  0
  140.7030   76.4310  220.0980 C   0  0  2  0  0  0  0  0  0  0  0  0
  141.0560   77.5610  220.9670 C   0  0  0  0  0  0  0  0  0  0  0  0
  141.0800   77.5540  222.3280 C   0  0  0  0  0  0  0  0  0  0  0  0
  141.4200   78.6560  223.0690 C   0  0  0  0  0  0  0  0  0  0  0  0
  141.7630   79.8470  222.4260 C   0  0  0  0  0  0  0  0  0  0  0  0
  142.1330   81.0430  223.2360 C   0  0  0  0  0  0  0  0  0  0  0  0
  142.1580   82.1910  222.4840 F   0  0  0  0  0  0  0  0  0  0  0  0
  143.3800   80.8390  223.7860 F   0  0  0  0  0  0  0  0  0  0  0  0
  141.1570   81.2500  224.2150 F   0  0  0  0  0  0  0  0  0  0  0  0
  141.7490   79.8870  221.0520 C   0  0  0  0  0  0  0  0  0  0  0  0
  141.4000   78.7580  220.3380 C   0  0  0  0  0  0  0  0  0  0  0  0
  139.8100   70.6640  223.8710 C   0  0  0  0  0  0  0  0  0  0  0  0
  139.2350   69.4110  223.8370 C   0  0  0  0  0  0  0  0  0  0  0  0
  139.2270   68.5510  224.9160 C   0  0  0  0  0  0  0  0  0  0  0  0
  139.8370   69.0050  226.0730 C   0  0  0  0  0  0  0  0  0  0  0  0
  139.8350   68.1550  227.1590 C   0  0  0  0  0  0  0  0  0  0  0  0
  140.4460   68.6030  228.3260 C   0  0  0  0  0  0  0  0  0  0  0  0
  140.4570   67.7740  229.4210 F   0  0  0  0  0  0  0  0  0  0  0  0
  141.0260   69.8620  228.3700 C   0  0  0  0  0  0  0  0  0  0  0  0
  141.0290   70.7140  227.2840 C   0  0  0  0  0  0  0  0  0  0  0  0
  140.4230   70.2710  226.1220 C   0  0  0  0  0  0  0  0  0  0  0  0
  140.3960   71.0730  225.0170 N   0  0  0  0  0  0  0  0  0  0  0  0
  141.9230   71.6100  222.4710 H   0  0  0  0  0  0  0  0  0  0  0  0
  141.8623   72.7136  220.3322 H   0  0  0  0  0  0  0  0  0  0  0  0
  140.1119   72.3256  220.2098 H   0  0  0  0  0  0  0  0  0  0  0  0
  143.2086   75.6349  221.2462 H   0  0  0  0  0  0  0  0  0  0  0  0
  143.0975   74.2896  220.0899 H   0  0  0  0  0  0  0  0  0  0  0  0
  143.3359   77.1833  219.5546 H   0  0  0  0  0  0  0  0  0  0  0  0
  143.4904   75.8775  218.3999 H   0  0  0  0  0  0  0  0  0  0  0  0
  141.3098   77.5173  218.3186 H   0  0  0  0  0  0  0  0  0  0  0  0
  141.0425   75.8329  218.0008 H   0  0  0  0  0  0  0  0  0  0  0  0
  139.6055   76.4576  220.0289 H   0  0  0  0  0  0  0  0  0  0  0  0
  140.8156   76.6254  222.8551 H   0  0  0  0  0  0  0  0  0  0  0  0
  141.4226   78.6021  224.1677 H   0  0  0  0  0  0  0  0  0  0  0  0
  142.0147   80.8145  220.5237 H   0  0  0  0  0  0  0  0  0  0  0  0
  141.3929   78.8036  219.2390 H   0  0  0  0  0  0  0  0  0  0  0  0
  138.7586   69.0804  222.9023 H   0  0  0  0  0  0  0  0  0  0  0  0
  138.7603   67.5565  224.8599 H   0  0  0  0  0  0  0  0  0  0  0  0
  139.3681   67.1605  227.1047 H   0  0  0  0  0  0  0  0  0  0  0  0
  141.5012   70.1939  229.3049 H   0  0  0  0  0  0  0  0  0  0  0  0
  141.4960   71.7084  227.3404 H   0  0  0  0  0  0  0  0  0  0  0  0
  1  2  2  0
  2  3  1  0
  3  4  1  0
  4  5  1  0
  5  6  2  0
  5  7  1  0
  7  8  1  0
  8  9  1  0
  9 10  1  0
 10 11  1  0
 11 12  1  0
 12 13  2  0
 13 14  1  0
 14 15  2  0
 15 16  1  0
 16 17  1  0
 16 18  1  0
 16 19  1  0
 15 20  1  0
 20 21  2  0
  2 22  1  0
 22 23  2  0
 23 24  1  0
 24 25  2  0
 25 26  1  0
 26 27  2  0
 27 28  1  0
 27 29  1  0
 29 30  2  0
 30 31  1  0
 31 32  2  0
 11  7  1  0
 21 12  1  0
 32 22  1  0
 31 25  1  0
  3 33  1  0
  4 34  1  0
  4 35  1  0
  8 36  1  0
  8 37  1  0
  9 38  1  0
  9 39  1  0
 10 40  1  0
 10 41  1  0
 11 42  1  6
 13 43  1  0
 14 44  1  0
 20 45  1  0
 21 46  1  0
 23 47  1  0
 24 48  1  0
 26 49  1  0
 29 50  1  0
 30 51  1  0
M  END
>  <smiles>  (18) 
O=C(NCC(=O)N1CCCC1c1ccc(C(F)(F)F)cc1)c1ccc2cc(F)ccc2n1

>  <score_type>  (18) 
oracle

>  <origin>  (18) 
autodockgpu

>  <m_score__min__energy>  (18) 
-8.8699999999999992

>  <m_primary>  (18) 
energy

>  <rmsd>  (18) 
2.1827820603569386

>  <m_score__min__rmsd>  (18) 
2.1827820603569386

>  <meeko>  (18) 
{"free_energy": -8.46, "intermolecular_energy": -10.25, "internal_energy": -1.25, "cluster_size": 34, "cluster_id": 1, "rank_in_cluster": 10}

>  <energy>  (18) 
-8.29

>  <cluster_rmsd>  (18) 
1.4

>  <cluster>  (18) 
1

$$$$

     RDKit          3D

 51 54  0  0  0  0  0  0  0  0999 V2000
  138.8650   71.9080  222.0610 O   0  0  0  0  0  0  0  0  0  0  0  0
  139.9400   71.5540  222.6070 C   0  0  0  0  0  0  0  0  0  0  0  0
  141.2000   71.9710  222.0420 N   0  0  0  0  0  0  0  0  0  0  0  0
  141.1480   72.7930  220.8510 C   0  0  0  0  0  0  0  0  0  0  0  0
  140.7680   74.1650  221.2160 C   0  0  0  0  0  0  0  0  0  0  0  0
  139.9480   74.4490  222.1430 O   0  0  0  0  0  0  0  0  0  0  0  0
  141.3400   75.2530  220.5040 N   0  0  0  0  0  0  0  0  0  0  0  0
  142.7380   75.4320  220.1460 C   0  0  0  0  0  0  0  0  0  0  0  0
  142.7710   76.3710  218.9550 C   0  0  0  0  0  0  0  0  0  0  0  0
  141.3000   76.5150  218.5950 C   0  0  0  0  0  0  0  0  0  0  0  0
  140.6720   76.4390  219.9650 C   0  0  2  0  0  0  0  0  0  0  0  0
  140.9940   77.6290  220.7620 C   0  0  0  0  0  0  0  0  0  0  0  0
  141.2080   78.8860  220.2850 C   0  0  0  0  0  0  0  0  0  0  0  0
  141.5070   79.9470  221.0990 C   0  0  0  0  0  0  0  0  0  0  0  0
  141.5990   79.7600  222.4790 C   0  0  0  0  0  0  0  0  0  0  0  0
  141.9240   80.9170  223.3610 C   0  0  0  0  0  0  0  0  0  0  0  0
  143.0520   80.6980  224.1110 F   0  0  0  0  0  0  0  0  0  0  0  0
  140.8600   81.1440  224.2070 F   0  0  0  0  0  0  0  0  0  0  0  0
  142.2060   82.0310  222.5650 F   0  0  0  0  0  0  0  0  0  0  0  0
  141.3890   78.5020  222.9940 C   0  0  0  0  0  0  0  0  0  0  0  0
  141.0900   77.4570  222.1440 C   0  0  0  0  0  0  0  0  0  0  0  0
  139.9440   70.7240  223.8070 C   0  0  0  0  0  0  0  0  0  0  0  0
  139.3350   69.4870  223.7590 C   0  0  0  0  0  0  0  0  0  0  0  0
  139.2830   68.6260  224.8360 C   0  0  0  0  0  0  0  0  0  0  0  0
  139.8820   69.0620  226.0060 C   0  0  0  0  0  0  0  0  0  0  0  0
  139.8360   68.2110  227.0910 C   0  0  0  0  0  0  0  0  0  0  0  0
  140.4350   68.6420  228.2700 C   0  0  0  0  0  0  0  0  0  0  0  0
  140.4020   67.8110  229.3640 F   0  0  0  0  0  0  0  0  0  0  0  0
  141.0480   69.8840  228.3280 C   0  0  0  0  0  0  0  0  0  0  0  0
  141.0950   70.7370  227.2430 C   0  0  0  0  0  0  0  0  0  0  0  0
  140.5000   70.3120  226.0680 C   0  0  0  0  0  0  0  0  0  0  0  0
  140.5170   71.1160  224.9650 N   0  0  0  0  0  0  0  0  0  0  0  0
  142.1080   71.6770  222.4940 H   0  0  0  0  0  0  0  0  0  0  0  0
  142.1369   72.8027  220.3693 H   0  0  0  0  0  0  0  0  0  0  0  0
  140.4034   72.3805  220.1542 H   0  0  0  0  0  0  0  0  0  0  0  0
  143.2912   75.8710  220.9893 H   0  0  0  0  0  0  0  0  0  0  0  0
  143.2082   74.4683  219.9008 H   0  0  0  0  0  0  0  0  0  0  0  0
  143.2083   77.3424  219.2289 H   0  0  0  0  0  0  0  0  0  0  0  0
  143.3870   75.9971  218.1239 H   0  0  0  0  0  0  0  0  0  0  0  0
  141.0940   77.4790  218.1069 H   0  0  0  0  0  0  0  0  0  0  0  0
  140.9284   75.7675  217.8787 H   0  0  0  0  0  0  0  0  0  0  0  0
  139.5732   76.3878  219.9618 H   0  0  0  0  0  0  0  0  0  0  0  0
  141.1379   79.0571  219.2007 H   0  0  0  0  0  0  0  0  0  0  0  0
  141.6742   80.9441  220.6656 H   0  0  0  0  0  0  0  0  0  0  0  0
  141.4591   78.3298  224.0782 H   0  0  0  0  0  0  0  0  0  0  0  0
  140.9219   76.4564  222.5689 H   0  0  0  0  0  0  0  0  0  0  0  0
  138.8674   69.1712  222.8147 H   0  0  0  0  0  0  0  0  0  0  0  0
  138.7913   67.6443  224.7687 H   0  0  0  0  0  0  0  0  0  0  0  0
  139.3444   67.2291  227.0261 H   0  0  0  0  0  0  0  0  0  0  0  0
  141.5139   70.2016  229.2725 H   0  0  0  0  0  0  0  0  0  0  0  0
  141.5874   71.7184  227.3102 H   0  0  0  0  0  0  0  0  0  0  0  0
  1  2  2  0
  2  3  1  0
  3  4  1  0
  4  5  1  0
  5  6  2  0
  5  7  1  0
  7  8  1  0
  8  9  1  0
  9 10  1  0
 10 11  1  0
 11 12  1  0
 12 13  2  0
 13 14  1  0
 14 15  2  0
 15 16  1  0
 16 17  1  0
 16 18  1  0
 16 19  1  0
 15 20  1  0
 20 21  2  0
  2 22  1  0
 22 23  2  0
 23 24  1  0
 24 25  2  0
 25 26  1  0
 26 27  2  0
 27 28  1  0
 27 29  1  0
 29 30  2  0
 30 31  1  0
 31 32  2  0
 11  7  1  0
 21 12  1  0
 32 22  1  0
 31 25  1  0
  3 33  1  0
  4 34  1  0
  4 35  1  0
  8 36  1  0
  8 37  1  0
  9 38  1  0
  9 39  1  0
 10 40  1  0
 10 41  1  0
 11 42  1  6
 13 43  1  0
 14 44  1  0
 20 45  1  0
 21 46  1  0
 23 47  1  0
 24 48  1  0
 26 49  1  0
 29 50  1  0
 30 51  1  0
M  END
>  <smiles>  (19) 
O=C(NCC(=O)N1CCCC1c1ccc(C(F)(F)F)cc1)c1ccc2cc(F)ccc2n1

>  <score_type>  (19) 
oracle

>  <origin>  (19) 
autodockgpu

>  <m_score__min__energy>  (19) 
-8.8699999999999992

>  <m_primary>  (19) 
energy

>  <rmsd>  (19) 
2.2001966409193234

>  <m_score__min__rmsd>  (19) 
2.2001966409193234

>  <meeko>  (19) 
{"free_energy": -8.34, "intermolecular_energy": -10.13, "internal_energy": -1.29, "cluster_size": 34, "cluster_id": 1, "rank_in_cluster": 15}

>  <energy>  (19) 
-8.23

>  <cluster_rmsd>  (19) 
0.81

>  <cluster>  (19) 
1

$$$$

     RDKit          3D

 51 54  0  0  0  0  0  0  0  0999 V2000
  140.4710   71.2970  221.6470 O   0  0  0  0  0  0  0  0  0  0  0  0
  139.7380   71.5230  222.6420 C   0  0  0  0  0  0  0  0  0  0  0  0
  138.7930   72.6110  222.6010 N   0  0  0  0  0  0  0  0  0  0  0  0
  138.7450   73.3960  221.3850 C   0  0  0  0  0  0  0  0  0  0  0  0
  139.5560   74.6100  221.5490 C   0  0  0  0  0  0  0  0  0  0  0  0
  140.8190   74.6040  221.6840 O   0  0  0  0  0  0  0  0  0  0  0  0
  138.9130   75.8760  221.5600 N   0  0  0  0  0  0  0  0  0  0  0  0
  138.5100   76.6670  220.4080 C   0  0  0  0  0  0  0  0  0  0  0  0
  137.4010   77.5910  220.8740 C   0  0  0  0  0  0  0  0  0  0  0  0
  137.1190   77.0980  222.2850 C   0  0  0  0  0  0  0  0  0  0  0  0
  138.5040   76.6790  222.7130 C   0  0  2  0  0  0  0  0  0  0  0  0
  139.3820   77.8440  222.8790 C   0  0  0  0  0  0  0  0  0  0  0  0
  138.9920   79.1100  223.1900 C   0  0  0  0  0  0  0  0  0  0  0  0
  139.8780   80.1470  223.3250 C   0  0  0  0  0  0  0  0  0  0  0  0
  141.2440   79.9220  223.1440 C   0  0  0  0  0  0  0  0  0  0  0  0
  142.2040   81.0520  223.2930 C   0  0  0  0  0  0  0  0  0  0  0  0
  143.4880   80.6890  222.9710 F   0  0  0  0  0  0  0  0  0  0  0  0
  142.1750   81.4910  224.5990 F   0  0  0  0  0  0  0  0  0  0  0  0
  141.8590   82.0640  222.3930 F   0  0  0  0  0  0  0  0  0  0  0  0
  141.6710   78.6530  222.8290 C   0  0  0  0  0  0  0  0  0  0  0  0
  140.7500   77.6340  222.7000 C   0  0  0  0  0  0  0  0  0  0  0  0
  139.8230   70.7050  223.8480 C   0  0  0  0  0  0  0  0  0  0  0  0
  139.2960   69.4310  223.8220 C   0  0  0  0  0  0  0  0  0  0  0  0
  139.3240   68.5770  224.9060 C   0  0  0  0  0  0  0  0  0  0  0  0
  139.9180   69.0610  226.0590 C   0  0  0  0  0  0  0  0  0  0  0  0
  139.9530   68.2190  227.1500 C   0  0  0  0  0  0  0  0  0  0  0  0
  140.5480   68.6970  228.3130 C   0  0  0  0  0  0  0  0  0  0  0  0
  140.5930   67.8750  229.4130 F   0  0  0  0  0  0  0  0  0  0  0  0
  141.0780   69.9770  228.3480 C   0  0  0  0  0  0  0  0  0  0  0  0
  141.0460   70.8220  227.2570 C   0  0  0  0  0  0  0  0  0  0  0  0
  140.4550   70.3500  226.0990 C   0  0  0  0  0  0  0  0  0  0  0  0
  140.3940   71.1440  224.9900 N   0  0  0  0  0  0  0  0  0  0  0  0
  138.1740   72.8090  223.4330 H   0  0  0  0  0  0  0  0  0  0  0  0
  139.1418   72.8009  220.5493 H   0  0  0  0  0  0  0  0  0  0  0  0
  137.7031   73.6788  221.1740 H   0  0  0  0  0  0  0  0  0  0  0  0
  139.3618   77.2557  220.0367 H   0  0  0  0  0  0  0  0  0  0  0  0
  138.1650   76.0204  219.5877 H   0  0  0  0  0  0  0  0  0  0  0  0
  137.7354   78.6389  220.8803 H   0  0  0  0  0  0  0  0  0  0  0  0
  136.5156   77.5708  220.2215 H   0  0  0  0  0  0  0  0  0  0  0  0
  136.7222   77.9008  222.9238 H   0  0  0  0  0  0  0  0  0  0  0  0
  136.3600   76.3045  222.3497 H   0  0  0  0  0  0  0  0  0  0  0  0
  138.5446   76.1529  223.6782 H   0  0  0  0  0  0  0  0  0  0  0  0
  137.9206   79.3096  223.3394 H   0  0  0  0  0  0  0  0  0  0  0  0
  139.5137   81.1543  223.5754 H   0  0  0  0  0  0  0  0  0  0  0  0
  142.7422   78.4515  222.6806 H   0  0  0  0  0  0  0  0  0  0  0  0
  141.1052   76.6239  222.4480 H   0  0  0  0  0  0  0  0  0  0  0  0
  138.8298   69.0775  222.8905 H   0  0  0  0  0  0  0  0  0  0  0  0
  138.8966   67.5646  224.8563 H   0  0  0  0  0  0  0  0  0  0  0  0
  139.5261   67.2063  227.1026 H   0  0  0  0  0  0  0  0  0  0  0  0
  141.5415   70.3329  229.2800 H   0  0  0  0  0  0  0  0  0  0  0  0
  141.4748   71.8337  227.3067 H   0  0  0  0  0  0  0  0  0  0  0  0
  1  2  2  0
  2  3  1  0
  3  4  1  0
  4  5  1  0
  5  6  2  0
  5  7  1  0
  7  8  1  0
  8  9  1  0
  9 10  1  0
 10 11  1  0
 11 12  1  0
 12 13  2  0
 13 14  1  0
 14 15  2  0
 15 16  1  0
 16 17  1  0
 16 18  1  0
 16 19  1  0
 15 20  1  0
 20 21  2  0
  2 22  1  0
 22 23  2  0
 23 24  1  0
 24 25  2  0
 25 26  1  0
 26 27  2  0
 27 28  1  0
 27 29  1  0
 29 30  2  0
 30 31  1  0
 31 32  2  0
 11  7  1  0
 21 12  1  0
 32 22  1  0
 31 25  1  0
  3 33  1  0
  4 34  1  0
  4 35  1  0
  8 36  1  0
  8 37  1  0
  9 38  1  0
  9 39  1  0
 10 40  1  0
 10 41  1  0
 11 42  1  1
 13 43  1  0
 14 44  1  0
 20 45  1  0
 21 46  1  0
 23 47  1  0
 24 48  1  0
 26 49  1  0
 29 50  1  0
 30 51  1  0
M  END
>  <smiles>  (20) 
O=C(NCC(=O)N1CCCC1c1ccc(C(F)(F)F)cc1)c1ccc2cc(F)ccc2n1

>  <score_type>  (20) 
oracle

>  <origin>  (20) 
autodockgpu

>  <m_score__min__energy>  (20) 
-8.8699999999999992

>  <m_primary>  (20) 
energy

>  <rmsd>  (20) 
2.566701075584347

>  <m_score__min__rmsd>  (20) 
2.566701075584347

>  <meeko>  (20) 
{"free_energy": -8.66, "intermolecular_energy": -10.45, "internal_energy": -1.3, "cluster_size": 34, "cluster_id": 1, "rank_in_cluster": 5}

>  <energy>  (20) 
-8.23

>  <cluster_rmsd>  (20) 
1.92

>  <cluster>  (20) 
1

$$$$

     RDKit          3D

 51 54  0  0  0  0  0  0  0  0999 V2000
  139.2280   70.7430  221.3360 O   0  0  0  0  0  0  0  0  0  0  0  0
  139.1670   71.4790  222.3520 C   0  0  0  0  0  0  0  0  0  0  0  0
  138.6310   72.8130  222.2360 N   0  0  0  0  0  0  0  0  0  0  0  0
  138.1850   73.2320  220.9240 C   0  0  0  0  0  0  0  0  0  0  0  0
  138.5330   74.6450  220.7130 C   0  0  0  0  0  0  0  0  0  0  0  0
  137.6770   75.5600  220.5080 O   0  0  0  0  0  0  0  0  0  0  0  0
  139.8990   75.0310  220.7360 N   0  0  0  0  0  0  0  0  0  0  0  0
  140.9600   74.4620  221.5500 C   0  0  0  0  0  0  0  0  0  0  0  0
  142.2690   74.7640  220.8450 C   0  0  0  0  0  0  0  0  0  0  0  0
  141.8100   75.3540  219.5200 C   0  0  0  0  0  0  0  0  0  0  0  0
  140.5610   76.0790  219.9570 C   0  0  2  0  0  0  0  0  0  0  0  0
  140.8870   77.2340  220.8030 C   0  0  0  0  0  0  0  0  0  0  0  0
  141.8610   78.1550  220.5690 C   0  0  0  0  0  0  0  0  0  0  0  0
  142.1040   79.2070  221.4130 C   0  0  0  0  0  0  0  0  0  0  0  0
  141.3330   79.3660  222.5660 C   0  0  0  0  0  0  0  0  0  0  0  0
  141.6000   80.5120  223.4800 C   0  0  0  0  0  0  0  0  0  0  0  0
  141.9130   81.6600  222.7960 F   0  0  0  0  0  0  0  0  0  0  0  0
  142.6510   80.1840  224.3100 F   0  0  0  0  0  0  0  0  0  0  0  0
  140.4370   80.8030  224.1990 F   0  0  0  0  0  0  0  0  0  0  0  0
  140.3400   78.4520  222.8310 C   0  0  0  0  0  0  0  0  0  0  0  0
  140.1250   77.4050  221.9600 C   0  0  0  0  0  0  0  0  0  0  0  0
  139.6290   71.0140  223.6550 C   0  0  0  0  0  0  0  0  0  0  0  0
  140.3980   71.8600  224.4270 C   0  0  0  0  0  0  0  0  0  0  0  0
  140.8850   71.5170  225.6720 C   0  0  0  0  0  0  0  0  0  0  0  0
  140.5640   70.2520  226.1340 C   0  0  0  0  0  0  0  0  0  0  0  0
  141.0450   69.8970  227.3770 C   0  0  0  0  0  0  0  0  0  0  0  0
  140.7280   68.6270  227.8500 C   0  0  0  0  0  0  0  0  0  0  0  0
  141.1960   68.2510  229.0860 F   0  0  0  0  0  0  0  0  0  0  0  0
  139.9580   67.7690  227.0800 C   0  0  0  0  0  0  0  0  0  0  0  0
  139.4750   68.1230  225.8360 C   0  0  0  0  0  0  0  0  0  0  0  0
  139.7880   69.3850  225.3630 C   0  0  0  0  0  0  0  0  0  0  0  0
  139.3380   69.7870  224.1390 N   0  0  0  0  0  0  0  0  0  0  0  0
  138.5760   73.4390  223.0850 H   0  0  0  0  0  0  0  0  0  0  0  0
  138.6756   72.6155  220.1563 H   0  0  0  0  0  0  0  0  0  0  0  0
  137.0942   73.1097  220.8525 H   0  0  0  0  0  0  0  0  0  0  0  0
  140.9553   74.9192  222.5505 H   0  0  0  0  0  0  0  0  0  0  0  0
  140.8216   73.3778  221.6742 H   0  0  0  0  0  0  0  0  0  0  0  0
  142.8680   75.4892  221.4153 H   0  0  0  0  0  0  0  0  0  0  0  0
  142.9145   73.8810  220.7282 H   0  0  0  0  0  0  0  0  0  0  0  0
  142.5565   76.0465  219.1040 H   0  0  0  0  0  0  0  0  0  0  0  0
  141.6540   74.6154  218.7199 H   0  0  0  0  0  0  0  0  0  0  0  0
  139.9597   76.4913  219.1333 H   0  0  0  0  0  0  0  0  0  0  0  0
  142.4789   78.0508  219.6649 H   0  0  0  0  0  0  0  0  0  0  0  0
  142.9050   79.9248  221.1824 H   0  0  0  0  0  0  0  0  0  0  0  0
  139.7201   78.5558  223.7338 H   0  0  0  0  0  0  0  0  0  0  0  0
  139.3275   76.6813  222.1841 H   0  0  0  0  0  0  0  0  0  0  0  0
  140.6350   72.8582  224.0303 H   0  0  0  0  0  0  0  0  0  0  0  0
  141.4962   72.2123  226.2661 H   0  0  0  0  0  0  0  0  0  0  0  0
  141.6562   70.5915  227.9721 H   0  0  0  0  0  0  0  0  0  0  0  0
  139.7232   66.7694  227.4747 H   0  0  0  0  0  0  0  0  0  0  0  0
  138.8637   67.4272  225.2426 H   0  0  0  0  0  0  0  0  0  0  0  0
  1  2  2  0
  2  3  1  0
  3  4  1  0
  4  5  1  0
  5  6  2  0
  5  7  1  0
  7  8  1  0
  8  9  1  0
  9 10  1  0
 10 11  1  0
 11 12  1  0
 12 13  2  0
 13 14  1  0
 14 15  2  0
 15 16  1  0
 16 17  1  0
 16 18  1  0
 16 19  1  0
 15 20  1  0
 20 21  2  0
  2 22  1  0
 22 23  2  0
 23 24  1  0
 24 25  2  0
 25 26  1  0
 26 27  2  0
 27 28  1  0
 27 29  1  0
 29 30  2  0
 30 31  1  0
 31 32  2  0
 11  7  1  0
 21 12  1  0
 32 22  1  0
 31 25  1  0
  3 33  1  0
  4 34  1  0
  4 35  1  0
  8 36  1  0
  8 37  1  0
  9 38  1  0
  9 39  1  0
 10 40  1  0
 10 41  1  0
 11 42  1  6
 13 43  1  0
 14 44  1  0
 20 45  1  0
 21 46  1  0
 23 47  1  0
 24 48  1  0
 26 49  1  0
 29 50  1  0
 30 51  1  0
M  END
>  <smiles>  (21) 
O=C(NCC(=O)N1CCCC1c1ccc(C(F)(F)F)cc1)c1ccc2cc(F)ccc2n1

>  <score_type>  (21) 
oracle

>  <origin>  (21) 
autodockgpu

>  <m_score__min__energy>  (21) 
-8.8699999999999992

>  <m_primary>  (21) 
energy

>  <rmsd>  (21) 
2.936440548169313

>  <m_score__min__rmsd>  (21) 
2.936440548169313

>  <meeko>  (21) 
{"free_energy": -7.78, "intermolecular_energy": -9.57, "internal_energy": -1.38, "cluster_size": 34, "cluster_id": 1, "rank_in_cluster": 33}

>  <energy>  (21) 
-8.21

>  <cluster_rmsd>  (21) 
0.83

>  <cluster>  (21) 
1

$$$$

     RDKit          3D

 51 54  0  0  0  0  0  0  0  0999 V2000
  138.9730   70.5110  221.4710 O   0  0  0  0  0  0  0  0  0  0  0  0
  139.2090   71.1130  222.5490 C   0  0  0  0  0  0  0  0  0  0  0  0
  139.2340   72.5540  222.5730 N   0  0  0  0  0  0  0  0  0  0  0  0
  138.9790   73.2370  221.3220 C   0  0  0  0  0  0  0  0  0  0  0  0
  139.7700   74.4750  221.2660 C   0  0  0  0  0  0  0  0  0  0  0  0
  141.0360   74.5020  221.1680 O   0  0  0  0  0  0  0  0  0  0  0  0
  139.1010   75.7270  221.3240 N   0  0  0  0  0  0  0  0  0  0  0  0
  138.6950   76.5590  220.2040 C   0  0  0  0  0  0  0  0  0  0  0  0
  137.5630   77.4400  220.6970 C   0  0  0  0  0  0  0  0  0  0  0  0
  137.2760   76.8800  222.0810 C   0  0  0  0  0  0  0  0  0  0  0  0
  138.6640   76.4700  222.5070 C   0  0  2  0  0  0  0  0  0  0  0  0
  139.5170   77.6430  222.7330 C   0  0  0  0  0  0  0  0  0  0  0  0
  139.1030   78.8760  223.1360 C   0  0  0  0  0  0  0  0  0  0  0  0
  139.9660   79.9240  223.3230 C   0  0  0  0  0  0  0  0  0  0  0  0
  141.3330   79.7460  223.1010 C   0  0  0  0  0  0  0  0  0  0  0  0
  142.2680   80.8890  223.3060 C   0  0  0  0  0  0  0  0  0  0  0  0
  142.8580   80.8610  224.5450 F   0  0  0  0  0  0  0  0  0  0  0  0
  141.5670   82.0680  223.1680 F   0  0  0  0  0  0  0  0  0  0  0  0
  143.3150   80.7920  222.3840 F   0  0  0  0  0  0  0  0  0  0  0  0
  141.7840   78.5130  222.6930 C   0  0  0  0  0  0  0  0  0  0  0  0
  140.8860   77.4810  222.5140 C   0  0  0  0  0  0  0  0  0  0  0  0
  139.4600   70.3810  223.7870 C   0  0  0  0  0  0  0  0  0  0  0  0
  139.1000   69.0510  223.8550 C   0  0  0  0  0  0  0  0  0  0  0  0
  139.2940   68.2710  224.9770 C   0  0  0  0  0  0  0  0  0  0  0  0
  139.8810   68.8900  226.0670 C   0  0  0  0  0  0  0  0  0  0  0  0
  140.0790   68.1210  227.1950 C   0  0  0  0  0  0  0  0  0  0  0  0
  140.6690   68.7350  228.2950 C   0  0  0  0  0  0  0  0  0  0  0  0
  140.8760   67.9890  229.4300 F   0  0  0  0  0  0  0  0  0  0  0  0
  141.0320   70.0720  228.2360 C   0  0  0  0  0  0  0  0  0  0  0  0
  140.8340   70.8430  227.1080 C   0  0  0  0  0  0  0  0  0  0  0  0
  140.2490   70.2350  226.0110 C   0  0  0  0  0  0  0  0  0  0  0  0
  140.0300   70.9510  224.8700 N   0  0  0  0  0  0  0  0  0  0  0  0
  139.4310   73.0680  223.4740 H   0  0  0  0  0  0  0  0  0  0  0  0
  139.2621   72.5834  220.4837 H   0  0  0  0  0  0  0  0  0  0  0  0
  137.9093   73.4834  221.2517 H   0  0  0  0  0  0  0  0  0  0  0  0
  139.5389   77.1798  219.8685 H   0  0  0  0  0  0  0  0  0  0  0  0
  138.3717   75.9424  219.3524 H   0  0  0  0  0  0  0  0  0  0  0  0
  137.8764   78.4929  220.7531 H   0  0  0  0  0  0  0  0  0  0  0  0
  136.6853   77.4317  220.0340 H   0  0  0  0  0  0  0  0  0  0  0  0
  136.8560   77.6459  222.7496 H   0  0  0  0  0  0  0  0  0  0  0  0
  136.5328   76.0693  222.1016 H   0  0  0  0  0  0  0  0  0  0  0  0
  138.7046   75.9035  223.4490 H   0  0  0  0  0  0  0  0  0  0  0  0
  138.0305   79.0377  223.3192 H   0  0  0  0  0  0  0  0  0  0  0  0
  139.5828   80.9028  223.6471 H   0  0  0  0  0  0  0  0  0  0  0  0
  142.8563   78.3500  222.5100 H   0  0  0  0  0  0  0  0  0  0  0  0
  141.2608   76.4994  222.1884 H   0  0  0  0  0  0  0  0  0  0  0  0
  138.6354   68.5893  222.9713 H   0  0  0  0  0  0  0  0  0  0  0  0
  138.9974   67.2121  225.0036 H   0  0  0  0  0  0  0  0  0  0  0  0
  139.7816   67.0624  227.2236 H   0  0  0  0  0  0  0  0  0  0  0  0
  141.4945   70.5351  229.1201 H   0  0  0  0  0  0  0  0  0  0  0  0
  141.1304   71.9020  227.0821 H   0  0  0  0  0  0  0  0  0  0  0  0
  1  2  2  0
  2  3  1  0
  3  4  1  0
  4  5  1  0
  5  6  2  0
  5  7  1  0
  7  8  1  0
  8  9  1  0
  9 10  1  0
 10 11  1  0
 11 12  1  0
 12 13  2  0
 13 14  1  0
 14 15  2  0
 15 16  1  0
 16 17  1  0
 16 18  1  0
 16 19  1  0
 15 20  1  0
 20 21  2  0
  2 22  1  0
 22 23  2  0
 23 24  1  0
 24 25  2  0
 25 26  1  0
 26 27  2  0
 27 28  1  0
 27 29  1  0
 29 30  2  0
 30 31  1  0
 31 32  2  0
 11  7  1  0
 21 12  1  0
 32 22  1  0
 31 25  1  0
  3 33  1  0
  4 34  1  0
  4 35  1  0
  8 36  1  0
  8 37  1  0
  9 38  1  0
  9 39  1  0
 10 40  1  0
 10 41  1  0
 11 42  1  1
 13 43  1  0
 14 44  1  0
 20 45  1  0
 21 46  1  0
 23 47  1  0
 24 48  1  0
 26 49  1  0
 29 50  1  0
 30 51  1  0
M  END
>  <smiles>  (22) 
O=C(NCC(=O)N1CCCC1c1ccc(C(F)(F)F)cc1)c1ccc2cc(F)ccc2n1

>  <score_type>  (22) 
oracle

>  <origin>  (22) 
autodockgpu

>  <m_score__min__energy>  (22) 
-8.8699999999999992

>  <m_primary>  (22) 
energy

>  <rmsd>  (22) 
2.432316891945079

>  <m_score__min__rmsd>  (22) 
2.432316891945079

>  <meeko>  (22) 
{"free_energy": -8.11, "intermolecular_energy": -9.9, "internal_energy": -1.47, "cluster_size": 34, "cluster_id": 1, "rank_in_cluster": 27}

>  <energy>  (22) 
-8.19

>  <cluster_rmsd>  (22) 
1.0

>  <cluster>  (22) 
1

$$$$

     RDKit          3D

 51 54  0  0  0  0  0  0  0  0999 V2000
  139.5520   70.9040  221.4490 O   0  0  0  0  0  0  0  0  0  0  0  0
  139.7020   71.4650  222.5640 C   0  0  0  0  0  0  0  0  0  0  0  0
  139.8110   72.9000  222.6330 N   0  0  0  0  0  0  0  0  0  0  0  0
  139.7400   73.6270  221.3820 C   0  0  0  0  0  0  0  0  0  0  0  0
  140.9910   73.4420  220.6320 C   0  0  0  0  0  0  0  0  0  0  0  0
  141.4260   72.3120  220.2520 O   0  0  0  0  0  0  0  0  0  0  0  0
  141.7730   74.5800  220.3020 N   0  0  0  0  0  0  0  0  0  0  0  0
  143.2070   74.7420  220.4800 C   0  0  0  0  0  0  0  0  0  0  0  0
  143.6550   75.8100  219.4990 C   0  0  0  0  0  0  0  0  0  0  0  0
  142.4040   76.0540  218.6690 C   0  0  0  0  0  0  0  0  0  0  0  0
  141.3340   75.8460  219.7130 C   0  0  2  0  0  0  0  0  0  0  0  0
  141.3530   76.9230  220.7110 C   0  0  0  0  0  0  0  0  0  0  0  0
  141.0080   76.8130  222.0230 C   0  0  0  0  0  0  0  0  0  0  0  0
  141.0510   77.8720  222.8920 C   0  0  0  0  0  0  0  0  0  0  0  0
  141.4640   79.1260  222.4390 C   0  0  0  0  0  0  0  0  0  0  0  0
  141.5100   80.2750  223.3880 C   0  0  0  0  0  0  0  0  0  0  0  0
  141.4470   81.4850  222.7430 F   0  0  0  0  0  0  0  0  0  0  0  0
  142.6840   80.2110  224.1070 F   0  0  0  0  0  0  0  0  0  0  0  0
  140.3860   80.2270  224.2170 F   0  0  0  0  0  0  0  0  0  0  0  0
  141.8190   79.2710  221.1190 C   0  0  0  0  0  0  0  0  0  0  0  0
  141.7630   78.1840  220.2720 C   0  0  0  0  0  0  0  0  0  0  0  0
  139.7690   70.6900  223.7990 C   0  0  0  0  0  0  0  0  0  0  0  0
  139.2490   69.4130  223.8100 C   0  0  0  0  0  0  0  0  0  0  0  0
  139.2620   68.5990  224.9240 C   0  0  0  0  0  0  0  0  0  0  0  0
  139.8330   69.1270  226.0690 C   0  0  0  0  0  0  0  0  0  0  0  0
  139.8520   68.3240  227.1900 C   0  0  0  0  0  0  0  0  0  0  0  0
  140.4250   68.8460  228.3450 C   0  0  0  0  0  0  0  0  0  0  0  0
  140.4550   68.0640  229.4750 F   0  0  0  0  0  0  0  0  0  0  0  0
  140.9480   70.1300  228.3440 C   0  0  0  0  0  0  0  0  0  0  0  0
  140.9310   70.9350  227.2230 C   0  0  0  0  0  0  0  0  0  0  0  0
  140.3630   70.4190  226.0720 C   0  0  0  0  0  0  0  0  0  0  0  0
  140.3180   71.1720  224.9340 N   0  0  0  0  0  0  0  0  0  0  0  0
  139.9380   73.3800  223.5650 H   0  0  0  0  0  0  0  0  0  0  0  0
  138.8965   73.2484  220.7860 H   0  0  0  0  0  0  0  0  0  0  0  0
  139.5935   74.6973  221.5894 H   0  0  0  0  0  0  0  0  0  0  0  0
  143.4270   75.0585  221.5103 H   0  0  0  0  0  0  0  0  0  0  0  0
  143.7358   73.7945  220.2992 H   0  0  0  0  0  0  0  0  0  0  0  0
  143.9661   76.7249  220.0246 H   0  0  0  0  0  0  0  0  0  0  0  0
  144.5248   75.5094  218.8964 H   0  0  0  0  0  0  0  0  0  0  0  0
  142.3802   77.0755  218.2615 H   0  0  0  0  0  0  0  0  0  0  0  0
  142.3100   75.4095  217.7826 H   0  0  0  0  0  0  0  0  0  0  0  0
  140.3065   75.8397  219.3204 H   0  0  0  0  0  0  0  0  0  0  0  0
  140.6810   75.8334  222.4017 H   0  0  0  0  0  0  0  0  0  0  0  0
  140.7607   77.7340  223.9440 H   0  0  0  0  0  0  0  0  0  0  0  0
  142.1465   80.2502  220.7397 H   0  0  0  0  0  0  0  0  0  0  0  0
  142.0501   78.3141  219.2181 H   0  0  0  0  0  0  0  0  0  0  0  0
  138.8012   69.0235  222.8838 H   0  0  0  0  0  0  0  0  0  0  0  0
  138.8405   67.5832  224.9032 H   0  0  0  0  0  0  0  0  0  0  0  0
  139.4297   67.3084  227.1715 H   0  0  0  0  0  0  0  0  0  0  0  0
  141.3929   70.5216  229.2707 H   0  0  0  0  0  0  0  0  0  0  0  0
  141.3538   71.9503  227.2441 H   0  0  0  0  0  0  0  0  0  0  0  0
  1  2  2  0
  2  3  1  0
  3  4  1  0
  4  5  1  0
  5  6  2  0
  5  7  1  0
  7  8  1  0
  8  9  1  0
  9 10  1  0
 10 11  1  0
 11 12  1  0
 12 13  2  0
 13 14  1  0
 14 15  2  0
 15 16  1  0
 16 17  1  0
 16 18  1  0
 16 19  1  0
 15 20  1  0
 20 21  2  0
  2 22  1  0
 22 23  2  0
 23 24  1  0
 24 25  2  0
 25 26  1  0
 26 27  2  0
 27 28  1  0
 27 29  1  0
 29 30  2  0
 30 31  1  0
 31 32  2  0
 11  7  1  0
 21 12  1  0
 32 22  1  0
 31 25  1  0
  3 33  1  0
  4 34  1  0
  4 35  1  0
  8 36  1  0
  8 37  1  0
  9 38  1  0
  9 39  1  0
 10 40  1  0
 10 41  1  0
 11 42  1  6
 13 43  1  0
 14 44  1  0
 20 45  1  0
 21 46  1  0
 23 47  1  0
 24 48  1  0
 26 49  1  0
 29 50  1  0
 30 51  1  0
M  END
>  <smiles>  (23) 
O=C(NCC(=O)N1CCCC1c1ccc(C(F)(F)F)cc1)c1ccc2cc(F)ccc2n1

>  <score_type>  (23) 
oracle

>  <origin>  (23) 
autodockgpu

>  <m_score__min__energy>  (23) 
-8.8699999999999992

>  <m_primary>  (23) 
energy

>  <rmsd>  (23) 
2.216044691628387

>  <m_score__min__rmsd>  (23) 
2.216044691628387

>  <meeko>  (23) 
{"free_energy": -8.23, "intermolecular_energy": -10.02, "internal_energy": -1.42, "cluster_size": 34, "cluster_id": 1, "rank_in_cluster": 20}

>  <energy>  (23) 
-8.17

>  <cluster_rmsd>  (23) 
1.26

>  <cluster>  (23) 
1

$$$$

     RDKit          3D

 51 54  0  0  0  0  0  0  0  0999 V2000
  141.4430   73.7240  220.6410 O   0  0  0  0  0  0  0  0  0  0  0  0
  140.7540   74.4960  221.3540 C   0  0  0  0  0  0  0  0  0  0  0  0
  139.6350   73.9740  222.0980 N   0  0  0  0  0  0  0  0  0  0  0  0
  139.3660   72.5560  221.9740 C   0  0  0  0  0  0  0  0  0  0  0  0
  138.0610   72.2470  222.5770 C   0  0  0  0  0  0  0  0  0  0  0  0
  137.1240   73.0950  222.7070 O   0  0  0  0  0  0  0  0  0  0  0  0
  137.8100   70.9310  223.0470 N   0  0  0  0  0  0  0  0  0  0  0  0
  136.5940   70.4380  223.6730 C   0  0  0  0  0  0  0  0  0  0  0  0
  136.5720   68.9340  223.4690 C   0  0  0  0  0  0  0  0  0  0  0  0
  137.7490   68.7020  222.5350 C   0  0  0  0  0  0  0  0  0  0  0  0
  138.7010   69.7700  223.0160 C   0  0  2  0  0  0  0  0  0  0  0  0
  139.2060   69.4610  224.3590 C   0  0  0  0  0  0  0  0  0  0  0  0
  139.2170   68.2380  224.9560 C   0  0  0  0  0  0  0  0  0  0  0  0
  139.7080   68.0330  226.2190 C   0  0  0  0  0  0  0  0  0  0  0  0
  140.2260   69.1070  226.9460 C   0  0  0  0  0  0  0  0  0  0  0  0
  140.7590   68.8800  228.3200 C   0  0  0  0  0  0  0  0  0  0  0  0
  141.5970   69.8880  228.7250 F   0  0  0  0  0  0  0  0  0  0  0  0
  141.4500   67.6870  228.3370 F   0  0  0  0  0  0  0  0  0  0  0  0
  139.6950   68.8810  229.2270 F   0  0  0  0  0  0  0  0  0  0  0  0
  140.2290   70.3560  226.3720 C   0  0  0  0  0  0  0  0  0  0  0  0
  139.7270   70.5250  225.0990 C   0  0  0  0  0  0  0  0  0  0  0  0
  141.0630   75.9190  221.4480 C   0  0  0  0  0  0  0  0  0  0  0  0
  141.5330   76.5700  220.3260 C   0  0  0  0  0  0  0  0  0  0  0  0
  141.8540   77.9130  220.3080 C   0  0  0  0  0  0  0  0  0  0  0  0
  141.6820   78.6050  221.4940 C   0  0  0  0  0  0  0  0  0  0  0  0
  141.9990   79.9470  221.4900 C   0  0  0  0  0  0  0  0  0  0  0  0
  141.8300   80.6520  222.6780 C   0  0  0  0  0  0  0  0  0  0  0  0
  142.1400   81.9900  222.6980 F   0  0  0  0  0  0  0  0  0  0  0  0
  141.3590   80.0050  223.8100 C   0  0  0  0  0  0  0  0  0  0  0  0
  141.0410   78.6620  223.8170 C   0  0  0  0  0  0  0  0  0  0  0  0
  141.2070   77.9580  222.6370 C   0  0  0  0  0  0  0  0  0  0  0  0
  140.9080   76.6270  222.5870 N   0  0  0  0  0  0  0  0  0  0  0  0
  139.0500   74.6150  222.6990 H   0  0  0  0  0  0  0  0  0  0  0  0
  139.3527   72.2776  220.9099 H   0  0  0  0  0  0  0  0  0  0  0  0
  140.1521   71.9882  222.4934 H   0  0  0  0  0  0  0  0  0  0  0  0
  136.5991   70.6740  224.7474 H   0  0  0  0  0  0  0  0  0  0  0  0
  135.7041   70.9087  223.2297 H   0  0  0  0  0  0  0  0  0  0  0  0
  136.7122   68.4030  224.4221 H   0  0  0  0  0  0  0  0  0  0  0  0
  135.6177   68.5636  223.0663 H   0  0  0  0  0  0  0  0  0  0  0  0
  138.1731   67.6947  222.6595 H   0  0  0  0  0  0  0  0  0  0  0  0
  137.5013   68.7588  221.4648 H   0  0  0  0  0  0  0  0  0  0  0  0
  139.6006   69.8956  222.3955 H   0  0  0  0  0  0  0  0  0  0  0  0
  138.8147   67.3775  224.4012 H   0  0  0  0  0  0  0  0  0  0  0  0
  139.6941   67.0249  226.6590 H   0  0  0  0  0  0  0  0  0  0  0  0
  140.6303   71.2173  226.9261 H   0  0  0  0  0  0  0  0  0  0  0  0
  139.7371   71.5300  224.6518 H   0  0  0  0  0  0  0  0  0  0  0  0
  141.6583   75.9903  219.3996 H   0  0  0  0  0  0  0  0  0  0  0  0
  142.2269   78.4068  219.3986 H   0  0  0  0  0  0  0  0  0  0  0  0
  142.3717   80.4421  220.5812 H   0  0  0  0  0  0  0  0  0  0  0  0
  141.2341   80.5836  224.7372 H   0  0  0  0  0  0  0  0  0  0  0  0
  140.6691   78.1690  224.7273 H   0  0  0  0  0  0  0  0  0  0  0  0
  1  2  2  0
  2  3  1  0
  3  4  1  0
  4  5  1  0
  5  6  2  0
  5  7  1  0
  7  8  1  0
  8  9  1  0
  9 10  1  0
 10 11  1  0
 11 12  1  0
 12 13  2  0
 13 14  1  0
 14 15  2  0
 15 16  1  0
 16 17  1  0
 16 18  1  0
 16 19  1  0
 15 20  1  0
 20 21  2  0
  2 22  1  0
 22 23  2  0
 23 24  1  0
 24 25  2  0
 25 26  1  0
 26 27  2  0
 27 28  1  0
 27 29  1  0
 29 30  2  0
 30 31  1  0
 31 32  2  0
 11  7  1  0
 21 12  1  0
 32 22  1  0
 31 25  1  0
  3 33  1  0
  4 34  1  0
  4 35  1  0
  8 36  1  0
  8 37  1  0
  9 38  1  0
  9 39  1  0
 10 40  1  0
 10 41  1  0
 11 42  1  6
 13 43  1  0
 14 44  1  0
 20 45  1  0
 21 46  1  0
 23 47  1  0
 24 48  1  0
 26 49  1  0
 29 50  1  0
 30 51  1  0
M  END
>  <smiles>  (24) 
O=C(NCC(=O)N1CCCC1c1ccc(C(F)(F)F)cc1)c1ccc2cc(F)ccc2n1

>  <score_type>  (24) 
oracle

>  <origin>  (24) 
autodockgpu

>  <m_score__min__energy>  (24) 
-8.8699999999999992

>  <m_primary>  (24) 
energy

>  <rmsd>  (24) 
8.594409357269035

>  <m_score__min__rmsd>  (24) 
8.594409357269035

>  <meeko>  (24) 
{"free_energy": -7.67, "intermolecular_energy": -9.46, "internal_energy": -1.65, "cluster_size": 2, "cluster_id": 4, "rank_in_cluster": 2}

>  <energy>  (24) 
-8.16

>  <cluster_rmsd>  (24) 
1.93

>  <cluster>  (24) 
1

$$$$

     RDKit          3D

 51 54  0  0  0  0  0  0  0  0999 V2000
  138.5530   72.0590  222.5170 O   0  0  0  0  0  0  0  0  0  0  0  0
  139.6680   71.5860  222.8520 C   0  0  0  0  0  0  0  0  0  0  0  0
  140.8400   71.8950  222.0720 N   0  0  0  0  0  0  0  0  0  0  0  0
  140.6570   72.7540  220.9210 C   0  0  0  0  0  0  0  0  0  0  0  0
  140.4310   74.1370  221.3670 C   0  0  0  0  0  0  0  0  0  0  0  0
  139.6390   74.4550  222.3070 O   0  0  0  0  0  0  0  0  0  0  0  0
  141.1290   75.1930  220.7250 N   0  0  0  0  0  0  0  0  0  0  0  0
  142.5570   75.2690  220.4590 C   0  0  0  0  0  0  0  0  0  0  0  0
  142.7380   76.2340  219.3020 C   0  0  0  0  0  0  0  0  0  0  0  0
  141.3090   76.5040  218.8580 C   0  0  0  0  0  0  0  0  0  0  0  0
  140.5910   76.4420  220.1840 C   0  0  2  0  0  0  0  0  0  0  0  0
  140.9540   77.5820  221.0360 C   0  0  0  0  0  0  0  0  0  0  0  0
  141.0560   77.5740  222.3930 C   0  0  0  0  0  0  0  0  0  0  0  0
  141.4000   78.6860  223.1170 C   0  0  0  0  0  0  0  0  0  0  0  0
  141.6640   79.8890  222.4590 C   0  0  0  0  0  0  0  0  0  0  0  0
  142.0380   81.0960  223.2500 C   0  0  0  0  0  0  0  0  0  0  0  0
  143.2670   80.9650  223.8470 F   0  0  0  0  0  0  0  0  0  0  0  0
  141.0860   81.3020  224.2250 F   0  0  0  0  0  0  0  0  0  0  0  0
  142.1490   82.1900  222.3870 F   0  0  0  0  0  0  0  0  0  0  0  0
  141.5690   79.9300  221.0880 C   0  0  0  0  0  0  0  0  0  0  0  0
  141.2200   78.7920  220.3920 C   0  0  0  0  0  0  0  0  0  0  0  0
  139.8040   70.7240  224.0220 C   0  0  0  0  0  0  0  0  0  0  0  0
  139.3490   69.4240  223.9440 C   0  0  0  0  0  0  0  0  0  0  0  0
  139.4300   68.5290  224.9910 C   0  0  0  0  0  0  0  0  0  0  0  0
  140.0040   68.9960  226.1610 C   0  0  0  0  0  0  0  0  0  0  0  0
  140.0910   68.1110  227.2150 C   0  0  0  0  0  0  0  0  0  0  0  0
  140.6660   68.5730  228.3960 C   0  0  0  0  0  0  0  0  0  0  0  0
  140.7630   67.7090  229.4600 F   0  0  0  0  0  0  0  0  0  0  0  0
  141.1240   69.8780  228.4830 C   0  0  0  0  0  0  0  0  0  0  0  0
  141.0380   70.7650  227.4290 C   0  0  0  0  0  0  0  0  0  0  0  0
  140.4680   70.3100  226.2540 C   0  0  0  0  0  0  0  0  0  0  0  0
  140.3570   71.1450  225.1790 N   0  0  0  0  0  0  0  0  0  0  0  0
  141.7810   71.5020  222.3470 H   0  0  0  0  0  0  0  0  0  0  0  0
  141.5566   72.7157  220.2892 H   0  0  0  0  0  0  0  0  0  0  0  0
  139.7861   72.4099  220.3439 H   0  0  0  0  0  0  0  0  0  0  0  0
  143.0883   75.6399  221.3479 H   0  0  0  0  0  0  0  0  0  0  0  0
  142.9654   74.2777  220.2131 H   0  0  0  0  0  0  0  0  0  0  0  0
  143.2314   77.1600  219.6325 H   0  0  0  0  0  0  0  0  0  0  0  0
  143.3743   75.8344  218.4986 H   0  0  0  0  0  0  0  0  0  0  0  0
  141.2100   77.4940  218.3888 H   0  0  0  0  0  0  0  0  0  0  0  0
  140.9266   75.8075  218.0973 H   0  0  0  0  0  0  0  0  0  0  0  0
  139.4939   76.4784  220.1125 H   0  0  0  0  0  0  0  0  0  0  0  0
  140.8540   76.6362  222.9313 H   0  0  0  0  0  0  0  0  0  0  0  0
  141.4679   78.6308  224.2135 H   0  0  0  0  0  0  0  0  0  0  0  0
  141.7706   80.8671  220.5484 H   0  0  0  0  0  0  0  0  0  0  0  0
  141.1489   78.8389  219.2953 H   0  0  0  0  0  0  0  0  0  0  0  0
  138.8990   69.0838  222.9996 H   0  0  0  0  0  0  0  0  0  0  0  0
  139.0578   67.4978  224.9007 H   0  0  0  0  0  0  0  0  0  0  0  0
  139.7202   67.0792  227.1261 H   0  0  0  0  0  0  0  0  0  0  0  0
  141.5728   70.2197  229.4273 H   0  0  0  0  0  0  0  0  0  0  0  0
  141.4094   71.7964  227.5203 H   0  0  0  0  0  0  0  0  0  0  0  0
  1  2  2  0
  2  3  1  0
  3  4  1  0
  4  5  1  0
  5  6  2  0
  5  7  1  0
  7  8  1  0
  8  9  1  0
  9 10  1  0
 10 11  1  0
 11 12  1  0
 12 13  2  0
 13 14  1  0
 14 15  2  0
 15 16  1  0
 16 17  1  0
 16 18  1  0
 16 19  1  0
 15 20  1  0
 20 21  2  0
  2 22  1  0
 22 23  2  0
 23 24  1  0
 24 25  2  0
 25 26  1  0
 26 27  2  0
 27 28  1  0
 27 29  1  0
 29 30  2  0
 30 31  1  0
 31 32  2  0
 11  7  1  0
 21 12  1  0
 32 22  1  0
 31 25  1  0
  3 33  1  0
  4 34  1  0
  4 35  1  0
  8 36  1  0
  8 37  1  0
  9 38  1  0
  9 39  1  0
 10 40  1  0
 10 41  1  0
 11 42  1  6
 13 43  1  0
 14 44  1  0
 20 45  1  0
 21 46  1  0
 23 47  1  0
 24 48  1  0
 26 49  1  0
 29 50  1  0
 30 51  1  0
M  END
>  <smiles>  (25) 
O=C(NCC(=O)N1CCCC1c1ccc(C(F)(F)F)cc1)c1ccc2cc(F)ccc2n1

>  <score_type>  (25) 
oracle

>  <origin>  (25) 
autodockgpu

>  <m_score__min__energy>  (25) 
-8.8699999999999992

>  <m_primary>  (25) 
energy

>  <rmsd>  (25) 
2.155369614868806

>  <m_score__min__rmsd>  (25) 
2.155369614868806

>  <meeko>  (25) 
{"free_energy": -8.44, "intermolecular_energy": -10.23, "internal_energy": -1.21, "cluster_size": 34, "cluster_id": 1, "rank_in_cluster": 12}

>  <energy>  (25) 
-8.14

>  <cluster_rmsd>  (25) 
1.39

>  <cluster>  (25) 
1

$$$$

     RDKit          3D

 51 54  0  0  0  0  0  0  0  0999 V2000
  139.2140   70.9490  221.4860 O   0  0  0  0  0  0  0  0  0  0  0  0
  139.5050   71.4980  222.5790 C   0  0  0  0  0  0  0  0  0  0  0  0
  139.7080   72.9240  222.6300 N   0  0  0  0  0  0  0  0  0  0  0  0
  139.5600   73.6560  221.3890 C   0  0  0  0  0  0  0  0  0  0  0  0
  140.7280   73.4130  220.5310 C   0  0  0  0  0  0  0  0  0  0  0  0
  141.0090   72.2830  220.0230 O   0  0  0  0  0  0  0  0  0  0  0  0
  141.6070   74.4890  220.2390 N   0  0  0  0  0  0  0  0  0  0  0  0
  143.0380   74.5490  220.4920 C   0  0  0  0  0  0  0  0  0  0  0  0
  143.6130   75.5740  219.5320 C   0  0  0  0  0  0  0  0  0  0  0  0
  142.4290   75.8990  218.6350 C   0  0  0  0  0  0  0  0  0  0  0  0
  141.2930   75.7780  219.6210 C   0  0  2  0  0  0  0  0  0  0  0  0
  141.3360   76.8590  220.6130 C   0  0  0  0  0  0  0  0  0  0  0  0
  141.0100   76.7580  221.9310 C   0  0  0  0  0  0  0  0  0  0  0  0
  141.0750   77.8200  222.7940 C   0  0  0  0  0  0  0  0  0  0  0  0
  141.4920   79.0690  222.3300 C   0  0  0  0  0  0  0  0  0  0  0  0
  141.5630   80.2220  223.2720 C   0  0  0  0  0  0  0  0  0  0  0  0
  142.4630   80.0090  224.2860 F   0  0  0  0  0  0  0  0  0  0  0  0
  140.3130   80.4270  223.8170 F   0  0  0  0  0  0  0  0  0  0  0  0
  142.0240   81.3470  222.5830 F   0  0  0  0  0  0  0  0  0  0  0  0
  141.8290   79.2050  221.0030 C   0  0  0  0  0  0  0  0  0  0  0  0
  141.7500   78.1140  220.1630 C   0  0  0  0  0  0  0  0  0  0  0  0
  139.6440   70.7190  223.8050 C   0  0  0  0  0  0  0  0  0  0  0  0
  139.1830   69.4190  223.8200 C   0  0  0  0  0  0  0  0  0  0  0  0
  139.2670   68.5990  224.9270 C   0  0  0  0  0  0  0  0  0  0  0  0
  139.8480   69.1450  226.0590 C   0  0  0  0  0  0  0  0  0  0  0  0
  139.9370   68.3350  227.1720 C   0  0  0  0  0  0  0  0  0  0  0  0
  140.5200   68.8760  228.3140 C   0  0  0  0  0  0  0  0  0  0  0  0
  140.6190   68.0880  229.4360 F   0  0  0  0  0  0  0  0  0  0  0  0
  140.9840   70.1820  228.3080 C   0  0  0  0  0  0  0  0  0  0  0  0
  140.8960   70.9930  227.1950 C   0  0  0  0  0  0  0  0  0  0  0  0
  140.3180   70.4590  226.0570 C   0  0  0  0  0  0  0  0  0  0  0  0
  140.2050   71.2180  224.9270 N   0  0  0  0  0  0  0  0  0  0  0  0
  139.9530   73.3940  223.5440 H   0  0  0  0  0  0  0  0  0  0  0  0
  138.6494   73.3193  220.8718 H   0  0  0  0  0  0  0  0  0  0  0  0
  139.4838   74.7316  221.6062 H   0  0  0  0  0  0  0  0  0  0  0  0
  143.2258   74.8570  221.5312 H   0  0  0  0  0  0  0  0  0  0  0  0
  143.5057   73.5645  220.3432 H   0  0  0  0  0  0  0  0  0  0  0  0
  143.9601   76.4689  220.0694 H   0  0  0  0  0  0  0  0  0  0  0  0
  144.4902   75.2075  218.9786 H   0  0  0  0  0  0  0  0  0  0  0  0
  142.5005   76.9157  218.2211 H   0  0  0  0  0  0  0  0  0  0  0  0
  142.3361   75.2545  217.7484 H   0  0  0  0  0  0  0  0  0  0  0  0
  140.2902   75.8425  219.1735 H   0  0  0  0  0  0  0  0  0  0  0  0
  140.6806   75.7829  222.3192 H   0  0  0  0  0  0  0  0  0  0  0  0
  140.7991   77.6889  223.8507 H   0  0  0  0  0  0  0  0  0  0  0  0
  142.1598   80.1792  220.6139 H   0  0  0  0  0  0  0  0  0  0  0  0
  142.0220   78.2367  219.1042 H   0  0  0  0  0  0  0  0  0  0  0  0
  138.7258   69.0159  222.9043 H   0  0  0  0  0  0  0  0  0  0  0  0
  138.8917   67.5651  224.9108 H   0  0  0  0  0  0  0  0  0  0  0  0
  139.5616   67.3012  227.1574 H   0  0  0  0  0  0  0  0  0  0  0  0
  141.4390   70.5869  229.2240 H   0  0  0  0  0  0  0  0  0  0  0  0
  141.2718   72.0267  227.2119 H   0  0  0  0  0  0  0  0  0  0  0  0
  1  2  2  0
  2  3  1  0
  3  4  1  0
  4  5  1  0
  5  6  2  0
  5  7  1  0
  7  8  1  0
  8  9  1  0
  9 10  1  0
 10 11  1  0
 11 12  1  0
 12 13  2  0
 13 14  1  0
 14 15  2  0
 15 16  1  0
 16 17  1  0
 16 18  1  0
 16 19  1  0
 15 20  1  0
 20 21  2  0
  2 22  1  0
 22 23  2  0
 23 24  1  0
 24 25  2  0
 25 26  1  0
 26 27  2  0
 27 28  1  0
 27 29  1  0
 29 30  2  0
 30 31  1  0
 31 32  2  0
 11  7  1  0
 21 12  1  0
 32 22  1  0
 31 25  1  0
  3 33  1  0
  4 34  1  0
  4 35  1  0
  8 36  1  0
  8 37  1  0
  9 38  1  0
  9 39  1  0
 10 40  1  0
 10 41  1  0
 11 42  1  6
 13 43  1  0
 14 44  1  0
 20 45  1  0
 21 46  1  0
 23 47  1  0
 24 48  1  0
 26 49  1  0
 29 50  1  0
 30 51  1  0
M  END
>  <smiles>  (26) 
O=C(NCC(=O)N1CCCC1c1ccc(C(F)(F)F)cc1)c1ccc2cc(F)ccc2n1

>  <score_type>  (26) 
oracle

>  <origin>  (26) 
autodockgpu

>  <m_score__min__energy>  (26) 
-8.8699999999999992

>  <m_primary>  (26) 
energy

>  <rmsd>  (26) 
2.1831175117274015

>  <m_score__min__rmsd>  (26) 
2.1831175117274015

>  <meeko>  (26) 
{"free_energy": -8.16, "intermolecular_energy": -9.95, "internal_energy": -1.49, "cluster_size": 34, "cluster_id": 1, "rank_in_cluster": 24}

>  <energy>  (26) 
-8.13

>  <cluster_rmsd>  (26) 
1.95

>  <cluster>  (26) 
1

$$$$

     RDKit          3D

 51 54  0  0  0  0  0  0  0  0999 V2000
  140.7200   71.5970  221.9100 O   0  0  0  0  0  0  0  0  0  0  0  0
  139.9210   71.7240  222.8710 C   0  0  0  0  0  0  0  0  0  0  0  0
  138.7070   72.4810  222.6950 N   0  0  0  0  0  0  0  0  0  0  0  0
  138.4770   73.0640  221.3900 C   0  0  0  0  0  0  0  0  0  0  0  0
  138.7290   74.5110  221.4430 C   0  0  0  0  0  0  0  0  0  0  0  0
  137.8700   75.3640  221.8260 O   0  0  0  0  0  0  0  0  0  0  0  0
  140.0000   75.0060  221.0500 N   0  0  0  0  0  0  0  0  0  0  0  0
  141.3020   74.4490  221.3800 C   0  0  0  0  0  0  0  0  0  0  0  0
  142.2700   74.9300  220.3160 C   0  0  0  0  0  0  0  0  0  0  0  0
  141.3560   75.6110  219.3090 C   0  0  0  0  0  0  0  0  0  0  0  0
  140.3050   76.1800  220.2290 C   0  0  2  0  0  0  0  0  0  0  0  0
  140.8520   77.2660  221.0510 C   0  0  0  0  0  0  0  0  0  0  0  0
  140.9070   77.3010  222.4100 C   0  0  0  0  0  0  0  0  0  0  0  0
  141.4350   78.3580  223.1040 C   0  0  0  0  0  0  0  0  0  0  0  0
  141.9460   79.4580  222.4130 C   0  0  0  0  0  0  0  0  0  0  0  0
  142.5200   80.6050  223.1720 C   0  0  0  0  0  0  0  0  0  0  0  0
  142.1290   81.8160  222.6570 F   0  0  0  0  0  0  0  0  0  0  0  0
  143.8950   80.5230  223.1310 F   0  0  0  0  0  0  0  0  0  0  0  0
  142.0330   80.5740  224.4820 F   0  0  0  0  0  0  0  0  0  0  0  0
  141.9050   79.4540  221.0380 C   0  0  0  0  0  0  0  0  0  0  0  0
  141.3660   78.3730  220.3730 C   0  0  0  0  0  0  0  0  0  0  0  0
  140.1950   71.1190  224.1710 C   0  0  0  0  0  0  0  0  0  0  0  0
  140.7470   71.9020  225.1630 C   0  0  0  0  0  0  0  0  0  0  0  0
  141.0440   71.4280  226.4250 C   0  0  0  0  0  0  0  0  0  0  0  0
  140.7600   70.0950  226.6670 C   0  0  0  0  0  0  0  0  0  0  0  0
  141.0530   69.6090  227.9240 C   0  0  0  0  0  0  0  0  0  0  0  0
  140.7710   68.2700  228.1770 C   0  0  0  0  0  0  0  0  0  0  0  0
  141.0540   67.7630  229.4220 F   0  0  0  0  0  0  0  0  0  0  0  0
  140.2170   67.4760  227.1840 C   0  0  0  0  0  0  0  0  0  0  0  0
  139.9230   67.9610  225.9260 C   0  0  0  0  0  0  0  0  0  0  0  0
  140.2020   69.2920  225.6710 C   0  0  0  0  0  0  0  0  0  0  0  0
  139.9320   69.8240  224.4430 N   0  0  0  0  0  0  0  0  0  0  0  0
  138.0290   72.5940  223.4980 H   0  0  0  0  0  0  0  0  0  0  0  0
  139.1552   72.6012  220.6580 H   0  0  0  0  0  0  0  0  0  0  0  0
  137.4336   72.8865  221.0902 H   0  0  0  0  0  0  0  0  0  0  0  0
  141.6238   74.8012  222.3711 H   0  0  0  0  0  0  0  0  0  0  0  0
  141.2639   73.3501  221.4095 H   0  0  0  0  0  0  0  0  0  0  0  0
  142.9972   75.6412  220.7348 H   0  0  0  0  0  0  0  0  0  0  0  0
  142.8723   74.1203  219.8783 H   0  0  0  0  0  0  0  0  0  0  0  0
  141.8815   76.4026  218.7546 H   0  0  0  0  0  0  0  0  0  0  0  0
  140.9656   74.9472  218.5235 H   0  0  0  0  0  0  0  0  0  0  0  0
  139.4384   76.6216  219.7153 H   0  0  0  0  0  0  0  0  0  0  0  0
  140.5109   76.4447  222.9755 H   0  0  0  0  0  0  0  0  0  0  0  0
  141.4561   78.3397  224.2036 H   0  0  0  0  0  0  0  0  0  0  0  0
  142.3006   80.3097  220.4713 H   0  0  0  0  0  0  0  0  0  0  0  0
  141.3401   78.3831  219.2734 H   0  0  0  0  0  0  0  0  0  0  0  0
  140.9613   72.9570  224.9373 H   0  0  0  0  0  0  0  0  0  0  0  0
  141.4834   72.0757  227.1979 H   0  0  0  0  0  0  0  0  0  0  0  0
  141.4931   70.2555  228.6975 H   0  0  0  0  0  0  0  0  0  0  0  0
  140.0040   66.4202  227.4075 H   0  0  0  0  0  0  0  0  0  0  0  0
  139.4828   67.3129  225.1539 H   0  0  0  0  0  0  0  0  0  0  0  0
  1  2  2  0
  2  3  1  0
  3  4  1  0
  4  5  1  0
  5  6  2  0
  5  7  1  0
  7  8  1  0
  8  9  1  0
  9 10  1  0
 10 11  1  0
 11 12  1  0
 12 13  2  0
 13 14  1  0
 14 15  2  0
 15 16  1  0
 16 17  1  0
 16 18  1  0
 16 19  1  0
 15 20  1  0
 20 21  2  0
  2 22  1  0
 22 23  2  0
 23 24  1  0
 24 25  2  0
 25 26  1  0
 26 27  2  0
 27 28  1  0
 27 29  1  0
 29 30  2  0
 30 31  1  0
 31 32  2  0
 11  7  1  0
 21 12  1  0
 32 22  1  0
 31 25  1  0
  3 33  1  0
  4 34  1  0
  4 35  1  0
  8 36  1  0
  8 37  1  0
  9 38  1  0
  9 39  1  0
 10 40  1  0
 10 41  1  0
 11 42  1  6
 13 43  1  0
 14 44  1  0
 20 45  1  0
 21 46  1  0
 23 47  1  0
 24 48  1  0
 26 49  1  0
 29 50  1  0
 30 51  1  0
M  END
>  <smiles>  (27) 
O=C(NCC(=O)N1CCCC1c1ccc(C(F)(F)F)cc1)c1ccc2cc(F)ccc2n1

>  <score_type>  (27) 
oracle

>  <origin>  (27) 
autodockgpu

>  <m_score__min__energy>  (27) 
-8.8699999999999992

>  <m_primary>  (27) 
energy

>  <rmsd>  (27) 
2.9963814244381433

>  <m_score__min__rmsd>  (27) 
2.9963814244381433

>  <meeko>  (27) 
{"free_energy": -8.32, "intermolecular_energy": -10.11, "internal_energy": -1.41, "cluster_size": 34, "cluster_id": 1, "rank_in_cluster": 16}

>  <energy>  (27) 
-8.11

>  <cluster_rmsd>  (27) 
0.69

>  <cluster>  (27) 
1

$$$$

     RDKit          3D

 51 54  0  0  0  0  0  0  0  0999 V2000
  140.8140   71.5220  221.8920 O   0  0  0  0  0  0  0  0  0  0  0  0
  140.0270   71.7130  222.8520 C   0  0  0  0  0  0  0  0  0  0  0  0
  138.8620   72.5420  222.6670 N   0  0  0  0  0  0  0  0  0  0  0  0
  138.6650   73.1170  221.3530 C   0  0  0  0  0  0  0  0  0  0  0  0
  138.8290   74.5770  221.4240 C   0  0  0  0  0  0  0  0  0  0  0  0
  137.9090   75.3740  221.7830 O   0  0  0  0  0  0  0  0  0  0  0  0
  140.0800   75.1500  221.0760 N   0  0  0  0  0  0  0  0  0  0  0  0
  141.4000   74.6840  221.4700 C   0  0  0  0  0  0  0  0  0  0  0  0
  142.3800   75.2140  220.4400 C   0  0  0  0  0  0  0  0  0  0  0  0
  141.4680   75.8190  219.3840 C   0  0  0  0  0  0  0  0  0  0  0  0
  140.3420   76.3300  220.2500 C   0  0  2  0  0  0  0  0  0  0  0  0
  140.7820   77.4610  221.0760 C   0  0  0  0  0  0  0  0  0  0  0  0
  140.6570   77.5690  222.4270 C   0  0  0  0  0  0  0  0  0  0  0  0
  141.0940   78.6640  223.1260 C   0  0  0  0  0  0  0  0  0  0  0  0
  141.6960   79.7260  222.4490 C   0  0  0  0  0  0  0  0  0  0  0  0
  142.1700   80.9150  223.2140 C   0  0  0  0  0  0  0  0  0  0  0  0
  143.4520   80.7570  223.6780 F   0  0  0  0  0  0  0  0  0  0  0  0
  141.3260   81.1210  224.2840 F   0  0  0  0  0  0  0  0  0  0  0  0
  142.2090   82.0210  222.3590 F   0  0  0  0  0  0  0  0  0  0  0  0
  141.8370   79.6480  221.0840 C   0  0  0  0  0  0  0  0  0  0  0  0
  141.3850   78.5310  220.4130 C   0  0  0  0  0  0  0  0  0  0  0  0
  140.2660   71.1120  224.1610 C   0  0  0  0  0  0  0  0  0  0  0  0
  140.7770   71.9020  225.1690 C   0  0  0  0  0  0  0  0  0  0  0  0
  141.0400   71.4320  226.4400 C   0  0  0  0  0  0  0  0  0  0  0  0
  140.7630   70.0960  226.6750 C   0  0  0  0  0  0  0  0  0  0  0  0
  141.0210   69.6130  227.9400 C   0  0  0  0  0  0  0  0  0  0  0  0
  140.7460   68.2710  228.1850 C   0  0  0  0  0  0  0  0  0  0  0  0
  140.9950   67.7680  229.4390 F   0  0  0  0  0  0  0  0  0  0  0  0
  140.2330   67.4700  227.1760 C   0  0  0  0  0  0  0  0  0  0  0  0
  139.9740   67.9510  225.9090 C   0  0  0  0  0  0  0  0  0  0  0  0
  140.2460   69.2850  225.6620 C   0  0  0  0  0  0  0  0  0  0  0  0
  140.0090   69.8140  224.4260 N   0  0  0  0  0  0  0  0  0  0  0  0
  138.1950   72.7090  223.4690 H   0  0  0  0  0  0  0  0  0  0  0  0
  139.4057   72.6988  220.6555 H   0  0  0  0  0  0  0  0  0  0  0  0
  137.6510   72.8800  220.9987 H   0  0  0  0  0  0  0  0  0  0  0  0
  141.6549   75.0695  222.4682 H   0  0  0  0  0  0  0  0  0  0  0  0
  141.4324   73.5854  221.5156 H   0  0  0  0  0  0  0  0  0  0  0  0
  143.0399   75.9775  220.8776 H   0  0  0  0  0  0  0  0  0  0  0  0
  143.0527   74.4402  220.0416 H   0  0  0  0  0  0  0  0  0  0  0  0
  141.9639   76.6360  218.8394 H   0  0  0  0  0  0  0  0  0  0  0  0
  141.1565   75.1202  218.5937 H   0  0  0  0  0  0  0  0  0  0  0  0
  139.4707   76.7061  219.6938 H   0  0  0  0  0  0  0  0  0  0  0  0
  140.1859   76.7435  222.9807 H   0  0  0  0  0  0  0  0  0  0  0  0
  140.9706   78.7058  224.2183 H   0  0  0  0  0  0  0  0  0  0  0  0
  142.3082   80.4727  220.5292 H   0  0  0  0  0  0  0  0  0  0  0  0
  141.5035   78.4818  219.3205 H   0  0  0  0  0  0  0  0  0  0  0  0
  140.9855   72.9595  224.9494 H   0  0  0  0  0  0  0  0  0  0  0  0
  141.4484   72.0850  227.2253 H   0  0  0  0  0  0  0  0  0  0  0  0
  141.4292   70.2643  228.7268 H   0  0  0  0  0  0  0  0  0  0  0  0
  140.0249   66.4120  227.3937 H   0  0  0  0  0  0  0  0  0  0  0  0
  139.5661   67.2976  225.1237 H   0  0  0  0  0  0  0  0  0  0  0  0
  1  2  2  0
  2  3  1  0
  3  4  1  0
  4  5  1  0
  5  6  2  0
  5  7  1  0
  7  8  1  0
  8  9  1  0
  9 10  1  0
 10 11  1  0
 11 12  1  0
 12 13  2  0
 13 14  1  0
 14 15  2  0
 15 16  1  0
 16 17  1  0
 16 18  1  0
 16 19  1  0
 15 20  1  0
 20 21  2  0
  2 22  1  0
 22 23  2  0
 23 24  1  0
 24 25  2  0
 25 26  1  0
 26 27  2  0
 27 28  1  0
 27 29  1  0
 29 30  2  0
 30 31  1  0
 31 32  2  0
 11  7  1  0
 21 12  1  0
 32 22  1  0
 31 25  1  0
  3 33  1  0
  4 34  1  0
  4 35  1  0
  8 36  1  0
  8 37  1  0
  9 38  1  0
  9 39  1  0
 10 40  1  0
 10 41  1  0
 11 42  1  6
 13 43  1  0
 14 44  1  0
 20 45  1  0
 21 46  1  0
 23 47  1  0
 24 48  1  0
 26 49  1  0
 29 50  1  0
 30 51  1  0
M  END
>  <smiles>  (28) 
O=C(NCC(=O)N1CCCC1c1ccc(C(F)(F)F)cc1)c1ccc2cc(F)ccc2n1

>  <score_type>  (28) 
oracle

>  <origin>  (28) 
autodockgpu

>  <m_score__min__energy>  (28) 
-8.8699999999999992

>  <m_primary>  (28) 
energy

>  <rmsd>  (28) 
3.0140379632236987

>  <m_score__min__rmsd>  (28) 
3.0140379632236987

>  <meeko>  (28) 
{"free_energy": -8.29, "intermolecular_energy": -10.08, "internal_energy": -1.44, "cluster_size": 34, "cluster_id": 1, "rank_in_cluster": 18}

>  <energy>  (28) 
-8.06

>  <cluster_rmsd>  (28) 
0.83

>  <cluster>  (28) 
1

$$$$

     RDKit          3D

 51 54  0  0  0  0  0  0  0  0999 V2000
  140.6460   71.4680  221.8050 O   0  0  0  0  0  0  0  0  0  0  0  0
  139.8880   71.6740  222.7860 C   0  0  0  0  0  0  0  0  0  0  0  0
  138.7250   72.5100  222.6270 N   0  0  0  0  0  0  0  0  0  0  0  0
  138.4950   73.0770  221.3140 C   0  0  0  0  0  0  0  0  0  0  0  0
  138.7200   74.5290  221.3580 C   0  0  0  0  0  0  0  0  0  0  0  0
  137.8220   75.3740  221.6620 O   0  0  0  0  0  0  0  0  0  0  0  0
  140.0080   75.0390  221.0460 N   0  0  0  0  0  0  0  0  0  0  0  0
  141.2900   74.5270  221.5020 C   0  0  0  0  0  0  0  0  0  0  0  0
  142.3310   74.9890  220.4990 C   0  0  0  0  0  0  0  0  0  0  0  0
  141.4870   75.6070  219.3950 C   0  0  0  0  0  0  0  0  0  0  0  0
  140.3520   76.1860  220.2050 C   0  0  2  0  0  0  0  0  0  0  0  0
  140.8090   77.3170  221.0220 C   0  0  0  0  0  0  0  0  0  0  0  0
  140.7420   77.4120  222.3780 C   0  0  0  0  0  0  0  0  0  0  0  0
  141.1910   78.5080  223.0680 C   0  0  0  0  0  0  0  0  0  0  0  0
  141.7460   79.5850  222.3750 C   0  0  0  0  0  0  0  0  0  0  0  0
  142.2340   80.7750  223.1300 C   0  0  0  0  0  0  0  0  0  0  0  0
  141.4880   81.0170  224.2560 F   0  0  0  0  0  0  0  0  0  0  0  0
  142.1750   81.8790  222.3060 F   0  0  0  0  0  0  0  0  0  0  0  0
  143.5330   80.5280  223.5800 F   0  0  0  0  0  0  0  0  0  0  0  0
  141.8280   79.5210  221.0040 C   0  0  0  0  0  0  0  0  0  0  0  0
  141.3660   78.4030  220.3430 C   0  0  0  0  0  0  0  0  0  0  0  0
  140.1590   71.0810  224.0920 C   0  0  0  0  0  0  0  0  0  0  0  0
  140.6970   71.8770  225.0820 C   0  0  0  0  0  0  0  0  0  0  0  0
  140.9910   71.4150  226.3490 C   0  0  0  0  0  0  0  0  0  0  0  0
  140.7180   70.0810  226.6000 C   0  0  0  0  0  0  0  0  0  0  0  0
  141.0080   69.6070  227.8620 C   0  0  0  0  0  0  0  0  0  0  0  0
  140.7370   68.2680  228.1230 C   0  0  0  0  0  0  0  0  0  0  0  0
  141.0170   67.7730  229.3740 F   0  0  0  0  0  0  0  0  0  0  0  0
  140.1970   67.4600  227.1330 C   0  0  0  0  0  0  0  0  0  0  0  0
  139.9070   67.9330  225.8690 C   0  0  0  0  0  0  0  0  0  0  0  0
  140.1740   69.2650  225.6060 C   0  0  0  0  0  0  0  0  0  0  0  0
  139.9070   69.7850  224.3730 N   0  0  0  0  0  0  0  0  0  0  0  0
  138.0820   72.6890  223.4460 H   0  0  0  0  0  0  0  0  0  0  0  0
  139.1879   72.6208  220.5917 H   0  0  0  0  0  0  0  0  0  0  0  0
  137.4581   72.8770  221.0061 H   0  0  0  0  0  0  0  0  0  0  0  0
  141.5233   74.9259  222.5002 H   0  0  0  0  0  0  0  0  0  0  0  0
  141.2726   73.4295  221.5742 H   0  0  0  0  0  0  0  0  0  0  0  0
  143.0069   75.7337  220.9445 H   0  0  0  0  0  0  0  0  0  0  0  0
  142.9836   74.1775  220.1447 H   0  0  0  0  0  0  0  0  0  0  0  0
  142.0383   76.3890  218.8523 H   0  0  0  0  0  0  0  0  0  0  0  0
  141.1757   74.9035  218.6087 H   0  0  0  0  0  0  0  0  0  0  0  0
  139.5195   76.5852  219.6070 H   0  0  0  0  0  0  0  0  0  0  0  0
  140.3093   76.5740  222.9441 H   0  0  0  0  0  0  0  0  0  0  0  0
  141.1141   78.5387  224.1649 H   0  0  0  0  0  0  0  0  0  0  0  0
  142.2605   80.3585  220.4369 H   0  0  0  0  0  0  0  0  0  0  0  0
  141.4383   78.3650  219.2460 H   0  0  0  0  0  0  0  0  0  0  0  0
  140.9019   72.9326  224.8501 H   0  0  0  0  0  0  0  0  0  0  0  0
  141.4200   72.0726  227.1194 H   0  0  0  0  0  0  0  0  0  0  0  0
  141.4375   70.2632  228.6333 H   0  0  0  0  0  0  0  0  0  0  0  0
  139.9925   66.4041  227.3636 H   0  0  0  0  0  0  0  0  0  0  0  0
  139.4791   67.2747  225.0986 H   0  0  0  0  0  0  0  0  0  0  0  0
  1  2  2  0
  2  3  1  0
  3  4  1  0
  4  5  1  0
  5  6  2  0
  5  7  1  0
  7  8  1  0
  8  9  1  0
  9 10  1  0
 10 11  1  0
 11 12  1  0
 12 13  2  0
 13 14  1  0
 14 15  2  0
 15 16  1  0
 16 17  1  0
 16 18  1  0
 16 19  1  0
 15 20  1  0
 20 21  2  0
  2 22  1  0
 22 23  2  0
 23 24  1  0
 24 25  2  0
 25 26  1  0
 26 27  2  0
 27 28  1  0
 27 29  1  0
 29 30  2  0
 30 31  1  0
 31 32  2  0
 11  7  1  0
 21 12  1  0
 32 22  1  0
 31 25  1  0
  3 33  1  0
  4 34  1  0
  4 35  1  0
  8 36  1  0
  8 37  1  0
  9 38  1  0
  9 39  1  0
 10 40  1  0
 10 41  1  0
 11 42  1  6
 13 43  1  0
 14 44  1  0
 20 45  1  0
 21 46  1  0
 23 47  1  0
 24 48  1  0
 26 49  1  0
 29 50  1  0
 30 51  1  0
M  END
>  <smiles>  (29) 
O=C(NCC(=O)N1CCCC1c1ccc(C(F)(F)F)cc1)c1ccc2cc(F)ccc2n1

>  <score_type>  (29) 
oracle

>  <origin>  (29) 
autodockgpu

>  <m_score__min__energy>  (29) 
-8.8699999999999992

>  <m_primary>  (29) 
energy

>  <rmsd>  (29) 
3.005615305303829

>  <m_score__min__rmsd>  (29) 
3.005615305303829

>  <meeko>  (29) 
{"free_energy": -8.35, "intermolecular_energy": -10.14, "internal_energy": -1.43, "cluster_size": 34, "cluster_id": 1, "rank_in_cluster": 14}

>  <energy>  (29) 
-8.04

>  <cluster_rmsd>  (29) 
1.89

>  <cluster>  (29) 
1

$$$$

     RDKit          3D

 51 54  0  0  0  0  0  0  0  0999 V2000
  141.1600   71.6320  221.5900 O   0  0  0  0  0  0  0  0  0  0  0  0
  140.3470   71.9550  222.4920 C   0  0  0  0  0  0  0  0  0  0  0  0
  139.5240   73.1270  222.3250 N   0  0  0  0  0  0  0  0  0  0  0  0
  139.6890   73.8790  221.0980 C   0  0  0  0  0  0  0  0  0  0  0  0
  140.7750   74.8560  221.2600 C   0  0  0  0  0  0  0  0  0  0  0  0
  140.8610   75.6610  222.2370 O   0  0  0  0  0  0  0  0  0  0  0  0
  141.8000   74.9190  220.2790 N   0  0  0  0  0  0  0  0  0  0  0  0
  141.6320   74.9710  218.8350 C   0  0  0  0  0  0  0  0  0  0  0  0
  142.8930   75.5950  218.2680 C   0  0  0  0  0  0  0  0  0  0  0  0
  143.6420   76.0410  219.5140 C   0  0  0  0  0  0  0  0  0  0  0  0
  143.2490   74.9480  220.4780 C   0  0  2  0  0  0  0  0  0  0  0  0
  143.8560   73.6650  220.1000 C   0  0  0  0  0  0  0  0  0  0  0  0
  143.1910   72.5320  219.7470 C   0  0  0  0  0  0  0  0  0  0  0  0
  143.8340   71.3700  219.4080 C   0  0  0  0  0  0  0  0  0  0  0  0
  145.2300   71.3210  219.4140 C   0  0  0  0  0  0  0  0  0  0  0  0
  145.9250   70.0550  219.0440 C   0  0  0  0  0  0  0  0  0  0  0  0
  146.2400   70.0070  217.7090 F   0  0  0  0  0  0  0  0  0  0  0  0
  145.1050   68.9910  219.3510 F   0  0  0  0  0  0  0  0  0  0  0  0
  147.1440   69.9900  219.7250 F   0  0  0  0  0  0  0  0  0  0  0  0
  145.9310   72.4500  219.7670 C   0  0  0  0  0  0  0  0  0  0  0  0
  145.2510   73.6010  220.1030 C   0  0  0  0  0  0  0  0  0  0  0  0
  140.2160   71.1670  223.7130 C   0  0  0  0  0  0  0  0  0  0  0  0
  139.5750   69.9470  223.6480 C   0  0  0  0  0  0  0  0  0  0  0  0
  139.3980   69.1250  224.7430 C   0  0  0  0  0  0  0  0  0  0  0  0
  139.9030   69.5840  225.9480 C   0  0  0  0  0  0  0  0  0  0  0  0
  139.7330   68.7720  227.0500 C   0  0  0  0  0  0  0  0  0  0  0  0
  140.2360   69.2250  228.2650 C   0  0  0  0  0  0  0  0  0  0  0  0
  140.0780   68.4330  229.3770 F   0  0  0  0  0  0  0  0  0  0  0  0
  140.8800   70.4510  228.3390 C   0  0  0  0  0  0  0  0  0  0  0  0
  141.0520   71.2640  227.2370 C   0  0  0  0  0  0  0  0  0  0  0  0
  140.5530   70.8170  226.0270 C   0  0  0  0  0  0  0  0  0  0  0  0
  140.6940   71.5810  224.9050 N   0  0  0  0  0  0  0  0  0  0  0  0
  138.8380   73.4070  223.0780 H   0  0  0  0  0  0  0  0  0  0  0  0
  139.9361   73.1900  220.2769 H   0  0  0  0  0  0  0  0  0  0  0  0
  138.7532   74.4085  220.8658 H   0  0  0  0  0  0  0  0  0  0  0  0
  141.4982   73.9560  218.4328 H   0  0  0  0  0  0  0  0  0  0  0  0
  140.7438   75.5600  218.5625 H   0  0  0  0  0  0  0  0  0  0  0  0
  143.4773   74.8578  217.6978 H   0  0  0  0  0  0  0  0  0  0  0  0
  142.6924   76.4166  217.5646 H   0  0  0  0  0  0  0  0  0  0  0  0
  144.7291   76.0641  219.3477 H   0  0  0  0  0  0  0  0  0  0  0  0
  143.4014   77.0594  219.8532 H   0  0  0  0  0  0  0  0  0  0  0  0
  143.5680   75.1183  221.5169 H   0  0  0  0  0  0  0  0  0  0  0  0
  142.0912   72.5491  219.7330 H   0  0  0  0  0  0  0  0  0  0  0  0
  143.2522   70.4782  219.1319 H   0  0  0  0  0  0  0  0  0  0  0  0
  147.0308   72.4347  219.7812 H   0  0  0  0  0  0  0  0  0  0  0  0
  145.8250   74.4969  220.3821 H   0  0  0  0  0  0  0  0  0  0  0  0
  139.1855   69.6125  222.6751 H   0  0  0  0  0  0  0  0  0  0  0  0
  138.8829   68.1564  224.6625 H   0  0  0  0  0  0  0  0  0  0  0  0
  139.2190   67.8027  226.9709 H   0  0  0  0  0  0  0  0  0  0  0  0
  141.2680   70.7878  229.3116 H   0  0  0  0  0  0  0  0  0  0  0  0
  141.5673   72.2324  227.3181 H   0  0  0  0  0  0  0  0  0  0  0  0
  1  2  2  0
  2  3  1  0
  3  4  1  0
  4  5  1  0
  5  6  2  0
  5  7  1  0
  7  8  1  0
  8  9  1  0
  9 10  1  0
 10 11  1  0
 11 12  1  0
 12 13  2  0
 13 14  1  0
 14 15  2  0
 15 16  1  0
 16 17  1  0
 16 18  1  0
 16 19  1  0
 15 20  1  0
 20 21  2  0
  2 22  1  0
 22 23  2  0
 23 24  1  0
 24 25  2  0
 25 26  1  0
 26 27  2  0
 27 28  1  0
 27 29  1  0
 29 30  2  0
 30 31  1  0
 31 32  2  0
 11  7  1  0
 21 12  1  0
 32 22  1  0
 31 25  1  0
  3 33  1  0
  4 34  1  0
  4 35  1  0
  8 36  1  0
  8 37  1  0
  9 38  1  0
  9 39  1  0
 10 40  1  0
 10 41  1  0
 11 42  1  1
 13 43  1  0
 14 44  1  0
 20 45  1  0
 21 46  1  0
 23 47  1  0
 24 48  1  0
 26 49  1  0
 29 50  1  0
 30 51  1  0
M  END
>  <smiles>  (30) 
O=C(NCC(=O)N1CCCC1c1ccc(C(F)(F)F)cc1)c1ccc2cc(F)ccc2n1

>  <score_type>  (30) 
oracle

>  <origin>  (30) 
autodockgpu

>  <m_score__min__energy>  (30) 
-8.8699999999999992

>  <m_primary>  (30) 
energy

>  <rmsd>  (30) 
2.0659244508545096

>  <m_score__min__rmsd>  (30) 
2.0659244508545096

>  <meeko>  (30) 
{"free_energy": -8.22, "intermolecular_energy": -10.01, "internal_energy": -1.56, "cluster_size": 7, "cluster_id": 3, "rank_in_cluster": 2}

>  <energy>  (30) 
-7.92

>  <cluster_rmsd>  (30) 
1.25

>  <cluster>  (30) 
1

$$$$

     RDKit          3D

 51 54  0  0  0  0  0  0  0  0999 V2000
  140.2060   71.4770  221.7860 O   0  0  0  0  0  0  0  0  0  0  0  0
  139.4010   71.5200  222.7500 C   0  0  0  0  0  0  0  0  0  0  0  0
  138.2640   72.4040  222.6910 N   0  0  0  0  0  0  0  0  0  0  0  0
  138.1150   73.2080  221.4960 C   0  0  0  0  0  0  0  0  0  0  0  0
  138.5040   74.5960  221.7840 C   0  0  0  0  0  0  0  0  0  0  0  0
  137.8050   75.3960  222.4800 O   0  0  0  0  0  0  0  0  0  0  0  0
  139.7280   75.0930  221.2640 N   0  0  0  0  0  0  0  0  0  0  0  0
  141.0640   74.5800  221.5190 C   0  0  0  0  0  0  0  0  0  0  0  0
  141.9350   75.0200  220.3570 C   0  0  0  0  0  0  0  0  0  0  0  0
  140.9290   75.6250  219.3900 C   0  0  0  0  0  0  0  0  0  0  0  0
  139.9400   76.2240  220.3600 C   0  0  2  0  0  0  0  0  0  0  0  0
  140.5240   77.3650  221.0740 C   0  0  0  0  0  0  0  0  0  0  0  0
  141.3330   78.3220  220.5430 C   0  0  0  0  0  0  0  0  0  0  0  0
  141.8410   79.3580  221.2810 C   0  0  0  0  0  0  0  0  0  0  0  0
  141.5290   79.4620  222.6390 C   0  0  0  0  0  0  0  0  0  0  0  0
  142.0830   80.5910  223.4390 C   0  0  0  0  0  0  0  0  0  0  0  0
  142.7430   80.1580  224.5610 F   0  0  0  0  0  0  0  0  0  0  0  0
  141.0480   81.4180  223.8180 F   0  0  0  0  0  0  0  0  0  0  0  0
  143.0380   81.2670  222.6730 F   0  0  0  0  0  0  0  0  0  0  0  0
  140.7150   78.5120  223.2070 C   0  0  0  0  0  0  0  0  0  0  0  0
  140.2220   77.4820  222.4320 C   0  0  0  0  0  0  0  0  0  0  0  0
  139.5920   70.6910  223.9360 C   0  0  0  0  0  0  0  0  0  0  0  0
  139.1090   69.3990  223.9250 C   0  0  0  0  0  0  0  0  0  0  0  0
  139.2370   68.5330  224.9930 C   0  0  0  0  0  0  0  0  0  0  0  0
  139.8880   69.0240  226.1110 C   0  0  0  0  0  0  0  0  0  0  0  0
  140.0230   68.1700  227.1860 C   0  0  0  0  0  0  0  0  0  0  0  0
  140.6760   68.6540  228.3150 C   0  0  0  0  0  0  0  0  0  0  0  0
  140.8210   67.8210  229.3970 F   0  0  0  0  0  0  0  0  0  0  0  0
  141.1630   69.9520  228.3340 C   0  0  0  0  0  0  0  0  0  0  0  0
  141.0300   70.8090  227.2600 C   0  0  0  0  0  0  0  0  0  0  0  0
  140.3810   70.3300  226.1350 C   0  0  0  0  0  0  0  0  0  0  0  0
  140.2210   71.1350  225.0440 N   0  0  0  0  0  0  0  0  0  0  0  0
  137.5820   72.4470  223.4970 H   0  0  0  0  0  0  0  0  0  0  0  0
  138.7592   72.8047  220.7008 H   0  0  0  0  0  0  0  0  0  0  0  0
  137.0655   73.1834  221.1676 H   0  0  0  0  0  0  0  0  0  0  0  0
  141.4540   74.9924  222.4613 H   0  0  0  0  0  0  0  0  0  0  0  0
  141.0538   73.4838  221.6101 H   0  0  0  0  0  0  0  0  0  0  0  0
  142.6750   75.7679  220.6778 H   0  0  0  0  0  0  0  0  0  0  0  0
  142.5212   74.1994  219.9177 H   0  0  0  0  0  0  0  0  0  0  0  0
  141.3900   76.3944  218.7532 H   0  0  0  0  0  0  0  0  0  0  0  0
  140.4944   74.9110  218.6749 H   0  0  0  0  0  0  0  0  0  0  0  0
  139.0248   76.6190  219.8949 H   0  0  0  0  0  0  0  0  0  0  0  0
  141.5899   78.2608  219.4752 H   0  0  0  0  0  0  0  0  0  0  0  0
  142.4928   80.1060  220.8060 H   0  0  0  0  0  0  0  0  0  0  0  0
  140.4574   78.5721  224.2747 H   0  0  0  0  0  0  0  0  0  0  0  0
  139.5702   76.7291  222.8992 H   0  0  0  0  0  0  0  0  0  0  0  0
  138.5962   69.0406  223.0202 H   0  0  0  0  0  0  0  0  0  0  0  0
  138.8423   67.5069  224.9569 H   0  0  0  0  0  0  0  0  0  0  0  0
  139.6286   67.1437  227.1517 H   0  0  0  0  0  0  0  0  0  0  0  0
  141.6745   70.3124  229.2387 H   0  0  0  0  0  0  0  0  0  0  0  0
  141.4252   71.8349  227.2968 H   0  0  0  0  0  0  0  0  0  0  0  0
  1  2  2  0
  2  3  1  0
  3  4  1  0
  4  5  1  0
  5  6  2  0
  5  7  1  0
  7  8  1  0
  8  9  1  0
  9 10  1  0
 10 11  1  0
 11 12  1  0
 12 13  2  0
 13 14  1  0
 14 15  2  0
 15 16  1  0
 16 17  1  0
 16 18  1  0
 16 19  1  0
 15 20  1  0
 20 21  2  0
  2 22  1  0
 22 23  2  0
 23 24  1  0
 24 25  2  0
 25 26  1  0
 26 27  2  0
 27 28  1  0
 27 29  1  0
 29 30  2  0
 30 31  1  0
 31 32  2  0
 11  7  1  0
 21 12  1  0
 32 22  1  0
 31 25  1  0
  3 33  1  0
  4 34  1  0
  4 35  1  0
  8 36  1  0
  8 37  1  0
  9 38  1  0
  9 39  1  0
 10 40  1  0
 10 41  1  0
 11 42  1  6
 13 43  1  0
 14 44  1  0
 20 45  1  0
 21 46  1  0
 23 47  1  0
 24 48  1  0
 26 49  1  0
 29 50  1  0
 30 51  1  0
M  END
>  <smiles>  (31) 
O=C(NCC(=O)N1CCCC1c1ccc(C(F)(F)F)cc1)c1ccc2cc(F)ccc2n1

>  <score_type>  (31) 
oracle

>  <origin>  (31) 
autodockgpu

>  <m_score__min__energy>  (31) 
-8.8699999999999992

>  <m_primary>  (31) 
energy

>  <rmsd>  (31) 
1.9467016738218217

>  <m_score__min__rmsd>  (31) 
1.9467016738218217

>  <meeko>  (31) 
{"free_energy": -7.92, "intermolecular_energy": -9.71, "internal_energy": -1.45, "cluster_size": 34, "cluster_id": 1, "rank_in_cluster": 30}

>  <energy>  (31) 
-7.86

>  <cluster_rmsd>  (31) 
0.84

>  <cluster>  (31) 
1

$$$$

     RDKit          3D

 51 54  0  0  0  0  0  0  0  0999 V2000
  140.9420   71.3170  221.4490 O   0  0  0  0  0  0  0  0  0  0  0  0
  140.2790   71.7600  222.4210 C   0  0  0  0  0  0  0  0  0  0  0  0
  139.5950   73.0240  222.3020 N   0  0  0  0  0  0  0  0  0  0  0  0
  139.7170   73.7230  221.0400 C   0  0  0  0  0  0  0  0  0  0  0  0
  140.6880   74.8190  221.1740 C   0  0  0  0  0  0  0  0  0  0  0  0
  140.6240   75.7130  222.0730 O   0  0  0  0  0  0  0  0  0  0  0  0
  141.7700   74.9000  220.2580 N   0  0  0  0  0  0  0  0  0  0  0  0
  141.6890   75.0180  218.8110 C   0  0  0  0  0  0  0  0  0  0  0  0
  142.9940   75.6360  218.3450 C   0  0  0  0  0  0  0  0  0  0  0  0
  143.6770   76.0090  219.6510 C   0  0  0  0  0  0  0  0  0  0  0  0
  143.2060   74.8850  220.5410 C   0  0  2  0  0  0  0  0  0  0  0  0
  143.8060   73.6060  220.1420 C   0  0  0  0  0  0  0  0  0  0  0  0
  143.1360   72.4680  219.8150 C   0  0  0  0  0  0  0  0  0  0  0  0
  143.7730   71.3100  219.4530 C   0  0  0  0  0  0  0  0  0  0  0  0
  145.1680   71.2700  219.4090 C   0  0  0  0  0  0  0  0  0  0  0  0
  145.8580   70.0080  219.0140 C   0  0  0  0  0  0  0  0  0  0  0  0
  146.1380   69.9680  217.6710 F   0  0  0  0  0  0  0  0  0  0  0  0
  145.0490   68.9400  219.3370 F   0  0  0  0  0  0  0  0  0  0  0  0
  147.0940   69.9430  219.6630 F   0  0  0  0  0  0  0  0  0  0  0  0
  145.8750   72.4030  219.7340 C   0  0  0  0  0  0  0  0  0  0  0  0
  145.2000   73.5510  220.0940 C   0  0  0  0  0  0  0  0  0  0  0  0
  140.1850   71.0200  223.6750 C   0  0  0  0  0  0  0  0  0  0  0  0
  139.5760   69.7830  223.6700 C   0  0  0  0  0  0  0  0  0  0  0  0
  139.4360   69.0030  224.8000 C   0  0  0  0  0  0  0  0  0  0  0  0
  139.9440   69.5240  225.9780 C   0  0  0  0  0  0  0  0  0  0  0  0
  139.8100   68.7550  227.1140 C   0  0  0  0  0  0  0  0  0  0  0  0
  140.3180   69.2710  228.3030 C   0  0  0  0  0  0  0  0  0  0  0  0
  140.1950   68.5220  229.4490 F   0  0  0  0  0  0  0  0  0  0  0  0
  140.9290   70.5150  228.3170 C   0  0  0  0  0  0  0  0  0  0  0  0
  141.0650   71.2860  227.1800 C   0  0  0  0  0  0  0  0  0  0  0  0
  140.5620   70.7760  225.9970 C   0  0  0  0  0  0  0  0  0  0  0  0
  140.6680   71.4960  224.8420 N   0  0  0  0  0  0  0  0  0  0  0  0
  139.0370   73.4040  223.1140 H   0  0  0  0  0  0  0  0  0  0  0  0
  140.0610   73.0220  220.2652 H   0  0  0  0  0  0  0  0  0  0  0  0
  138.7379   74.1357  220.7553 H   0  0  0  0  0  0  0  0  0  0  0  0
  141.5577   74.0246  218.3573 H   0  0  0  0  0  0  0  0  0  0  0  0
  140.8312   75.6394  218.5142 H   0  0  0  0  0  0  0  0  0  0  0  0
  143.5950   74.9107  217.7769 H   0  0  0  0  0  0  0  0  0  0  0  0
  142.8528   76.4916  217.6682 H   0  0  0  0  0  0  0  0  0  0  0  0
  144.7723   76.0141  219.5491 H   0  0  0  0  0  0  0  0  0  0  0  0
  143.4374   77.0168  220.0211 H   0  0  0  0  0  0  0  0  0  0  0  0
  143.4680   75.0020  221.6029 H   0  0  0  0  0  0  0  0  0  0  0  0
  142.0364   72.4779  219.8424 H   0  0  0  0  0  0  0  0  0  0  0  0
  143.1871   70.4147  219.1979 H   0  0  0  0  0  0  0  0  0  0  0  0
  146.9746   72.3944  219.7071 H   0  0  0  0  0  0  0  0  0  0  0  0
  145.7781   74.4508  220.3512 H   0  0  0  0  0  0  0  0  0  0  0  0
  139.1820   69.3985  222.7177 H   0  0  0  0  0  0  0  0  0  0  0  0
  138.9463   68.0186  224.7665 H   0  0  0  0  0  0  0  0  0  0  0  0
  139.3201   67.7706  227.0823 H   0  0  0  0  0  0  0  0  0  0  0  0
  141.3200   70.9023  229.2694 H   0  0  0  0  0  0  0  0  0  0  0  0
  141.5555   72.2700  227.2137 H   0  0  0  0  0  0  0  0  0  0  0  0
  1  2  2  0
  2  3  1  0
  3  4  1  0
  4  5  1  0
  5  6  2  0
  5  7  1  0
  7  8  1  0
  8  9  1  0
  9 10  1  0
 10 11  1  0
 11 12  1  0
 12 13  2  0
 13 14  1  0
 14 15  2  0
 15 16  1  0
 16 17  1  0
 16 18  1  0
 16 19  1  0
 15 20  1  0
 20 21  2  0
  2 22  1  0
 22 23  2  0
 23 24  1  0
 24 25  2  0
 25 26  1  0
 26 27  2  0
 27 28  1  0
 27 29  1  0
 29 30  2  0
 30 31  1  0
 31 32  2  0
 11  7  1  0
 21 12  1  0
 32 22  1  0
 31 25  1  0
  3 33  1  0
  4 34  1  0
  4 35  1  0
  8 36  1  0
  8 37  1  0
  9 38  1  0
  9 39  1  0
 10 40  1  0
 10 41  1  0
 11 42  1  1
 13 43  1  0
 14 44  1  0
 20 45  1  0
 21 46  1  0
 23 47  1  0
 24 48  1  0
 26 49  1  0
 29 50  1  0
 30 51  1  0
M  END
>  <smiles>  (32) 
O=C(NCC(=O)N1CCCC1c1ccc(C(F)(F)F)cc1)c1ccc2cc(F)ccc2n1

>  <score_type>  (32) 
oracle

>  <origin>  (32) 
autodockgpu

>  <m_score__min__energy>  (32) 
-8.8699999999999992

>  <m_primary>  (32) 
energy

>  <rmsd>  (32) 
2.0785790662160584

>  <m_score__min__rmsd>  (32) 
2.0785790662160584

>  <meeko>  (32) 
{"free_energy": -8.1, "intermolecular_energy": -9.89, "internal_energy": -1.63, "cluster_size": 7, "cluster_id": 3, "rank_in_cluster": 3}

>  <energy>  (32) 
-7.84

>  <cluster_rmsd>  (32) 
1.91

>  <cluster>  (32) 
1

$$$$

     RDKit          3D

 51 54  0  0  0  0  0  0  0  0999 V2000
  140.5340   71.5920  221.8140 O   0  0  0  0  0  0  0  0  0  0  0  0
  139.6920   71.6390  222.7450 C   0  0  0  0  0  0  0  0  0  0  0  0
  138.5850   72.5590  222.6630 N   0  0  0  0  0  0  0  0  0  0  0  0
  138.5100   73.3940  221.4820 C   0  0  0  0  0  0  0  0  0  0  0  0
  139.4330   74.5300  221.6220 C   0  0  0  0  0  0  0  0  0  0  0  0
  140.6810   74.4050  221.8190 O   0  0  0  0  0  0  0  0  0  0  0  0
  138.9220   75.8510  221.5330 N   0  0  0  0  0  0  0  0  0  0  0  0
  138.6450   76.6080  220.3230 C   0  0  0  0  0  0  0  0  0  0  0  0
  137.6190   77.6640  220.6880 C   0  0  0  0  0  0  0  0  0  0  0  0
  137.2370   77.2880  222.1110 C   0  0  0  0  0  0  0  0  0  0  0  0
  138.5550   76.7590  222.6210 C   0  0  2  0  0  0  0  0  0  0  0  0
  139.5410   77.8390  222.7590 C   0  0  0  0  0  0  0  0  0  0  0  0
  140.8610   77.7720  222.4340 C   0  0  0  0  0  0  0  0  0  0  0  0
  141.7180   78.8280  222.5940 C   0  0  0  0  0  0  0  0  0  0  0  0
  141.2440   80.0360  223.1090 C   0  0  0  0  0  0  0  0  0  0  0  0
  142.1800   81.1830  223.2820 C   0  0  0  0  0  0  0  0  0  0  0  0
  141.8790   82.2300  222.4470 F   0  0  0  0  0  0  0  0  0  0  0  0
  143.4630   80.7540  223.0190 F   0  0  0  0  0  0  0  0  0  0  0  0
  142.0520   81.6840  224.5810 F   0  0  0  0  0  0  0  0  0  0  0  0
  139.9150   80.1370  223.4480 C   0  0  0  0  0  0  0  0  0  0  0  0
  139.0810   79.0520  223.2730 C   0  0  0  0  0  0  0  0  0  0  0  0
  139.8090   70.7770  223.9170 C   0  0  0  0  0  0  0  0  0  0  0  0
  139.3100   69.4930  223.8480 C   0  0  0  0  0  0  0  0  0  0  0  0
  139.3700   68.5990  224.8980 C   0  0  0  0  0  0  0  0  0  0  0  0
  139.9680   69.0520  226.0610 C   0  0  0  0  0  0  0  0  0  0  0  0
  140.0350   68.1680  227.1180 C   0  0  0  0  0  0  0  0  0  0  0  0
  140.6350   68.6140  228.2920 C   0  0  0  0  0  0  0  0  0  0  0  0
  140.7120   67.7520  229.3590 F   0  0  0  0  0  0  0  0  0  0  0  0
  141.1380   69.9040  228.3700 C   0  0  0  0  0  0  0  0  0  0  0  0
  141.0730   70.7890  227.3130 C   0  0  0  0  0  0  0  0  0  0  0  0
  140.4770   70.3490  226.1450 C   0  0  0  0  0  0  0  0  0  0  0  0
  140.3860   71.1830  225.0680 N   0  0  0  0  0  0  0  0  0  0  0  0
  137.8730   72.6050  223.4410 H   0  0  0  0  0  0  0  0  0  0  0  0
  138.7886   72.8027  220.5973 H   0  0  0  0  0  0  0  0  0  0  0  0
  137.4829   73.7700  221.3649 H   0  0  0  0  0  0  0  0  0  0  0  0
  139.5656   77.0859  219.9569 H   0  0  0  0  0  0  0  0  0  0  0  0
  138.2668   75.9510  219.5259 H   0  0  0  0  0  0  0  0  0  0  0  0
  138.0574   78.6721  220.6491 H   0  0  0  0  0  0  0  0  0  0  0  0
  136.7607   77.6921  220.0006 H   0  0  0  0  0  0  0  0  0  0  0  0
  136.9014   78.1637  222.6859 H   0  0  0  0  0  0  0  0  0  0  0  0
  136.3990   76.5796  222.1879 H   0  0  0  0  0  0  0  0  0  0  0  0
  138.5061   76.2903  223.6150 H   0  0  0  0  0  0  0  0  0  0  0  0
  141.2560   76.8300  222.0257 H   0  0  0  0  0  0  0  0  0  0  0  0
  142.7776   78.7247  222.3173 H   0  0  0  0  0  0  0  0  0  0  0  0
  139.5189   81.0783  223.8567 H   0  0  0  0  0  0  0  0  0  0  0  0
  138.0199   79.1461  223.5473 H   0  0  0  0  0  0  0  0  0  0  0  0
  138.8406   69.1649  222.9089 H   0  0  0  0  0  0  0  0  0  0  0  0
  138.9639   67.5801  224.8148 H   0  0  0  0  0  0  0  0  0  0  0  0
  139.6294   67.1488  227.0360 H   0  0  0  0  0  0  0  0  0  0  0  0
  141.6061   70.2341  229.3091 H   0  0  0  0  0  0  0  0  0  0  0  0
  141.4804   71.8074  227.3964 H   0  0  0  0  0  0  0  0  0  0  0  0
  1  2  2  0
  2  3  1  0
  3  4  1  0
  4  5  1  0
  5  6  2  0
  5  7  1  0
  7  8  1  0
  8  9  1  0
  9 10  1  0
 10 11  1  0
 11 12  1  0
 12 13  2  0
 13 14  1  0
 14 15  2  0
 15 16  1  0
 16 17  1  0
 16 18  1  0
 16 19  1  0
 15 20  1  0
 20 21  2  0
  2 22  1  0
 22 23  2  0
 23 24  1  0
 24 25  2  0
 25 26  1  0
 26 27  2  0
 27 28  1  0
 27 29  1  0
 29 30  2  0
 30 31  1  0
 31 32  2  0
 11  7  1  0
 21 12  1  0
 32 22  1  0
 31 25  1  0
  3 33  1  0
  4 34  1  0
  4 35  1  0
  8 36  1  0
  8 37  1  0
  9 38  1  0
  9 39  1  0
 10 40  1  0
 10 41  1  0
 11 42  1  1
 13 43  1  0
 14 44  1  0
 20 45  1  0
 21 46  1  0
 23 47  1  0
 24 48  1  0
 26 49  1  0
 29 50  1  0
 30 51  1  0
M  END
>  <smiles>  (33) 
O=C(NCC(=O)N1CCCC1c1ccc(C(F)(F)F)cc1)c1ccc2cc(F)ccc2n1

>  <score_type>  (33) 
oracle

>  <origin>  (33) 
autodockgpu

>  <m_score__min__energy>  (33) 
-8.8699999999999992

>  <m_primary>  (33) 
energy

>  <rmsd>  (33) 
2.4886725844799074

>  <m_score__min__rmsd>  (33) 
2.4886725844799074

>  <meeko>  (33) 
{"free_energy": -8.78, "intermolecular_energy": -10.57, "internal_energy": -1.27, "cluster_size": 34, "cluster_id": 1, "rank_in_cluster": 2}

>  <energy>  (33) 
-7.78

>  <cluster_rmsd>  (33) 
1.56

>  <cluster>  (33) 
1

$$$$

     RDKit          3D

 51 54  0  0  0  0  0  0  0  0999 V2000
  138.7960   71.0110  221.6180 O   0  0  0  0  0  0  0  0  0  0  0  0
  139.2630   71.5220  222.6670 C   0  0  0  0  0  0  0  0  0  0  0  0
  139.5700   72.9300  222.7000 N   0  0  0  0  0  0  0  0  0  0  0  0
  139.3160   73.6880  221.4920 C   0  0  0  0  0  0  0  0  0  0  0  0
  140.3870   73.4380  220.5180 C   0  0  0  0  0  0  0  0  0  0  0  0
  140.4630   72.3920  219.8030 O   0  0  0  0  0  0  0  0  0  0  0  0
  141.4080   74.4110  220.3480 N   0  0  0  0  0  0  0  0  0  0  0  0
  142.7860   74.3280  220.8040 C   0  0  0  0  0  0  0  0  0  0  0  0
  143.5970   75.2660  219.9300 C   0  0  0  0  0  0  0  0  0  0  0  0
  142.5940   75.6930  218.8700 C   0  0  0  0  0  0  0  0  0  0  0  0
  141.3230   75.7120  219.6830 C   0  0  2  0  0  0  0  0  0  0  0  0
  141.3380   76.8040  220.6630 C   0  0  0  0  0  0  0  0  0  0  0  0
  140.9820   76.7160  221.9740 C   0  0  0  0  0  0  0  0  0  0  0  0
  141.0230   77.7880  222.8270 C   0  0  0  0  0  0  0  0  0  0  0  0
  141.4450   79.0340  222.3580 C   0  0  0  0  0  0  0  0  0  0  0  0
  141.4880   80.1970  223.2890 C   0  0  0  0  0  0  0  0  0  0  0  0
  141.7100   81.3810  222.6310 F   0  0  0  0  0  0  0  0  0  0  0  0
  142.4980   79.9960  224.2060 F   0  0  0  0  0  0  0  0  0  0  0  0
  140.2410   80.3330  223.9060 F   0  0  0  0  0  0  0  0  0  0  0  0
  141.8110   79.1570  221.0380 C   0  0  0  0  0  0  0  0  0  0  0  0
  141.7570   78.0560  220.2080 C   0  0  0  0  0  0  0  0  0  0  0  0
  139.5040   70.7180  223.8610 C   0  0  0  0  0  0  0  0  0  0  0  0
  139.1350   69.3890  223.8500 C   0  0  0  0  0  0  0  0  0  0  0  0
  139.3190   68.5430  224.9250 C   0  0  0  0  0  0  0  0  0  0  0  0
  139.9050   69.0930  226.0510 C   0  0  0  0  0  0  0  0  0  0  0  0
  140.0940   68.2590  227.1330 C   0  0  0  0  0  0  0  0  0  0  0  0
  140.6820   68.8030  228.2700 C   0  0  0  0  0  0  0  0  0  0  0  0
  140.8790   67.9910  229.3610 F   0  0  0  0  0  0  0  0  0  0  0  0
  141.0540   70.1390  228.2900 C   0  0  0  0  0  0  0  0  0  0  0  0
  140.8670   70.9760  227.2090 C   0  0  0  0  0  0  0  0  0  0  0  0
  140.2820   70.4370  226.0760 C   0  0  0  0  0  0  0  0  0  0  0  0
  140.0730   71.2200  224.9770 N   0  0  0  0  0  0  0  0  0  0  0  0
  139.9640   73.3690  223.5760 H   0  0  0  0  0  0  0  0  0  0  0  0
  138.3514   73.3796  221.0625 H   0  0  0  0  0  0  0  0  0  0  0  0
  139.2857   74.7607  221.7338 H   0  0  0  0  0  0  0  0  0  0  0  0
  142.8552   74.6378  221.8572 H   0  0  0  0  0  0  0  0  0  0  0  0
  143.1633   73.2973  220.7311 H   0  0  0  0  0  0  0  0  0  0  0  0
  143.9572   76.1313  220.5057 H   0  0  0  0  0  0  0  0  0  0  0  0
  144.5000   74.7980  219.5108 H   0  0  0  0  0  0  0  0  0  0  0  0
  142.8311   76.6876  218.4643 H   0  0  0  0  0  0  0  0  0  0  0  0
  142.5604   75.0428  217.9834 H   0  0  0  0  0  0  0  0  0  0  0  0
  140.4064   75.8703  219.0958 H   0  0  0  0  0  0  0  0  0  0  0  0
  140.6474   75.7438  222.3651 H   0  0  0  0  0  0  0  0  0  0  0  0
  140.7242   77.6673  223.8787 H   0  0  0  0  0  0  0  0  0  0  0  0
  142.1453   80.1288  220.6456 H   0  0  0  0  0  0  0  0  0  0  0  0
  142.0534   78.1681  219.1546 H   0  0  0  0  0  0  0  0  0  0  0  0
  138.6709   68.9831  222.9391 H   0  0  0  0  0  0  0  0  0  0  0  0
  139.0155   67.4863  224.8883 H   0  0  0  0  0  0  0  0  0  0  0  0
  139.7908   67.2022  227.0980 H   0  0  0  0  0  0  0  0  0  0  0  0
  141.5153   70.5466  229.2016 H   0  0  0  0  0  0  0  0  0  0  0  0
  141.1715   72.0324  227.2462 H   0  0  0  0  0  0  0  0  0  0  0  0
  1  2  2  0
  2  3  1  0
  3  4  1  0
  4  5  1  0
  5  6  2  0
  5  7  1  0
  7  8  1  0
  8  9  1  0
  9 10  1  0
 10 11  1  0
 11 12  1  0
 12 13  2  0
 13 14  1  0
 14 15  2  0
 15 16  1  0
 16 17  1  0
 16 18  1  0
 16 19  1  0
 15 20  1  0
 20 21  2  0
  2 22  1  0
 22 23  2  0
 23 24  1  0
 24 25  2  0
 25 26  1  0
 26 27  2  0
 27 28  1  0
 27 29  1  0
 29 30  2  0
 30 31  1  0
 31 32  2  0
 11  7  1  0
 21 12  1  0
 32 22  1  0
 31 25  1  0
  3 33  1  0
  4 34  1  0
  4 35  1  0
  8 36  1  0
  8 37  1  0
  9 38  1  0
  9 39  1  0
 10 40  1  0
 10 41  1  0
 11 42  1  6
 13 43  1  0
 14 44  1  0
 20 45  1  0
 21 46  1  0
 23 47  1  0
 24 48  1  0
 26 49  1  0
 29 50  1  0
 30 51  1  0
M  END
>  <smiles>  (34) 
O=C(NCC(=O)N1CCCC1c1ccc(C(F)(F)F)cc1)c1ccc2cc(F)ccc2n1

>  <score_type>  (34) 
oracle

>  <origin>  (34) 
autodockgpu

>  <m_score__min__energy>  (34) 
-8.8699999999999992

>  <m_primary>  (34) 
energy

>  <rmsd>  (34) 
2.217649547394599

>  <m_score__min__rmsd>  (34) 
2.217649547394599

>  <meeko>  (34) 
{"free_energy": -8.04, "intermolecular_energy": -9.83, "internal_energy": -1.55, "cluster_size": 34, "cluster_id": 1, "rank_in_cluster": 29}

>  <energy>  (34) 
-7.44

>  <cluster_rmsd>  (34) 
1.54

>  <cluster>  (34) 
1

$$$$

     RDKit          3D

 51 54  0  0  0  0  0  0  0  0999 V2000
  138.5660   72.7190  222.2520 O   0  0  0  0  0  0  0  0  0  0  0  0
  139.6740   72.3510  222.7160 C   0  0  0  0  0  0  0  0  0  0  0  0
  140.8940   72.8480  222.1300 N   0  0  0  0  0  0  0  0  0  0  0  0
  140.7640   73.7640  221.0150 C   0  0  0  0  0  0  0  0  0  0  0  0
  142.0910   74.2750  220.6390 C   0  0  0  0  0  0  0  0  0  0  0  0
  143.1760   73.6540  220.8610 O   0  0  0  0  0  0  0  0  0  0  0  0
  142.1880   75.5330  219.9890 N   0  0  0  0  0  0  0  0  0  0  0  0
  143.3800   76.1360  219.4160 C   0  0  0  0  0  0  0  0  0  0  0  0
  142.9110   77.1350  218.3740 C   0  0  0  0  0  0  0  0  0  0  0  0
  141.4150   76.8750  218.3050 C   0  0  0  0  0  0  0  0  0  0  0  0
  141.1300   76.5140  219.7420 C   0  0  2  0  0  0  0  0  0  0  0  0
  141.2790   77.6800  220.6210 C   0  0  0  0  0  0  0  0  0  0  0  0
  141.4660   78.9690  220.2260 C   0  0  0  0  0  0  0  0  0  0  0  0
  141.5990   80.0040  221.1140 C   0  0  0  0  0  0  0  0  0  0  0  0
  141.5430   79.7540  222.4870 C   0  0  0  0  0  0  0  0  0  0  0  0
  141.6880   80.8840  223.4490 C   0  0  0  0  0  0  0  0  0  0  0  0
  141.8480   82.0900  222.8140 F   0  0  0  0  0  0  0  0  0  0  0  0
  142.7860   80.6490  224.2490 F   0  0  0  0  0  0  0  0  0  0  0  0
  140.5120   81.0000  224.1960 F   0  0  0  0  0  0  0  0  0  0  0  0
  141.3560   78.4630  222.9190 C   0  0  0  0  0  0  0  0  0  0  0  0
  141.2260   77.4450  221.9970 C   0  0  0  0  0  0  0  0  0  0  0  0
  139.7560   71.4260  223.8420 C   0  0  0  0  0  0  0  0  0  0  0  0
  139.1830   70.1780  223.7160 C   0  0  0  0  0  0  0  0  0  0  0  0
  139.2050   69.2300  224.7190 C   0  0  0  0  0  0  0  0  0  0  0  0
  139.8430   69.5880  225.8940 C   0  0  0  0  0  0  0  0  0  0  0  0
  139.8720   68.6500  226.9050 C   0  0  0  0  0  0  0  0  0  0  0  0
  140.5110   69.0020  228.0900 C   0  0  0  0  0  0  0  0  0  0  0  0
  140.5510   68.0840  229.1110 F   0  0  0  0  0  0  0  0  0  0  0  0
  141.0880   70.2550  228.2250 C   0  0  0  0  0  0  0  0  0  0  0  0
  141.0610   71.1950  227.2140 C   0  0  0  0  0  0  0  0  0  0  0  0
  140.4270   70.8490  226.0350 C   0  0  0  0  0  0  0  0  0  0  0  0
  140.3700   71.7400  225.0020 N   0  0  0  0  0  0  0  0  0  0  0  0
  141.8310   72.5440  222.5120 H   0  0  0  0  0  0  0  0  0  0  0  0
  140.3184   73.2371  220.1584 H   0  0  0  0  0  0  0  0  0  0  0  0
  140.1178   74.6051  221.3066 H   0  0  0  0  0  0  0  0  0  0  0  0
  143.9581   76.6490  220.1987 H   0  0  0  0  0  0  0  0  0  0  0  0
  144.0298   75.3718  218.9646 H   0  0  0  0  0  0  0  0  0  0  0  0
  143.1192   78.1670  218.6929 H   0  0  0  0  0  0  0  0  0  0  0  0
  143.4172   77.0216  217.4040 H   0  0  0  0  0  0  0  0  0  0  0  0
  140.8609   77.7732  217.9947 H   0  0  0  0  0  0  0  0  0  0  0  0
  141.1168   76.1098  217.5732 H   0  0  0  0  0  0  0  0  0  0  0  0
  140.1096   76.1479  219.9281 H   0  0  0  0  0  0  0  0  0  0  0  0
  141.5123   79.1890  219.1492 H   0  0  0  0  0  0  0  0  0  0  0  0
  141.7496   81.0297  220.7463 H   0  0  0  0  0  0  0  0  0  0  0  0
  141.3102   78.2421  223.9956 H   0  0  0  0  0  0  0  0  0  0  0  0
  141.0759   76.4163  222.3565 H   0  0  0  0  0  0  0  0  0  0  0  0
  138.6835   69.9254  222.7690 H   0  0  0  0  0  0  0  0  0  0  0  0
  138.7397   68.2415  224.5912 H   0  0  0  0  0  0  0  0  0  0  0  0
  139.4074   67.6609  226.7792 H   0  0  0  0  0  0  0  0  0  0  0  0
  141.5857   70.5099  229.1723 H   0  0  0  0  0  0  0  0  0  0  0  0
  141.5269   72.1832  227.3419 H   0  0  0  0  0  0  0  0  0  0  0  0
  1  2  2  0
  2  3  1  0
  3  4  1  0
  4  5  1  0
  5  6  2  0
  5  7  1  0
  7  8  1  0
  8  9  1  0
  9 10  1  0
 10 11  1  0
 11 12  1  0
 12 13  2  0
 13 14  1  0
 14 15  2  0
 15 16  1  0
 16 17  1  0
 16 18  1  0
 16 19  1  0
 15 20  1  0
 20 21  2  0
  2 22  1  0
 22 23  2  0
 23 24  1  0
 24 25  2  0
 25 26  1  0
 26 27  2  0
 27 28  1  0
 27 29  1  0
 29 30  2  0
 30 31  1  0
 31 32  2  0
 11  7  1  0
 21 12  1  0
 32 22  1  0
 31 25  1  0
  3 33  1  0
  4 34  1  0
  4 35  1  0
  8 36  1  0
  8 37  1  0
  9 38  1  0
  9 39  1  0
 10 40  1  0
 10 41  1  0
 11 42  1  6
 13 43  1  0
 14 44  1  0
 20 45  1  0
 21 46  1  0
 23 47  1  0
 24 48  1  0
 26 49  1  0
 29 50  1  0
 30 51  1  0
M  END
>  <smiles>  (35) 
O=C(NCC(=O)N1CCCC1c1ccc(C(F)(F)F)cc1)c1ccc2cc(F)ccc2n1

>  <score_type>  (35) 
oracle

>  <origin>  (35) 
autodockgpu

>  <m_score__min__energy>  (35) 
-8.8699999999999992

>  <m_primary>  (35) 
energy

>  <rmsd>  (35) 
2.270452404883301

>  <m_score__min__rmsd>  (35) 
2.270452404883301

>  <meeko>  (35) 
{"free_energy": -8.0, "intermolecular_energy": -9.79, "internal_energy": -1.54, "cluster_size": 7, "cluster_id": 2, "rank_in_cluster": 5}

>  <energy>  (35) 
-8.31

>  <cluster_rmsd>  (35) 
0.0

>  <cluster>  (35) 
2

$$$$

     RDKit          3D

 51 54  0  0  0  0  0  0  0  0999 V2000
  140.6130   71.7770  221.8440 O   0  0  0  0  0  0  0  0  0  0  0  0
  139.7480   71.7680  222.7550 C   0  0  0  0  0  0  0  0  0  0  0  0
  138.6080   72.6450  222.6670 N   0  0  0  0  0  0  0  0  0  0  0  0
  138.5270   73.5050  221.5050 C   0  0  0  0  0  0  0  0  0  0  0  0
  139.4170   74.6610  221.6840 C   0  0  0  0  0  0  0  0  0  0  0  0
  140.6560   74.5650  221.9470 O   0  0  0  0  0  0  0  0  0  0  0  0
  138.8840   75.9710  221.5580 N   0  0  0  0  0  0  0  0  0  0  0  0
  138.6860   76.7250  220.3310 C   0  0  0  0  0  0  0  0  0  0  0  0
  137.6100   77.7560  220.6160 C   0  0  0  0  0  0  0  0  0  0  0  0
  137.1260   77.3660  222.0040 C   0  0  0  0  0  0  0  0  0  0  0  0
  138.4120   76.8660  222.6150 C   0  0  2  0  0  0  0  0  0  0  0  0
  139.3580   77.9670  222.8320 C   0  0  0  0  0  0  0  0  0  0  0  0
  139.0430   79.2420  223.1900 C   0  0  0  0  0  0  0  0  0  0  0  0
  139.9900   80.2160  223.3710 C   0  0  0  0  0  0  0  0  0  0  0  0
  141.3410   79.9150  223.1890 C   0  0  0  0  0  0  0  0  0  0  0  0
  142.3680   80.9780  223.3870 C   0  0  0  0  0  0  0  0  0  0  0  0
  142.2680   81.5720  224.6200 F   0  0  0  0  0  0  0  0  0  0  0  0
  142.2080   81.9380  222.4110 F   0  0  0  0  0  0  0  0  0  0  0  0
  143.6380   80.3970  223.3470 F   0  0  0  0  0  0  0  0  0  0  0  0
  141.6920   78.6360  222.8260 C   0  0  0  0  0  0  0  0  0  0  0  0
  140.7120   77.6810  222.6520 C   0  0  0  0  0  0  0  0  0  0  0  0
  139.8720   70.8830  223.9090 C   0  0  0  0  0  0  0  0  0  0  0  0
  139.4120   69.5870  223.8030 C   0  0  0  0  0  0  0  0  0  0  0  0
  139.4810   68.6720  224.8340 C   0  0  0  0  0  0  0  0  0  0  0  0
  140.0480   69.1140  226.0170 C   0  0  0  0  0  0  0  0  0  0  0  0
  140.1240   68.2090  227.0550 C   0  0  0  0  0  0  0  0  0  0  0  0
  140.6920   68.6460  228.2480 C   0  0  0  0  0  0  0  0  0  0  0  0
  140.7770   67.7620  229.2960 F   0  0  0  0  0  0  0  0  0  0  0  0
  141.1550   69.9470  228.3630 C   0  0  0  0  0  0  0  0  0  0  0  0
  141.0810   70.8540  227.3250 C   0  0  0  0  0  0  0  0  0  0  0  0
  140.5180   70.4240  226.1380 C   0  0  0  0  0  0  0  0  0  0  0  0
  140.4180   71.2790  225.0780 N   0  0  0  0  0  0  0  0  0  0  0  0
  137.8760   72.6450  223.4290 H   0  0  0  0  0  0  0  0  0  0  0  0
  138.8333   72.9421  220.6109 H   0  0  0  0  0  0  0  0  0  0  0  0
  137.4919   73.8565  221.3822 H   0  0  0  0  0  0  0  0  0  0  0  0
  139.6213   77.2251  220.0392 H   0  0  0  0  0  0  0  0  0  0  0  0
  138.3874   76.0622  219.5054 H   0  0  0  0  0  0  0  0  0  0  0  0
  138.0266   78.7740  220.6136 H   0  0  0  0  0  0  0  0  0  0  0  0
  136.8081   77.7669  219.8631 H   0  0  0  0  0  0  0  0  0  0  0  0
  136.7258   78.2315  222.5523 H   0  0  0  0  0  0  0  0  0  0  0  0
  136.3013   76.6381  222.0135 H   0  0  0  0  0  0  0  0  0  0  0  0
  138.2963   76.3929  223.6013 H   0  0  0  0  0  0  0  0  0  0  0  0
  137.9846   79.5013  223.3402 H   0  0  0  0  0  0  0  0  0  0  0  0
  139.6861   81.2332  223.6592 H   0  0  0  0  0  0  0  0  0  0  0  0
  142.7500   78.3755  222.6750 H   0  0  0  0  0  0  0  0  0  0  0  0
  141.0071   76.6617  222.3622 H   0  0  0  0  0  0  0  0  0  0  0  0
  138.9679   69.2666  222.8490 H   0  0  0  0  0  0  0  0  0  0  0  0
  139.1048   67.6445  224.7215 H   0  0  0  0  0  0  0  0  0  0  0  0
  139.7498   67.1806  226.9441 H   0  0  0  0  0  0  0  0  0  0  0  0
  141.5980   70.2690  229.3170 H   0  0  0  0  0  0  0  0  0  0  0  0
  141.4564   71.8817  227.4383 H   0  0  0  0  0  0  0  0  0  0  0  0
  1  2  2  0
  2  3  1  0
  3  4  1  0
  4  5  1  0
  5  6  2  0
  5  7  1  0
  7  8  1  0
  8  9  1  0
  9 10  1  0
 10 11  1  0
 11 12  1  0
 12 13  2  0
 13 14  1  0
 14 15  2  0
 15 16  1  0
 16 17  1  0
 16 18  1  0
 16 19  1  0
 15 20  1  0
 20 21  2  0
  2 22  1  0
 22 23  2  0
 23 24  1  0
 24 25  2  0
 25 26  1  0
 26 27  2  0
 27 28  1  0
 27 29  1  0
 29 30  2  0
 30 31  1  0
 31 32  2  0
 11  7  1  0
 21 12  1  0
 32 22  1  0
 31 25  1  0
  3 33  1  0
  4 34  1  0
  4 35  1  0
  8 36  1  0
  8 37  1  0
  9 38  1  0
  9 39  1  0
 10 40  1  0
 10 41  1  0
 11 42  1  1
 13 43  1  0
 14 44  1  0
 20 45  1  0
 21 46  1  0
 23 47  1  0
 24 48  1  0
 26 49  1  0
 29 50  1  0
 30 51  1  0
M  END
>  <smiles>  (36) 
O=C(NCC(=O)N1CCCC1c1ccc(C(F)(F)F)cc1)c1ccc2cc(F)ccc2n1

>  <score_type>  (36) 
oracle

>  <origin>  (36) 
autodockgpu

>  <m_score__min__energy>  (36) 
-8.8699999999999992

>  <m_primary>  (36) 
energy

>  <rmsd>  (36) 
2.516424630726285

>  <m_score__min__rmsd>  (36) 
2.516424630726285

>  <meeko>  (36) 
{"free_energy": -8.87, "intermolecular_energy": -10.66, "internal_energy": -1.27, "cluster_size": 34, "cluster_id": 1, "rank_in_cluster": 1}

>  <energy>  (36) 
-8.21

>  <cluster_rmsd>  (36) 
0.24

>  <cluster>  (36) 
2

$$$$

     RDKit          3D

 51 54  0  0  0  0  0  0  0  0999 V2000
  140.4240   71.3950  221.2130 O   0  0  0  0  0  0  0  0  0  0  0  0
  140.1170   71.9470  222.2990 C   0  0  0  0  0  0  0  0  0  0  0  0
  139.8710   73.3670  222.3340 N   0  0  0  0  0  0  0  0  0  0  0  0
  139.9950   74.0880  221.0850 C   0  0  0  0  0  0  0  0  0  0  0  0
  141.4130   74.1780  220.7070 C   0  0  0  0  0  0  0  0  0  0  0  0
  142.2520   73.2420  220.8820 O   0  0  0  0  0  0  0  0  0  0  0  0
  141.8950   75.3730  220.1090 N   0  0  0  0  0  0  0  0  0  0  0  0
  143.2790   75.7220  219.8340 C   0  0  0  0  0  0  0  0  0  0  0  0
  143.2610   76.7530  218.7210 C   0  0  0  0  0  0  0  0  0  0  0  0
  141.7990   76.7750  218.3030 C   0  0  0  0  0  0  0  0  0  0  0  0
  141.1270   76.5240  219.6310 C   0  0  2  0  0  0  0  0  0  0  0  0
  141.2890   77.6720  220.5310 C   0  0  0  0  0  0  0  0  0  0  0  0
  141.6310   78.9390  220.1690 C   0  0  0  0  0  0  0  0  0  0  0  0
  141.7630   79.9580  221.0750 C   0  0  0  0  0  0  0  0  0  0  0  0
  141.5420   79.7160  222.4320 C   0  0  0  0  0  0  0  0  0  0  0  0
  141.6860   80.8280  223.4140 C   0  0  0  0  0  0  0  0  0  0  0  0
  142.7730   80.6580  224.2350 F   0  0  0  0  0  0  0  0  0  0  0  0
  140.5460   80.8910  224.1860 F   0  0  0  0  0  0  0  0  0  0  0  0
  141.9150   82.0200  222.7220 F   0  0  0  0  0  0  0  0  0  0  0  0
  141.1950   78.4460  222.8310 C   0  0  0  0  0  0  0  0  0  0  0  0
  141.0710   77.4440  221.8910 C   0  0  0  0  0  0  0  0  0  0  0  0
  140.0030   71.1790  223.5350 C   0  0  0  0  0  0  0  0  0  0  0  0
  139.3860   69.9460  223.4940 C   0  0  0  0  0  0  0  0  0  0  0  0
  139.2270   69.1410  224.6040 C   0  0  0  0  0  0  0  0  0  0  0  0
  139.7250   69.6310  225.7990 C   0  0  0  0  0  0  0  0  0  0  0  0
  139.5720   68.8370  226.9160 C   0  0  0  0  0  0  0  0  0  0  0  0
  140.0690   69.3210  228.1220 C   0  0  0  0  0  0  0  0  0  0  0  0
  139.9280   68.5470  229.2490 F   0  0  0  0  0  0  0  0  0  0  0  0
  140.6890   70.5600  228.1720 C   0  0  0  0  0  0  0  0  0  0  0  0
  140.8430   71.3570  227.0550 C   0  0  0  0  0  0  0  0  0  0  0  0
  140.3510   70.8780  225.8550 C   0  0  0  0  0  0  0  0  0  0  0  0
  140.4760   71.6240  224.7180 N   0  0  0  0  0  0  0  0  0  0  0  0
  139.6130   73.8390  223.2430 H   0  0  0  0  0  0  0  0  0  0  0  0
  139.4394   73.5563  220.2985 H   0  0  0  0  0  0  0  0  0  0  0  0
  139.5836   75.1011  221.2053 H   0  0  0  0  0  0  0  0  0  0  0  0
  143.7483   76.1454  220.7342 H   0  0  0  0  0  0  0  0  0  0  0  0
  143.8577   74.8343  219.5389 H   0  0  0  0  0  0  0  0  0  0  0  0
  143.5824   77.7385  219.0890 H   0  0  0  0  0  0  0  0  0  0  0  0
  143.9459   76.5124  217.8945 H   0  0  0  0  0  0  0  0  0  0  0  0
  141.5123   77.7495  217.8810 H   0  0  0  0  0  0  0  0  0  0  0  0
  141.5377   76.0539  217.5145 H   0  0  0  0  0  0  0  0  0  0  0  0
  140.0408   76.3609  219.5708 H   0  0  0  0  0  0  0  0  0  0  0  0
  141.8087   79.1534  219.1048 H   0  0  0  0  0  0  0  0  0  0  0  0
  142.0428   80.9656  220.7337 H   0  0  0  0  0  0  0  0  0  0  0  0
  141.0172   78.2304  223.8949 H   0  0  0  0  0  0  0  0  0  0  0  0
  140.7915   76.4334  222.2235 H   0  0  0  0  0  0  0  0  0  0  0  0
  139.0014   69.5862  222.5283 H   0  0  0  0  0  0  0  0  0  0  0  0
  138.7305   68.1614  224.5422 H   0  0  0  0  0  0  0  0  0  0  0  0
  139.0754   67.8573  226.8558 H   0  0  0  0  0  0  0  0  0  0  0  0
  141.0725   70.9216  229.1375 H   0  0  0  0  0  0  0  0  0  0  0  0
  141.3389   72.3369  227.1176 H   0  0  0  0  0  0  0  0  0  0  0  0
  1  2  2  0
  2  3  1  0
  3  4  1  0
  4  5  1  0
  5  6  2  0
  5  7  1  0
  7  8  1  0
  8  9  1  0
  9 10  1  0
 10 11  1  0
 11 12  1  0
 12 13  2  0
 13 14  1  0
 14 15  2  0
 15 16  1  0
 16 17  1  0
 16 18  1  0
 16 19  1  0
 15 20  1  0
 20 21  2  0
  2 22  1  0
 22 23  2  0
 23 24  1  0
 24 25  2  0
 25 26  1  0
 26 27  2  0
 27 28  1  0
 27 29  1  0
 29 30  2  0
 30 31  1  0
 31 32  2  0
 11  7  1  0
 21 12  1  0
 32 22  1  0
 31 25  1  0
  3 33  1  0
  4 34  1  0
  4 35  1  0
  8 36  1  0
  8 37  1  0
  9 38  1  0
  9 39  1  0
 10 40  1  0
 10 41  1  0
 11 42  1  6
 13 43  1  0
 14 44  1  0
 20 45  1  0
 21 46  1  0
 23 47  1  0
 24 48  1  0
 26 49  1  0
 29 50  1  0
 30 51  1  0
M  END
>  <smiles>  (37) 
O=C(NCC(=O)N1CCCC1c1ccc(C(F)(F)F)cc1)c1ccc2cc(F)ccc2n1

>  <score_type>  (37) 
oracle

>  <origin>  (37) 
autodockgpu

>  <m_score__min__energy>  (37) 
-8.8699999999999992

>  <m_primary>  (37) 
energy

>  <rmsd>  (37) 
2.094272107488809

>  <m_score__min__rmsd>  (37) 
2.094272107488809

>  <meeko>  (37) 
{"free_energy": -8.46, "intermolecular_energy": -10.25, "internal_energy": -1.28, "cluster_size": 34, "cluster_id": 1, "rank_in_cluster": 11}

>  <energy>  (37) 
-8.21

>  <cluster_rmsd>  (37) 
1.38

>  <cluster>  (37) 
2

$$$$

     RDKit          3D

 51 54  0  0  0  0  0  0  0  0999 V2000
  139.9070   70.8530  221.5950 O   0  0  0  0  0  0  0  0  0  0  0  0
  139.8590   71.6020  222.6030 C   0  0  0  0  0  0  0  0  0  0  0  0
  139.5780   73.0060  222.4360 N   0  0  0  0  0  0  0  0  0  0  0  0
  139.3640   73.4800  221.0850 C   0  0  0  0  0  0  0  0  0  0  0  0
  140.0180   74.7850  220.9100 C   0  0  0  0  0  0  0  0  0  0  0  0
  141.2280   74.9260  220.5540 O   0  0  0  0  0  0  0  0  0  0  0  0
  139.2720   75.9690  221.1460 N   0  0  0  0  0  0  0  0  0  0  0  0
  138.7140   76.8700  220.1500 C   0  0  0  0  0  0  0  0  0  0  0  0
  137.5700   77.6110  220.8180 C   0  0  0  0  0  0  0  0  0  0  0  0
  137.4430   76.9020  222.1570 C   0  0  0  0  0  0  0  0  0  0  0  0
  138.8880   76.5620  222.4280 C   0  0  2  0  0  0  0  0  0  0  0  0
  139.6740   77.7710  222.7030 C   0  0  0  0  0  0  0  0  0  0  0  0
  139.2140   78.9220  223.2640 C   0  0  0  0  0  0  0  0  0  0  0  0
  140.0160   80.0110  223.4860 C   0  0  0  0  0  0  0  0  0  0  0  0
  141.3660   79.9640  223.1330 C   0  0  0  0  0  0  0  0  0  0  0  0
  142.2340   81.1500  223.3770 C   0  0  0  0  0  0  0  0  0  0  0  0
  142.0380   81.6910  224.6230 F   0  0  0  0  0  0  0  0  0  0  0  0
  141.9590   82.1070  222.4240 F   0  0  0  0  0  0  0  0  0  0  0  0
  143.5730   80.7500  223.3440 F   0  0  0  0  0  0  0  0  0  0  0  0
  141.8620   78.8150  222.5640 C   0  0  0  0  0  0  0  0  0  0  0  0
  141.0260   77.7390  222.3550 C   0  0  0  0  0  0  0  0  0  0  0  0
  140.0820   71.0800  223.9470 C   0  0  0  0  0  0  0  0  0  0  0  0
  140.6960   71.8900  224.8790 C   0  0  0  0  0  0  0  0  0  0  0  0
  140.9530   71.4940  226.1760 C   0  0  0  0  0  0  0  0  0  0  0  0
  140.5610   70.2110  226.5190 C   0  0  0  0  0  0  0  0  0  0  0  0
  140.8130   69.8020  227.8120 C   0  0  0  0  0  0  0  0  0  0  0  0
  140.4220   68.5140  228.1660 C   0  0  0  0  0  0  0  0  0  0  0  0
  140.6630   68.0850  229.4490 F   0  0  0  0  0  0  0  0  0  0  0  0
  139.8060   67.6930  227.2350 C   0  0  0  0  0  0  0  0  0  0  0  0
  139.5530   68.1000  225.9410 C   0  0  0  0  0  0  0  0  0  0  0  0
  139.9390   69.3800  225.5850 C   0  0  0  0  0  0  0  0  0  0  0  0
  139.7140   69.8350  224.3180 N   0  0  0  0  0  0  0  0  0  0  0  0
  139.5360   73.6430  223.2780 H   0  0  0  0  0  0  0  0  0  0  0  0
  139.7901   72.7586  220.3723 H   0  0  0  0  0  0  0  0  0  0  0  0
  138.2845   73.5853  220.9019 H   0  0  0  0  0  0  0  0  0  0  0  0
  139.4809   77.5829  219.8128 H   0  0  0  0  0  0  0  0  0  0  0  0
  138.3618   76.3136  219.2689 H   0  0  0  0  0  0  0  0  0  0  0  0
  137.8138   78.6749  220.9549 H   0  0  0  0  0  0  0  0  0  0  0  0
  136.6409   77.5978  220.2293 H   0  0  0  0  0  0  0  0  0  0  0  0
  137.0304   77.5664  222.9305 H   0  0  0  0  0  0  0  0  0  0  0  0
  136.7620   76.0381  222.1548 H   0  0  0  0  0  0  0  0  0  0  0  0
  139.0489   75.9138  223.3020 H   0  0  0  0  0  0  0  0  0  0  0  0
  138.1539   78.9810  223.5515 H   0  0  0  0  0  0  0  0  0  0  0  0
  139.5969   80.9203  223.9414 H   0  0  0  0  0  0  0  0  0  0  0  0
  142.9221   78.7545  222.2765 H   0  0  0  0  0  0  0  0  0  0  0  0
  141.4371   76.8260  221.8995 H   0  0  0  0  0  0  0  0  0  0  0  0
  140.9962   72.9031  224.5732 H   0  0  0  0  0  0  0  0  0  0  0  0
  141.4434   72.1624  226.8991 H   0  0  0  0  0  0  0  0  0  0  0  0
  141.3044   70.4686  228.5360 H   0  0  0  0  0  0  0  0  0  0  0  0
  139.5075   66.6788  227.5389 H   0  0  0  0  0  0  0  0  0  0  0  0
  139.0622   67.4310  225.2187 H   0  0  0  0  0  0  0  0  0  0  0  0
  1  2  2  0
  2  3  1  0
  3  4  1  0
  4  5  1  0
  5  6  2  0
  5  7  1  0
  7  8  1  0
  8  9  1  0
  9 10  1  0
 10 11  1  0
 11 12  1  0
 12 13  2  0
 13 14  1  0
 14 15  2  0
 15 16  1  0
 16 17  1  0
 16 18  1  0
 16 19  1  0
 15 20  1  0
 20 21  2  0
  2 22  1  0
 22 23  2  0
 23 24  1  0
 24 25  2  0
 25 26  1  0
 26 27  2  0
 27 28  1  0
 27 29  1  0
 29 30  2  0
 30 31  1  0
 31 32  2  0
 11  7  1  0
 21 12  1  0
 32 22  1  0
 31 25  1  0
  3 33  1  0
  4 34  1  0
  4 35  1  0
  8 36  1  0
  8 37  1  0
  9 38  1  0
  9 39  1  0
 10 40  1  0
 10 41  1  0
 11 42  1  1
 13 43  1  0
 14 44  1  0
 20 45  1  0
 21 46  1  0
 23 47  1  0
 24 48  1  0
 26 49  1  0
 29 50  1  0
 30 51  1  0
M  END
>  <smiles>  (38) 
O=C(NCC(=O)N1CCCC1c1ccc(C(F)(F)F)cc1)c1ccc2cc(F)ccc2n1

>  <score_type>  (38) 
oracle

>  <origin>  (38) 
autodockgpu

>  <m_score__min__energy>  (38) 
-8.8699999999999992

>  <m_primary>  (38) 
energy

>  <rmsd>  (38) 
3.3205696384334815

>  <m_score__min__rmsd>  (38) 
3.3205696384334815

>  <meeko>  (38) 
{"free_energy": -8.36, "intermolecular_energy": -10.15, "internal_energy": -1.29, "cluster_size": 34, "cluster_id": 1, "rank_in_cluster": 13}

>  <energy>  (38) 
-8.11

>  <cluster_rmsd>  (38) 
1.45

>  <cluster>  (38) 
2

$$$$

     RDKit          3D

 51 54  0  0  0  0  0  0  0  0999 V2000
  139.1460   70.3520  221.4320 O   0  0  0  0  0  0  0  0  0  0  0  0
  139.2480   70.9600  222.5270 C   0  0  0  0  0  0  0  0  0  0  0  0
  139.1370   72.3970  222.5580 N   0  0  0  0  0  0  0  0  0  0  0  0
  138.9080   73.0680  221.2950 C   0  0  0  0  0  0  0  0  0  0  0  0
  139.0460   74.5210  221.4760 C   0  0  0  0  0  0  0  0  0  0  0  0
  138.1590   75.2530  222.0130 O   0  0  0  0  0  0  0  0  0  0  0  0
  140.2320   75.1630  221.0320 N   0  0  0  0  0  0  0  0  0  0  0  0
  141.6030   74.7460  221.2790 C   0  0  0  0  0  0  0  0  0  0  0  0
  142.4540   75.3570  220.1810 C   0  0  0  0  0  0  0  0  0  0  0  0
  141.4170   75.9550  219.2420 C   0  0  0  0  0  0  0  0  0  0  0  0
  140.3610   76.3820  220.2320 C   0  0  2  0  0  0  0  0  0  0  0  0
  140.8290   77.5030  221.0550 C   0  0  0  0  0  0  0  0  0  0  0  0
  140.8150   77.5670  222.4150 C   0  0  0  0  0  0  0  0  0  0  0  0
  141.2710   78.6550  223.1110 C   0  0  0  0  0  0  0  0  0  0  0  0
  141.7790   79.7580  222.4220 C   0  0  0  0  0  0  0  0  0  0  0  0
  142.2750   80.9400  223.1830 C   0  0  0  0  0  0  0  0  0  0  0  0
  141.5470   81.1660  224.3240 F   0  0  0  0  0  0  0  0  0  0  0  0
  142.1990   82.0540  222.3740 F   0  0  0  0  0  0  0  0  0  0  0  0
  143.5830   80.6910  223.6100 F   0  0  0  0  0  0  0  0  0  0  0  0
  141.8080   79.7260  221.0480 C   0  0  0  0  0  0  0  0  0  0  0  0
  141.3400   78.6130  220.3800 C   0  0  0  0  0  0  0  0  0  0  0  0
  139.4790   70.2420  223.7760 C   0  0  0  0  0  0  0  0  0  0  0  0
  139.0670   68.9290  223.8700 C   0  0  0  0  0  0  0  0  0  0  0  0
  139.2370   68.1610  225.0050 C   0  0  0  0  0  0  0  0  0  0  0  0
  139.8570   68.7760  226.0800 C   0  0  0  0  0  0  0  0  0  0  0  0
  140.0330   68.0200  227.2200 C   0  0  0  0  0  0  0  0  0  0  0  0
  140.6550   68.6300  228.3050 C   0  0  0  0  0  0  0  0  0  0  0  0
  140.8410   67.8960  229.4520 F   0  0  0  0  0  0  0  0  0  0  0  0
  141.0710   69.9490  228.2180 C   0  0  0  0  0  0  0  0  0  0  0  0
  140.8960   70.7070  227.0780 C   0  0  0  0  0  0  0  0  0  0  0  0
  140.2790   70.1040  225.9970 C   0  0  0  0  0  0  0  0  0  0  0  0
  140.0790   70.8080  224.8440 N   0  0  0  0  0  0  0  0  0  0  0  0
  139.2220   72.9180  223.4730 H   0  0  0  0  0  0  0  0  0  0  0  0
  139.6449   72.7195  220.5564 H   0  0  0  0  0  0  0  0  0  0  0  0
  137.8928   72.8391  220.9386 H   0  0  0  0  0  0  0  0  0  0  0  0
  141.9372   75.1082  222.2624 H   0  0  0  0  0  0  0  0  0  0  0  0
  141.6872   73.6492  221.2783 H   0  0  0  0  0  0  0  0  0  0  0  0
  143.1198   76.1350  220.5827 H   0  0  0  0  0  0  0  0  0  0  0  0
  143.1176   74.6301  219.6898 H   0  0  0  0  0  0  0  0  0  0  0  0
  141.8211   76.8128  218.6844 H   0  0  0  0  0  0  0  0  0  0  0  0
  141.0599   75.2703  218.4586 H   0  0  0  0  0  0  0  0  0  0  0  0
  139.4240   76.7362  219.7774 H   0  0  0  0  0  0  0  0  0  0  0  0
  140.4208   76.7086  222.9786 H   0  0  0  0  0  0  0  0  0  0  0  0
  141.2370   78.6598  224.2105 H   0  0  0  0  0  0  0  0  0  0  0  0
  142.2025   80.5838  220.4836 H   0  0  0  0  0  0  0  0  0  0  0  0
  141.3705   78.6000  219.2805 H   0  0  0  0  0  0  0  0  0  0  0  0
  138.5787   68.4708  222.9973 H   0  0  0  0  0  0  0  0  0  0  0  0
  138.8978   67.1157  225.0528 H   0  0  0  0  0  0  0  0  0  0  0  0
  139.6945   66.9745  227.2696 H   0  0  0  0  0  0  0  0  0  0  0  0
  141.5589   70.4090  229.0900 H   0  0  0  0  0  0  0  0  0  0  0  0
  141.2348   71.7525  227.0309 H   0  0  0  0  0  0  0  0  0  0  0  0
  1  2  2  0
  2  3  1  0
  3  4  1  0
  4  5  1  0
  5  6  2  0
  5  7  1  0
  7  8  1  0
  8  9  1  0
  9 10  1  0
 10 11  1  0
 11 12  1  0
 12 13  2  0
 13 14  1  0
 14 15  2  0
 15 16  1  0
 16 17  1  0
 16 18  1  0
 16 19  1  0
 15 20  1  0
 20 21  2  0
  2 22  1  0
 22 23  2  0
 23 24  1  0
 24 25  2  0
 25 26  1  0
 26 27  2  0
 27 28  1  0
 27 29  1  0
 29 30  2  0
 30 31  1  0
 31 32  2  0
 11  7  1  0
 21 12  1  0
 32 22  1  0
 31 25  1  0
  3 33  1  0
  4 34  1  0
  4 35  1  0
  8 36  1  0
  8 37  1  0
  9 38  1  0
  9 39  1  0
 10 40  1  0
 10 41  1  0
 11 42  1  6
 13 43  1  0
 14 44  1  0
 20 45  1  0
 21 46  1  0
 23 47  1  0
 24 48  1  0
 26 49  1  0
 29 50  1  0
 30 51  1  0
M  END
>  <smiles>  (39) 
O=C(NCC(=O)N1CCCC1c1ccc(C(F)(F)F)cc1)c1ccc2cc(F)ccc2n1

>  <score_type>  (39) 
oracle

>  <origin>  (39) 
autodockgpu

>  <m_score__min__energy>  (39) 
-8.8699999999999992

>  <m_primary>  (39) 
energy

>  <rmsd>  (39) 
1.9065606365878232

>  <m_score__min__rmsd>  (39) 
1.9065606365878232

>  <meeko>  (39) 
{"free_energy": -8.14, "intermolecular_energy": -9.93, "internal_energy": -1.46, "cluster_size": 34, "cluster_id": 1, "rank_in_cluster": 25}

>  <energy>  (39) 
-8.0

>  <cluster_rmsd>  (39) 
0.9

>  <cluster>  (39) 
2

$$$$

     RDKit          3D

 51 54  0  0  0  0  0  0  0  0999 V2000
  141.3950   72.4670  221.9270 O   0  0  0  0  0  0  0  0  0  0  0  0
  140.3650   72.4940  222.6460 C   0  0  0  0  0  0  0  0  0  0  0  0
  139.3080   73.4280  222.3460 N   0  0  0  0  0  0  0  0  0  0  0  0
  139.5040   74.3000  221.2070 C   0  0  0  0  0  0  0  0  0  0  0  0
  138.2250   74.9250  220.8390 C   0  0  0  0  0  0  0  0  0  0  0  0
  137.3430   74.3600  220.1210 O   0  0  0  0  0  0  0  0  0  0  0  0
  137.9370   76.2360  221.3030 N   0  0  0  0  0  0  0  0  0  0  0  0
  137.4070   77.3460  220.5280 C   0  0  0  0  0  0  0  0  0  0  0  0
  136.7460   78.2940  221.5100 C   0  0  0  0  0  0  0  0  0  0  0  0
  136.7940   77.5160  222.8160 C   0  0  0  0  0  0  0  0  0  0  0  0
  138.1010   76.7800  222.6520 C   0  0  2  0  0  0  0  0  0  0  0  0
  139.2400   77.7040  222.7100 C   0  0  0  0  0  0  0  0  0  0  0  0
  140.4530   77.5260  222.1190 C   0  0  0  0  0  0  0  0  0  0  0  0
  141.4690   78.4400  222.2240 C   0  0  0  0  0  0  0  0  0  0  0  0
  141.2770   79.6110  222.9600 C   0  0  0  0  0  0  0  0  0  0  0  0
  142.3850   80.6030  223.0700 C   0  0  0  0  0  0  0  0  0  0  0  0
  143.6150   80.0340  222.8540 F   0  0  0  0  0  0  0  0  0  0  0  0
  142.3620   81.1570  224.3320 F   0  0  0  0  0  0  0  0  0  0  0  0
  142.2330   81.5700  222.0720 F   0  0  0  0  0  0  0  0  0  0  0  0
  140.0630   79.8210  223.5690 C   0  0  0  0  0  0  0  0  0  0  0  0
  139.0630   78.8790  223.4430 C   0  0  0  0  0  0  0  0  0  0  0  0
  140.2120   71.5950  223.7850 C   0  0  0  0  0  0  0  0  0  0  0  0
  139.5480   70.4000  223.6020 C   0  0  0  0  0  0  0  0  0  0  0  0
  139.3500   69.4810  224.6120 C   0  0  0  0  0  0  0  0  0  0  0  0
  139.8570   69.8120  225.8570 C   0  0  0  0  0  0  0  0  0  0  0  0
  139.6650   68.9020  226.8760 C   0  0  0  0  0  0  0  0  0  0  0  0
  140.1710   69.2260  228.1310 C   0  0  0  0  0  0  0  0  0  0  0  0
  139.9920   68.3350  229.1610 F   0  0  0  0  0  0  0  0  0  0  0  0
  140.8380   70.4260  228.3240 C   0  0  0  0  0  0  0  0  0  0  0  0
  141.0310   71.3380  227.3060 C   0  0  0  0  0  0  0  0  0  0  0  0
  140.5300   71.0180  226.0570 C   0  0  0  0  0  0  0  0  0  0  0  0
  140.6920   71.8840  225.0130 N   0  0  0  0  0  0  0  0  0  0  0  0
  138.4390   73.4580  222.9450 H   0  0  0  0  0  0  0  0  0  0  0  0
  140.2327   75.0823  221.4659 H   0  0  0  0  0  0  0  0  0  0  0  0
  139.8814   73.7121  220.3573 H   0  0  0  0  0  0  0  0  0  0  0  0
  138.2220   77.8595  219.9968 H   0  0  0  0  0  0  0  0  0  0  0  0
  136.6858   76.9922  219.7765 H   0  0  0  0  0  0  0  0  0  0  0  0
  137.3076   79.2365  221.5897 H   0  0  0  0  0  0  0  0  0  0  0  0
  135.7273   78.5855  221.2146 H   0  0  0  0  0  0  0  0  0  0  0  0
  136.8127   78.1869  223.6875 H   0  0  0  0  0  0  0  0  0  0  0  0
  135.9233   76.8681  222.9950 H   0  0  0  0  0  0  0  0  0  0  0  0
  138.3045   76.0297  223.4302 H   0  0  0  0  0  0  0  0  0  0  0  0
  140.6251   76.6111  221.5330 H   0  0  0  0  0  0  0  0  0  0  0  0
  142.4334   78.2515  221.7296 H   0  0  0  0  0  0  0  0  0  0  0  0
  139.8895   80.7361  224.1543 H   0  0  0  0  0  0  0  0  0  0  0  0
  138.0960   79.0593  223.9354 H   0  0  0  0  0  0  0  0  0  0  0  0
  139.1566   70.1679  222.6005 H   0  0  0  0  0  0  0  0  0  0  0  0
  138.8171   68.5347  224.4371 H   0  0  0  0  0  0  0  0  0  0  0  0
  139.1318   67.9556  226.7028 H   0  0  0  0  0  0  0  0  0  0  0  0
  141.2279   70.6600  229.3256 H   0  0  0  0  0  0  0  0  0  0  0  0
  141.5636   72.2843  227.4815 H   0  0  0  0  0  0  0  0  0  0  0  0
  1  2  2  0
  2  3  1  0
  3  4  1  0
  4  5  1  0
  5  6  2  0
  5  7  1  0
  7  8  1  0
  8  9  1  0
  9 10  1  0
 10 11  1  0
 11 12  1  0
 12 13  2  0
 13 14  1  0
 14 15  2  0
 15 16  1  0
 16 17  1  0
 16 18  1  0
 16 19  1  0
 15 20  1  0
 20 21  2  0
  2 22  1  0
 22 23  2  0
 23 24  1  0
 24 25  2  0
 25 26  1  0
 26 27  2  0
 27 28  1  0
 27 29  1  0
 29 30  2  0
 30 31  1  0
 31 32  2  0
 11  7  1  0
 21 12  1  0
 32 22  1  0
 31 25  1  0
  3 33  1  0
  4 34  1  0
  4 35  1  0
  8 36  1  0
  8 37  1  0
  9 38  1  0
  9 39  1  0
 10 40  1  0
 10 41  1  0
 11 42  1  1
 13 43  1  0
 14 44  1  0
 20 45  1  0
 21 46  1  0
 23 47  1  0
 24 48  1  0
 26 49  1  0
 29 50  1  0
 30 51  1  0
M  END
>  <smiles>  (40) 
O=C(NCC(=O)N1CCCC1c1ccc(C(F)(F)F)cc1)c1ccc2cc(F)ccc2n1

>  <score_type>  (40) 
oracle

>  <origin>  (40) 
autodockgpu

>  <m_score__min__energy>  (40) 
-8.8699999999999992

>  <m_primary>  (40) 
energy

>  <rmsd>  (40) 
3.1197642877516127

>  <m_score__min__rmsd>  (40) 
3.1197642877516127

>  <meeko>  (40) 
{"free_energy": -8.19, "intermolecular_energy": -9.98, "internal_energy": -1.29, "cluster_size": 34, "cluster_id": 1, "rank_in_cluster": 22}

>  <energy>  (40) 
-7.96

>  <cluster_rmsd>  (40) 
1.54

>  <cluster>  (40) 
2

$$$$

     RDKit          3D

 51 54  0  0  0  0  0  0  0  0999 V2000
  140.0230   71.2270  221.8590 O   0  0  0  0  0  0  0  0  0  0  0  0
  139.3380   71.3090  222.9090 C   0  0  0  0  0  0  0  0  0  0  0  0
  138.2600   72.2630  222.9860 N   0  0  0  0  0  0  0  0  0  0  0  0
  138.0260   73.0880  221.8200 C   0  0  0  0  0  0  0  0  0  0  0  0
  138.9890   74.1990  221.8000 C   0  0  0  0  0  0  0  0  0  0  0  0
  140.2350   74.0560  221.9960 O   0  0  0  0  0  0  0  0  0  0  0  0
  138.5210   75.5160  221.5490 N   0  0  0  0  0  0  0  0  0  0  0  0
  138.4040   76.1760  220.2590 C   0  0  0  0  0  0  0  0  0  0  0  0
  137.3660   77.2720  220.4180 C   0  0  0  0  0  0  0  0  0  0  0  0
  136.8130   77.0150  221.8100 C   0  0  0  0  0  0  0  0  0  0  0  0
  138.0500   76.5130  222.5120 C   0  0  2  0  0  0  0  0  0  0  0  0
  139.0370   77.5870  222.6800 C   0  0  0  0  0  0  0  0  0  0  0  0
  138.7810   78.8610  223.0830 C   0  0  0  0  0  0  0  0  0  0  0  0
  139.7620   79.8090  223.2130 C   0  0  0  0  0  0  0  0  0  0  0  0
  141.0890   79.4790  222.9280 C   0  0  0  0  0  0  0  0  0  0  0  0
  142.1530   80.5130  223.0720 C   0  0  0  0  0  0  0  0  0  0  0  0
  142.1190   81.4380  222.0580 F   0  0  0  0  0  0  0  0  0  0  0  0
  143.3830   79.8890  223.0690 F   0  0  0  0  0  0  0  0  0  0  0  0
  141.9350   81.2320  224.2500 F   0  0  0  0  0  0  0  0  0  0  0  0
  141.3810   78.2000  222.5180 C   0  0  0  0  0  0  0  0  0  0  0  0
  140.3680   77.2720  222.3980 C   0  0  0  0  0  0  0  0  0  0  0  0
  139.6110   70.4560  224.0610 C   0  0  0  0  0  0  0  0  0  0  0  0
  139.2530   69.1250  223.9990 C   0  0  0  0  0  0  0  0  0  0  0  0
  139.4660   68.2350  225.0320 C   0  0  0  0  0  0  0  0  0  0  0  0
  140.0720   68.7410  226.1700 C   0  0  0  0  0  0  0  0  0  0  0  0
  140.2900   67.8610  227.2090 C   0  0  0  0  0  0  0  0  0  0  0  0
  140.8980   68.3610  228.3570 C   0  0  0  0  0  0  0  0  0  0  0  0
  141.1260   67.5030  229.4060 F   0  0  0  0  0  0  0  0  0  0  0  0
  141.2600   69.6980  228.4280 C   0  0  0  0  0  0  0  0  0  0  0  0
  141.0420   70.5790  227.3880 C   0  0  0  0  0  0  0  0  0  0  0  0
  140.4390   70.0860  226.2450 C   0  0  0  0  0  0  0  0  0  0  0  0
  140.1990   70.9140  225.1870 N   0  0  0  0  0  0  0  0  0  0  0  0
  137.6790   72.3390  223.8650 H   0  0  0  0  0  0  0  0  0  0  0  0
  138.1490   72.4806  220.9112 H   0  0  0  0  0  0  0  0  0  0  0  0
  137.0035   73.4918  221.8577 H   0  0  0  0  0  0  0  0  0  0  0  0
  139.3715   76.6105  219.9671 H   0  0  0  0  0  0  0  0  0  0  0  0
  138.1067   75.4622  219.4766 H   0  0  0  0  0  0  0  0  0  0  0  0
  137.8287   78.2679  220.3534 H   0  0  0  0  0  0  0  0  0  0  0  0
  136.5945   77.2572  219.6341 H   0  0  0  0  0  0  0  0  0  0  0  0
  136.4310   77.9376  222.2714 H   0  0  0  0  0  0  0  0  0  0  0  0
  135.9572   76.3246  221.8418 H   0  0  0  0  0  0  0  0  0  0  0  0
  137.8751   76.1273  223.5272 H   0  0  0  0  0  0  0  0  0  0  0  0
  137.7429   79.1419  223.3142 H   0  0  0  0  0  0  0  0  0  0  0  0
  139.5051   80.8271  223.5409 H   0  0  0  0  0  0  0  0  0  0  0  0
  142.4187   77.9177  222.2865 H   0  0  0  0  0  0  0  0  0  0  0  0
  140.6161   76.2518  222.0699 H   0  0  0  0  0  0  0  0  0  0  0  0
  138.7740   68.7548  223.0805 H   0  0  0  0  0  0  0  0  0  0  0  0
  139.1698   67.1784  224.9555 H   0  0  0  0  0  0  0  0  0  0  0  0
  139.9946   66.8041  227.1335 H   0  0  0  0  0  0  0  0  0  0  0  0
  141.7381   70.0697  229.3463 H   0  0  0  0  0  0  0  0  0  0  0  0
  141.3374   71.6358  227.4655 H   0  0  0  0  0  0  0  0  0  0  0  0
  1  2  2  0
  2  3  1  0
  3  4  1  0
  4  5  1  0
  5  6  2  0
  5  7  1  0
  7  8  1  0
  8  9  1  0
  9 10  1  0
 10 11  1  0
 11 12  1  0
 12 13  2  0
 13 14  1  0
 14 15  2  0
 15 16  1  0
 16 17  1  0
 16 18  1  0
 16 19  1  0
 15 20  1  0
 20 21  2  0
  2 22  1  0
 22 23  2  0
 23 24  1  0
 24 25  2  0
 25 26  1  0
 26 27  2  0
 27 28  1  0
 27 29  1  0
 29 30  2  0
 30 31  1  0
 31 32  2  0
 11  7  1  0
 21 12  1  0
 32 22  1  0
 31 25  1  0
  3 33  1  0
  4 34  1  0
  4 35  1  0
  8 36  1  0
  8 37  1  0
  9 38  1  0
  9 39  1  0
 10 40  1  0
 10 41  1  0
 11 42  1  1
 13 43  1  0
 14 44  1  0
 20 45  1  0
 21 46  1  0
 23 47  1  0
 24 48  1  0
 26 49  1  0
 29 50  1  0
 30 51  1  0
M  END
>  <smiles>  (41) 
O=C(NCC(=O)N1CCCC1c1ccc(C(F)(F)F)cc1)c1ccc2cc(F)ccc2n1

>  <score_type>  (41) 
oracle

>  <origin>  (41) 
autodockgpu

>  <m_score__min__energy>  (41) 
-8.8699999999999992

>  <m_primary>  (41) 
energy

>  <rmsd>  (41) 
2.542807556795381

>  <m_score__min__rmsd>  (41) 
2.542807556795381

>  <meeko>  (41) 
{"free_energy": -8.56, "intermolecular_energy": -10.35, "internal_energy": -1.25, "cluster_size": 34, "cluster_id": 1, "rank_in_cluster": 6}

>  <energy>  (41) 
-7.94

>  <cluster_rmsd>  (41) 
1.3

>  <cluster>  (41) 
2

$$$$

     RDKit          3D

 51 54  0  0  0  0  0  0  0  0999 V2000
  138.9650   70.5710  221.6020 O   0  0  0  0  0  0  0  0  0  0  0  0
  139.2660   71.1360  222.6830 C   0  0  0  0  0  0  0  0  0  0  0  0
  139.3790   72.5720  222.7320 N   0  0  0  0  0  0  0  0  0  0  0  0
  139.1330   73.2940  221.5010 C   0  0  0  0  0  0  0  0  0  0  0  0
  139.9300   74.5300  221.4870 C   0  0  0  0  0  0  0  0  0  0  0  0
  141.1980   74.5540  221.5340 O   0  0  0  0  0  0  0  0  0  0  0  0
  139.2630   75.7810  221.4170 N   0  0  0  0  0  0  0  0  0  0  0  0
  138.9660   76.5540  220.2210 C   0  0  0  0  0  0  0  0  0  0  0  0
  137.7960   77.4580  220.5590 C   0  0  0  0  0  0  0  0  0  0  0  0
  137.3790   76.9710  221.9390 C   0  0  0  0  0  0  0  0  0  0  0  0
  138.7210   76.5860  222.5130 C   0  0  2  0  0  0  0  0  0  0  0  0
  139.5530   77.7700  222.7560 C   0  0  0  0  0  0  0  0  0  0  0  0
  139.1150   78.9960  223.1550 C   0  0  0  0  0  0  0  0  0  0  0  0
  139.9600   80.0550  223.3590 C   0  0  0  0  0  0  0  0  0  0  0  0
  141.3320   79.8980  223.1570 C   0  0  0  0  0  0  0  0  0  0  0  0
  142.2480   81.0530  223.3800 C   0  0  0  0  0  0  0  0  0  0  0  0
  142.1250   82.0100  222.4040 F   0  0  0  0  0  0  0  0  0  0  0  0
  143.5480   80.5930  223.3960 F   0  0  0  0  0  0  0  0  0  0  0  0
  141.9020   81.6840  224.5780 F   0  0  0  0  0  0  0  0  0  0  0  0
  141.8070   78.6720  222.7530 C   0  0  0  0  0  0  0  0  0  0  0  0
  140.9270   77.6280  222.5570 C   0  0  0  0  0  0  0  0  0  0  0  0
  139.5050   70.3660  223.9000 C   0  0  0  0  0  0  0  0  0  0  0  0
  139.1070   69.0460  223.9370 C   0  0  0  0  0  0  0  0  0  0  0  0
  139.2860   68.2310  225.0370 C   0  0  0  0  0  0  0  0  0  0  0  0
  139.8990   68.8060  226.1380 C   0  0  0  0  0  0  0  0  0  0  0  0
  140.0840   68.0030  227.2440 C   0  0  0  0  0  0  0  0  0  0  0  0
  140.6990   68.5720  228.3550 C   0  0  0  0  0  0  0  0  0  0  0  0
  140.8930   67.7910  229.4690 F   0  0  0  0  0  0  0  0  0  0  0  0
  141.1000   69.8980  228.3260 C   0  0  0  0  0  0  0  0  0  0  0  0
  140.9160   70.7030  227.2200 C   0  0  0  0  0  0  0  0  0  0  0  0
  140.3060   70.1410  226.1140 C   0  0  0  0  0  0  0  0  0  0  0  0
  140.0990   70.8920  224.9920 N   0  0  0  0  0  0  0  0  0  0  0  0
  139.6320   73.0550  223.6360 H   0  0  0  0  0  0  0  0  0  0  0  0
  139.4175   72.6651  220.6445 H   0  0  0  0  0  0  0  0  0  0  0  0
  138.0647   73.5471  221.4329 H   0  0  0  0  0  0  0  0  0  0  0  0
  139.8397   77.1576  219.9342 H   0  0  0  0  0  0  0  0  0  0  0  0
  138.7215   75.8933  219.3762 H   0  0  0  0  0  0  0  0  0  0  0  0
  138.1064   78.5129  220.5885 H   0  0  0  0  0  0  0  0  0  0  0  0
  136.9839   77.4133  219.8184 H   0  0  0  0  0  0  0  0  0  0  0  0
  136.9013   77.7705  222.5244 H   0  0  0  0  0  0  0  0  0  0  0  0
  136.6340   76.1617  221.9333 H   0  0  0  0  0  0  0  0  0  0  0  0
  138.6724   76.0702  223.4834 H   0  0  0  0  0  0  0  0  0  0  0  0
  138.0374   79.1423  223.3205 H   0  0  0  0  0  0  0  0  0  0  0  0
  139.5580   81.0268  223.6813 H   0  0  0  0  0  0  0  0  0  0  0  0
  142.8844   78.5246  222.5869 H   0  0  0  0  0  0  0  0  0  0  0  0
  141.3206   76.6530  222.2337 H   0  0  0  0  0  0  0  0  0  0  0  0
  138.6226   68.6212  223.0454 H   0  0  0  0  0  0  0  0  0  0  0  0
  138.9591   67.1807  225.0389 H   0  0  0  0  0  0  0  0  0  0  0  0
  139.7577   66.9525  227.2477 H   0  0  0  0  0  0  0  0  0  0  0  0
  141.5829   70.3249  229.2174 H   0  0  0  0  0  0  0  0  0  0  0  0
  141.2428   71.7533  227.2187 H   0  0  0  0  0  0  0  0  0  0  0  0
  1  2  2  0
  2  3  1  0
  3  4  1  0
  4  5  1  0
  5  6  2  0
  5  7  1  0
  7  8  1  0
  8  9  1  0
  9 10  1  0
 10 11  1  0
 11 12  1  0
 12 13  2  0
 13 14  1  0
 14 15  2  0
 15 16  1  0
 16 17  1  0
 16 18  1  0
 16 19  1  0
 15 20  1  0
 20 21  2  0
  2 22  1  0
 22 23  2  0
 23 24  1  0
 24 25  2  0
 25 26  1  0
 26 27  2  0
 27 28  1  0
 27 29  1  0
 29 30  2  0
 30 31  1  0
 31 32  2  0
 11  7  1  0
 21 12  1  0
 32 22  1  0
 31 25  1  0
  3 33  1  0
  4 34  1  0
  4 35  1  0
  8 36  1  0
  8 37  1  0
  9 38  1  0
  9 39  1  0
 10 40  1  0
 10 41  1  0
 11 42  1  1
 13 43  1  0
 14 44  1  0
 20 45  1  0
 21 46  1  0
 23 47  1  0
 24 48  1  0
 26 49  1  0
 29 50  1  0
 30 51  1  0
M  END
>  <smiles>  (42) 
O=C(NCC(=O)N1CCCC1c1ccc(C(F)(F)F)cc1)c1ccc2cc(F)ccc2n1

>  <score_type>  (42) 
oracle

>  <origin>  (42) 
autodockgpu

>  <m_score__min__energy>  (42) 
-8.8699999999999992

>  <m_primary>  (42) 
energy

>  <rmsd>  (42) 
2.4032878487406055

>  <m_score__min__rmsd>  (42) 
2.4032878487406055

>  <meeko>  (42) 
{"free_energy": -8.46, "intermolecular_energy": -10.25, "internal_energy": -1.48, "cluster_size": 34, "cluster_id": 1, "rank_in_cluster": 9}

>  <energy>  (42) 
-8.24

>  <cluster_rmsd>  (42) 
0.0

>  <cluster>  (42) 
3

$$$$

     RDKit          3D

 51 54  0  0  0  0  0  0  0  0999 V2000
  140.4200   71.1790  221.2480 O   0  0  0  0  0  0  0  0  0  0  0  0
  140.0650   71.7140  222.3280 C   0  0  0  0  0  0  0  0  0  0  0  0
  139.6670   73.1000  222.3420 N   0  0  0  0  0  0  0  0  0  0  0  0
  139.7020   73.8080  221.0800 C   0  0  0  0  0  0  0  0  0  0  0  0
  140.6740   74.9090  221.1580 C   0  0  0  0  0  0  0  0  0  0  0  0
  140.6140   75.8450  222.0130 O   0  0  0  0  0  0  0  0  0  0  0  0
  141.7510   74.9460  220.2330 N   0  0  0  0  0  0  0  0  0  0  0  0
  141.6630   75.0400  218.7850 C   0  0  0  0  0  0  0  0  0  0  0  0
  142.9810   75.6170  218.3000 C   0  0  0  0  0  0  0  0  0  0  0  0
  143.6810   75.9960  219.5950 C   0  0  0  0  0  0  0  0  0  0  0  0
  143.1880   74.9010  220.5080 C   0  0  2  0  0  0  0  0  0  0  0  0
  143.7540   73.6010  220.1290 C   0  0  0  0  0  0  0  0  0  0  0  0
  143.0610   72.4460  219.9330 C   0  0  0  0  0  0  0  0  0  0  0  0
  143.6670   71.2680  219.5800 C   0  0  0  0  0  0  0  0  0  0  0  0
  145.0510   71.2240  219.4060 C   0  0  0  0  0  0  0  0  0  0  0  0
  145.7060   69.9410  219.0220 C   0  0  0  0  0  0  0  0  0  0  0  0
  145.7060   69.7440  217.6640 F   0  0  0  0  0  0  0  0  0  0  0  0
  145.0350   68.9000  219.6270 F   0  0  0  0  0  0  0  0  0  0  0  0
  147.0510   69.9860  219.4000 F   0  0  0  0  0  0  0  0  0  0  0  0
  145.7810   72.3740  219.5970 C   0  0  0  0  0  0  0  0  0  0  0  0
  145.1370   73.5410  219.9520 C   0  0  0  0  0  0  0  0  0  0  0  0
  140.0460   70.9610  223.5780 C   0  0  0  0  0  0  0  0  0  0  0  0
  139.5150   69.6880  223.5750 C   0  0  0  0  0  0  0  0  0  0  0  0
  139.4490   68.8920  224.7010 C   0  0  0  0  0  0  0  0  0  0  0  0
  139.9520   69.4350  225.8720 C   0  0  0  0  0  0  0  0  0  0  0  0
  139.8920   68.6500  227.0040 C   0  0  0  0  0  0  0  0  0  0  0  0
  140.3950   69.1880  228.1850 C   0  0  0  0  0  0  0  0  0  0  0  0
  140.3460   68.4250  229.3270 F   0  0  0  0  0  0  0  0  0  0  0  0
  140.9290   70.4670  228.1970 C   0  0  0  0  0  0  0  0  0  0  0  0
  140.9900   71.2530  227.0640 C   0  0  0  0  0  0  0  0  0  0  0  0
  140.4920   70.7220  225.8880 C   0  0  0  0  0  0  0  0  0  0  0  0
  140.5260   71.4570  224.7370 N   0  0  0  0  0  0  0  0  0  0  0  0
  139.3680   73.5580  223.2460 H   0  0  0  0  0  0  0  0  0  0  0  0
  139.9982   73.1143  220.2793 H   0  0  0  0  0  0  0  0  0  0  0  0
  138.7041   74.2168  220.8630 H   0  0  0  0  0  0  0  0  0  0  0  0
  141.5039   74.0422  218.3501 H   0  0  0  0  0  0  0  0  0  0  0  0
  140.8189   75.6771  218.4822 H   0  0  0  0  0  0  0  0  0  0  0  0
  143.5602   74.8668  217.7417 H   0  0  0  0  0  0  0  0  0  0  0  0
  142.8571   76.4635  217.6086 H   0  0  0  0  0  0  0  0  0  0  0  0
  144.7754   75.9718  219.4867 H   0  0  0  0  0  0  0  0  0  0  0  0
  143.4687   77.0159  219.9480 H   0  0  0  0  0  0  0  0  0  0  0  0
  143.4590   75.0310  221.5661 H   0  0  0  0  0  0  0  0  0  0  0  0
  141.9688   72.4583  220.0633 H   0  0  0  0  0  0  0  0  0  0  0  0
  143.0638   70.3597  219.4343 H   0  0  0  0  0  0  0  0  0  0  0  0
  146.8733   72.3631  219.4673 H   0  0  0  0  0  0  0  0  0  0  0  0
  145.7327   74.4538  220.1004 H   0  0  0  0  0  0  0  0  0  0  0  0
  139.1246   69.2870  222.6280 H   0  0  0  0  0  0  0  0  0  0  0  0
  139.0196   67.8798  224.6700 H   0  0  0  0  0  0  0  0  0  0  0  0
  139.4631   67.6375  226.9748 H   0  0  0  0  0  0  0  0  0  0  0  0
  141.3182   70.8702  229.1436 H   0  0  0  0  0  0  0  0  0  0  0  0
  141.4193   72.2653  227.0952 H   0  0  0  0  0  0  0  0  0  0  0  0
  1  2  2  0
  2  3  1  0
  3  4  1  0
  4  5  1  0
  5  6  2  0
  5  7  1  0
  7  8  1  0
  8  9  1  0
  9 10  1  0
 10 11  1  0
 11 12  1  0
 12 13  2  0
 13 14  1  0
 14 15  2  0
 15 16  1  0
 16 17  1  0
 16 18  1  0
 16 19  1  0
 15 20  1  0
 20 21  2  0
  2 22  1  0
 22 23  2  0
 23 24  1  0
 24 25  2  0
 25 26  1  0
 26 27  2  0
 27 28  1  0
 27 29  1  0
 29 30  2  0
 30 31  1  0
 31 32  2  0
 11  7  1  0
 21 12  1  0
 32 22  1  0
 31 25  1  0
  3 33  1  0
  4 34  1  0
  4 35  1  0
  8 36  1  0
  8 37  1  0
  9 38  1  0
  9 39  1  0
 10 40  1  0
 10 41  1  0
 11 42  1  1
 13 43  1  0
 14 44  1  0
 20 45  1  0
 21 46  1  0
 23 47  1  0
 24 48  1  0
 26 49  1  0
 29 50  1  0
 30 51  1  0
M  END
>  <smiles>  (43) 
O=C(NCC(=O)N1CCCC1c1ccc(C(F)(F)F)cc1)c1ccc2cc(F)ccc2n1

>  <score_type>  (43) 
oracle

>  <origin>  (43) 
autodockgpu

>  <m_score__min__energy>  (43) 
-8.8699999999999992

>  <m_primary>  (43) 
energy

>  <rmsd>  (43) 
2.0311011675600197

>  <m_score__min__rmsd>  (43) 
2.0311011675600197

>  <meeko>  (43) 
{"free_energy": -7.94, "intermolecular_energy": -9.73, "internal_energy": -1.72, "cluster_size": 7, "cluster_id": 3, "rank_in_cluster": 5}

>  <energy>  (43) 
-8.22

>  <cluster_rmsd>  (43) 
0.23

>  <cluster>  (43) 
3

$$$$

     RDKit          3D

 51 54  0  0  0  0  0  0  0  0999 V2000
  141.4080   72.2160  221.8260 O   0  0  0  0  0  0  0  0  0  0  0  0
  140.4000   72.3300  222.5680 C   0  0  0  0  0  0  0  0  0  0  0  0
  139.3860   73.3030  222.2500 N   0  0  0  0  0  0  0  0  0  0  0  0
  139.5950   74.1100  221.0660 C   0  0  0  0  0  0  0  0  0  0  0  0
  140.7520   74.9940  221.2700 C   0  0  0  0  0  0  0  0  0  0  0  0
  140.9070   75.7310  222.2910 O   0  0  0  0  0  0  0  0  0  0  0  0
  141.7690   75.0400  220.2800 N   0  0  0  0  0  0  0  0  0  0  0  0
  141.5910   75.0900  218.8380 C   0  0  0  0  0  0  0  0  0  0  0  0
  142.8550   75.6950  218.2580 C   0  0  0  0  0  0  0  0  0  0  0  0
  143.6200   76.1340  219.4960 C   0  0  0  0  0  0  0  0  0  0  0  0
  143.2210   75.0490  220.4670 C   0  0  2  0  0  0  0  0  0  0  0  0
  143.8070   73.7580  220.0880 C   0  0  0  0  0  0  0  0  0  0  0  0
  143.1300   72.6660  219.6380 C   0  0  0  0  0  0  0  0  0  0  0  0
  143.7540   71.4920  219.3060 C   0  0  0  0  0  0  0  0  0  0  0  0
  145.1410   71.3850  219.4220 C   0  0  0  0  0  0  0  0  0  0  0  0
  145.8160   70.1060  219.0590 C   0  0  0  0  0  0  0  0  0  0  0  0
  146.0920   70.0270  217.7170 F   0  0  0  0  0  0  0  0  0  0  0  0
  144.9960   69.0550  219.4120 F   0  0  0  0  0  0  0  0  0  0  0  0
  147.0530   70.0440  219.7060 F   0  0  0  0  0  0  0  0  0  0  0  0
  145.8540   72.4700  219.8750 C   0  0  0  0  0  0  0  0  0  0  0  0
  145.1930   73.6350  220.2000 C   0  0  0  0  0  0  0  0  0  0  0  0
  140.2320   71.4930  223.7520 C   0  0  0  0  0  0  0  0  0  0  0  0
  139.5530   70.2990  223.6280 C   0  0  0  0  0  0  0  0  0  0  0  0
  139.3390   69.4370  224.6850 C   0  0  0  0  0  0  0  0  0  0  0  0
  139.8470   69.8250  225.9130 C   0  0  0  0  0  0  0  0  0  0  0  0
  139.6400   68.9720  226.9760 C   0  0  0  0  0  0  0  0  0  0  0  0
  140.1460   69.3550  228.2150 C   0  0  0  0  0  0  0  0  0  0  0  0
  139.9520   68.5210  229.2890 F   0  0  0  0  0  0  0  0  0  0  0  0
  140.8280   70.5550  228.3480 C   0  0  0  0  0  0  0  0  0  0  0  0
  141.0370   71.4090  227.2840 C   0  0  0  0  0  0  0  0  0  0  0  0
  140.5350   71.0320  226.0510 C   0  0  0  0  0  0  0  0  0  0  0  0
  140.7120   71.8400  224.9650 N   0  0  0  0  0  0  0  0  0  0  0  0
  138.5350   73.4060  222.8680 H   0  0  0  0  0  0  0  0  0  0  0  0
  139.7835   73.4533  220.2039 H   0  0  0  0  0  0  0  0  0  0  0  0
  138.6989   74.7189  220.8759 H   0  0  0  0  0  0  0  0  0  0  0  0
  141.4403   74.0756  218.4402 H   0  0  0  0  0  0  0  0  0  0  0  0
  140.7090   75.6907  218.5711 H   0  0  0  0  0  0  0  0  0  0  0  0
  143.4243   74.9484  217.6850 H   0  0  0  0  0  0  0  0  0  0  0  0
  142.6597   76.5170  217.5536 H   0  0  0  0  0  0  0  0  0  0  0  0
  144.7059   76.1423  219.3204 H   0  0  0  0  0  0  0  0  0  0  0  0
  143.3955   77.1563  219.8343 H   0  0  0  0  0  0  0  0  0  0  0  0
  143.5513   75.2172  221.5027 H   0  0  0  0  0  0  0  0  0  0  0  0
  142.0365   72.7286  219.5367 H   0  0  0  0  0  0  0  0  0  0  0  0
  143.1631   70.6357  218.9488 H   0  0  0  0  0  0  0  0  0  0  0  0
  146.9475   72.4085  219.9776 H   0  0  0  0  0  0  0  0  0  0  0  0
  145.7764   74.4956  220.5592 H   0  0  0  0  0  0  0  0  0  0  0  0
  139.1627   70.0197  222.6382 H   0  0  0  0  0  0  0  0  0  0  0  0
  138.7930   68.4906  224.5580 H   0  0  0  0  0  0  0  0  0  0  0  0
  139.0956   68.0245  226.8499 H   0  0  0  0  0  0  0  0  0  0  0  0
  141.2167   70.8367  229.3377 H   0  0  0  0  0  0  0  0  0  0  0  0
  141.5830   72.3553  227.4117 H   0  0  0  0  0  0  0  0  0  0  0  0
  1  2  2  0
  2  3  1  0
  3  4  1  0
  4  5  1  0
  5  6  2  0
  5  7  1  0
  7  8  1  0
  8  9  1  0
  9 10  1  0
 10 11  1  0
 11 12  1  0
 12 13  2  0
 13 14  1  0
 14 15  2  0
 15 16  1  0
 16 17  1  0
 16 18  1  0
 16 19  1  0
 15 20  1  0
 20 21  2  0
  2 22  1  0
 22 23  2  0
 23 24  1  0
 24 25  2  0
 25 26  1  0
 26 27  2  0
 27 28  1  0
 27 29  1  0
 29 30  2  0
 30 31  1  0
 31 32  2  0
 11  7  1  0
 21 12  1  0
 32 22  1  0
 31 25  1  0
  3 33  1  0
  4 34  1  0
  4 35  1  0
  8 36  1  0
  8 37  1  0
  9 38  1  0
  9 39  1  0
 10 40  1  0
 10 41  1  0
 11 42  1  1
 13 43  1  0
 14 44  1  0
 20 45  1  0
 21 46  1  0
 23 47  1  0
 24 48  1  0
 26 49  1  0
 29 50  1  0
 30 51  1  0
M  END
>  <smiles>  (44) 
O=C(NCC(=O)N1CCCC1c1ccc(C(F)(F)F)cc1)c1ccc2cc(F)ccc2n1

>  <score_type>  (44) 
oracle

>  <origin>  (44) 
autodockgpu

>  <m_score__min__energy>  (44) 
-8.8699999999999992

>  <m_primary>  (44) 
energy

>  <rmsd>  (44) 
2.0885909339266324

>  <m_score__min__rmsd>  (44) 
2.0885909339266324

>  <meeko>  (44) 
{"free_energy": -8.24, "intermolecular_energy": -10.03, "internal_energy": -1.46, "cluster_size": 7, "cluster_id": 3, "rank_in_cluster": 1}

>  <energy>  (44) 
-8.1

>  <cluster_rmsd>  (44) 
0.35

>  <cluster>  (44) 
3

$$$$

     RDKit          3D

 51 54  0  0  0  0  0  0  0  0999 V2000
  139.9700   73.5810  222.4850 O   0  0  0  0  0  0  0  0  0  0  0  0
  140.4090   72.4030  222.4830 C   0  0  0  0  0  0  0  0  0  0  0  0
  141.0750   71.8910  221.3110 N   0  0  0  0  0  0  0  0  0  0  0  0
  141.2000   72.7870  220.1800 C   0  0  0  0  0  0  0  0  0  0  0  0
  142.4470   73.5570  220.2970 C   0  0  0  0  0  0  0  0  0  0  0  0
  143.4960   73.1220  220.8630 O   0  0  0  0  0  0  0  0  0  0  0  0
  142.5040   74.8670  219.7510 N   0  0  0  0  0  0  0  0  0  0  0  0
  143.6950   75.6090  219.3690 C   0  0  0  0  0  0  0  0  0  0  0  0
  143.2600   76.6450  218.3500 C   0  0  0  0  0  0  0  0  0  0  0  0
  141.8110   76.2700  218.0820 C   0  0  0  0  0  0  0  0  0  0  0  0
  141.3970   75.7740  219.4460 C   0  0  2  0  0  0  0  0  0  0  0  0
  141.3390   76.8760  220.4150 C   0  0  0  0  0  0  0  0  0  0  0  0
  141.5010   78.1990  220.1420 C   0  0  0  0  0  0  0  0  0  0  0  0
  141.4340   79.1690  221.1080 C   0  0  0  0  0  0  0  0  0  0  0  0
  141.1880   78.8120  222.4350 C   0  0  0  0  0  0  0  0  0  0  0  0
  141.1150   79.8710  223.4820 C   0  0  0  0  0  0  0  0  0  0  0  0
  141.1190   81.1340  222.9460 F   0  0  0  0  0  0  0  0  0  0  0  0
  142.1970   79.7370  224.3250 F   0  0  0  0  0  0  0  0  0  0  0  0
  139.9020   79.7520  224.1660 F   0  0  0  0  0  0  0  0  0  0  0  0
  141.0190   77.4830  222.7440 C   0  0  0  0  0  0  0  0  0  0  0  0
  141.0940   76.5340  221.7460 C   0  0  0  0  0  0  0  0  0  0  0  0
  140.2590   71.5350  223.6470 C   0  0  0  0  0  0  0  0  0  0  0  0
  139.6120   70.3270  223.4940 C   0  0  0  0  0  0  0  0  0  0  0  0
  139.4180   69.4350  224.5290 C   0  0  0  0  0  0  0  0  0  0  0  0
  139.9120   69.8080  225.7670 C   0  0  0  0  0  0  0  0  0  0  0  0
  139.7250   68.9260  226.8100 C   0  0  0  0  0  0  0  0  0  0  0  0
  140.2190   69.2920  228.0580 C   0  0  0  0  0  0  0  0  0  0  0  0
  140.0430   68.4290  229.1130 F   0  0  0  0  0  0  0  0  0  0  0  0
  140.8690   70.5050  228.2210 C   0  0  0  0  0  0  0  0  0  0  0  0
  141.0590   71.3900  227.1780 C   0  0  0  0  0  0  0  0  0  0  0  0
  140.5690   71.0280  225.9360 C   0  0  0  0  0  0  0  0  0  0  0  0
  140.7280   71.8660  224.8690 N   0  0  0  0  0  0  0  0  0  0  0  0
  141.4460   70.9030  221.2990 H   0  0  0  0  0  0  0  0  0  0  0  0
  141.2172   72.2014  219.2490 H   0  0  0  0  0  0  0  0  0  0  0  0
  140.3440   73.4777  220.1644 H   0  0  0  0  0  0  0  0  0  0  0  0
  144.1310   76.1039  220.2493 H   0  0  0  0  0  0  0  0  0  0  0  0
  144.4587   74.9386  218.9479 H   0  0  0  0  0  0  0  0  0  0  0  0
  143.3359   77.6619  218.7624 H   0  0  0  0  0  0  0  0  0  0  0  0
  143.8823   76.6503  217.4430 H   0  0  0  0  0  0  0  0  0  0  0  0
  141.2173   77.1417  217.7697 H   0  0  0  0  0  0  0  0  0  0  0  0
  141.6690   75.5437  217.2682 H   0  0  0  0  0  0  0  0  0  0  0  0
  140.3994   75.3119  219.4817 H   0  0  0  0  0  0  0  0  0  0  0  0
  141.6938   78.5029  219.1025 H   0  0  0  0  0  0  0  0  0  0  0  0
  141.5737   80.2262  220.8383 H   0  0  0  0  0  0  0  0  0  0  0  0
  140.8248   77.1779  223.7828 H   0  0  0  0  0  0  0  0  0  0  0  0
  140.9564   75.4743  222.0071 H   0  0  0  0  0  0  0  0  0  0  0  0
  139.2313   70.0609  222.4969 H   0  0  0  0  0  0  0  0  0  0  0  0
  138.8979   68.4775  224.3780 H   0  0  0  0  0  0  0  0  0  0  0  0
  139.2045   67.9685  226.6609 H   0  0  0  0  0  0  0  0  0  0  0  0
  141.2478   70.7729  229.2184 H   0  0  0  0  0  0  0  0  0  0  0  0
  141.5804   72.3467  227.3291 H   0  0  0  0  0  0  0  0  0  0  0  0
  1  2  2  0
  2  3  1  0
  3  4  1  0
  4  5  1  0
  5  6  2  0
  5  7  1  0
  7  8  1  0
  8  9  1  0
  9 10  1  0
 10 11  1  0
 11 12  1  0
 12 13  2  0
 13 14  1  0
 14 15  2  0
 15 16  1  0
 16 17  1  0
 16 18  1  0
 16 19  1  0
 15 20  1  0
 20 21  2  0
  2 22  1  0
 22 23  2  0
 23 24  1  0
 24 25  2  0
 25 26  1  0
 26 27  2  0
 27 28  1  0
 27 29  1  0
 29 30  2  0
 30 31  1  0
 31 32  2  0
 11  7  1  0
 21 12  1  0
 32 22  1  0
 31 25  1  0
  3 33  1  0
  4 34  1  0
  4 35  1  0
  8 36  1  0
  8 37  1  0
  9 38  1  0
  9 39  1  0
 10 40  1  0
 10 41  1  0
 11 42  1  6
 13 43  1  0
 14 44  1  0
 20 45  1  0
 21 46  1  0
 23 47  1  0
 24 48  1  0
 26 49  1  0
 29 50  1  0
 30 51  1  0
M  END
>  <smiles>  (45) 
O=C(NCC(=O)N1CCCC1c1ccc(C(F)(F)F)cc1)c1ccc2cc(F)ccc2n1

>  <score_type>  (45) 
oracle

>  <origin>  (45) 
autodockgpu

>  <m_score__min__energy>  (45) 
-8.8699999999999992

>  <m_primary>  (45) 
energy

>  <rmsd>  (45) 
2.559655117287378

>  <m_score__min__rmsd>  (45) 
2.559655117287378

>  <meeko>  (45) 
{"free_energy": -8.31, "intermolecular_energy": -10.1, "internal_energy": -1.39, "cluster_size": 7, "cluster_id": 2, "rank_in_cluster": 1}

>  <energy>  (45) 
-8.0

>  <cluster_rmsd>  (45) 
0.58

>  <cluster>  (45) 
3

$$$$

     RDKit          3D

 51 54  0  0  0  0  0  0  0  0999 V2000
  138.4280   71.9620  222.3570 O   0  0  0  0  0  0  0  0  0  0  0  0
  139.5530   71.5730  222.7600 C   0  0  0  0  0  0  0  0  0  0  0  0
  140.7430   71.9690  222.0480 N   0  0  0  0  0  0  0  0  0  0  0  0
  140.5640   72.8110  220.8830 C   0  0  0  0  0  0  0  0  0  0  0  0
  140.4750   74.2180  221.3000 C   0  0  0  0  0  0  0  0  0  0  0  0
  139.7280   74.6300  222.2410 O   0  0  0  0  0  0  0  0  0  0  0  0
  141.2600   75.1900  220.6270 N   0  0  0  0  0  0  0  0  0  0  0  0
  142.7050   75.1960  220.4670 C   0  0  0  0  0  0  0  0  0  0  0  0
  143.0110   76.0470  219.2490 C   0  0  0  0  0  0  0  0  0  0  0  0
  141.6310   76.3240  218.6740 C   0  0  0  0  0  0  0  0  0  0  0  0
  140.8140   76.4040  219.9410 C   0  0  2  0  0  0  0  0  0  0  0  0
  141.1570   77.6010  220.7170 C   0  0  0  0  0  0  0  0  0  0  0  0
  141.5660   78.7980  220.2150 C   0  0  0  0  0  0  0  0  0  0  0  0
  141.8700   79.8720  221.0110 C   0  0  0  0  0  0  0  0  0  0  0  0
  141.7610   79.7600  222.3980 C   0  0  0  0  0  0  0  0  0  0  0  0
  142.0920   80.9310  223.2610 C   0  0  0  0  0  0  0  0  0  0  0  0
  142.1140   82.1070  222.5540 F   0  0  0  0  0  0  0  0  0  0  0  0
  143.3300   80.7260  223.8320 F   0  0  0  0  0  0  0  0  0  0  0  0
  141.0910   81.0840  224.2240 F   0  0  0  0  0  0  0  0  0  0  0  0
  141.3500   78.5640  222.9380 C   0  0  0  0  0  0  0  0  0  0  0  0
  141.0530   77.5050  222.1060 C   0  0  0  0  0  0  0  0  0  0  0  0
  139.6850   70.7250  223.9400 C   0  0  0  0  0  0  0  0  0  0  0  0
  139.1780   69.4430  223.8930 C   0  0  0  0  0  0  0  0  0  0  0  0
  139.2510   68.5610  224.9530 C   0  0  0  0  0  0  0  0  0  0  0  0
  139.8690   69.0240  226.1010 C   0  0  0  0  0  0  0  0  0  0  0  0
  139.9480   68.1530  227.1680 C   0  0  0  0  0  0  0  0  0  0  0  0
  140.5680   68.6100  228.3270 C   0  0  0  0  0  0  0  0  0  0  0  0
  140.6580   67.7600  229.4020 F   0  0  0  0  0  0  0  0  0  0  0  0
  141.0790   69.8980  228.3820 C   0  0  0  0  0  0  0  0  0  0  0  0
  141.0010   70.7710  227.3160 C   0  0  0  0  0  0  0  0  0  0  0  0
  140.3860   70.3200  226.1620 C   0  0  0  0  0  0  0  0  0  0  0  0
  140.2810   71.1420  225.0770 N   0  0  0  0  0  0  0  0  0  0  0  0
  141.6930   71.6470  222.3790 H   0  0  0  0  0  0  0  0  0  0  0  0
  141.4203   72.6838  220.2044 H   0  0  0  0  0  0  0  0  0  0  0  0
  139.6372   72.5245  220.3643 H   0  0  0  0  0  0  0  0  0  0  0  0
  143.1824   75.6273  221.3592 H   0  0  0  0  0  0  0  0  0  0  0  0
  143.0909   74.1738  220.3396 H   0  0  0  0  0  0  0  0  0  0  0  0
  143.5154   76.9816  219.5356 H   0  0  0  0  0  0  0  0  0  0  0  0
  143.6890   75.5565  218.5351 H   0  0  0  0  0  0  0  0  0  0  0  0
  141.6069   77.2711  218.1151 H   0  0  0  0  0  0  0  0  0  0  0  0
  141.2787   75.5757  217.9487 H   0  0  0  0  0  0  0  0  0  0  0  0
  139.7276   76.4708  219.7818 H   0  0  0  0  0  0  0  0  0  0  0  0
  141.6565   78.9085  219.1243 H   0  0  0  0  0  0  0  0  0  0  0  0
  142.1988   80.8190  220.5581 H   0  0  0  0  0  0  0  0  0  0  0  0
  141.2586   78.4525  224.0285 H   0  0  0  0  0  0  0  0  0  0  0  0
  140.7237   76.5544  222.5509 H   0  0  0  0  0  0  0  0  0  0  0  0
  138.6916   69.1067  222.9655 H   0  0  0  0  0  0  0  0  0  0  0  0
  138.8392   67.5431  224.8880 H   0  0  0  0  0  0  0  0  0  0  0  0
  139.5361   67.1350  227.1049 H   0  0  0  0  0  0  0  0  0  0  0  0
  141.5643   70.2363  229.3094 H   0  0  0  0  0  0  0  0  0  0  0  0
  141.4131   71.7888  227.3816 H   0  0  0  0  0  0  0  0  0  0  0  0
  1  2  2  0
  2  3  1  0
  3  4  1  0
  4  5  1  0
  5  6  2  0
  5  7  1  0
  7  8  1  0
  8  9  1  0
  9 10  1  0
 10 11  1  0
 11 12  1  0
 12 13  2  0
 13 14  1  0
 14 15  2  0
 15 16  1  0
 16 17  1  0
 16 18  1  0
 16 19  1  0
 15 20  1  0
 20 21  2  0
  2 22  1  0
 22 23  2  0
 23 24  1  0
 24 25  2  0
 25 26  1  0
 26 27  2  0
 27 28  1  0
 27 29  1  0
 29 30  2  0
 30 31  1  0
 31 32  2  0
 11  7  1  0
 21 12  1  0
 32 22  1  0
 31 25  1  0
  3 33  1  0
  4 34  1  0
  4 35  1  0
  8 36  1  0
  8 37  1  0
  9 38  1  0
  9 39  1  0
 10 40  1  0
 10 41  1  0
 11 42  1  6
 13 43  1  0
 14 44  1  0
 20 45  1  0
 21 46  1  0
 23 47  1  0
 24 48  1  0
 26 49  1  0
 29 50  1  0
 30 51  1  0
M  END
>  <smiles>  (46) 
O=C(NCC(=O)N1CCCC1c1ccc(C(F)(F)F)cc1)c1ccc2cc(F)ccc2n1

>  <score_type>  (46) 
oracle

>  <origin>  (46) 
autodockgpu

>  <m_score__min__energy>  (46) 
-8.8699999999999992

>  <m_primary>  (46) 
energy

>  <rmsd>  (46) 
2.153012181610158

>  <m_score__min__rmsd>  (46) 
2.153012181610158

>  <meeko>  (46) 
{"free_energy": -8.54, "intermolecular_energy": -10.33, "internal_energy": -1.3, "cluster_size": 34, "cluster_id": 1, "rank_in_cluster": 7}

>  <energy>  (46) 
-7.94

>  <cluster_rmsd>  (46) 
0.47

>  <cluster>  (46) 
3

$$$$

     RDKit          3D

 51 54  0  0  0  0  0  0  0  0999 V2000
  140.5680   71.5500  221.8630 O   0  0  0  0  0  0  0  0  0  0  0  0
  139.8100   71.7080  222.8530 C   0  0  0  0  0  0  0  0  0  0  0  0
  138.6100   72.4950  222.7160 N   0  0  0  0  0  0  0  0  0  0  0  0
  138.3450   73.0700  221.4130 C   0  0  0  0  0  0  0  0  0  0  0  0
  138.6110   74.5150  221.4490 C   0  0  0  0  0  0  0  0  0  0  0  0
  137.7390   75.3870  221.7530 O   0  0  0  0  0  0  0  0  0  0  0  0
  139.9120   74.9870  221.1290 N   0  0  0  0  0  0  0  0  0  0  0  0
  141.1800   74.4490  221.5920 C   0  0  0  0  0  0  0  0  0  0  0  0
  142.2320   74.8680  220.5820 C   0  0  0  0  0  0  0  0  0  0  0  0
  141.4040   75.4880  219.4680 C   0  0  0  0  0  0  0  0  0  0  0  0
  140.2850   76.1100  220.2680 C   0  0  2  0  0  0  0  0  0  0  0  0
  140.7710   77.2430  221.0660 C   0  0  0  0  0  0  0  0  0  0  0  0
  140.6770   77.3770  222.4170 C   0  0  0  0  0  0  0  0  0  0  0  0
  141.1560   78.4710  223.0890 C   0  0  0  0  0  0  0  0  0  0  0  0
  141.7740   79.5040  222.3820 C   0  0  0  0  0  0  0  0  0  0  0  0
  142.2950   80.6920  223.1170 C   0  0  0  0  0  0  0  0  0  0  0  0
  143.6310   80.5770  223.4110 F   0  0  0  0  0  0  0  0  0  0  0  0
  141.5870   80.8350  224.2910 F   0  0  0  0  0  0  0  0  0  0  0  0
  142.1820   81.8200  222.2980 F   0  0  0  0  0  0  0  0  0  0  0  0
  141.8860   79.4000  221.0160 C   0  0  0  0  0  0  0  0  0  0  0  0
  141.3910   78.2840  220.3730 C   0  0  0  0  0  0  0  0  0  0  0  0
  140.1190   71.1090  224.1470 C   0  0  0  0  0  0  0  0  0  0  0  0
  140.7080   71.8930  225.1170 C   0  0  0  0  0  0  0  0  0  0  0  0
  141.0410   71.4250  226.3720 C   0  0  0  0  0  0  0  0  0  0  0  0
  140.7520   70.0960  226.6320 C   0  0  0  0  0  0  0  0  0  0  0  0
  141.0790   69.6150  227.8820 C   0  0  0  0  0  0  0  0  0  0  0  0
  140.7930   68.2800  228.1530 C   0  0  0  0  0  0  0  0  0  0  0  0
  141.1110   67.7790  229.3920 F   0  0  0  0  0  0  0  0  0  0  0  0
  140.2020   67.4840  227.1830 C   0  0  0  0  0  0  0  0  0  0  0  0
  139.8740   67.9640  225.9310 C   0  0  0  0  0  0  0  0  0  0  0  0
  140.1560   69.2910  225.6590 C   0  0  0  0  0  0  0  0  0  0  0  0
  139.8530   69.8170  224.4370 N   0  0  0  0  0  0  0  0  0  0  0  0
  137.9680   72.6330  223.5420 H   0  0  0  0  0  0  0  0  0  0  0  0
  138.9968   72.5962  220.6642 H   0  0  0  0  0  0  0  0  0  0  0  0
  137.2919   72.8987  221.1452 H   0  0  0  0  0  0  0  0  0  0  0  0
  141.4243   74.8569  222.5839 H   0  0  0  0  0  0  0  0  0  0  0  0
  141.1339   73.3536  221.6808 H   0  0  0  0  0  0  0  0  0  0  0  0
  142.9263   75.6030  221.0153 H   0  0  0  0  0  0  0  0  0  0  0  0
  142.8642   74.0346  220.2416 H   0  0  0  0  0  0  0  0  0  0  0  0
  141.9750   76.2459  218.9116 H   0  0  0  0  0  0  0  0  0  0  0  0
  141.0742   74.7793  218.6941 H   0  0  0  0  0  0  0  0  0  0  0  0
  139.4631   76.5202  219.6628 H   0  0  0  0  0  0  0  0  0  0  0  0
  140.1962   76.5732  222.9939 H   0  0  0  0  0  0  0  0  0  0  0  0
  141.0538   78.5350  224.1824 H   0  0  0  0  0  0  0  0  0  0  0  0
  142.3679   80.2025  220.4383 H   0  0  0  0  0  0  0  0  0  0  0  0
  141.4881   78.2124  219.2796 H   0  0  0  0  0  0  0  0  0  0  0  0
  140.9233   72.9449  224.8782 H   0  0  0  0  0  0  0  0  0  0  0  0
  141.5112   72.0735  227.1259 H   0  0  0  0  0  0  0  0  0  0  0  0
  141.5486   70.2623  228.6373 H   0  0  0  0  0  0  0  0  0  0  0  0
  139.9868   66.4316  227.4201 H   0  0  0  0  0  0  0  0  0  0  0  0
  139.4053   67.3149  225.1767 H   0  0  0  0  0  0  0  0  0  0  0  0
  1  2  2  0
  2  3  1  0
  3  4  1  0
  4  5  1  0
  5  6  2  0
  5  7  1  0
  7  8  1  0
  8  9  1  0
  9 10  1  0
 10 11  1  0
 11 12  1  0
 12 13  2  0
 13 14  1  0
 14 15  2  0
 15 16  1  0
 16 17  1  0
 16 18  1  0
 16 19  1  0
 15 20  1  0
 20 21  2  0
  2 22  1  0
 22 23  2  0
 23 24  1  0
 24 25  2  0
 25 26  1  0
 26 27  2  0
 27 28  1  0
 27 29  1  0
 29 30  2  0
 30 31  1  0
 31 32  2  0
 11  7  1  0
 21 12  1  0
 32 22  1  0
 31 25  1  0
  3 33  1  0
  4 34  1  0
  4 35  1  0
  8 36  1  0
  8 37  1  0
  9 38  1  0
  9 39  1  0
 10 40  1  0
 10 41  1  0
 11 42  1  6
 13 43  1  0
 14 44  1  0
 20 45  1  0
 21 46  1  0
 23 47  1  0
 24 48  1  0
 26 49  1  0
 29 50  1  0
 30 51  1  0
M  END
>  <smiles>  (47) 
O=C(NCC(=O)N1CCCC1c1ccc(C(F)(F)F)cc1)c1ccc2cc(F)ccc2n1

>  <score_type>  (47) 
oracle

>  <origin>  (47) 
autodockgpu

>  <m_score__min__energy>  (47) 
-8.8699999999999992

>  <m_primary>  (47) 
energy

>  <rmsd>  (47) 
3.0279523254574117

>  <m_score__min__rmsd>  (47) 
3.0279523254574117

>  <meeko>  (47) 
{"free_energy": -8.32, "intermolecular_energy": -10.11, "internal_energy": -1.44, "cluster_size": 34, "cluster_id": 1, "rank_in_cluster": 17}

>  <energy>  (47) 
-7.8

>  <cluster_rmsd>  (47) 
0.83

>  <cluster>  (47) 
3

$$$$

     RDKit          3D

 51 54  0  0  0  0  0  0  0  0999 V2000
  138.7120   71.1170  221.2790 O   0  0  0  0  0  0  0  0  0  0  0  0
  139.0830   71.7200  222.3170 C   0  0  0  0  0  0  0  0  0  0  0  0
  139.1960   73.1570  222.3070 N   0  0  0  0  0  0  0  0  0  0  0  0
  138.8670   73.8350  221.0700 C   0  0  0  0  0  0  0  0  0  0  0  0
  139.9460   73.6300  220.0930 C   0  0  0  0  0  0  0  0  0  0  0  0
  139.9100   72.7570  219.1730 O   0  0  0  0  0  0  0  0  0  0  0  0
  141.1070   74.4450  220.1640 N   0  0  0  0  0  0  0  0  0  0  0  0
  142.3490   74.1480  220.8590 C   0  0  0  0  0  0  0  0  0  0  0  0
  143.4330   74.9790  220.1980 C   0  0  0  0  0  0  0  0  0  0  0  0
  142.7180   75.5760  218.9970 C   0  0  0  0  0  0  0  0  0  0  0  0
  141.3310   75.7620  219.5640 C   0  0  2  0  0  0  0  0  0  0  0  0
  141.3150   76.8140  220.5870 C   0  0  0  0  0  0  0  0  0  0  0  0
  140.8600   76.6900  221.8640 C   0  0  0  0  0  0  0  0  0  0  0  0
  140.8770   77.7260  222.7610 C   0  0  0  0  0  0  0  0  0  0  0  0
  141.3790   78.9710  222.3760 C   0  0  0  0  0  0  0  0  0  0  0  0
  141.3970   80.0950  223.3550 C   0  0  0  0  0  0  0  0  0  0  0  0
  142.5420   80.1080  224.1100 F   0  0  0  0  0  0  0  0  0  0  0  0
  140.3080   79.9730  224.1910 F   0  0  0  0  0  0  0  0  0  0  0  0
  141.3870   81.3060  222.6570 F   0  0  0  0  0  0  0  0  0  0  0  0
  141.8460   79.1290  221.0920 C   0  0  0  0  0  0  0  0  0  0  0  0
  141.8130   78.0640  220.2160 C   0  0  0  0  0  0  0  0  0  0  0  0
  139.4050   70.9940  223.5420 C   0  0  0  0  0  0  0  0  0  0  0  0
  139.1130   69.6480  223.6100 C   0  0  0  0  0  0  0  0  0  0  0  0
  139.3760   68.8710  224.7200 C   0  0  0  0  0  0  0  0  0  0  0  0
  139.9620   69.5110  225.7980 C   0  0  0  0  0  0  0  0  0  0  0  0
  140.2300   68.7460  226.9140 C   0  0  0  0  0  0  0  0  0  0  0  0
  140.8190   69.3820  228.0030 C   0  0  0  0  0  0  0  0  0  0  0  0
  141.0950   68.6400  229.1250 F   0  0  0  0  0  0  0  0  0  0  0  0
  141.1140   70.7360  227.9430 C   0  0  0  0  0  0  0  0  0  0  0  0
  140.8470   71.5030  226.8270 C   0  0  0  0  0  0  0  0  0  0  0  0
  140.2620   70.8740  225.7420 C   0  0  0  0  0  0  0  0  0  0  0  0
  139.9750   71.5850  224.6130 N   0  0  0  0  0  0  0  0  0  0  0  0
  139.5070   73.6720  223.1750 H   0  0  0  0  0  0  0  0  0  0  0  0
  137.9273   73.4281  220.6683 H   0  0  0  0  0  0  0  0  0  0  0  0
  138.7493   74.9114  221.2636 H   0  0  0  0  0  0  0  0  0  0  0  0
  142.2614   74.4170  221.9220 H   0  0  0  0  0  0  0  0  0  0  0  0
  142.5854   73.0752  220.8022 H   0  0  0  0  0  0  0  0  0  0  0  0
  143.7956   75.7668  220.8746 H   0  0  0  0  0  0  0  0  0  0  0  0
  144.3241   74.3940  219.9265 H   0  0  0  0  0  0  0  0  0  0  0  0
  143.1645   76.5347  218.6943 H   0  0  0  0  0  0  0  0  0  0  0  0
  142.7612   74.9605  218.0863 H   0  0  0  0  0  0  0  0  0  0  0  0
  140.5724   76.0692  218.8290 H   0  0  0  0  0  0  0  0  0  0  0  0
  140.4620   75.7176  222.1895 H   0  0  0  0  0  0  0  0  0  0  0  0
  140.4960   77.5772  223.7821 H   0  0  0  0  0  0  0  0  0  0  0  0
  142.2442   80.1008  220.7649 H   0  0  0  0  0  0  0  0  0  0  0  0
  142.1912   78.2043  219.1926 H   0  0  0  0  0  0  0  0  0  0  0  0
  138.6472   69.1696  222.7358 H   0  0  0  0  0  0  0  0  0  0  0  0
  139.1324   67.7986  224.7464 H   0  0  0  0  0  0  0  0  0  0  0  0
  139.9873   67.6735  226.9423 H   0  0  0  0  0  0  0  0  0  0  0  0
  141.5779   71.2163  228.8171 H   0  0  0  0  0  0  0  0  0  0  0  0
  141.0904   72.5754  226.8010 H   0  0  0  0  0  0  0  0  0  0  0  0
  1  2  2  0
  2  3  1  0
  3  4  1  0
  4  5  1  0
  5  6  2  0
  5  7  1  0
  7  8  1  0
  8  9  1  0
  9 10  1  0
 10 11  1  0
 11 12  1  0
 12 13  2  0
 13 14  1  0
 14 15  2  0
 15 16  1  0
 16 17  1  0
 16 18  1  0
 16 19  1  0
 15 20  1  0
 20 21  2  0
  2 22  1  0
 22 23  2  0
 23 24  1  0
 24 25  2  0
 25 26  1  0
 26 27  2  0
 27 28  1  0
 27 29  1  0
 29 30  2  0
 30 31  1  0
 31 32  2  0
 11  7  1  0
 21 12  1  0
 32 22  1  0
 31 25  1  0
  3 33  1  0
  4 34  1  0
  4 35  1  0
  8 36  1  0
  8 37  1  0
  9 38  1  0
  9 39  1  0
 10 40  1  0
 10 41  1  0
 11 42  1  6
 13 43  1  0
 14 44  1  0
 20 45  1  0
 21 46  1  0
 23 47  1  0
 24 48  1  0
 26 49  1  0
 29 50  1  0
 30 51  1  0
M  END
>  <smiles>  (48) 
O=C(NCC(=O)N1CCCC1c1ccc(C(F)(F)F)cc1)c1ccc2cc(F)ccc2n1

>  <score_type>  (48) 
oracle

>  <origin>  (48) 
autodockgpu

>  <m_score__min__energy>  (48) 
-8.8699999999999992

>  <m_primary>  (48) 
energy

>  <rmsd>  (48) 
2.148943655372044

>  <m_score__min__rmsd>  (48) 
2.148943655372044

>  <meeko>  (48) 
{"free_energy": -7.84, "intermolecular_energy": -9.63, "internal_energy": -1.61, "cluster_size": 34, "cluster_id": 1, "rank_in_cluster": 32}

>  <energy>  (48) 
-7.67

>  <cluster_rmsd>  (48) 
1.73

>  <cluster>  (48) 
3

$$$$

     RDKit          3D

 51 54  0  0  0  0  0  0  0  0999 V2000
  138.1770   70.5790  222.1400 O   0  0  0  0  0  0  0  0  0  0  0  0
  138.8930   71.0580  223.0550 C   0  0  0  0  0  0  0  0  0  0  0  0
  139.3300   72.4300  222.9760 N   0  0  0  0  0  0  0  0  0  0  0  0
  138.9070   73.1910  221.8190 C   0  0  0  0  0  0  0  0  0  0  0  0
  139.7990   74.3440  221.6330 C   0  0  0  0  0  0  0  0  0  0  0  0
  141.0650   74.2590  221.5950 O   0  0  0  0  0  0  0  0  0  0  0  0
  139.2340   75.6380  221.4850 N   0  0  0  0  0  0  0  0  0  0  0  0
  138.9990   76.3580  220.2440 C   0  0  0  0  0  0  0  0  0  0  0  0
  137.9050   77.3720  220.5230 C   0  0  0  0  0  0  0  0  0  0  0  0
  137.4520   77.0040  221.9270 C   0  0  0  0  0  0  0  0  0  0  0  0
  138.7590   76.5480  222.5290 C   0  0  2  0  0  0  0  0  0  0  0  0
  139.6830   77.6750  222.7030 C   0  0  0  0  0  0  0  0  0  0  0  0
  141.0140   77.6770  222.4210 C   0  0  0  0  0  0  0  0  0  0  0  0
  141.8110   78.7750  222.6140 C   0  0  0  0  0  0  0  0  0  0  0  0
  141.2590   79.9540  223.1200 C   0  0  0  0  0  0  0  0  0  0  0  0
  142.1300   81.1460  223.3280 C   0  0  0  0  0  0  0  0  0  0  0  0
  143.4640   80.8350  223.2530 F   0  0  0  0  0  0  0  0  0  0  0  0
  141.8630   81.6800  224.5710 F   0  0  0  0  0  0  0  0  0  0  0  0
  141.8950   82.0670  222.3030 F   0  0  0  0  0  0  0  0  0  0  0  0
  139.9170   79.9850  223.4150 C   0  0  0  0  0  0  0  0  0  0  0  0
  139.1450   78.8600  223.2080 C   0  0  0  0  0  0  0  0  0  0  0  0
  139.2960   70.2530  224.2030 C   0  0  0  0  0  0  0  0  0  0  0  0
  138.9780   68.9110  224.2160 C   0  0  0  0  0  0  0  0  0  0  0  0
  139.3120   68.0630  225.2520 C   0  0  0  0  0  0  0  0  0  0  0  0
  140.0000   68.6250  226.3130 C   0  0  0  0  0  0  0  0  0  0  0  0
  140.3400   67.7880  227.3550 C   0  0  0  0  0  0  0  0  0  0  0  0
  141.0330   68.3440  228.4270 C   0  0  0  0  0  0  0  0  0  0  0  0
  141.3810   67.5300  229.4770 F   0  0  0  0  0  0  0  0  0  0  0  0
  141.3550   69.6920  228.4230 C   0  0  0  0  0  0  0  0  0  0  0  0
  141.0170   70.5310  227.3800 C   0  0  0  0  0  0  0  0  0  0  0  0
  140.3290   69.9820  226.3130 C   0  0  0  0  0  0  0  0  0  0  0  0
  139.9680   70.7660  225.2550 N   0  0  0  0  0  0  0  0  0  0  0  0
  139.9330   72.8410  223.7390 H   0  0  0  0  0  0  0  0  0  0  0  0
  138.9458   72.5505  220.9256 H   0  0  0  0  0  0  0  0  0  0  0  0
  137.8777   73.5471  221.9729 H   0  0  0  0  0  0  0  0  0  0  0  0
  139.9180   76.8713  219.9246 H   0  0  0  0  0  0  0  0  0  0  0  0
  138.7016   75.6693  219.4395 H   0  0  0  0  0  0  0  0  0  0  0  0
  138.2990   78.3985  220.4904 H   0  0  0  0  0  0  0  0  0  0  0  0
  137.0912   77.3481  219.7833 H   0  0  0  0  0  0  0  0  0  0  0  0
  137.0403   77.8729  222.4614 H   0  0  0  0  0  0  0  0  0  0  0  0
  136.6448   76.2578  221.9666 H   0  0  0  0  0  0  0  0  0  0  0  0
  138.6704   76.0969  223.5283 H   0  0  0  0  0  0  0  0  0  0  0  0
  141.4694   76.7589  222.0214 H   0  0  0  0  0  0  0  0  0  0  0  0
  142.8828   78.7279  222.3710 H   0  0  0  0  0  0  0  0  0  0  0  0
  139.4603   80.9025  223.8144 H   0  0  0  0  0  0  0  0  0  0  0  0
  138.0723   78.8982  223.4484 H   0  0  0  0  0  0  0  0  0  0  0  0
  138.4304   68.4957  223.3571 H   0  0  0  0  0  0  0  0  0  0  0  0
  139.0453   66.9960  225.2354 H   0  0  0  0  0  0  0  0  0  0  0  0
  140.0736   66.7209  227.3398 H   0  0  0  0  0  0  0  0  0  0  0  0
  141.9001   70.1089  229.2827 H   0  0  0  0  0  0  0  0  0  0  0  0
  141.2852   71.5977  227.3969 H   0  0  0  0  0  0  0  0  0  0  0  0
  1  2  2  0
  2  3  1  0
  3  4  1  0
  4  5  1  0
  5  6  2  0
  5  7  1  0
  7  8  1  0
  8  9  1  0
  9 10  1  0
 10 11  1  0
 11 12  1  0
 12 13  2  0
 13 14  1  0
 14 15  2  0
 15 16  1  0
 16 17  1  0
 16 18  1  0
 16 19  1  0
 15 20  1  0
 20 21  2  0
  2 22  1  0
 22 23  2  0
 23 24  1  0
 24 25  2  0
 25 26  1  0
 26 27  2  0
 27 28  1  0
 27 29  1  0
 29 30  2  0
 30 31  1  0
 31 32  2  0
 11  7  1  0
 21 12  1  0
 32 22  1  0
 31 25  1  0
  3 33  1  0
  4 34  1  0
  4 35  1  0
  8 36  1  0
  8 37  1  0
  9 38  1  0
  9 39  1  0
 10 40  1  0
 10 41  1  0
 11 42  1  1
 13 43  1  0
 14 44  1  0
 20 45  1  0
 21 46  1  0
 23 47  1  0
 24 48  1  0
 26 49  1  0
 29 50  1  0
 30 51  1  0
M  END
>  <smiles>  (49) 
O=C(NCC(=O)N1CCCC1c1ccc(C(F)(F)F)cc1)c1ccc2cc(F)ccc2n1

>  <score_type>  (49) 
oracle

>  <origin>  (49) 
autodockgpu

>  <m_score__min__energy>  (49) 
-8.8699999999999992

>  <m_primary>  (49) 
energy

>  <rmsd>  (49) 
2.433941923498456

>  <m_score__min__rmsd>  (49) 
2.433941923498456

>  <meeko>  (49) 
{"free_energy": -8.23, "intermolecular_energy": -10.02, "internal_energy": -1.53, "cluster_size": 34, "cluster_id": 1, "rank_in_cluster": 19}

>  <energy>  (49) 
-7.68

>  <cluster_rmsd>  (49) 
0.0

>  <cluster>  (49) 
4

$$$$

     RDKit          3D

 51 54  0  0  0  0  0  0  0  0999 V2000
  138.8700   72.6100  221.7170 O   0  0  0  0  0  0  0  0  0  0  0  0
  139.9320   72.1730  222.2270 C   0  0  0  0  0  0  0  0  0  0  0  0
  141.1960   72.4550  221.5940 N   0  0  0  0  0  0  0  0  0  0  0  0
  141.1640   73.2430  220.3800 C   0  0  0  0  0  0  0  0  0  0  0  0
  141.4160   74.6560  220.7010 C   0  0  0  0  0  0  0  0  0  0  0  0
  142.5720   75.1790  220.7270 O   0  0  0  0  0  0  0  0  0  0  0  0
  140.3170   75.5020  221.0030 N   0  0  0  0  0  0  0  0  0  0  0  0
  139.3240   76.0190  220.0750 C   0  0  0  0  0  0  0  0  0  0  0  0
  138.0910   76.3570  220.8920 C   0  0  0  0  0  0  0  0  0  0  0  0
  138.4330   75.8060  222.2670 C   0  0  0  0  0  0  0  0  0  0  0  0
  139.9220   76.0520  222.3010 C   0  0  2  0  0  0  0  0  0  0  0  0
  140.2190   77.4880  222.3750 C   0  0  0  0  0  0  0  0  0  0  0  0
  139.4270   78.4480  222.9250 C   0  0  0  0  0  0  0  0  0  0  0  0
  139.7780   79.7720  222.9520 C   0  0  0  0  0  0  0  0  0  0  0  0
  140.9950   80.1800  222.4020 C   0  0  0  0  0  0  0  0  0  0  0  0
  141.3730   81.6220  222.4340 C   0  0  0  0  0  0  0  0  0  0  0  0
  142.1050   81.9420  223.5500 F   0  0  0  0  0  0  0  0  0  0  0  0
  140.2250   82.3840  222.4170 F   0  0  0  0  0  0  0  0  0  0  0  0
  142.2020   81.9000  221.3440 F   0  0  0  0  0  0  0  0  0  0  0  0
  141.8180   79.2350  221.8380 C   0  0  0  0  0  0  0  0  0  0  0  0
  141.4320   77.9100  221.8280 C   0  0  0  0  0  0  0  0  0  0  0  0
  139.9160   71.3820  223.4530 C   0  0  0  0  0  0  0  0  0  0  0  0
  139.2750   70.1610  223.4450 C   0  0  0  0  0  0  0  0  0  0  0  0
  139.2010   69.3370  224.5500 C   0  0  0  0  0  0  0  0  0  0  0  0
  139.8140   69.7940  225.7040 C   0  0  0  0  0  0  0  0  0  0  0  0
  139.7480   68.9800  226.8150 C   0  0  0  0  0  0  0  0  0  0  0  0
  140.3600   69.4320  227.9800 C   0  0  0  0  0  0  0  0  0  0  0  0
  140.3070   68.6380  229.1000 F   0  0  0  0  0  0  0  0  0  0  0  0
  141.0050   70.6590  227.9970 C   0  0  0  0  0  0  0  0  0  0  0  0
  141.0730   71.4750  226.8860 C   0  0  0  0  0  0  0  0  0  0  0  0
  140.4660   71.0290  225.7260 C   0  0  0  0  0  0  0  0  0  0  0  0
  140.5010   71.7960  224.5970 N   0  0  0  0  0  0  0  0  0  0  0  0
  142.0940   72.0920  222.0150 H   0  0  0  0  0  0  0  0  0  0  0  0
  141.9390   72.8811  219.6883 H   0  0  0  0  0  0  0  0  0  0  0  0
  140.1749   73.1467  219.9085 H   0  0  0  0  0  0  0  0  0  0  0  0
  139.7063   76.9217  219.5761 H   0  0  0  0  0  0  0  0  0  0  0  0
  139.0895   75.2783  219.2963 H   0  0  0  0  0  0  0  0  0  0  0  0
  137.9277   77.4441  220.9307 H   0  0  0  0  0  0  0  0  0  0  0  0
  137.1643   75.9369  220.4739 H   0  0  0  0  0  0  0  0  0  0  0  0
  137.9125   76.3554  223.0653 H   0  0  0  0  0  0  0  0  0  0  0  0
  138.1383   74.7583  222.4267 H   0  0  0  0  0  0  0  0  0  0  0  0
  140.4395   75.6099  223.1651 H   0  0  0  0  0  0  0  0  0  0  0  0
  138.4649   78.1486  223.3663 H   0  0  0  0  0  0  0  0  0  0  0  0
  139.1026   80.5121  223.4060 H   0  0  0  0  0  0  0  0  0  0  0  0
  142.7803   79.5334  221.3964 H   0  0  0  0  0  0  0  0  0  0  0  0
  142.1009   77.1634  221.3750 H   0  0  0  0  0  0  0  0  0  0  0  0
  138.7988   69.8270  222.5114 H   0  0  0  0  0  0  0  0  0  0  0  0
  138.6820   68.3678  224.5154 H   0  0  0  0  0  0  0  0  0  0  0  0
  139.2309   68.0097  226.7816 H   0  0  0  0  0  0  0  0  0  0  0  0
  141.4802   70.9947  228.9305 H   0  0  0  0  0  0  0  0  0  0  0  0
  141.5910   72.4447  226.9218 H   0  0  0  0  0  0  0  0  0  0  0  0
  1  2  2  0
  2  3  1  0
  3  4  1  0
  4  5  1  0
  5  6  2  0
  5  7  1  0
  7  8  1  0
  8  9  1  0
  9 10  1  0
 10 11  1  0
 11 12  1  0
 12 13  2  0
 13 14  1  0
 14 15  2  0
 15 16  1  0
 16 17  1  0
 16 18  1  0
 16 19  1  0
 15 20  1  0
 20 21  2  0
  2 22  1  0
 22 23  2  0
 23 24  1  0
 24 25  2  0
 25 26  1  0
 26 27  2  0
 27 28  1  0
 27 29  1  0
 29 30  2  0
 30 31  1  0
 31 32  2  0
 11  7  1  0
 21 12  1  0
 32 22  1  0
 31 25  1  0
  3 33  1  0
  4 34  1  0
  4 35  1  0
  8 36  1  0
  8 37  1  0
  9 38  1  0
  9 39  1  0
 10 40  1  0
 10 41  1  0
 11 42  1  1
 13 43  1  0
 14 44  1  0
 20 45  1  0
 21 46  1  0
 23 47  1  0
 24 48  1  0
 26 49  1  0
 29 50  1  0
 30 51  1  0
M  END
>  <smiles>  (50) 
O=C(NCC(=O)N1CCCC1c1ccc(C(F)(F)F)cc1)c1ccc2cc(F)ccc2n1

>  <score_type>  (50) 
oracle

>  <origin>  (50) 
autodockgpu

>  <m_score__min__energy>  (50) 
-8.8699999999999992

>  <m_primary>  (50) 
energy

>  <rmsd>  (50) 
2.56684902502114

>  <m_score__min__rmsd>  (50) 
2.56684902502114

>  <meeko>  (50) 
{"free_energy": -7.44, "intermolecular_energy": -9.23, "internal_energy": -1.66, "cluster_size": 34, "cluster_id": 1, "rank_in_cluster": 34}

>  <energy>  (50) 
-7.67

>  <cluster_rmsd>  (50) 
0.33

>  <cluster>  (50) 
4

$$$$

     RDKit          3D

 51 54  0  0  0  0  0  0  0  0999 V2000
  139.7800   70.7040  221.3080 O   0  0  0  0  0  0  0  0  0  0  0  0
  139.4480   71.4090  222.2950 C   0  0  0  0  0  0  0  0  0  0  0  0
  138.6630   72.5730  222.1600 N   0  0  0  0  0  0  0  0  0  0  0  0
  138.2060   72.9990  220.8570 C   0  0  0  0  0  0  0  0  0  0  0  0
  139.1470   74.0030  220.2740 C   0  0  0  0  0  0  0  0  0  0  0  0
  139.6840   73.6880  219.1790 O   0  0  0  0  0  0  0  0  0  0  0  0
  139.3890   75.2210  220.9510 N   0  0  0  0  0  0  0  0  0  0  0  0
  138.4320   75.9260  221.8130 C   0  0  0  0  0  0  0  0  0  0  0  0
  139.2550   76.8030  222.7120 C   0  0  0  0  0  0  0  0  0  0  0  0
  140.6810   76.6650  222.2760 C   0  0  0  0  0  0  0  0  0  0  0  0
  140.5950   75.9880  220.9250 C   0  0  1  0  0  0  0  0  0  0  0  0
  141.8200   75.1460  220.6790 C   0  0  0  0  0  0  0  0  0  0  0  0
  142.8920   75.6540  219.9570 C   0  0  0  0  0  0  0  0  0  0  0  0
  144.0330   74.9200  219.7090 C   0  0  0  0  0  0  0  0  0  0  0  0
  144.1300   73.6280  220.1870 C   0  0  0  0  0  0  0  0  0  0  0  0
  145.3540   72.8270  219.9260 C   0  0  0  0  0  0  0  0  0  0  0  0
  146.3060   72.9940  220.9160 F   0  0  0  0  0  0  0  0  0  0  0  0
  145.9510   73.1330  218.7160 F   0  0  0  0  0  0  0  0  0  0  0  0
  145.0340   71.4850  219.8940 F   0  0  0  0  0  0  0  0  0  0  0  0
  143.0710   73.1080  220.9080 C   0  0  0  0  0  0  0  0  0  0  0  0
  141.9160   73.8520  221.1590 C   0  0  0  0  0  0  0  0  0  0  0  0
  139.8830   71.0260  223.6490 C   0  0  0  0  0  0  0  0  0  0  0  0
  140.6480   71.8860  224.4130 C   0  0  0  0  0  0  0  0  0  0  0  0
  141.0600   71.5250  225.6960 C   0  0  0  0  0  0  0  0  0  0  0  0
  140.7040   70.3010  226.2090 C   0  0  0  0  0  0  0  0  0  0  0  0
  141.0640   69.8600  227.4620 C   0  0  0  0  0  0  0  0  0  0  0  0
  140.6580   68.6050  227.9000 C   0  0  0  0  0  0  0  0  0  0  0  0
  140.9950   68.1400  229.1290 F   0  0  0  0  0  0  0  0  0  0  0  0
  139.8910   67.7630  227.1150 C   0  0  0  0  0  0  0  0  0  0  0  0
  139.5360   68.2170  225.8570 C   0  0  0  0  0  0  0  0  0  0  0  0
  139.9400   69.4610  225.4260 C   0  0  0  0  0  0  0  0  0  0  0  0
  139.5510   69.8300  224.1880 N   0  0  0  0  0  0  0  0  0  0  0  0
  138.4070   73.1310  222.9990 H   0  0  0  0  0  0  0  0  0  0  0  0
  138.1495   72.1260  220.1901 H   0  0  0  0  0  0  0  0  0  0  0  0
  137.2134   73.4612  220.9620 H   0  0  0  0  0  0  0  0  0  0  0  0
  137.7476   76.5363  221.2055 H   0  0  0  0  0  0  0  0  0  0  0  0
  137.8148   75.2222  222.3907 H   0  0  0  0  0  0  0  0  0  0  0  0
  138.9311   77.8500  222.6175 H   0  0  0  0  0  0  0  0  0  0  0  0
  139.1367   76.5058  223.7645 H   0  0  0  0  0  0  0  0  0  0  0  0
  141.1587   77.6519  222.1876 H   0  0  0  0  0  0  0  0  0  0  0  0
  141.2868   76.0936  222.9947 H   0  0  0  0  0  0  0  0  0  0  0  0
  140.5659   76.7083  220.0942 H   0  0  0  0  0  0  0  0  0  0  0  0
  142.8287   76.6810  219.5681 H   0  0  0  0  0  0  0  0  0  0  0  0
  144.8606   75.3610  219.1340 H   0  0  0  0  0  0  0  0  0  0  0  0
  143.1401   72.0804  221.2944 H   0  0  0  0  0  0  0  0  0  0  0  0
  141.0882   73.4121  221.7345 H   0  0  0  0  0  0  0  0  0  0  0  0
  140.9355   72.8663  224.0051 H   0  0  0  0  0  0  0  0  0  0  0  0
  141.6682   72.2184  226.2954 H   0  0  0  0  0  0  0  0  0  0  0  0
  141.6730   70.5007  228.1167 H   0  0  0  0  0  0  0  0  0  0  0  0
  139.5761   66.7728  227.4761 H   0  0  0  0  0  0  0  0  0  0  0  0
  138.9276   67.5807  225.1975 H   0  0  0  0  0  0  0  0  0  0  0  0
  1  2  2  0
  2  3  1  0
  3  4  1  0
  4  5  1  0
  5  6  2  0
  5  7  1  0
  7  8  1  0
  8  9  1  0
  9 10  1  0
 10 11  1  0
 11 12  1  0
 12 13  2  0
 13 14  1  0
 14 15  2  0
 15 16  1  0
 16 17  1  0
 16 18  1  0
 16 19  1  0
 15 20  1  0
 20 21  2  0
  2 22  1  0
 22 23  2  0
 23 24  1  0
 24 25  2  0
 25 26  1  0
 26 27  2  0
 27 28  1  0
 27 29  1  0
 29 30  2  0
 30 31  1  0
 31 32  2  0
 11  7  1  0
 21 12  1  0
 32 22  1  0
 31 25  1  0
  3 33  1  0
  4 34  1  0
  4 35  1  0
  8 36  1  0
  8 37  1  0
  9 38  1  0
  9 39  1  0
 10 40  1  0
 10 41  1  0
 11 42  1  6
 13 43  1  0
 14 44  1  0
 20 45  1  0
 21 46  1  0
 23 47  1  0
 24 48  1  0
 26 49  1  0
 29 50  1  0
 30 51  1  0
M  END
>  <smiles>  (51) 
O=C(NCC(=O)N1CCCC1c1ccc(C(F)(F)F)cc1)c1ccc2cc(F)ccc2n1

>  <score_type>  (51) 
oracle

>  <origin>  (51) 
autodockgpu

>  <m_score__min__energy>  (51) 
-8.2899999999999991

>  <m_primary>  (51) 
energy

>  <rmsd>  (51) 
3.191932064625829

>  <m_score__min__rmsd>  (51) 
3.191932064625829

>  <meeko>  (51) 
{"free_energy": -7.7, "intermolecular_energy": -9.49, "internal_energy": -1.63, "cluster_size": 7, "cluster_id": 4, "rank_in_cluster": 2}

>  <energy>  (51) 
-8.29

>  <cluster_rmsd>  (51) 
0.0

>  <cluster>  (51) 
1

$$$$

     RDKit          3D

 51 54  0  0  0  0  0  0  0  0999 V2000
  141.0740   71.8640  221.1900 O   0  0  0  0  0  0  0  0  0  0  0  0
  140.4880   72.3450  222.1930 C   0  0  0  0  0  0  0  0  0  0  0  0
  140.0520   73.6850  222.2410 N   0  0  0  0  0  0  0  0  0  0  0  0
  140.2690   74.5640  221.1150 C   0  0  0  0  0  0  0  0  0  0  0  0
  140.6620   75.9280  221.5820 C   0  0  0  0  0  0  0  0  0  0  0  0
  140.2650   76.2560  222.7310 O   0  0  0  0  0  0  0  0  0  0  0  0
  141.4360   76.7650  220.7440 N   0  0  0  0  0  0  0  0  0  0  0  0
  142.0630   76.3660  219.4780 C   0  0  0  0  0  0  0  0  0  0  0  0
  142.2770   77.6370  218.7060 C   0  0  0  0  0  0  0  0  0  0  0  0
  141.8630   78.7680  219.5960 C   0  0  0  0  0  0  0  0  0  0  0  0
  141.7520   78.1410  220.9700 C   0  0  1  0  0  0  0  0  0  0  0  0
  140.7100   78.8560  221.7920 C   0  0  0  0  0  0  0  0  0  0  0  0
  139.4350   79.0680  221.2840 C   0  0  0  0  0  0  0  0  0  0  0  0
  138.4510   79.7160  222.0010 C   0  0  0  0  0  0  0  0  0  0  0  0
  138.7270   80.1800  223.2730 C   0  0  0  0  0  0  0  0  0  0  0  0
  137.6740   80.8800  224.0550 C   0  0  0  0  0  0  0  0  0  0  0  0
  138.1090   81.2200  225.3230 F   0  0  0  0  0  0  0  0  0  0  0  0
  136.5190   80.1310  224.1950 F   0  0  0  0  0  0  0  0  0  0  0  0
  137.3240   82.0520  223.4180 F   0  0  0  0  0  0  0  0  0  0  0  0
  139.9920   79.9750  223.7910 C   0  0  0  0  0  0  0  0  0  0  0  0
  140.9880   79.3190  223.0650 C   0  0  0  0  0  0  0  0  0  0  0  0
  140.2380   71.4980  223.3720 C   0  0  0  0  0  0  0  0  0  0  0  0
  139.5700   70.2950  223.2470 C   0  0  0  0  0  0  0  0  0  0  0  0
  139.3320   69.4920  224.3620 C   0  0  0  0  0  0  0  0  0  0  0  0
  139.7660   69.8980  225.6010 C   0  0  0  0  0  0  0  0  0  0  0  0
  139.5770   69.1730  226.7560 C   0  0  0  0  0  0  0  0  0  0  0  0
  140.0500   69.6610  227.9690 C   0  0  0  0  0  0  0  0  0  0  0  0
  139.8810   68.9720  229.1240 F   0  0  0  0  0  0  0  0  0  0  0  0
  140.7170   70.8690  228.0660 C   0  0  0  0  0  0  0  0  0  0  0  0
  140.9000   71.5890  226.8990 C   0  0  0  0  0  0  0  0  0  0  0  0
  140.4300   71.1030  225.6990 C   0  0  0  0  0  0  0  0  0  0  0  0
  140.6500   71.8650  224.6080 N   0  0  0  0  0  0  0  0  0  0  0  0
  139.5710   74.0490  223.0870 H   0  0  0  0  0  0  0  0  0  0  0  0
  141.0709   74.1526  220.4843 H   0  0  0  0  0  0  0  0  0  0  0  0
  139.3347   74.6412  220.5396 H   0  0  0  0  0  0  0  0  0  0  0  0
  143.0248   75.8671  219.6679 H   0  0  0  0  0  0  0  0  0  0  0  0
  141.4331   75.6565  218.9213 H   0  0  0  0  0  0  0  0  0  0  0  0
  143.3380   77.7394  218.4345 H   0  0  0  0  0  0  0  0  0  0  0  0
  141.6883   77.6344  217.7768 H   0  0  0  0  0  0  0  0  0  0  0  0
  142.6210   79.5651  219.5914 H   0  0  0  0  0  0  0  0  0  0  0  0
  140.9226   79.2366  219.2705 H   0  0  0  0  0  0  0  0  0  0  0  0
  142.6843   78.2233  221.5480 H   0  0  0  0  0  0  0  0  0  0  0  0
  139.2012   78.7056  220.2721 H   0  0  0  0  0  0  0  0  0  0  0  0
  137.4527   79.8625  221.5630 H   0  0  0  0  0  0  0  0  0  0  0  0
  140.2204   80.3389  224.8036 H   0  0  0  0  0  0  0  0  0  0  0  0
  141.9865   79.1716  223.5024 H   0  0  0  0  0  0  0  0  0  0  0  0
  139.2219   69.9669  222.2565 H   0  0  0  0  0  0  0  0  0  0  0  0
  138.7985   68.5366  224.2501 H   0  0  0  0  0  0  0  0  0  0  0  0
  139.0516   68.2073  226.7192 H   0  0  0  0  0  0  0  0  0  0  0  0
  141.0870   71.2421  229.0323 H   0  0  0  0  0  0  0  0  0  0  0  0
  141.4241   72.5556  226.9296 H   0  0  0  0  0  0  0  0  0  0  0  0
  1  2  2  0
  2  3  1  0
  3  4  1  0
  4  5  1  0
  5  6  2  0
  5  7  1  0
  7  8  1  0
  8  9  1  0
  9 10  1  0
 10 11  1  0
 11 12  1  0
 12 13  2  0
 13 14  1  0
 14 15  2  0
 15 16  1  0
 16 17  1  0
 16 18  1  0
 16 19  1  0
 15 20  1  0
 20 21  2  0
  2 22  1  0
 22 23  2  0
 23 24  1  0
 24 25  2  0
 25 26  1  0
 26 27  2  0
 27 28  1  0
 27 29  1  0
 29 30  2  0
 30 31  1  0
 31 32  2  0
 11  7  1  0
 21 12  1  0
 32 22  1  0
 31 25  1  0
  3 33  1  0
  4 34  1  0
  4 35  1  0
  8 36  1  0
  8 37  1  0
  9 38  1  0
  9 39  1  0
 10 40  1  0
 10 41  1  0
 11 42  1  1
 13 43  1  0
 14 44  1  0
 20 45  1  0
 21 46  1  0
 23 47  1  0
 24 48  1  0
 26 49  1  0
 29 50  1  0
 30 51  1  0
M  END
>  <smiles>  (52) 
O=C(NCC(=O)N1CCCC1c1ccc(C(F)(F)F)cc1)c1ccc2cc(F)ccc2n1

>  <score_type>  (52) 
oracle

>  <origin>  (52) 
autodockgpu

>  <m_score__min__energy>  (52) 
-8.2899999999999991

>  <m_primary>  (52) 
energy

>  <rmsd>  (52) 
2.0516593092980746

>  <m_score__min__rmsd>  (52) 
2.0516593092980746

>  <meeko>  (52) 
{"free_energy": -8.21, "intermolecular_energy": -10.0, "internal_energy": -1.76, "cluster_size": 28, "cluster_id": 1, "rank_in_cluster": 11}

>  <energy>  (52) 
-8.26

>  <cluster_rmsd>  (52) 
0.45

>  <cluster>  (52) 
1

$$$$

     RDKit          3D

 51 54  0  0  0  0  0  0  0  0999 V2000
  140.9990   71.7460  221.1660 O   0  0  0  0  0  0  0  0  0  0  0  0
  140.4450   72.2280  222.1860 C   0  0  0  0  0  0  0  0  0  0  0  0
  140.0270   73.5740  222.2520 N   0  0  0  0  0  0  0  0  0  0  0  0
  140.2260   74.4560  221.1250 C   0  0  0  0  0  0  0  0  0  0  0  0
  140.5840   75.8300  221.5920 C   0  0  0  0  0  0  0  0  0  0  0  0
  140.1310   76.1690  222.7170 O   0  0  0  0  0  0  0  0  0  0  0  0
  141.3870   76.6650  220.7800 N   0  0  0  0  0  0  0  0  0  0  0  0
  142.0270   76.2730  219.5170 C   0  0  0  0  0  0  0  0  0  0  0  0
  142.2780   77.5500  218.7690 C   0  0  0  0  0  0  0  0  0  0  0  0
  141.8710   78.6760  219.6690 C   0  0  0  0  0  0  0  0  0  0  0  0
  141.7250   78.0310  221.0310 C   0  0  1  0  0  0  0  0  0  0  0  0
  140.6840   78.7530  221.8470 C   0  0  0  0  0  0  0  0  0  0  0  0
  139.4140   78.9760  221.3320 C   0  0  0  0  0  0  0  0  0  0  0  0
  138.4310   79.6300  222.0440 C   0  0  0  0  0  0  0  0  0  0  0  0
  138.7020   80.0920  223.3170 C   0  0  0  0  0  0  0  0  0  0  0  0
  137.6500   80.7990  224.0930 C   0  0  0  0  0  0  0  0  0  0  0  0
  136.4550   80.1040  224.1000 F   0  0  0  0  0  0  0  0  0  0  0  0
  137.3920   82.0710  223.6160 F   0  0  0  0  0  0  0  0  0  0  0  0
  138.0510   80.9310  225.4060 F   0  0  0  0  0  0  0  0  0  0  0  0
  139.9620   79.8770  223.8430 C   0  0  0  0  0  0  0  0  0  0  0  0
  140.9580   79.2140  223.1220 C   0  0  0  0  0  0  0  0  0  0  0  0
  140.2140   71.3790  223.3670 C   0  0  0  0  0  0  0  0  0  0  0  0
  139.5540   70.1710  223.2480 C   0  0  0  0  0  0  0  0  0  0  0  0
  139.3350   69.3650  224.3640 C   0  0  0  0  0  0  0  0  0  0  0  0
  139.7780   69.7720  225.5990 C   0  0  0  0  0  0  0  0  0  0  0  0
  139.6070   69.0450  226.7550 C   0  0  0  0  0  0  0  0  0  0  0  0
  140.0900   69.5350  227.9630 C   0  0  0  0  0  0  0  0  0  0  0  0
  139.9390   68.8430  229.1190 F   0  0  0  0  0  0  0  0  0  0  0  0
  140.7480   70.7480  228.0550 C   0  0  0  0  0  0  0  0  0  0  0  0
  140.9130   71.4710  226.8870 C   0  0  0  0  0  0  0  0  0  0  0  0
  140.4340   70.9820  225.6910 C   0  0  0  0  0  0  0  0  0  0  0  0
  140.6360   71.7470  224.5980 N   0  0  0  0  0  0  0  0  0  0  0  0
  139.5720   73.9390  223.1120 H   0  0  0  0  0  0  0  0  0  0  0  0
  141.0398   74.0635  220.4975 H   0  0  0  0  0  0  0  0  0  0  0  0
  139.2923   74.5092  220.5459 H   0  0  0  0  0  0  0  0  0  0  0  0
  142.9757   75.7524  219.7143 H   0  0  0  0  0  0  0  0  0  0  0  0
  141.3924   75.5848  218.9394 H   0  0  0  0  0  0  0  0  0  0  0  0
  143.3452   77.6358  218.5167 H   0  0  0  0  0  0  0  0  0  0  0  0
  141.7047   77.5727  217.8305 H   0  0  0  0  0  0  0  0  0  0  0  0
  142.6442   79.4581  219.6889 H   0  0  0  0  0  0  0  0  0  0  0  0
  140.9455   79.1679  219.3351 H   0  0  0  0  0  0  0  0  0  0  0  0
  142.6493   78.0872  221.6247 H   0  0  0  0  0  0  0  0  0  0  0  0
  139.1835   78.6175  220.3179 H   0  0  0  0  0  0  0  0  0  0  0  0
  137.4361   79.7830  221.6005 H   0  0  0  0  0  0  0  0  0  0  0  0
  140.1867   80.2380  224.8575 H   0  0  0  0  0  0  0  0  0  0  0  0
  141.9529   79.0597  223.5650 H   0  0  0  0  0  0  0  0  0  0  0  0
  139.1972   69.8415  222.2610 H   0  0  0  0  0  0  0  0  0  0  0  0
  138.8086   68.4052  224.2560 H   0  0  0  0  0  0  0  0  0  0  0  0
  139.0879   68.0757  226.7231 H   0  0  0  0  0  0  0  0  0  0  0  0
  141.1250   71.1228  229.0180 H   0  0  0  0  0  0  0  0  0  0  0  0
  141.4295   72.4418  226.9132 H   0  0  0  0  0  0  0  0  0  0  0  0
  1  2  2  0
  2  3  1  0
  3  4  1  0
  4  5  1  0
  5  6  2  0
  5  7  1  0
  7  8  1  0
  8  9  1  0
  9 10  1  0
 10 11  1  0
 11 12  1  0
 12 13  2  0
 13 14  1  0
 14 15  2  0
 15 16  1  0
 16 17  1  0
 16 18  1  0
 16 19  1  0
 15 20  1  0
 20 21  2  0
  2 22  1  0
 22 23  2  0
 23 24  1  0
 24 25  2  0
 25 26  1  0
 26 27  2  0
 27 28  1  0
 27 29  1  0
 29 30  2  0
 30 31  1  0
 31 32  2  0
 11  7  1  0
 21 12  1  0
 32 22  1  0
 31 25  1  0
  3 33  1  0
  4 34  1  0
  4 35  1  0
  8 36  1  0
  8 37  1  0
  9 38  1  0
  9 39  1  0
 10 40  1  0
 10 41  1  0
 11 42  1  1
 13 43  1  0
 14 44  1  0
 20 45  1  0
 21 46  1  0
 23 47  1  0
 24 48  1  0
 26 49  1  0
 29 50  1  0
 30 51  1  0
M  END
>  <smiles>  (53) 
O=C(NCC(=O)N1CCCC1c1ccc(C(F)(F)F)cc1)c1ccc2cc(F)ccc2n1

>  <score_type>  (53) 
oracle

>  <origin>  (53) 
autodockgpu

>  <m_score__min__energy>  (53) 
-8.2899999999999991

>  <m_primary>  (53) 
energy

>  <rmsd>  (53) 
1.994265300306393

>  <m_score__min__rmsd>  (53) 
1.994265300306393

>  <meeko>  (53) 
{"free_energy": -8.23, "intermolecular_energy": -10.02, "internal_energy": -1.76, "cluster_size": 28, "cluster_id": 1, "rank_in_cluster": 3}

>  <energy>  (53) 
-8.23

>  <cluster_rmsd>  (53) 
0.43

>  <cluster>  (53) 
1

$$$$

     RDKit          3D

 51 54  0  0  0  0  0  0  0  0999 V2000
  140.9890   71.7880  221.1860 O   0  0  0  0  0  0  0  0  0  0  0  0
  140.4370   72.2740  222.2050 C   0  0  0  0  0  0  0  0  0  0  0  0
  140.0230   73.6210  222.2690 N   0  0  0  0  0  0  0  0  0  0  0  0
  140.2250   74.5010  221.1410 C   0  0  0  0  0  0  0  0  0  0  0  0
  140.6100   75.8690  221.6040 C   0  0  0  0  0  0  0  0  0  0  0  0
  140.2030   76.2010  222.7490 O   0  0  0  0  0  0  0  0  0  0  0  0
  141.3870   76.7050  220.7680 N   0  0  0  0  0  0  0  0  0  0  0  0
  142.0090   76.3070  219.4990 C   0  0  0  0  0  0  0  0  0  0  0  0
  142.2290   77.5790  218.7320 C   0  0  0  0  0  0  0  0  0  0  0  0
  141.8230   78.7090  219.6270 C   0  0  0  0  0  0  0  0  0  0  0  0
  141.7110   78.0780  220.9990 C   0  0  1  0  0  0  0  0  0  0  0  0
  140.6750   78.7950  221.8250 C   0  0  0  0  0  0  0  0  0  0  0  0
  139.4230   79.0790  221.2960 C   0  0  0  0  0  0  0  0  0  0  0  0
  138.4450   79.7320  222.0160 C   0  0  0  0  0  0  0  0  0  0  0  0
  138.7030   80.1280  223.3130 C   0  0  0  0  0  0  0  0  0  0  0  0
  137.6570   80.8330  224.0990 C   0  0  0  0  0  0  0  0  0  0  0  0
  138.0440   81.0400  225.4110 F   0  0  0  0  0  0  0  0  0  0  0  0
  136.4510   80.1560  224.1210 F   0  0  0  0  0  0  0  0  0  0  0  0
  137.4170   82.0740  223.5460 F   0  0  0  0  0  0  0  0  0  0  0  0
  139.9450   79.8530  223.8540 C   0  0  0  0  0  0  0  0  0  0  0  0
  140.9350   79.1910  223.1240 C   0  0  0  0  0  0  0  0  0  0  0  0
  140.2040   71.4270  223.3870 C   0  0  0  0  0  0  0  0  0  0  0  0
  139.5660   70.2070  223.2650 C   0  0  0  0  0  0  0  0  0  0  0  0
  139.3450   69.4040  224.3830 C   0  0  0  0  0  0  0  0  0  0  0  0
  139.7640   69.8260  225.6220 C   0  0  0  0  0  0  0  0  0  0  0  0
  139.5890   69.1010  226.7790 C   0  0  0  0  0  0  0  0  0  0  0  0
  140.0460   69.6070  227.9910 C   0  0  0  0  0  0  0  0  0  0  0  0
  139.8900   68.9180  229.1490 F   0  0  0  0  0  0  0  0  0  0  0  0
  140.6820   70.8310  228.0860 C   0  0  0  0  0  0  0  0  0  0  0  0
  140.8510   71.5500  226.9160 C   0  0  0  0  0  0  0  0  0  0  0  0
  140.3970   71.0470  225.7160 C   0  0  0  0  0  0  0  0  0  0  0  0
  140.6020   71.8090  224.6220 N   0  0  0  0  0  0  0  0  0  0  0  0
  139.5690   73.9890  223.1280 H   0  0  0  0  0  0  0  0  0  0  0  0
  141.0259   74.0957  220.5051 H   0  0  0  0  0  0  0  0  0  0  0  0
  139.2860   74.5701  220.5722 H   0  0  0  0  0  0  0  0  0  0  0  0
  142.9681   75.8015  219.6849 H   0  0  0  0  0  0  0  0  0  0  0  0
  141.3737   75.6035  218.9409 H   0  0  0  0  0  0  0  0  0  0  0  0
  143.2902   77.6763  218.4592 H   0  0  0  0  0  0  0  0  0  0  0  0
  141.6388   77.5834  217.8037 H   0  0  0  0  0  0  0  0  0  0  0  0
  142.5855   79.5019  219.6238 H   0  0  0  0  0  0  0  0  0  0  0  0
  140.8845   79.1838  219.3049 H   0  0  0  0  0  0  0  0  0  0  0  0
  142.6445   78.1534  221.5759 H   0  0  0  0  0  0  0  0  0  0  0  0
  139.2030   78.7713  220.2631 H   0  0  0  0  0  0  0  0  0  0  0  0
  137.4652   79.9361  221.5596 H   0  0  0  0  0  0  0  0  0  0  0  0
  140.1595   80.1638  224.8871 H   0  0  0  0  0  0  0  0  0  0  0  0
  141.9150   78.9861  223.5796 H   0  0  0  0  0  0  0  0  0  0  0  0
  139.2289   69.8659  222.2750 H   0  0  0  0  0  0  0  0  0  0  0  0
  138.8364   68.4348  224.2737 H   0  0  0  0  0  0  0  0  0  0  0  0
  139.0881   68.1223  226.7449 H   0  0  0  0  0  0  0  0  0  0  0  0
  141.0390   71.2173  229.0521 H   0  0  0  0  0  0  0  0  0  0  0  0
  141.3509   72.5294  226.9439 H   0  0  0  0  0  0  0  0  0  0  0  0
  1  2  2  0
  2  3  1  0
  3  4  1  0
  4  5  1  0
  5  6  2  0
  5  7  1  0
  7  8  1  0
  8  9  1  0
  9 10  1  0
 10 11  1  0
 11 12  1  0
 12 13  2  0
 13 14  1  0
 14 15  2  0
 15 16  1  0
 16 17  1  0
 16 18  1  0
 16 19  1  0
 15 20  1  0
 20 21  2  0
  2 22  1  0
 22 23  2  0
 23 24  1  0
 24 25  2  0
 25 26  1  0
 26 27  2  0
 27 28  1  0
 27 29  1  0
 29 30  2  0
 30 31  1  0
 31 32  2  0
 11  7  1  0
 21 12  1  0
 32 22  1  0
 31 25  1  0
  3 33  1  0
  4 34  1  0
  4 35  1  0
  8 36  1  0
  8 37  1  0
  9 38  1  0
  9 39  1  0
 10 40  1  0
 10 41  1  0
 11 42  1  1
 13 43  1  0
 14 44  1  0
 20 45  1  0
 21 46  1  0
 23 47  1  0
 24 48  1  0
 26 49  1  0
 29 50  1  0
 30 51  1  0
M  END
>  <smiles>  (54) 
O=C(NCC(=O)N1CCCC1c1ccc(C(F)(F)F)cc1)c1ccc2cc(F)ccc2n1

>  <score_type>  (54) 
oracle

>  <origin>  (54) 
autodockgpu

>  <m_score__min__energy>  (54) 
-8.2899999999999991

>  <m_primary>  (54) 
energy

>  <rmsd>  (54) 
2.0007341436445976

>  <m_score__min__rmsd>  (54) 
2.0007341436445976

>  <meeko>  (54) 
{"free_energy": -8.18, "intermolecular_energy": -9.97, "internal_energy": -1.77, "cluster_size": 28, "cluster_id": 1, "rank_in_cluster": 22}

>  <energy>  (54) 
-8.22

>  <cluster_rmsd>  (54) 
0.46

>  <cluster>  (54) 
1

$$$$

     RDKit          3D

 51 54  0  0  0  0  0  0  0  0999 V2000
  140.1180   71.4190  220.9140 O   0  0  0  0  0  0  0  0  0  0  0  0
  139.9190   71.9710  222.0260 C   0  0  0  0  0  0  0  0  0  0  0  0
  139.7630   73.3660  222.1580 N   0  0  0  0  0  0  0  0  0  0  0  0
  139.8280   74.2220  220.9960 C   0  0  0  0  0  0  0  0  0  0  0  0
  140.7500   75.3720  221.2420 C   0  0  0  0  0  0  0  0  0  0  0  0
  140.6580   75.9240  222.3710 O   0  0  0  0  0  0  0  0  0  0  0  0
  141.6540   75.7800  220.2340 N   0  0  0  0  0  0  0  0  0  0  0  0
  142.0880   74.9660  219.0910 C   0  0  0  0  0  0  0  0  0  0  0  0
  142.5610   75.9380  218.0490 C   0  0  0  0  0  0  0  0  0  0  0  0
  142.4910   77.3050  218.6570 C   0  0  0  0  0  0  0  0  0  0  0  0
  142.3110   77.0460  220.1380 C   0  0  1  0  0  0  0  0  0  0  0  0
  141.5280   78.1640  220.7760 C   0  0  0  0  0  0  0  0  0  0  0  0
  140.3130   78.5700  220.2390 C   0  0  0  0  0  0  0  0  0  0  0  0
  139.5630   79.5870  220.7910 C   0  0  0  0  0  0  0  0  0  0  0  0
  140.0220   80.2400  221.9180 C   0  0  0  0  0  0  0  0  0  0  0  0
  139.2220   81.3370  222.5220 C   0  0  0  0  0  0  0  0  0  0  0  0
  139.1100   81.2050  223.8940 F   0  0  0  0  0  0  0  0  0  0  0  0
  137.9420   81.4190  222.0040 F   0  0  0  0  0  0  0  0  0  0  0  0
  139.8370   82.5480  222.2790 F   0  0  0  0  0  0  0  0  0  0  0  0
  141.2300   79.8460  222.4640 C   0  0  0  0  0  0  0  0  0  0  0  0
  141.9890   78.8160  221.9050 C   0  0  0  0  0  0  0  0  0  0  0  0
  139.8420   71.1520  223.2480 C   0  0  0  0  0  0  0  0  0  0  0  0
  139.2950   69.8830  223.2130 C   0  0  0  0  0  0  0  0  0  0  0  0
  139.2220   69.1060  224.3690 C   0  0  0  0  0  0  0  0  0  0  0  0
  139.6970   69.6040  225.5580 C   0  0  0  0  0  0  0  0  0  0  0  0
  139.6670   68.9110  226.7470 C   0  0  0  0  0  0  0  0  0  0  0  0
  140.1730   69.4930  227.9040 C   0  0  0  0  0  0  0  0  0  0  0  0
  140.1580   68.8370  229.0910 F   0  0  0  0  0  0  0  0  0  0  0  0
  140.7160   70.7650  227.9110 C   0  0  0  0  0  0  0  0  0  0  0  0
  140.7400   71.4520  226.7100 C   0  0  0  0  0  0  0  0  0  0  0  0
  140.2390   70.8720  225.5660 C   0  0  0  0  0  0  0  0  0  0  0  0
  140.3010   71.6080  224.4360 N   0  0  0  0  0  0  0  0  0  0  0  0
  139.5990   73.7880  223.0940 H   0  0  0  0  0  0  0  0  0  0  0  0
  140.1964   73.6401  220.1383 H   0  0  0  0  0  0  0  0  0  0  0  0
  138.8214   74.6126  220.7860 H   0  0  0  0  0  0  0  0  0  0  0  0
  142.9074   74.2951  219.3884 H   0  0  0  0  0  0  0  0  0  0  0  0
  141.2713   74.3339  218.7123 H   0  0  0  0  0  0  0  0  0  0  0  0
  143.5967   75.7065  217.7596 H   0  0  0  0  0  0  0  0  0  0  0  0
  141.9355   75.8789  217.1461 H   0  0  0  0  0  0  0  0  0  0  0  0
  143.4199   77.8633  218.4690 H   0  0  0  0  0  0  0  0  0  0  0  0
  141.6770   77.9122  218.2342 H   0  0  0  0  0  0  0  0  0  0  0  0
  143.2677   77.0154  220.6800 H   0  0  0  0  0  0  0  0  0  0  0  0
  139.9350   78.0613  219.3399 H   0  0  0  0  0  0  0  0  0  0  0  0
  138.6043   79.8766  220.3361 H   0  0  0  0  0  0  0  0  0  0  0  0
  141.6030   80.3581  223.3632 H   0  0  0  0  0  0  0  0  0  0  0  0
  142.9474   78.5251  222.3597 H   0  0  0  0  0  0  0  0  0  0  0  0
  138.9130   69.4815  222.2628 H   0  0  0  0  0  0  0  0  0  0  0  0
  138.7853   68.0972  224.3288 H   0  0  0  0  0  0  0  0  0  0  0  0
  139.2427   67.8967  226.7818 H   0  0  0  0  0  0  0  0  0  0  0  0
  141.1128   71.2126  228.8341 H   0  0  0  0  0  0  0  0  0  0  0  0
  141.1617   72.4671  226.6690 H   0  0  0  0  0  0  0  0  0  0  0  0
  1  2  2  0
  2  3  1  0
  3  4  1  0
  4  5  1  0
  5  6  2  0
  5  7  1  0
  7  8  1  0
  8  9  1  0
  9 10  1  0
 10 11  1  0
 11 12  1  0
 12 13  2  0
 13 14  1  0
 14 15  2  0
 15 16  1  0
 16 17  1  0
 16 18  1  0
 16 19  1  0
 15 20  1  0
 20 21  2  0
  2 22  1  0
 22 23  2  0
 23 24  1  0
 24 25  2  0
 25 26  1  0
 26 27  2  0
 27 28  1  0
 27 29  1  0
 29 30  2  0
 30 31  1  0
 31 32  2  0
 11  7  1  0
 21 12  1  0
 32 22  1  0
 31 25  1  0
  3 33  1  0
  4 34  1  0
  4 35  1  0
  8 36  1  0
  8 37  1  0
  9 38  1  0
  9 39  1  0
 10 40  1  0
 10 41  1  0
 11 42  1  1
 13 43  1  0
 14 44  1  0
 20 45  1  0
 21 46  1  0
 23 47  1  0
 24 48  1  0
 26 49  1  0
 29 50  1  0
 30 51  1  0
M  END
>  <smiles>  (55) 
O=C(NCC(=O)N1CCCC1c1ccc(C(F)(F)F)cc1)c1ccc2cc(F)ccc2n1

>  <score_type>  (55) 
oracle

>  <origin>  (55) 
autodockgpu

>  <m_score__min__energy>  (55) 
-8.2899999999999991

>  <m_primary>  (55) 
energy

>  <rmsd>  (55) 
1.6342639583461567

>  <m_score__min__rmsd>  (55) 
1.6342639583461567

>  <meeko>  (55) 
{"free_energy": -7.53, "intermolecular_energy": -9.32, "internal_energy": -1.75, "cluster_size": 28, "cluster_id": 1, "rank_in_cluster": 28}

>  <energy>  (55) 
-8.22

>  <cluster_rmsd>  (55) 
0.48

>  <cluster>  (55) 
1

$$$$

     RDKit          3D

 51 54  0  0  0  0  0  0  0  0999 V2000
  140.9050   71.7240  221.1200 O   0  0  0  0  0  0  0  0  0  0  0  0
  140.3930   72.2110  222.1590 C   0  0  0  0  0  0  0  0  0  0  0  0
  140.0000   73.5630  222.2440 N   0  0  0  0  0  0  0  0  0  0  0  0
  140.1770   74.4470  221.1150 C   0  0  0  0  0  0  0  0  0  0  0  0
  140.5170   75.8270  221.5770 C   0  0  0  0  0  0  0  0  0  0  0  0
  140.0310   76.1750  222.6870 O   0  0  0  0  0  0  0  0  0  0  0  0
  141.3390   76.6560  220.7790 N   0  0  0  0  0  0  0  0  0  0  0  0
  142.0170   76.2530  219.5410 C   0  0  0  0  0  0  0  0  0  0  0  0
  142.2840   77.5230  218.7850 C   0  0  0  0  0  0  0  0  0  0  0  0
  141.8450   78.6570  219.6600 C   0  0  0  0  0  0  0  0  0  0  0  0
  141.6630   78.0270  221.0250 C   0  0  1  0  0  0  0  0  0  0  0  0
  140.5950   78.7530  221.8010 C   0  0  0  0  0  0  0  0  0  0  0  0
  140.8400   79.1930  223.0950 C   0  0  0  0  0  0  0  0  0  0  0  0
  139.8930   79.8620  223.8420 C   0  0  0  0  0  0  0  0  0  0  0  0
  138.6470   80.1100  223.3000 C   0  0  0  0  0  0  0  0  0  0  0  0
  137.6180   80.8290  224.0950 C   0  0  0  0  0  0  0  0  0  0  0  0
  138.0630   81.1280  225.3700 F   0  0  0  0  0  0  0  0  0  0  0  0
  136.4380   80.1180  224.2200 F   0  0  0  0  0  0  0  0  0  0  0  0
  137.3100   82.0260  223.4820 F   0  0  0  0  0  0  0  0  0  0  0  0
  138.3880   79.6770  222.0130 C   0  0  0  0  0  0  0  0  0  0  0  0
  139.3480   79.0000  221.2570 C   0  0  0  0  0  0  0  0  0  0  0  0
  140.1870   71.3600  223.3430 C   0  0  0  0  0  0  0  0  0  0  0  0
  139.5610   70.1330  223.2290 C   0  0  0  0  0  0  0  0  0  0  0  0
  139.3650   69.3250  224.3490 C   0  0  0  0  0  0  0  0  0  0  0  0
  139.7970   69.7500  225.5820 C   0  0  0  0  0  0  0  0  0  0  0  0
  139.6470   69.0230  226.7410 C   0  0  0  0  0  0  0  0  0  0  0  0
  140.1160   69.5310  227.9460 C   0  0  0  0  0  0  0  0  0  0  0  0
  139.9850   68.8400  229.1050 F   0  0  0  0  0  0  0  0  0  0  0  0
  140.7400   70.7630  228.0330 C   0  0  0  0  0  0  0  0  0  0  0  0
  140.8840   71.4850  226.8620 C   0  0  0  0  0  0  0  0  0  0  0  0
  140.4180   70.9780  225.6690 C   0  0  0  0  0  0  0  0  0  0  0  0
  140.5990   71.7440  224.5730 N   0  0  0  0  0  0  0  0  0  0  0  0
  139.5790   73.9310  223.1200 H   0  0  0  0  0  0  0  0  0  0  0  0
  140.9921   74.0664  220.4819 H   0  0  0  0  0  0  0  0  0  0  0  0
  139.2380   74.4852  220.5433 H   0  0  0  0  0  0  0  0  0  0  0  0
  142.9620   75.7395  219.7721 H   0  0  0  0  0  0  0  0  0  0  0  0
  141.4027   75.5550  218.9533 H   0  0  0  0  0  0  0  0  0  0  0  0
  143.3577   77.6114  218.5631 H   0  0  0  0  0  0  0  0  0  0  0  0
  141.7389   77.5319  217.8296 H   0  0  0  0  0  0  0  0  0  0  0  0
  142.6131   79.4437  219.6931 H   0  0  0  0  0  0  0  0  0  0  0  0
  140.9268   79.1395  219.2938 H   0  0  0  0  0  0  0  0  0  0  0  0
  142.5688   78.0945  221.6454 H   0  0  0  0  0  0  0  0  0  0  0  0
  141.8268   79.0007  223.5413 H   0  0  0  0  0  0  0  0  0  0  0  0
  140.1286   80.1960  224.8632 H   0  0  0  0  0  0  0  0  0  0  0  0
  137.3990   79.8708  221.5722 H   0  0  0  0  0  0  0  0  0  0  0  0
  139.1135   78.6656  220.2356 H   0  0  0  0  0  0  0  0  0  0  0  0
  139.2133   69.7897  222.2435 H   0  0  0  0  0  0  0  0  0  0  0  0
  138.8659   68.3502  224.2453 H   0  0  0  0  0  0  0  0  0  0  0  0
  139.1556   68.0393  226.7132 H   0  0  0  0  0  0  0  0  0  0  0  0
  141.1066   71.1523  228.9943 H   0  0  0  0  0  0  0  0  0  0  0  0
  141.3735   72.4698  226.8836 H   0  0  0  0  0  0  0  0  0  0  0  0
  1  2  2  0
  2  3  1  0
  3  4  1  0
  4  5  1  0
  5  6  2  0
  5  7  1  0
  7  8  1  0
  8  9  1  0
  9 10  1  0
 10 11  1  0
 11 12  1  0
 12 13  2  0
 13 14  1  0
 14 15  2  0
 15 16  1  0
 16 17  1  0
 16 18  1  0
 16 19  1  0
 15 20  1  0
 20 21  2  0
  2 22  1  0
 22 23  2  0
 23 24  1  0
 24 25  2  0
 25 26  1  0
 26 27  2  0
 27 28  1  0
 27 29  1  0
 29 30  2  0
 30 31  1  0
 31 32  2  0
 11  7  1  0
 21 12  1  0
 32 22  1  0
 31 25  1  0
  3 33  1  0
  4 34  1  0
  4 35  1  0
  8 36  1  0
  8 37  1  0
  9 38  1  0
  9 39  1  0
 10 40  1  0
 10 41  1  0
 11 42  1  1
 13 43  1  0
 14 44  1  0
 20 45  1  0
 21 46  1  0
 23 47  1  0
 24 48  1  0
 26 49  1  0
 29 50  1  0
 30 51  1  0
M  END
>  <smiles>  (56) 
O=C(NCC(=O)N1CCCC1c1ccc(C(F)(F)F)cc1)c1ccc2cc(F)ccc2n1

>  <score_type>  (56) 
oracle

>  <origin>  (56) 
autodockgpu

>  <m_score__min__energy>  (56) 
-8.2899999999999991

>  <m_primary>  (56) 
energy

>  <rmsd>  (56) 
1.97229057430049

>  <m_score__min__rmsd>  (56) 
1.97229057430049

>  <meeko>  (56) 
{"free_energy": -8.2, "intermolecular_energy": -9.99, "internal_energy": -1.77, "cluster_size": 28, "cluster_id": 1, "rank_in_cluster": 17}

>  <energy>  (56) 
-8.21

>  <cluster_rmsd>  (56) 
0.43

>  <cluster>  (56) 
1

$$$$

     RDKit          3D

 51 54  0  0  0  0  0  0  0  0999 V2000
  138.0920   71.0930  221.4090 O   0  0  0  0  0  0  0  0  0  0  0  0
  138.6820   71.6700  222.3580 C   0  0  0  0  0  0  0  0  0  0  0  0
  138.9590   73.0530  222.3440 N   0  0  0  0  0  0  0  0  0  0  0  0
  138.5630   73.8660  221.2170 C   0  0  0  0  0  0  0  0  0  0  0  0
  139.5210   73.6920  220.0820 C   0  0  0  0  0  0  0  0  0  0  0  0
  139.0910   74.0060  218.9410 O   0  0  0  0  0  0  0  0  0  0  0  0
  140.8230   73.1980  220.3280 N   0  0  0  0  0  0  0  0  0  0  0  0
  141.3580   71.9160  219.8520 C   0  0  0  0  0  0  0  0  0  0  0  0
  142.8520   72.0640  219.8610 C   0  0  0  0  0  0  0  0  0  0  0  0
  143.1590   73.4070  220.4500 C   0  0  0  0  0  0  0  0  0  0  0  0
  141.8540   73.8450  221.0800 C   0  0  1  0  0  0  0  0  0  0  0  0
  141.7380   75.3470  221.0610 C   0  0  0  0  0  0  0  0  0  0  0  0
  142.3160   76.0870  220.0380 C   0  0  0  0  0  0  0  0  0  0  0  0
  142.2340   77.4620  219.9800 C   0  0  0  0  0  0  0  0  0  0  0  0
  141.5590   78.1480  220.9710 C   0  0  0  0  0  0  0  0  0  0  0  0
  141.4650   79.6300  220.9200 C   0  0  0  0  0  0  0  0  0  0  0  0
  140.1760   80.0760  221.1460 F   0  0  0  0  0  0  0  0  0  0  0  0
  141.8840   80.1560  219.7110 F   0  0  0  0  0  0  0  0  0  0  0  0
  142.2630   80.1800  221.9020 F   0  0  0  0  0  0  0  0  0  0  0  0
  140.9790   77.4250  221.9970 C   0  0  0  0  0  0  0  0  0  0  0  0
  141.0610   76.0320  222.0540 C   0  0  0  0  0  0  0  0  0  0  0  0
  139.1100   70.8950  223.5350 C   0  0  0  0  0  0  0  0  0  0  0  0
  138.9350   69.5250  223.5790 C   0  0  0  0  0  0  0  0  0  0  0  0
  139.3400   68.7900  224.6920 C   0  0  0  0  0  0  0  0  0  0  0  0
  139.9190   69.4310  225.7610 C   0  0  0  0  0  0  0  0  0  0  0  0
  140.3480   68.7890  226.9000 C   0  0  0  0  0  0  0  0  0  0  0  0
  140.9250   69.5190  227.9340 C   0  0  0  0  0  0  0  0  0  0  0  0
  141.3590   68.9180  229.0690 F   0  0  0  0  0  0  0  0  0  0  0  0
  141.0880   70.8910  227.8650 C   0  0  0  0  0  0  0  0  0  0  0  0
  140.6520   71.5250  226.7150 C   0  0  0  0  0  0  0  0  0  0  0  0
  140.0820   70.7990  225.6920 C   0  0  0  0  0  0  0  0  0  0  0  0
  139.6830   71.4920  224.6050 N   0  0  0  0  0  0  0  0  0  0  0  0
  139.4480   73.4970  223.1460 H   0  0  0  0  0  0  0  0  0  0  0  0
  137.5565   73.5657  220.8902 H   0  0  0  0  0  0  0  0  0  0  0  0
  138.5634   74.9224  221.5234 H   0  0  0  0  0  0  0  0  0  0  0  0
  141.0504   71.1004  220.5229 H   0  0  0  0  0  0  0  0  0  0  0  0
  140.9829   71.6701  218.8476 H   0  0  0  0  0  0  0  0  0  0  0  0
  143.3059   71.2709  220.4733 H   0  0  0  0  0  0  0  0  0  0  0  0
  143.2594   71.9811  218.8426 H   0  0  0  0  0  0  0  0  0  0  0  0
  143.9512   73.3279  221.2091 H   0  0  0  0  0  0  0  0  0  0  0  0
  143.5244   74.1224  219.6986 H   0  0  0  0  0  0  0  0  0  0  0  0
  141.7824   73.5612  222.1404 H   0  0  0  0  0  0  0  0  0  0  0  0
  142.8602   75.5557  219.2433 H   0  0  0  0  0  0  0  0  0  0  0  0
  142.7033   78.0096  219.1494 H   0  0  0  0  0  0  0  0  0  0  0  0
  140.4381   77.9618  222.7902 H   0  0  0  0  0  0  0  0  0  0  0  0
  140.5904   75.4832  222.8830 H   0  0  0  0  0  0  0  0  0  0  0  0
  138.4708   69.0085  222.7259 H   0  0  0  0  0  0  0  0  0  0  0  0
  139.1965   67.6996  224.7147 H   0  0  0  0  0  0  0  0  0  0  0  0
  140.2347   67.6988  226.9928 H   0  0  0  0  0  0  0  0  0  0  0  0
  141.5457   71.4551  228.6910 H   0  0  0  0  0  0  0  0  0  0  0  0
  140.7611   72.6152  226.6169 H   0  0  0  0  0  0  0  0  0  0  0  0
  1  2  2  0
  2  3  1  0
  3  4  1  0
  4  5  1  0
  5  6  2  0
  5  7  1  0
  7  8  1  0
  8  9  1  0
  9 10  1  0
 10 11  1  0
 11 12  1  0
 12 13  2  0
 13 14  1  0
 14 15  2  0
 15 16  1  0
 16 17  1  0
 16 18  1  0
 16 19  1  0
 15 20  1  0
 20 21  2  0
  2 22  1  0
 22 23  2  0
 23 24  1  0
 24 25  2  0
 25 26  1  0
 26 27  2  0
 27 28  1  0
 27 29  1  0
 29 30  2  0
 30 31  1  0
 31 32  2  0
 11  7  1  0
 21 12  1  0
 32 22  1  0
 31 25  1  0
  3 33  1  0
  4 34  1  0
  4 35  1  0
  8 36  1  0
  8 37  1  0
  9 38  1  0
  9 39  1  0
 10 40  1  0
 10 41  1  0
 11 42  1  1
 13 43  1  0
 14 44  1  0
 20 45  1  0
 21 46  1  0
 23 47  1  0
 24 48  1  0
 26 49  1  0
 29 50  1  0
 30 51  1  0
M  END
>  <smiles>  (57) 
O=C(NCC(=O)N1CCCC1c1ccc(C(F)(F)F)cc1)c1ccc2cc(F)ccc2n1

>  <score_type>  (57) 
oracle

>  <origin>  (57) 
autodockgpu

>  <m_score__min__energy>  (57) 
-8.2899999999999991

>  <m_primary>  (57) 
energy

>  <rmsd>  (57) 
2.683222872859258

>  <m_score__min__rmsd>  (57) 
2.683222872859258

>  <meeko>  (57) 
{"free_energy": -6.93, "intermolecular_energy": -8.72, "internal_energy": -2.1, "cluster_size": 2, "cluster_id": 6, "rank_in_cluster": 2}

>  <energy>  (57) 
-8.21

>  <cluster_rmsd>  (57) 
0.44

>  <cluster>  (57) 
1

$$$$

     RDKit          3D

 51 54  0  0  0  0  0  0  0  0999 V2000
  139.4220   71.0440  221.3190 O   0  0  0  0  0  0  0  0  0  0  0  0
  139.6200   71.5480  222.4530 C   0  0  0  0  0  0  0  0  0  0  0  0
  139.7790   72.9370  222.6430 N   0  0  0  0  0  0  0  0  0  0  0  0
  139.7160   73.8400  221.5170 C   0  0  0  0  0  0  0  0  0  0  0  0
  139.5470   75.2500  221.9840 C   0  0  0  0  0  0  0  0  0  0  0  0
  140.6020   75.8570  222.3090 O   0  0  0  0  0  0  0  0  0  0  0  0
  138.2560   75.8240  222.0420 N   0  0  0  0  0  0  0  0  0  0  0  0
  137.0120   75.1070  222.3500 C   0  0  0  0  0  0  0  0  0  0  0  0
  136.0450   76.1490  222.8330 C   0  0  0  0  0  0  0  0  0  0  0  0
  136.7210   77.4780  222.6910 C   0  0  0  0  0  0  0  0  0  0  0  0
  137.9200   77.1950  221.8110 C   0  0  1  0  0  0  0  0  0  0  0  0
  139.0480   78.1380  222.1390 C   0  0  0  0  0  0  0  0  0  0  0  0
  139.9930   78.4690  221.1770 C   0  0  0  0  0  0  0  0  0  0  0  0
  141.0400   79.3290  221.4320 C   0  0  0  0  0  0  0  0  0  0  0  0
  141.1720   79.8900  222.6870 C   0  0  0  0  0  0  0  0  0  0  0  0
  142.2970   80.8170  222.9750 C   0  0  0  0  0  0  0  0  0  0  0  0
  143.5270   80.2350  222.7270 F   0  0  0  0  0  0  0  0  0  0  0  0
  142.3040   81.2690  224.2820 F   0  0  0  0  0  0  0  0  0  0  0  0
  142.2040   81.9280  222.1610 F   0  0  0  0  0  0  0  0  0  0  0  0
  140.2390   79.5700  223.6560 C   0  0  0  0  0  0  0  0  0  0  0  0
  139.1780   78.6990  223.3960 C   0  0  0  0  0  0  0  0  0  0  0  0
  139.6940   70.6790  223.6390 C   0  0  0  0  0  0  0  0  0  0  0  0
  139.1740   69.4000  223.6100 C   0  0  0  0  0  0  0  0  0  0  0  0
  139.2430   68.5750  224.7320 C   0  0  0  0  0  0  0  0  0  0  0  0
  139.8340   69.0370  225.8840 C   0  0  0  0  0  0  0  0  0  0  0  0
  139.9480   68.2960  227.0380 C   0  0  0  0  0  0  0  0  0  0  0  0
  140.5630   68.8440  228.1580 C   0  0  0  0  0  0  0  0  0  0  0  0
  140.6910   68.1410  229.3100 F   0  0  0  0  0  0  0  0  0  0  0  0
  141.0760   70.1290  228.1620 C   0  0  0  0  0  0  0  0  0  0  0  0
  140.9550   70.8630  226.9960 C   0  0  0  0  0  0  0  0  0  0  0  0
  140.3450   70.3170  225.8870 C   0  0  0  0  0  0  0  0  0  0  0  0
  140.2680   71.0990  224.7910 N   0  0  0  0  0  0  0  0  0  0  0  0
  139.9410   73.3190  223.5960 H   0  0  0  0  0  0  0  0  0  0  0  0
  140.6471   73.7602  220.9367 H   0  0  0  0  0  0  0  0  0  0  0  0
  138.8537   73.5674  220.8908 H   0  0  0  0  0  0  0  0  0  0  0  0
  136.6223   74.6121  221.4482 H   0  0  0  0  0  0  0  0  0  0  0  0
  137.1735   74.3246  223.1062 H   0  0  0  0  0  0  0  0  0  0  0  0
  135.1292   76.1247  222.2242 H   0  0  0  0  0  0  0  0  0  0  0  0
  135.7614   75.9643  223.8796 H   0  0  0  0  0  0  0  0  0  0  0  0
  136.0503   78.2074  222.2132 H   0  0  0  0  0  0  0  0  0  0  0  0
  137.0046   77.9114  223.6614 H   0  0  0  0  0  0  0  0  0  0  0  0
  137.7070   77.3567  220.7440 H   0  0  0  0  0  0  0  0  0  0  0  0
  139.9028   78.0283  220.1732 H   0  0  0  0  0  0  0  0  0  0  0  0
  141.7659   79.5669  220.6405 H   0  0  0  0  0  0  0  0  0  0  0  0
  140.3347   80.0130  224.6583 H   0  0  0  0  0  0  0  0  0  0  0  0
  138.4507   78.4611  224.1862 H   0  0  0  0  0  0  0  0  0  0  0  0
  138.6994   69.0274  222.6903 H   0  0  0  0  0  0  0  0  0  0  0  0
  138.8259   67.5578  224.6954 H   0  0  0  0  0  0  0  0  0  0  0  0
  139.5526   67.2702  227.0743 H   0  0  0  0  0  0  0  0  0  0  0  0
  141.5602   70.5495  229.0557 H   0  0  0  0  0  0  0  0  0  0  0  0
  141.3482   71.8894  226.9534 H   0  0  0  0  0  0  0  0  0  0  0  0
  1  2  2  0
  2  3  1  0
  3  4  1  0
  4  5  1  0
  5  6  2  0
  5  7  1  0
  7  8  1  0
  8  9  1  0
  9 10  1  0
 10 11  1  0
 11 12  1  0
 12 13  2  0
 13 14  1  0
 14 15  2  0
 15 16  1  0
 16 17  1  0
 16 18  1  0
 16 19  1  0
 15 20  1  0
 20 21  2  0
  2 22  1  0
 22 23  2  0
 23 24  1  0
 24 25  2  0
 25 26  1  0
 26 27  2  0
 27 28  1  0
 27 29  1  0
 29 30  2  0
 30 31  1  0
 31 32  2  0
 11  7  1  0
 21 12  1  0
 32 22  1  0
 31 25  1  0
  3 33  1  0
  4 34  1  0
  4 35  1  0
  8 36  1  0
  8 37  1  0
  9 38  1  0
  9 39  1  0
 10 40  1  0
 10 41  1  0
 11 42  1  6
 13 43  1  0
 14 44  1  0
 20 45  1  0
 21 46  1  0
 23 47  1  0
 24 48  1  0
 26 49  1  0
 29 50  1  0
 30 51  1  0
M  END
>  <smiles>  (58) 
O=C(NCC(=O)N1CCCC1c1ccc(C(F)(F)F)cc1)c1ccc2cc(F)ccc2n1

>  <score_type>  (58) 
oracle

>  <origin>  (58) 
autodockgpu

>  <m_score__min__energy>  (58) 
-8.2899999999999991

>  <m_primary>  (58) 
energy

>  <rmsd>  (58) 
3.0484868531080163

>  <m_score__min__rmsd>  (58) 
3.0484868531080163

>  <meeko>  (58) 
{"free_energy": -8.11, "intermolecular_energy": -9.9, "internal_energy": -1.53, "cluster_size": 4, "cluster_id": 2, "rank_in_cluster": 2}

>  <energy>  (58) 
-8.21

>  <cluster_rmsd>  (58) 
0.46

>  <cluster>  (58) 
1

$$$$

     RDKit          3D

 51 54  0  0  0  0  0  0  0  0999 V2000
  140.5820   71.5190  221.1080 O   0  0  0  0  0  0  0  0  0  0  0  0
  140.1920   72.0150  222.1960 C   0  0  0  0  0  0  0  0  0  0  0  0
  139.8890   73.3850  222.3340 N   0  0  0  0  0  0  0  0  0  0  0  0
  140.0200   74.2800  221.2070 C   0  0  0  0  0  0  0  0  0  0  0  0
  140.2950   75.6730  221.6720 C   0  0  0  0  0  0  0  0  0  0  0  0
  139.7010   76.0340  222.7230 O   0  0  0  0  0  0  0  0  0  0  0  0
  141.1770   76.5010  220.9390 N   0  0  0  0  0  0  0  0  0  0  0  0
  141.9050   76.1130  219.7240 C   0  0  0  0  0  0  0  0  0  0  0  0
  142.2420   77.3950  219.0190 C   0  0  0  0  0  0  0  0  0  0  0  0
  141.7890   78.5170  219.9030 C   0  0  0  0  0  0  0  0  0  0  0  0
  141.5240   77.8550  221.2390 C   0  0  1  0  0  0  0  0  0  0  0  0
  140.4370   78.5890  221.9820 C   0  0  0  0  0  0  0  0  0  0  0  0
  140.6610   79.0670  223.2660 C   0  0  0  0  0  0  0  0  0  0  0  0
  139.6970   79.7450  223.9830 C   0  0  0  0  0  0  0  0  0  0  0  0
  138.4550   79.9620  223.4190 C   0  0  0  0  0  0  0  0  0  0  0  0
  137.4080   80.6900  224.1820 C   0  0  0  0  0  0  0  0  0  0  0  0
  137.7470   80.8440  225.5130 F   0  0  0  0  0  0  0  0  0  0  0  0
  136.1740   80.0660  224.1340 F   0  0  0  0  0  0  0  0  0  0  0  0
  137.2440   81.9550  223.6560 F   0  0  0  0  0  0  0  0  0  0  0  0
  138.2170   79.4910  222.1410 C   0  0  0  0  0  0  0  0  0  0  0  0
  139.1950   78.8060  221.4160 C   0  0  0  0  0  0  0  0  0  0  0  0
  140.0390   71.1540  223.3810 C   0  0  0  0  0  0  0  0  0  0  0  0
  139.4650   69.9010  223.2730 C   0  0  0  0  0  0  0  0  0  0  0  0
  139.3190   69.0850  224.3940 C   0  0  0  0  0  0  0  0  0  0  0  0
  139.7490   69.5260  225.6220 C   0  0  0  0  0  0  0  0  0  0  0  0
  139.6470   68.7910  226.7810 C   0  0  0  0  0  0  0  0  0  0  0  0
  140.1100   69.3180  227.9810 C   0  0  0  0  0  0  0  0  0  0  0  0
  140.0240   68.6200  229.1400 F   0  0  0  0  0  0  0  0  0  0  0  0
  140.6810   70.5750  228.0620 C   0  0  0  0  0  0  0  0  0  0  0  0
  140.7780   71.3040  226.8900 C   0  0  0  0  0  0  0  0  0  0  0  0
  140.3190   70.7800  225.7020 C   0  0  0  0  0  0  0  0  0  0  0  0
  140.4510   71.5540  224.6060 N   0  0  0  0  0  0  0  0  0  0  0  0
  139.5690   73.7600  223.2490 H   0  0  0  0  0  0  0  0  0  0  0  0
  140.8504   73.9407  220.5703 H   0  0  0  0  0  0  0  0  0  0  0  0
  139.0784   74.2749  220.6383 H   0  0  0  0  0  0  0  0  0  0  0  0
  142.8236   75.5676  219.9861 H   0  0  0  0  0  0  0  0  0  0  0  0
  141.3027   75.4483  219.0873 H   0  0  0  0  0  0  0  0  0  0  0  0
  143.3275   77.4602  218.8531 H   0  0  0  0  0  0  0  0  0  0  0  0
  141.7457   77.4445  218.0386 H   0  0  0  0  0  0  0  0  0  0  0  0
  142.5742   79.2818  219.9957 H   0  0  0  0  0  0  0  0  0  0  0  0
  140.9028   79.0339  219.5063 H   0  0  0  0  0  0  0  0  0  0  0  0
  142.3997   77.8806  221.9042 H   0  0  0  0  0  0  0  0  0  0  0  0
  141.6444   78.8987  223.7292 H   0  0  0  0  0  0  0  0  0  0  0  0
  139.9160   80.1104  224.9972 H   0  0  0  0  0  0  0  0  0  0  0  0
  137.2313   79.6602  221.6830 H   0  0  0  0  0  0  0  0  0  0  0  0
  138.9780   78.4416  220.4010 H   0  0  0  0  0  0  0  0  0  0  0  0
  139.1196   69.5438  222.2916 H   0  0  0  0  0  0  0  0  0  0  0  0
  138.8604   68.0900  224.2954 H   0  0  0  0  0  0  0  0  0  0  0  0
  139.1991   67.7866  226.7578 H   0  0  0  0  0  0  0  0  0  0  0  0
  141.0432   70.9787  229.0190 H   0  0  0  0  0  0  0  0  0  0  0  0
  141.2248   72.3090  226.9073 H   0  0  0  0  0  0  0  0  0  0  0  0
  1  2  2  0
  2  3  1  0
  3  4  1  0
  4  5  1  0
  5  6  2  0
  5  7  1  0
  7  8  1  0
  8  9  1  0
  9 10  1  0
 10 11  1  0
 11 12  1  0
 12 13  2  0
 13 14  1  0
 14 15  2  0
 15 16  1  0
 16 17  1  0
 16 18  1  0
 16 19  1  0
 15 20  1  0
 20 21  2  0
  2 22  1  0
 22 23  2  0
 23 24  1  0
 24 25  2  0
 25 26  1  0
 26 27  2  0
 27 28  1  0
 27 29  1  0
 29 30  2  0
 30 31  1  0
 31 32  2  0
 11  7  1  0
 21 12  1  0
 32 22  1  0
 31 25  1  0
  3 33  1  0
  4 34  1  0
  4 35  1  0
  8 36  1  0
  8 37  1  0
  9 38  1  0
  9 39  1  0
 10 40  1  0
 10 41  1  0
 11 42  1  1
 13 43  1  0
 14 44  1  0
 20 45  1  0
 21 46  1  0
 23 47  1  0
 24 48  1  0
 26 49  1  0
 29 50  1  0
 30 51  1  0
M  END
>  <smiles>  (59) 
O=C(NCC(=O)N1CCCC1c1ccc(C(F)(F)F)cc1)c1ccc2cc(F)ccc2n1

>  <score_type>  (59) 
oracle

>  <origin>  (59) 
autodockgpu

>  <m_score__min__energy>  (59) 
-8.2899999999999991

>  <m_primary>  (59) 
energy

>  <rmsd>  (59) 
1.8912701295656331

>  <m_score__min__rmsd>  (59) 
1.8912701295656331

>  <meeko>  (59) 
{"free_energy": -8.13, "intermolecular_energy": -9.92, "internal_energy": -1.76, "cluster_size": 28, "cluster_id": 1, "rank_in_cluster": 25}

>  <energy>  (59) 
-8.21

>  <cluster_rmsd>  (59) 
0.43

>  <cluster>  (59) 
1

$$$$

     RDKit          3D

 51 54  0  0  0  0  0  0  0  0999 V2000
  141.0090   71.7910  221.1470 O   0  0  0  0  0  0  0  0  0  0  0  0
  140.4530   72.2740  222.1650 C   0  0  0  0  0  0  0  0  0  0  0  0
  140.0430   73.6220  222.2330 N   0  0  0  0  0  0  0  0  0  0  0  0
  140.2550   74.5070  221.1100 C   0  0  0  0  0  0  0  0  0  0  0  0
  140.6250   75.8750  221.5830 C   0  0  0  0  0  0  0  0  0  0  0  0
  140.1890   76.2070  222.7170 O   0  0  0  0  0  0  0  0  0  0  0  0
  141.4190   76.7130  220.7660 N   0  0  0  0  0  0  0  0  0  0  0  0
  142.0560   76.3240  219.5010 C   0  0  0  0  0  0  0  0  0  0  0  0
  142.2960   77.6010  218.7500 C   0  0  0  0  0  0  0  0  0  0  0  0
  141.8870   78.7260  219.6510 C   0  0  0  0  0  0  0  0  0  0  0  0
  141.7510   78.0820  221.0140 C   0  0  1  0  0  0  0  0  0  0  0  0
  140.7100   78.7990  221.8340 C   0  0  0  0  0  0  0  0  0  0  0  0
  139.4350   79.0100  221.3260 C   0  0  0  0  0  0  0  0  0  0  0  0
  138.4510   79.6600  222.0410 C   0  0  0  0  0  0  0  0  0  0  0  0
  138.7270   80.1280  223.3110 C   0  0  0  0  0  0  0  0  0  0  0  0
  137.6740   80.8300  224.0900 C   0  0  0  0  0  0  0  0  0  0  0  0
  136.4810   80.1320  224.0990 F   0  0  0  0  0  0  0  0  0  0  0  0
  137.4110   82.1030  223.6170 F   0  0  0  0  0  0  0  0  0  0  0  0
  138.0770   80.9600  225.4040 F   0  0  0  0  0  0  0  0  0  0  0  0
  139.9920   79.9250  223.8300 C   0  0  0  0  0  0  0  0  0  0  0  0
  140.9880   79.2660  223.1050 C   0  0  0  0  0  0  0  0  0  0  0  0
  140.2090   71.4230  223.3420 C   0  0  0  0  0  0  0  0  0  0  0  0
  139.5540   70.2120  223.2130 C   0  0  0  0  0  0  0  0  0  0  0  0
  139.3240   69.4040  224.3260 C   0  0  0  0  0  0  0  0  0  0  0  0
  139.7490   69.8120  225.5670 C   0  0  0  0  0  0  0  0  0  0  0  0
  139.5660   69.0830  226.7200 C   0  0  0  0  0  0  0  0  0  0  0  0
  140.0310   69.5740  227.9340 C   0  0  0  0  0  0  0  0  0  0  0  0
  139.8670   68.8800  229.0880 F   0  0  0  0  0  0  0  0  0  0  0  0
  140.6840   70.7890  228.0360 C   0  0  0  0  0  0  0  0  0  0  0  0
  140.8620   71.5130  226.8710 C   0  0  0  0  0  0  0  0  0  0  0  0
  140.4000   71.0240  225.6680 C   0  0  0  0  0  0  0  0  0  0  0  0
  140.6140   71.7910  224.5790 N   0  0  0  0  0  0  0  0  0  0  0  0
  139.5850   73.9880  223.0910 H   0  0  0  0  0  0  0  0  0  0  0  0
  141.0670   74.1088  220.4838 H   0  0  0  0  0  0  0  0  0  0  0  0
  139.3237   74.5721  220.5282 H   0  0  0  0  0  0  0  0  0  0  0  0
  143.0088   75.8096  219.6950 H   0  0  0  0  0  0  0  0  0  0  0  0
  141.4229   75.6314  218.9269 H   0  0  0  0  0  0  0  0  0  0  0  0
  143.3614   77.6925  218.4922 H   0  0  0  0  0  0  0  0  0  0  0  0
  141.7181   77.6192  217.8142 H   0  0  0  0  0  0  0  0  0  0  0  0
  142.6560   79.5124  219.6664 H   0  0  0  0  0  0  0  0  0  0  0  0
  140.9572   79.2123  219.3210 H   0  0  0  0  0  0  0  0  0  0  0  0
  142.6778   78.1440  221.6032 H   0  0  0  0  0  0  0  0  0  0  0  0
  139.2010   78.6449  220.3151 H   0  0  0  0  0  0  0  0  0  0  0  0
  137.4526   79.8049  221.6027 H   0  0  0  0  0  0  0  0  0  0  0  0
  140.2207   80.2923  224.8413 H   0  0  0  0  0  0  0  0  0  0  0  0
  141.9866   79.1198  223.5426 H   0  0  0  0  0  0  0  0  0  0  0  0
  139.2106   69.8824  222.2213 H   0  0  0  0  0  0  0  0  0  0  0  0
  138.8034   68.4419  224.2105 H   0  0  0  0  0  0  0  0  0  0  0  0
  139.0515   68.1115  226.6805 H   0  0  0  0  0  0  0  0  0  0  0  0
  141.0470   71.1642  229.0042 H   0  0  0  0  0  0  0  0  0  0  0  0
  141.3755   72.4852  226.9048 H   0  0  0  0  0  0  0  0  0  0  0  0
  1  2  2  0
  2  3  1  0
  3  4  1  0
  4  5  1  0
  5  6  2  0
  5  7  1  0
  7  8  1  0
  8  9  1  0
  9 10  1  0
 10 11  1  0
 11 12  1  0
 12 13  2  0
 13 14  1  0
 14 15  2  0
 15 16  1  0
 16 17  1  0
 16 18  1  0
 16 19  1  0
 15 20  1  0
 20 21  2  0
  2 22  1  0
 22 23  2  0
 23 24  1  0
 24 25  2  0
 25 26  1  0
 26 27  2  0
 27 28  1  0
 27 29  1  0
 29 30  2  0
 30 31  1  0
 31 32  2  0
 11  7  1  0
 21 12  1  0
 32 22  1  0
 31 25  1  0
  3 33  1  0
  4 34  1  0
  4 35  1  0
  8 36  1  0
  8 37  1  0
  9 38  1  0
  9 39  1  0
 10 40  1  0
 10 41  1  0
 11 42  1  1
 13 43  1  0
 14 44  1  0
 20 45  1  0
 21 46  1  0
 23 47  1  0
 24 48  1  0
 26 49  1  0
 29 50  1  0
 30 51  1  0
M  END
>  <smiles>  (60) 
O=C(NCC(=O)N1CCCC1c1ccc(C(F)(F)F)cc1)c1ccc2cc(F)ccc2n1

>  <score_type>  (60) 
oracle

>  <origin>  (60) 
autodockgpu

>  <m_score__min__energy>  (60) 
-8.2899999999999991

>  <m_primary>  (60) 
energy

>  <rmsd>  (60) 
2.0246978441791006

>  <m_score__min__rmsd>  (60) 
2.0246978441791006

>  <meeko>  (60) 
{"free_energy": -8.21, "intermolecular_energy": -10.0, "internal_energy": -1.77, "cluster_size": 28, "cluster_id": 1, "rank_in_cluster": 8}

>  <energy>  (60) 
-8.21

>  <cluster_rmsd>  (60) 
0.42

>  <cluster>  (60) 
1

$$$$

     RDKit          3D

 51 54  0  0  0  0  0  0  0  0999 V2000
  138.6430   75.2930  221.6130 O   0  0  0  0  0  0  0  0  0  0  0  0
  139.8200   75.6640  221.8490 C   0  0  0  0  0  0  0  0  0  0  0  0
  140.9320   74.8230  221.6400 N   0  0  0  0  0  0  0  0  0  0  0  0
  140.7480   73.4810  221.1360 C   0  0  0  0  0  0  0  0  0  0  0  0
  141.7950   73.1530  220.1210 C   0  0  0  0  0  0  0  0  0  0  0  0
  141.3760   72.7880  218.9910 O   0  0  0  0  0  0  0  0  0  0  0  0
  143.1640   73.2620  220.4580 N   0  0  0  0  0  0  0  0  0  0  0  0
  144.0420   72.1510  220.8460 C   0  0  0  0  0  0  0  0  0  0  0  0
  145.4430   72.6170  220.5710 C   0  0  0  0  0  0  0  0  0  0  0  0
  145.3530   74.0430  220.1240 C   0  0  0  0  0  0  0  0  0  0  0  0
  143.9440   74.4610  220.4880 C   0  0  1  0  0  0  0  0  0  0  0  0
  143.4420   75.5110  219.5300 C   0  0  0  0  0  0  0  0  0  0  0  0
  142.7930   76.6440  220.0030 C   0  0  0  0  0  0  0  0  0  0  0  0
  142.3190   77.6300  219.1640 C   0  0  0  0  0  0  0  0  0  0  0  0
  142.4840   77.5020  217.7990 C   0  0  0  0  0  0  0  0  0  0  0  0
  141.9770   78.5580  216.8840 C   0  0  0  0  0  0  0  0  0  0  0  0
  142.3620   79.8230  217.2880 F   0  0  0  0  0  0  0  0  0  0  0  0
  140.5980   78.5570  216.7710 F   0  0  0  0  0  0  0  0  0  0  0  0
  142.4890   78.3620  215.6180 F   0  0  0  0  0  0  0  0  0  0  0  0
  143.1280   76.3790  217.3130 C   0  0  0  0  0  0  0  0  0  0  0  0
  143.6090   75.3810  218.1640 C   0  0  0  0  0  0  0  0  0  0  0  0
  140.0720   77.0210  222.3630 C   0  0  0  0  0  0  0  0  0  0  0  0
  139.0260   77.8270  222.7700 C   0  0  0  0  0  0  0  0  0  0  0  0
  139.2620   79.1110  223.2580 C   0  0  0  0  0  0  0  0  0  0  0  0
  140.5490   79.5870  223.3350 C   0  0  0  0  0  0  0  0  0  0  0  0
  140.8780   80.8390  223.8010 C   0  0  0  0  0  0  0  0  0  0  0  0
  142.2100   81.2370  223.8450 C   0  0  0  0  0  0  0  0  0  0  0  0
  142.5680   82.4640  224.2990 F   0  0  0  0  0  0  0  0  0  0  0  0
  143.2390   80.4110  223.4300 C   0  0  0  0  0  0  0  0  0  0  0  0
  142.8960   79.1550  222.9630 C   0  0  0  0  0  0  0  0  0  0  0  0
  141.5760   78.7630  222.9220 C   0  0  0  0  0  0  0  0  0  0  0  0
  141.3250   77.5230  222.4530 N   0  0  0  0  0  0  0  0  0  0  0  0
  141.8920   75.1640  221.8450 H   0  0  0  0  0  0  0  0  0  0  0  0
  140.8179   72.7683  221.9710 H   0  0  0  0  0  0  0  0  0  0  0  0
  139.7586   73.4131  220.6601 H   0  0  0  0  0  0  0  0  0  0  0  0
  143.9183   71.9209  221.9145 H   0  0  0  0  0  0  0  0  0  0  0  0
  143.8044   71.2345  220.2861 H   0  0  0  0  0  0  0  0  0  0  0  0
  146.0506   72.5458  221.4852 H   0  0  0  0  0  0  0  0  0  0  0  0
  145.9183   71.9940  219.7990 H   0  0  0  0  0  0  0  0  0  0  0  0
  146.0922   74.6640  220.6512 H   0  0  0  0  0  0  0  0  0  0  0  0
  145.5623   74.1609  219.0505 H   0  0  0  0  0  0  0  0  0  0  0  0
  143.8858   74.9246  221.4838 H   0  0  0  0  0  0  0  0  0  0  0  0
  142.6518   76.7591  221.0878 H   0  0  0  0  0  0  0  0  0  0  0  0
  141.8123   78.5135  219.5795 H   0  0  0  0  0  0  0  0  0  0  0  0
  143.2653   76.2685  216.2272 H   0  0  0  0  0  0  0  0  0  0  0  0
  144.1172   74.4977  217.7499 H   0  0  0  0  0  0  0  0  0  0  0  0
  137.9943   77.4506  222.7081 H   0  0  0  0  0  0  0  0  0  0  0  0
  138.4205   79.7417  223.5806 H   0  0  0  0  0  0  0  0  0  0  0  0
  140.0875   81.5253  224.1388 H   0  0  0  0  0  0  0  0  0  0  0  0
  144.2880   80.7398  223.4697 H   0  0  0  0  0  0  0  0  0  0  0  0
  143.6820   78.4650  222.6223 H   0  0  0  0  0  0  0  0  0  0  0  0
  1  2  2  0
  2  3  1  0
  3  4  1  0
  4  5  1  0
  5  6  2  0
  5  7  1  0
  7  8  1  0
  8  9  1  0
  9 10  1  0
 10 11  1  0
 11 12  1  0
 12 13  2  0
 13 14  1  0
 14 15  2  0
 15 16  1  0
 16 17  1  0
 16 18  1  0
 16 19  1  0
 15 20  1  0
 20 21  2  0
  2 22  1  0
 22 23  2  0
 23 24  1  0
 24 25  2  0
 25 26  1  0
 26 27  2  0
 27 28  1  0
 27 29  1  0
 29 30  2  0
 30 31  1  0
 31 32  2  0
 11  7  1  0
 21 12  1  0
 32 22  1  0
 31 25  1  0
  3 33  1  0
  4 34  1  0
  4 35  1  0
  8 36  1  0
  8 37  1  0
  9 38  1  0
  9 39  1  0
 10 40  1  0
 10 41  1  0
 11 42  1  1
 13 43  1  0
 14 44  1  0
 20 45  1  0
 21 46  1  0
 23 47  1  0
 24 48  1  0
 26 49  1  0
 29 50  1  0
 30 51  1  0
M  END
>  <smiles>  (61) 
O=C(NCC(=O)N1CCCC1c1ccc(C(F)(F)F)cc1)c1ccc2cc(F)ccc2n1

>  <score_type>  (61) 
oracle

>  <origin>  (61) 
autodockgpu

>  <m_score__min__energy>  (61) 
-8.2899999999999991

>  <m_primary>  (61) 
energy

>  <rmsd>  (61) 
7.975577372113715

>  <m_score__min__rmsd>  (61) 
7.975577372113715

>  <meeko>  (61) 
{"free_energy": -6.78, "intermolecular_energy": -8.57, "internal_energy": -2.41, "cluster_size": 1, "cluster_id": 8, "rank_in_cluster": 1}

>  <energy>  (61) 
-8.21

>  <cluster_rmsd>  (61) 
0.48

>  <cluster>  (61) 
1

$$$$

     RDKit          3D

 51 54  0  0  0  0  0  0  0  0999 V2000
  138.8580   71.1570  221.0820 O   0  0  0  0  0  0  0  0  0  0  0  0
  139.1940   71.7340  222.1470 C   0  0  0  0  0  0  0  0  0  0  0  0
  139.3480   73.1340  222.2300 N   0  0  0  0  0  0  0  0  0  0  0  0
  139.1180   73.9640  221.0690 C   0  0  0  0  0  0  0  0  0  0  0  0
  139.8060   75.2820  221.2230 C   0  0  0  0  0  0  0  0  0  0  0  0
  140.2280   75.5550  222.3780 O   0  0  0  0  0  0  0  0  0  0  0  0
  139.9480   76.1380  220.1060 N   0  0  0  0  0  0  0  0  0  0  0  0
  139.1540   77.3440  219.8440 C   0  0  0  0  0  0  0  0  0  0  0  0
  139.9800   78.1890  218.9180 C   0  0  0  0  0  0  0  0  0  0  0  0
  141.2040   77.3970  218.5740 C   0  0  0  0  0  0  0  0  0  0  0  0
  140.8800   75.9910  219.0320 C   0  0  1  0  0  0  0  0  0  0  0  0
  142.1380   75.2670  219.4400 C   0  0  0  0  0  0  0  0  0  0  0  0
  142.1540   73.8820  219.5380 C   0  0  0  0  0  0  0  0  0  0  0  0
  143.2820   73.1800  219.9070 C   0  0  0  0  0  0  0  0  0  0  0  0
  144.4470   73.8620  220.1960 C   0  0  0  0  0  0  0  0  0  0  0  0
  145.6690   73.1160  220.5950 C   0  0  0  0  0  0  0  0  0  0  0  0
  145.6840   71.8320  220.0810 F   0  0  0  0  0  0  0  0  0  0  0  0
  145.8180   73.0190  221.9670 F   0  0  0  0  0  0  0  0  0  0  0  0
  146.7880   73.7600  220.1090 F   0  0  0  0  0  0  0  0  0  0  0  0
  144.4460   75.2420  220.1030 C   0  0  0  0  0  0  0  0  0  0  0  0
  143.3040   75.9530  219.7290 C   0  0  0  0  0  0  0  0  0  0  0  0
  139.4410   70.9420  223.3630 C   0  0  0  0  0  0  0  0  0  0  0  0
  139.1290   69.5970  223.4050 C   0  0  0  0  0  0  0  0  0  0  0  0
  139.3630   68.8450  224.5560 C   0  0  0  0  0  0  0  0  0  0  0  0
  139.9100   69.4450  225.6640 C   0  0  0  0  0  0  0  0  0  0  0  0
  140.1760   68.7850  226.8420 C   0  0  0  0  0  0  0  0  0  0  0  0
  140.7320   69.4730  227.9140 C   0  0  0  0  0  0  0  0  0  0  0  0
  141.0060   68.8520  229.0880 F   0  0  0  0  0  0  0  0  0  0  0  0
  141.0360   70.8200  227.8470 C   0  0  0  0  0  0  0  0  0  0  0  0
  140.7640   71.4730  226.6580 C   0  0  0  0  0  0  0  0  0  0  0  0
  140.2130   70.7890  225.5970 C   0  0  0  0  0  0  0  0  0  0  0  0
  139.9790   71.4980  224.4740 N   0  0  0  0  0  0  0  0  0  0  0  0
  139.6260   73.5770  223.1270 H   0  0  0  0  0  0  0  0  0  0  0  0
  139.5087   73.4539  220.1762 H   0  0  0  0  0  0  0  0  0  0  0  0
  138.0368   74.1372  220.9641 H   0  0  0  0  0  0  0  0  0  0  0  0
  138.1988   77.0770  219.3683 H   0  0  0  0  0  0  0  0  0  0  0  0
  138.9158   77.8801  220.7745 H   0  0  0  0  0  0  0  0  0  0  0  0
  139.4095   78.4174  218.0057 H   0  0  0  0  0  0  0  0  0  0  0  0
  140.2515   79.1423  219.3949 H   0  0  0  0  0  0  0  0  0  0  0  0
  141.3916   77.4204  217.4904 H   0  0  0  0  0  0  0  0  0  0  0  0
  142.1111   77.7962  219.0514 H   0  0  0  0  0  0  0  0  0  0  0  0
  140.4392   75.3779  218.2322 H   0  0  0  0  0  0  0  0  0  0  0  0
  141.2329   73.3243  219.3130 H   0  0  0  0  0  0  0  0  0  0  0  0
  143.2537   72.0822  219.9708 H   0  0  0  0  0  0  0  0  0  0  0  0
  145.3699   75.7943  220.3298 H   0  0  0  0  0  0  0  0  0  0  0  0
  143.3313   77.0508  219.6646 H   0  0  0  0  0  0  0  0  0  0  0  0
  138.6906   69.1131  222.5197 H   0  0  0  0  0  0  0  0  0  0  0  0
  139.1103   67.7746  224.5765 H   0  0  0  0  0  0  0  0  0  0  0  0
  139.9485   67.7128  226.9351 H   0  0  0  0  0  0  0  0  0  0  0  0
  141.4761   71.3509  228.7040 H   0  0  0  0  0  0  0  0  0  0  0  0
  140.9892   72.5452  226.5594 H   0  0  0  0  0  0  0  0  0  0  0  0
  1  2  2  0
  2  3  1  0
  3  4  1  0
  4  5  1  0
  5  6  2  0
  5  7  1  0
  7  8  1  0
  8  9  1  0
  9 10  1  0
 10 11  1  0
 11 12  1  0
 12 13  2  0
 13 14  1  0
 14 15  2  0
 15 16  1  0
 16 17  1  0
 16 18  1  0
 16 19  1  0
 15 20  1  0
 20 21  2  0
  2 22  1  0
 22 23  2  0
 23 24  1  0
 24 25  2  0
 25 26  1  0
 26 27  2  0
 27 28  1  0
 27 29  1  0
 29 30  2  0
 30 31  1  0
 31 32  2  0
 11  7  1  0
 21 12  1  0
 32 22  1  0
 31 25  1  0
  3 33  1  0
  4 34  1  0
  4 35  1  0
  8 36  1  0
  8 37  1  0
  9 38  1  0
  9 39  1  0
 10 40  1  0
 10 41  1  0
 11 42  1  6
 13 43  1  0
 14 44  1  0
 20 45  1  0
 21 46  1  0
 23 47  1  0
 24 48  1  0
 26 49  1  0
 29 50  1  0
 30 51  1  0
M  END
>  <smiles>  (62) 
O=C(NCC(=O)N1CCCC1c1ccc(C(F)(F)F)cc1)c1ccc2cc(F)ccc2n1

>  <score_type>  (62) 
oracle

>  <origin>  (62) 
autodockgpu

>  <m_score__min__energy>  (62) 
-8.2899999999999991

>  <m_primary>  (62) 
energy

>  <rmsd>  (62) 
1.4528967139215203

>  <m_score__min__rmsd>  (62) 
1.4528967139215203

>  <meeko>  (62) 
{"free_energy": -7.55, "intermolecular_energy": -9.34, "internal_energy": -2.31, "cluster_size": 7, "cluster_id": 4, "rank_in_cluster": 6}

>  <energy>  (62) 
-8.21

>  <cluster_rmsd>  (62) 
0.42

>  <cluster>  (62) 
1

$$$$

     RDKit          3D

 51 54  0  0  0  0  0  0  0  0999 V2000
  141.1040   72.9920  222.3410 O   0  0  0  0  0  0  0  0  0  0  0  0
  140.0050   72.6020  222.8090 C   0  0  0  0  0  0  0  0  0  0  0  0
  138.7700   73.1280  222.3750 N   0  0  0  0  0  0  0  0  0  0  0  0
  138.7300   74.1540  221.3580 C   0  0  0  0  0  0  0  0  0  0  0  0
  138.7750   75.5120  221.9810 C   0  0  0  0  0  0  0  0  0  0  0  0
  139.9050   75.9030  222.3770 O   0  0  0  0  0  0  0  0  0  0  0  0
  137.5900   76.2750  222.0960 N   0  0  0  0  0  0  0  0  0  0  0  0
  136.2590   75.7460  222.4210 C   0  0  0  0  0  0  0  0  0  0  0  0
  135.4770   76.9060  222.9660 C   0  0  0  0  0  0  0  0  0  0  0  0
  136.3460   78.1200  222.8450 C   0  0  0  0  0  0  0  0  0  0  0  0
  137.4630   77.6880  221.9190 C   0  0  1  0  0  0  0  0  0  0  0  0
  138.7310   78.4360  222.2400 C   0  0  0  0  0  0  0  0  0  0  0  0
  138.9270   78.9830  223.5010 C   0  0  0  0  0  0  0  0  0  0  0  0
  140.0720   79.6740  223.8390 C   0  0  0  0  0  0  0  0  0  0  0  0
  141.0710   79.8390  222.9000 C   0  0  0  0  0  0  0  0  0  0  0  0
  142.3090   80.5820  223.2520 C   0  0  0  0  0  0  0  0  0  0  0  0
  143.3430   80.3150  222.3730 F   0  0  0  0  0  0  0  0  0  0  0  0
  142.7620   80.3010  224.5290 F   0  0  0  0  0  0  0  0  0  0  0  0
  142.0690   81.9400  223.1950 F   0  0  0  0  0  0  0  0  0  0  0  0
  140.8910   79.3000  221.6400 C   0  0  0  0  0  0  0  0  0  0  0  0
  139.7310   78.6000  221.2990 C   0  0  0  0  0  0  0  0  0  0  0  0
  139.9800   71.5580  223.8480 C   0  0  0  0  0  0  0  0  0  0  0  0
  139.4260   70.3190  223.5890 C   0  0  0  0  0  0  0  0  0  0  0  0
  139.4020   69.3290  224.5720 C   0  0  0  0  0  0  0  0  0  0  0  0
  139.9340   69.5860  225.8130 C   0  0  0  0  0  0  0  0  0  0  0  0
  139.9540   68.6730  226.8430 C   0  0  0  0  0  0  0  0  0  0  0  0
  140.5140   69.0180  228.0670 C   0  0  0  0  0  0  0  0  0  0  0  0
  140.5510   68.1420  229.1020 F   0  0  0  0  0  0  0  0  0  0  0  0
  141.0620   70.2670  228.3000 C   0  0  0  0  0  0  0  0  0  0  0  0
  141.0350   71.1760  227.2580 C   0  0  0  0  0  0  0  0  0  0  0  0
  140.4800   70.8300  226.0450 C   0  0  0  0  0  0  0  0  0  0  0  0
  140.4930   71.7740  225.0810 N   0  0  0  0  0  0  0  0  0  0  0  0
  137.8800   72.7810  222.7850 H   0  0  0  0  0  0  0  0  0  0  0  0
  139.5948   74.0341  220.6888 H   0  0  0  0  0  0  0  0  0  0  0  0
  137.7935   74.0546  220.7896 H   0  0  0  0  0  0  0  0  0  0  0  0
  135.7741   75.3485  221.5172 H   0  0  0  0  0  0  0  0  0  0  0  0
  136.3182   74.9220  223.1473 H   0  0  0  0  0  0  0  0  0  0  0  0
  134.5531   77.0441  222.3852 H   0  0  0  0  0  0  0  0  0  0  0  0
  135.1953   76.7296  224.0146 H   0  0  0  0  0  0  0  0  0  0  0  0
  135.7837   78.9604  222.4120 H   0  0  0  0  0  0  0  0  0  0  0  0
  136.7185   78.4697  223.8192 H   0  0  0  0  0  0  0  0  0  0  0  0
  137.2490   77.9176  220.8647 H   0  0  0  0  0  0  0  0  0  0  0  0
  138.1394   78.8607  224.2592 H   0  0  0  0  0  0  0  0  0  0  0  0
  140.1886   80.0910  224.8502 H   0  0  0  0  0  0  0  0  0  0  0  0
  141.6819   79.4255  220.8859 H   0  0  0  0  0  0  0  0  0  0  0  0
  139.6138   78.1819  220.2883 H   0  0  0  0  0  0  0  0  0  0  0  0
  138.9991   70.1108  222.5968 H   0  0  0  0  0  0  0  0  0  0  0  0
  138.9587   68.3461  224.3545 H   0  0  0  0  0  0  0  0  0  0  0  0
  139.5265   67.6700  226.6971 H   0  0  0  0  0  0  0  0  0  0  0  0
  141.5013   70.5264  229.2745 H   0  0  0  0  0  0  0  0  0  0  0  0
  141.4591   72.1812  227.3983 H   0  0  0  0  0  0  0  0  0  0  0  0
  1  2  2  0
  2  3  1  0
  3  4  1  0
  4  5  1  0
  5  6  2  0
  5  7  1  0
  7  8  1  0
  8  9  1  0
  9 10  1  0
 10 11  1  0
 11 12  1  0
 12 13  2  0
 13 14  1  0
 14 15  2  0
 15 16  1  0
 16 17  1  0
 16 18  1  0
 16 19  1  0
 15 20  1  0
 20 21  2  0
  2 22  1  0
 22 23  2  0
 23 24  1  0
 24 25  2  0
 25 26  1  0
 26 27  2  0
 27 28  1  0
 27 29  1  0
 29 30  2  0
 30 31  1  0
 31 32  2  0
 11  7  1  0
 21 12  1  0
 32 22  1  0
 31 25  1  0
  3 33  1  0
  4 34  1  0
  4 35  1  0
  8 36  1  0
  8 37  1  0
  9 38  1  0
  9 39  1  0
 10 40  1  0
 10 41  1  0
 11 42  1  6
 13 43  1  0
 14 44  1  0
 20 45  1  0
 21 46  1  0
 23 47  1  0
 24 48  1  0
 26 49  1  0
 29 50  1  0
 30 51  1  0
M  END
>  <smiles>  (63) 
O=C(NCC(=O)N1CCCC1c1ccc(C(F)(F)F)cc1)c1ccc2cc(F)ccc2n1

>  <score_type>  (63) 
oracle

>  <origin>  (63) 
autodockgpu

>  <m_score__min__energy>  (63) 
-8.2899999999999991

>  <m_primary>  (63) 
energy

>  <rmsd>  (63) 
3.361979112516531

>  <m_score__min__rmsd>  (63) 
3.361979112516531

>  <meeko>  (63) 
{"free_energy": -8.26, "intermolecular_energy": -10.05, "internal_energy": -1.23, "cluster_size": 4, "cluster_id": 2, "rank_in_cluster": 1}

>  <energy>  (63) 
-8.2

>  <cluster_rmsd>  (63) 
0.43

>  <cluster>  (63) 
1

$$$$

     RDKit          3D

 51 54  0  0  0  0  0  0  0  0999 V2000
  138.2030   70.7300  221.5430 O   0  0  0  0  0  0  0  0  0  0  0  0
  138.7950   71.2440  222.5260 C   0  0  0  0  0  0  0  0  0  0  0  0
  139.1460   72.6090  222.5650 N   0  0  0  0  0  0  0  0  0  0  0  0
  138.8280   73.4770  221.4540 C   0  0  0  0  0  0  0  0  0  0  0  0
  139.8290   74.5830  221.3500 C   0  0  0  0  0  0  0  0  0  0  0  0
  140.6150   74.7130  222.3260 O   0  0  0  0  0  0  0  0  0  0  0  0
  139.8500   75.4090  220.2020 N   0  0  0  0  0  0  0  0  0  0  0  0
  138.8960   76.4830  219.9020 C   0  0  0  0  0  0  0  0  0  0  0  0
  139.5970   77.4000  218.9410 C   0  0  0  0  0  0  0  0  0  0  0  0
  140.9190   76.7740  218.6180 C   0  0  0  0  0  0  0  0  0  0  0  0
  140.7930   75.3540  219.1280 C   0  0  1  0  0  0  0  0  0  0  0  0
  142.1390   74.8270  219.5550 C   0  0  0  0  0  0  0  0  0  0  0  0
  142.3260   73.4690  219.7790 C   0  0  0  0  0  0  0  0  0  0  0  0
  143.5400   72.9430  220.1690 C   0  0  0  0  0  0  0  0  0  0  0  0
  144.6200   73.7840  220.3520 C   0  0  0  0  0  0  0  0  0  0  0  0
  145.9330   73.2290  220.7730 C   0  0  0  0  0  0  0  0  0  0  0  0
  146.2210   72.0360  220.1350 F   0  0  0  0  0  0  0  0  0  0  0  0
  146.0120   73.0040  222.1360 F   0  0  0  0  0  0  0  0  0  0  0  0
  146.9390   74.1150  220.4480 F   0  0  0  0  0  0  0  0  0  0  0  0
  144.4490   75.1380  220.1330 C   0  0  0  0  0  0  0  0  0  0  0  0
  143.2200   75.6700  219.7370 C   0  0  0  0  0  0  0  0  0  0  0  0
  139.1440   70.4110  223.6890 C   0  0  0  0  0  0  0  0  0  0  0  0
  138.8590   69.0580  223.6980 C   0  0  0  0  0  0  0  0  0  0  0  0
  139.1900   68.2680  224.7980 C   0  0  0  0  0  0  0  0  0  0  0  0
  139.8060   68.8360  225.8880 C   0  0  0  0  0  0  0  0  0  0  0  0
  140.1680   68.1360  227.0160 C   0  0  0  0  0  0  0  0  0  0  0  0
  140.7890   68.7930  228.0720 C   0  0  0  0  0  0  0  0  0  0  0  0
  141.1590   68.1330  229.1980 F   0  0  0  0  0  0  0  0  0  0  0  0
  141.0630   70.1480  228.0380 C   0  0  0  0  0  0  0  0  0  0  0  0
  140.6930   70.8410  226.8980 C   0  0  0  0  0  0  0  0  0  0  0  0
  140.0790   70.1870  225.8530 C   0  0  0  0  0  0  0  0  0  0  0  0
  139.7510   70.9340  224.7790 N   0  0  0  0  0  0  0  0  0  0  0  0
  139.6340   73.0000  223.3950 H   0  0  0  0  0  0  0  0  0  0  0  0
  138.8376   72.8914  220.5229 H   0  0  0  0  0  0  0  0  0  0  0  0
  137.8316   73.9133  221.6174 H   0  0  0  0  0  0  0  0  0  0  0  0
  137.9865   76.0694  219.4418 H   0  0  0  0  0  0  0  0  0  0  0  0
  138.5862   77.0143  220.8140 H   0  0  0  0  0  0  0  0  0  0  0  0
  138.9996   77.5138  218.0244 H   0  0  0  0  0  0  0  0  0  0  0  0
  139.7344   78.3981  219.3824 H   0  0  0  0  0  0  0  0  0  0  0  0
  141.1006   76.7841  217.5331 H   0  0  0  0  0  0  0  0  0  0  0  0
  141.7625   77.3122  219.0750 H   0  0  0  0  0  0  0  0  0  0  0  0
  140.4407   74.6575  218.3529 H   0  0  0  0  0  0  0  0  0  0  0  0
  141.4739   72.7874  219.6402 H   0  0  0  0  0  0  0  0  0  0  0  0
  143.6472   71.8606  220.3332 H   0  0  0  0  0  0  0  0  0  0  0  0
  145.3044   75.8150  220.2745 H   0  0  0  0  0  0  0  0  0  0  0  0
  143.1126   76.7521  219.5710 H   0  0  0  0  0  0  0  0  0  0  0  0
  138.3658   68.6000  222.8279 H   0  0  0  0  0  0  0  0  0  0  0  0
  138.9588   67.1926  224.7938 H   0  0  0  0  0  0  0  0  0  0  0  0
  139.9660   67.0567  227.0821 H   0  0  0  0  0  0  0  0  0  0  0  0
  141.5546   70.6543  228.8818 H   0  0  0  0  0  0  0  0  0  0  0  0
  140.8907   71.9207  226.8264 H   0  0  0  0  0  0  0  0  0  0  0  0
  1  2  2  0
  2  3  1  0
  3  4  1  0
  4  5  1  0
  5  6  2  0
  5  7  1  0
  7  8  1  0
  8  9  1  0
  9 10  1  0
 10 11  1  0
 11 12  1  0
 12 13  2  0
 13 14  1  0
 14 15  2  0
 15 16  1  0
 16 17  1  0
 16 18  1  0
 16 19  1  0
 15 20  1  0
 20 21  2  0
  2 22  1  0
 22 23  2  0
 23 24  1  0
 24 25  2  0
 25 26  1  0
 26 27  2  0
 27 28  1  0
 27 29  1  0
 29 30  2  0
 30 31  1  0
 31 32  2  0
 11  7  1  0
 21 12  1  0
 32 22  1  0
 31 25  1  0
  3 33  1  0
  4 34  1  0
  4 35  1  0
  8 36  1  0
  8 37  1  0
  9 38  1  0
  9 39  1  0
 10 40  1  0
 10 41  1  0
 11 42  1  6
 13 43  1  0
 14 44  1  0
 20 45  1  0
 21 46  1  0
 23 47  1  0
 24 48  1  0
 26 49  1  0
 29 50  1  0
 30 51  1  0
M  END
>  <smiles>  (64) 
O=C(NCC(=O)N1CCCC1c1ccc(C(F)(F)F)cc1)c1ccc2cc(F)ccc2n1

>  <score_type>  (64) 
oracle

>  <origin>  (64) 
autodockgpu

>  <m_score__min__energy>  (64) 
-8.2899999999999991

>  <m_primary>  (64) 
energy

>  <rmsd>  (64) 
1.3283263899641489

>  <m_score__min__rmsd>  (64) 
1.3283263899641489

>  <meeko>  (64) 
{"free_energy": -7.72, "intermolecular_energy": -9.51, "internal_energy": -2.19, "cluster_size": 7, "cluster_id": 4, "rank_in_cluster": 1}

>  <energy>  (64) 
-8.2

>  <cluster_rmsd>  (64) 
0.41

>  <cluster>  (64) 
1

$$$$

     RDKit          3D

 51 54  0  0  0  0  0  0  0  0999 V2000
  138.1880   70.6050  221.6440 O   0  0  0  0  0  0  0  0  0  0  0  0
  138.7850   71.1340  222.6150 C   0  0  0  0  0  0  0  0  0  0  0  0
  139.1360   72.5000  222.6320 N   0  0  0  0  0  0  0  0  0  0  0  0
  138.8120   73.3510  221.5110 C   0  0  0  0  0  0  0  0  0  0  0  0
  139.8170   74.4490  221.3780 C   0  0  0  0  0  0  0  0  0  0  0  0
  140.6350   74.5690  222.3280 O   0  0  0  0  0  0  0  0  0  0  0  0
  139.8080   75.2780  220.2320 N   0  0  0  0  0  0  0  0  0  0  0  0
  138.8150   76.3180  219.9340 C   0  0  0  0  0  0  0  0  0  0  0  0
  139.4820   77.2620  218.9760 C   0  0  0  0  0  0  0  0  0  0  0  0
  140.8260   76.6860  218.6520 C   0  0  0  0  0  0  0  0  0  0  0  0
  140.7530   75.2600  219.1580 C   0  0  1  0  0  0  0  0  0  0  0  0
  142.1170   74.7820  219.5840 C   0  0  0  0  0  0  0  0  0  0  0  0
  142.3380   73.4400  219.8620 C   0  0  0  0  0  0  0  0  0  0  0  0
  143.5690   72.9580  220.2540 C   0  0  0  0  0  0  0  0  0  0  0  0
  144.6340   73.8290  220.3810 C   0  0  0  0  0  0  0  0  0  0  0  0
  145.9650   73.3210  220.8030 C   0  0  0  0  0  0  0  0  0  0  0  0
  146.9960   74.1140  220.3320 F   0  0  0  0  0  0  0  0  0  0  0  0
  146.2070   72.0260  220.3800 F   0  0  0  0  0  0  0  0  0  0  0  0
  146.0490   73.3220  222.1800 F   0  0  0  0  0  0  0  0  0  0  0  0
  144.4290   75.1680  220.1070 C   0  0  0  0  0  0  0  0  0  0  0  0
  143.1810   75.6550  219.7100 C   0  0  0  0  0  0  0  0  0  0  0  0
  139.1420   70.3180  223.7880 C   0  0  0  0  0  0  0  0  0  0  0  0
  138.8530   68.9670  223.8220 C   0  0  0  0  0  0  0  0  0  0  0  0
  139.1910   68.1930  224.9320 C   0  0  0  0  0  0  0  0  0  0  0  0
  139.8170   68.7760  226.0070 C   0  0  0  0  0  0  0  0  0  0  0  0
  140.1870   68.0930  227.1430 C   0  0  0  0  0  0  0  0  0  0  0  0
  140.8180   68.7640  228.1830 C   0  0  0  0  0  0  0  0  0  0  0  0
  141.1960   68.1210  229.3160 F   0  0  0  0  0  0  0  0  0  0  0  0
  141.0960   70.1180  228.1250 C   0  0  0  0  0  0  0  0  0  0  0  0
  140.7190   70.7940  226.9780 C   0  0  0  0  0  0  0  0  0  0  0  0
  140.0940   70.1250  225.9480 C   0  0  0  0  0  0  0  0  0  0  0  0
  139.7590   70.8570  224.8650 N   0  0  0  0  0  0  0  0  0  0  0  0
  139.6290   72.9030  223.4540 H   0  0  0  0  0  0  0  0  0  0  0  0
  138.8087   72.7500  220.5897 H   0  0  0  0  0  0  0  0  0  0  0  0
  137.8199   73.7959  221.6779 H   0  0  0  0  0  0  0  0  0  0  0  0
  137.9214   75.8726  219.4724 H   0  0  0  0  0  0  0  0  0  0  0  0
  138.4859   76.8354  220.8472 H   0  0  0  0  0  0  0  0  0  0  0  0
  138.8811   77.3561  218.0594 H   0  0  0  0  0  0  0  0  0  0  0  0
  139.5825   78.2634  219.4200 H   0  0  0  0  0  0  0  0  0  0  0  0
  141.0074   76.7059  217.5672 H   0  0  0  0  0  0  0  0  0  0  0  0
  141.6487   77.2537  219.1112 H   0  0  0  0  0  0  0  0  0  0  0  0
  140.4276   74.5526  218.3810 H   0  0  0  0  0  0  0  0  0  0  0  0
  141.4995   72.7345  219.7660 H   0  0  0  0  0  0  0  0  0  0  0  0
  143.7023   71.8866  220.4643 H   0  0  0  0  0  0  0  0  0  0  0  0
  145.2710   75.8692  220.2041 H   0  0  0  0  0  0  0  0  0  0  0  0
  143.0462   76.7262  219.4992 H   0  0  0  0  0  0  0  0  0  0  0  0
  138.3506   68.4967  222.9638 H   0  0  0  0  0  0  0  0  0  0  0  0
  138.9569   67.1183  224.9466 H   0  0  0  0  0  0  0  0  0  0  0  0
  139.9830   67.0154  227.2276 H   0  0  0  0  0  0  0  0  0  0  0  0
  141.5962   70.6359  228.9566 H   0  0  0  0  0  0  0  0  0  0  0  0
  140.9194   71.8718  226.8878 H   0  0  0  0  0  0  0  0  0  0  0  0
  1  2  2  0
  2  3  1  0
  3  4  1  0
  4  5  1  0
  5  6  2  0
  5  7  1  0
  7  8  1  0
  8  9  1  0
  9 10  1  0
 10 11  1  0
 11 12  1  0
 12 13  2  0
 13 14  1  0
 14 15  2  0
 15 16  1  0
 16 17  1  0
 16 18  1  0
 16 19  1  0
 15 20  1  0
 20 21  2  0
  2 22  1  0
 22 23  2  0
 23 24  1  0
 24 25  2  0
 25 26  1  0
 26 27  2  0
 27 28  1  0
 27 29  1  0
 29 30  2  0
 30 31  1  0
 31 32  2  0
 11  7  1  0
 21 12  1  0
 32 22  1  0
 31 25  1  0
  3 33  1  0
  4 34  1  0
  4 35  1  0
  8 36  1  0
  8 37  1  0
  9 38  1  0
  9 39  1  0
 10 40  1  0
 10 41  1  0
 11 42  1  6
 13 43  1  0
 14 44  1  0
 20 45  1  0
 21 46  1  0
 23 47  1  0
 24 48  1  0
 26 49  1  0
 29 50  1  0
 30 51  1  0
M  END
>  <smiles>  (65) 
O=C(NCC(=O)N1CCCC1c1ccc(C(F)(F)F)cc1)c1ccc2cc(F)ccc2n1

>  <score_type>  (65) 
oracle

>  <origin>  (65) 
autodockgpu

>  <m_score__min__energy>  (65) 
-8.2899999999999991

>  <m_primary>  (65) 
energy

>  <rmsd>  (65) 
1.3513726375169797

>  <m_score__min__rmsd>  (65) 
1.3513726375169797

>  <meeko>  (65) 
{"free_energy": -7.7, "intermolecular_energy": -9.49, "internal_energy": -2.15, "cluster_size": 7, "cluster_id": 4, "rank_in_cluster": 3}

>  <energy>  (65) 
-8.2

>  <cluster_rmsd>  (65) 
0.43

>  <cluster>  (65) 
1

$$$$

     RDKit          3D

 51 54  0  0  0  0  0  0  0  0999 V2000
  141.0150   71.7240  221.2000 O   0  0  0  0  0  0  0  0  0  0  0  0
  140.4490   72.2140  222.2090 C   0  0  0  0  0  0  0  0  0  0  0  0
  140.0250   73.5580  222.2580 N   0  0  0  0  0  0  0  0  0  0  0  0
  140.2320   74.4310  221.1250 C   0  0  0  0  0  0  0  0  0  0  0  0
  140.5170   75.8250  221.5820 C   0  0  0  0  0  0  0  0  0  0  0  0
  139.9950   76.1670  222.6760 O   0  0  0  0  0  0  0  0  0  0  0  0
  141.3310   76.6730  220.7950 N   0  0  0  0  0  0  0  0  0  0  0  0
  142.0240   76.2900  219.5590 C   0  0  0  0  0  0  0  0  0  0  0  0
  142.2750   77.5690  218.8140 C   0  0  0  0  0  0  0  0  0  0  0  0
  141.8120   78.6900  219.6940 C   0  0  0  0  0  0  0  0  0  0  0  0
  141.6320   78.0470  221.0530 C   0  0  1  0  0  0  0  0  0  0  0  0
  140.5470   78.7500  221.8270 C   0  0  0  0  0  0  0  0  0  0  0  0
  140.7980   79.2470  223.0990 C   0  0  0  0  0  0  0  0  0  0  0  0
  139.8360   79.8980  223.8430 C   0  0  0  0  0  0  0  0  0  0  0  0
  138.5690   80.0680  223.3210 C   0  0  0  0  0  0  0  0  0  0  0  0
  137.5240   80.7670  224.1130 C   0  0  0  0  0  0  0  0  0  0  0  0
  136.2740   80.2030  223.9360 F   0  0  0  0  0  0  0  0  0  0  0  0
  137.4240   82.1120  223.8070 F   0  0  0  0  0  0  0  0  0  0  0  0
  137.8220   80.6770  225.4580 F   0  0  0  0  0  0  0  0  0  0  0  0
  138.3040   79.5780  222.0560 C   0  0  0  0  0  0  0  0  0  0  0  0
  139.2790   78.9200  221.3020 C   0  0  0  0  0  0  0  0  0  0  0  0
  140.2080   71.3740  223.3950 C   0  0  0  0  0  0  0  0  0  0  0  0
  139.5450   70.1670  223.2820 C   0  0  0  0  0  0  0  0  0  0  0  0
  139.3170   69.3710  224.4030 C   0  0  0  0  0  0  0  0  0  0  0  0
  139.7550   69.7870  225.6370 C   0  0  0  0  0  0  0  0  0  0  0  0
  139.5750   69.0690  226.7980 C   0  0  0  0  0  0  0  0  0  0  0  0
  140.0530   69.5670  228.0040 C   0  0  0  0  0  0  0  0  0  0  0  0
  139.8930   68.8850  229.1650 F   0  0  0  0  0  0  0  0  0  0  0  0
  140.7150   70.7790  228.0910 C   0  0  0  0  0  0  0  0  0  0  0  0
  140.8890   71.4910  226.9180 C   0  0  0  0  0  0  0  0  0  0  0  0
  140.4140   70.9950  225.7230 C   0  0  0  0  0  0  0  0  0  0  0  0
  140.6250   71.7500  224.6260 N   0  0  0  0  0  0  0  0  0  0  0  0
  139.5580   73.9290  223.1090 H   0  0  0  0  0  0  0  0  0  0  0  0
  141.0841   74.0623  220.5352 H   0  0  0  0  0  0  0  0  0  0  0  0
  139.3196   74.4381  220.5107 H   0  0  0  0  0  0  0  0  0  0  0  0
  142.9757   75.7906  219.7931 H   0  0  0  0  0  0  0  0  0  0  0  0
  141.4254   75.5861  218.9622 H   0  0  0  0  0  0  0  0  0  0  0  0
  143.3486   77.6763  218.5997 H   0  0  0  0  0  0  0  0  0  0  0  0
  141.7358   77.5758  217.8552 H   0  0  0  0  0  0  0  0  0  0  0  0
  142.5669   79.4888  219.7375 H   0  0  0  0  0  0  0  0  0  0  0  0
  140.8885   79.1605  219.3254 H   0  0  0  0  0  0  0  0  0  0  0  0
  142.5330   78.1243  221.6793 H   0  0  0  0  0  0  0  0  0  0  0  0
  141.8018   79.1167  223.5296 H   0  0  0  0  0  0  0  0  0  0  0  0
  140.0768   80.2795  224.8463 H   0  0  0  0  0  0  0  0  0  0  0  0
  137.2979   79.7097  221.6313 H   0  0  0  0  0  0  0  0  0  0  0  0
  139.0397   78.5399  220.2979 H   0  0  0  0  0  0  0  0  0  0  0  0
  139.1930   69.8304  222.2957 H   0  0  0  0  0  0  0  0  0  0  0  0
  138.7878   68.4122  224.3001 H   0  0  0  0  0  0  0  0  0  0  0  0
  139.0528   68.1012  226.7708 H   0  0  0  0  0  0  0  0  0  0  0  0
  141.0874   71.1604  229.0532 H   0  0  0  0  0  0  0  0  0  0  0  0
  141.4100   72.4596  226.9390 H   0  0  0  0  0  0  0  0  0  0  0  0
  1  2  2  0
  2  3  1  0
  3  4  1  0
  4  5  1  0
  5  6  2  0
  5  7  1  0
  7  8  1  0
  8  9  1  0
  9 10  1  0
 10 11  1  0
 11 12  1  0
 12 13  2  0
 13 14  1  0
 14 15  2  0
 15 16  1  0
 16 17  1  0
 16 18  1  0
 16 19  1  0
 15 20  1  0
 20 21  2  0
  2 22  1  0
 22 23  2  0
 23 24  1  0
 24 25  2  0
 25 26  1  0
 26 27  2  0
 27 28  1  0
 27 29  1  0
 29 30  2  0
 30 31  1  0
 31 32  2  0
 11  7  1  0
 21 12  1  0
 32 22  1  0
 31 25  1  0
  3 33  1  0
  4 34  1  0
  4 35  1  0
  8 36  1  0
  8 37  1  0
  9 38  1  0
  9 39  1  0
 10 40  1  0
 10 41  1  0
 11 42  1  1
 13 43  1  0
 14 44  1  0
 20 45  1  0
 21 46  1  0
 23 47  1  0
 24 48  1  0
 26 49  1  0
 29 50  1  0
 30 51  1  0
M  END
>  <smiles>  (66) 
O=C(NCC(=O)N1CCCC1c1ccc(C(F)(F)F)cc1)c1ccc2cc(F)ccc2n1

>  <score_type>  (66) 
oracle

>  <origin>  (66) 
autodockgpu

>  <m_score__min__energy>  (66) 
-8.2899999999999991

>  <m_primary>  (66) 
energy

>  <rmsd>  (66) 
2.0056459627878427

>  <m_score__min__rmsd>  (66) 
2.0056459627878427

>  <meeko>  (66) 
{"free_energy": -8.2, "intermolecular_energy": -9.99, "internal_energy": -1.76, "cluster_size": 28, "cluster_id": 1, "rank_in_cluster": 15}

>  <energy>  (66) 
-8.2

>  <cluster_rmsd>  (66) 
0.42

>  <cluster>  (66) 
1

$$$$

     RDKit          3D

 51 54  0  0  0  0  0  0  0  0999 V2000
  140.9780   71.7300  221.1500 O   0  0  0  0  0  0  0  0  0  0  0  0
  140.4300   72.2110  222.1730 C   0  0  0  0  0  0  0  0  0  0  0  0
  140.0140   73.5570  222.2450 N   0  0  0  0  0  0  0  0  0  0  0  0
  140.2080   74.4420  221.1200 C   0  0  0  0  0  0  0  0  0  0  0  0
  140.5320   75.8230  221.5890 C   0  0  0  0  0  0  0  0  0  0  0  0
  140.0460   76.1590  222.7020 O   0  0  0  0  0  0  0  0  0  0  0  0
  141.3400   76.6680  220.7920 N   0  0  0  0  0  0  0  0  0  0  0  0
  142.0220   76.2800  219.5520 C   0  0  0  0  0  0  0  0  0  0  0  0
  142.2680   77.5570  218.8000 C   0  0  0  0  0  0  0  0  0  0  0  0
  141.8130   78.6810  219.6800 C   0  0  0  0  0  0  0  0  0  0  0  0
  141.6430   78.0430  221.0420 C   0  0  1  0  0  0  0  0  0  0  0  0
  140.5650   78.7490  221.8230 C   0  0  0  0  0  0  0  0  0  0  0  0
  140.8160   79.2190  223.1060 C   0  0  0  0  0  0  0  0  0  0  0  0
  139.8600   79.8720  223.8560 C   0  0  0  0  0  0  0  0  0  0  0  0
  138.6000   80.0720  223.3290 C   0  0  0  0  0  0  0  0  0  0  0  0
  137.5610   80.7740  224.1280 C   0  0  0  0  0  0  0  0  0  0  0  0
  136.3730   80.0680  224.1690 F   0  0  0  0  0  0  0  0  0  0  0  0
  137.2790   82.0420  223.6520 F   0  0  0  0  0  0  0  0  0  0  0  0
  137.9940   80.9160  225.4300 F   0  0  0  0  0  0  0  0  0  0  0  0
  138.3350   79.6100  222.0530 C   0  0  0  0  0  0  0  0  0  0  0  0
  139.3040   78.9500  221.2940 C   0  0  0  0  0  0  0  0  0  0  0  0
  140.2040   71.3580  223.3530 C   0  0  0  0  0  0  0  0  0  0  0  0
  139.5440   70.1500  223.2330 C   0  0  0  0  0  0  0  0  0  0  0  0
  139.3290   69.3410  224.3490 C   0  0  0  0  0  0  0  0  0  0  0  0
  139.7770   69.7460  225.5830 C   0  0  0  0  0  0  0  0  0  0  0  0
  139.6110   69.0160  226.7380 C   0  0  0  0  0  0  0  0  0  0  0  0
  140.0980   69.5030  227.9450 C   0  0  0  0  0  0  0  0  0  0  0  0
  139.9510   68.8080  229.1000 F   0  0  0  0  0  0  0  0  0  0  0  0
  140.7550   70.7170  228.0380 C   0  0  0  0  0  0  0  0  0  0  0  0
  140.9160   71.4420  226.8700 C   0  0  0  0  0  0  0  0  0  0  0  0
  140.4320   70.9560  225.6750 C   0  0  0  0  0  0  0  0  0  0  0  0
  140.6300   71.7240  224.5840 N   0  0  0  0  0  0  0  0  0  0  0  0
  139.5630   73.9200  223.1080 H   0  0  0  0  0  0  0  0  0  0  0  0
  141.0370   74.0658  220.5025 H   0  0  0  0  0  0  0  0  0  0  0  0
  139.2800   74.4756  220.5303 H   0  0  0  0  0  0  0  0  0  0  0  0
  142.9752   75.7805  219.7799 H   0  0  0  0  0  0  0  0  0  0  0  0
  141.4178   75.5745  218.9627 H   0  0  0  0  0  0  0  0  0  0  0  0
  143.3399   77.6628  218.5766 H   0  0  0  0  0  0  0  0  0  0  0  0
  141.7211   77.5609  217.8456 H   0  0  0  0  0  0  0  0  0  0  0  0
  142.5690   79.4792  219.7150 H   0  0  0  0  0  0  0  0  0  0  0  0
  140.8871   79.1510  219.3171 H   0  0  0  0  0  0  0  0  0  0  0  0
  142.5491   78.1225  221.6606 H   0  0  0  0  0  0  0  0  0  0  0  0
  141.8148   79.0646  223.5402 H   0  0  0  0  0  0  0  0  0  0  0  0
  140.1002   80.2311  224.8676 H   0  0  0  0  0  0  0  0  0  0  0  0
  137.3342   79.7665  221.6242 H   0  0  0  0  0  0  0  0  0  0  0  0
  139.0651   78.5924  220.2816 H   0  0  0  0  0  0  0  0  0  0  0  0
  139.1841   69.8226  222.2465 H   0  0  0  0  0  0  0  0  0  0  0  0
  138.8022   68.3814  224.2412 H   0  0  0  0  0  0  0  0  0  0  0  0
  139.0925   68.0464  226.7056 H   0  0  0  0  0  0  0  0  0  0  0  0
  141.1339   71.0907  229.0007 H   0  0  0  0  0  0  0  0  0  0  0  0
  141.4336   72.4123  226.8959 H   0  0  0  0  0  0  0  0  0  0  0  0
  1  2  2  0
  2  3  1  0
  3  4  1  0
  4  5  1  0
  5  6  2  0
  5  7  1  0
  7  8  1  0
  8  9  1  0
  9 10  1  0
 10 11  1  0
 11 12  1  0
 12 13  2  0
 13 14  1  0
 14 15  2  0
 15 16  1  0
 16 17  1  0
 16 18  1  0
 16 19  1  0
 15 20  1  0
 20 21  2  0
  2 22  1  0
 22 23  2  0
 23 24  1  0
 24 25  2  0
 25 26  1  0
 26 27  2  0
 27 28  1  0
 27 29  1  0
 29 30  2  0
 30 31  1  0
 31 32  2  0
 11  7  1  0
 21 12  1  0
 32 22  1  0
 31 25  1  0
  3 33  1  0
  4 34  1  0
  4 35  1  0
  8 36  1  0
  8 37  1  0
  9 38  1  0
  9 39  1  0
 10 40  1  0
 10 41  1  0
 11 42  1  1
 13 43  1  0
 14 44  1  0
 20 45  1  0
 21 46  1  0
 23 47  1  0
 24 48  1  0
 26 49  1  0
 29 50  1  0
 30 51  1  0
M  END
>  <smiles>  (67) 
O=C(NCC(=O)N1CCCC1c1ccc(C(F)(F)F)cc1)c1ccc2cc(F)ccc2n1

>  <score_type>  (67) 
oracle

>  <origin>  (67) 
autodockgpu

>  <m_score__min__energy>  (67) 
-8.2899999999999991

>  <m_primary>  (67) 
energy

>  <rmsd>  (67) 
1.9879961420993741

>  <m_score__min__rmsd>  (67) 
1.9879961420993741

>  <meeko>  (67) 
{"free_energy": -8.21, "intermolecular_energy": -10.0, "internal_energy": -1.76, "cluster_size": 28, "cluster_id": 1, "rank_in_cluster": 10}

>  <energy>  (67) 
-8.2

>  <cluster_rmsd>  (67) 
0.41

>  <cluster>  (67) 
1

$$$$

     RDKit          3D

 51 54  0  0  0  0  0  0  0  0999 V2000
  138.7770   71.2100  221.3530 O   0  0  0  0  0  0  0  0  0  0  0  0
  139.2380   71.6720  222.4270 C   0  0  0  0  0  0  0  0  0  0  0  0
  139.5660   73.0350  222.5840 N   0  0  0  0  0  0  0  0  0  0  0  0
  139.3760   73.9610  221.4920 C   0  0  0  0  0  0  0  0  0  0  0  0
  139.2700   75.3610  222.0050 C   0  0  0  0  0  0  0  0  0  0  0  0
  140.2900   75.8160  222.5880 O   0  0  0  0  0  0  0  0  0  0  0  0
  138.0730   76.0920  221.8210 N   0  0  0  0  0  0  0  0  0  0  0  0
  136.7130   75.5490  221.9280 C   0  0  0  0  0  0  0  0  0  0  0  0
  135.8210   76.7240  222.2070 C   0  0  0  0  0  0  0  0  0  0  0  0
  136.6780   77.9520  222.1500 C   0  0  0  0  0  0  0  0  0  0  0  0
  137.9620   77.4810  221.5000 C   0  0  1  0  0  0  0  0  0  0  0  0
  139.1310   78.2930  221.9930 C   0  0  0  0  0  0  0  0  0  0  0  0
  140.2350   78.5070  221.1790 C   0  0  0  0  0  0  0  0  0  0  0  0
  141.3260   79.2450  221.5890 C   0  0  0  0  0  0  0  0  0  0  0  0
  141.3390   79.7980  222.8540 C   0  0  0  0  0  0  0  0  0  0  0  0
  142.5090   80.5940  223.3070 C   0  0  0  0  0  0  0  0  0  0  0  0
  143.5780   80.4880  222.4360 F   0  0  0  0  0  0  0  0  0  0  0  0
  142.9560   80.2300  224.5650 F   0  0  0  0  0  0  0  0  0  0  0  0
  142.1670   81.9290  223.3680 F   0  0  0  0  0  0  0  0  0  0  0  0
  140.2470   79.5930  223.6770 C   0  0  0  0  0  0  0  0  0  0  0  0
  139.1420   78.8460  223.2610 C   0  0  0  0  0  0  0  0  0  0  0  0
  139.4540   70.7770  223.5770 C   0  0  0  0  0  0  0  0  0  0  0  0
  139.0750   69.4490  223.5170 C   0  0  0  0  0  0  0  0  0  0  0  0
  139.2780   68.6000  224.6050 C   0  0  0  0  0  0  0  0  0  0  0  0
  139.8620   69.0850  225.7500 C   0  0  0  0  0  0  0  0  0  0  0  0
  140.1020   68.3220  226.8710 C   0  0  0  0  0  0  0  0  0  0  0  0
  140.6980   68.8970  227.9880 C   0  0  0  0  0  0  0  0  0  0  0  0
  140.9490   68.1740  229.1070 F   0  0  0  0  0  0  0  0  0  0  0  0
  141.0680   70.2290  228.0210 C   0  0  0  0  0  0  0  0  0  0  0  0
  140.8220   70.9850  226.8890 C   0  0  0  0  0  0  0  0  0  0  0  0
  140.2310   70.4130  225.7840 C   0  0  0  0  0  0  0  0  0  0  0  0
  140.0250   71.2180  224.7210 N   0  0  0  0  0  0  0  0  0  0  0  0
  139.9450   73.3810  223.4870 H   0  0  0  0  0  0  0  0  0  0  0  0
  140.2323   73.8911  220.8050 H   0  0  0  0  0  0  0  0  0  0  0  0
  138.4452   73.7037  220.9653 H   0  0  0  0  0  0  0  0  0  0  0  0
  136.4204   75.0618  220.9862 H   0  0  0  0  0  0  0  0  0  0  0  0
  136.6423   74.7910  222.7220 H   0  0  0  0  0  0  0  0  0  0  0  0
  135.0265   76.7829  221.4485 H   0  0  0  0  0  0  0  0  0  0  0  0
  135.3422   76.6264  223.1925 H   0  0  0  0  0  0  0  0  0  0  0  0
  136.1983   78.7344  221.5436 H   0  0  0  0  0  0  0  0  0  0  0  0
  136.8467   78.3938  223.1432 H   0  0  0  0  0  0  0  0  0  0  0  0
  137.9556   77.6160  220.4083 H   0  0  0  0  0  0  0  0  0  0  0  0
  140.2400   78.0716  220.1688 H   0  0  0  0  0  0  0  0  0  0  0  0
  142.1805   79.3920  220.9121 H   0  0  0  0  0  0  0  0  0  0  0  0
  140.2482   80.0298  224.6865 H   0  0  0  0  0  0  0  0  0  0  0  0
  138.2868   78.6986  223.9370 H   0  0  0  0  0  0  0  0  0  0  0  0
  138.6082   69.0574  222.6012 H   0  0  0  0  0  0  0  0  0  0  0  0
  138.9714   67.5452  224.5463 H   0  0  0  0  0  0  0  0  0  0  0  0
  139.8224   67.2582  226.8828 H   0  0  0  0  0  0  0  0  0  0  0  0
  141.5391   70.6698  228.9119 H   0  0  0  0  0  0  0  0  0  0  0  0
  141.1000   72.0492  226.8711 H   0  0  0  0  0  0  0  0  0  0  0  0
  1  2  2  0
  2  3  1  0
  3  4  1  0
  4  5  1  0
  5  6  2  0
  5  7  1  0
  7  8  1  0
  8  9  1  0
  9 10  1  0
 10 11  1  0
 11 12  1  0
 12 13  2  0
 13 14  1  0
 14 15  2  0
 15 16  1  0
 16 17  1  0
 16 18  1  0
 16 19  1  0
 15 20  1  0
 20 21  2  0
  2 22  1  0
 22 23  2  0
 23 24  1  0
 24 25  2  0
 25 26  1  0
 26 27  2  0
 27 28  1  0
 27 29  1  0
 29 30  2  0
 30 31  1  0
 31 32  2  0
 11  7  1  0
 21 12  1  0
 32 22  1  0
 31 25  1  0
  3 33  1  0
  4 34  1  0
  4 35  1  0
  8 36  1  0
  8 37  1  0
  9 38  1  0
  9 39  1  0
 10 40  1  0
 10 41  1  0
 11 42  1  6
 13 43  1  0
 14 44  1  0
 20 45  1  0
 21 46  1  0
 23 47  1  0
 24 48  1  0
 26 49  1  0
 29 50  1  0
 30 51  1  0
M  END
>  <smiles>  (68) 
O=C(NCC(=O)N1CCCC1c1ccc(C(F)(F)F)cc1)c1ccc2cc(F)ccc2n1

>  <score_type>  (68) 
oracle

>  <origin>  (68) 
autodockgpu

>  <m_score__min__energy>  (68) 
-8.2899999999999991

>  <m_primary>  (68) 
energy

>  <rmsd>  (68) 
2.887692273476792

>  <m_score__min__rmsd>  (68) 
2.887692273476792

>  <meeko>  (68) 
{"free_energy": -7.87, "intermolecular_energy": -9.66, "internal_energy": -1.72, "cluster_size": 4, "cluster_id": 2, "rank_in_cluster": 3}

>  <energy>  (68) 
-8.2

>  <cluster_rmsd>  (68) 
0.43

>  <cluster>  (68) 
1

$$$$

     RDKit          3D

 51 54  0  0  0  0  0  0  0  0999 V2000
  133.5500   70.0720  226.8180 O   0  0  0  0  0  0  0  0  0  0  0  0
  133.8170   71.1520  226.2320 C   0  0  0  0  0  0  0  0  0  0  0  0
  134.7190   71.2200  225.1500 N   0  0  0  0  0  0  0  0  0  0  0  0
  135.3780   70.0260  224.6720 C   0  0  0  0  0  0  0  0  0  0  0  0
  136.4310   70.3730  223.6700 C   0  0  0  0  0  0  0  0  0  0  0  0
  136.5780   71.6000  223.4230 O   0  0  0  0  0  0  0  0  0  0  0  0
  137.1920   69.3480  223.0620 N   0  0  0  0  0  0  0  0  0  0  0  0
  137.0220   68.8540  221.6890 C   0  0  0  0  0  0  0  0  0  0  0  0
  138.3290   68.2170  221.3160 C   0  0  0  0  0  0  0  0  0  0  0  0
  139.2040   68.2600  222.5320 C   0  0  0  0  0  0  0  0  0  0  0  0
  138.2560   68.6050  223.6610 C   0  0  1  0  0  0  0  0  0  0  0  0
  138.9770   69.3760  224.7370 C   0  0  0  0  0  0  0  0  0  0  0  0
  138.8930   68.9800  226.0650 C   0  0  0  0  0  0  0  0  0  0  0  0
  139.5370   69.6550  227.0810 C   0  0  0  0  0  0  0  0  0  0  0  0
  140.2970   70.7690  226.7850 C   0  0  0  0  0  0  0  0  0  0  0  0
  140.9950   71.5050  227.8720 C   0  0  0  0  0  0  0  0  0  0  0  0
  141.8200   72.5000  227.3790 F   0  0  0  0  0  0  0  0  0  0  0  0
  141.7660   70.6810  228.6720 F   0  0  0  0  0  0  0  0  0  0  0  0
  140.0680   72.1160  228.6900 F   0  0  0  0  0  0  0  0  0  0  0  0
  140.3910   71.1750  225.4670 C   0  0  0  0  0  0  0  0  0  0  0  0
  139.7390   70.4910  224.4380 C   0  0  0  0  0  0  0  0  0  0  0  0
  133.1770   72.4030  226.6730 C   0  0  0  0  0  0  0  0  0  0  0  0
  131.9550   72.3810  227.3170 C   0  0  0  0  0  0  0  0  0  0  0  0
  131.3480   73.5640  227.7360 C   0  0  0  0  0  0  0  0  0  0  0  0
  131.9680   74.7690  227.5070 C   0  0  0  0  0  0  0  0  0  0  0  0
  131.4450   75.9850  227.8830 C   0  0  0  0  0  0  0  0  0  0  0  0
  132.1430   77.1560  227.6110 C   0  0  0  0  0  0  0  0  0  0  0  0
  131.6570   78.3700  227.9680 F   0  0  0  0  0  0  0  0  0  0  0  0
  133.3660   77.1510  226.9640 C   0  0  0  0  0  0  0  0  0  0  0  0
  133.8810   75.9220  226.5900 C   0  0  0  0  0  0  0  0  0  0  0  0
  133.1870   74.7640  226.8620 C   0  0  0  0  0  0  0  0  0  0  0  0
  133.7570   73.6070  226.4650 N   0  0  0  0  0  0  0  0  0  0  0  0
  134.9150   72.1310  224.6890 H   0  0  0  0  0  0  0  0  0  0  0  0
  135.8445   69.5056  225.5215 H   0  0  0  0  0  0  0  0  0  0  0  0
  134.6314   69.3763  224.1920 H   0  0  0  0  0  0  0  0  0  0  0  0
  136.2096   68.1135  221.6466 H   0  0  0  0  0  0  0  0  0  0  0  0
  136.7571   69.6672  220.9972 H   0  0  0  0  0  0  0  0  0  0  0  0
  138.1655   67.1744  221.0056 H   0  0  0  0  0  0  0  0  0  0  0  0
  138.7989   68.7508  220.4768 H   0  0  0  0  0  0  0  0  0  0  0  0
  139.6783   67.2828  222.7059 H   0  0  0  0  0  0  0  0  0  0  0  0
  140.0246   68.9861  222.4346 H   0  0  0  0  0  0  0  0  0  0  0  0
  137.8556   67.7115  224.1624 H   0  0  0  0  0  0  0  0  0  0  0  0
  138.2903   68.0948  226.3164 H   0  0  0  0  0  0  0  0  0  0  0  0
  139.4456   69.3078  228.1208 H   0  0  0  0  0  0  0  0  0  0  0  0
  140.9956   72.0606  225.2217 H   0  0  0  0  0  0  0  0  0  0  0  0
  139.8309   70.8366  223.3978 H   0  0  0  0  0  0  0  0  0  0  0  0
  131.4550   71.4187  227.5014 H   0  0  0  0  0  0  0  0  0  0  0  0
  130.3752   73.5331  228.2486 H   0  0  0  0  0  0  0  0  0  0  0  0
  130.4745   76.0304  228.3988 H   0  0  0  0  0  0  0  0  0  0  0  0
  133.9070   78.0858  226.7554 H   0  0  0  0  0  0  0  0  0  0  0  0
  134.8503   75.8699  226.0725 H   0  0  0  0  0  0  0  0  0  0  0  0
  1  2  2  0
  2  3  1  0
  3  4  1  0
  4  5  1  0
  5  6  2  0
  5  7  1  0
  7  8  1  0
  8  9  1  0
  9 10  1  0
 10 11  1  0
 11 12  1  0
 12 13  2  0
 13 14  1  0
 14 15  2  0
 15 16  1  0
 16 17  1  0
 16 18  1  0
 16 19  1  0
 15 20  1  0
 20 21  2  0
  2 22  1  0
 22 23  2  0
 23 24  1  0
 24 25  2  0
 25 26  1  0
 26 27  2  0
 27 28  1  0
 27 29  1  0
 29 30  2  0
 30 31  1  0
 31 32  2  0
 11  7  1  0
 21 12  1  0
 32 22  1  0
 31 25  1  0
  3 33  1  0
  4 34  1  0
  4 35  1  0
  8 36  1  0
  8 37  1  0
  9 38  1  0
  9 39  1  0
 10 40  1  0
 10 41  1  0
 11 42  1  1
 13 43  1  0
 14 44  1  0
 20 45  1  0
 21 46  1  0
 23 47  1  0
 24 48  1  0
 26 49  1  0
 29 50  1  0
 30 51  1  0
M  END
>  <smiles>  (69) 
O=C(NCC(=O)N1CCCC1c1ccc(C(F)(F)F)cc1)c1ccc2cc(F)ccc2n1

>  <score_type>  (69) 
oracle

>  <origin>  (69) 
autodockgpu

>  <m_score__min__energy>  (69) 
-8.2899999999999991

>  <m_primary>  (69) 
energy

>  <rmsd>  (69) 
8.83879002267914

>  <m_score__min__rmsd>  (69) 
8.83879002267914

>  <meeko>  (69) 
{"free_energy": -7.89, "intermolecular_energy": -9.68, "internal_energy": -2.19, "cluster_size": 5, "cluster_id": 3, "rank_in_cluster": 2}

>  <energy>  (69) 
-8.2

>  <cluster_rmsd>  (69) 
0.42

>  <cluster>  (69) 
1

$$$$

     RDKit          3D

 51 54  0  0  0  0  0  0  0  0999 V2000
  133.3410   70.0630  226.6810 O   0  0  0  0  0  0  0  0  0  0  0  0
  133.7020   71.1560  226.1760 C   0  0  0  0  0  0  0  0  0  0  0  0
  134.6670   71.2300  225.1490 N   0  0  0  0  0  0  0  0  0  0  0  0
  135.2820   70.0280  224.6370 C   0  0  0  0  0  0  0  0  0  0  0  0
  136.4460   70.3660  223.7620 C   0  0  0  0  0  0  0  0  0  0  0  0
  136.6870   71.5930  223.6100 O   0  0  0  0  0  0  0  0  0  0  0  0
  137.2010   69.3320  223.1610 N   0  0  0  0  0  0  0  0  0  0  0  0
  137.0420   68.8430  221.7860 C   0  0  0  0  0  0  0  0  0  0  0  0
  138.3460   68.1900  221.4280 C   0  0  0  0  0  0  0  0  0  0  0  0
  139.2060   68.2200  222.6540 C   0  0  0  0  0  0  0  0  0  0  0  0
  138.2490   68.5740  223.7720 C   0  0  1  0  0  0  0  0  0  0  0  0
  138.9660   69.3340  224.8580 C   0  0  0  0  0  0  0  0  0  0  0  0
  139.6440   70.5100  224.5660 C   0  0  0  0  0  0  0  0  0  0  0  0
  140.3120   71.2380  225.5280 C   0  0  0  0  0  0  0  0  0  0  0  0
  140.3210   70.7950  226.8360 C   0  0  0  0  0  0  0  0  0  0  0  0
  141.0390   71.5710  227.8810 C   0  0  0  0  0  0  0  0  0  0  0  0
  140.1670   72.2280  228.7290 F   0  0  0  0  0  0  0  0  0  0  0  0
  141.9020   72.5140  227.3540 F   0  0  0  0  0  0  0  0  0  0  0  0
  141.7940   70.7160  228.6570 F   0  0  0  0  0  0  0  0  0  0  0  0
  139.6510   69.6250  227.1420 C   0  0  0  0  0  0  0  0  0  0  0  0
  138.9730   68.8890  226.1670 C   0  0  0  0  0  0  0  0  0  0  0  0
  133.1100   72.4160  226.6560 C   0  0  0  0  0  0  0  0  0  0  0  0
  131.9100   72.4150  227.3410 C   0  0  0  0  0  0  0  0  0  0  0  0
  131.3490   73.6080  227.7970 C   0  0  0  0  0  0  0  0  0  0  0  0
  131.9920   74.7990  227.5630 C   0  0  0  0  0  0  0  0  0  0  0  0
  131.5140   76.0230  227.9740 C   0  0  0  0  0  0  0  0  0  0  0  0
  132.2330   77.1790  227.6950 C   0  0  0  0  0  0  0  0  0  0  0  0
  131.7910   78.4000  228.0860 F   0  0  0  0  0  0  0  0  0  0  0  0
  133.4330   77.1520  227.0060 C   0  0  0  0  0  0  0  0  0  0  0  0
  133.9030   75.9170  226.5980 C   0  0  0  0  0  0  0  0  0  0  0  0
  133.1880   74.7720  226.8770 C   0  0  0  0  0  0  0  0  0  0  0  0
  133.7150   73.6080  226.4450 N   0  0  0  0  0  0  0  0  0  0  0  0
  134.9400   72.1520  224.7540 H   0  0  0  0  0  0  0  0  0  0  0  0
  135.6296   69.4123  225.4796 H   0  0  0  0  0  0  0  0  0  0  0  0
  134.5399   69.4745  224.0429 H   0  0  0  0  0  0  0  0  0  0  0  0
  136.2210   68.1129  221.7321 H   0  0  0  0  0  0  0  0  0  0  0  0
  136.7960   69.6607  221.0925 H   0  0  0  0  0  0  0  0  0  0  0  0
  138.1733   67.1501  221.1138 H   0  0  0  0  0  0  0  0  0  0  0  0
  138.8329   68.7193  220.5957 H   0  0  0  0  0  0  0  0  0  0  0  0
  139.6663   67.2368  222.8315 H   0  0  0  0  0  0  0  0  0  0  0  0
  140.0362   68.9365  222.5682 H   0  0  0  0  0  0  0  0  0  0  0  0
  137.8318   67.6845  224.2667 H   0  0  0  0  0  0  0  0  0  0  0  0
  139.6484   70.8747  223.5282 H   0  0  0  0  0  0  0  0  0  0  0  0
  140.8348   72.1665  225.2550 H   0  0  0  0  0  0  0  0  0  0  0  0
  139.6518   69.2639  228.1810 H   0  0  0  0  0  0  0  0  0  0  0  0
  138.4481   67.9614  226.4391 H   0  0  0  0  0  0  0  0  0  0  0  0
  131.3915   71.4632  227.5288 H   0  0  0  0  0  0  0  0  0  0  0  0
  130.3940   73.5950  228.3427 H   0  0  0  0  0  0  0  0  0  0  0  0
  130.5630   76.0859  228.5232 H   0  0  0  0  0  0  0  0  0  0  0  0
  133.9905   78.0757  226.7915 H   0  0  0  0  0  0  0  0  0  0  0  0
  134.8529   75.8480  226.0477 H   0  0  0  0  0  0  0  0  0  0  0  0
  1  2  2  0
  2  3  1  0
  3  4  1  0
  4  5  1  0
  5  6  2  0
  5  7  1  0
  7  8  1  0
  8  9  1  0
  9 10  1  0
 10 11  1  0
 11 12  1  0
 12 13  2  0
 13 14  1  0
 14 15  2  0
 15 16  1  0
 16 17  1  0
 16 18  1  0
 16 19  1  0
 15 20  1  0
 20 21  2  0
  2 22  1  0
 22 23  2  0
 23 24  1  0
 24 25  2  0
 25 26  1  0
 26 27  2  0
 27 28  1  0
 27 29  1  0
 29 30  2  0
 30 31  1  0
 31 32  2  0
 11  7  1  0
 21 12  1  0
 32 22  1  0
 31 25  1  0
  3 33  1  0
  4 34  1  0
  4 35  1  0
  8 36  1  0
  8 37  1  0
  9 38  1  0
  9 39  1  0
 10 40  1  0
 10 41  1  0
 11 42  1  1
 13 43  1  0
 14 44  1  0
 20 45  1  0
 21 46  1  0
 23 47  1  0
 24 48  1  0
 26 49  1  0
 29 50  1  0
 30 51  1  0
M  END
>  <smiles>  (70) 
O=C(NCC(=O)N1CCCC1c1ccc(C(F)(F)F)cc1)c1ccc2cc(F)ccc2n1

>  <score_type>  (70) 
oracle

>  <origin>  (70) 
autodockgpu

>  <m_score__min__energy>  (70) 
-8.2899999999999991

>  <m_primary>  (70) 
energy

>  <rmsd>  (70) 
8.864421963267368

>  <m_score__min__rmsd>  (70) 
8.864421963267368

>  <meeko>  (70) 
{"free_energy": -7.85, "intermolecular_energy": -9.64, "internal_energy": -2.19, "cluster_size": 5, "cluster_id": 3, "rank_in_cluster": 4}

>  <energy>  (70) 
-8.2

>  <cluster_rmsd>  (70) 
0.44

>  <cluster>  (70) 
1

$$$$

     RDKit          3D

 51 54  0  0  0  0  0  0  0  0999 V2000
  140.3840   70.8090  221.7300 O   0  0  0  0  0  0  0  0  0  0  0  0
  140.1640   71.5780  222.7000 C   0  0  0  0  0  0  0  0  0  0  0  0
  139.7620   72.9180  222.5240 N   0  0  0  0  0  0  0  0  0  0  0  0
  139.5860   73.4590  221.1960 C   0  0  0  0  0  0  0  0  0  0  0  0
  139.6900   74.9500  221.2190 C   0  0  0  0  0  0  0  0  0  0  0  0
  139.7010   75.4870  222.3580 O   0  0  0  0  0  0  0  0  0  0  0  0
  139.7680   75.6700  220.0040 N   0  0  0  0  0  0  0  0  0  0  0  0
  138.9170   76.8050  219.6240 C   0  0  0  0  0  0  0  0  0  0  0  0
  139.6840   77.5640  218.5800 C   0  0  0  0  0  0  0  0  0  0  0  0
  140.9320   76.7850  218.2960 C   0  0  0  0  0  0  0  0  0  0  0  0
  140.6790   75.4320  218.9280 C   0  0  1  0  0  0  0  0  0  0  0  0
  141.9760   74.8130  219.3820 C   0  0  0  0  0  0  0  0  0  0  0  0
  143.0660   75.6120  219.6980 C   0  0  0  0  0  0  0  0  0  0  0  0
  144.2710   75.0890  220.1180 C   0  0  0  0  0  0  0  0  0  0  0  0
  144.4170   73.7200  220.2330 C   0  0  0  0  0  0  0  0  0  0  0  0
  145.7110   73.1450  220.6850 C   0  0  0  0  0  0  0  0  0  0  0  0
  146.7410   74.0650  220.6150 F   0  0  0  0  0  0  0  0  0  0  0  0
  146.0920   72.0340  219.9530 F   0  0  0  0  0  0  0  0  0  0  0  0
  145.6090   72.7490  222.0020 F   0  0  0  0  0  0  0  0  0  0  0  0
  143.3400   72.9120  219.9220 C   0  0  0  0  0  0  0  0  0  0  0  0
  142.1200   73.4430  219.4970 C   0  0  0  0  0  0  0  0  0  0  0  0
  140.3260   71.0840  224.0780 C   0  0  0  0  0  0  0  0  0  0  0  0
  140.9430   71.8630  225.0380 C   0  0  0  0  0  0  0  0  0  0  0  0
  141.0970   71.3980  226.3440 C   0  0  0  0  0  0  0  0  0  0  0  0
  140.6320   70.1500  226.6840 C   0  0  0  0  0  0  0  0  0  0  0  0
  140.7390   69.6080  227.9440 C   0  0  0  0  0  0  0  0  0  0  0  0
  140.2380   68.3360  228.1990 C   0  0  0  0  0  0  0  0  0  0  0  0
  140.3280   67.7740  229.4300 F   0  0  0  0  0  0  0  0  0  0  0  0
  139.6250   67.5770  227.2190 C   0  0  0  0  0  0  0  0  0  0  0  0
  139.5230   68.1320  225.9560 C   0  0  0  0  0  0  0  0  0  0  0  0
  140.0200   69.3930  225.7070 C   0  0  0  0  0  0  0  0  0  0  0  0
  139.8810   69.8620  224.4500 N   0  0  0  0  0  0  0  0  0  0  0  0
  139.5880   73.5250  223.3500 H   0  0  0  0  0  0  0  0  0  0  0  0
  140.3642   73.0522  220.5335 H   0  0  0  0  0  0  0  0  0  0  0  0
  138.5885   73.1780  220.8272 H   0  0  0  0  0  0  0  0  0  0  0  0
  137.9624   76.4461  219.2118 H   0  0  0  0  0  0  0  0  0  0  0  0
  138.6793   77.4392  220.4908 H   0  0  0  0  0  0  0  0  0  0  0  0
  139.0820   77.6589  217.6643 H   0  0  0  0  0  0  0  0  0  0  0  0
  139.9270   78.5773  218.9325 H   0  0  0  0  0  0  0  0  0  0  0  0
  141.0913   76.6854  217.2122 H   0  0  0  0  0  0  0  0  0  0  0  0
  141.8331   77.2738  218.6948 H   0  0  0  0  0  0  0  0  0  0  0  0
  140.2449   74.7104  218.2203 H   0  0  0  0  0  0  0  0  0  0  0  0
  142.9649   76.7038  219.6101 H   0  0  0  0  0  0  0  0  0  0  0  0
  145.1104   75.7575  220.3599 H   0  0  0  0  0  0  0  0  0  0  0  0
  143.4464   71.8208  220.0116 H   0  0  0  0  0  0  0  0  0  0  0  0
  141.2796   72.7756  219.2555 H   0  0  0  0  0  0  0  0  0  0  0  0
  141.3172   72.8618  224.7691 H   0  0  0  0  0  0  0  0  0  0  0  0
  141.5891   72.0281  227.0995 H   0  0  0  0  0  0  0  0  0  0  0  0
  141.2209   70.1809  228.7499 H   0  0  0  0  0  0  0  0  0  0  0  0
  139.2340   66.5718  227.4352 H   0  0  0  0  0  0  0  0  0  0  0  0
  139.0425   67.5637  225.1460 H   0  0  0  0  0  0  0  0  0  0  0  0
  1  2  2  0
  2  3  1  0
  3  4  1  0
  4  5  1  0
  5  6  2  0
  5  7  1  0
  7  8  1  0
  8  9  1  0
  9 10  1  0
 10 11  1  0
 11 12  1  0
 12 13  2  0
 13 14  1  0
 14 15  2  0
 15 16  1  0
 16 17  1  0
 16 18  1  0
 16 19  1  0
 15 20  1  0
 20 21  2  0
  2 22  1  0
 22 23  2  0
 23 24  1  0
 24 25  2  0
 25 26  1  0
 26 27  2  0
 27 28  1  0
 27 29  1  0
 29 30  2  0
 30 31  1  0
 31 32  2  0
 11  7  1  0
 21 12  1  0
 32 22  1  0
 31 25  1  0
  3 33  1  0
  4 34  1  0
  4 35  1  0
  8 36  1  0
  8 37  1  0
  9 38  1  0
  9 39  1  0
 10 40  1  0
 10 41  1  0
 11 42  1  6
 13 43  1  0
 14 44  1  0
 20 45  1  0
 21 46  1  0
 23 47  1  0
 24 48  1  0
 26 49  1  0
 29 50  1  0
 30 51  1  0
M  END
>  <smiles>  (71) 
O=C(NCC(=O)N1CCCC1c1ccc(C(F)(F)F)cc1)c1ccc2cc(F)ccc2n1

>  <score_type>  (71) 
oracle

>  <origin>  (71) 
autodockgpu

>  <m_score__min__energy>  (71) 
-8.2899999999999991

>  <m_primary>  (71) 
energy

>  <rmsd>  (71) 
2.708625026576135

>  <m_score__min__rmsd>  (71) 
2.708625026576135

>  <meeko>  (71) 
{"free_energy": -7.52, "intermolecular_energy": -9.31, "internal_energy": -1.99, "cluster_size": 7, "cluster_id": 4, "rank_in_cluster": 7}

>  <energy>  (71) 
-8.19

>  <cluster_rmsd>  (71) 
0.44

>  <cluster>  (71) 
1

$$$$

     RDKit          3D

 51 54  0  0  0  0  0  0  0  0999 V2000
  137.9560   76.1530  220.6200 O   0  0  0  0  0  0  0  0  0  0  0  0
  138.6360   76.1380  221.6770 C   0  0  0  0  0  0  0  0  0  0  0  0
  138.9520   74.9410  222.3530 N   0  0  0  0  0  0  0  0  0  0  0  0
  138.4950   73.6700  221.8400 C   0  0  0  0  0  0  0  0  0  0  0  0
  139.5260   72.6120  222.0640 C   0  0  0  0  0  0  0  0  0  0  0  0
  140.5320   72.9530  222.7420 O   0  0  0  0  0  0  0  0  0  0  0  0
  139.3390   71.3180  221.5240 N   0  0  0  0  0  0  0  0  0  0  0  0
  139.5380   70.9380  220.1200 C   0  0  0  0  0  0  0  0  0  0  0  0
  139.7680   69.4550  220.1230 C   0  0  0  0  0  0  0  0  0  0  0  0
  139.5890   68.9840  221.5340 C   0  0  0  0  0  0  0  0  0  0  0  0
  138.9230   70.1490  222.2350 C   0  0  1  0  0  0  0  0  0  0  0  0
  139.3100   70.1780  223.6910 C   0  0  0  0  0  0  0  0  0  0  0  0
  140.5370   70.6960  224.0840 C   0  0  0  0  0  0  0  0  0  0  0  0
  140.9310   70.7430  225.4050 C   0  0  0  0  0  0  0  0  0  0  0  0
  140.0890   70.2600  226.3870 C   0  0  0  0  0  0  0  0  0  0  0  0
  140.5040   70.3050  227.8130 C   0  0  0  0  0  0  0  0  0  0  0  0
  141.2730   71.4190  228.0950 F   0  0  0  0  0  0  0  0  0  0  0  0
  141.2250   69.1900  228.2010 F   0  0  0  0  0  0  0  0  0  0  0  0
  139.3870   70.3680  228.6200 F   0  0  0  0  0  0  0  0  0  0  0  0
  138.8640   69.7410  226.0100 C   0  0  0  0  0  0  0  0  0  0  0  0
  138.4650   69.6930  224.6720 C   0  0  0  0  0  0  0  0  0  0  0  0
  139.1320   77.4010  222.2480 C   0  0  0  0  0  0  0  0  0  0  0  0
  138.2510   78.3480  222.7350 C   0  0  0  0  0  0  0  0  0  0  0  0
  138.7180   79.5450  223.2770 C   0  0  0  0  0  0  0  0  0  0  0  0
  140.0690   79.7900  223.3280 C   0  0  0  0  0  0  0  0  0  0  0  0
  140.6220   80.9410  223.8440 C   0  0  0  0  0  0  0  0  0  0  0  0
  142.0020   81.1040  223.8570 C   0  0  0  0  0  0  0  0  0  0  0  0
  142.5780   82.2250  224.3580 F   0  0  0  0  0  0  0  0  0  0  0  0
  142.8620   80.1400  223.3630 C   0  0  0  0  0  0  0  0  0  0  0  0
  142.2950   78.9890  222.8470 C   0  0  0  0  0  0  0  0  0  0  0  0
  140.9270   78.8290  222.8360 C   0  0  0  0  0  0  0  0  0  0  0  0
  140.4550   77.6780  222.3160 N   0  0  0  0  0  0  0  0  0  0  0  0
  139.5180   74.9660  223.2240 H   0  0  0  0  0  0  0  0  0  0  0  0
  137.5661   73.3848  222.3556 H   0  0  0  0  0  0  0  0  0  0  0  0
  138.3153   73.7673  220.7592 H   0  0  0  0  0  0  0  0  0  0  0  0
  138.6454   71.1854  219.5266 H   0  0  0  0  0  0  0  0  0  0  0  0
  140.3860   71.4770  219.6724 H   0  0  0  0  0  0  0  0  0  0  0  0
  139.0398   68.9589  219.4644 H   0  0  0  0  0  0  0  0  0  0  0  0
  140.7764   69.2146  219.7551 H   0  0  0  0  0  0  0  0  0  0  0  0
  138.9483   68.0905  221.5683 H   0  0  0  0  0  0  0  0  0  0  0  0
  140.5406   68.6977  222.0057 H   0  0  0  0  0  0  0  0  0  0  0  0
  137.8256   70.0743  222.2282 H   0  0  0  0  0  0  0  0  0  0  0  0
  141.2199   71.0831  223.3134 H   0  0  0  0  0  0  0  0  0  0  0  0
  141.9111   71.1632  225.6749 H   0  0  0  0  0  0  0  0  0  0  0  0
  138.1851   69.3554  226.7848 H   0  0  0  0  0  0  0  0  0  0  0  0
  137.4854   69.2723  224.4009 H   0  0  0  0  0  0  0  0  0  0  0  0
  137.1688   78.1553  222.6946 H   0  0  0  0  0  0  0  0  0  0  0  0
  138.0071   80.2907  223.6624 H   0  0  0  0  0  0  0  0  0  0  0  0
  139.9711   81.7315  224.2459 H   0  0  0  0  0  0  0  0  0  0  0  0
  143.9525   80.2830  223.3799 H   0  0  0  0  0  0  0  0  0  0  0  0
  142.9410   78.1958  222.4426 H   0  0  0  0  0  0  0  0  0  0  0  0
  1  2  2  0
  2  3  1  0
  3  4  1  0
  4  5  1  0
  5  6  2  0
  5  7  1  0
  7  8  1  0
  8  9  1  0
  9 10  1  0
 10 11  1  0
 11 12  1  0
 12 13  2  0
 13 14  1  0
 14 15  2  0
 15 16  1  0
 16 17  1  0
 16 18  1  0
 16 19  1  0
 15 20  1  0
 20 21  2  0
  2 22  1  0
 22 23  2  0
 23 24  1  0
 24 25  2  0
 25 26  1  0
 26 27  2  0
 27 28  1  0
 27 29  1  0
 29 30  2  0
 30 31  1  0
 31 32  2  0
 11  7  1  0
 21 12  1  0
 32 22  1  0
 31 25  1  0
  3 33  1  0
  4 34  1  0
  4 35  1  0
  8 36  1  0
  8 37  1  0
  9 38  1  0
  9 39  1  0
 10 40  1  0
 10 41  1  0
 11 42  1  1
 13 43  1  0
 14 44  1  0
 20 45  1  0
 21 46  1  0
 23 47  1  0
 24 48  1  0
 26 49  1  0
 29 50  1  0
 30 51  1  0
M  END
>  <smiles>  (72) 
O=C(NCC(=O)N1CCCC1c1ccc(C(F)(F)F)cc1)c1ccc2cc(F)ccc2n1

>  <score_type>  (72) 
oracle

>  <origin>  (72) 
autodockgpu

>  <m_score__min__energy>  (72) 
-8.2899999999999991

>  <m_primary>  (72) 
energy

>  <rmsd>  (72) 
8.3264509287358

>  <m_score__min__rmsd>  (72) 
8.3264509287358

>  <meeko>  (72) 
{"free_energy": -7.69, "intermolecular_energy": -9.48, "internal_energy": -1.44, "cluster_size": 1, "cluster_id": 5, "rank_in_cluster": 1}

>  <energy>  (72) 
-8.18

>  <cluster_rmsd>  (72) 
0.45

>  <cluster>  (72) 
1

$$$$

     RDKit          3D

 51 54  0  0  0  0  0  0  0  0999 V2000
  141.0300   71.7240  221.1770 O   0  0  0  0  0  0  0  0  0  0  0  0
  140.4660   72.2070  222.1920 C   0  0  0  0  0  0  0  0  0  0  0  0
  140.0400   73.5500  222.2510 N   0  0  0  0  0  0  0  0  0  0  0  0
  140.2410   74.4300  221.1220 C   0  0  0  0  0  0  0  0  0  0  0  0
  140.5300   75.8210  221.5870 C   0  0  0  0  0  0  0  0  0  0  0  0
  140.0090   76.1590  222.6820 O   0  0  0  0  0  0  0  0  0  0  0  0
  141.3480   76.6700  220.8050 N   0  0  0  0  0  0  0  0  0  0  0  0
  142.0450   76.2890  219.5700 C   0  0  0  0  0  0  0  0  0  0  0  0
  142.2990   77.5700  218.8290 C   0  0  0  0  0  0  0  0  0  0  0  0
  141.8350   78.6890  219.7100 C   0  0  0  0  0  0  0  0  0  0  0  0
  141.6490   78.0430  221.0660 C   0  0  1  0  0  0  0  0  0  0  0  0
  140.5620   78.7450  221.8390 C   0  0  0  0  0  0  0  0  0  0  0  0
  140.7990   79.2090  223.1260 C   0  0  0  0  0  0  0  0  0  0  0  0
  139.8350   79.8580  223.8690 C   0  0  0  0  0  0  0  0  0  0  0  0
  138.5800   80.0600  223.3290 C   0  0  0  0  0  0  0  0  0  0  0  0
  137.5320   80.7570  224.1200 C   0  0  0  0  0  0  0  0  0  0  0  0
  137.9380   81.0000  225.4200 F   0  0  0  0  0  0  0  0  0  0  0  0
  136.3420   80.0550  224.1780 F   0  0  0  0  0  0  0  0  0  0  0  0
  137.2550   81.9820  223.5480 F   0  0  0  0  0  0  0  0  0  0  0  0
  138.3290   79.6040  222.0490 C   0  0  0  0  0  0  0  0  0  0  0  0
  139.3060   78.9480  221.2970 C   0  0  0  0  0  0  0  0  0  0  0  0
  140.2330   71.3600  223.3730 C   0  0  0  0  0  0  0  0  0  0  0  0
  139.5740   70.1510  223.2550 C   0  0  0  0  0  0  0  0  0  0  0  0
  139.3520   69.3470  224.3730 C   0  0  0  0  0  0  0  0  0  0  0  0
  139.7930   69.7580  225.6080 C   0  0  0  0  0  0  0  0  0  0  0  0
  139.6200   69.0330  226.7650 C   0  0  0  0  0  0  0  0  0  0  0  0
  140.0990   69.5260  227.9730 C   0  0  0  0  0  0  0  0  0  0  0  0
  139.9460   68.8360  229.1310 F   0  0  0  0  0  0  0  0  0  0  0  0
  140.7570   70.7390  228.0640 C   0  0  0  0  0  0  0  0  0  0  0  0
  140.9240   71.4590  226.8950 C   0  0  0  0  0  0  0  0  0  0  0  0
  140.4480   70.9680  225.6990 C   0  0  0  0  0  0  0  0  0  0  0  0
  140.6520   71.7310  224.6050 N   0  0  0  0  0  0  0  0  0  0  0  0
  139.5770   73.9150  223.1060 H   0  0  0  0  0  0  0  0  0  0  0  0
  141.0893   74.0645  220.5247 H   0  0  0  0  0  0  0  0  0  0  0  0
  139.3252   74.4417  220.5128 H   0  0  0  0  0  0  0  0  0  0  0  0
  142.9957   75.7885  219.8060 H   0  0  0  0  0  0  0  0  0  0  0  0
  141.4482   75.5866  218.9696 H   0  0  0  0  0  0  0  0  0  0  0  0
  143.3732   77.6769  218.6178 H   0  0  0  0  0  0  0  0  0  0  0  0
  141.7620   77.5796  217.8690 H   0  0  0  0  0  0  0  0  0  0  0  0
  142.5912   79.4864  219.7584 H   0  0  0  0  0  0  0  0  0  0  0  0
  140.9137   79.1621  219.3393 H   0  0  0  0  0  0  0  0  0  0  0  0
  142.5483   78.1184  221.6949 H   0  0  0  0  0  0  0  0  0  0  0  0
  141.7933   79.0531  223.5699 H   0  0  0  0  0  0  0  0  0  0  0  0
  140.0643   80.2123  224.8848 H   0  0  0  0  0  0  0  0  0  0  0  0
  137.3326   79.7620  221.6105 H   0  0  0  0  0  0  0  0  0  0  0  0
  139.0780   78.5951  220.2804 H   0  0  0  0  0  0  0  0  0  0  0  0
  139.2204   69.8188  222.2678 H   0  0  0  0  0  0  0  0  0  0  0  0
  138.8256   68.3870  224.2665 H   0  0  0  0  0  0  0  0  0  0  0  0
  139.1024   68.0629  226.7337 H   0  0  0  0  0  0  0  0  0  0  0  0
  141.1323   71.1158  229.0269 H   0  0  0  0  0  0  0  0  0  0  0  0
  141.4402   72.4300  226.9203 H   0  0  0  0  0  0  0  0  0  0  0  0
  1  2  2  0
  2  3  1  0
  3  4  1  0
  4  5  1  0
  5  6  2  0
  5  7  1  0
  7  8  1  0
  8  9  1  0
  9 10  1  0
 10 11  1  0
 11 12  1  0
 12 13  2  0
 13 14  1  0
 14 15  2  0
 15 16  1  0
 16 17  1  0
 16 18  1  0
 16 19  1  0
 15 20  1  0
 20 21  2  0
  2 22  1  0
 22 23  2  0
 23 24  1  0
 24 25  2  0
 25 26  1  0
 26 27  2  0
 27 28  1  0
 27 29  1  0
 29 30  2  0
 30 31  1  0
 31 32  2  0
 11  7  1  0
 21 12  1  0
 32 22  1  0
 31 25  1  0
  3 33  1  0
  4 34  1  0
  4 35  1  0
  8 36  1  0
  8 37  1  0
  9 38  1  0
  9 39  1  0
 10 40  1  0
 10 41  1  0
 11 42  1  1
 13 43  1  0
 14 44  1  0
 20 45  1  0
 21 46  1  0
 23 47  1  0
 24 48  1  0
 26 49  1  0
 29 50  1  0
 30 51  1  0
M  END
>  <smiles>  (73) 
O=C(NCC(=O)N1CCCC1c1ccc(C(F)(F)F)cc1)c1ccc2cc(F)ccc2n1

>  <score_type>  (73) 
oracle

>  <origin>  (73) 
autodockgpu

>  <m_score__min__energy>  (73) 
-8.2899999999999991

>  <m_primary>  (73) 
energy

>  <rmsd>  (73) 
2.011180833729151

>  <m_score__min__rmsd>  (73) 
2.011180833729151

>  <meeko>  (73) 
{"free_energy": -8.2, "intermolecular_energy": -9.99, "internal_energy": -1.76, "cluster_size": 28, "cluster_id": 1, "rank_in_cluster": 14}

>  <energy>  (73) 
-8.17

>  <cluster_rmsd>  (73) 
0.49

>  <cluster>  (73) 
1

$$$$

     RDKit          3D

 51 54  0  0  0  0  0  0  0  0999 V2000
  140.6220   77.0760  218.8770 O   0  0  0  0  0  0  0  0  0  0  0  0
  141.8770   77.1340  218.9110 C   0  0  0  0  0  0  0  0  0  0  0  0
  142.5740   78.3580  218.9890 N   0  0  0  0  0  0  0  0  0  0  0  0
  141.8510   79.6080  219.0350 C   0  0  0  0  0  0  0  0  0  0  0  0
  140.9980   79.6760  220.2610 C   0  0  0  0  0  0  0  0  0  0  0  0
  139.7530   79.6690  220.0700 O   0  0  0  0  0  0  0  0  0  0  0  0
  141.6020   79.7430  221.5380 N   0  0  0  0  0  0  0  0  0  0  0  0
  142.1700   80.9490  222.1550 C   0  0  0  0  0  0  0  0  0  0  0  0
  142.1760   80.6910  223.6340 C   0  0  0  0  0  0  0  0  0  0  0  0
  141.7040   79.2840  223.8380 C   0  0  0  0  0  0  0  0  0  0  0  0
  141.7740   78.6630  222.4590 C   0  0  1  0  0  0  0  0  0  0  0  0
  140.7240   77.5920  222.3110 C   0  0  0  0  0  0  0  0  0  0  0  0
  139.3890   77.8730  222.5670 C   0  0  0  0  0  0  0  0  0  0  0  0
  138.3960   76.9250  222.4420 C   0  0  0  0  0  0  0  0  0  0  0  0
  138.7230   75.6410  222.0520 C   0  0  0  0  0  0  0  0  0  0  0  0
  137.6610   74.6100  221.9150 C   0  0  0  0  0  0  0  0  0  0  0  0
  136.6060   74.8330  222.7820 F   0  0  0  0  0  0  0  0  0  0  0  0
  138.1240   73.3260  222.1400 F   0  0  0  0  0  0  0  0  0  0  0  0
  137.1470   74.6390  220.6350 F   0  0  0  0  0  0  0  0  0  0  0  0
  140.0490   75.3460  221.7940 C   0  0  0  0  0  0  0  0  0  0  0  0
  141.0540   76.3080  221.9190 C   0  0  0  0  0  0  0  0  0  0  0  0
  142.6690   75.8930  218.8670 C   0  0  0  0  0  0  0  0  0  0  0  0
  142.4610   74.9580  217.8710 C   0  0  0  0  0  0  0  0  0  0  0  0
  143.2100   73.7830  217.8280 C   0  0  0  0  0  0  0  0  0  0  0  0
  144.1680   73.5480  218.7850 C   0  0  0  0  0  0  0  0  0  0  0  0
  144.9540   72.4190  218.8230 C   0  0  0  0  0  0  0  0  0  0  0  0
  145.9000   72.2640  219.8300 C   0  0  0  0  0  0  0  0  0  0  0  0
  146.6900   71.1640  219.8960 F   0  0  0  0  0  0  0  0  0  0  0  0
  146.0880   73.2150  220.8160 C   0  0  0  0  0  0  0  0  0  0  0  0
  145.2920   74.3460  220.7670 C   0  0  0  0  0  0  0  0  0  0  0  0
  144.3560   74.4960  219.7680 C   0  0  0  0  0  0  0  0  0  0  0  0
  143.6200   75.6270  219.7920 N   0  0  0  0  0  0  0  0  0  0  0  0
  143.6130   78.3670  219.0150 H   0  0  0  0  0  0  0  0  0  0  0  0
  142.5692   80.4411  219.0473 H   0  0  0  0  0  0  0  0  0  0  0  0
  141.2042   79.6772  218.1479 H   0  0  0  0  0  0  0  0  0  0  0  0
  143.1945   81.1182  221.7920 H   0  0  0  0  0  0  0  0  0  0  0  0
  141.5839   81.8453  221.9039 H   0  0  0  0  0  0  0  0  0  0  0  0
  143.1941   80.8090  224.0334 H   0  0  0  0  0  0  0  0  0  0  0  0
  141.5217   81.4032  224.1582 H   0  0  0  0  0  0  0  0  0  0  0  0
  142.3617   78.7501  224.5397 H   0  0  0  0  0  0  0  0  0  0  0  0
  140.6931   79.2379  224.2691 H   0  0  0  0  0  0  0  0  0  0  0  0
  142.7330   78.1576  222.2718 H   0  0  0  0  0  0  0  0  0  0  0  0
  139.1131   78.8903  222.8814 H   0  0  0  0  0  0  0  0  0  0  0  0
  137.3491   77.1897  222.6517 H   0  0  0  0  0  0  0  0  0  0  0  0
  140.3197   74.3265  221.4820 H   0  0  0  0  0  0  0  0  0  0  0  0
  142.1010   76.0457  221.7070 H   0  0  0  0  0  0  0  0  0  0  0  0
  141.6954   75.1430  217.1031 H   0  0  0  0  0  0  0  0  0  0  0  0
  143.0347   73.0461  217.0304 H   0  0  0  0  0  0  0  0  0  0  0  0
  144.8338   71.6392  218.0566 H   0  0  0  0  0  0  0  0  0  0  0  0
  146.8398   73.0781  221.6072 H   0  0  0  0  0  0  0  0  0  0  0  0
  145.4076   75.1296  221.5303 H   0  0  0  0  0  0  0  0  0  0  0  0
  1  2  2  0
  2  3  1  0
  3  4  1  0
  4  5  1  0
  5  6  2  0
  5  7  1  0
  7  8  1  0
  8  9  1  0
  9 10  1  0
 10 11  1  0
 11 12  1  0
 12 13  2  0
 13 14  1  0
 14 15  2  0
 15 16  1  0
 16 17  1  0
 16 18  1  0
 16 19  1  0
 15 20  1  0
 20 21  2  0
  2 22  1  0
 22 23  2  0
 23 24  1  0
 24 25  2  0
 25 26  1  0
 26 27  2  0
 27 28  1  0
 27 29  1  0
 29 30  2  0
 30 31  1  0
 31 32  2  0
 11  7  1  0
 21 12  1  0
 32 22  1  0
 31 25  1  0
  3 33  1  0
  4 34  1  0
  4 35  1  0
  8 36  1  0
  8 37  1  0
  9 38  1  0
  9 39  1  0
 10 40  1  0
 10 41  1  0
 11 42  1  6
 13 43  1  0
 14 44  1  0
 20 45  1  0
 21 46  1  0
 23 47  1  0
 24 48  1  0
 26 49  1  0
 29 50  1  0
 30 51  1  0
M  END
>  <smiles>  (74) 
O=C(NCC(=O)N1CCCC1c1ccc(C(F)(F)F)cc1)c1ccc2cc(F)ccc2n1

>  <score_type>  (74) 
oracle

>  <origin>  (74) 
autodockgpu

>  <m_score__min__energy>  (74) 
-8.2899999999999991

>  <m_primary>  (74) 
energy

>  <rmsd>  (74) 
7.9013391472617585

>  <m_score__min__rmsd>  (74) 
7.9013391472617585

>  <meeko>  (74) 
{"free_energy": -6.84, "intermolecular_energy": -8.63, "internal_energy": -2.33, "cluster_size": 1, "cluster_id": 7, "rank_in_cluster": 1}

>  <energy>  (74) 
-8.15

>  <cluster_rmsd>  (74) 
0.44

>  <cluster>  (74) 
1

$$$$

     RDKit          3D

 51 54  0  0  0  0  0  0  0  0999 V2000
  140.9260   71.8520  221.0740 O   0  0  0  0  0  0  0  0  0  0  0  0
  140.4010   72.3430  222.1060 C   0  0  0  0  0  0  0  0  0  0  0  0
  140.0140   73.6970  222.1830 N   0  0  0  0  0  0  0  0  0  0  0  0
  140.2110   74.5790  221.0560 C   0  0  0  0  0  0  0  0  0  0  0  0
  140.8100   75.8740  221.5020 C   0  0  0  0  0  0  0  0  0  0  0  0
  140.6300   76.1810  222.7100 O   0  0  0  0  0  0  0  0  0  0  0  0
  141.5260   76.6750  220.5810 N   0  0  0  0  0  0  0  0  0  0  0  0
  142.1270   76.2070  219.3260 C   0  0  0  0  0  0  0  0  0  0  0  0
  142.2710   77.4250  218.4600 C   0  0  0  0  0  0  0  0  0  0  0  0
  141.8440   78.6030  219.2800 C   0  0  0  0  0  0  0  0  0  0  0  0
  141.7980   78.0730  220.6980 C   0  0  1  0  0  0  0  0  0  0  0  0
  140.7570   78.8090  221.5010 C   0  0  0  0  0  0  0  0  0  0  0  0
  141.0800   79.3680  222.7310 C   0  0  0  0  0  0  0  0  0  0  0  0
  140.1600   80.0500  223.4990 C   0  0  0  0  0  0  0  0  0  0  0  0
  138.8630   80.1910  223.0450 C   0  0  0  0  0  0  0  0  0  0  0  0
  137.8630   80.9240  223.8640 C   0  0  0  0  0  0  0  0  0  0  0  0
  136.7360   80.1620  224.1120 F   0  0  0  0  0  0  0  0  0  0  0  0
  137.4480   82.1070  223.2780 F   0  0  0  0  0  0  0  0  0  0  0  0
  138.4110   81.2470  225.0880 F   0  0  0  0  0  0  0  0  0  0  0  0
  138.5270   79.6410  221.8220 C   0  0  0  0  0  0  0  0  0  0  0  0
  139.4590   78.9500  221.0450 C   0  0  0  0  0  0  0  0  0  0  0  0
  140.1730   71.4950  223.2870 C   0  0  0  0  0  0  0  0  0  0  0  0
  139.4810   70.3030  223.1770 C   0  0  0  0  0  0  0  0  0  0  0  0
  139.2650   69.4980  224.2950 C   0  0  0  0  0  0  0  0  0  0  0  0
  139.7430   69.8900  225.5220 C   0  0  0  0  0  0  0  0  0  0  0  0
  139.5770   69.1620  226.6780 C   0  0  0  0  0  0  0  0  0  0  0  0
  140.0960   69.6350  227.8780 C   0  0  0  0  0  0  0  0  0  0  0  0
  139.9510   68.9420  229.0350 F   0  0  0  0  0  0  0  0  0  0  0  0
  140.7850   70.8320  227.9620 C   0  0  0  0  0  0  0  0  0  0  0  0
  140.9450   71.5550  226.7930 C   0  0  0  0  0  0  0  0  0  0  0  0
  140.4300   71.0830  225.6050 C   0  0  0  0  0  0  0  0  0  0  0  0
  140.6290   71.8470  224.5120 N   0  0  0  0  0  0  0  0  0  0  0  0
  139.5820   74.0690  223.0520 H   0  0  0  0  0  0  0  0  0  0  0  0
  140.8866   74.0976  220.3336 H   0  0  0  0  0  0  0  0  0  0  0  0
  139.2362   74.7808  220.5880 H   0  0  0  0  0  0  0  0  0  0  0  0
  143.1115   75.7555  219.5182 H   0  0  0  0  0  0  0  0  0  0  0  0
  141.5060   75.4385  218.8425 H   0  0  0  0  0  0  0  0  0  0  0  0
  143.3189   77.5434  218.1470 H   0  0  0  0  0  0  0  0  0  0  0  0
  141.6542   77.3354  217.5536 H   0  0  0  0  0  0  0  0  0  0  0  0
  142.5723   79.4228  219.1936 H   0  0  0  0  0  0  0  0  0  0  0  0
  140.8779   79.0153  218.9532 H   0  0  0  0  0  0  0  0  0  0  0  0
  142.7440   78.2285  221.2374 H   0  0  0  0  0  0  0  0  0  0  0  0
  142.1085   79.2626  223.1065 H   0  0  0  0  0  0  0  0  0  0  0  0
  140.4571   80.4792  224.4673 H   0  0  0  0  0  0  0  0  0  0  0  0
  137.4973   79.7507  221.4508 H   0  0  0  0  0  0  0  0  0  0  0  0
  139.1627   78.5206  220.0766 H   0  0  0  0  0  0  0  0  0  0  0  0
  139.0965   69.9861  222.1963 H   0  0  0  0  0  0  0  0  0  0  0  0
  138.7134   68.5516  224.1948 H   0  0  0  0  0  0  0  0  0  0  0  0
  139.0337   68.2059  226.6526 H   0  0  0  0  0  0  0  0  0  0  0  0
  141.1890   71.1941  228.9189 H   0  0  0  0  0  0  0  0  0  0  0  0
  141.4866   72.5123  226.8121 H   0  0  0  0  0  0  0  0  0  0  0  0
  1  2  2  0
  2  3  1  0
  3  4  1  0
  4  5  1  0
  5  6  2  0
  5  7  1  0
  7  8  1  0
  8  9  1  0
  9 10  1  0
 10 11  1  0
 11 12  1  0
 12 13  2  0
 13 14  1  0
 14 15  2  0
 15 16  1  0
 16 17  1  0
 16 18  1  0
 16 19  1  0
 15 20  1  0
 20 21  2  0
  2 22  1  0
 22 23  2  0
 23 24  1  0
 24 25  2  0
 25 26  1  0
 26 27  2  0
 27 28  1  0
 27 29  1  0
 29 30  2  0
 30 31  1  0
 31 32  2  0
 11  7  1  0
 21 12  1  0
 32 22  1  0
 31 25  1  0
  3 33  1  0
  4 34  1  0
  4 35  1  0
  8 36  1  0
  8 37  1  0
  9 38  1  0
  9 39  1  0
 10 40  1  0
 10 41  1  0
 11 42  1  1
 13 43  1  0
 14 44  1  0
 20 45  1  0
 21 46  1  0
 23 47  1  0
 24 48  1  0
 26 49  1  0
 29 50  1  0
 30 51  1  0
M  END
>  <smiles>  (75) 
O=C(NCC(=O)N1CCCC1c1ccc(C(F)(F)F)cc1)c1ccc2cc(F)ccc2n1

>  <score_type>  (75) 
oracle

>  <origin>  (75) 
autodockgpu

>  <m_score__min__energy>  (75) 
-8.2899999999999991

>  <m_primary>  (75) 
energy

>  <rmsd>  (75) 
1.9638193403229098

>  <m_score__min__rmsd>  (75) 
1.9638193403229098

>  <meeko>  (75) 
{"free_energy": -8.0, "intermolecular_energy": -9.79, "internal_energy": -1.76, "cluster_size": 28, "cluster_id": 1, "rank_in_cluster": 26}

>  <energy>  (75) 
-8.13

>  <cluster_rmsd>  (75) 
0.43

>  <cluster>  (75) 
1

$$$$

     RDKit          3D

 51 54  0  0  0  0  0  0  0  0999 V2000
  141.3530   72.0470  221.3500 O   0  0  0  0  0  0  0  0  0  0  0  0
  140.5570   72.4400  222.2400 C   0  0  0  0  0  0  0  0  0  0  0  0
  139.9140   73.6940  222.1760 N   0  0  0  0  0  0  0  0  0  0  0  0
  140.1540   74.5820  221.0620 C   0  0  0  0  0  0  0  0  0  0  0  0
  140.6130   75.9190  221.5470 C   0  0  0  0  0  0  0  0  0  0  0  0
  140.2640   76.2340  222.7160 O   0  0  0  0  0  0  0  0  0  0  0  0
  141.3910   76.7460  220.7050 N   0  0  0  0  0  0  0  0  0  0  0  0
  142.0530   76.3250  219.4630 C   0  0  0  0  0  0  0  0  0  0  0  0
  142.2640   77.5780  218.6630 C   0  0  0  0  0  0  0  0  0  0  0  0
  141.8110   78.7250  219.5130 C   0  0  0  0  0  0  0  0  0  0  0  0
  141.6800   78.1330  220.9000 C   0  0  1  0  0  0  0  0  0  0  0  0
  140.6090   78.8520  221.6800 C   0  0  0  0  0  0  0  0  0  0  0  0
  140.8460   79.2730  222.9810 C   0  0  0  0  0  0  0  0  0  0  0  0
  139.8960   79.9340  223.7300 C   0  0  0  0  0  0  0  0  0  0  0  0
  138.6550   80.1940  223.1830 C   0  0  0  0  0  0  0  0  0  0  0  0
  137.6230   80.9050  223.9820 C   0  0  0  0  0  0  0  0  0  0  0  0
  138.0420   81.1430  225.2780 F   0  0  0  0  0  0  0  0  0  0  0  0
  136.4240   80.2180  224.0480 F   0  0  0  0  0  0  0  0  0  0  0  0
  137.3570   82.1330  223.4100 F   0  0  0  0  0  0  0  0  0  0  0  0
  138.4040   79.7800  221.8880 C   0  0  0  0  0  0  0  0  0  0  0  0
  139.3670   79.1110  221.1300 C   0  0  0  0  0  0  0  0  0  0  0  0
  140.2710   71.5790  223.3990 C   0  0  0  0  0  0  0  0  0  0  0  0
  139.5560   70.4060  223.2480 C   0  0  0  0  0  0  0  0  0  0  0  0
  139.2850   69.5890  224.3450 C   0  0  0  0  0  0  0  0  0  0  0  0
  139.7310   69.9510  225.5930 C   0  0  0  0  0  0  0  0  0  0  0  0
  139.5110   69.2090  226.7310 C   0  0  0  0  0  0  0  0  0  0  0  0
  140.0010   69.6510  227.9550 C   0  0  0  0  0  0  0  0  0  0  0  0
  139.8020   68.9440  229.0950 F   0  0  0  0  0  0  0  0  0  0  0  0
  140.7140   70.8300  228.0800 C   0  0  0  0  0  0  0  0  0  0  0  0
  140.9290   71.5670  226.9290 C   0  0  0  0  0  0  0  0  0  0  0  0
  140.4420   71.1260  225.7170 C   0  0  0  0  0  0  0  0  0  0  0  0
  140.6940   71.9020  224.6430 N   0  0  0  0  0  0  0  0  0  0  0  0
  139.2610   73.9850  222.9300 H   0  0  0  0  0  0  0  0  0  0  0  0
  140.9283   74.1471  220.4129 H   0  0  0  0  0  0  0  0  0  0  0  0
  139.2165   74.7100  220.5011 H   0  0  0  0  0  0  0  0  0  0  0  0
  143.0181   75.8472  219.6870 H   0  0  0  0  0  0  0  0  0  0  0  0
  141.4469   75.5913  218.9114 H   0  0  0  0  0  0  0  0  0  0  0  0
  143.3293   77.6912  218.4132 H   0  0  0  0  0  0  0  0  0  0  0  0
  141.6972   77.5411  217.7210 H   0  0  0  0  0  0  0  0  0  0  0  0
  142.5553   79.5349  219.5036 H   0  0  0  0  0  0  0  0  0  0  0  0
  140.8703   79.1683  219.1544 H   0  0  0  0  0  0  0  0  0  0  0  0
  142.5983   78.2462  221.4950 H   0  0  0  0  0  0  0  0  0  0  0  0
  141.8291   79.0716  223.4316 H   0  0  0  0  0  0  0  0  0  0  0  0
  140.1252   80.2525  224.7576 H   0  0  0  0  0  0  0  0  0  0  0  0
  137.4189   79.9832  221.4427 H   0  0  0  0  0  0  0  0  0  0  0  0
  139.1392   78.7921  220.1022 H   0  0  0  0  0  0  0  0  0  0  0  0
  139.1964   70.1134  222.2505 H   0  0  0  0  0  0  0  0  0  0  0  0
  138.7157   68.6573  224.2115 H   0  0  0  0  0  0  0  0  0  0  0  0
  138.9475   68.2661  226.6723 H   0  0  0  0  0  0  0  0  0  0  0  0
  141.0946   71.1678  229.0552 H   0  0  0  0  0  0  0  0  0  0  0  0
  141.4919   72.5106  226.9813 H   0  0  0  0  0  0  0  0  0  0  0  0
  1  2  2  0
  2  3  1  0
  3  4  1  0
  4  5  1  0
  5  6  2  0
  5  7  1  0
  7  8  1  0
  8  9  1  0
  9 10  1  0
 10 11  1  0
 11 12  1  0
 12 13  2  0
 13 14  1  0
 14 15  2  0
 15 16  1  0
 16 17  1  0
 16 18  1  0
 16 19  1  0
 15 20  1  0
 20 21  2  0
  2 22  1  0
 22 23  2  0
 23 24  1  0
 24 25  2  0
 25 26  1  0
 26 27  2  0
 27 28  1  0
 27 29  1  0
 29 30  2  0
 30 31  1  0
 31 32  2  0
 11  7  1  0
 21 12  1  0
 32 22  1  0
 31 25  1  0
  3 33  1  0
  4 34  1  0
  4 35  1  0
  8 36  1  0
  8 37  1  0
  9 38  1  0
  9 39  1  0
 10 40  1  0
 10 41  1  0
 11 42  1  1
 13 43  1  0
 14 44  1  0
 20 45  1  0
 21 46  1  0
 23 47  1  0
 24 48  1  0
 26 49  1  0
 29 50  1  0
 30 51  1  0
M  END
>  <smiles>  (76) 
O=C(NCC(=O)N1CCCC1c1ccc(C(F)(F)F)cc1)c1ccc2cc(F)ccc2n1

>  <score_type>  (76) 
oracle

>  <origin>  (76) 
autodockgpu

>  <m_score__min__energy>  (76) 
-8.2899999999999991

>  <m_primary>  (76) 
energy

>  <rmsd>  (76) 
2.0392603854820504

>  <m_score__min__rmsd>  (76) 
2.0392603854820504

>  <meeko>  (76) 
{"free_energy": -8.21, "intermolecular_energy": -10.0, "internal_energy": -1.61, "cluster_size": 28, "cluster_id": 1, "rank_in_cluster": 9}

>  <energy>  (76) 
-8.0

>  <cluster_rmsd>  (76) 
0.57

>  <cluster>  (76) 
1

$$$$

     RDKit          3D

 51 54  0  0  0  0  0  0  0  0999 V2000
  141.0610   71.8770  221.1780 O   0  0  0  0  0  0  0  0  0  0  0  0
  140.4850   72.3520  222.1900 C   0  0  0  0  0  0  0  0  0  0  0  0
  140.0530   73.6940  222.2500 N   0  0  0  0  0  0  0  0  0  0  0  0
  140.2630   74.5800  221.1290 C   0  0  0  0  0  0  0  0  0  0  0  0
  140.6590   75.9410  221.6030 C   0  0  0  0  0  0  0  0  0  0  0  0
  140.2690   76.2610  222.7570 O   0  0  0  0  0  0  0  0  0  0  0  0
  141.4260   76.7840  220.7660 N   0  0  0  0  0  0  0  0  0  0  0  0
  142.0800   76.3830  219.5140 C   0  0  0  0  0  0  0  0  0  0  0  0
  142.2780   77.6480  218.7300 C   0  0  0  0  0  0  0  0  0  0  0  0
  141.8270   78.7820  219.5990 C   0  0  0  0  0  0  0  0  0  0  0  0
  141.7100   78.1690  220.9790 C   0  0  1  0  0  0  0  0  0  0  0  0
  140.6410   78.8710  221.7770 C   0  0  0  0  0  0  0  0  0  0  0  0
  140.9350   79.4240  223.0160 C   0  0  0  0  0  0  0  0  0  0  0  0
  139.9900   80.0760  223.7790 C   0  0  0  0  0  0  0  0  0  0  0  0
  138.6950   80.1900  223.3110 C   0  0  0  0  0  0  0  0  0  0  0  0
  137.6680   80.8900  224.1250 C   0  0  0  0  0  0  0  0  0  0  0  0
  137.5410   82.2210  223.7700 F   0  0  0  0  0  0  0  0  0  0  0  0
  137.9300   80.8420  225.4820 F   0  0  0  0  0  0  0  0  0  0  0  0
  136.4370   80.2990  223.9280 F   0  0  0  0  0  0  0  0  0  0  0  0
  138.3880   79.6450  222.0790 C   0  0  0  0  0  0  0  0  0  0  0  0
  139.3460   78.9850  221.3060 C   0  0  0  0  0  0  0  0  0  0  0  0
  140.2420   71.4980  223.3640 C   0  0  0  0  0  0  0  0  0  0  0  0
  139.5680   70.2980  223.2360 C   0  0  0  0  0  0  0  0  0  0  0  0
  139.3370   69.4880  224.3480 C   0  0  0  0  0  0  0  0  0  0  0  0
  139.7830   69.8830  225.5860 C   0  0  0  0  0  0  0  0  0  0  0  0
  139.6020   69.1500  226.7370 C   0  0  0  0  0  0  0  0  0  0  0  0
  140.0890   69.6270  227.9480 C   0  0  0  0  0  0  0  0  0  0  0  0
  139.9270   68.9290  229.1000 F   0  0  0  0  0  0  0  0  0  0  0  0
  140.7610   70.8320  228.0490 C   0  0  0  0  0  0  0  0  0  0  0  0
  140.9370   71.5590  226.8860 C   0  0  0  0  0  0  0  0  0  0  0  0
  140.4530   71.0840  225.6860 C   0  0  0  0  0  0  0  0  0  0  0  0
  140.6670   71.8530  224.5990 N   0  0  0  0  0  0  0  0  0  0  0  0
  139.5790   74.0520  223.1030 H   0  0  0  0  0  0  0  0  0  0  0  0
  141.0610   74.1729  220.4906 H   0  0  0  0  0  0  0  0  0  0  0  0
  139.3253   74.6610  220.5597 H   0  0  0  0  0  0  0  0  0  0  0  0
  143.0493   75.9072  219.7239 H   0  0  0  0  0  0  0  0  0  0  0  0
  141.4737   75.6534  218.9572 H   0  0  0  0  0  0  0  0  0  0  0  0
  143.3405   77.7697  218.4727 H   0  0  0  0  0  0  0  0  0  0  0  0
  141.7027   77.6211  217.7928 H   0  0  0  0  0  0  0  0  0  0  0  0
  142.5678   79.5952  219.5949 H   0  0  0  0  0  0  0  0  0  0  0  0
  140.8819   79.2269  219.2542 H   0  0  0  0  0  0  0  0  0  0  0  0
  142.6323   78.2781  221.5684 H   0  0  0  0  0  0  0  0  0  0  0  0
  141.9609   79.3387  223.4036 H   0  0  0  0  0  0  0  0  0  0  0  0
  140.2653   80.5030  224.7547 H   0  0  0  0  0  0  0  0  0  0  0  0
  137.3605   79.7334  221.6963 H   0  0  0  0  0  0  0  0  0  0  0  0
  139.0722   78.5590  220.3295 H   0  0  0  0  0  0  0  0  0  0  0  0
  139.2098   69.9782  222.2463 H   0  0  0  0  0  0  0  0  0  0  0  0
  138.7991   68.5353  224.2339 H   0  0  0  0  0  0  0  0  0  0  0  0
  139.0720   68.1869  226.6982 H   0  0  0  0  0  0  0  0  0  0  0  0
  141.1399   71.1969  229.0151 H   0  0  0  0  0  0  0  0  0  0  0  0
  141.4666   72.5225  226.9187 H   0  0  0  0  0  0  0  0  0  0  0  0
  1  2  2  0
  2  3  1  0
  3  4  1  0
  4  5  1  0
  5  6  2  0
  5  7  1  0
  7  8  1  0
  8  9  1  0
  9 10  1  0
 10 11  1  0
 11 12  1  0
 12 13  2  0
 13 14  1  0
 14 15  2  0
 15 16  1  0
 16 17  1  0
 16 18  1  0
 16 19  1  0
 15 20  1  0
 20 21  2  0
  2 22  1  0
 22 23  2  0
 23 24  1  0
 24 25  2  0
 25 26  1  0
 26 27  2  0
 27 28  1  0
 27 29  1  0
 29 30  2  0
 30 31  1  0
 31 32  2  0
 11  7  1  0
 21 12  1  0
 32 22  1  0
 31 25  1  0
  3 33  1  0
  4 34  1  0
  4 35  1  0
  8 36  1  0
  8 37  1  0
  9 38  1  0
  9 39  1  0
 10 40  1  0
 10 41  1  0
 11 42  1  1
 13 43  1  0
 14 44  1  0
 20 45  1  0
 21 46  1  0
 23 47  1  0
 24 48  1  0
 26 49  1  0
 29 50  1  0
 30 51  1  0
M  END
>  <smiles>  (77) 
O=C(NCC(=O)N1CCCC1c1ccc(C(F)(F)F)cc1)c1ccc2cc(F)ccc2n1

>  <score_type>  (77) 
oracle

>  <origin>  (77) 
autodockgpu

>  <m_score__min__energy>  (77) 
-8.2899999999999991

>  <m_primary>  (77) 
energy

>  <rmsd>  (77) 
2.0583793513266206

>  <m_score__min__rmsd>  (77) 
2.0583793513266206

>  <meeko>  (77) 
{"free_energy": -8.17, "intermolecular_energy": -9.96, "internal_energy": -1.76, "cluster_size": 28, "cluster_id": 1, "rank_in_cluster": 23}

>  <energy>  (77) 
-7.81

>  <cluster_rmsd>  (77) 
1.42

>  <cluster>  (77) 
1

$$$$

     RDKit          3D

 51 54  0  0  0  0  0  0  0  0999 V2000
  140.9870   71.7780  221.1440 O   0  0  0  0  0  0  0  0  0  0  0  0
  140.4410   72.2570  222.1700 C   0  0  0  0  0  0  0  0  0  0  0  0
  140.0240   73.6020  222.2450 N   0  0  0  0  0  0  0  0  0  0  0  0
  140.2160   74.4890  221.1210 C   0  0  0  0  0  0  0  0  0  0  0  0
  140.5410   75.8700  221.5920 C   0  0  0  0  0  0  0  0  0  0  0  0
  140.0570   76.2040  222.7060 O   0  0  0  0  0  0  0  0  0  0  0  0
  141.3500   76.7140  220.7960 N   0  0  0  0  0  0  0  0  0  0  0  0
  142.0290   76.3280  219.5530 C   0  0  0  0  0  0  0  0  0  0  0  0
  142.2770   77.6060  218.8050 C   0  0  0  0  0  0  0  0  0  0  0  0
  141.8270   78.7290  219.6880 C   0  0  0  0  0  0  0  0  0  0  0  0
  141.6580   78.0880  221.0490 C   0  0  1  0  0  0  0  0  0  0  0  0
  140.5840   78.7950  221.8350 C   0  0  0  0  0  0  0  0  0  0  0  0
  140.8370   79.2550  223.1200 C   0  0  0  0  0  0  0  0  0  0  0  0
  139.8840   79.9080  223.8740 C   0  0  0  0  0  0  0  0  0  0  0  0
  138.6250   80.1190  223.3480 C   0  0  0  0  0  0  0  0  0  0  0  0
  137.5900   80.8210  224.1510 C   0  0  0  0  0  0  0  0  0  0  0  0
  136.3860   80.1410  224.1560 F   0  0  0  0  0  0  0  0  0  0  0  0
  137.3430   82.1080  223.7060 F   0  0  0  0  0  0  0  0  0  0  0  0
  138.0060   80.9180  225.4630 F   0  0  0  0  0  0  0  0  0  0  0  0
  138.3580   79.6660  222.0690 C   0  0  0  0  0  0  0  0  0  0  0  0
  139.3230   79.0060  221.3060 C   0  0  0  0  0  0  0  0  0  0  0  0
  140.2180   71.4020  223.3490 C   0  0  0  0  0  0  0  0  0  0  0  0
  139.5770   70.1840  223.2250 C   0  0  0  0  0  0  0  0  0  0  0  0
  139.3660   69.3730  224.3390 C   0  0  0  0  0  0  0  0  0  0  0  0
  139.7970   69.7860  225.5770 C   0  0  0  0  0  0  0  0  0  0  0  0
  139.6320   69.0540  226.7310 C   0  0  0  0  0  0  0  0  0  0  0  0
  140.1020   69.5500  227.9420 C   0  0  0  0  0  0  0  0  0  0  0  0
  139.9560   68.8540  229.0960 F   0  0  0  0  0  0  0  0  0  0  0  0
  140.7400   70.7730  228.0390 C   0  0  0  0  0  0  0  0  0  0  0  0
  140.8990   71.5000  226.8720 C   0  0  0  0  0  0  0  0  0  0  0  0
  140.4330   71.0050  225.6730 C   0  0  0  0  0  0  0  0  0  0  0  0
  140.6280   71.7750  224.5830 N   0  0  0  0  0  0  0  0  0  0  0  0
  139.5750   73.9630  223.1100 H   0  0  0  0  0  0  0  0  0  0  0  0
  141.0439   74.1139  220.5014 H   0  0  0  0  0  0  0  0  0  0  0  0
  139.2870   74.5236  220.5330 H   0  0  0  0  0  0  0  0  0  0  0  0
  142.9813   75.8252  219.7775 H   0  0  0  0  0  0  0  0  0  0  0  0
  141.4218   75.6260  218.9626 H   0  0  0  0  0  0  0  0  0  0  0  0
  143.3488   77.7094  218.5801 H   0  0  0  0  0  0  0  0  0  0  0  0
  141.7280   77.6140  217.8518 H   0  0  0  0  0  0  0  0  0  0  0  0
  142.5853   79.5251  219.7234 H   0  0  0  0  0  0  0  0  0  0  0  0
  140.9017   79.2026  219.3280 H   0  0  0  0  0  0  0  0  0  0  0  0
  142.5659   78.1635  221.6655 H   0  0  0  0  0  0  0  0  0  0  0  0
  141.8349   79.0927  223.5534 H   0  0  0  0  0  0  0  0  0  0  0  0
  140.1257   80.2585  224.8883 H   0  0  0  0  0  0  0  0  0  0  0  0
  137.3580   79.8302  221.6412 H   0  0  0  0  0  0  0  0  0  0  0  0
  139.0825   78.6561  220.2912 H   0  0  0  0  0  0  0  0  0  0  0  0
  139.2293   69.8507  222.2361 H   0  0  0  0  0  0  0  0  0  0  0  0
  138.8558   68.4049  224.2275 H   0  0  0  0  0  0  0  0  0  0  0  0
  139.1284   68.0767  226.6952 H   0  0  0  0  0  0  0  0  0  0  0  0
  141.1062   71.1526  229.0043 H   0  0  0  0  0  0  0  0  0  0  0  0
  141.4003   72.4787  226.9016 H   0  0  0  0  0  0  0  0  0  0  0  0
  1  2  2  0
  2  3  1  0
  3  4  1  0
  4  5  1  0
  5  6  2  0
  5  7  1  0
  7  8  1  0
  8  9  1  0
  9 10  1  0
 10 11  1  0
 11 12  1  0
 12 13  2  0
 13 14  1  0
 14 15  2  0
 15 16  1  0
 16 17  1  0
 16 18  1  0
 16 19  1  0
 15 20  1  0
 20 21  2  0
  2 22  1  0
 22 23  2  0
 23 24  1  0
 24 25  2  0
 25 26  1  0
 26 27  2  0
 27 28  1  0
 27 29  1  0
 29 30  2  0
 30 31  1  0
 31 32  2  0
 11  7  1  0
 21 12  1  0
 32 22  1  0
 31 25  1  0
  3 33  1  0
  4 34  1  0
  4 35  1  0
  8 36  1  0
  8 37  1  0
  9 38  1  0
  9 39  1  0
 10 40  1  0
 10 41  1  0
 11 42  1  1
 13 43  1  0
 14 44  1  0
 20 45  1  0
 21 46  1  0
 23 47  1  0
 24 48  1  0
 26 49  1  0
 29 50  1  0
 30 51  1  0
M  END
>  <smiles>  (78) 
O=C(NCC(=O)N1CCCC1c1ccc(C(F)(F)F)cc1)c1ccc2cc(F)ccc2n1

>  <score_type>  (78) 
oracle

>  <origin>  (78) 
autodockgpu

>  <m_score__min__energy>  (78) 
-8.2899999999999991

>  <m_primary>  (78) 
energy

>  <rmsd>  (78) 
2.01436149401962

>  <m_score__min__rmsd>  (78) 
2.01436149401962

>  <meeko>  (78) 
{"free_energy": -8.2, "intermolecular_energy": -9.99, "internal_energy": -1.76, "cluster_size": 28, "cluster_id": 1, "rank_in_cluster": 13}

>  <energy>  (78) 
-7.53

>  <cluster_rmsd>  (78) 
1.19

>  <cluster>  (78) 
1

$$$$

     RDKit          3D

 51 54  0  0  0  0  0  0  0  0999 V2000
  141.0870   71.8750  221.2050 O   0  0  0  0  0  0  0  0  0  0  0  0
  140.4910   72.3530  222.2030 C   0  0  0  0  0  0  0  0  0  0  0  0
  140.0480   73.6910  222.2470 N   0  0  0  0  0  0  0  0  0  0  0  0
  140.2700   74.5710  221.1230 C   0  0  0  0  0  0  0  0  0  0  0  0
  140.6450   75.9390  221.5940 C   0  0  0  0  0  0  0  0  0  0  0  0
  140.2350   76.2630  222.7400 O   0  0  0  0  0  0  0  0  0  0  0  0
  141.4160   76.7850  220.7620 N   0  0  0  0  0  0  0  0  0  0  0  0
  142.0430   76.3980  219.4930 C   0  0  0  0  0  0  0  0  0  0  0  0
  142.2540   77.6750  218.7310 C   0  0  0  0  0  0  0  0  0  0  0  0
  141.8380   78.7980  219.6300 C   0  0  0  0  0  0  0  0  0  0  0  0
  141.7290   78.1600  220.9990 C   0  0  1  0  0  0  0  0  0  0  0  0
  140.6860   78.8650  221.8270 C   0  0  0  0  0  0  0  0  0  0  0  0
  139.4020   79.0540  221.3330 C   0  0  0  0  0  0  0  0  0  0  0  0
  138.4170   79.6930  222.0560 C   0  0  0  0  0  0  0  0  0  0  0  0
  138.7000   80.1710  223.3200 C   0  0  0  0  0  0  0  0  0  0  0  0
  137.6470   80.8620  224.1090 C   0  0  0  0  0  0  0  0  0  0  0  0
  137.3090   82.0870  223.5640 F   0  0  0  0  0  0  0  0  0  0  0  0
  138.0120   81.0760  225.4260 F   0  0  0  0  0  0  0  0  0  0  0  0
  136.5000   80.0950  224.1240 F   0  0  0  0  0  0  0  0  0  0  0  0
  139.9740   79.9910  223.8260 C   0  0  0  0  0  0  0  0  0  0  0  0
  140.9720   79.3440  223.0930 C   0  0  0  0  0  0  0  0  0  0  0  0
  140.2350   71.5050  223.3800 C   0  0  0  0  0  0  0  0  0  0  0  0
  139.5600   70.3060  223.2510 C   0  0  0  0  0  0  0  0  0  0  0  0
  139.3180   69.5020  224.3650 C   0  0  0  0  0  0  0  0  0  0  0  0
  139.7520   69.9020  225.6050 C   0  0  0  0  0  0  0  0  0  0  0  0
  139.5580   69.1760  226.7580 C   0  0  0  0  0  0  0  0  0  0  0  0
  140.0340   69.6580  227.9720 C   0  0  0  0  0  0  0  0  0  0  0  0
  139.8600   68.9670  229.1260 F   0  0  0  0  0  0  0  0  0  0  0  0
  140.7060   70.8630  228.0730 C   0  0  0  0  0  0  0  0  0  0  0  0
  140.8950   71.5840  226.9080 C   0  0  0  0  0  0  0  0  0  0  0  0
  140.4230   71.1030  225.7060 C   0  0  0  0  0  0  0  0  0  0  0  0
  140.6480   71.8660  224.6170 N   0  0  0  0  0  0  0  0  0  0  0  0
  139.5580   74.0530  223.0890 H   0  0  0  0  0  0  0  0  0  0  0  0
  141.0829   74.1667  220.5020 H   0  0  0  0  0  0  0  0  0  0  0  0
  139.3420   74.6392  220.5364 H   0  0  0  0  0  0  0  0  0  0  0  0
  143.0060   75.8997  219.6785 H   0  0  0  0  0  0  0  0  0  0  0  0
  141.4141   75.6919  218.9310 H   0  0  0  0  0  0  0  0  0  0  0  0
  143.3147   77.7818  218.4599 H   0  0  0  0  0  0  0  0  0  0  0  0
  141.6650   77.6785  217.8020 H   0  0  0  0  0  0  0  0  0  0  0  0
  142.5943   79.5968  219.6314 H   0  0  0  0  0  0  0  0  0  0  0  0
  140.8964   79.2671  219.3086 H   0  0  0  0  0  0  0  0  0  0  0  0
  142.6614   78.2404  221.5771 H   0  0  0  0  0  0  0  0  0  0  0  0
  139.1616   78.6798  220.3269 H   0  0  0  0  0  0  0  0  0  0  0  0
  137.4117   79.8212  221.6283 H   0  0  0  0  0  0  0  0  0  0  0  0
  140.2081   80.3673  224.8328 H   0  0  0  0  0  0  0  0  0  0  0  0
  141.9779   79.2164  223.5194 H   0  0  0  0  0  0  0  0  0  0  0  0
  139.2100   69.9823  222.2597 H   0  0  0  0  0  0  0  0  0  0  0  0
  138.7804   68.5492  224.2504 H   0  0  0  0  0  0  0  0  0  0  0  0
  139.0261   68.2140  226.7190 H   0  0  0  0  0  0  0  0  0  0  0  0
  141.0751   71.2328  229.0410 H   0  0  0  0  0  0  0  0  0  0  0  0
  141.4253   72.5472  226.9411 H   0  0  0  0  0  0  0  0  0  0  0  0
  1  2  2  0
  2  3  1  0
  3  4  1  0
  4  5  1  0
  5  6  2  0
  5  7  1  0
  7  8  1  0
  8  9  1  0
  9 10  1  0
 10 11  1  0
 11 12  1  0
 12 13  2  0
 13 14  1  0
 14 15  2  0
 15 16  1  0
 16 17  1  0
 16 18  1  0
 16 19  1  0
 15 20  1  0
 20 21  2  0
  2 22  1  0
 22 23  2  0
 23 24  1  0
 24 25  2  0
 25 26  1  0
 26 27  2  0
 27 28  1  0
 27 29  1  0
 29 30  2  0
 30 31  1  0
 31 32  2  0
 11  7  1  0
 21 12  1  0
 32 22  1  0
 31 25  1  0
  3 33  1  0
  4 34  1  0
  4 35  1  0
  8 36  1  0
  8 37  1  0
  9 38  1  0
  9 39  1  0
 10 40  1  0
 10 41  1  0
 11 42  1  1
 13 43  1  0
 14 44  1  0
 20 45  1  0
 21 46  1  0
 23 47  1  0
 24 48  1  0
 26 49  1  0
 29 50  1  0
 30 51  1  0
M  END
>  <smiles>  (79) 
O=C(NCC(=O)N1CCCC1c1ccc(C(F)(F)F)cc1)c1ccc2cc(F)ccc2n1

>  <score_type>  (79) 
oracle

>  <origin>  (79) 
autodockgpu

>  <m_score__min__energy>  (79) 
-8.2899999999999991

>  <m_primary>  (79) 
energy

>  <rmsd>  (79) 
2.0608662712494215

>  <m_score__min__rmsd>  (79) 
2.0608662712494215

>  <meeko>  (79) 
{"free_energy": -8.22, "intermolecular_energy": -10.01, "internal_energy": -1.75, "cluster_size": 28, "cluster_id": 1, "rank_in_cluster": 5}

>  <energy>  (79) 
-8.26

>  <cluster_rmsd>  (79) 
0.0

>  <cluster>  (79) 
2

$$$$

     RDKit          3D

 51 54  0  0  0  0  0  0  0  0999 V2000
  141.4620   72.3300  221.7070 O   0  0  0  0  0  0  0  0  0  0  0  0
  140.4400   72.4160  222.4330 C   0  0  0  0  0  0  0  0  0  0  0  0
  139.4430   73.3900  222.2200 N   0  0  0  0  0  0  0  0  0  0  0  0
  139.5680   74.3380  221.1360 C   0  0  0  0  0  0  0  0  0  0  0  0
  140.0470   75.6580  221.6470 C   0  0  0  0  0  0  0  0  0  0  0  0
  139.5300   76.0560  222.7250 O   0  0  0  0  0  0  0  0  0  0  0  0
  141.0240   76.3820  220.9240 N   0  0  0  0  0  0  0  0  0  0  0  0
  141.7370   75.9050  219.7330 C   0  0  0  0  0  0  0  0  0  0  0  0
  142.2160   77.1350  219.0190 C   0  0  0  0  0  0  0  0  0  0  0  0
  141.8580   78.3100  219.8760 C   0  0  0  0  0  0  0  0  0  0  0  0
  141.4970   77.7000  221.2140 C   0  0  1  0  0  0  0  0  0  0  0  0
  140.4730   78.5500  221.9210 C   0  0  0  0  0  0  0  0  0  0  0  0
  140.7200   79.0340  223.1990 C   0  0  0  0  0  0  0  0  0  0  0  0
  139.8120   79.8160  223.8820 C   0  0  0  0  0  0  0  0  0  0  0  0
  138.6060   80.1370  223.2910 C   0  0  0  0  0  0  0  0  0  0  0  0
  137.6200   80.9780  224.0180 C   0  0  0  0  0  0  0  0  0  0  0  0
  136.3890   80.3570  224.1280 F   0  0  0  0  0  0  0  0  0  0  0  0
  137.4160   82.2090  223.4200 F   0  0  0  0  0  0  0  0  0  0  0  0
  138.0690   81.2170  225.3000 F   0  0  0  0  0  0  0  0  0  0  0  0
  138.3460   79.6610  222.0190 C   0  0  0  0  0  0  0  0  0  0  0  0
  139.2660   78.8700  221.3270 C   0  0  0  0  0  0  0  0  0  0  0  0
  140.2560   71.4780  223.5530 C   0  0  0  0  0  0  0  0  0  0  0  0
  139.6110   70.2700  223.3630 C   0  0  0  0  0  0  0  0  0  0  0  0
  139.4360   69.3810  224.4220 C   0  0  0  0  0  0  0  0  0  0  0  0
  139.9080   69.7040  225.6720 C   0  0  0  0  0  0  0  0  0  0  0  0
  139.7820   68.8900  226.7750 C   0  0  0  0  0  0  0  0  0  0  0  0
  140.2910   69.2990  228.0020 C   0  0  0  0  0  0  0  0  0  0  0  0
  140.1830   68.5210  229.1070 F   0  0  0  0  0  0  0  0  0  0  0  0
  140.9330   70.5130  228.1660 C   0  0  0  0  0  0  0  0  0  0  0  0
  141.0540   71.3220  227.0500 C   0  0  0  0  0  0  0  0  0  0  0  0
  140.5480   70.9150  225.8350 C   0  0  0  0  0  0  0  0  0  0  0  0
  140.7080   71.7610  224.7970 N   0  0  0  0  0  0  0  0  0  0  0  0
  138.6100   73.4310  222.8400 H   0  0  0  0  0  0  0  0  0  0  0  0
  140.2879   73.9523  220.3992 H   0  0  0  0  0  0  0  0  0  0  0  0
  138.5821   74.4746  220.6677 H   0  0  0  0  0  0  0  0  0  0  0  0
  142.5905   75.2754  220.0248 H   0  0  0  0  0  0  0  0  0  0  0  0
  141.0859   75.2936  219.0909 H   0  0  0  0  0  0  0  0  0  0  0  0
  143.3060   77.0890  218.8782 H   0  0  0  0  0  0  0  0  0  0  0  0
  141.7492   77.2180  218.0264 H   0  0  0  0  0  0  0  0  0  0  0  0
  142.7138   78.9936  219.9775 H   0  0  0  0  0  0  0  0  0  0  0  0
  141.0374   78.9064  219.4506 H   0  0  0  0  0  0  0  0  0  0  0  0
  142.3551   77.6497  221.9003 H   0  0  0  0  0  0  0  0  0  0  0  0
  141.6750   78.7845  223.6845 H   0  0  0  0  0  0  0  0  0  0  0  0
  140.0474   80.1820  224.8923 H   0  0  0  0  0  0  0  0  0  0  0  0
  137.3886   79.9121  221.5391 H   0  0  0  0  0  0  0  0  0  0  0  0
  139.0320   78.5041  220.3164 H   0  0  0  0  0  0  0  0  0  0  0  0
  139.2315   70.0075  222.3645 H   0  0  0  0  0  0  0  0  0  0  0  0
  138.9212   68.4228  224.2579 H   0  0  0  0  0  0  0  0  0  0  0  0
  139.2786   67.9161  226.6853 H   0  0  0  0  0  0  0  0  0  0  0  0
  141.3311   70.8227  229.1436 H   0  0  0  0  0  0  0  0  0  0  0  0
  141.5575   72.2964  227.1335 H   0  0  0  0  0  0  0  0  0  0  0  0
  1  2  2  0
  2  3  1  0
  3  4  1  0
  4  5  1  0
  5  6  2  0
  5  7  1  0
  7  8  1  0
  8  9  1  0
  9 10  1  0
 10 11  1  0
 11 12  1  0
 12 13  2  0
 13 14  1  0
 14 15  2  0
 15 16  1  0
 16 17  1  0
 16 18  1  0
 16 19  1  0
 15 20  1  0
 20 21  2  0
  2 22  1  0
 22 23  2  0
 23 24  1  0
 24 25  2  0
 25 26  1  0
 26 27  2  0
 27 28  1  0
 27 29  1  0
 29 30  2  0
 30 31  1  0
 31 32  2  0
 11  7  1  0
 21 12  1  0
 32 22  1  0
 31 25  1  0
  3 33  1  0
  4 34  1  0
  4 35  1  0
  8 36  1  0
  8 37  1  0
  9 38  1  0
  9 39  1  0
 10 40  1  0
 10 41  1  0
 11 42  1  1
 13 43  1  0
 14 44  1  0
 20 45  1  0
 21 46  1  0
 23 47  1  0
 24 48  1  0
 26 49  1  0
 29 50  1  0
 30 51  1  0
M  END
>  <smiles>  (80) 
O=C(NCC(=O)N1CCCC1c1ccc(C(F)(F)F)cc1)c1ccc2cc(F)ccc2n1

>  <score_type>  (80) 
oracle

>  <origin>  (80) 
autodockgpu

>  <m_score__min__energy>  (80) 
-8.2899999999999991

>  <m_primary>  (80) 
energy

>  <rmsd>  (80) 
1.8599346867990134

>  <m_score__min__rmsd>  (80) 
1.8599346867990134

>  <meeko>  (80) 
{"free_energy": -8.29, "intermolecular_energy": -10.08, "internal_energy": -1.4, "cluster_size": 28, "cluster_id": 1, "rank_in_cluster": 1}

>  <energy>  (80) 
-8.11

>  <cluster_rmsd>  (80) 
0.91

>  <cluster>  (80) 
2

$$$$

     RDKit          3D

 51 54  0  0  0  0  0  0  0  0999 V2000
  136.6130   71.7480  221.4680 O   0  0  0  0  0  0  0  0  0  0  0  0
  137.4340   72.0880  222.3570 C   0  0  0  0  0  0  0  0  0  0  0  0
  137.2380   71.7840  223.7200 N   0  0  0  0  0  0  0  0  0  0  0  0
  136.0650   71.0570  224.1450 C   0  0  0  0  0  0  0  0  0  0  0  0
  136.3270   69.5850  224.1340 C   0  0  0  0  0  0  0  0  0  0  0  0
  135.6830   68.9010  224.9730 O   0  0  0  0  0  0  0  0  0  0  0  0
  137.2540   69.0400  223.2150 N   0  0  0  0  0  0  0  0  0  0  0  0
  136.9910   68.7560  221.7990 C   0  0  0  0  0  0  0  0  0  0  0  0
  138.3340   68.7320  221.1270 C   0  0  0  0  0  0  0  0  0  0  0  0
  139.3660   68.8990  222.2000 C   0  0  0  0  0  0  0  0  0  0  0  0
  138.6070   68.6660  223.4890 C   0  0  1  0  0  0  0  0  0  0  0  0
  139.2200   69.4620  224.6120 C   0  0  0  0  0  0  0  0  0  0  0  0
  139.0410   69.0710  225.9320 C   0  0  0  0  0  0  0  0  0  0  0  0
  139.5840   69.7680  226.9910 C   0  0  0  0  0  0  0  0  0  0  0  0
  140.3370   70.9000  226.7480 C   0  0  0  0  0  0  0  0  0  0  0  0
  140.9270   71.6600  227.8810 C   0  0  0  0  0  0  0  0  0  0  0  0
  141.7290   72.7000  227.4480 F   0  0  0  0  0  0  0  0  0  0  0  0
  141.6870   70.8680  228.7230 F   0  0  0  0  0  0  0  0  0  0  0  0
  139.9200   72.2150  228.6440 F   0  0  0  0  0  0  0  0  0  0  0  0
  140.5240   71.3020  225.4390 C   0  0  0  0  0  0  0  0  0  0  0  0
  139.9730   70.5950  224.3670 C   0  0  0  0  0  0  0  0  0  0  0  0
  138.6500   72.8300  221.9850 C   0  0  0  0  0  0  0  0  0  0  0  0
  138.6400   74.2110  221.9180 C   0  0  0  0  0  0  0  0  0  0  0  0
  139.7910   74.9160  221.5670 C   0  0  0  0  0  0  0  0  0  0  0  0
  140.9500   74.2340  221.2840 C   0  0  0  0  0  0  0  0  0  0  0  0
  142.1320   74.8450  220.9290 C   0  0  0  0  0  0  0  0  0  0  0  0
  143.2580   74.0750  220.6600 C   0  0  0  0  0  0  0  0  0  0  0  0
  144.4370   74.6450  220.3090 F   0  0  0  0  0  0  0  0  0  0  0  0
  143.2410   72.6940  220.7350 C   0  0  0  0  0  0  0  0  0  0  0  0
  142.0480   72.0920  221.0920 C   0  0  0  0  0  0  0  0  0  0  0  0
  140.9340   72.8580  221.3580 C   0  0  0  0  0  0  0  0  0  0  0  0
  139.8100   72.1940  221.7000 N   0  0  0  0  0  0  0  0  0  0  0  0
  137.9390   72.0800  224.4280 H   0  0  0  0  0  0  0  0  0  0  0  0
  135.7959   71.3689  225.1650 H   0  0  0  0  0  0  0  0  0  0  0  0
  135.2404   71.2762  223.4507 H   0  0  0  0  0  0  0  0  0  0  0  0
  136.4916   67.7819  221.6906 H   0  0  0  0  0  0  0  0  0  0  0  0
  136.3293   69.5124  221.3517 H   0  0  0  0  0  0  0  0  0  0  0  0
  138.4798   67.7725  220.6092 H   0  0  0  0  0  0  0  0  0  0  0  0
  138.4125   69.5353  220.3796 H   0  0  0  0  0  0  0  0  0  0  0  0
  140.1723   68.1598  222.0835 H   0  0  0  0  0  0  0  0  0  0  0  0
  139.8481   69.8872  222.1691 H   0  0  0  0  0  0  0  0  0  0  0  0
  138.6490   67.6177  223.8197 H   0  0  0  0  0  0  0  0  0  0  0  0
  138.4436   68.1714  226.1412 H   0  0  0  0  0  0  0  0  0  0  0  0
  139.4184   69.4245  228.0228 H   0  0  0  0  0  0  0  0  0  0  0  0
  141.1224   72.2023  225.2356 H   0  0  0  0  0  0  0  0  0  0  0  0
  140.1374   70.9379  223.3348 H   0  0  0  0  0  0  0  0  0  0  0  0
  137.7139   74.7598  222.1441 H   0  0  0  0  0  0  0  0  0  0  0  0
  139.7712   76.0147  221.5168 H   0  0  0  0  0  0  0  0  0  0  0  0
  142.1853   75.9414  220.8583 H   0  0  0  0  0  0  0  0  0  0  0  0
  144.1403   72.0983  220.5194 H   0  0  0  0  0  0  0  0  0  0  0  0
  141.9883   70.9960  221.1639 H   0  0  0  0  0  0  0  0  0  0  0  0
  1  2  2  0
  2  3  1  0
  3  4  1  0
  4  5  1  0
  5  6  2  0
  5  7  1  0
  7  8  1  0
  8  9  1  0
  9 10  1  0
 10 11  1  0
 11 12  1  0
 12 13  2  0
 13 14  1  0
 14 15  2  0
 15 16  1  0
 16 17  1  0
 16 18  1  0
 16 19  1  0
 15 20  1  0
 20 21  2  0
  2 22  1  0
 22 23  2  0
 23 24  1  0
 24 25  2  0
 25 26  1  0
 26 27  2  0
 27 28  1  0
 27 29  1  0
 29 30  2  0
 30 31  1  0
 31 32  2  0
 11  7  1  0
 21 12  1  0
 32 22  1  0
 31 25  1  0
  3 33  1  0
  4 34  1  0
  4 35  1  0
  8 36  1  0
  8 37  1  0
  9 38  1  0
  9 39  1  0
 10 40  1  0
 10 41  1  0
 11 42  1  1
 13 43  1  0
 14 44  1  0
 20 45  1  0
 21 46  1  0
 23 47  1  0
 24 48  1  0
 26 49  1  0
 29 50  1  0
 30 51  1  0
M  END
>  <smiles>  (81) 
O=C(NCC(=O)N1CCCC1c1ccc(C(F)(F)F)cc1)c1ccc2cc(F)ccc2n1

>  <score_type>  (81) 
oracle

>  <origin>  (81) 
autodockgpu

>  <m_score__min__energy>  (81) 
-8.2899999999999991

>  <m_primary>  (81) 
energy

>  <rmsd>  (81) 
7.3008201031698325

>  <m_score__min__rmsd>  (81) 
7.3008201031698325

>  <meeko>  (81) 
{"free_energy": -6.61, "intermolecular_energy": -8.4, "internal_energy": -2.62, "cluster_size": 1, "cluster_id": 9, "rank_in_cluster": 1}

>  <energy>  (81) 
-7.87

>  <cluster_rmsd>  (81) 
0.88

>  <cluster>  (81) 
2

$$$$

     RDKit          3D

 51 54  0  0  0  0  0  0  0  0999 V2000
  140.6570   71.8030  221.0070 O   0  0  0  0  0  0  0  0  0  0  0  0
  140.2450   72.3150  222.0780 C   0  0  0  0  0  0  0  0  0  0  0  0
  139.9180   73.6830  222.1840 N   0  0  0  0  0  0  0  0  0  0  0  0
  140.0490   74.5560  221.0400 C   0  0  0  0  0  0  0  0  0  0  0  0
  140.5450   75.9010  221.4600 C   0  0  0  0  0  0  0  0  0  0  0  0
  140.6150   76.1040  222.7010 O   0  0  0  0  0  0  0  0  0  0  0  0
  140.9030   76.8590  220.4820 N   0  0  0  0  0  0  0  0  0  0  0  0
  140.6100   78.2960  220.5430 C   0  0  0  0  0  0  0  0  0  0  0  0
  141.6100   78.9590  219.6390 C   0  0  0  0  0  0  0  0  0  0  0  0
  142.4010   77.8690  218.9830 C   0  0  0  0  0  0  0  0  0  0  0  0
  141.6070   76.6110  219.2620 C   0  0  1  0  0  0  0  0  0  0  0  0
  142.5230   75.4170  219.3450 C   0  0  0  0  0  0  0  0  0  0  0  0
  143.7030   75.4830  220.0750 C   0  0  0  0  0  0  0  0  0  0  0  0
  144.5700   74.4160  220.1790 C   0  0  0  0  0  0  0  0  0  0  0  0
  144.2710   73.2290  219.5380 C   0  0  0  0  0  0  0  0  0  0  0  0
  145.1980   72.0730  219.6430 C   0  0  0  0  0  0  0  0  0  0  0  0
  144.5620   70.9380  220.1140 F   0  0  0  0  0  0  0  0  0  0  0  0
  146.2790   72.3200  220.4700 F   0  0  0  0  0  0  0  0  0  0  0  0
  145.7020   71.7660  218.3960 F   0  0  0  0  0  0  0  0  0  0  0  0
  143.1000   73.1490  218.8080 C   0  0  0  0  0  0  0  0  0  0  0  0
  142.2220   74.2300  218.7040 C   0  0  0  0  0  0  0  0  0  0  0  0
  140.0900   71.4770  223.2790 C   0  0  0  0  0  0  0  0  0  0  0  0
  139.4910   70.2340  223.1990 C   0  0  0  0  0  0  0  0  0  0  0  0
  139.3440   69.4390  224.3350 C   0  0  0  0  0  0  0  0  0  0  0  0
  139.7980   69.8930  225.5500 C   0  0  0  0  0  0  0  0  0  0  0  0
  139.6960   69.1790  226.7230 C   0  0  0  0  0  0  0  0  0  0  0  0
  140.1850   69.7160  227.9080 C   0  0  0  0  0  0  0  0  0  0  0  0
  140.1010   69.0390  229.0800 F   0  0  0  0  0  0  0  0  0  0  0  0
  140.7810   70.9630  227.9610 C   0  0  0  0  0  0  0  0  0  0  0  0
  140.8770   71.6710  226.7760 C   0  0  0  0  0  0  0  0  0  0  0  0
  140.3920   71.1360  225.6030 C   0  0  0  0  0  0  0  0  0  0  0  0
  140.5250   71.8900  224.4920 N   0  0  0  0  0  0  0  0  0  0  0  0
  139.5790   74.0720  223.0860 H   0  0  0  0  0  0  0  0  0  0  0  0
  140.7612   74.1142  220.3276 H   0  0  0  0  0  0  0  0  0  0  0  0
  139.0623   74.6730  220.5680 H   0  0  0  0  0  0  0  0  0  0  0  0
  139.5866   78.4931  220.1912 H   0  0  0  0  0  0  0  0  0  0  0  0
  140.6795   78.6790  221.5718 H   0  0  0  0  0  0  0  0  0  0  0  0
  141.0905   79.5590  218.8774 H   0  0  0  0  0  0  0  0  0  0  0  0
  142.2678   79.6315  220.2091 H   0  0  0  0  0  0  0  0  0  0  0  0
  142.4841   78.0453  217.9004 H   0  0  0  0  0  0  0  0  0  0  0  0
  143.4310   77.8092  219.3645 H   0  0  0  0  0  0  0  0  0  0  0  0
  140.8952   76.3749  218.4572 H   0  0  0  0  0  0  0  0  0  0  0  0
  143.9552   76.4220  220.5895 H   0  0  0  0  0  0  0  0  0  0  0  0
  145.4940   74.5091  220.7686 H   0  0  0  0  0  0  0  0  0  0  0  0
  142.8529   72.2079  218.2948 H   0  0  0  0  0  0  0  0  0  0  0  0
  141.2971   74.1374  218.1159 H   0  0  0  0  0  0  0  0  0  0  0  0
  139.1261   69.8677  222.2281 H   0  0  0  0  0  0  0  0  0  0  0  0
  138.8660   68.4512  224.2589 H   0  0  0  0  0  0  0  0  0  0  0  0
  139.2275   68.1837  226.7222 H   0  0  0  0  0  0  0  0  0  0  0  0
  141.1631   71.3751  228.9066 H   0  0  0  0  0  0  0  0  0  0  0  0
  141.3435   72.6672  226.7707 H   0  0  0  0  0  0  0  0  0  0  0  0
  1  2  2  0
  2  3  1  0
  3  4  1  0
  4  5  1  0
  5  6  2  0
  5  7  1  0
  7  8  1  0
  8  9  1  0
  9 10  1  0
 10 11  1  0
 11 12  1  0
 12 13  2  0
 13 14  1  0
 14 15  2  0
 15 16  1  0
 16 17  1  0
 16 18  1  0
 16 19  1  0
 15 20  1  0
 20 21  2  0
  2 22  1  0
 22 23  2  0
 23 24  1  0
 24 25  2  0
 25 26  1  0
 26 27  2  0
 27 28  1  0
 27 29  1  0
 29 30  2  0
 30 31  1  0
 31 32  2  0
 11  7  1  0
 21 12  1  0
 32 22  1  0
 31 25  1  0
  3 33  1  0
  4 34  1  0
  4 35  1  0
  8 36  1  0
  8 37  1  0
  9 38  1  0
  9 39  1  0
 10 40  1  0
 10 41  1  0
 11 42  1  6
 13 43  1  0
 14 44  1  0
 20 45  1  0
 21 46  1  0
 23 47  1  0
 24 48  1  0
 26 49  1  0
 29 50  1  0
 30 51  1  0
M  END
>  <smiles>  (82) 
O=C(NCC(=O)N1CCCC1c1ccc(C(F)(F)F)cc1)c1ccc2cc(F)ccc2n1

>  <score_type>  (82) 
oracle

>  <origin>  (82) 
autodockgpu

>  <m_score__min__energy>  (82) 
-8.2899999999999991

>  <m_primary>  (82) 
energy

>  <rmsd>  (82) 
2.185032688050948

>  <m_score__min__rmsd>  (82) 
2.185032688050948

>  <meeko>  (82) 
{"free_energy": -7.69, "intermolecular_energy": -9.48, "internal_energy": -2.14, "cluster_size": 7, "cluster_id": 4, "rank_in_cluster": 4}

>  <energy>  (82) 
-7.49

>  <cluster_rmsd>  (82) 
1.27

>  <cluster>  (82) 
2

$$$$

     RDKit          3D

 51 54  0  0  0  0  0  0  0  0999 V2000
  140.4520   71.7920  220.9780 O   0  0  0  0  0  0  0  0  0  0  0  0
  140.1140   72.3020  222.0760 C   0  0  0  0  0  0  0  0  0  0  0  0
  139.8250   73.6760  222.2120 N   0  0  0  0  0  0  0  0  0  0  0  0
  139.9110   74.5570  221.0700 C   0  0  0  0  0  0  0  0  0  0  0  0
  140.4950   75.8740  221.4660 C   0  0  0  0  0  0  0  0  0  0  0  0
  140.6550   76.0600  222.7020 O   0  0  0  0  0  0  0  0  0  0  0  0
  140.8310   76.8240  220.4740 N   0  0  0  0  0  0  0  0  0  0  0  0
  140.4830   78.2500  220.5000 C   0  0  0  0  0  0  0  0  0  0  0  0
  141.4700   78.9320  219.5970 C   0  0  0  0  0  0  0  0  0  0  0  0
  142.3120   77.8610  218.9760 C   0  0  0  0  0  0  0  0  0  0  0  0
  141.5620   76.5790  219.2700 C   0  0  1  0  0  0  0  0  0  0  0  0
  142.5220   75.4230  219.3910 C   0  0  0  0  0  0  0  0  0  0  0  0
  142.2290   74.1990  218.8060 C   0  0  0  0  0  0  0  0  0  0  0  0
  143.0780   73.1150  218.8910 C   0  0  0  0  0  0  0  0  0  0  0  0
  144.2680   73.2330  219.5820 C   0  0  0  0  0  0  0  0  0  0  0  0
  145.1900   72.0730  219.6800 C   0  0  0  0  0  0  0  0  0  0  0  0
  144.5450   70.9330  220.1240 F   0  0  0  0  0  0  0  0  0  0  0  0
  146.2600   72.3040  220.5260 F   0  0  0  0  0  0  0  0  0  0  0  0
  145.7110   71.7850  218.4350 F   0  0  0  0  0  0  0  0  0  0  0  0
  144.5730   74.4470  220.1700 C   0  0  0  0  0  0  0  0  0  0  0  0
  143.7130   75.5440  220.0830 C   0  0  0  0  0  0  0  0  0  0  0  0
  140.0080   71.4550  223.2760 C   0  0  0  0  0  0  0  0  0  0  0  0
  139.4790   70.1810  223.1960 C   0  0  0  0  0  0  0  0  0  0  0  0
  139.3780   69.3780  224.3320 C   0  0  0  0  0  0  0  0  0  0  0  0
  139.8090   69.8550  225.5470 C   0  0  0  0  0  0  0  0  0  0  0  0
  139.7500   69.1360  226.7190 C   0  0  0  0  0  0  0  0  0  0  0  0
  140.2100   69.6980  227.9030 C   0  0  0  0  0  0  0  0  0  0  0  0
  140.1660   69.0160  229.0750 F   0  0  0  0  0  0  0  0  0  0  0  0
  140.7360   70.9760  227.9570 C   0  0  0  0  0  0  0  0  0  0  0  0
  140.7900   71.6900  226.7720 C   0  0  0  0  0  0  0  0  0  0  0  0
  140.3340   71.1290  225.5990 C   0  0  0  0  0  0  0  0  0  0  0  0
  140.4220   71.8900  224.4890 N   0  0  0  0  0  0  0  0  0  0  0  0
  139.5480   74.0630  223.1360 H   0  0  0  0  0  0  0  0  0  0  0  0
  140.5496   74.0940  220.3033 H   0  0  0  0  0  0  0  0  0  0  0  0
  138.8989   74.7226  220.6722 H   0  0  0  0  0  0  0  0  0  0  0  0
  139.4583   78.4004  220.1295 H   0  0  0  0  0  0  0  0  0  0  0  0
  140.5228   78.6565  221.5214 H   0  0  0  0  0  0  0  0  0  0  0  0
  140.9395   79.4955  218.8154 H   0  0  0  0  0  0  0  0  0  0  0  0
  142.0927   79.6410  220.1623 H   0  0  0  0  0  0  0  0  0  0  0  0
  142.4050   78.0182  217.8913 H   0  0  0  0  0  0  0  0  0  0  0  0
  143.3376   77.8489  219.3735 H   0  0  0  0  0  0  0  0  0  0  0  0
  140.8717   76.2997  218.4604 H   0  0  0  0  0  0  0  0  0  0  0  0
  141.2841   74.0891  218.2537 H   0  0  0  0  0  0  0  0  0  0  0  0
  142.8088   72.1624  218.4113 H   0  0  0  0  0  0  0  0  0  0  0  0
  145.5190   74.5515  220.7214 H   0  0  0  0  0  0  0  0  0  0  0  0
  143.9812   76.4974  220.5615 H   0  0  0  0  0  0  0  0  0  0  0  0
  139.1336   69.7957  222.2253 H   0  0  0  0  0  0  0  0  0  0  0  0
  138.9546   68.3656  224.2558 H   0  0  0  0  0  0  0  0  0  0  0  0
  139.3384   68.1159  226.7181 H   0  0  0  0  0  0  0  0  0  0  0  0
  141.0966   71.4074  228.9025 H   0  0  0  0  0  0  0  0  0  0  0  0
  141.1993   72.7110  226.7669 H   0  0  0  0  0  0  0  0  0  0  0  0
  1  2  2  0
  2  3  1  0
  3  4  1  0
  4  5  1  0
  5  6  2  0
  5  7  1  0
  7  8  1  0
  8  9  1  0
  9 10  1  0
 10 11  1  0
 11 12  1  0
 12 13  2  0
 13 14  1  0
 14 15  2  0
 15 16  1  0
 16 17  1  0
 16 18  1  0
 16 19  1  0
 15 20  1  0
 20 21  2  0
  2 22  1  0
 22 23  2  0
 23 24  1  0
 24 25  2  0
 25 26  1  0
 26 27  2  0
 27 28  1  0
 27 29  1  0
 29 30  2  0
 30 31  1  0
 31 32  2  0
 11  7  1  0
 21 12  1  0
 32 22  1  0
 31 25  1  0
  3 33  1  0
  4 34  1  0
  4 35  1  0
  8 36  1  0
  8 37  1  0
  9 38  1  0
  9 39  1  0
 10 40  1  0
 10 41  1  0
 11 42  1  6
 13 43  1  0
 14 44  1  0
 20 45  1  0
 21 46  1  0
 23 47  1  0
 24 48  1  0
 26 49  1  0
 29 50  1  0
 30 51  1  0
M  END
>  <smiles>  (83) 
O=C(NCC(=O)N1CCCC1c1ccc(C(F)(F)F)cc1)c1ccc2cc(F)ccc2n1

>  <score_type>  (83) 
oracle

>  <origin>  (83) 
autodockgpu

>  <m_score__min__energy>  (83) 
-8.2899999999999991

>  <m_primary>  (83) 
energy

>  <rmsd>  (83) 
2.11546441632476

>  <m_score__min__rmsd>  (83) 
2.11546441632476

>  <meeko>  (83) 
{"free_energy": -7.62, "intermolecular_energy": -9.41, "internal_energy": -2.18, "cluster_size": 7, "cluster_id": 4, "rank_in_cluster": 5}

>  <energy>  (83) 
-7.89

>  <cluster_rmsd>  (83) 
0.0

>  <cluster>  (83) 
3

$$$$

     RDKit          3D

 51 54  0  0  0  0  0  0  0  0999 V2000
  140.8190   71.7290  221.1010 O   0  0  0  0  0  0  0  0  0  0  0  0
  140.3380   72.2170  222.1550 C   0  0  0  0  0  0  0  0  0  0  0  0
  139.9600   73.5730  222.2540 N   0  0  0  0  0  0  0  0  0  0  0  0
  140.1180   74.4590  221.1250 C   0  0  0  0  0  0  0  0  0  0  0  0
  140.4710   75.8370  221.5840 C   0  0  0  0  0  0  0  0  0  0  0  0
  139.9960   76.1890  222.6970 O   0  0  0  0  0  0  0  0  0  0  0  0
  141.2920   76.6610  220.7800 N   0  0  0  0  0  0  0  0  0  0  0  0
  141.9230   76.2660  219.5140 C   0  0  0  0  0  0  0  0  0  0  0  0
  142.2030   77.5440  218.7770 C   0  0  0  0  0  0  0  0  0  0  0  0
  141.8220   78.6710  219.6880 C   0  0  0  0  0  0  0  0  0  0  0  0
  141.6610   78.0160  221.0440 C   0  0  1  0  0  0  0  0  0  0  0  0
  140.6370   78.7540  221.8660 C   0  0  0  0  0  0  0  0  0  0  0  0
  139.3750   79.0170  221.3510 C   0  0  0  0  0  0  0  0  0  0  0  0
  138.4060   79.6870  222.0680 C   0  0  0  0  0  0  0  0  0  0  0  0
  138.6850   80.1240  223.3480 C   0  0  0  0  0  0  0  0  0  0  0  0
  137.6500   80.8480  224.1300 C   0  0  0  0  0  0  0  0  0  0  0  0
  137.2940   82.0460  223.5380 F   0  0  0  0  0  0  0  0  0  0  0  0
  138.0470   81.1240  225.4260 F   0  0  0  0  0  0  0  0  0  0  0  0
  136.5060   80.0800  224.2100 F   0  0  0  0  0  0  0  0  0  0  0  0
  139.9380   79.8700  223.8750 C   0  0  0  0  0  0  0  0  0  0  0  0
  140.9180   79.1900  223.1480 C   0  0  0  0  0  0  0  0  0  0  0  0
  140.1530   71.3630  223.3400 C   0  0  0  0  0  0  0  0  0  0  0  0
  139.5500   70.1250  223.2300 C   0  0  0  0  0  0  0  0  0  0  0  0
  139.3740   69.3150  224.3510 C   0  0  0  0  0  0  0  0  0  0  0  0
  139.8030   69.7490  225.5820 C   0  0  0  0  0  0  0  0  0  0  0  0
  139.6720   69.0200  226.7420 C   0  0  0  0  0  0  0  0  0  0  0  0
  140.1370   69.5380  227.9450 C   0  0  0  0  0  0  0  0  0  0  0  0
  140.0240   68.8450  229.1050 F   0  0  0  0  0  0  0  0  0  0  0  0
  140.7370   70.7810  228.0290 C   0  0  0  0  0  0  0  0  0  0  0  0
  140.8630   71.5050  226.8560 C   0  0  0  0  0  0  0  0  0  0  0  0
  140.4020   70.9890  225.6650 C   0  0  0  0  0  0  0  0  0  0  0  0
  140.5620   71.7570  224.5680 N   0  0  0  0  0  0  0  0  0  0  0  0
  139.5650   73.9420  223.1420 H   0  0  0  0  0  0  0  0  0  0  0  0
  140.9197   74.0777  220.4755 H   0  0  0  0  0  0  0  0  0  0  0  0
  139.1683   74.5016  220.5716 H   0  0  0  0  0  0  0  0  0  0  0  0
  142.8597   75.7224  219.7067 H   0  0  0  0  0  0  0  0  0  0  0  0
  141.2731   75.5974  218.9303 H   0  0  0  0  0  0  0  0  0  0  0  0
  143.2718   77.6076  218.5248 H   0  0  0  0  0  0  0  0  0  0  0  0
  141.6302   77.5883  217.8389 H   0  0  0  0  0  0  0  0  0  0  0  0
  142.6132   79.4348  219.7154 H   0  0  0  0  0  0  0  0  0  0  0  0
  140.9083   79.1876  219.3590 H   0  0  0  0  0  0  0  0  0  0  0  0
  142.5861   78.0447  221.6384 H   0  0  0  0  0  0  0  0  0  0  0  0
  139.1387   78.6779  220.3316 H   0  0  0  0  0  0  0  0  0  0  0  0
  137.4172   79.8722  221.6232 H   0  0  0  0  0  0  0  0  0  0  0  0
  140.1693   80.2127  224.8943 H   0  0  0  0  0  0  0  0  0  0  0  0
  141.9067   79.0026  223.5923 H   0  0  0  0  0  0  0  0  0  0  0  0
  139.2046   69.7742  222.2463 H   0  0  0  0  0  0  0  0  0  0  0  0
  138.8929   68.3309  224.2502 H   0  0  0  0  0  0  0  0  0  0  0  0
  139.1992   68.0271  226.7170 H   0  0  0  0  0  0  0  0  0  0  0  0
  141.0993   71.1782  228.9887 H   0  0  0  0  0  0  0  0  0  0  0  0
  141.3343   72.4987  226.8751 H   0  0  0  0  0  0  0  0  0  0  0  0
  1  2  2  0
  2  3  1  0
  3  4  1  0
  4  5  1  0
  5  6  2  0
  5  7  1  0
  7  8  1  0
  8  9  1  0
  9 10  1  0
 10 11  1  0
 11 12  1  0
 12 13  2  0
 13 14  1  0
 14 15  2  0
 15 16  1  0
 16 17  1  0
 16 18  1  0
 16 19  1  0
 15 20  1  0
 20 21  2  0
  2 22  1  0
 22 23  2  0
 23 24  1  0
 24 25  2  0
 25 26  1  0
 26 27  2  0
 27 28  1  0
 27 29  1  0
 29 30  2  0
 30 31  1  0
 31 32  2  0
 11  7  1  0
 21 12  1  0
 32 22  1  0
 31 25  1  0
  3 33  1  0
  4 34  1  0
  4 35  1  0
  8 36  1  0
  8 37  1  0
  9 38  1  0
  9 39  1  0
 10 40  1  0
 10 41  1  0
 11 42  1  1
 13 43  1  0
 14 44  1  0
 20 45  1  0
 21 46  1  0
 23 47  1  0
 24 48  1  0
 26 49  1  0
 29 50  1  0
 30 51  1  0
M  END
>  <smiles>  (84) 
O=C(NCC(=O)N1CCCC1c1ccc(C(F)(F)F)cc1)c1ccc2cc(F)ccc2n1

>  <score_type>  (84) 
oracle

>  <origin>  (84) 
autodockgpu

>  <m_score__min__energy>  (84) 
-8.2899999999999991

>  <m_primary>  (84) 
energy

>  <rmsd>  (84) 
1.9402959650876683

>  <m_score__min__rmsd>  (84) 
1.9402959650876683

>  <meeko>  (84) 
{"free_energy": -8.2, "intermolecular_energy": -9.99, "internal_energy": -1.78, "cluster_size": 28, "cluster_id": 1, "rank_in_cluster": 16}

>  <energy>  (84) 
-7.89

>  <cluster_rmsd>  (84) 
0.11

>  <cluster>  (84) 
3

$$$$

     RDKit          3D

 51 54  0  0  0  0  0  0  0  0999 V2000
  141.0320   71.8030  221.1820 O   0  0  0  0  0  0  0  0  0  0  0  0
  140.4650   72.2870  222.1950 C   0  0  0  0  0  0  0  0  0  0  0  0
  140.0390   73.6300  222.2510 N   0  0  0  0  0  0  0  0  0  0  0  0
  140.2450   74.5090  221.1240 C   0  0  0  0  0  0  0  0  0  0  0  0
  140.5230   75.9020  221.5890 C   0  0  0  0  0  0  0  0  0  0  0  0
  139.9940   76.2370  222.6820 O   0  0  0  0  0  0  0  0  0  0  0  0
  141.3370   76.7570  220.8100 N   0  0  0  0  0  0  0  0  0  0  0  0
  142.0400   76.3820  219.5770 C   0  0  0  0  0  0  0  0  0  0  0  0
  142.2880   77.6650  218.8380 C   0  0  0  0  0  0  0  0  0  0  0  0
  141.8140   78.7800  219.7180 C   0  0  0  0  0  0  0  0  0  0  0  0
  141.6280   78.1320  221.0740 C   0  0  1  0  0  0  0  0  0  0  0  0
  140.5350   78.8270  221.8440 C   0  0  0  0  0  0  0  0  0  0  0  0
  140.7680   79.3010  223.1280 C   0  0  0  0  0  0  0  0  0  0  0  0
  139.7980   79.9430  223.8680 C   0  0  0  0  0  0  0  0  0  0  0  0
  138.5400   80.1280  223.3290 C   0  0  0  0  0  0  0  0  0  0  0  0
  137.4860   80.8190  224.1170 C   0  0  0  0  0  0  0  0  0  0  0  0
  136.2770   80.1490  224.0670 F   0  0  0  0  0  0  0  0  0  0  0  0
  137.2620   82.1180  223.6980 F   0  0  0  0  0  0  0  0  0  0  0  0
  137.8620   80.8790  225.4440 F   0  0  0  0  0  0  0  0  0  0  0  0
  138.2920   79.6620  222.0510 C   0  0  0  0  0  0  0  0  0  0  0  0
  139.2760   79.0120  221.3020 C   0  0  0  0  0  0  0  0  0  0  0  0
  140.2260   71.4390  223.3750 C   0  0  0  0  0  0  0  0  0  0  0  0
  139.5740   70.2270  223.2530 C   0  0  0  0  0  0  0  0  0  0  0  0
  139.3480   69.4240  224.3700 C   0  0  0  0  0  0  0  0  0  0  0  0
  139.7760   69.8380  225.6090 C   0  0  0  0  0  0  0  0  0  0  0  0
  139.5970   69.1130  226.7650 C   0  0  0  0  0  0  0  0  0  0  0  0
  140.0640   69.6100  227.9760 C   0  0  0  0  0  0  0  0  0  0  0  0
  139.9040   68.9210  229.1330 F   0  0  0  0  0  0  0  0  0  0  0  0
  140.7140   70.8280  228.0710 C   0  0  0  0  0  0  0  0  0  0  0  0
  140.8870   71.5470  226.9020 C   0  0  0  0  0  0  0  0  0  0  0  0
  140.4240   71.0520  225.7030 C   0  0  0  0  0  0  0  0  0  0  0  0
  140.6330   71.8140  224.6100 N   0  0  0  0  0  0  0  0  0  0  0  0
  139.5720   73.9950  223.1050 H   0  0  0  0  0  0  0  0  0  0  0  0
  141.1002   74.1470  220.5344 H   0  0  0  0  0  0  0  0  0  0  0  0
  139.3341   74.5155  220.5074 H   0  0  0  0  0  0  0  0  0  0  0  0
  142.9932   75.8874  219.8154 H   0  0  0  0  0  0  0  0  0  0  0  0
  141.4494   75.6765  218.9741 H   0  0  0  0  0  0  0  0  0  0  0  0
  143.3622   77.7790  218.6304 H   0  0  0  0  0  0  0  0  0  0  0  0
  141.7541   77.6718  217.8763 H   0  0  0  0  0  0  0  0  0  0  0  0
  142.5647   79.5824  219.7691 H   0  0  0  0  0  0  0  0  0  0  0  0
  140.8906   79.2469  219.3447 H   0  0  0  0  0  0  0  0  0  0  0  0
  142.5242   78.2125  221.7067 H   0  0  0  0  0  0  0  0  0  0  0  0
  141.7644   79.1589  223.5717 H   0  0  0  0  0  0  0  0  0  0  0  0
  140.0246   80.3057  224.8815 H   0  0  0  0  0  0  0  0  0  0  0  0
  137.2936   79.8069  221.6125 H   0  0  0  0  0  0  0  0  0  0  0  0
  139.0510   78.6498  220.2880 H   0  0  0  0  0  0  0  0  0  0  0  0
  139.2294   69.8919  222.2636 H   0  0  0  0  0  0  0  0  0  0  0  0
  138.8281   68.4609  224.2601 H   0  0  0  0  0  0  0  0  0  0  0  0
  139.0844   68.1403  226.7305 H   0  0  0  0  0  0  0  0  0  0  0  0
  141.0782   71.2088  229.0366 H   0  0  0  0  0  0  0  0  0  0  0  0
  141.3978   72.5208  226.9302 H   0  0  0  0  0  0  0  0  0  0  0  0
  1  2  2  0
  2  3  1  0
  3  4  1  0
  4  5  1  0
  5  6  2  0
  5  7  1  0
  7  8  1  0
  8  9  1  0
  9 10  1  0
 10 11  1  0
 11 12  1  0
 12 13  2  0
 13 14  1  0
 14 15  2  0
 15 16  1  0
 16 17  1  0
 16 18  1  0
 16 19  1  0
 15 20  1  0
 20 21  2  0
  2 22  1  0
 22 23  2  0
 23 24  1  0
 24 25  2  0
 25 26  1  0
 26 27  2  0
 27 28  1  0
 27 29  1  0
 29 30  2  0
 30 31  1  0
 31 32  2  0
 11  7  1  0
 21 12  1  0
 32 22  1  0
 31 25  1  0
  3 33  1  0
  4 34  1  0
  4 35  1  0
  8 36  1  0
  8 37  1  0
  9 38  1  0
  9 39  1  0
 10 40  1  0
 10 41  1  0
 11 42  1  1
 13 43  1  0
 14 44  1  0
 20 45  1  0
 21 46  1  0
 23 47  1  0
 24 48  1  0
 26 49  1  0
 29 50  1  0
 30 51  1  0
M  END
>  <smiles>  (85) 
O=C(NCC(=O)N1CCCC1c1ccc(C(F)(F)F)cc1)c1ccc2cc(F)ccc2n1

>  <score_type>  (85) 
oracle

>  <origin>  (85) 
autodockgpu

>  <m_score__min__energy>  (85) 
-8.2899999999999991

>  <m_primary>  (85) 
energy

>  <rmsd>  (85) 
2.052662918197348

>  <m_score__min__rmsd>  (85) 
2.052662918197348

>  <meeko>  (85) 
{"free_energy": -8.2, "intermolecular_energy": -9.98, "internal_energy": -1.77, "cluster_size": 28, "cluster_id": 1, "rank_in_cluster": 20}

>  <energy>  (85) 
-7.86

>  <cluster_rmsd>  (85) 
0.14

>  <cluster>  (85) 
3

$$$$

     RDKit          3D

 51 54  0  0  0  0  0  0  0  0999 V2000
  140.8230   71.6270  221.1640 O   0  0  0  0  0  0  0  0  0  0  0  0
  140.3390   72.1220  222.2130 C   0  0  0  0  0  0  0  0  0  0  0  0
  139.9680   73.4800  222.3040 N   0  0  0  0  0  0  0  0  0  0  0  0
  140.1370   74.3610  221.1720 C   0  0  0  0  0  0  0  0  0  0  0  0
  140.4390   75.7520  221.6290 C   0  0  0  0  0  0  0  0  0  0  0  0
  139.9070   76.1060  222.7150 O   0  0  0  0  0  0  0  0  0  0  0  0
  141.2790   76.5830  220.8520 N   0  0  0  0  0  0  0  0  0  0  0  0
  141.9680   76.1900  219.6170 C   0  0  0  0  0  0  0  0  0  0  0  0
  142.2560   77.4670  218.8810 C   0  0  0  0  0  0  0  0  0  0  0  0
  141.8170   78.5940  219.7650 C   0  0  0  0  0  0  0  0  0  0  0  0
  141.6120   77.9480  221.1190 C   0  0  1  0  0  0  0  0  0  0  0  0
  140.5410   78.6740  221.8920 C   0  0  0  0  0  0  0  0  0  0  0  0
  140.8350   79.2770  223.1070 C   0  0  0  0  0  0  0  0  0  0  0  0
  139.8870   79.9520  223.8470 C   0  0  0  0  0  0  0  0  0  0  0  0
  138.5910   80.0400  223.3790 C   0  0  0  0  0  0  0  0  0  0  0  0
  137.5610   80.7640  224.1670 C   0  0  0  0  0  0  0  0  0  0  0  0
  137.7190   80.5730  225.5280 F   0  0  0  0  0  0  0  0  0  0  0  0
  136.2700   80.3910  223.8400 F   0  0  0  0  0  0  0  0  0  0  0  0
  137.6640   82.1200  223.9330 F   0  0  0  0  0  0  0  0  0  0  0  0
  138.2830   79.4440  222.1700 C   0  0  0  0  0  0  0  0  0  0  0  0
  139.2440   78.7600  221.4200 C   0  0  0  0  0  0  0  0  0  0  0  0
  140.1420   71.2750  223.4010 C   0  0  0  0  0  0  0  0  0  0  0  0
  139.5320   70.0400  223.2930 C   0  0  0  0  0  0  0  0  0  0  0  0
  139.3450   69.2350  224.4170 C   0  0  0  0  0  0  0  0  0  0  0  0
  139.7710   69.6720  225.6480 C   0  0  0  0  0  0  0  0  0  0  0  0
  139.6300   68.9490  226.8100 C   0  0  0  0  0  0  0  0  0  0  0  0
  140.0920   69.4690  228.0140 C   0  0  0  0  0  0  0  0  0  0  0  0
  139.9680   68.7820  229.1760 F   0  0  0  0  0  0  0  0  0  0  0  0
  140.7000   70.7090  228.0950 C   0  0  0  0  0  0  0  0  0  0  0  0
  140.8360   71.4270  226.9200 C   0  0  0  0  0  0  0  0  0  0  0  0
  140.3770   70.9080  225.7290 C   0  0  0  0  0  0  0  0  0  0  0  0
  140.5480   71.6710  224.6290 N   0  0  0  0  0  0  0  0  0  0  0  0
  139.5700   73.8550  223.1880 H   0  0  0  0  0  0  0  0  0  0  0  0
  140.9681   73.9961  220.5507 H   0  0  0  0  0  0  0  0  0  0  0  0
  139.2039   74.3735  220.5897 H   0  0  0  0  0  0  0  0  0  0  0  0
  142.9053   75.6646  219.8526 H   0  0  0  0  0  0  0  0  0  0  0  0
  141.3542   75.5057  219.0128 H   0  0  0  0  0  0  0  0  0  0  0  0
  143.3332   77.5480  218.6733 H   0  0  0  0  0  0  0  0  0  0  0  0
  141.7226   77.4933  217.9194 H   0  0  0  0  0  0  0  0  0  0  0  0
  142.5922   79.3727  219.8179 H   0  0  0  0  0  0  0  0  0  0  0  0
  140.9083   79.0904  219.3938 H   0  0  0  0  0  0  0  0  0  0  0  0
  142.5109   77.9993  221.7509 H   0  0  0  0  0  0  0  0  0  0  0  0
  141.8627   79.2142  223.4942 H   0  0  0  0  0  0  0  0  0  0  0  0
  140.1619   80.4178  224.8049 H   0  0  0  0  0  0  0  0  0  0  0  0
  137.2536   79.5099  221.7879 H   0  0  0  0  0  0  0  0  0  0  0  0
  138.9707   78.2938  220.4619 H   0  0  0  0  0  0  0  0  0  0  0  0
  139.1897   69.6872  222.3089 H   0  0  0  0  0  0  0  0  0  0  0  0
  138.8581   68.2536  224.3180 H   0  0  0  0  0  0  0  0  0  0  0  0
  139.1514   67.9588  226.7866 H   0  0  0  0  0  0  0  0  0  0  0  0
  141.0607   71.1080  229.0545 H   0  0  0  0  0  0  0  0  0  0  0  0
  141.3133   72.4179  226.9368 H   0  0  0  0  0  0  0  0  0  0  0  0
  1  2  2  0
  2  3  1  0
  3  4  1  0
  4  5  1  0
  5  6  2  0
  5  7  1  0
  7  8  1  0
  8  9  1  0
  9 10  1  0
 10 11  1  0
 11 12  1  0
 12 13  2  0
 13 14  1  0
 14 15  2  0
 15 16  1  0
 16 17  1  0
 16 18  1  0
 16 19  1  0
 15 20  1  0
 20 21  2  0
  2 22  1  0
 22 23  2  0
 23 24  1  0
 24 25  2  0
 25 26  1  0
 26 27  2  0
 27 28  1  0
 27 29  1  0
 29 30  2  0
 30 31  1  0
 31 32  2  0
 11  7  1  0
 21 12  1  0
 32 22  1  0
 31 25  1  0
  3 33  1  0
  4 34  1  0
  4 35  1  0
  8 36  1  0
  8 37  1  0
  9 38  1  0
  9 39  1  0
 10 40  1  0
 10 41  1  0
 11 42  1  1
 13 43  1  0
 14 44  1  0
 20 45  1  0
 21 46  1  0
 23 47  1  0
 24 48  1  0
 26 49  1  0
 29 50  1  0
 30 51  1  0
M  END
>  <smiles>  (86) 
O=C(NCC(=O)N1CCCC1c1ccc(C(F)(F)F)cc1)c1ccc2cc(F)ccc2n1

>  <score_type>  (86) 
oracle

>  <origin>  (86) 
autodockgpu

>  <m_score__min__energy>  (86) 
-8.2899999999999991

>  <m_primary>  (86) 
energy

>  <rmsd>  (86) 
1.941497176559703

>  <m_score__min__rmsd>  (86) 
1.941497176559703

>  <meeko>  (86) 
{"free_energy": -8.2, "intermolecular_energy": -9.99, "internal_energy": -1.75, "cluster_size": 28, "cluster_id": 1, "rank_in_cluster": 18}

>  <energy>  (86) 
-7.85

>  <cluster_rmsd>  (86) 
0.12

>  <cluster>  (86) 
3

$$$$

     RDKit          3D

 51 54  0  0  0  0  0  0  0  0999 V2000
  140.9500   71.6830  221.1550 O   0  0  0  0  0  0  0  0  0  0  0  0
  140.4130   72.1690  222.1830 C   0  0  0  0  0  0  0  0  0  0  0  0
  140.0100   73.5190  222.2560 N   0  0  0  0  0  0  0  0  0  0  0  0
  140.2040   74.4010  221.1290 C   0  0  0  0  0  0  0  0  0  0  0  0
  140.5520   75.7780  221.5940 C   0  0  0  0  0  0  0  0  0  0  0  0
  140.0930   76.1160  222.7180 O   0  0  0  0  0  0  0  0  0  0  0  0
  141.3510   76.6170  220.7830 N   0  0  0  0  0  0  0  0  0  0  0  0
  141.9820   76.2330  219.5140 C   0  0  0  0  0  0  0  0  0  0  0  0
  142.2320   77.5150  218.7740 C   0  0  0  0  0  0  0  0  0  0  0  0
  141.8330   78.6350  219.6850 C   0  0  0  0  0  0  0  0  0  0  0  0
  141.6950   77.9800  221.0430 C   0  0  1  0  0  0  0  0  0  0  0  0
  140.6600   78.6990  221.8710 C   0  0  0  0  0  0  0  0  0  0  0  0
  139.3880   78.9300  221.3650 C   0  0  0  0  0  0  0  0  0  0  0  0
  138.4110   79.5810  222.0870 C   0  0  0  0  0  0  0  0  0  0  0  0
  138.6900   80.0310  223.3630 C   0  0  0  0  0  0  0  0  0  0  0  0
  137.6450   80.7350  224.1500 C   0  0  0  0  0  0  0  0  0  0  0  0
  138.0220   80.9160  225.4690 F   0  0  0  0  0  0  0  0  0  0  0  0
  136.4310   80.0720  224.1490 F   0  0  0  0  0  0  0  0  0  0  0  0
  137.4260   81.9880  223.6160 F   0  0  0  0  0  0  0  0  0  0  0  0
  139.9530   79.8080  223.8800 C   0  0  0  0  0  0  0  0  0  0  0  0
  140.9420   79.1480  223.1480 C   0  0  0  0  0  0  0  0  0  0  0  0
  140.1870   71.3190  223.3640 C   0  0  0  0  0  0  0  0  0  0  0  0
  139.5360   70.1060  223.2460 C   0  0  0  0  0  0  0  0  0  0  0  0
  139.3220   69.3000  224.3640 C   0  0  0  0  0  0  0  0  0  0  0  0
  139.7610   69.7130  225.5980 C   0  0  0  0  0  0  0  0  0  0  0  0
  139.5950   68.9850  226.7550 C   0  0  0  0  0  0  0  0  0  0  0  0
  140.0740   69.4810  227.9620 C   0  0  0  0  0  0  0  0  0  0  0  0
  139.9260   68.7890  229.1190 F   0  0  0  0  0  0  0  0  0  0  0  0
  140.7230   70.6990  228.0530 C   0  0  0  0  0  0  0  0  0  0  0  0
  140.8840   71.4210  226.8840 C   0  0  0  0  0  0  0  0  0  0  0  0
  140.4090   70.9270  225.6890 C   0  0  0  0  0  0  0  0  0  0  0  0
  140.6060   71.6920  224.5950 N   0  0  0  0  0  0  0  0  0  0  0  0
  139.5680   73.8860  223.1220 H   0  0  0  0  0  0  0  0  0  0  0  0
  141.0211   74.0134  220.5028 H   0  0  0  0  0  0  0  0  0  0  0  0
  139.2702   74.4473  220.5494 H   0  0  0  0  0  0  0  0  0  0  0  0
  142.9304   75.7084  219.7017 H   0  0  0  0  0  0  0  0  0  0  0  0
  141.3421   75.5508  218.9351 H   0  0  0  0  0  0  0  0  0  0  0  0
  143.2980   77.6000  218.5161 H   0  0  0  0  0  0  0  0  0  0  0  0
  141.6536   77.5462  217.8389 H   0  0  0  0  0  0  0  0  0  0  0  0
  142.6077   79.4156  219.7056 H   0  0  0  0  0  0  0  0  0  0  0  0
  140.9062   79.1310  219.3610 H   0  0  0  0  0  0  0  0  0  0  0  0
  142.6232   78.0288  221.6312 H   0  0  0  0  0  0  0  0  0  0  0  0
  139.1509   78.5802  220.3494 H   0  0  0  0  0  0  0  0  0  0  0  0
  137.4145   79.7414  221.6496 H   0  0  0  0  0  0  0  0  0  0  0  0
  140.1849   80.1603  224.8959 H   0  0  0  0  0  0  0  0  0  0  0  0
  141.9388   78.9863  223.5843 H   0  0  0  0  0  0  0  0  0  0  0  0
  139.1825   69.7722  222.2593 H   0  0  0  0  0  0  0  0  0  0  0  0
  138.8030   68.3360  224.2576 H   0  0  0  0  0  0  0  0  0  0  0  0
  139.0837   68.0116  226.7241 H   0  0  0  0  0  0  0  0  0  0  0  0
  141.0960   71.0782  229.0158 H   0  0  0  0  0  0  0  0  0  0  0  0
  141.3943   72.3952  226.9088 H   0  0  0  0  0  0  0  0  0  0  0  0
  1  2  2  0
  2  3  1  0
  3  4  1  0
  4  5  1  0
  5  6  2  0
  5  7  1  0
  7  8  1  0
  8  9  1  0
  9 10  1  0
 10 11  1  0
 11 12  1  0
 12 13  2  0
 13 14  1  0
 14 15  2  0
 15 16  1  0
 16 17  1  0
 16 18  1  0
 16 19  1  0
 15 20  1  0
 20 21  2  0
  2 22  1  0
 22 23  2  0
 23 24  1  0
 24 25  2  0
 25 26  1  0
 26 27  2  0
 27 28  1  0
 27 29  1  0
 29 30  2  0
 30 31  1  0
 31 32  2  0
 11  7  1  0
 21 12  1  0
 32 22  1  0
 31 25  1  0
  3 33  1  0
  4 34  1  0
  4 35  1  0
  8 36  1  0
  8 37  1  0
  9 38  1  0
  9 39  1  0
 10 40  1  0
 10 41  1  0
 11 42  1  1
 13 43  1  0
 14 44  1  0
 20 45  1  0
 21 46  1  0
 23 47  1  0
 24 48  1  0
 26 49  1  0
 29 50  1  0
 30 51  1  0
M  END
>  <smiles>  (87) 
O=C(NCC(=O)N1CCCC1c1ccc(C(F)(F)F)cc1)c1ccc2cc(F)ccc2n1

>  <score_type>  (87) 
oracle

>  <origin>  (87) 
autodockgpu

>  <m_score__min__energy>  (87) 
-8.2899999999999991

>  <m_primary>  (87) 
energy

>  <rmsd>  (87) 
1.9547206417394005

>  <m_score__min__rmsd>  (87) 
1.9547206417394005

>  <meeko>  (87) 
{"free_energy": -8.21, "intermolecular_energy": -9.99, "internal_energy": -1.76, "cluster_size": 28, "cluster_id": 1, "rank_in_cluster": 12}

>  <energy>  (87) 
-7.8

>  <cluster_rmsd>  (87) 
0.21

>  <cluster>  (87) 
3

$$$$

     RDKit          3D

 51 54  0  0  0  0  0  0  0  0999 V2000
  141.1240   71.8270  221.2270 O   0  0  0  0  0  0  0  0  0  0  0  0
  140.5190   72.2970  222.2230 C   0  0  0  0  0  0  0  0  0  0  0  0
  140.0660   73.6330  222.2690 N   0  0  0  0  0  0  0  0  0  0  0  0
  140.2880   74.5170  221.1490 C   0  0  0  0  0  0  0  0  0  0  0  0
  140.5120   75.9170  221.6220 C   0  0  0  0  0  0  0  0  0  0  0  0
  139.9510   76.2330  222.7050 O   0  0  0  0  0  0  0  0  0  0  0  0
  141.3160   76.7990  220.8620 N   0  0  0  0  0  0  0  0  0  0  0  0
  142.0030   76.4660  219.6080 C   0  0  0  0  0  0  0  0  0  0  0  0
  142.2420   77.7740  218.9100 C   0  0  0  0  0  0  0  0  0  0  0  0
  141.7790   78.8580  219.8340 C   0  0  0  0  0  0  0  0  0  0  0  0
  141.6110   78.1640  221.1690 C   0  0  1  0  0  0  0  0  0  0  0  0
  140.5280   78.8310  221.9770 C   0  0  0  0  0  0  0  0  0  0  0  0
  139.2810   79.0780  221.4170 C   0  0  0  0  0  0  0  0  0  0  0  0
  138.2610   79.6840  222.1190 C   0  0  0  0  0  0  0  0  0  0  0  0
  138.4690   80.0700  223.4290 C   0  0  0  0  0  0  0  0  0  0  0  0
  137.3780   80.7250  224.1950 C   0  0  0  0  0  0  0  0  0  0  0  0
  137.7030   80.8850  225.5300 F   0  0  0  0  0  0  0  0  0  0  0  0
  136.1840   80.0290  224.1360 F   0  0  0  0  0  0  0  0  0  0  0  0
  137.1400   81.9840  223.6830 F   0  0  0  0  0  0  0  0  0  0  0  0
  139.7060   79.8310  224.0000 C   0  0  0  0  0  0  0  0  0  0  0  0
  140.7380   79.2160  223.2880 C   0  0  0  0  0  0  0  0  0  0  0  0
  140.2630   71.4440  223.3960 C   0  0  0  0  0  0  0  0  0  0  0  0
  139.5880   70.2450  223.2620 C   0  0  0  0  0  0  0  0  0  0  0  0
  139.3450   69.4360  224.3710 C   0  0  0  0  0  0  0  0  0  0  0  0
  139.7790   69.8310  225.6140 C   0  0  0  0  0  0  0  0  0  0  0  0
  139.5840   69.0990  226.7630 C   0  0  0  0  0  0  0  0  0  0  0  0
  140.0580   69.5770  227.9790 C   0  0  0  0  0  0  0  0  0  0  0  0
  139.8840   68.8800  229.1300 F   0  0  0  0  0  0  0  0  0  0  0  0
  140.7300   70.7810  228.0870 C   0  0  0  0  0  0  0  0  0  0  0  0
  140.9190   71.5080  226.9240 C   0  0  0  0  0  0  0  0  0  0  0  0
  140.4490   71.0320  225.7200 C   0  0  0  0  0  0  0  0  0  0  0  0
  140.6740   71.8000  224.6350 N   0  0  0  0  0  0  0  0  0  0  0  0
  139.5680   73.9880  223.1090 H   0  0  0  0  0  0  0  0  0  0  0  0
  141.1728   74.1779  220.5904 H   0  0  0  0  0  0  0  0  0  0  0  0
  139.3996   74.4989  220.5006 H   0  0  0  0  0  0  0  0  0  0  0  0
  142.9590   75.9636  219.8171 H   0  0  0  0  0  0  0  0  0  0  0  0
  141.4046   75.7813  218.9891 H   0  0  0  0  0  0  0  0  0  0  0  0
  143.3135   77.8955  218.6930 H   0  0  0  0  0  0  0  0  0  0  0  0
  141.6963   77.8137  217.9558 H   0  0  0  0  0  0  0  0  0  0  0  0
  142.5300   79.6588  219.9027 H   0  0  0  0  0  0  0  0  0  0  0  0
  140.8506   79.3367  219.4890 H   0  0  0  0  0  0  0  0  0  0  0  0
  142.5158   78.2236  221.7918 H   0  0  0  0  0  0  0  0  0  0  0  0
  139.1006   78.7787  220.3740 H   0  0  0  0  0  0  0  0  0  0  0  0
  137.2870   79.8592  221.6388 H   0  0  0  0  0  0  0  0  0  0  0  0
  139.8815   80.1335  225.0429 H   0  0  0  0  0  0  0  0  0  0  0  0
  141.7121   79.0390  223.7674 H   0  0  0  0  0  0  0  0  0  0  0  0
  139.2387   69.9257  222.2690 H   0  0  0  0  0  0  0  0  0  0  0  0
  138.8073   68.4839  224.2516 H   0  0  0  0  0  0  0  0  0  0  0  0
  139.0534   68.1364  226.7190 H   0  0  0  0  0  0  0  0  0  0  0  0
  141.0991   71.1459  229.0569 H   0  0  0  0  0  0  0  0  0  0  0  0
  141.4478   72.4718  226.9618 H   0  0  0  0  0  0  0  0  0  0  0  0
  1  2  2  0
  2  3  1  0
  3  4  1  0
  4  5  1  0
  5  6  2  0
  5  7  1  0
  7  8  1  0
  8  9  1  0
  9 10  1  0
 10 11  1  0
 11 12  1  0
 12 13  2  0
 13 14  1  0
 14 15  2  0
 15 16  1  0
 16 17  1  0
 16 18  1  0
 16 19  1  0
 15 20  1  0
 20 21  2  0
  2 22  1  0
 22 23  2  0
 23 24  1  0
 24 25  2  0
 25 26  1  0
 26 27  2  0
 27 28  1  0
 27 29  1  0
 29 30  2  0
 30 31  1  0
 31 32  2  0
 11  7  1  0
 21 12  1  0
 32 22  1  0
 31 25  1  0
  3 33  1  0
  4 34  1  0
  4 35  1  0
  8 36  1  0
  8 37  1  0
  9 38  1  0
  9 39  1  0
 10 40  1  0
 10 41  1  0
 11 42  1  1
 13 43  1  0
 14 44  1  0
 20 45  1  0
 21 46  1  0
 23 47  1  0
 24 48  1  0
 26 49  1  0
 29 50  1  0
 30 51  1  0
M  END
>  <smiles>  (88) 
O=C(NCC(=O)N1CCCC1c1ccc(C(F)(F)F)cc1)c1ccc2cc(F)ccc2n1

>  <score_type>  (88) 
oracle

>  <origin>  (88) 
autodockgpu

>  <m_score__min__energy>  (88) 
-8.2899999999999991

>  <m_primary>  (88) 
energy

>  <rmsd>  (88) 
2.0905110349757043

>  <m_score__min__rmsd>  (88) 
2.0905110349757043

>  <meeko>  (88) 
{"free_energy": -8.22, "intermolecular_energy": -10.01, "internal_energy": -1.76, "cluster_size": 28, "cluster_id": 1, "rank_in_cluster": 4}

>  <energy>  (88) 
-7.72

>  <cluster_rmsd>  (88) 
0.0

>  <cluster>  (88) 
4

$$$$

     RDKit          3D

 51 54  0  0  0  0  0  0  0  0999 V2000
  140.9620   71.7070  221.1890 O   0  0  0  0  0  0  0  0  0  0  0  0
  140.4320   72.2050  222.2150 C   0  0  0  0  0  0  0  0  0  0  0  0
  140.0380   73.5580  222.2790 N   0  0  0  0  0  0  0  0  0  0  0  0
  140.2350   74.4300  221.1450 C   0  0  0  0  0  0  0  0  0  0  0  0
  140.5910   75.8090  221.5990 C   0  0  0  0  0  0  0  0  0  0  0  0
  140.1460   76.1530  222.7260 O   0  0  0  0  0  0  0  0  0  0  0  0
  141.3830   76.6410  220.7740 N   0  0  0  0  0  0  0  0  0  0  0  0
  142.0350   76.2360  219.5230 C   0  0  0  0  0  0  0  0  0  0  0  0
  142.2680   77.5030  218.7510 C   0  0  0  0  0  0  0  0  0  0  0  0
  141.8380   78.6390  219.6270 C   0  0  0  0  0  0  0  0  0  0  0  0
  141.6980   78.0170  221.0010 C   0  0  1  0  0  0  0  0  0  0  0  0
  140.6410   78.7370  221.7980 C   0  0  0  0  0  0  0  0  0  0  0  0
  140.9200   79.2120  223.0730 C   0  0  0  0  0  0  0  0  0  0  0  0
  139.9840   79.8760  223.8370 C   0  0  0  0  0  0  0  0  0  0  0  0
  138.7150   80.0850  223.3340 C   0  0  0  0  0  0  0  0  0  0  0  0
  137.6980   80.8000  224.1480 C   0  0  0  0  0  0  0  0  0  0  0  0
  138.0260   80.8150  225.4920 F   0  0  0  0  0  0  0  0  0  0  0  0
  136.4330   80.2530  224.0330 F   0  0  0  0  0  0  0  0  0  0  0  0
  137.6130   82.1140  223.7370 F   0  0  0  0  0  0  0  0  0  0  0  0
  138.4220   79.6180  222.0660 C   0  0  0  0  0  0  0  0  0  0  0  0
  139.3710   78.9460  221.2920 C   0  0  0  0  0  0  0  0  0  0  0  0
  140.2040   71.3650  223.4030 C   0  0  0  0  0  0  0  0  0  0  0  0
  139.5680   70.1440  223.2920 C   0  0  0  0  0  0  0  0  0  0  0  0
  139.3520   69.3470  224.4160 C   0  0  0  0  0  0  0  0  0  0  0  0
  139.7740   69.7790  225.6510 C   0  0  0  0  0  0  0  0  0  0  0  0
  139.6040   69.0620  226.8140 C   0  0  0  0  0  0  0  0  0  0  0  0
  140.0640   69.5760  228.0200 C   0  0  0  0  0  0  0  0  0  0  0  0
  139.9130   68.8960  229.1840 F   0  0  0  0  0  0  0  0  0  0  0  0
  140.6980   70.8030  228.1040 C   0  0  0  0  0  0  0  0  0  0  0  0
  140.8630   71.5140  226.9290 C   0  0  0  0  0  0  0  0  0  0  0  0
  140.4060   71.0020  225.7340 C   0  0  0  0  0  0  0  0  0  0  0  0
  140.6050   71.7570  224.6340 N   0  0  0  0  0  0  0  0  0  0  0  0
  139.6010   73.9350  223.1430 H   0  0  0  0  0  0  0  0  0  0  0  0
  141.0491   74.0332  220.5207 H   0  0  0  0  0  0  0  0  0  0  0  0
  139.3007   74.4767  220.5663 H   0  0  0  0  0  0  0  0  0  0  0  0
  142.9915   75.7356  219.7346 H   0  0  0  0  0  0  0  0  0  0  0  0
  141.4150   75.5260  218.9560 H   0  0  0  0  0  0  0  0  0  0  0  0
  143.3348   77.6019  218.5016 H   0  0  0  0  0  0  0  0  0  0  0  0
  141.6988   77.4978  217.8098 H   0  0  0  0  0  0  0  0  0  0  0  0
  142.5974   79.4348  219.6346 H   0  0  0  0  0  0  0  0  0  0  0  0
  140.9056   79.1086  219.2803 H   0  0  0  0  0  0  0  0  0  0  0  0
  142.6188   78.0991  221.5972 H   0  0  0  0  0  0  0  0  0  0  0  0
  141.9258   79.0524  223.4889 H   0  0  0  0  0  0  0  0  0  0  0  0
  140.2467   80.2375  224.8422 H   0  0  0  0  0  0  0  0  0  0  0  0
  137.4144   79.7800  221.6556 H   0  0  0  0  0  0  0  0  0  0  0  0
  139.1098   78.5853  220.2862 H   0  0  0  0  0  0  0  0  0  0  0  0
  139.2278   69.7961  222.3055 H   0  0  0  0  0  0  0  0  0  0  0  0
  138.8456   68.3758  224.3146 H   0  0  0  0  0  0  0  0  0  0  0  0
  139.1041   68.0825  226.7883 H   0  0  0  0  0  0  0  0  0  0  0  0
  141.0564   71.1972  229.0664 H   0  0  0  0  0  0  0  0  0  0  0  0
  141.3621   72.4941  226.9486 H   0  0  0  0  0  0  0  0  0  0  0  0
  1  2  2  0
  2  3  1  0
  3  4  1  0
  4  5  1  0
  5  6  2  0
  5  7  1  0
  7  8  1  0
  8  9  1  0
  9 10  1  0
 10 11  1  0
 11 12  1  0
 12 13  2  0
 13 14  1  0
 14 15  2  0
 15 16  1  0
 16 17  1  0
 16 18  1  0
 16 19  1  0
 15 20  1  0
 20 21  2  0
  2 22  1  0
 22 23  2  0
 23 24  1  0
 24 25  2  0
 25 26  1  0
 26 27  2  0
 27 28  1  0
 27 29  1  0
 29 30  2  0
 30 31  1  0
 31 32  2  0
 11  7  1  0
 21 12  1  0
 32 22  1  0
 31 25  1  0
  3 33  1  0
  4 34  1  0
  4 35  1  0
  8 36  1  0
  8 37  1  0
  9 38  1  0
  9 39  1  0
 10 40  1  0
 10 41  1  0
 11 42  1  1
 13 43  1  0
 14 44  1  0
 20 45  1  0
 21 46  1  0
 23 47  1  0
 24 48  1  0
 26 49  1  0
 29 50  1  0
 30 51  1  0
M  END
>  <smiles>  (89) 
O=C(NCC(=O)N1CCCC1c1ccc(C(F)(F)F)cc1)c1ccc2cc(F)ccc2n1

>  <score_type>  (89) 
oracle

>  <origin>  (89) 
autodockgpu

>  <m_score__min__energy>  (89) 
-8.2899999999999991

>  <m_primary>  (89) 
energy

>  <rmsd>  (89) 
1.981822253016097

>  <m_score__min__rmsd>  (89) 
1.981822253016097

>  <meeko>  (89) 
{"free_energy": -8.15, "intermolecular_energy": -9.94, "internal_energy": -1.79, "cluster_size": 28, "cluster_id": 1, "rank_in_cluster": 24}

>  <energy>  (89) 
-7.7

>  <cluster_rmsd>  (89) 
1.41

>  <cluster>  (89) 
4

$$$$

     RDKit          3D

 51 54  0  0  0  0  0  0  0  0999 V2000
  139.9330   73.7090  222.4990 O   0  0  0  0  0  0  0  0  0  0  0  0
  140.1840   72.4910  222.3170 C   0  0  0  0  0  0  0  0  0  0  0  0
  140.5330   71.9740  221.0520 N   0  0  0  0  0  0  0  0  0  0  0  0
  140.6160   72.8460  219.9040 C   0  0  0  0  0  0  0  0  0  0  0  0
  141.9160   72.6530  219.1910 C   0  0  0  0  0  0  0  0  0  0  0  0
  141.8390   72.3990  217.9590 O   0  0  0  0  0  0  0  0  0  0  0  0
  143.1340   72.7580  219.9020 N   0  0  0  0  0  0  0  0  0  0  0  0
  144.1880   71.7380  219.9510 C   0  0  0  0  0  0  0  0  0  0  0  0
  145.4480   72.4660  220.3220 C   0  0  0  0  0  0  0  0  0  0  0  0
  145.0720   73.8910  220.5880 C   0  0  0  0  0  0  0  0  0  0  0  0
  143.5630   73.8640  220.7010 C   0  0  1  0  0  0  0  0  0  0  0  0
  142.9780   75.1770  220.2490 C   0  0  0  0  0  0  0  0  0  0  0  0
  141.8380   75.6870  220.8560 C   0  0  0  0  0  0  0  0  0  0  0  0
  141.2690   76.8850  220.4750 C   0  0  0  0  0  0  0  0  0  0  0  0
  141.8400   77.6160  219.4520 C   0  0  0  0  0  0  0  0  0  0  0  0
  141.2350   78.9080  219.0330 C   0  0  0  0  0  0  0  0  0  0  0  0
  141.9290   79.4910  217.9880 F   0  0  0  0  0  0  0  0  0  0  0  0
  141.1710   79.8320  220.0600 F   0  0  0  0  0  0  0  0  0  0  0  0
  139.9450   78.6970  218.5940 F   0  0  0  0  0  0  0  0  0  0  0  0
  142.9750   77.1210  218.8380 C   0  0  0  0  0  0  0  0  0  0  0  0
  143.5510   75.9080  219.2240 C   0  0  0  0  0  0  0  0  0  0  0  0
  140.1160   71.5510  223.4490 C   0  0  0  0  0  0  0  0  0  0  0  0
  139.5680   70.2930  223.2890 C   0  0  0  0  0  0  0  0  0  0  0  0
  139.5040   69.4020  224.3600 C   0  0  0  0  0  0  0  0  0  0  0  0
  139.9900   69.7750  225.5900 C   0  0  0  0  0  0  0  0  0  0  0  0
  139.9690   68.9640  226.7020 C   0  0  0  0  0  0  0  0  0  0  0  0
  140.4840   69.4250  227.9080 C   0  0  0  0  0  0  0  0  0  0  0  0
  140.4790   68.6510  229.0220 F   0  0  0  0  0  0  0  0  0  0  0  0
  141.0280   70.6900  228.0410 C   0  0  0  0  0  0  0  0  0  0  0  0
  141.0430   71.4950  226.9170 C   0  0  0  0  0  0  0  0  0  0  0  0
  140.5320   71.0360  225.7230 C   0  0  0  0  0  0  0  0  0  0  0  0
  140.5850   71.8830  224.6740 N   0  0  0  0  0  0  0  0  0  0  0  0
  140.7350   70.9600  220.9390 H   0  0  0  0  0  0  0  0  0  0  0  0
  139.7887   72.6179  219.2159 H   0  0  0  0  0  0  0  0  0  0  0  0
  140.5496   73.8896  220.2452 H   0  0  0  0  0  0  0  0  0  0  0  0
  143.9489   70.9767  220.7081 H   0  0  0  0  0  0  0  0  0  0  0  0
  144.2912   71.2171  218.9877 H   0  0  0  0  0  0  0  0  0  0  0  0
  145.8908   72.0181  221.2238 H   0  0  0  0  0  0  0  0  0  0  0  0
  146.1898   72.4017  219.5123 H   0  0  0  0  0  0  0  0  0  0  0  0
  145.5267   74.2458  221.5247 H   0  0  0  0  0  0  0  0  0  0  0  0
  145.4225   74.5727  219.7991 H   0  0  0  0  0  0  0  0  0  0  0  0
  143.2198   73.7352  221.7381 H   0  0  0  0  0  0  0  0  0  0  0  0
  141.3710   75.1146  221.6711 H   0  0  0  0  0  0  0  0  0  0  0  0
  140.3663   77.2554  220.9830 H   0  0  0  0  0  0  0  0  0  0  0  0
  143.4374   77.6977  218.0234 H   0  0  0  0  0  0  0  0  0  0  0  0
  144.4536   75.5370  218.7164 H   0  0  0  0  0  0  0  0  0  0  0  0
  139.1778   69.9907  222.3060 H   0  0  0  0  0  0  0  0  0  0  0  0
  139.0655   68.4029  224.2204 H   0  0  0  0  0  0  0  0  0  0  0  0
  139.5447   67.9512  226.6363 H   0  0  0  0  0  0  0  0  0  0  0  0
  141.4322   71.0411  229.0019 H   0  0  0  0  0  0  0  0  0  0  0  0
  141.4658   72.5087  226.9766 H   0  0  0  0  0  0  0  0  0  0  0  0
  1  2  2  0
  2  3  1  0
  3  4  1  0
  4  5  1  0
  5  6  2  0
  5  7  1  0
  7  8  1  0
  8  9  1  0
  9 10  1  0
 10 11  1  0
 11 12  1  0
 12 13  2  0
 13 14  1  0
 14 15  2  0
 15 16  1  0
 16 17  1  0
 16 18  1  0
 16 19  1  0
 15 20  1  0
 20 21  2  0
  2 22  1  0
 22 23  2  0
 23 24  1  0
 24 25  2  0
 25 26  1  0
 26 27  2  0
 27 28  1  0
 27 29  1  0
 29 30  2  0
 30 31  1  0
 31 32  2  0
 11  7  1  0
 21 12  1  0
 32 22  1  0
 31 25  1  0
  3 33  1  0
  4 34  1  0
  4 35  1  0
  8 36  1  0
  8 37  1  0
  9 38  1  0
  9 39  1  0
 10 40  1  0
 10 41  1  0
 11 42  1  1
 13 43  1  0
 14 44  1  0
 20 45  1  0
 21 46  1  0
 23 47  1  0
 24 48  1  0
 26 49  1  0
 29 50  1  0
 30 51  1  0
M  END
>  <smiles>  (90) 
O=C(NCC(=O)N1CCCC1c1ccc(C(F)(F)F)cc1)c1ccc2cc(F)ccc2n1

>  <score_type>  (90) 
oracle

>  <origin>  (90) 
autodockgpu

>  <m_score__min__energy>  (90) 
-8.2899999999999991

>  <m_primary>  (90) 
energy

>  <rmsd>  (90) 
3.714478043459982

>  <m_score__min__rmsd>  (90) 
3.714478043459982

>  <meeko>  (90) 
{"free_energy": -7.65, "intermolecular_energy": -9.44, "internal_energy": -1.67, "cluster_size": 2, "cluster_id": 6, "rank_in_cluster": 1}

>  <energy>  (90) 
-7.7

>  <cluster_rmsd>  (90) 
0.14

>  <cluster>  (90) 
4

$$$$

     RDKit          3D

 51 54  0  0  0  0  0  0  0  0999 V2000
  141.1860   71.9570  221.2770 O   0  0  0  0  0  0  0  0  0  0  0  0
  140.5060   72.3770  222.2470 C   0  0  0  0  0  0  0  0  0  0  0  0
  139.9520   73.6740  222.2740 N   0  0  0  0  0  0  0  0  0  0  0  0
  140.1540   74.5770  221.1650 C   0  0  0  0  0  0  0  0  0  0  0  0
  140.3640   75.9730  221.6570 C   0  0  0  0  0  0  0  0  0  0  0  0
  139.7330   76.2950  222.6990 O   0  0  0  0  0  0  0  0  0  0  0  0
  141.2300   76.8450  220.9570 N   0  0  0  0  0  0  0  0  0  0  0  0
  141.9620   76.5210  219.7260 C   0  0  0  0  0  0  0  0  0  0  0  0
  142.2750   77.8360  219.0730 C   0  0  0  0  0  0  0  0  0  0  0  0
  141.8060   78.9120  220.0040 C   0  0  0  0  0  0  0  0  0  0  0  0
  141.5550   78.1920  221.3120 C   0  0  1  0  0  0  0  0  0  0  0  0
  140.4590   78.8750  222.0870 C   0  0  0  0  0  0  0  0  0  0  0  0
  140.6250   79.1680  223.4340 C   0  0  0  0  0  0  0  0  0  0  0  0
  139.6490   79.7930  224.1820 C   0  0  0  0  0  0  0  0  0  0  0  0
  138.4540   80.1470  223.5860 C   0  0  0  0  0  0  0  0  0  0  0  0
  137.3960   80.8210  224.3820 C   0  0  0  0  0  0  0  0  0  0  0  0
  137.7270   80.9030  225.7220 F   0  0  0  0  0  0  0  0  0  0  0  0
  136.1690   80.1880  224.2920 F   0  0  0  0  0  0  0  0  0  0  0  0
  137.2220   82.1120  223.9270 F   0  0  0  0  0  0  0  0  0  0  0  0
  138.2750   79.8620  222.2450 C   0  0  0  0  0  0  0  0  0  0  0  0
  139.2630   79.2290  221.4880 C   0  0  0  0  0  0  0  0  0  0  0  0
  140.2650   71.5020  223.4070 C   0  0  0  0  0  0  0  0  0  0  0  0
  139.5840   70.3080  223.2600 C   0  0  0  0  0  0  0  0  0  0  0  0
  139.3560   69.4790  224.3580 C   0  0  0  0  0  0  0  0  0  0  0  0
  139.8090   69.8490  225.6010 C   0  0  0  0  0  0  0  0  0  0  0  0
  139.6300   69.0960  226.7390 C   0  0  0  0  0  0  0  0  0  0  0  0
  140.1250   69.5490  227.9570 C   0  0  0  0  0  0  0  0  0  0  0  0
  139.9660   68.8310  229.0960 F   0  0  0  0  0  0  0  0  0  0  0  0
  140.8030   70.7480  228.0760 C   0  0  0  0  0  0  0  0  0  0  0  0
  140.9760   71.4960  226.9250 C   0  0  0  0  0  0  0  0  0  0  0  0
  140.4850   71.0450  225.7200 C   0  0  0  0  0  0  0  0  0  0  0  0
  140.6960   71.8330  224.6460 N   0  0  0  0  0  0  0  0  0  0  0  0
  139.3940   73.9870  223.0930 H   0  0  0  0  0  0  0  0  0  0  0  0
  141.0387   74.2574  220.5947 H   0  0  0  0  0  0  0  0  0  0  0  0
  139.2609   74.5570  220.5231 H   0  0  0  0  0  0  0  0  0  0  0  0
  142.8907   75.9818  219.9642 H   0  0  0  0  0  0  0  0  0  0  0  0
  141.3696   75.8728  219.0635 H   0  0  0  0  0  0  0  0  0  0  0  0
  143.3586   77.9265  218.9069 H   0  0  0  0  0  0  0  0  0  0  0  0
  141.7751   77.9174  218.0966 H   0  0  0  0  0  0  0  0  0  0  0  0
  142.5788   79.6851  220.1268 H   0  0  0  0  0  0  0  0  0  0  0  0
  140.9101   79.4296  219.6306 H   0  0  0  0  0  0  0  0  0  0  0  0
  142.4319   78.2061  221.9760 H   0  0  0  0  0  0  0  0  0  0  0  0
  141.5706   78.8913  223.9232 H   0  0  0  0  0  0  0  0  0  0  0  0
  139.8212   80.0083  225.2469 H   0  0  0  0  0  0  0  0  0  0  0  0
  137.3277   80.1417  221.7608 H   0  0  0  0  0  0  0  0  0  0  0  0
  139.0917   79.0133  220.4230 H   0  0  0  0  0  0  0  0  0  0  0  0
  139.2182   70.0087  222.2667 H   0  0  0  0  0  0  0  0  0  0  0  0
  138.8143   68.5304  224.2290 H   0  0  0  0  0  0  0  0  0  0  0  0
  139.0955   68.1361  226.6851 H   0  0  0  0  0  0  0  0  0  0  0  0
  141.1892   71.0932  229.0464 H   0  0  0  0  0  0  0  0  0  0  0  0
  141.5091   72.4570  226.9727 H   0  0  0  0  0  0  0  0  0  0  0  0
  1  2  2  0
  2  3  1  0
  3  4  1  0
  4  5  1  0
  5  6  2  0
  5  7  1  0
  7  8  1  0
  8  9  1  0
  9 10  1  0
 10 11  1  0
 11 12  1  0
 12 13  2  0
 13 14  1  0
 14 15  2  0
 15 16  1  0
 16 17  1  0
 16 18  1  0
 16 19  1  0
 15 20  1  0
 20 21  2  0
  2 22  1  0
 22 23  2  0
 23 24  1  0
 24 25  2  0
 25 26  1  0
 26 27  2  0
 27 28  1  0
 27 29  1  0
 29 30  2  0
 30 31  1  0
 31 32  2  0
 11  7  1  0
 21 12  1  0
 32 22  1  0
 31 25  1  0
  3 33  1  0
  4 34  1  0
  4 35  1  0
  8 36  1  0
  8 37  1  0
  9 38  1  0
  9 39  1  0
 10 40  1  0
 10 41  1  0
 11 42  1  1
 13 43  1  0
 14 44  1  0
 20 45  1  0
 21 46  1  0
 23 47  1  0
 24 48  1  0
 26 49  1  0
 29 50  1  0
 30 51  1  0
M  END
>  <smiles>  (91) 
O=C(NCC(=O)N1CCCC1c1ccc(C(F)(F)F)cc1)c1ccc2cc(F)ccc2n1

>  <score_type>  (91) 
oracle

>  <origin>  (91) 
autodockgpu

>  <m_score__min__energy>  (91) 
-8.2899999999999991

>  <m_primary>  (91) 
energy

>  <rmsd>  (91) 
2.1265797804508155

>  <m_score__min__rmsd>  (91) 
2.1265797804508155

>  <meeko>  (91) 
{"free_energy": -8.26, "intermolecular_energy": -10.05, "internal_energy": -1.67, "cluster_size": 28, "cluster_id": 1, "rank_in_cluster": 2}

>  <energy>  (91) 
-7.69

>  <cluster_rmsd>  (91) 
1.4

>  <cluster>  (91) 
4

$$$$

     RDKit          3D

 51 54  0  0  0  0  0  0  0  0999 V2000
  140.9510   71.7600  221.1430 O   0  0  0  0  0  0  0  0  0  0  0  0
  140.4190   72.2460  222.1720 C   0  0  0  0  0  0  0  0  0  0  0  0
  140.0100   73.5950  222.2440 N   0  0  0  0  0  0  0  0  0  0  0  0
  140.1940   74.4750  221.1140 C   0  0  0  0  0  0  0  0  0  0  0  0
  140.5310   75.8560  221.5740 C   0  0  0  0  0  0  0  0  0  0  0  0
  140.0490   76.2030  222.6850 O   0  0  0  0  0  0  0  0  0  0  0  0
  141.3460   76.6880  220.7710 N   0  0  0  0  0  0  0  0  0  0  0  0
  141.9930   76.2970  219.5130 C   0  0  0  0  0  0  0  0  0  0  0  0
  142.2590   77.5750  218.7710 C   0  0  0  0  0  0  0  0  0  0  0  0
  141.8520   78.7000  219.6720 C   0  0  0  0  0  0  0  0  0  0  0  0
  141.6920   78.0510  221.0310 C   0  0  1  0  0  0  0  0  0  0  0  0
  140.6490   78.7770  221.8410 C   0  0  0  0  0  0  0  0  0  0  0  0
  139.3840   79.0090  221.3180 C   0  0  0  0  0  0  0  0  0  0  0  0
  138.4000   79.6680  222.0240 C   0  0  0  0  0  0  0  0  0  0  0  0
  138.6650   80.1240  223.3010 C   0  0  0  0  0  0  0  0  0  0  0  0
  137.6120   80.8360  224.0710 C   0  0  0  0  0  0  0  0  0  0  0  0
  136.4180   80.1380  224.0850 F   0  0  0  0  0  0  0  0  0  0  0  0
  137.3510   82.1030  223.5830 F   0  0  0  0  0  0  0  0  0  0  0  0
  138.0130   80.9790  225.3830 F   0  0  0  0  0  0  0  0  0  0  0  0
  139.9200   79.9000  223.8350 C   0  0  0  0  0  0  0  0  0  0  0  0
  140.9160   79.2320  223.1200 C   0  0  0  0  0  0  0  0  0  0  0  0
  140.2040   71.3990  223.3570 C   0  0  0  0  0  0  0  0  0  0  0  0
  139.5750   70.1740  223.2440 C   0  0  0  0  0  0  0  0  0  0  0  0
  139.3720   69.3700  224.3650 C   0  0  0  0  0  0  0  0  0  0  0  0
  139.8000   69.7970  225.5990 C   0  0  0  0  0  0  0  0  0  0  0  0
  139.6430   69.0720  226.7580 C   0  0  0  0  0  0  0  0  0  0  0  0
  140.1080   69.5820  227.9650 C   0  0  0  0  0  0  0  0  0  0  0  0
  139.9700   68.8940  229.1250 F   0  0  0  0  0  0  0  0  0  0  0  0
  140.7360   70.8120  228.0520 C   0  0  0  0  0  0  0  0  0  0  0  0
  140.8870   71.5310  226.8790 C   0  0  0  0  0  0  0  0  0  0  0  0
  140.4250   71.0230  225.6850 C   0  0  0  0  0  0  0  0  0  0  0  0
  140.6120   71.7850  224.5880 N   0  0  0  0  0  0  0  0  0  0  0  0
  139.5730   73.9630  223.1120 H   0  0  0  0  0  0  0  0  0  0  0  0
  141.0131   74.0925  220.4872 H   0  0  0  0  0  0  0  0  0  0  0  0
  139.2587   74.5114  220.5362 H   0  0  0  0  0  0  0  0  0  0  0  0
  142.9365   75.7693  219.7162 H   0  0  0  0  0  0  0  0  0  0  0  0
  141.3582   75.6154  218.9278 H   0  0  0  0  0  0  0  0  0  0  0  0
  143.3288   77.6545  218.5278 H   0  0  0  0  0  0  0  0  0  0  0  0
  141.6942   77.6049  217.8276 H   0  0  0  0  0  0  0  0  0  0  0  0
  142.6297   79.4774  219.7005 H   0  0  0  0  0  0  0  0  0  0  0  0
  140.9318   79.1984  219.3330 H   0  0  0  0  0  0  0  0  0  0  0  0
  142.6118   78.0986  221.6324 H   0  0  0  0  0  0  0  0  0  0  0  0
  139.1582   78.6536  220.3018 H   0  0  0  0  0  0  0  0  0  0  0  0
  137.4097   79.8298  221.5732 H   0  0  0  0  0  0  0  0  0  0  0  0
  140.1402   80.2579  224.8516 H   0  0  0  0  0  0  0  0  0  0  0  0
  141.9061   79.0686  223.5705 H   0  0  0  0  0  0  0  0  0  0  0  0
  139.2303   69.8289  222.2580 H   0  0  0  0  0  0  0  0  0  0  0  0
  138.8705   68.3964  224.2618 H   0  0  0  0  0  0  0  0  0  0  0  0
  139.1497   68.0892  226.7296 H   0  0  0  0  0  0  0  0  0  0  0  0
  141.1002   71.2023  229.0138 H   0  0  0  0  0  0  0  0  0  0  0  0
  141.3792   72.5145  226.9005 H   0  0  0  0  0  0  0  0  0  0  0  0
  1  2  2  0
  2  3  1  0
  3  4  1  0
  4  5  1  0
  5  6  2  0
  5  7  1  0
  7  8  1  0
  8  9  1  0
  9 10  1  0
 10 11  1  0
 11 12  1  0
 12 13  2  0
 13 14  1  0
 14 15  2  0
 15 16  1  0
 16 17  1  0
 16 18  1  0
 16 19  1  0
 15 20  1  0
 20 21  2  0
  2 22  1  0
 22 23  2  0
 23 24  1  0
 24 25  2  0
 25 26  1  0
 26 27  2  0
 27 28  1  0
 27 29  1  0
 29 30  2  0
 30 31  1  0
 31 32  2  0
 11  7  1  0
 21 12  1  0
 32 22  1  0
 31 25  1  0
  3 33  1  0
  4 34  1  0
  4 35  1  0
  8 36  1  0
  8 37  1  0
  9 38  1  0
  9 39  1  0
 10 40  1  0
 10 41  1  0
 11 42  1  1
 13 43  1  0
 14 44  1  0
 20 45  1  0
 21 46  1  0
 23 47  1  0
 24 48  1  0
 26 49  1  0
 29 50  1  0
 30 51  1  0
M  END
>  <smiles>  (92) 
O=C(NCC(=O)N1CCCC1c1ccc(C(F)(F)F)cc1)c1ccc2cc(F)ccc2n1

>  <score_type>  (92) 
oracle

>  <origin>  (92) 
autodockgpu

>  <m_score__min__energy>  (92) 
-8.2899999999999991

>  <m_primary>  (92) 
energy

>  <rmsd>  (92) 
1.9895860742567004

>  <m_score__min__rmsd>  (92) 
1.9895860742567004

>  <meeko>  (92) 
{"free_energy": -8.21, "intermolecular_energy": -10.0, "internal_energy": -1.76, "cluster_size": 28, "cluster_id": 1, "rank_in_cluster": 6}

>  <energy>  (92) 
-7.62

>  <cluster_rmsd>  (92) 
1.35

>  <cluster>  (92) 
4

$$$$

     RDKit          3D

 51 54  0  0  0  0  0  0  0  0999 V2000
  133.4190   70.0420  226.7900 O   0  0  0  0  0  0  0  0  0  0  0  0
  133.7920   71.1330  226.2900 C   0  0  0  0  0  0  0  0  0  0  0  0
  134.8120   71.2070  225.3180 N   0  0  0  0  0  0  0  0  0  0  0  0
  135.4700   70.0060  224.8570 C   0  0  0  0  0  0  0  0  0  0  0  0
  136.4220   70.3220  223.7480 C   0  0  0  0  0  0  0  0  0  0  0  0
  136.4830   71.5310  223.3980 O   0  0  0  0  0  0  0  0  0  0  0  0
  137.1860   69.2890  223.1580 N   0  0  0  0  0  0  0  0  0  0  0  0
  137.0080   68.7600  221.8000 C   0  0  0  0  0  0  0  0  0  0  0  0
  138.3170   68.1250  221.4310 C   0  0  0  0  0  0  0  0  0  0  0  0
  139.2030   68.2060  222.6360 C   0  0  0  0  0  0  0  0  0  0  0  0
  138.2620   68.5700  223.7660 C   0  0  1  0  0  0  0  0  0  0  0  0
  138.9860   69.3730  224.8150 C   0  0  0  0  0  0  0  0  0  0  0  0
  138.9940   68.9580  226.1400 C   0  0  0  0  0  0  0  0  0  0  0  0
  139.6440   69.6610  227.1330 C   0  0  0  0  0  0  0  0  0  0  0  0
  140.3160   70.8250  226.8160 C   0  0  0  0  0  0  0  0  0  0  0  0
  141.0200   71.5920  227.8770 C   0  0  0  0  0  0  0  0  0  0  0  0
  141.8600   72.5560  227.3510 F   0  0  0  0  0  0  0  0  0  0  0  0
  141.7770   70.7880  228.7110 F   0  0  0  0  0  0  0  0  0  0  0  0
  140.0980   72.2450  228.6680 F   0  0  0  0  0  0  0  0  0  0  0  0
  140.3170   71.2510  225.5010 C   0  0  0  0  0  0  0  0  0  0  0  0
  139.6590   70.5380  224.4960 C   0  0  0  0  0  0  0  0  0  0  0  0
  133.1590   72.3910  226.7190 C   0  0  0  0  0  0  0  0  0  0  0  0
  131.9520   72.3790  227.3930 C   0  0  0  0  0  0  0  0  0  0  0  0
  131.3510   73.5690  227.8000 C   0  0  0  0  0  0  0  0  0  0  0  0
  131.9610   74.7700  227.5290 C   0  0  0  0  0  0  0  0  0  0  0  0
  131.4430   75.9930  227.8910 C   0  0  0  0  0  0  0  0  0  0  0  0
  132.1300   77.1600  227.5760 C   0  0  0  0  0  0  0  0  0  0  0  0
  131.6470   78.3800  227.9190 F   0  0  0  0  0  0  0  0  0  0  0  0
  133.3360   77.1450  226.9000 C   0  0  0  0  0  0  0  0  0  0  0  0
  133.8470   75.9100  226.5410 C   0  0  0  0  0  0  0  0  0  0  0  0
  133.1640   74.7550  226.8550 C   0  0  0  0  0  0  0  0  0  0  0  0
  133.7290   73.5920  226.4700 N   0  0  0  0  0  0  0  0  0  0  0  0
  135.0940   72.1270  224.9250 H   0  0  0  0  0  0  0  0  0  0  0  0
  136.0249   69.5540  225.6924 H   0  0  0  0  0  0  0  0  0  0  0  0
  134.7091   69.3051  224.4832 H   0  0  0  0  0  0  0  0  0  0  0  0
  136.2017   68.0119  221.7834 H   0  0  0  0  0  0  0  0  0  0  0  0
  136.7299   69.5535  221.0907 H   0  0  0  0  0  0  0  0  0  0  0  0
  138.1597   67.0735  221.1487 H   0  0  0  0  0  0  0  0  0  0  0  0
  138.7743   68.6417  220.5743 H   0  0  0  0  0  0  0  0  0  0  0  0
  139.6883   67.2379  222.8291 H   0  0  0  0  0  0  0  0  0  0  0  0
  140.0157   68.9370  222.5128 H   0  0  0  0  0  0  0  0  0  0  0  0
  137.8740   67.6861  224.2935 H   0  0  0  0  0  0  0  0  0  0  0  0
  138.4617   68.0334  226.4080 H   0  0  0  0  0  0  0  0  0  0  0  0
  139.6271   69.2967  228.1708 H   0  0  0  0  0  0  0  0  0  0  0  0
  140.8504   72.1766  225.2388 H   0  0  0  0  0  0  0  0  0  0  0  0
  139.6761   70.9009  223.4577 H   0  0  0  0  0  0  0  0  0  0  0  0
  131.4603   71.4194  227.6106 H   0  0  0  0  0  0  0  0  0  0  0  0
  130.3910   73.5467  228.3366 H   0  0  0  0  0  0  0  0  0  0  0  0
  130.4854   76.0470  228.4296 H   0  0  0  0  0  0  0  0  0  0  0  0
  133.8677   78.0769  226.6574 H   0  0  0  0  0  0  0  0  0  0  0  0
  134.8039   75.8500  226.0019 H   0  0  0  0  0  0  0  0  0  0  0  0
  1  2  2  0
  2  3  1  0
  3  4  1  0
  4  5  1  0
  5  6  2  0
  5  7  1  0
  7  8  1  0
  8  9  1  0
  9 10  1  0
 10 11  1  0
 11 12  1  0
 12 13  2  0
 13 14  1  0
 14 15  2  0
 15 16  1  0
 16 17  1  0
 16 18  1  0
 16 19  1  0
 15 20  1  0
 20 21  2  0
  2 22  1  0
 22 23  2  0
 23 24  1  0
 24 25  2  0
 25 26  1  0
 26 27  2  0
 27 28  1  0
 27 29  1  0
 29 30  2  0
 30 31  1  0
 31 32  2  0
 11  7  1  0
 21 12  1  0
 32 22  1  0
 31 25  1  0
  3 33  1  0
  4 34  1  0
  4 35  1  0
  8 36  1  0
  8 37  1  0
  9 38  1  0
  9 39  1  0
 10 40  1  0
 10 41  1  0
 11 42  1  1
 13 43  1  0
 14 44  1  0
 20 45  1  0
 21 46  1  0
 23 47  1  0
 24 48  1  0
 26 49  1  0
 29 50  1  0
 30 51  1  0
M  END
>  <smiles>  (93) 
O=C(NCC(=O)N1CCCC1c1ccc(C(F)(F)F)cc1)c1ccc2cc(F)ccc2n1

>  <score_type>  (93) 
oracle

>  <origin>  (93) 
autodockgpu

>  <m_score__min__energy>  (93) 
-8.2899999999999991

>  <m_primary>  (93) 
energy

>  <rmsd>  (93) 
8.89396014440822

>  <m_score__min__rmsd>  (93) 
8.89396014440822

>  <meeko>  (93) 
{"free_energy": -7.89, "intermolecular_energy": -9.68, "internal_energy": -2.22, "cluster_size": 5, "cluster_id": 3, "rank_in_cluster": 1}

>  <energy>  (93) 
-7.55

>  <cluster_rmsd>  (93) 
0.65

>  <cluster>  (93) 
4

$$$$

     RDKit          3D

 51 54  0  0  0  0  0  0  0  0999 V2000
  141.0480   71.7530  221.2100 O   0  0  0  0  0  0  0  0  0  0  0  0
  140.4610   72.2410  222.2090 C   0  0  0  0  0  0  0  0  0  0  0  0
  140.0370   73.5850  222.2530 N   0  0  0  0  0  0  0  0  0  0  0  0
  140.2690   74.4610  221.1280 C   0  0  0  0  0  0  0  0  0  0  0  0
  140.5440   75.8540  221.5940 C   0  0  0  0  0  0  0  0  0  0  0  0
  140.0130   76.1870  222.6880 O   0  0  0  0  0  0  0  0  0  0  0  0
  141.3580   76.7110  220.8180 N   0  0  0  0  0  0  0  0  0  0  0  0
  142.0600   76.3390  219.5830 C   0  0  0  0  0  0  0  0  0  0  0  0
  142.3080   77.6240  218.8470 C   0  0  0  0  0  0  0  0  0  0  0  0
  141.8350   78.7370  219.7310 C   0  0  0  0  0  0  0  0  0  0  0  0
  141.6490   78.0850  221.0850 C   0  0  1  0  0  0  0  0  0  0  0  0
  140.5560   78.7780  221.8570 C   0  0  0  0  0  0  0  0  0  0  0  0
  140.7910   79.2510  223.1410 C   0  0  0  0  0  0  0  0  0  0  0  0
  139.8210   79.8910  223.8830 C   0  0  0  0  0  0  0  0  0  0  0  0
  138.5620   80.0760  223.3470 C   0  0  0  0  0  0  0  0  0  0  0  0
  137.5090   80.7640  224.1370 C   0  0  0  0  0  0  0  0  0  0  0  0
  137.2560   82.0400  223.6670 F   0  0  0  0  0  0  0  0  0  0  0  0
  137.8240   80.8680  225.4800 F   0  0  0  0  0  0  0  0  0  0  0  0
  136.3260   80.0580  224.0500 F   0  0  0  0  0  0  0  0  0  0  0  0
  138.3130   79.6100  222.0690 C   0  0  0  0  0  0  0  0  0  0  0  0
  139.2960   78.9620  221.3180 C   0  0  0  0  0  0  0  0  0  0  0  0
  140.1960   71.3980  223.3870 C   0  0  0  0  0  0  0  0  0  0  0  0
  139.5090   70.2050  223.2610 C   0  0  0  0  0  0  0  0  0  0  0  0
  139.2580   69.4060  224.3750 C   0  0  0  0  0  0  0  0  0  0  0  0
  139.6960   69.8040  225.6150 C   0  0  0  0  0  0  0  0  0  0  0  0
  139.4940   69.0810  226.7690 C   0  0  0  0  0  0  0  0  0  0  0  0
  139.9750   69.5610  227.9820 C   0  0  0  0  0  0  0  0  0  0  0  0
  139.7930   68.8740  229.1370 F   0  0  0  0  0  0  0  0  0  0  0  0
  140.6600   70.7580  228.0820 C   0  0  0  0  0  0  0  0  0  0  0  0
  140.8560   71.4760  226.9150 C   0  0  0  0  0  0  0  0  0  0  0  0
  140.3790   70.9980  225.7140 C   0  0  0  0  0  0  0  0  0  0  0  0
  140.6120   71.7570  224.6230 N   0  0  0  0  0  0  0  0  0  0  0  0
  139.5540   73.9540  223.0960 H   0  0  0  0  0  0  0  0  0  0  0  0
  141.1339   74.0937  220.5562 H   0  0  0  0  0  0  0  0  0  0  0  0
  139.3699   74.4701  220.4943 H   0  0  0  0  0  0  0  0  0  0  0  0
  143.0132   75.8434  219.8192 H   0  0  0  0  0  0  0  0  0  0  0  0
  141.4685   75.6354  218.9787 H   0  0  0  0  0  0  0  0  0  0  0  0
  143.3821   77.7382  218.6387 H   0  0  0  0  0  0  0  0  0  0  0  0
  141.7734   77.6337  217.8857 H   0  0  0  0  0  0  0  0  0  0  0  0
  142.5864   79.5386  219.7843 H   0  0  0  0  0  0  0  0  0  0  0  0
  140.9118   79.2058  219.3595 H   0  0  0  0  0  0  0  0  0  0  0  0
  142.5455   78.1636  221.7175 H   0  0  0  0  0  0  0  0  0  0  0  0
  141.7884   79.1099  223.5829 H   0  0  0  0  0  0  0  0  0  0  0  0
  140.0489   80.2523  224.8967 H   0  0  0  0  0  0  0  0  0  0  0  0
  137.3137   79.7536  221.6322 H   0  0  0  0  0  0  0  0  0  0  0  0
  139.0694   78.6003  220.3042 H   0  0  0  0  0  0  0  0  0  0  0  0
  139.1564   69.8827  222.2702 H   0  0  0  0  0  0  0  0  0  0  0  0
  138.7104   68.4587  224.2618 H   0  0  0  0  0  0  0  0  0  0  0  0
  138.9525   68.1243  226.7314 H   0  0  0  0  0  0  0  0  0  0  0  0
  141.0339   71.1246  229.0494 H   0  0  0  0  0  0  0  0  0  0  0  0
  141.3958   72.4339  226.9466 H   0  0  0  0  0  0  0  0  0  0  0  0
  1  2  2  0
  2  3  1  0
  3  4  1  0
  4  5  1  0
  5  6  2  0
  5  7  1  0
  7  8  1  0
  8  9  1  0
  9 10  1  0
 10 11  1  0
 11 12  1  0
 12 13  2  0
 13 14  1  0
 14 15  2  0
 15 16  1  0
 16 17  1  0
 16 18  1  0
 16 19  1  0
 15 20  1  0
 20 21  2  0
  2 22  1  0
 22 23  2  0
 23 24  1  0
 24 25  2  0
 25 26  1  0
 26 27  2  0
 27 28  1  0
 27 29  1  0
 29 30  2  0
 30 31  1  0
 31 32  2  0
 11  7  1  0
 21 12  1  0
 32 22  1  0
 31 25  1  0
  3 33  1  0
  4 34  1  0
  4 35  1  0
  8 36  1  0
  8 37  1  0
  9 38  1  0
  9 39  1  0
 10 40  1  0
 10 41  1  0
 11 42  1  1
 13 43  1  0
 14 44  1  0
 20 45  1  0
 21 46  1  0
 23 47  1  0
 24 48  1  0
 26 49  1  0
 29 50  1  0
 30 51  1  0
M  END
>  <smiles>  (94) 
O=C(NCC(=O)N1CCCC1c1ccc(C(F)(F)F)cc1)c1ccc2cc(F)ccc2n1

>  <score_type>  (94) 
oracle

>  <origin>  (94) 
autodockgpu

>  <m_score__min__energy>  (94) 
-8.2899999999999991

>  <m_primary>  (94) 
energy

>  <rmsd>  (94) 
2.04588672268084

>  <m_score__min__rmsd>  (94) 
2.04588672268084

>  <meeko>  (94) 
{"free_energy": -8.19, "intermolecular_energy": -9.98, "internal_energy": -1.75, "cluster_size": 28, "cluster_id": 1, "rank_in_cluster": 21}

>  <energy>  (94) 
-7.52

>  <cluster_rmsd>  (94) 
0.84

>  <cluster>  (94) 
4

$$$$

     RDKit          3D

 51 54  0  0  0  0  0  0  0  0999 V2000
  133.2730   70.0310  226.6080 O   0  0  0  0  0  0  0  0  0  0  0  0
  133.6650   71.1260  226.1310 C   0  0  0  0  0  0  0  0  0  0  0  0
  134.6520   71.2000  225.1260 N   0  0  0  0  0  0  0  0  0  0  0  0
  135.2540   69.9960  224.6040 C   0  0  0  0  0  0  0  0  0  0  0  0
  136.4390   70.3270  223.7540 C   0  0  0  0  0  0  0  0  0  0  0  0
  136.6950   71.5530  223.6150 O   0  0  0  0  0  0  0  0  0  0  0  0
  137.1950   69.2890  223.1620 N   0  0  0  0  0  0  0  0  0  0  0  0
  137.0160   68.7680  221.8010 C   0  0  0  0  0  0  0  0  0  0  0  0
  138.3200   68.1220  221.4320 C   0  0  0  0  0  0  0  0  0  0  0  0
  139.2030   68.1900  222.6400 C   0  0  0  0  0  0  0  0  0  0  0  0
  138.2630   68.5580  223.7690 C   0  0  1  0  0  0  0  0  0  0  0  0
  138.9920   69.3510  224.8230 C   0  0  0  0  0  0  0  0  0  0  0  0
  139.0410   68.9010  226.1360 C   0  0  0  0  0  0  0  0  0  0  0  0
  139.6970   69.5930  227.1320 C   0  0  0  0  0  0  0  0  0  0  0  0
  140.3330   70.7810  226.8330 C   0  0  0  0  0  0  0  0  0  0  0  0
  141.0420   71.5360  227.8980 C   0  0  0  0  0  0  0  0  0  0  0  0
  141.7930   70.7060  228.7100 F   0  0  0  0  0  0  0  0  0  0  0  0
  140.1850   72.2540  228.7120 F   0  0  0  0  0  0  0  0  0  0  0  0
  141.9130   72.4400  227.3260 F   0  0  0  0  0  0  0  0  0  0  0  0
  140.2930   71.2420  225.5300 C   0  0  0  0  0  0  0  0  0  0  0  0
  139.6290   70.5410  224.5210 C   0  0  0  0  0  0  0  0  0  0  0  0
  133.0880   72.3880  226.6220 C   0  0  0  0  0  0  0  0  0  0  0  0
  131.8990   72.3930  227.3270 C   0  0  0  0  0  0  0  0  0  0  0  0
  131.3510   73.5880  227.7930 C   0  0  0  0  0  0  0  0  0  0  0  0
  131.9970   74.7760  227.5520 C   0  0  0  0  0  0  0  0  0  0  0  0
  131.5330   76.0020  227.9720 C   0  0  0  0  0  0  0  0  0  0  0  0
  132.2540   77.1550  227.6830 C   0  0  0  0  0  0  0  0  0  0  0  0
  131.8240   78.3770  228.0840 F   0  0  0  0  0  0  0  0  0  0  0  0
  133.4420   77.1230  226.9760 C   0  0  0  0  0  0  0  0  0  0  0  0
  133.8980   75.8850  226.5580 C   0  0  0  0  0  0  0  0  0  0  0  0
  133.1820   74.7440  226.8470 C   0  0  0  0  0  0  0  0  0  0  0  0
  133.6950   73.5780  226.4040 N   0  0  0  0  0  0  0  0  0  0  0  0
  134.9510   72.1240  224.7540 H   0  0  0  0  0  0  0  0  0  0  0  0
  135.5761   69.3601  225.4418 H   0  0  0  0  0  0  0  0  0  0  0  0
  134.5122   69.4663  223.9882 H   0  0  0  0  0  0  0  0  0  0  0  0
  136.2027   68.0278  221.7787 H   0  0  0  0  0  0  0  0  0  0  0  0
  136.7477   69.5676  221.0948 H   0  0  0  0  0  0  0  0  0  0  0  0
  138.1536   67.0732  221.1449 H   0  0  0  0  0  0  0  0  0  0  0  0
  138.7843   68.6374  220.5783 H   0  0  0  0  0  0  0  0  0  0  0  0
  139.6788   67.2167  222.8304 H   0  0  0  0  0  0  0  0  0  0  0  0
  140.0225   68.9142  222.5219 H   0  0  0  0  0  0  0  0  0  0  0  0
  137.8661   67.6753  224.2919 H   0  0  0  0  0  0  0  0  0  0  0  0
  138.5374   67.9569  226.3910 H   0  0  0  0  0  0  0  0  0  0  0  0
  139.7134   69.2004  228.1594 H   0  0  0  0  0  0  0  0  0  0  0  0
  140.7981   72.1870  225.2813 H   0  0  0  0  0  0  0  0  0  0  0  0
  139.6127   70.9326  223.4932 H   0  0  0  0  0  0  0  0  0  0  0  0
  131.3790   71.4436  227.5228 H   0  0  0  0  0  0  0  0  0  0  0  0
  130.4038   73.5791  228.3522 H   0  0  0  0  0  0  0  0  0  0  0  0
  130.5913   76.0695  228.5365 H   0  0  0  0  0  0  0  0  0  0  0  0
  134.0017   78.0438  226.7549 H   0  0  0  0  0  0  0  0  0  0  0  0
  134.8380   75.8116  225.9915 H   0  0  0  0  0  0  0  0  0  0  0  0
  1  2  2  0
  2  3  1  0
  3  4  1  0
  4  5  1  0
  5  6  2  0
  5  7  1  0
  7  8  1  0
  8  9  1  0
  9 10  1  0
 10 11  1  0
 11 12  1  0
 12 13  2  0
 13 14  1  0
 14 15  2  0
 15 16  1  0
 16 17  1  0
 16 18  1  0
 16 19  1  0
 15 20  1  0
 20 21  2  0
  2 22  1  0
 22 23  2  0
 23 24  1  0
 24 25  2  0
 25 26  1  0
 26 27  2  0
 27 28  1  0
 27 29  1  0
 29 30  2  0
 30 31  1  0
 31 32  2  0
 11  7  1  0
 21 12  1  0
 32 22  1  0
 31 25  1  0
  3 33  1  0
  4 34  1  0
  4 35  1  0
  8 36  1  0
  8 37  1  0
  9 38  1  0
  9 39  1  0
 10 40  1  0
 10 41  1  0
 11 42  1  1
 13 43  1  0
 14 44  1  0
 20 45  1  0
 21 46  1  0
 23 47  1  0
 24 48  1  0
 26 49  1  0
 29 50  1  0
 30 51  1  0
M  END
>  <smiles>  (95) 
O=C(NCC(=O)N1CCCC1c1ccc(C(F)(F)F)cc1)c1ccc2cc(F)ccc2n1

>  <score_type>  (95) 
oracle

>  <origin>  (95) 
autodockgpu

>  <m_score__min__energy>  (95) 
-8.2899999999999991

>  <m_primary>  (95) 
energy

>  <rmsd>  (95) 
8.86884799097874

>  <m_score__min__rmsd>  (95) 
8.86884799097874

>  <meeko>  (95) 
{"free_energy": -7.86, "intermolecular_energy": -9.65, "internal_energy": -2.2, "cluster_size": 5, "cluster_id": 3, "rank_in_cluster": 3}

>  <energy>  (95) 
-7.69

>  <cluster_rmsd>  (95) 
0.0

>  <cluster>  (95) 
5

$$$$

     RDKit          3D

 51 54  0  0  0  0  0  0  0  0999 V2000
  141.0410   71.7250  221.1940 O   0  0  0  0  0  0  0  0  0  0  0  0
  140.4680   72.2120  222.2010 C   0  0  0  0  0  0  0  0  0  0  0  0
  140.0420   73.5560  222.2500 N   0  0  0  0  0  0  0  0  0  0  0  0
  140.2550   74.4310  221.1200 C   0  0  0  0  0  0  0  0  0  0  0  0
  140.5250   75.8270  221.5800 C   0  0  0  0  0  0  0  0  0  0  0  0
  139.9840   76.1660  222.6660 O   0  0  0  0  0  0  0  0  0  0  0  0
  141.3450   76.6800  220.8050 N   0  0  0  0  0  0  0  0  0  0  0  0
  142.0490   76.3040  219.5730 C   0  0  0  0  0  0  0  0  0  0  0  0
  142.3060   77.5870  218.8370 C   0  0  0  0  0  0  0  0  0  0  0  0
  141.8340   78.7030  219.7190 C   0  0  0  0  0  0  0  0  0  0  0  0
  141.6420   78.0530  221.0720 C   0  0  1  0  0  0  0  0  0  0  0  0
  140.5500   78.7510  221.8410 C   0  0  0  0  0  0  0  0  0  0  0  0
  140.7790   79.2110  223.1310 C   0  0  0  0  0  0  0  0  0  0  0  0
  139.8090   79.8560  223.8700 C   0  0  0  0  0  0  0  0  0  0  0  0
  138.5570   80.0580  223.3240 C   0  0  0  0  0  0  0  0  0  0  0  0
  137.5040   80.7510  224.1110 C   0  0  0  0  0  0  0  0  0  0  0  0
  136.3210   80.0350  224.1400 F   0  0  0  0  0  0  0  0  0  0  0  0
  137.2160   82.0160  223.6310 F   0  0  0  0  0  0  0  0  0  0  0  0
  137.9210   80.8970  225.4180 F   0  0  0  0  0  0  0  0  0  0  0  0
  138.3140   79.6050  222.0410 C   0  0  0  0  0  0  0  0  0  0  0  0
  139.2970   78.9520  221.2930 C   0  0  0  0  0  0  0  0  0  0  0  0
  140.2220   71.3700  223.3840 C   0  0  0  0  0  0  0  0  0  0  0  0
  139.5520   70.1680  223.2670 C   0  0  0  0  0  0  0  0  0  0  0  0
  139.3180   69.3690  224.3860 C   0  0  0  0  0  0  0  0  0  0  0  0
  139.7590   69.7790  225.6210 C   0  0  0  0  0  0  0  0  0  0  0  0
  139.5740   69.0580  226.7800 C   0  0  0  0  0  0  0  0  0  0  0  0
  140.0550   69.5500  227.9880 C   0  0  0  0  0  0  0  0  0  0  0  0
  139.8900   68.8650  229.1470 F   0  0  0  0  0  0  0  0  0  0  0  0
  140.7240   70.7570  228.0780 C   0  0  0  0  0  0  0  0  0  0  0  0
  140.9020   71.4720  226.9070 C   0  0  0  0  0  0  0  0  0  0  0  0
  140.4250   70.9830  225.7110 C   0  0  0  0  0  0  0  0  0  0  0  0
  140.6410   71.7400  224.6160 N   0  0  0  0  0  0  0  0  0  0  0  0
  139.5710   73.9250  223.0990 H   0  0  0  0  0  0  0  0  0  0  0  0
  141.1162   74.0687  220.5394 H   0  0  0  0  0  0  0  0  0  0  0  0
  139.3490   74.4319  220.4961 H   0  0  0  0  0  0  0  0  0  0  0  0
  142.9989   75.8037  219.8128 H   0  0  0  0  0  0  0  0  0  0  0  0
  141.4559   75.6031  218.9672 H   0  0  0  0  0  0  0  0  0  0  0  0
  143.3814   77.6962  218.6332 H   0  0  0  0  0  0  0  0  0  0  0  0
  141.7758   77.5985  217.8733 H   0  0  0  0  0  0  0  0  0  0  0  0
  142.5879   79.5021  219.7738 H   0  0  0  0  0  0  0  0  0  0  0  0
  140.9136   79.1748  219.3444 H   0  0  0  0  0  0  0  0  0  0  0  0
  142.5375   78.1280  221.7064 H   0  0  0  0  0  0  0  0  0  0  0  0
  141.7709   79.0553  223.5804 H   0  0  0  0  0  0  0  0  0  0  0  0
  140.0317   80.2073  224.8883 H   0  0  0  0  0  0  0  0  0  0  0  0
  137.3201   79.7628  221.5969 H   0  0  0  0  0  0  0  0  0  0  0  0
  139.0752   78.6002  220.2747 H   0  0  0  0  0  0  0  0  0  0  0  0
  139.1987   69.8368  222.2794 H   0  0  0  0  0  0  0  0  0  0  0  0
  138.7823   68.4141  224.2802 H   0  0  0  0  0  0  0  0  0  0  0  0
  139.0460   68.0935  226.7497 H   0  0  0  0  0  0  0  0  0  0  0  0
  141.0992   71.1332  229.0412 H   0  0  0  0  0  0  0  0  0  0  0  0
  141.4281   72.4377  226.9313 H   0  0  0  0  0  0  0  0  0  0  0  0
  1  2  2  0
  2  3  1  0
  3  4  1  0
  4  5  1  0
  5  6  2  0
  5  7  1  0
  7  8  1  0
  8  9  1  0
  9 10  1  0
 10 11  1  0
 11 12  1  0
 12 13  2  0
 13 14  1  0
 14 15  2  0
 15 16  1  0
 16 17  1  0
 16 18  1  0
 16 19  1  0
 15 20  1  0
 20 21  2  0
  2 22  1  0
 22 23  2  0
 23 24  1  0
 24 25  2  0
 25 26  1  0
 26 27  2  0
 27 28  1  0
 27 29  1  0
 29 30  2  0
 30 31  1  0
 31 32  2  0
 11  7  1  0
 21 12  1  0
 32 22  1  0
 31 25  1  0
  3 33  1  0
  4 34  1  0
  4 35  1  0
  8 36  1  0
  8 37  1  0
  9 38  1  0
  9 39  1  0
 10 40  1  0
 10 41  1  0
 11 42  1  1
 13 43  1  0
 14 44  1  0
 20 45  1  0
 21 46  1  0
 23 47  1  0
 24 48  1  0
 26 49  1  0
 29 50  1  0
 30 51  1  0
M  END
>  <smiles>  (96) 
O=C(NCC(=O)N1CCCC1c1ccc(C(F)(F)F)cc1)c1ccc2cc(F)ccc2n1

>  <score_type>  (96) 
oracle

>  <origin>  (96) 
autodockgpu

>  <m_score__min__energy>  (96) 
-8.2899999999999991

>  <m_primary>  (96) 
energy

>  <rmsd>  (96) 
2.023348215072805

>  <m_score__min__rmsd>  (96) 
2.023348215072805

>  <meeko>  (96) 
{"free_energy": -8.2, "intermolecular_energy": -9.99, "internal_energy": -1.75, "cluster_size": 28, "cluster_id": 1, "rank_in_cluster": 19}

>  <energy>  (96) 
-7.65

>  <cluster_rmsd>  (96) 
0.0

>  <cluster>  (96) 
6

$$$$

     RDKit          3D

 51 54  0  0  0  0  0  0  0  0999 V2000
  140.9490   71.7700  221.1270 O   0  0  0  0  0  0  0  0  0  0  0  0
  140.4120   72.2550  222.1540 C   0  0  0  0  0  0  0  0  0  0  0  0
  140.0080   73.6040  222.2290 N   0  0  0  0  0  0  0  0  0  0  0  0
  140.2030   74.4880  221.1030 C   0  0  0  0  0  0  0  0  0  0  0  0
  140.5160   75.8730  221.5710 C   0  0  0  0  0  0  0  0  0  0  0  0
  140.0160   76.2100  222.6770 O   0  0  0  0  0  0  0  0  0  0  0  0
  141.3300   76.7180  220.7800 N   0  0  0  0  0  0  0  0  0  0  0  0
  141.9820   76.3440  219.5190 C   0  0  0  0  0  0  0  0  0  0  0  0
  142.2440   77.6320  218.7940 C   0  0  0  0  0  0  0  0  0  0  0  0
  141.8300   78.7450  219.7070 C   0  0  0  0  0  0  0  0  0  0  0  0
  141.6680   78.0790  221.0570 C   0  0  1  0  0  0  0  0  0  0  0  0
  140.6200   78.7910  221.8730 C   0  0  0  0  0  0  0  0  0  0  0  0
  139.3620   79.0400  221.3410 C   0  0  0  0  0  0  0  0  0  0  0  0
  138.3720   79.6870  222.0520 C   0  0  0  0  0  0  0  0  0  0  0  0
  138.6250   80.1120  223.3410 C   0  0  0  0  0  0  0  0  0  0  0  0
  137.5670   80.8100  224.1170 C   0  0  0  0  0  0  0  0  0  0  0  0
  137.3620   82.1020  223.6690 F   0  0  0  0  0  0  0  0  0  0  0  0
  137.8440   80.8750  225.4700 F   0  0  0  0  0  0  0  0  0  0  0  0
  136.3690   80.1380  223.9780 F   0  0  0  0  0  0  0  0  0  0  0  0
  139.8730   79.8700  223.8840 C   0  0  0  0  0  0  0  0  0  0  0  0
  140.8750   79.2150  223.1640 C   0  0  0  0  0  0  0  0  0  0  0  0
  140.1850   71.4040  223.3350 C   0  0  0  0  0  0  0  0  0  0  0  0
  139.5450   70.1850  223.2130 C   0  0  0  0  0  0  0  0  0  0  0  0
  139.3300   69.3780  224.3300 C   0  0  0  0  0  0  0  0  0  0  0  0
  139.7580   69.7950  225.5670 C   0  0  0  0  0  0  0  0  0  0  0  0
  139.5900   69.0660  226.7230 C   0  0  0  0  0  0  0  0  0  0  0  0
  140.0570   69.5660  227.9330 C   0  0  0  0  0  0  0  0  0  0  0  0
  139.9080   68.8740  229.0900 F   0  0  0  0  0  0  0  0  0  0  0  0
  140.6950   70.7900  228.0280 C   0  0  0  0  0  0  0  0  0  0  0  0
  140.8570   71.5130  226.8590 C   0  0  0  0  0  0  0  0  0  0  0  0
  140.3940   71.0150  225.6610 C   0  0  0  0  0  0  0  0  0  0  0  0
  140.5930   71.7810  224.5690 N   0  0  0  0  0  0  0  0  0  0  0  0
  139.5660   73.9710  223.0950 H   0  0  0  0  0  0  0  0  0  0  0  0
  141.0378   74.1156  220.4911 H   0  0  0  0  0  0  0  0  0  0  0  0
  139.2782   74.5146  220.5080 H   0  0  0  0  0  0  0  0  0  0  0  0
  142.9272   75.8179  219.7183 H   0  0  0  0  0  0  0  0  0  0  0  0
  141.3522   75.6663  218.9240 H   0  0  0  0  0  0  0  0  0  0  0  0
  143.3141   77.7190  218.5545 H   0  0  0  0  0  0  0  0  0  0  0  0
  141.6808   77.6708  217.8499 H   0  0  0  0  0  0  0  0  0  0  0  0
  142.6048   79.5248  219.7474 H   0  0  0  0  0  0  0  0  0  0  0  0
  140.9093   79.2445  219.3710 H   0  0  0  0  0  0  0  0  0  0  0  0
  142.5855   78.1233  221.6621 H   0  0  0  0  0  0  0  0  0  0  0  0
  139.1464   78.7092  220.3143 H   0  0  0  0  0  0  0  0  0  0  0  0
  137.3872   79.8631  221.5946 H   0  0  0  0  0  0  0  0  0  0  0  0
  140.0829   80.2024  224.9114 H   0  0  0  0  0  0  0  0  0  0  0  0
  141.8598   79.0378  223.6209 H   0  0  0  0  0  0  0  0  0  0  0  0
  139.2014   69.8476  222.2240 H   0  0  0  0  0  0  0  0  0  0  0  0
  138.8190   68.4100  224.2208 H   0  0  0  0  0  0  0  0  0  0  0  0
  139.0865   68.0886  226.6890 H   0  0  0  0  0  0  0  0  0  0  0  0
  141.0586   71.1728  228.9930 H   0  0  0  0  0  0  0  0  0  0  0  0
  141.3587   72.4916  226.8867 H   0  0  0  0  0  0  0  0  0  0  0  0
  1  2  2  0
  2  3  1  0
  3  4  1  0
  4  5  1  0
  5  6  2  0
  5  7  1  0
  7  8  1  0
  8  9  1  0
  9 10  1  0
 10 11  1  0
 11 12  1  0
 12 13  2  0
 13 14  1  0
 14 15  2  0
 15 16  1  0
 16 17  1  0
 16 18  1  0
 16 19  1  0
 15 20  1  0
 20 21  2  0
  2 22  1  0
 22 23  2  0
 23 24  1  0
 24 25  2  0
 25 26  1  0
 26 27  2  0
 27 28  1  0
 27 29  1  0
 29 30  2  0
 30 31  1  0
 31 32  2  0
 11  7  1  0
 21 12  1  0
 32 22  1  0
 31 25  1  0
  3 33  1  0
  4 34  1  0
  4 35  1  0
  8 36  1  0
  8 37  1  0
  9 38  1  0
  9 39  1  0
 10 40  1  0
 10 41  1  0
 11 42  1  1
 13 43  1  0
 14 44  1  0
 20 45  1  0
 21 46  1  0
 23 47  1  0
 24 48  1  0
 26 49  1  0
 29 50  1  0
 30 51  1  0
M  END
>  <smiles>  (97) 
O=C(NCC(=O)N1CCCC1c1ccc(C(F)(F)F)cc1)c1ccc2cc(F)ccc2n1

>  <score_type>  (97) 
oracle

>  <origin>  (97) 
autodockgpu

>  <m_score__min__energy>  (97) 
-8.2899999999999991

>  <m_primary>  (97) 
energy

>  <rmsd>  (97) 
2.003200424502394

>  <m_score__min__rmsd>  (97) 
2.003200424502394

>  <meeko>  (97) 
{"free_energy": -8.21, "intermolecular_energy": -10.0, "internal_energy": -1.77, "cluster_size": 28, "cluster_id": 1, "rank_in_cluster": 7}

>  <energy>  (97) 
-6.93

>  <cluster_rmsd>  (97) 
1.61

>  <cluster>  (97) 
6

$$$$

     RDKit          3D

 51 54  0  0  0  0  0  0  0  0999 V2000
  141.3570   71.9850  221.3600 O   0  0  0  0  0  0  0  0  0  0  0  0
  140.6020   72.4480  222.2520 C   0  0  0  0  0  0  0  0  0  0  0  0
  140.0730   73.7540  222.1900 N   0  0  0  0  0  0  0  0  0  0  0  0
  140.3890   74.6170  221.0750 C   0  0  0  0  0  0  0  0  0  0  0  0
  139.1390   75.1510  220.4540 C   0  0  0  0  0  0  0  0  0  0  0  0
  139.1790   75.3500  219.2110 O   0  0  0  0  0  0  0  0  0  0  0  0
  138.0030   75.4030  221.2590 N   0  0  0  0  0  0  0  0  0  0  0  0
  137.0190   74.4030  221.6890 C   0  0  0  0  0  0  0  0  0  0  0  0
  136.3610   74.9720  222.9130 C   0  0  0  0  0  0  0  0  0  0  0  0
  136.9090   76.3530  223.1060 C   0  0  0  0  0  0  0  0  0  0  0  0
  137.6020   76.6660  221.7970 C   0  0  1  0  0  0  0  0  0  0  0  0
  138.7610   77.6010  222.0250 C   0  0  0  0  0  0  0  0  0  0  0  0
  139.8910   77.1710  222.7070 C   0  0  0  0  0  0  0  0  0  0  0  0
  140.9750   77.9920  222.9380 C   0  0  0  0  0  0  0  0  0  0  0  0
  140.9520   79.2960  222.4830 C   0  0  0  0  0  0  0  0  0  0  0  0
  142.1130   80.1910  222.7260 C   0  0  0  0  0  0  0  0  0  0  0  0
  143.3110   79.4990  222.7240 F   0  0  0  0  0  0  0  0  0  0  0  0
  142.0260   80.8740  223.9250 F   0  0  0  0  0  0  0  0  0  0  0  0
  142.1900   81.1360  221.7240 F   0  0  0  0  0  0  0  0  0  0  0  0
  139.8330   79.7390  221.8020 C   0  0  0  0  0  0  0  0  0  0  0  0
  138.7360   78.9070  221.5690 C   0  0  0  0  0  0  0  0  0  0  0  0
  140.2420   71.6160  223.4130 C   0  0  0  0  0  0  0  0  0  0  0  0
  139.4100   70.5220  223.2670 C   0  0  0  0  0  0  0  0  0  0  0  0
  139.0690   69.7330  224.3650 C   0  0  0  0  0  0  0  0  0  0  0  0
  139.5640   70.0430  225.6090 C   0  0  0  0  0  0  0  0  0  0  0  0
  139.2820   69.3230  226.7480 C   0  0  0  0  0  0  0  0  0  0  0  0
  139.8280   69.7090  227.9660 C   0  0  0  0  0  0  0  0  0  0  0  0
  139.5710   69.0220  229.1070 F   0  0  0  0  0  0  0  0  0  0  0  0
  140.6590   70.8080  228.0860 C   0  0  0  0  0  0  0  0  0  0  0  0
  140.9350   71.5240  226.9340 C   0  0  0  0  0  0  0  0  0  0  0  0
  140.3920   71.1390  225.7280 C   0  0  0  0  0  0  0  0  0  0  0  0
  140.7100   71.8890  224.6530 N   0  0  0  0  0  0  0  0  0  0  0  0
  139.4510   74.1030  222.9460 H   0  0  0  0  0  0  0  0  0  0  0  0
  141.0037   75.4571  221.4306 H   0  0  0  0  0  0  0  0  0  0  0  0
  140.9399   74.0357  220.3209 H   0  0  0  0  0  0  0  0  0  0  0  0
  136.2739   74.2345  220.8975 H   0  0  0  0  0  0  0  0  0  0  0  0
  137.4944   73.4337  221.9000 H   0  0  0  0  0  0  0  0  0  0  0  0
  135.2712   75.0151  222.7700 H   0  0  0  0  0  0  0  0  0  0  0  0
  136.5625   74.3442  223.7935 H   0  0  0  0  0  0  0  0  0  0  0  0
  136.0980   77.0707  223.2991 H   0  0  0  0  0  0  0  0  0  0  0  0
  137.5890   76.4189  223.9681 H   0  0  0  0  0  0  0  0  0  0  0  0
  136.9442   77.1874  221.0860 H   0  0  0  0  0  0  0  0  0  0  0  0
  139.9232   76.1357  223.0774 H   0  0  0  0  0  0  0  0  0  0  0  0
  141.8523   77.6107  223.4811 H   0  0  0  0  0  0  0  0  0  0  0  0
  139.8063   80.7752  221.4337 H   0  0  0  0  0  0  0  0  0  0  0  0
  137.8579   79.2874  221.0266 H   0  0  0  0  0  0  0  0  0  0  0  0
  139.0121   70.2707  222.2727 H   0  0  0  0  0  0  0  0  0  0  0  0
  138.4057   68.8650  224.2358 H   0  0  0  0  0  0  0  0  0  0  0  0
  138.6248   68.4426  226.6939 H   0  0  0  0  0  0  0  0  0  0  0  0
  141.0834   71.1012  229.0576 H   0  0  0  0  0  0  0  0  0  0  0  0
  141.5915   72.4053  226.9818 H   0  0  0  0  0  0  0  0  0  0  0  0
  1  2  2  0
  2  3  1  0
  3  4  1  0
  4  5  1  0
  5  6  2  0
  5  7  1  0
  7  8  1  0
  8  9  1  0
  9 10  1  0
 10 11  1  0
 11 12  1  0
 12 13  2  0
 13 14  1  0
 14 15  2  0
 15 16  1  0
 16 17  1  0
 16 18  1  0
 16 19  1  0
 15 20  1  0
 20 21  2  0
  2 22  1  0
 22 23  2  0
 23 24  1  0
 24 25  2  0
 25 26  1  0
 26 27  2  0
 27 28  1  0
 27 29  1  0
 29 30  2  0
 30 31  1  0
 31 32  2  0
 11  7  1  0
 21 12  1  0
 32 22  1  0
 31 25  1  0
  3 33  1  0
  4 34  1  0
  4 35  1  0
  8 36  1  0
  8 37  1  0
  9 38  1  0
  9 39  1  0
 10 40  1  0
 10 41  1  0
 11 42  1  6
 13 43  1  0
 14 44  1  0
 20 45  1  0
 21 46  1  0
 23 47  1  0
 24 48  1  0
 26 49  1  0
 29 50  1  0
 30 51  1  0
M  END
>  <smiles>  (98) 
O=C(NCC(=O)N1CCCC1c1ccc(C(F)(F)F)cc1)c1ccc2cc(F)ccc2n1

>  <score_type>  (98) 
oracle

>  <origin>  (98) 
autodockgpu

>  <m_score__min__energy>  (98) 
-8.2899999999999991

>  <m_primary>  (98) 
energy

>  <rmsd>  (98) 
3.3263015834992036

>  <m_score__min__rmsd>  (98) 
3.3263015834992036

>  <meeko>  (98) 
{"free_energy": -7.49, "intermolecular_energy": -9.28, "internal_energy": -1.54, "cluster_size": 4, "cluster_id": 2, "rank_in_cluster": 4}

>  <energy>  (98) 
-6.84

>  <cluster_rmsd>  (98) 
0.0

>  <cluster>  (98) 
7

$$$$

     RDKit          3D

 51 54  0  0  0  0  0  0  0  0999 V2000
  141.3740   72.4350  221.6230 O   0  0  0  0  0  0  0  0  0  0  0  0
  140.3640   72.5910  222.3550 C   0  0  0  0  0  0  0  0  0  0  0  0
  139.4310   73.6270  222.1410 N   0  0  0  0  0  0  0  0  0  0  0  0
  139.6100   74.5580  221.0510 C   0  0  0  0  0  0  0  0  0  0  0  0
  140.7840   75.4460  221.3080 C   0  0  0  0  0  0  0  0  0  0  0  0
  140.8490   75.9620  222.4550 O   0  0  0  0  0  0  0  0  0  0  0  0
  141.7400   75.6650  220.2880 N   0  0  0  0  0  0  0  0  0  0  0  0
  142.1120   74.7050  219.2420 C   0  0  0  0  0  0  0  0  0  0  0  0
  142.6940   75.5200  218.1230 C   0  0  0  0  0  0  0  0  0  0  0  0
  142.7460   76.9410  218.5930 C   0  0  0  0  0  0  0  0  0  0  0  0
  142.5180   76.8480  220.0870 C   0  0  1  0  0  0  0  0  0  0  0  0
  141.8350   78.0930  220.5930 C   0  0  0  0  0  0  0  0  0  0  0  0
  140.8630   78.7240  219.8290 C   0  0  0  0  0  0  0  0  0  0  0  0
  140.2120   79.8640  220.2530 C   0  0  0  0  0  0  0  0  0  0  0  0
  140.5270   80.4130  221.4800 C   0  0  0  0  0  0  0  0  0  0  0  0
  139.8330   81.6410  221.9480 C   0  0  0  0  0  0  0  0  0  0  0  0
  140.6850   82.7290  222.0060 F   0  0  0  0  0  0  0  0  0  0  0  0
  139.2570   81.4930  223.1970 F   0  0  0  0  0  0  0  0  0  0  0  0
  138.8200   81.9660  221.0690 F   0  0  0  0  0  0  0  0  0  0  0  0
  141.4930   79.7950  222.2530 C   0  0  0  0  0  0  0  0  0  0  0  0
  142.1520   78.6410  221.8230 C   0  0  0  0  0  0  0  0  0  0  0  0
  140.1260   71.6740  223.4820 C   0  0  0  0  0  0  0  0  0  0  0  0
  139.3320   70.5540  223.3240 C   0  0  0  0  0  0  0  0  0  0  0  0
  139.1060   69.6840  224.3900 C   0  0  0  0  0  0  0  0  0  0  0  0
  139.6770   69.9390  225.6140 C   0  0  0  0  0  0  0  0  0  0  0  0
  139.5100   69.1380  226.7210 C   0  0  0  0  0  0  0  0  0  0  0  0
  140.1270   69.4740  227.9200 C   0  0  0  0  0  0  0  0  0  0  0  0
  139.9840   68.7060  229.0290 F   0  0  0  0  0  0  0  0  0  0  0  0
  140.9180   70.6010  228.0520 C   0  0  0  0  0  0  0  0  0  0  0  0
  141.0770   71.3980  226.9330 C   0  0  0  0  0  0  0  0  0  0  0  0
  140.4650   71.0630  225.7450 C   0  0  0  0  0  0  0  0  0  0  0  0
  140.6710   71.8920  224.7010 N   0  0  0  0  0  0  0  0  0  0  0  0
  138.6070   73.7260  222.7660 H   0  0  0  0  0  0  0  0  0  0  0  0
  139.7775   73.9970  220.1197 H   0  0  0  0  0  0  0  0  0  0  0  0
  138.7068   75.1795  220.9623 H   0  0  0  0  0  0  0  0  0  0  0  0
  142.8578   73.9925  219.6244 H   0  0  0  0  0  0  0  0  0  0  0  0
  141.2445   74.1184  218.9054 H   0  0  0  0  0  0  0  0  0  0  0  0
  143.7072   75.1642  217.8847 H   0  0  0  0  0  0  0  0  0  0  0  0
  142.0808   75.4308  217.2141 H   0  0  0  0  0  0  0  0  0  0  0  0
  143.7273   77.3880  218.3754 H   0  0  0  0  0  0  0  0  0  0  0  0
  142.0013   77.5773  218.0925 H   0  0  0  0  0  0  0  0  0  0  0  0
  143.4582   76.7813  220.6540 H   0  0  0  0  0  0  0  0  0  0  0  0
  140.6020   78.2991  218.8485 H   0  0  0  0  0  0  0  0  0  0  0  0
  139.4465   80.3328  219.6172 H   0  0  0  0  0  0  0  0  0  0  0  0
  141.7493   80.2239  223.2330 H   0  0  0  0  0  0  0  0  0  0  0  0
  142.9176   78.1712  222.4579 H   0  0  0  0  0  0  0  0  0  0  0  0
  138.8730   70.3465  222.3461 H   0  0  0  0  0  0  0  0  0  0  0  0
  138.4722   68.7956  224.2517 H   0  0  0  0  0  0  0  0  0  0  0  0
  138.8886   68.2326  226.6566 H   0  0  0  0  0  0  0  0  0  0  0  0
  141.4008   70.8530  229.0077 H   0  0  0  0  0  0  0  0  0  0  0  0
  141.6961   72.3053  226.9919 H   0  0  0  0  0  0  0  0  0  0  0  0
  1  2  2  0
  2  3  1  0
  3  4  1  0
  4  5  1  0
  5  6  2  0
  5  7  1  0
  7  8  1  0
  8  9  1  0
  9 10  1  0
 10 11  1  0
 11 12  1  0
 12 13  2  0
 13 14  1  0
 14 15  2  0
 15 16  1  0
 16 17  1  0
 16 18  1  0
 16 19  1  0
 15 20  1  0
 20 21  2  0
  2 22  1  0
 22 23  2  0
 23 24  1  0
 24 25  2  0
 25 26  1  0
 26 27  2  0
 27 28  1  0
 27 29  1  0
 29 30  2  0
 30 31  1  0
 31 32  2  0
 11  7  1  0
 21 12  1  0
 32 22  1  0
 31 25  1  0
  3 33  1  0
  4 34  1  0
  4 35  1  0
  8 36  1  0
  8 37  1  0
  9 38  1  0
  9 39  1  0
 10 40  1  0
 10 41  1  0
 11 42  1  1
 13 43  1  0
 14 44  1  0
 20 45  1  0
 21 46  1  0
 23 47  1  0
 24 48  1  0
 26 49  1  0
 29 50  1  0
 30 51  1  0
M  END
>  <smiles>  (99) 
O=C(NCC(=O)N1CCCC1c1ccc(C(F)(F)F)cc1)c1ccc2cc(F)ccc2n1

>  <score_type>  (99) 
oracle

>  <origin>  (99) 
autodockgpu

>  <m_score__min__energy>  (99) 
-8.2899999999999991

>  <m_primary>  (99) 
energy

>  <rmsd>  (99) 
1.848006479460472

>  <m_score__min__rmsd>  (99) 
1.848006479460472

>  <meeko>  (99) 
{"free_energy": -7.81, "intermolecular_energy": -9.6, "internal_energy": -1.47, "cluster_size": 28, "cluster_id": 1, "rank_in_cluster": 27}

>  <energy>  (99) 
-6.78

>  <cluster_rmsd>  (99) 
0.0

>  <cluster>  (99) 
8

$$$$

     RDKit          3D

 51 54  0  0  0  0  0  0  0  0999 V2000
  133.2300   70.0130  226.4960 O   0  0  0  0  0  0  0  0  0  0  0  0
  133.6250   71.1140  226.0350 C   0  0  0  0  0  0  0  0  0  0  0  0
  134.5850   71.1990  225.0050 N   0  0  0  0  0  0  0  0  0  0  0  0
  135.1540   69.9990  224.4360 C   0  0  0  0  0  0  0  0  0  0  0  0
  136.4390   70.3070  223.7380 C   0  0  0  0  0  0  0  0  0  0  0  0
  136.7790   71.5200  223.7130 O   0  0  0  0  0  0  0  0  0  0  0  0
  137.1940   69.2630  223.1550 N   0  0  0  0  0  0  0  0  0  0  0  0
  137.0380   68.7540  221.7870 C   0  0  0  0  0  0  0  0  0  0  0  0
  138.3410   68.0930  221.4420 C   0  0  0  0  0  0  0  0  0  0  0  0
  139.1970   68.1390  222.6700 C   0  0  0  0  0  0  0  0  0  0  0  0
  138.2370   68.5120  223.7800 C   0  0  1  0  0  0  0  0  0  0  0  0
  138.9530   69.2860  224.8570 C   0  0  0  0  0  0  0  0  0  0  0  0
  139.6340   70.4570  224.5500 C   0  0  0  0  0  0  0  0  0  0  0  0
  140.3010   71.1970  225.5030 C   0  0  0  0  0  0  0  0  0  0  0  0
  140.3060   70.7720  226.8170 C   0  0  0  0  0  0  0  0  0  0  0  0
  141.0230   71.5610  227.8530 C   0  0  0  0  0  0  0  0  0  0  0  0
  141.8370   72.5300  227.2960 F   0  0  0  0  0  0  0  0  0  0  0  0
  141.8090   70.7790  228.6790 F   0  0  0  0  0  0  0  0  0  0  0  0
  140.1090   72.2120  228.6560 F   0  0  0  0  0  0  0  0  0  0  0  0
  139.6340   69.6070  227.1380 C   0  0  0  0  0  0  0  0  0  0  0  0
  138.9570   68.8580  226.1720 C   0  0  0  0  0  0  0  0  0  0  0  0
  133.0820   72.3720  226.5740 C   0  0  0  0  0  0  0  0  0  0  0  0
  131.9250   72.3740  227.3300 C   0  0  0  0  0  0  0  0  0  0  0  0
  131.4100   73.5650  227.8410 C   0  0  0  0  0  0  0  0  0  0  0  0
  132.0550   74.7520  227.5920 C   0  0  0  0  0  0  0  0  0  0  0  0
  131.6210   75.9730  228.0550 C   0  0  0  0  0  0  0  0  0  0  0  0
  132.3390   77.1250  227.7540 C   0  0  0  0  0  0  0  0  0  0  0  0
  131.9390   78.3440  228.1940 F   0  0  0  0  0  0  0  0  0  0  0  0
  133.4950   77.0960  226.9950 C   0  0  0  0  0  0  0  0  0  0  0  0
  133.9210   75.8620  226.5360 C   0  0  0  0  0  0  0  0  0  0  0  0
  133.2070   74.7220  226.8350 C   0  0  0  0  0  0  0  0  0  0  0  0
  133.6900   73.5600  226.3500 N   0  0  0  0  0  0  0  0  0  0  0  0
  134.8880   72.1260  224.6480 H   0  0  0  0  0  0  0  0  0  0  0  0
  135.3442   69.2726  225.2398 H   0  0  0  0  0  0  0  0  0  0  0  0
  134.4448   69.5814  223.7062 H   0  0  0  0  0  0  0  0  0  0  0  0
  136.2155   68.0250  221.7416 H   0  0  0  0  0  0  0  0  0  0  0  0
  136.7960   69.5620  221.0809 H   0  0  0  0  0  0  0  0  0  0  0  0
  138.1668   67.0490  221.1424 H   0  0  0  0  0  0  0  0  0  0  0  0
  138.8316   68.6087  220.6033 H   0  0  0  0  0  0  0  0  0  0  0  0
  139.6543   67.1574  222.8635 H   0  0  0  0  0  0  0  0  0  0  0  0
  140.0293   68.8521  222.5762 H   0  0  0  0  0  0  0  0  0  0  0  0
  137.8156   67.6312  224.2865 H   0  0  0  0  0  0  0  0  0  0  0  0
  139.6414   70.8071  223.5072 H   0  0  0  0  0  0  0  0  0  0  0  0
  140.8262   72.1207  225.2184 H   0  0  0  0  0  0  0  0  0  0  0  0
  139.6323   69.2605  228.1820 H   0  0  0  0  0  0  0  0  0  0  0  0
  138.4310   67.9345  226.4555 H   0  0  0  0  0  0  0  0  0  0  0  0
  131.4047   71.4259  227.5308 H   0  0  0  0  0  0  0  0  0  0  0  0
  130.4890   73.5539  228.4424 H   0  0  0  0  0  0  0  0  0  0  0  0
  130.7065   76.0376  228.6629 H   0  0  0  0  0  0  0  0  0  0  0  0
  134.0527   78.0160  226.7657 H   0  0  0  0  0  0  0  0  0  0  0  0
  134.8353   75.7907  225.9286 H   0  0  0  0  0  0  0  0  0  0  0  0
  1  2  2  0
  2  3  1  0
  3  4  1  0
  4  5  1  0
  5  6  2  0
  5  7  1  0
  7  8  1  0
  8  9  1  0
  9 10  1  0
 10 11  1  0
 11 12  1  0
 12 13  2  0
 13 14  1  0
 14 15  2  0
 15 16  1  0
 16 17  1  0
 16 18  1  0
 16 19  1  0
 15 20  1  0
 20 21  2  0
  2 22  1  0
 22 23  2  0
 23 24  1  0
 24 25  2  0
 25 26  1  0
 26 27  2  0
 27 28  1  0
 27 29  1  0
 29 30  2  0
 30 31  1  0
 31 32  2  0
 11  7  1  0
 21 12  1  0
 32 22  1  0
 31 25  1  0
  3 33  1  0
  4 34  1  0
  4 35  1  0
  8 36  1  0
  8 37  1  0
  9 38  1  0
  9 39  1  0
 10 40  1  0
 10 41  1  0
 11 42  1  1
 13 43  1  0
 14 44  1  0
 20 45  1  0
 21 46  1  0
 23 47  1  0
 24 48  1  0
 26 49  1  0
 29 50  1  0
 30 51  1  0
M  END
>  <smiles>  (100) 
O=C(NCC(=O)N1CCCC1c1ccc(C(F)(F)F)cc1)c1ccc2cc(F)ccc2n1

>  <score_type>  (100) 
oracle

>  <origin>  (100) 
autodockgpu

>  <m_score__min__energy>  (100) 
-8.2899999999999991

>  <m_primary>  (100) 
energy

>  <rmsd>  (100) 
8.85064897842289

>  <m_score__min__rmsd>  (100) 
8.85064897842289

>  <meeko>  (100) 
{"free_energy": -7.8, "intermolecular_energy": -9.59, "internal_energy": -2.19, "cluster_size": 5, "cluster_id": 3, "rank_in_cluster": 5}

>  <energy>  (100) 
-6.61

>  <cluster_rmsd>  (100) 
0.0

>  <cluster>  (100) 
9

$$$$
