
     RDKit          3D

 48 51  0  0  0  0  0  0  0  0999 V2000
  139.8120   71.3630  221.0720 O   0  0  0  0  0  0  0  0  0  0  0  0
  139.7210   71.8790  222.2270 C   0  0  0  0  0  0  0  0  0  0  0  0
  139.6220   73.2880  222.3770 N   0  0  0  0  0  0  0  0  0  0  0  0
  139.6210   74.1700  221.2270 C   0  0  0  0  0  0  0  0  0  0  0  0
  140.7630   75.1200  221.2650 C   0  0  0  0  0  0  0  0  0  0  0  0
  141.0230   75.7180  222.3420 O   0  0  0  0  0  0  0  0  0  0  0  0
  141.5080   75.3030  220.0670 N   0  0  0  0  0  0  0  0  0  0  0  0
  141.9540   76.6290  219.6240 C   0  0  0  0  0  0  0  0  0  0  0  0
  143.4000   76.5090  219.2750 C   0  0  0  0  0  0  0  0  0  0  0  0
  143.5650   75.5390  218.1260 C   0  0  0  0  0  0  0  0  0  0  0  0
  142.3920   74.6010  217.9670 C   0  0  0  0  0  0  0  0  0  0  0  0
  141.8210   74.1410  219.2880 C   0  0  1  0  0  0  0  0  0  0  0  0
  142.7540   73.1940  219.9150 C   0  0  0  0  0  0  0  0  0  0  0  0
  143.9140   73.5050  220.6190 C   0  0  0  0  0  0  0  0  0  0  0  0
  144.4740   72.3680  221.0250 N   0  0  0  0  0  0  0  0  0  0  0  0
  143.6850   71.3710  220.5860 C   0  0  0  0  0  0  0  0  0  0  0  0
  142.6310   71.8540  219.9080 N   0  0  0  0  0  0  0  0  0  0  0  0
  139.7200   71.0130  223.4050 C   0  0  0  0  0  0  0  0  0  0  0  0
  139.2380   69.7300  223.3190 C   0  0  0  0  0  0  0  0  0  0  0  0
  139.2710   68.9720  224.4810 C   0  0  0  0  0  0  0  0  0  0  0  0
  139.7600   69.4620  225.6740 C   0  0  0  0  0  0  0  0  0  0  0  0
  139.8080   68.7440  226.8370 C   0  0  0  0  0  0  0  0  0  0  0  0
  140.3170   69.3150  227.9970 C   0  0  0  0  0  0  0  0  0  0  0  0
  140.3820   68.6440  229.1630 F   0  0  0  0  0  0  0  0  0  0  0  0
  140.7810   70.6150  227.9880 C   0  0  0  0  0  0  0  0  0  0  0  0
  140.7430   71.3560  226.8320 C   0  0  0  0  0  0  0  0  0  0  0  0
  140.2360   70.7710  225.6990 C   0  0  0  0  0  0  0  0  0  0  0  0
  140.1950   71.4790  224.5750 N   0  0  0  0  0  0  0  0  0  0  0  0
  139.5480   73.6540  223.3720 H   0  0  0  0  0  0  0  0  0  0  0  0
  139.6915   73.5635  220.3120 H   0  0  0  0  0  0  0  0  0  0  0  0
  138.6882   74.7528  221.2413 H   0  0  0  0  0  0  0  0  0  0  0  0
  141.3777   76.9464  218.7424 H   0  0  0  0  0  0  0  0  0  0  0  0
  141.8019   77.3786  220.4145 H   0  0  0  0  0  0  0  0  0  0  0  0
  143.7887   77.4950  218.9806 H   0  0  0  0  0  0  0  0  0  0  0  0
  143.9575   76.1396  220.1483 H   0  0  0  0  0  0  0  0  0  0  0  0
  143.6808   76.1149  217.1960 H   0  0  0  0  0  0  0  0  0  0  0  0
  144.4499   74.9225  218.3428 H   0  0  0  0  0  0  0  0  0  0  0  0
  141.6016   75.1202  217.4052 H   0  0  0  0  0  0  0  0  0  0  0  0
  142.7541   73.7082  217.4362 H   0  0  0  0  0  0  0  0  0  0  0  0
  140.8797   73.5832  219.1747 H   0  0  0  0  0  0  0  0  0  0  0  0
  144.3014   74.5171  220.8074 H   0  0  0  0  0  0  0  0  0  0  0  0
  145.3700   72.2680  221.5860 H   0  0  0  0  0  0  0  0  0  0  0  0
  143.8775   70.3019  220.7593 H   0  0  0  0  0  0  0  0  0  0  0  0
  138.8451   69.3232  222.3755 H   0  0  0  0  0  0  0  0  0  0  0  0
  138.8922   67.9397  224.4494 H   0  0  0  0  0  0  0  0  0  0  0  0
  139.4411   67.7072  226.8542 H   0  0  0  0  0  0  0  0  0  0  0  0
  141.1829   71.0595  228.9105 H   0  0  0  0  0  0  0  0  0  0  0  0
  141.1100   72.3928  226.8149 H   0  0  0  0  0  0  0  0  0  0  0  0
  1  2  2  0
  2  3  1  0
  3  4  1  0
  4  5  1  0
  5  6  2  0
  5  7  1  0
  7  8  1  0
  8  9  1  0
  9 10  1  0
 10 11  1  0
 11 12  1  0
 12 13  1  0
 13 14  2  0
 14 15  1  0
 15 16  1  0
 16 17  2  0
  2 18  1  0
 18 19  2  0
 19 20  1  0
 20 21  2  0
 21 22  1  0
 22 23  2  0
 23 24  1  0
 23 25  1  0
 25 26  2  0
 26 27  1  0
 27 28  2  0
 12  7  1  0
 17 13  1  0
 28 18  1  0
 27 21  1  0
  3 29  1  0
  4 30  1  0
  4 31  1  0
  8 32  1  0
  8 33  1  0
  9 34  1  0
  9 35  1  0
 10 36  1  0
 10 37  1  0
 11 38  1  0
 11 39  1  0
 12 40  1  6
 14 41  1  0
 15 42  1  0
 16 43  1  0
 19 44  1  0
 20 45  1  0
 22 46  1  0
 25 47  1  0
 26 48  1  0
M  END
>  <smiles>  (1) 
O=C(NCC(=O)N1CCCC[C@H]1c1c[nH]cn1)c1ccc2cc(F)ccc2n1

>  <score_type>  (1) 
oracle

>  <origin>  (1) 
autodockgpu

>  <m_score__min__energy>  (1) 
-8.1500000000000004

>  <m_primary>  (1) 
energy

>  <rmsd>  (1) 
3.1009297445940334

>  <m_score__min__rmsd>  (1) 
3.1009297445940334

>  <meeko>  (1) 
{"free_energy": -7.28, "intermolecular_energy": -8.77, "internal_energy": -1.84, "cluster_size": 20, "cluster_id": 2, "rank_in_cluster": 19}

>  <energy>  (1) 
-8.15

>  <cluster_rmsd>  (1) 
0.0

>  <cluster>  (1) 
1

$$$$

     RDKit          3D

 48 51  0  0  0  0  0  0  0  0999 V2000
  139.8700   71.4720  220.9930 O   0  0  0  0  0  0  0  0  0  0  0  0
  139.7620   71.9890  222.1460 C   0  0  0  0  0  0  0  0  0  0  0  0
  139.6600   73.3980  222.2930 N   0  0  0  0  0  0  0  0  0  0  0  0
  139.6750   74.2790  221.1410 C   0  0  0  0  0  0  0  0  0  0  0  0
  140.0390   75.6690  221.5210 C   0  0  0  0  0  0  0  0  0  0  0  0
  139.8990   76.0310  222.7180 O   0  0  0  0  0  0  0  0  0  0  0  0
  140.5330   76.5240  220.4960 N   0  0  0  0  0  0  0  0  0  0  0  0
  139.9190   76.5750  219.1640 C   0  0  0  0  0  0  0  0  0  0  0  0
  139.7180   78.0160  218.8310 C   0  0  0  0  0  0  0  0  0  0  0  0
  141.0600   78.7130  218.7680 C   0  0  0  0  0  0  0  0  0  0  0  0
  142.1480   77.9750  219.5110 C   0  0  0  0  0  0  0  0  0  0  0  0
  141.6650   77.3500  220.7990 C   0  0  1  0  0  0  0  0  0  0  0  0
  141.4240   78.4090  221.7900 C   0  0  0  0  0  0  0  0  0  0  0  0
  142.3820   79.1900  222.4290 C   0  0  0  0  0  0  0  0  0  0  0  0
  141.7570   80.0310  223.2510 N   0  0  0  0  0  0  0  0  0  0  0  0
  140.4410   79.7810  223.1290 C   0  0  0  0  0  0  0  0  0  0  0  0
  140.2170   78.7960  222.2420 N   0  0  0  0  0  0  0  0  0  0  0  0
  139.7430   71.1240  223.3250 C   0  0  0  0  0  0  0  0  0  0  0  0
  139.2560   69.8440  223.2350 C   0  0  0  0  0  0  0  0  0  0  0  0
  139.2720   69.0880  224.3980 C   0  0  0  0  0  0  0  0  0  0  0  0
  139.7500   69.5770  225.5960 C   0  0  0  0  0  0  0  0  0  0  0  0
  139.7820   68.8600  226.7610 C   0  0  0  0  0  0  0  0  0  0  0  0
  140.2810   69.4310  227.9250 C   0  0  0  0  0  0  0  0  0  0  0  0
  140.3300   68.7610  229.0930 F   0  0  0  0  0  0  0  0  0  0  0  0
  140.7510   70.7280  227.9200 C   0  0  0  0  0  0  0  0  0  0  0  0
  140.7300   71.4680  226.7620 C   0  0  0  0  0  0  0  0  0  0  0  0
  140.2320   70.8830  225.6250 C   0  0  0  0  0  0  0  0  0  0  0  0
  140.2070   71.5900  224.4990 N   0  0  0  0  0  0  0  0  0  0  0  0
  139.5710   73.7660  223.2850 H   0  0  0  0  0  0  0  0  0  0  0  0
  140.4099   73.9035  220.4138 H   0  0  0  0  0  0  0  0  0  0  0  0
  138.6648   74.2942  220.7059 H   0  0  0  0  0  0  0  0  0  0  0  0
  140.5832   76.1053  218.4236 H   0  0  0  0  0  0  0  0  0  0  0  0
  138.9624   76.0321  219.1517 H   0  0  0  0  0  0  0  0  0  0  0  0
  139.2154   78.1001  217.8561 H   0  0  0  0  0  0  0  0  0  0  0  0
  139.0968   78.4876  219.6066 H   0  0  0  0  0  0  0  0  0  0  0  0
  141.3573   78.8048  217.7129 H   0  0  0  0  0  0  0  0  0  0  0  0
  140.9420   79.6945  219.2504 H   0  0  0  0  0  0  0  0  0  0  0  0
  142.5387   77.1789  218.8602 H   0  0  0  0  0  0  0  0  0  0  0  0
  142.9237   78.7097  219.7728 H   0  0  0  0  0  0  0  0  0  0  0  0
  142.4147   76.6902  221.2600 H   0  0  0  0  0  0  0  0  0  0  0  0
  143.4699   79.1240  222.2805 H   0  0  0  0  0  0  0  0  0  0  0  0
  142.2090   80.7560  223.8800 H   0  0  0  0  0  0  0  0  0  0  0  0
  139.6523   80.3123  223.6819 H   0  0  0  0  0  0  0  0  0  0  0  0
  138.8720   69.4377  222.2876 H   0  0  0  0  0  0  0  0  0  0  0  0
  138.8883   68.0577  224.3635 H   0  0  0  0  0  0  0  0  0  0  0  0
  139.4102   67.8248  226.7760 H   0  0  0  0  0  0  0  0  0  0  0  0
  141.1442   71.1717  228.8466 H   0  0  0  0  0  0  0  0  0  0  0  0
  141.1029   72.5028  226.7470 H   0  0  0  0  0  0  0  0  0  0  0  0
  1  2  2  0
  2  3  1  0
  3  4  1  0
  4  5  1  0
  5  6  2  0
  5  7  1  0
  7  8  1  0
  8  9  1  0
  9 10  1  0
 10 11  1  0
 11 12  1  0
 12 13  1  0
 13 14  2  0
 14 15  1  0
 15 16  1  0
 16 17  2  0
  2 18  1  0
 18 19  2  0
 19 20  1  0
 20 21  2  0
 21 22  1  0
 22 23  2  0
 23 24  1  0
 23 25  1  0
 25 26  2  0
 26 27  1  0
 27 28  2  0
 12  7  1  0
 17 13  1  0
 28 18  1  0
 27 21  1  0
  3 29  1  0
  4 30  1  0
  4 31  1  0
  8 32  1  0
  8 33  1  0
  9 34  1  0
  9 35  1  0
 10 36  1  0
 10 37  1  0
 11 38  1  0
 11 39  1  0
 12 40  1  1
 14 41  1  0
 15 42  1  0
 16 43  1  0
 19 44  1  0
 20 45  1  0
 22 46  1  0
 25 47  1  0
 26 48  1  0
M  END
>  <smiles>  (2) 
O=C(NCC(=O)N1CCCC[C@H]1c1c[nH]cn1)c1ccc2cc(F)ccc2n1

>  <score_type>  (2) 
oracle

>  <origin>  (2) 
autodockgpu

>  <m_score__min__energy>  (2) 
-8.1500000000000004

>  <m_primary>  (2) 
energy

>  <rmsd>  (2) 
1.5019270816495986

>  <m_score__min__rmsd>  (2) 
1.5019270816495986

>  <meeko>  (2) 
{"free_energy": -7.1, "intermolecular_energy": -8.59, "internal_energy": -1.78, "cluster_size": 5, "cluster_id": 3, "rank_in_cluster": 5}

>  <energy>  (2) 
-8.13

>  <cluster_rmsd>  (2) 
0.1

>  <cluster>  (2) 
1

$$$$

     RDKit          3D

 48 51  0  0  0  0  0  0  0  0999 V2000
  141.2360   72.2250  221.4380 O   0  0  0  0  0  0  0  0  0  0  0  0
  140.3300   72.5130  222.2780 C   0  0  0  0  0  0  0  0  0  0  0  0
  139.5590   73.6960  222.1240 N   0  0  0  0  0  0  0  0  0  0  0  0
  139.7810   74.6010  221.0120 C   0  0  0  0  0  0  0  0  0  0  0  0
  140.9970   75.4300  221.2170 C   0  0  0  0  0  0  0  0  0  0  0  0
  142.1250   74.8710  221.2120 O   0  0  0  0  0  0  0  0  0  0  0  0
  140.8160   76.8280  221.4110 N   0  0  0  0  0  0  0  0  0  0  0  0
  140.9540   77.4530  222.7310 C   0  0  0  0  0  0  0  0  0  0  0  0
  141.8340   78.6460  222.5600 C   0  0  0  0  0  0  0  0  0  0  0  0
  141.1720   79.6350  221.6270 C   0  0  0  0  0  0  0  0  0  0  0  0
  140.1140   79.0080  220.7500 C   0  0  0  0  0  0  0  0  0  0  0  0
  140.4900   77.6270  220.2670 C   0  0  1  0  0  0  0  0  0  0  0  0
  141.5520   77.7410  219.2550 C   0  0  0  0  0  0  0  0  0  0  0  0
  141.9430   78.8920  218.5790 C   0  0  0  0  0  0  0  0  0  0  0  0
  142.9350   78.5750  217.7500 N   0  0  0  0  0  0  0  0  0  0  0  0
  143.1590   77.2570  217.9050 C   0  0  0  0  0  0  0  0  0  0  0  0
  142.3260   76.7310  218.8190 N   0  0  0  0  0  0  0  0  0  0  0  0
  140.0850   71.6190  223.4090 C   0  0  0  0  0  0  0  0  0  0  0  0
  139.2900   70.5100  223.2520 C   0  0  0  0  0  0  0  0  0  0  0  0
  139.1060   69.7120  224.3720 C   0  0  0  0  0  0  0  0  0  0  0  0
  139.6830   69.9990  225.5920 C   0  0  0  0  0  0  0  0  0  0  0  0
  139.5230   69.2360  226.7160 C   0  0  0  0  0  0  0  0  0  0  0  0
  140.1400   69.5980  227.9070 C   0  0  0  0  0  0  0  0  0  0  0  0
  140.0100   68.8750  229.0360 F   0  0  0  0  0  0  0  0  0  0  0  0
  140.9230   70.7330  227.9690 C   0  0  0  0  0  0  0  0  0  0  0  0
  141.0990   71.5160  226.8540 C   0  0  0  0  0  0  0  0  0  0  0  0
  140.4780   71.1380  225.6890 C   0  0  0  0  0  0  0  0  0  0  0  0
  140.6410   71.8880  224.6040 N   0  0  0  0  0  0  0  0  0  0  0  0
  138.8170   73.8780  222.8620 H   0  0  0  0  0  0  0  0  0  0  0  0
  139.9014   74.0121  220.0908 H   0  0  0  0  0  0  0  0  0  0  0  0
  138.9140   75.2738  220.9371 H   0  0  0  0  0  0  0  0  0  0  0  0
  139.9677   77.7621  223.1074 H   0  0  0  0  0  0  0  0  0  0  0  0
  141.3863   76.7474  223.4557 H   0  0  0  0  0  0  0  0  0  0  0  0
  142.0012   79.1208  223.5381 H   0  0  0  0  0  0  0  0  0  0  0  0
  142.7980   78.3309  222.1341 H   0  0  0  0  0  0  0  0  0  0  0  0
  140.7023   80.4253  222.2310 H   0  0  0  0  0  0  0  0  0  0  0  0
  141.9539   80.0326  220.9632 H   0  0  0  0  0  0  0  0  0  0  0  0
  139.1794   78.9356  221.3255 H   0  0  0  0  0  0  0  0  0  0  0  0
  140.0011   79.6476  219.8622 H   0  0  0  0  0  0  0  0  0  0  0  0
  139.6613   77.1133  219.7578 H   0  0  0  0  0  0  0  0  0  0  0  0
  141.5067   79.8936  218.7075 H   0  0  0  0  0  0  0  0  0  0  0  0
  143.4490   79.2320  217.0950 H   0  0  0  0  0  0  0  0  0  0  0  0
  143.9226   76.6861  217.3564 H   0  0  0  0  0  0  0  0  0  0  0  0
  138.8225   70.2667  222.2865 H   0  0  0  0  0  0  0  0  0  0  0  0
  138.4752   68.8151  224.2838 H   0  0  0  0  0  0  0  0  0  0  0  0
  138.9014   68.3293  226.6766 H   0  0  0  0  0  0  0  0  0  0  0  0
  141.4085   71.0119  228.9158 H   0  0  0  0  0  0  0  0  0  0  0  0
  141.7212   72.4222  226.8934 H   0  0  0  0  0  0  0  0  0  0  0  0
  1  2  2  0
  2  3  1  0
  3  4  1  0
  4  5  1  0
  5  6  2  0
  5  7  1  0
  7  8  1  0
  8  9  1  0
  9 10  1  0
 10 11  1  0
 11 12  1  0
 12 13  1  0
 13 14  2  0
 14 15  1  0
 15 16  1  0
 16 17  2  0
  2 18  1  0
 18 19  2  0
 19 20  1  0
 20 21  2  0
 21 22  1  0
 22 23  2  0
 23 24  1  0
 23 25  1  0
 25 26  2  0
 26 27  1  0
 27 28  2  0
 12  7  1  0
 17 13  1  0
 28 18  1  0
 27 21  1  0
  3 29  1  0
  4 30  1  0
  4 31  1  0
  8 32  1  0
  8 33  1  0
  9 34  1  0
  9 35  1  0
 10 36  1  0
 10 37  1  0
 11 38  1  0
 11 39  1  0
 12 40  1  6
 14 41  1  0
 15 42  1  0
 16 43  1  0
 19 44  1  0
 20 45  1  0
 22 46  1  0
 25 47  1  0
 26 48  1  0
M  END
>  <smiles>  (3) 
O=C(NCC(=O)N1CCCC[C@H]1c1c[nH]cn1)c1ccc2cc(F)ccc2n1

>  <score_type>  (3) 
oracle

>  <origin>  (3) 
autodockgpu

>  <m_score__min__energy>  (3) 
-8.1500000000000004

>  <m_primary>  (3) 
energy

>  <rmsd>  (3) 
3.1990142091367866

>  <m_score__min__rmsd>  (3) 
3.1990142091367866

>  <meeko>  (3) 
{"free_energy": -8.15, "intermolecular_energy": -9.64, "internal_energy": -1.18, "cluster_size": 3, "cluster_id": 1, "rank_in_cluster": 1}

>  <energy>  (3) 
-7.07

>  <cluster_rmsd>  (3) 
1.88

>  <cluster>  (3) 
1

$$$$

     RDKit          3D

 48 51  0  0  0  0  0  0  0  0999 V2000
  141.0730   72.1310  221.3510 O   0  0  0  0  0  0  0  0  0  0  0  0
  140.2770   72.4160  222.2970 C   0  0  0  0  0  0  0  0  0  0  0  0
  139.5140   73.6140  222.2570 N   0  0  0  0  0  0  0  0  0  0  0  0
  139.6220   74.5380  221.1440 C   0  0  0  0  0  0  0  0  0  0  0  0
  140.9130   75.2740  221.1690 C   0  0  0  0  0  0  0  0  0  0  0  0
  141.4050   75.6070  222.2780 O   0  0  0  0  0  0  0  0  0  0  0  0
  141.5280   75.5650  219.9190 N   0  0  0  0  0  0  0  0  0  0  0  0
  141.4480   76.8950  219.3050 C   0  0  0  0  0  0  0  0  0  0  0  0
  142.8330   77.2710  218.8940 C   0  0  0  0  0  0  0  0  0  0  0  0
  143.3370   76.2930  217.8560 C   0  0  0  0  0  0  0  0  0  0  0  0
  142.5920   74.9790  217.8680 C   0  0  0  0  0  0  0  0  0  0  0  0
  142.2420   74.5110  219.2610 C   0  0  1  0  0  0  0  0  0  0  0  0
  143.4650   74.0580  219.9410 C   0  0  0  0  0  0  0  0  0  0  0  0
  143.8080   72.7490  220.2630 C   0  0  0  0  0  0  0  0  0  0  0  0
  144.9920   72.7630  220.8720 N   0  0  0  0  0  0  0  0  0  0  0  0
  145.3800   74.0500  220.9290 C   0  0  0  0  0  0  0  0  0  0  0  0
  144.4630   74.8550  220.3660 N   0  0  0  0  0  0  0  0  0  0  0  0
  140.1480   71.5010  223.4310 C   0  0  0  0  0  0  0  0  0  0  0  0
  139.5590   70.2730  223.2640 C   0  0  0  0  0  0  0  0  0  0  0  0
  139.4750   69.4640  224.3880 C   0  0  0  0  0  0  0  0  0  0  0  0
  139.9540   69.8540  225.6220 C   0  0  0  0  0  0  0  0  0  0  0  0
  139.8880   69.0830  226.7500 C   0  0  0  0  0  0  0  0  0  0  0  0
  140.3950   69.5540  227.9550 C   0  0  0  0  0  0  0  0  0  0  0  0
  140.3510   68.8290  229.0890 F   0  0  0  0  0  0  0  0  0  0  0  0
  140.9720   70.8060  228.0270 C   0  0  0  0  0  0  0  0  0  0  0  0
  141.0490   71.5990  226.9080 C   0  0  0  0  0  0  0  0  0  0  0  0
  140.5410   71.1120  225.7290 C   0  0  0  0  0  0  0  0  0  0  0  0
  140.6110   71.8700  224.6390 N   0  0  0  0  0  0  0  0  0  0  0  0
  138.8670   73.7910  223.0800 H   0  0  0  0  0  0  0  0  0  0  0  0
  139.5509   73.9733  220.2027 H   0  0  0  0  0  0  0  0  0  0  0  0
  138.8057   75.2710  221.2241 H   0  0  0  0  0  0  0  0  0  0  0  0
  140.7879   76.8658  218.4255 H   0  0  0  0  0  0  0  0  0  0  0  0
  141.0359   77.6295  220.0126 H   0  0  0  0  0  0  0  0  0  0  0  0
  142.8260   78.2853  218.4685 H   0  0  0  0  0  0  0  0  0  0  0  0
  143.4946   77.2449  219.7724 H   0  0  0  0  0  0  0  0  0  0  0  0
  143.2252   76.7496  216.8615 H   0  0  0  0  0  0  0  0  0  0  0  0
  144.3887   76.0756  218.0939 H   0  0  0  0  0  0  0  0  0  0  0  0
  141.6611   75.0987  217.2943 H   0  0  0  0  0  0  0  0  0  0  0  0
  143.2542   74.2215  217.4233 H   0  0  0  0  0  0  0  0  0  0  0  0
  141.5730   73.6379  219.2618 H   0  0  0  0  0  0  0  0  0  0  0  0
  143.2040   71.8545  220.0507 H   0  0  0  0  0  0  0  0  0  0  0  0
  145.5250   71.9230  221.2400 H   0  0  0  0  0  0  0  0  0  0  0  0
  146.3227   74.3972  221.3770 H   0  0  0  0  0  0  0  0  0  0  0  0
  139.1726   69.9462  222.2874 H   0  0  0  0  0  0  0  0  0  0  0  0
  139.0082   68.4726  224.2917 H   0  0  0  0  0  0  0  0  0  0  0  0
  139.4306   68.0837  226.7029 H   0  0  0  0  0  0  0  0  0  0  0  0
  141.3719   71.1703  228.9848 H   0  0  0  0  0  0  0  0  0  0  0  0
  141.5059   72.5985  226.9553 H   0  0  0  0  0  0  0  0  0  0  0  0
  1  2  2  0
  2  3  1  0
  3  4  1  0
  4  5  1  0
  5  6  2  0
  5  7  1  0
  7  8  1  0
  8  9  1  0
  9 10  1  0
 10 11  1  0
 11 12  1  0
 12 13  1  0
 13 14  2  0
 14 15  1  0
 15 16  1  0
 16 17  2  0
  2 18  1  0
 18 19  2  0
 19 20  1  0
 20 21  2  0
 21 22  1  0
 22 23  2  0
 23 24  1  0
 23 25  1  0
 25 26  2  0
 26 27  1  0
 27 28  2  0
 12  7  1  0
 17 13  1  0
 28 18  1  0
 27 21  1  0
  3 29  1  0
  4 30  1  0
  4 31  1  0
  8 32  1  0
  8 33  1  0
  9 34  1  0
  9 35  1  0
 10 36  1  0
 10 37  1  0
 11 38  1  0
 11 39  1  0
 12 40  1  6
 14 41  1  0
 15 42  1  0
 16 43  1  0
 19 44  1  0
 20 45  1  0
 22 46  1  0
 25 47  1  0
 26 48  1  0
M  END
>  <smiles>  (4) 
O=C(NCC(=O)N1CCCC[C@H]1c1c[nH]cn1)c1ccc2cc(F)ccc2n1

>  <score_type>  (4) 
oracle

>  <origin>  (4) 
autodockgpu

>  <m_score__min__energy>  (4) 
-8.1500000000000004

>  <m_primary>  (4) 
energy

>  <rmsd>  (4) 
2.716437502905427

>  <m_score__min__rmsd>  (4) 
2.716437502905427

>  <meeko>  (4) 
{"free_energy": -8.1, "intermolecular_energy": -9.59, "internal_energy": -1.58, "cluster_size": 20, "cluster_id": 2, "rank_in_cluster": 4}

>  <energy>  (4) 
-8.13

>  <cluster_rmsd>  (4) 
0.0

>  <cluster>  (4) 
2

$$$$

     RDKit          3D

 48 51  0  0  0  0  0  0  0  0999 V2000
  138.6100   74.8870  222.3090 O   0  0  0  0  0  0  0  0  0  0  0  0
  139.6430   75.3450  221.7320 C   0  0  0  0  0  0  0  0  0  0  0  0
  139.7170   76.7200  221.3800 N   0  0  0  0  0  0  0  0  0  0  0  0
  138.6260   77.6310  221.6670 C   0  0  0  0  0  0  0  0  0  0  0  0
  139.0140   79.0430  221.4160 C   0  0  0  0  0  0  0  0  0  0  0  0
  138.2810   79.7570  220.6830 O   0  0  0  0  0  0  0  0  0  0  0  0
  140.2100   79.5160  222.0250 N   0  0  0  0  0  0  0  0  0  0  0  0
  140.5530   79.1950  223.4150 C   0  0  0  0  0  0  0  0  0  0  0  0
  141.9700   78.7250  223.4190 C   0  0  0  0  0  0  0  0  0  0  0  0
  142.8750   79.8410  222.9470 C   0  0  0  0  0  0  0  0  0  0  0  0
  142.1480   80.8990  222.1500 C   0  0  0  0  0  0  0  0  0  0  0  0
  141.0900   80.3260  221.2360 C   0  0  1  0  0  0  0  0  0  0  0  0
  141.7430   79.6370  220.1120 C   0  0  0  0  0  0  0  0  0  0  0  0
  142.3380   80.2270  219.0020 C   0  0  0  0  0  0  0  0  0  0  0  0
  142.8130   79.2610  218.2180 N   0  0  0  0  0  0  0  0  0  0  0  0
  142.5200   78.0960  218.8230 C   0  0  0  0  0  0  0  0  0  0  0  0
  141.8680   78.3040  219.9800 N   0  0  0  0  0  0  0  0  0  0  0  0
  140.7570   74.4480  221.4310 C   0  0  0  0  0  0  0  0  0  0  0  0
  140.6000   73.0890  221.5420 C   0  0  0  0  0  0  0  0  0  0  0  0
  141.7050   72.3060  221.2380 C   0  0  0  0  0  0  0  0  0  0  0  0
  142.9120   72.8460  220.8440 C   0  0  0  0  0  0  0  0  0  0  0  0
  144.0200   72.1050  220.5380 C   0  0  0  0  0  0  0  0  0  0  0  0
  145.1990   72.7300  220.1490 C   0  0  0  0  0  0  0  0  0  0  0  0
  146.3130   72.0400  219.8380 F   0  0  0  0  0  0  0  0  0  0  0  0
  145.2640   74.1060  220.0660 C   0  0  0  0  0  0  0  0  0  0  0  0
  144.1630   74.8710  220.3680 C   0  0  0  0  0  0  0  0  0  0  0  0
  143.0100   74.2320  220.7510 C   0  0  0  0  0  0  0  0  0  0  0  0
  141.9400   74.9620  221.0450 N   0  0  0  0  0  0  0  0  0  0  0  0
  140.6100   77.0380  220.9000 H   0  0  0  0  0  0  0  0  0  0  0  0
  137.7697   77.3763  221.0252 H   0  0  0  0  0  0  0  0  0  0  0  0
  138.3630   77.5296  222.7303 H   0  0  0  0  0  0  0  0  0  0  0  0
  140.4505   80.0905  224.0456 H   0  0  0  0  0  0  0  0  0  0  0  0
  139.8821   78.4207  223.8155 H   0  0  0  0  0  0  0  0  0  0  0  0
  142.2549   78.4292  224.4395 H   0  0  0  0  0  0  0  0  0  0  0  0
  142.0710   77.8621  222.7443 H   0  0  0  0  0  0  0  0  0  0  0  0
  143.3307   80.3178  223.8274 H   0  0  0  0  0  0  0  0  0  0  0  0
  143.6293   79.3923  222.2838 H   0  0  0  0  0  0  0  0  0  0  0  0
  141.6656   81.5963  222.8508 H   0  0  0  0  0  0  0  0  0  0  0  0
  142.8924   81.4034  221.5164 H   0  0  0  0  0  0  0  0  0  0  0  0
  140.4623   81.1012  220.7722 H   0  0  0  0  0  0  0  0  0  0  0  0
  142.4048   81.3072  218.8052 H   0  0  0  0  0  0  0  0  0  0  0  0
  143.3210   79.3860  217.2950 H   0  0  0  0  0  0  0  0  0  0  0  0
  142.7795   77.1044  218.4239 H   0  0  0  0  0  0  0  0  0  0  0  0
  139.6453   72.6423  221.8565 H   0  0  0  0  0  0  0  0  0  0  0  0
  141.6149   71.2123  221.3142 H   0  0  0  0  0  0  0  0  0  0  0  0
  143.9779   71.0076  220.6001 H   0  0  0  0  0  0  0  0  0  0  0  0
  146.2009   74.5925  219.7568 H   0  0  0  0  0  0  0  0  0  0  0  0
  144.2046   75.9684  220.3044 H   0  0  0  0  0  0  0  0  0  0  0  0
  1  2  2  0
  2  3  1  0
  3  4  1  0
  4  5  1  0
  5  6  2  0
  5  7  1  0
  7  8  1  0
  8  9  1  0
  9 10  1  0
 10 11  1  0
 11 12  1  0
 12 13  1  0
 13 14  2  0
 14 15  1  0
 15 16  1  0
 16 17  2  0
  2 18  1  0
 18 19  2  0
 19 20  1  0
 20 21  2  0
 21 22  1  0
 22 23  2  0
 23 24  1  0
 23 25  1  0
 25 26  2  0
 26 27  1  0
 27 28  2  0
 12  7  1  0
 17 13  1  0
 28 18  1  0
 27 21  1  0
  3 29  1  0
  4 30  1  0
  4 31  1  0
  8 32  1  0
  8 33  1  0
  9 34  1  0
  9 35  1  0
 10 36  1  0
 10 37  1  0
 11 38  1  0
 11 39  1  0
 12 40  1  6
 14 41  1  0
 15 42  1  0
 16 43  1  0
 19 44  1  0
 20 45  1  0
 22 46  1  0
 25 47  1  0
 26 48  1  0
M  END
>  <smiles>  (5) 
O=C(NCC(=O)N1CCCC[C@H]1c1c[nH]cn1)c1ccc2cc(F)ccc2n1

>  <score_type>  (5) 
oracle

>  <origin>  (5) 
autodockgpu

>  <m_score__min__energy>  (5) 
-8.1500000000000004

>  <m_primary>  (5) 
energy

>  <rmsd>  (5) 
6.338781497400276

>  <m_score__min__rmsd>  (5) 
6.338781497400276

>  <meeko>  (5) 
{"free_energy": -6.57, "intermolecular_energy": -8.06, "internal_energy": -2.85, "cluster_size": 22, "cluster_id": 4, "rank_in_cluster": 20}

>  <energy>  (5) 
-8.11

>  <cluster_rmsd>  (5) 
0.15

>  <cluster>  (5) 
2

$$$$

     RDKit          3D

 48 51  0  0  0  0  0  0  0  0999 V2000
  141.1380   72.1910  221.3980 O   0  0  0  0  0  0  0  0  0  0  0  0
  140.3080   72.5050  222.3050 C   0  0  0  0  0  0  0  0  0  0  0  0
  139.5820   73.7230  222.2210 N   0  0  0  0  0  0  0  0  0  0  0  0
  139.7640   74.6340  221.1090 C   0  0  0  0  0  0  0  0  0  0  0  0
  140.9870   75.4620  221.2750 C   0  0  0  0  0  0  0  0  0  0  0  0
  142.1120   74.8960  221.2710 O   0  0  0  0  0  0  0  0  0  0  0  0
  140.8160   76.8650  221.4330 N   0  0  0  0  0  0  0  0  0  0  0  0
  140.9390   77.5210  222.7400 C   0  0  0  0  0  0  0  0  0  0  0  0
  141.8340   78.7010  222.5540 C   0  0  0  0  0  0  0  0  0  0  0  0
  141.1950   79.6740  221.5880 C   0  0  0  0  0  0  0  0  0  0  0  0
  140.1460   79.0360  220.7090 C   0  0  0  0  0  0  0  0  0  0  0  0
  140.5170   77.6400  220.2650 C   0  0  1  0  0  0  0  0  0  0  0  0
  141.5960   77.7200  219.2680 C   0  0  0  0  0  0  0  0  0  0  0  0
  141.9320   78.8200  218.4860 C   0  0  0  0  0  0  0  0  0  0  0  0
  142.9630   78.4860  217.7140 N   0  0  0  0  0  0  0  0  0  0  0  0
  143.2640   77.2070  218.0060 C   0  0  0  0  0  0  0  0  0  0  0  0
  142.4420   76.7230  218.9520 N   0  0  0  0  0  0  0  0  0  0  0  0
  140.1050   71.6040  223.4380 C   0  0  0  0  0  0  0  0  0  0  0  0
  139.3880   70.4430  223.2780 C   0  0  0  0  0  0  0  0  0  0  0  0
  139.2400   69.6430  224.4020 C   0  0  0  0  0  0  0  0  0  0  0  0
  139.7770   69.9760  225.6280 C   0  0  0  0  0  0  0  0  0  0  0  0
  139.6500   69.2110  226.7550 C   0  0  0  0  0  0  0  0  0  0  0  0
  140.2230   69.6210  227.9520 C   0  0  0  0  0  0  0  0  0  0  0  0
  140.1230   68.8990  229.0850 F   0  0  0  0  0  0  0  0  0  0  0  0
  140.9280   70.8060  228.0180 C   0  0  0  0  0  0  0  0  0  0  0  0
  141.0690   71.5920  226.8990 C   0  0  0  0  0  0  0  0  0  0  0  0
  140.4930   71.1660  225.7280 C   0  0  0  0  0  0  0  0  0  0  0  0
  140.6240   71.9170  224.6400 N   0  0  0  0  0  0  0  0  0  0  0  0
  138.9030   73.9240  223.0140 H   0  0  0  0  0  0  0  0  0  0  0  0
  139.8509   74.0509  220.1803 H   0  0  0  0  0  0  0  0  0  0  0  0
  138.8951   75.3074  221.0700 H   0  0  0  0  0  0  0  0  0  0  0  0
  139.9500   77.8490  223.0926 H   0  0  0  0  0  0  0  0  0  0  0  0
  141.3522   76.8293  223.4889 H   0  0  0  0  0  0  0  0  0  0  0  0
  141.9919   79.1972  223.5229 H   0  0  0  0  0  0  0  0  0  0  0  0
  142.8010   78.3665  222.1502 H   0  0  0  0  0  0  0  0  0  0  0  0
  140.7226   80.4817  222.1663 H   0  0  0  0  0  0  0  0  0  0  0  0
  141.9906   80.0498  220.9279 H   0  0  0  0  0  0  0  0  0  0  0  0
  139.2015   78.9858  221.2705 H   0  0  0  0  0  0  0  0  0  0  0  0
  140.0537   79.6552  219.8046 H   0  0  0  0  0  0  0  0  0  0  0  0
  139.6920   77.1218  219.7543 H   0  0  0  0  0  0  0  0  0  0  0  0
  141.4309   79.7991  218.5028 H   0  0  0  0  0  0  0  0  0  0  0  0
  143.4520   79.1060  217.0050 H   0  0  0  0  0  0  0  0  0  0  0  0
  144.0752   76.6342  217.5329 H   0  0  0  0  0  0  0  0  0  0  0  0
  138.9531   70.1618  222.3075 H   0  0  0  0  0  0  0  0  0  0  0  0
  138.6716   68.7056  224.3117 H   0  0  0  0  0  0  0  0  0  0  0  0
  139.0904   68.2649  226.7130 H   0  0  0  0  0  0  0  0  0  0  0  0
  141.3789   71.1227  228.9701 H   0  0  0  0  0  0  0  0  0  0  0  0
  141.6289   72.5379  226.9409 H   0  0  0  0  0  0  0  0  0  0  0  0
  1  2  2  0
  2  3  1  0
  3  4  1  0
  4  5  1  0
  5  6  2  0
  5  7  1  0
  7  8  1  0
  8  9  1  0
  9 10  1  0
 10 11  1  0
 11 12  1  0
 12 13  1  0
 13 14  2  0
 14 15  1  0
 15 16  1  0
 16 17  2  0
  2 18  1  0
 18 19  2  0
 19 20  1  0
 20 21  2  0
 21 22  1  0
 22 23  2  0
 23 24  1  0
 23 25  1  0
 25 26  2  0
 26 27  1  0
 27 28  2  0
 12  7  1  0
 17 13  1  0
 28 18  1  0
 27 21  1  0
  3 29  1  0
  4 30  1  0
  4 31  1  0
  8 32  1  0
  8 33  1  0
  9 34  1  0
  9 35  1  0
 10 36  1  0
 10 37  1  0
 11 38  1  0
 11 39  1  0
 12 40  1  6
 14 41  1  0
 15 42  1  0
 16 43  1  0
 19 44  1  0
 20 45  1  0
 22 46  1  0
 25 47  1  0
 26 48  1  0
M  END
>  <smiles>  (6) 
O=C(NCC(=O)N1CCCC[C@H]1c1c[nH]cn1)c1ccc2cc(F)ccc2n1

>  <score_type>  (6) 
oracle

>  <origin>  (6) 
autodockgpu

>  <m_score__min__energy>  (6) 
-8.1500000000000004

>  <m_primary>  (6) 
energy

>  <rmsd>  (6) 
3.190948063436703

>  <m_score__min__rmsd>  (6) 
3.190948063436703

>  <meeko>  (6) 
{"free_energy": -8.13, "intermolecular_energy": -9.62, "internal_energy": -1.21, "cluster_size": 3, "cluster_id": 1, "rank_in_cluster": 2}

>  <energy>  (6) 
-8.1

>  <cluster_rmsd>  (6) 
0.14

>  <cluster>  (6) 
2

$$$$

     RDKit          3D

 48 51  0  0  0  0  0  0  0  0999 V2000
  140.1380   73.9120  221.9600 O   0  0  0  0  0  0  0  0  0  0  0  0
  141.0820   74.6710  221.5830 C   0  0  0  0  0  0  0  0  0  0  0  0
  140.9900   76.0760  221.7690 N   0  0  0  0  0  0  0  0  0  0  0  0
  139.8270   76.6790  222.3910 C   0  0  0  0  0  0  0  0  0  0  0  0
  139.5500   78.0300  221.8360 C   0  0  0  0  0  0  0  0  0  0  0  0
  138.5320   78.1980  221.1160 O   0  0  0  0  0  0  0  0  0  0  0  0
  140.4660   79.0720  222.1540 N   0  0  0  0  0  0  0  0  0  0  0  0
  141.0330   79.2250  223.4980 C   0  0  0  0  0  0  0  0  0  0  0  0
  142.5070   79.3950  223.3340 C   0  0  0  0  0  0  0  0  0  0  0  0
  142.7860   80.6580  222.5490 C   0  0  0  0  0  0  0  0  0  0  0  0
  141.6040   81.1250  221.7340 C   0  0  0  0  0  0  0  0  0  0  0  0
  140.8290   79.9860  221.1110 C   0  0  1  0  0  0  0  0  0  0  0  0
  141.6180   79.4080  220.0130 C   0  0  0  0  0  0  0  0  0  0  0  0
  142.2390   80.0970  218.9760 C   0  0  0  0  0  0  0  0  0  0  0  0
  142.8500   79.2110  218.1910 N   0  0  0  0  0  0  0  0  0  0  0  0
  142.6160   77.9990  218.7250 C   0  0  0  0  0  0  0  0  0  0  0  0
  141.8680   78.0970  219.8370 N   0  0  0  0  0  0  0  0  0  0  0  0
  142.2670   74.0890  220.9540 C   0  0  0  0  0  0  0  0  0  0  0  0
  143.2670   74.9020  220.4810 C   0  0  0  0  0  0  0  0  0  0  0  0
  144.3580   74.2740  219.8970 C   0  0  0  0  0  0  0  0  0  0  0  0
  144.4530   72.9020  219.7860 C   0  0  0  0  0  0  0  0  0  0  0  0
  145.5130   72.2490  219.2170 C   0  0  0  0  0  0  0  0  0  0  0  0
  145.5290   70.8620  219.1460 C   0  0  0  0  0  0  0  0  0  0  0  0
  146.5500   70.1800  218.5940 F   0  0  0  0  0  0  0  0  0  0  0  0
  144.4750   70.1260  219.6490 C   0  0  0  0  0  0  0  0  0  0  0  0
  143.4000   70.7590  220.2260 C   0  0  0  0  0  0  0  0  0  0  0  0
  143.4070   72.1300  220.2840 C   0  0  0  0  0  0  0  0  0  0  0  0
  142.3720   72.7520  220.8400 N   0  0  0  0  0  0  0  0  0  0  0  0
  141.8150   76.6530  221.4310 H   0  0  0  0  0  0  0  0  0  0  0  0
  138.9532   76.0344  222.2150 H   0  0  0  0  0  0  0  0  0  0  0  0
  140.0270   76.7830  223.4677 H   0  0  0  0  0  0  0  0  0  0  0  0
  140.6033   80.1097  223.9906 H   0  0  0  0  0  0  0  0  0  0  0  0
  140.8064   78.3476  224.1215 H   0  0  0  0  0  0  0  0  0  0  0  0
  142.9800   79.4671  224.3245 H   0  0  0  0  0  0  0  0  0  0  0  0
  142.9175   78.5295  222.7932 H   0  0  0  0  0  0  0  0  0  0  0  0
  143.0605   81.4553  223.2554 H   0  0  0  0  0  0  0  0  0  0  0  0
  143.6000   80.4319  221.8445 H   0  0  0  0  0  0  0  0  0  0  0  0
  140.9274   81.6916  222.3906 H   0  0  0  0  0  0  0  0  0  0  0  0
  141.9944   81.7450  220.9135 H   0  0  0  0  0  0  0  0  0  0  0  0
  139.8875   80.3141  220.6462 H   0  0  0  0  0  0  0  0  0  0  0  0
  142.2274   81.1871  218.8294 H   0  0  0  0  0  0  0  0  0  0  0  0
  143.4110   79.4210  217.3160 H   0  0  0  0  0  0  0  0  0  0  0  0
  142.9880   77.0521  218.3066 H   0  0  0  0  0  0  0  0  0  0  0  0
  143.2064   75.9974  220.5610 H   0  0  0  0  0  0  0  0  0  0  0  0
  145.1789   74.8940  219.5075 H   0  0  0  0  0  0  0  0  0  0  0  0
  146.3577   72.8265  218.8133 H   0  0  0  0  0  0  0  0  0  0  0  0
  144.4955   69.0279  219.5878 H   0  0  0  0  0  0  0  0  0  0  0  0
  142.5558   70.1815  220.6308 H   0  0  0  0  0  0  0  0  0  0  0  0
  1  2  2  0
  2  3  1  0
  3  4  1  0
  4  5  1  0
  5  6  2  0
  5  7  1  0
  7  8  1  0
  8  9  1  0
  9 10  1  0
 10 11  1  0
 11 12  1  0
 12 13  1  0
 13 14  2  0
 14 15  1  0
 15 16  1  0
 16 17  2  0
  2 18  1  0
 18 19  2  0
 19 20  1  0
 20 21  2  0
 21 22  1  0
 22 23  2  0
 23 24  1  0
 23 25  1  0
 25 26  2  0
 26 27  1  0
 27 28  2  0
 12  7  1  0
 17 13  1  0
 28 18  1  0
 27 21  1  0
  3 29  1  0
  4 30  1  0
  4 31  1  0
  8 32  1  0
  8 33  1  0
  9 34  1  0
  9 35  1  0
 10 36  1  0
 10 37  1  0
 11 38  1  0
 11 39  1  0
 12 40  1  6
 14 41  1  0
 15 42  1  0
 16 43  1  0
 19 44  1  0
 20 45  1  0
 22 46  1  0
 25 47  1  0
 26 48  1  0
M  END
>  <smiles>  (7) 
O=C(NCC(=O)N1CCCC[C@H]1c1c[nH]cn1)c1ccc2cc(F)ccc2n1

>  <score_type>  (7) 
oracle

>  <origin>  (7) 
autodockgpu

>  <m_score__min__energy>  (7) 
-8.1500000000000004

>  <m_primary>  (7) 
energy

>  <rmsd>  (7) 
6.8655988125762395

>  <m_score__min__rmsd>  (7) 
6.8655988125762395

>  <meeko>  (7) 
{"free_energy": -7.36, "intermolecular_energy": -8.85, "internal_energy": -2.23, "cluster_size": 22, "cluster_id": 4, "rank_in_cluster": 2}

>  <energy>  (7) 
-8.1

>  <cluster_rmsd>  (7) 
0.04

>  <cluster>  (7) 
2

$$$$

     RDKit          3D

 48 51  0  0  0  0  0  0  0  0999 V2000
  138.6380   74.8040  222.2230 O   0  0  0  0  0  0  0  0  0  0  0  0
  139.7370   75.2820  221.8060 C   0  0  0  0  0  0  0  0  0  0  0  0
  139.9010   76.6860  221.6640 N   0  0  0  0  0  0  0  0  0  0  0  0
  138.8280   77.6060  221.9880 C   0  0  0  0  0  0  0  0  0  0  0  0
  139.1470   78.9920  221.5540 C   0  0  0  0  0  0  0  0  0  0  0  0
  138.3690   79.5750  220.7540 O   0  0  0  0  0  0  0  0  0  0  0  0
  140.3300   79.5880  222.0720 N   0  0  0  0  0  0  0  0  0  0  0  0
  140.7540   79.3900  223.4620 C   0  0  0  0  0  0  0  0  0  0  0  0
  142.2010   79.0230  223.4290 C   0  0  0  0  0  0  0  0  0  0  0  0
  143.0000   80.1640  222.8410 C   0  0  0  0  0  0  0  0  0  0  0  0
  142.1640   81.1100  222.0120 C   0  0  0  0  0  0  0  0  0  0  0  0
  141.1130   80.4020  221.1890 C   0  0  1  0  0  0  0  0  0  0  0  0
  141.7650   79.6840  220.0840 C   0  0  0  0  0  0  0  0  0  0  0  0
  142.3790   80.2460  218.9690 C   0  0  0  0  0  0  0  0  0  0  0  0
  142.8460   79.2600  218.2060 N   0  0  0  0  0  0  0  0  0  0  0  0
  142.5320   78.1090  218.8290 C   0  0  0  0  0  0  0  0  0  0  0  0
  141.8730   78.3470  219.9770 N   0  0  0  0  0  0  0  0  0  0  0  0
  140.8360   74.3770  221.4720 C   0  0  0  0  0  0  0  0  0  0  0  0
  140.6590   73.0180  221.5510 C   0  0  0  0  0  0  0  0  0  0  0  0
  141.7500   72.2270  221.2170 C   0  0  0  0  0  0  0  0  0  0  0  0
  142.9610   72.7590  220.8250 C   0  0  0  0  0  0  0  0  0  0  0  0
  144.0560   72.0100  220.4900 C   0  0  0  0  0  0  0  0  0  0  0  0
  145.2390   72.6270  220.1040 C   0  0  0  0  0  0  0  0  0  0  0  0
  146.3400   71.9290  219.7660 F   0  0  0  0  0  0  0  0  0  0  0  0
  145.3240   74.0040  220.0550 C   0  0  0  0  0  0  0  0  0  0  0  0
  144.2370   74.7770  220.3870 C   0  0  0  0  0  0  0  0  0  0  0  0
  143.0790   74.1450  220.7650 C   0  0  0  0  0  0  0  0  0  0  0  0
  142.0220   74.8830  221.0880 N   0  0  0  0  0  0  0  0  0  0  0  0
  140.8460   77.0190  221.3110 H   0  0  0  0  0  0  0  0  0  0  0  0
  137.9091   77.2757  221.4815 H   0  0  0  0  0  0  0  0  0  0  0  0
  138.6947   77.6090  223.0799 H   0  0  0  0  0  0  0  0  0  0  0  0
  140.6126   80.3177  224.0359 H   0  0  0  0  0  0  0  0  0  0  0  0
  140.1597   78.6004  223.9450 H   0  0  0  0  0  0  0  0  0  0  0  0
  142.5507   78.8201  224.4520 H   0  0  0  0  0  0  0  0  0  0  0  0
  142.3361   78.1246  222.8089 H   0  0  0  0  0  0  0  0  0  0  0  0
  143.4573   80.7317  223.6648 H   0  0  0  0  0  0  0  0  0  0  0  0
  143.7555   79.7243  222.1733 H   0  0  0  0  0  0  0  0  0  0  0  0
  141.6620   81.8181  222.6876 H   0  0  0  0  0  0  0  0  0  0  0  0
  142.8415   81.6207  221.3119 H   0  0  0  0  0  0  0  0  0  0  0  0
  140.4114   81.0973  220.7050 H   0  0  0  0  0  0  0  0  0  0  0  0
  142.4640   81.3215  218.7545 H   0  0  0  0  0  0  0  0  0  0  0  0
  143.3650   79.3610  217.2860 H   0  0  0  0  0  0  0  0  0  0  0  0
  142.7812   77.1070  218.4497 H   0  0  0  0  0  0  0  0  0  0  0  0
  139.7006   72.5777  221.8633 H   0  0  0  0  0  0  0  0  0  0  0  0
  141.6447   71.1332  221.2669 H   0  0  0  0  0  0  0  0  0  0  0  0
  143.9990   70.9121  220.5266 H   0  0  0  0  0  0  0  0  0  0  0  0
  146.2651   74.4844  219.7491 H   0  0  0  0  0  0  0  0  0  0  0  0
  144.2939   75.8749  220.3506 H   0  0  0  0  0  0  0  0  0  0  0  0
  1  2  2  0
  2  3  1  0
  3  4  1  0
  4  5  1  0
  5  6  2  0
  5  7  1  0
  7  8  1  0
  8  9  1  0
  9 10  1  0
 10 11  1  0
 11 12  1  0
 12 13  1  0
 13 14  2  0
 14 15  1  0
 15 16  1  0
 16 17  2  0
  2 18  1  0
 18 19  2  0
 19 20  1  0
 20 21  2  0
 21 22  1  0
 22 23  2  0
 23 24  1  0
 23 25  1  0
 25 26  2  0
 26 27  1  0
 27 28  2  0
 12  7  1  0
 17 13  1  0
 28 18  1  0
 27 21  1  0
  3 29  1  0
  4 30  1  0
  4 31  1  0
  8 32  1  0
  8 33  1  0
  9 34  1  0
  9 35  1  0
 10 36  1  0
 10 37  1  0
 11 38  1  0
 11 39  1  0
 12 40  1  6
 14 41  1  0
 15 42  1  0
 16 43  1  0
 19 44  1  0
 20 45  1  0
 22 46  1  0
 25 47  1  0
 26 48  1  0
M  END
>  <smiles>  (8) 
O=C(NCC(=O)N1CCCC[C@H]1c1c[nH]cn1)c1ccc2cc(F)ccc2n1

>  <score_type>  (8) 
oracle

>  <origin>  (8) 
autodockgpu

>  <m_score__min__energy>  (8) 
-8.1500000000000004

>  <m_primary>  (8) 
energy

>  <rmsd>  (8) 
6.371077989288308

>  <m_score__min__rmsd>  (8) 
6.371077989288308

>  <meeko>  (8) 
{"free_energy": -6.7, "intermolecular_energy": -8.19, "internal_energy": -2.76, "cluster_size": 22, "cluster_id": 4, "rank_in_cluster": 12}

>  <energy>  (8) 
-8.07

>  <cluster_rmsd>  (8) 
0.3

>  <cluster>  (8) 
2

$$$$

     RDKit          3D

 48 51  0  0  0  0  0  0  0  0999 V2000
  138.6700   74.7680  222.3350 O   0  0  0  0  0  0  0  0  0  0  0  0
  139.7480   75.2430  221.8650 C   0  0  0  0  0  0  0  0  0  0  0  0
  139.8920   76.6440  221.6770 N   0  0  0  0  0  0  0  0  0  0  0  0
  138.8230   77.5640  222.0150 C   0  0  0  0  0  0  0  0  0  0  0  0
  139.1280   78.9460  221.5640 C   0  0  0  0  0  0  0  0  0  0  0  0
  138.3460   79.5120  220.7560 O   0  0  0  0  0  0  0  0  0  0  0  0
  140.3040   79.5620  222.0780 N   0  0  0  0  0  0  0  0  0  0  0  0
  140.7370   79.3710  223.4670 C   0  0  0  0  0  0  0  0  0  0  0  0
  142.1890   79.0260  223.4280 C   0  0  0  0  0  0  0  0  0  0  0  0
  142.9680   80.1800  222.8370 C   0  0  0  0  0  0  0  0  0  0  0  0
  142.1140   81.1120  222.0100 C   0  0  0  0  0  0  0  0  0  0  0  0
  141.0710   80.3880  221.1920 C   0  0  1  0  0  0  0  0  0  0  0  0
  141.7300   79.6800  220.0840 C   0  0  0  0  0  0  0  0  0  0  0  0
  142.3410   80.2510  218.9720 C   0  0  0  0  0  0  0  0  0  0  0  0
  142.8160   79.2720  218.2060 N   0  0  0  0  0  0  0  0  0  0  0  0
  142.5100   78.1170  218.8240 C   0  0  0  0  0  0  0  0  0  0  0  0
  141.8480   78.3440  219.9710 N   0  0  0  0  0  0  0  0  0  0  0  0
  140.8430   74.3390  221.5150 C   0  0  0  0  0  0  0  0  0  0  0  0
  140.6630   72.9800  221.5800 C   0  0  0  0  0  0  0  0  0  0  0  0
  141.7500   72.1900  221.2320 C   0  0  0  0  0  0  0  0  0  0  0  0
  142.9600   72.7230  220.8390 C   0  0  0  0  0  0  0  0  0  0  0  0
  144.0520   71.9750  220.4900 C   0  0  0  0  0  0  0  0  0  0  0  0
  145.2340   72.5940  220.1050 C   0  0  0  0  0  0  0  0  0  0  0  0
  146.3320   71.8960  219.7530 F   0  0  0  0  0  0  0  0  0  0  0  0
  145.3220   73.9710  220.0690 C   0  0  0  0  0  0  0  0  0  0  0  0
  144.2390   74.7430  220.4150 C   0  0  0  0  0  0  0  0  0  0  0  0
  143.0810   74.1090  220.7930 C   0  0  0  0  0  0  0  0  0  0  0  0
  142.0280   74.8470  221.1290 N   0  0  0  0  0  0  0  0  0  0  0  0
  140.8200   76.9760  221.2800 H   0  0  0  0  0  0  0  0  0  0  0  0
  137.8951   77.2268  221.5299 H   0  0  0  0  0  0  0  0  0  0  0  0
  138.7123   77.5758  223.1094 H   0  0  0  0  0  0  0  0  0  0  0  0
  140.5840   80.2967  224.0411 H   0  0  0  0  0  0  0  0  0  0  0  0
  140.1567   78.5727  223.9528 H   0  0  0  0  0  0  0  0  0  0  0  0
  142.5460   78.8281  224.4495 H   0  0  0  0  0  0  0  0  0  0  0  0
  142.3354   78.1298  222.8071 H   0  0  0  0  0  0  0  0  0  0  0  0
  143.4184   80.7554  223.6592 H   0  0  0  0  0  0  0  0  0  0  0  0
  143.7287   79.7524  222.1673 H   0  0  0  0  0  0  0  0  0  0  0  0
  141.6039   81.8131  222.6869 H   0  0  0  0  0  0  0  0  0  0  0  0
  142.7810   81.6317  221.3065 H   0  0  0  0  0  0  0  0  0  0  0  0
  140.3565   81.0723  220.7112 H   0  0  0  0  0  0  0  0  0  0  0  0
  142.4182   81.3280  218.7619 H   0  0  0  0  0  0  0  0  0  0  0  0
  143.3350   79.3810  217.2870 H   0  0  0  0  0  0  0  0  0  0  0  0
  142.7677   77.1186  218.4409 H   0  0  0  0  0  0  0  0  0  0  0  0
  139.7050   72.5388  221.8923 H   0  0  0  0  0  0  0  0  0  0  0  0
  141.6422   71.0960  221.2711 H   0  0  0  0  0  0  0  0  0  0  0  0
  143.9929   70.8769  220.5147 H   0  0  0  0  0  0  0  0  0  0  0  0
  146.2624   74.4522  219.7623 H   0  0  0  0  0  0  0  0  0  0  0  0
  144.2982   75.8411  220.3898 H   0  0  0  0  0  0  0  0  0  0  0  0
  1  2  2  0
  2  3  1  0
  3  4  1  0
  4  5  1  0
  5  6  2  0
  5  7  1  0
  7  8  1  0
  8  9  1  0
  9 10  1  0
 10 11  1  0
 11 12  1  0
 12 13  1  0
 13 14  2  0
 14 15  1  0
 15 16  1  0
 16 17  2  0
  2 18  1  0
 18 19  2  0
 19 20  1  0
 20 21  2  0
 21 22  1  0
 22 23  2  0
 23 24  1  0
 23 25  1  0
 25 26  2  0
 26 27  1  0
 27 28  2  0
 12  7  1  0
 17 13  1  0
 28 18  1  0
 27 21  1  0
  3 29  1  0
  4 30  1  0
  4 31  1  0
  8 32  1  0
  8 33  1  0
  9 34  1  0
  9 35  1  0
 10 36  1  0
 10 37  1  0
 11 38  1  0
 11 39  1  0
 12 40  1  6
 14 41  1  0
 15 42  1  0
 16 43  1  0
 19 44  1  0
 20 45  1  0
 22 46  1  0
 25 47  1  0
 26 48  1  0
M  END
>  <smiles>  (9) 
O=C(NCC(=O)N1CCCC[C@H]1c1c[nH]cn1)c1ccc2cc(F)ccc2n1

>  <score_type>  (9) 
oracle

>  <origin>  (9) 
autodockgpu

>  <m_score__min__energy>  (9) 
-8.1500000000000004

>  <m_primary>  (9) 
energy

>  <rmsd>  (9) 
6.35138755635847

>  <m_score__min__rmsd>  (9) 
6.35138755635847

>  <meeko>  (9) 
{"free_energy": -6.76, "intermolecular_energy": -8.25, "internal_energy": -2.75, "cluster_size": 22, "cluster_id": 4, "rank_in_cluster": 6}

>  <energy>  (9) 
-8.06

>  <cluster_rmsd>  (9) 
1.28

>  <cluster>  (9) 
2

$$$$

     RDKit          3D

 48 51  0  0  0  0  0  0  0  0999 V2000
  140.8840   71.6610  221.2430 O   0  0  0  0  0  0  0  0  0  0  0  0
  140.1530   72.0230  222.2150 C   0  0  0  0  0  0  0  0  0  0  0  0
  139.4670   73.2660  222.1730 N   0  0  0  0  0  0  0  0  0  0  0  0
  139.5790   74.1500  221.0280 C   0  0  0  0  0  0  0  0  0  0  0  0
  140.7290   75.0800  221.1680 C   0  0  0  0  0  0  0  0  0  0  0  0
  141.0760   75.4540  222.3190 O   0  0  0  0  0  0  0  0  0  0  0  0
  141.3820   75.5030  219.9770 N   0  0  0  0  0  0  0  0  0  0  0  0
  141.2730   76.8770  219.4760 C   0  0  0  0  0  0  0  0  0  0  0  0
  142.6570   77.3390  219.1610 C   0  0  0  0  0  0  0  0  0  0  0  0
  143.2420   76.4750  218.0660 C   0  0  0  0  0  0  0  0  0  0  0  0
  142.5520   75.1380  217.9310 C   0  0  0  0  0  0  0  0  0  0  0  0
  142.1650   74.5370  219.2620 C   0  0  1  0  0  0  0  0  0  0  0  0
  143.3770   74.0720  219.9540 C   0  0  0  0  0  0  0  0  0  0  0  0
  143.6140   72.7980  220.4600 C   0  0  0  0  0  0  0  0  0  0  0  0
  144.8260   72.7850  221.0100 N   0  0  0  0  0  0  0  0  0  0  0  0
  145.3340   74.0210  220.8530 C   0  0  0  0  0  0  0  0  0  0  0  0
  144.4650   74.8210  220.2100 N   0  0  0  0  0  0  0  0  0  0  0  0
  140.0220   71.1510  223.3820 C   0  0  0  0  0  0  0  0  0  0  0  0
  139.3590   69.9530  223.2780 C   0  0  0  0  0  0  0  0  0  0  0  0
  139.2780   69.1830  224.4290 C   0  0  0  0  0  0  0  0  0  0  0  0
  139.8280   69.5820  225.6300 C   0  0  0  0  0  0  0  0  0  0  0  0
  139.7670   68.8490  226.7840 C   0  0  0  0  0  0  0  0  0  0  0  0
  140.3500   69.3260  227.9510 C   0  0  0  0  0  0  0  0  0  0  0  0
  140.3130   68.6370  229.1090 F   0  0  0  0  0  0  0  0  0  0  0  0
  140.9980   70.5440  227.9610 C   0  0  0  0  0  0  0  0  0  0  0  0
  141.0720   71.2980  226.8140 C   0  0  0  0  0  0  0  0  0  0  0  0
  140.4890   70.8070  225.6730 C   0  0  0  0  0  0  0  0  0  0  0  0
  140.5550   71.5280  224.5580 N   0  0  0  0  0  0  0  0  0  0  0  0
  138.8720   73.5070  223.0190 H   0  0  0  0  0  0  0  0  0  0  0  0
  139.7181   73.5438  220.1207 H   0  0  0  0  0  0  0  0  0  0  0  0
  138.6580   74.7478  220.9624 H   0  0  0  0  0  0  0  0  0  0  0  0
  140.6516   76.8998  218.5686 H   0  0  0  0  0  0  0  0  0  0  0  0
  140.8022   77.5311  220.2247 H   0  0  0  0  0  0  0  0  0  0  0  0
  142.6261   78.3858  218.8245 H   0  0  0  0  0  0  0  0  0  0  0  0
  143.2828   77.2609  220.0623 H   0  0  0  0  0  0  0  0  0  0  0  0
  143.1523   77.0128  217.1107 H   0  0  0  0  0  0  0  0  0  0  0  0
  144.2909   76.2765  218.3312 H   0  0  0  0  0  0  0  0  0  0  0  0
  141.6413   75.2726  217.3290 H   0  0  0  0  0  0  0  0  0  0  0  0
  143.2621   74.4478  217.4521 H   0  0  0  0  0  0  0  0  0  0  0  0
  141.5326   73.6430  219.1579 H   0  0  0  0  0  0  0  0  0  0  0  0
  142.9187   71.9469  220.4135 H   0  0  0  0  0  0  0  0  0  0  0  0
  145.2990   71.9610  221.4820 H   0  0  0  0  0  0  0  0  0  0  0  0
  146.3280   74.3353  221.2039 H   0  0  0  0  0  0  0  0  0  0  0  0
  138.9140   69.6203  222.3286 H   0  0  0  0  0  0  0  0  0  0  0  0
  138.7548   68.2165  224.3825 H   0  0  0  0  0  0  0  0  0  0  0  0
  139.2532   67.8763  226.7874 H   0  0  0  0  0  0  0  0  0  0  0  0
  141.4570   70.9130  228.8900 H   0  0  0  0  0  0  0  0  0  0  0  0
  141.5858   72.2707  226.8109 H   0  0  0  0  0  0  0  0  0  0  0  0
  1  2  2  0
  2  3  1  0
  3  4  1  0
  4  5  1  0
  5  6  2  0
  5  7  1  0
  7  8  1  0
  8  9  1  0
  9 10  1  0
 10 11  1  0
 11 12  1  0
 12 13  1  0
 13 14  2  0
 14 15  1  0
 15 16  1  0
 16 17  2  0
  2 18  1  0
 18 19  2  0
 19 20  1  0
 20 21  2  0
 21 22  1  0
 22 23  2  0
 23 24  1  0
 23 25  1  0
 25 26  2  0
 26 27  1  0
 27 28  2  0
 12  7  1  0
 17 13  1  0
 28 18  1  0
 27 21  1  0
  3 29  1  0
  4 30  1  0
  4 31  1  0
  8 32  1  0
  8 33  1  0
  9 34  1  0
  9 35  1  0
 10 36  1  0
 10 37  1  0
 11 38  1  0
 11 39  1  0
 12 40  1  6
 14 41  1  0
 15 42  1  0
 16 43  1  0
 19 44  1  0
 20 45  1  0
 22 46  1  0
 25 47  1  0
 26 48  1  0
M  END
>  <smiles>  (10) 
O=C(NCC(=O)N1CCCC[C@H]1c1c[nH]cn1)c1ccc2cc(F)ccc2n1

>  <score_type>  (10) 
oracle

>  <origin>  (10) 
autodockgpu

>  <m_score__min__energy>  (10) 
-8.1500000000000004

>  <m_primary>  (10) 
energy

>  <rmsd>  (10) 
2.645946802197314

>  <m_score__min__rmsd>  (10) 
2.645946802197314

>  <meeko>  (10) 
{"free_energy": -8.07, "intermolecular_energy": -9.56, "internal_energy": -1.52, "cluster_size": 20, "cluster_id": 2, "rank_in_cluster": 5}

>  <energy>  (10) 
-7.99

>  <cluster_rmsd>  (10) 
0.25

>  <cluster>  (10) 
2

$$$$

     RDKit          3D

 48 51  0  0  0  0  0  0  0  0999 V2000
  140.5500   71.8030  221.1180 O   0  0  0  0  0  0  0  0  0  0  0  0
  140.0980   72.2320  222.2230 C   0  0  0  0  0  0  0  0  0  0  0  0
  139.6370   73.5710  222.3370 N   0  0  0  0  0  0  0  0  0  0  0  0
  139.6670   74.4770  221.2050 C   0  0  0  0  0  0  0  0  0  0  0  0
  140.8870   75.3260  221.2180 C   0  0  0  0  0  0  0  0  0  0  0  0
  141.3150   75.7630  222.3180 O   0  0  0  0  0  0  0  0  0  0  0  0
  141.5110   75.6000  219.9690 N   0  0  0  0  0  0  0  0  0  0  0  0
  141.4700   76.9320  219.3560 C   0  0  0  0  0  0  0  0  0  0  0  0
  142.8660   77.2680  218.9460 C   0  0  0  0  0  0  0  0  0  0  0  0
  143.3410   76.2760  217.9080 C   0  0  0  0  0  0  0  0  0  0  0  0
  142.5590   74.9840  217.9180 C   0  0  0  0  0  0  0  0  0  0  0  0
  142.1950   74.5260  219.3110 C   0  0  1  0  0  0  0  0  0  0  0  0
  143.4040   74.0370  219.9910 C   0  0  0  0  0  0  0  0  0  0  0  0
  143.6240   72.7560  220.4870 C   0  0  0  0  0  0  0  0  0  0  0  0
  144.8400   72.7210  221.0290 N   0  0  0  0  0  0  0  0  0  0  0  0
  145.3660   73.9490  220.8770 C   0  0  0  0  0  0  0  0  0  0  0  0
  144.5050   74.7670  220.2450 N   0  0  0  0  0  0  0  0  0  0  0  0
  140.0560   71.3390  223.3800 C   0  0  0  0  0  0  0  0  0  0  0  0
  139.5800   70.0580  223.2470 C   0  0  0  0  0  0  0  0  0  0  0  0
  139.5730   69.2740  224.3920 C   0  0  0  0  0  0  0  0  0  0  0  0
  140.0160   69.7380  225.6130 C   0  0  0  0  0  0  0  0  0  0  0  0
  140.0230   68.9930  226.7610 C   0  0  0  0  0  0  0  0  0  0  0  0
  140.4880   69.5390  227.9510 C   0  0  0  0  0  0  0  0  0  0  0  0
  140.5130   68.8420  229.1030 F   0  0  0  0  0  0  0  0  0  0  0  0
  140.9500   70.8390  227.9890 C   0  0  0  0  0  0  0  0  0  0  0  0
  140.9520   71.6070  226.8490 C   0  0  0  0  0  0  0  0  0  0  0  0
  140.4880   71.0460  225.6850 C   0  0  0  0  0  0  0  0  0  0  0  0
  140.4860   71.7790  224.5770 N   0  0  0  0  0  0  0  0  0  0  0  0
  139.2710   73.8660  223.2890 H   0  0  0  0  0  0  0  0  0  0  0  0
  139.6512   73.8885  220.2758 H   0  0  0  0  0  0  0  0  0  0  0  0
  138.7880   75.1355  221.2670 H   0  0  0  0  0  0  0  0  0  0  0  0
  140.8099   76.9226  218.4761 H   0  0  0  0  0  0  0  0  0  0  0  0
  141.0789   77.6776  220.0639 H   0  0  0  0  0  0  0  0  0  0  0  0
  142.8889   78.2823  218.5209 H   0  0  0  0  0  0  0  0  0  0  0  0
  143.5263   77.2227  219.8246 H   0  0  0  0  0  0  0  0  0  0  0  0
  143.2429   76.7364  216.9138 H   0  0  0  0  0  0  0  0  0  0  0  0
  144.3856   76.0277  218.1471 H   0  0  0  0  0  0  0  0  0  0  0  0
  141.6324   75.1305  217.3437 H   0  0  0  0  0  0  0  0  0  0  0  0
  143.1991   74.2081  217.4729 H   0  0  0  0  0  0  0  0  0  0  0  0
  141.5008   73.6727  219.3117 H   0  0  0  0  0  0  0  0  0  0  0  0
  142.9152   71.9161  220.4396 H   0  0  0  0  0  0  0  0  0  0  0  0
  145.3030   71.8860  221.4930 H   0  0  0  0  0  0  0  0  0  0  0  0
  146.3671   74.2454  221.2233 H   0  0  0  0  0  0  0  0  0  0  0  0
  139.2221   69.6724  222.2810 H   0  0  0  0  0  0  0  0  0  0  0  0
  139.1994   68.2417  224.3231 H   0  0  0  0  0  0  0  0  0  0  0  0
  139.6582   67.9554  226.7415 H   0  0  0  0  0  0  0  0  0  0  0  0
  141.3181   71.2622  228.9353 H   0  0  0  0  0  0  0  0  0  0  0  0
  141.3161   72.6448  226.8688 H   0  0  0  0  0  0  0  0  0  0  0  0
  1  2  2  0
  2  3  1  0
  3  4  1  0
  4  5  1  0
  5  6  2  0
  5  7  1  0
  7  8  1  0
  8  9  1  0
  9 10  1  0
 10 11  1  0
 11 12  1  0
 12 13  1  0
 13 14  2  0
 14 15  1  0
 15 16  1  0
 16 17  2  0
  2 18  1  0
 18 19  2  0
 19 20  1  0
 20 21  2  0
 21 22  1  0
 22 23  2  0
 23 24  1  0
 23 25  1  0
 25 26  2  0
 26 27  1  0
 27 28  2  0
 12  7  1  0
 17 13  1  0
 28 18  1  0
 27 21  1  0
  3 29  1  0
  4 30  1  0
  4 31  1  0
  8 32  1  0
  8 33  1  0
  9 34  1  0
  9 35  1  0
 10 36  1  0
 10 37  1  0
 11 38  1  0
 11 39  1  0
 12 40  1  6
 14 41  1  0
 15 42  1  0
 16 43  1  0
 19 44  1  0
 20 45  1  0
 22 46  1  0
 25 47  1  0
 26 48  1  0
M  END
>  <smiles>  (11) 
O=C(NCC(=O)N1CCCC[C@H]1c1c[nH]cn1)c1ccc2cc(F)ccc2n1

>  <score_type>  (11) 
oracle

>  <origin>  (11) 
autodockgpu

>  <m_score__min__energy>  (11) 
-8.1500000000000004

>  <m_primary>  (11) 
energy

>  <rmsd>  (11) 
2.713830285228522

>  <m_score__min__rmsd>  (11) 
2.713830285228522

>  <meeko>  (11) 
{"free_energy": -7.95, "intermolecular_energy": -9.44, "internal_energy": -1.65, "cluster_size": 20, "cluster_id": 2, "rank_in_cluster": 8}

>  <energy>  (11) 
-7.95

>  <cluster_rmsd>  (11) 
0.22

>  <cluster>  (11) 
2

$$$$

     RDKit          3D

 48 51  0  0  0  0  0  0  0  0999 V2000
  140.3970   71.6680  221.0830 O   0  0  0  0  0  0  0  0  0  0  0  0
  140.0370   72.1290  222.2090 C   0  0  0  0  0  0  0  0  0  0  0  0
  139.6870   73.4990  222.3440 N   0  0  0  0  0  0  0  0  0  0  0  0
  139.7280   74.4030  221.2110 C   0  0  0  0  0  0  0  0  0  0  0  0
  140.9750   75.2110  221.2030 C   0  0  0  0  0  0  0  0  0  0  0  0
  141.4260   75.6490  222.2930 O   0  0  0  0  0  0  0  0  0  0  0  0
  141.5970   75.4490  219.9450 N   0  0  0  0  0  0  0  0  0  0  0  0
  141.5120   76.7490  219.2700 C   0  0  0  0  0  0  0  0  0  0  0  0
  142.8970   77.1150  218.8520 C   0  0  0  0  0  0  0  0  0  0  0  0
  143.4140   76.0940  217.8630 C   0  0  0  0  0  0  0  0  0  0  0  0
  142.6790   74.7760  217.9300 C   0  0  0  0  0  0  0  0  0  0  0  0
  142.3230   74.3700  219.3410 C   0  0  1  0  0  0  0  0  0  0  0  0
  143.5440   73.9580  220.0500 C   0  0  0  0  0  0  0  0  0  0  0  0
  143.8380   72.6910  220.5420 C   0  0  0  0  0  0  0  0  0  0  0  0
  145.0380   72.7320  221.1160 N   0  0  0  0  0  0  0  0  0  0  0  0
  145.4840   73.9950  220.9860 C   0  0  0  0  0  0  0  0  0  0  0  0
  144.5870   74.7580  220.3380 N   0  0  0  0  0  0  0  0  0  0  0  0
  139.9870   71.2400  223.3690 C   0  0  0  0  0  0  0  0  0  0  0  0
  139.5340   69.9510  223.2320 C   0  0  0  0  0  0  0  0  0  0  0  0
  139.5160   69.1710  224.3790 C   0  0  0  0  0  0  0  0  0  0  0  0
  139.9280   69.6460  225.6070 C   0  0  0  0  0  0  0  0  0  0  0  0
  139.9250   68.9060  226.7580 C   0  0  0  0  0  0  0  0  0  0  0  0
  140.3580   69.4630  227.9550 C   0  0  0  0  0  0  0  0  0  0  0  0
  140.3710   68.7710  229.1100 F   0  0  0  0  0  0  0  0  0  0  0  0
  140.7970   70.7710  227.9960 C   0  0  0  0  0  0  0  0  0  0  0  0
  140.8100   71.5340  226.8540 C   0  0  0  0  0  0  0  0  0  0  0  0
  140.3780   70.9620  225.6830 C   0  0  0  0  0  0  0  0  0  0  0  0
  140.3860   71.6910  224.5720 N   0  0  0  0  0  0  0  0  0  0  0  0
  139.3940   73.8190  223.3140 H   0  0  0  0  0  0  0  0  0  0  0  0
  139.6773   73.8150  220.2827 H   0  0  0  0  0  0  0  0  0  0  0  0
  138.8724   75.0901  221.2870 H   0  0  0  0  0  0  0  0  0  0  0  0
  140.8585   76.6748  218.3883 H   0  0  0  0  0  0  0  0  0  0  0  0
  141.0895   77.5123  219.9400 H   0  0  0  0  0  0  0  0  0  0  0  0
  142.8868   78.1089  218.3808 H   0  0  0  0  0  0  0  0  0  0  0  0
  143.5527   77.1334  219.7350 H   0  0  0  0  0  0  0  0  0  0  0  0
  143.3051   76.5039  216.8481 H   0  0  0  0  0  0  0  0  0  0  0  0
  144.4656   75.8954  218.1175 H   0  0  0  0  0  0  0  0  0  0  0  0
  141.7513   74.8618  217.3452 H   0  0  0  0  0  0  0  0  0  0  0  0
  143.3497   74.0041  217.5247 H   0  0  0  0  0  0  0  0  0  0  0  0
  141.6606   73.4926  219.3773 H   0  0  0  0  0  0  0  0  0  0  0  0
  143.1892   71.8057  220.4692 H   0  0  0  0  0  0  0  0  0  0  0  0
  145.5450   71.9260  221.5850 H   0  0  0  0  0  0  0  0  0  0  0  0
  146.4537   74.3551  221.3603 H   0  0  0  0  0  0  0  0  0  0  0  0
  139.2017   69.5563  222.2605 H   0  0  0  0  0  0  0  0  0  0  0  0
  139.1592   68.1330  224.3066 H   0  0  0  0  0  0  0  0  0  0  0  0
  139.5773   67.8626  226.7355 H   0  0  0  0  0  0  0  0  0  0  0  0
  141.1380   71.2044  228.9478 H   0  0  0  0  0  0  0  0  0  0  0  0
  141.1578   72.5773  226.8770 H   0  0  0  0  0  0  0  0  0  0  0  0
  1  2  2  0
  2  3  1  0
  3  4  1  0
  4  5  1  0
  5  6  2  0
  5  7  1  0
  7  8  1  0
  8  9  1  0
  9 10  1  0
 10 11  1  0
 11 12  1  0
 12 13  1  0
 13 14  2  0
 14 15  1  0
 15 16  1  0
 16 17  2  0
  2 18  1  0
 18 19  2  0
 19 20  1  0
 20 21  2  0
 21 22  1  0
 22 23  2  0
 23 24  1  0
 23 25  1  0
 25 26  2  0
 26 27  1  0
 27 28  2  0
 12  7  1  0
 17 13  1  0
 28 18  1  0
 27 21  1  0
  3 29  1  0
  4 30  1  0
  4 31  1  0
  8 32  1  0
  8 33  1  0
  9 34  1  0
  9 35  1  0
 10 36  1  0
 10 37  1  0
 11 38  1  0
 11 39  1  0
 12 40  1  6
 14 41  1  0
 15 42  1  0
 16 43  1  0
 19 44  1  0
 20 45  1  0
 22 46  1  0
 25 47  1  0
 26 48  1  0
M  END
>  <smiles>  (12) 
O=C(NCC(=O)N1CCCC[C@H]1c1c[nH]cn1)c1ccc2cc(F)ccc2n1

>  <score_type>  (12) 
oracle

>  <origin>  (12) 
autodockgpu

>  <m_score__min__energy>  (12) 
-8.1500000000000004

>  <m_primary>  (12) 
energy

>  <rmsd>  (12) 
2.7174373634169164

>  <m_score__min__rmsd>  (12) 
2.7174373634169164

>  <meeko>  (12) 
{"free_energy": -7.91, "intermolecular_energy": -9.4, "internal_energy": -1.67, "cluster_size": 20, "cluster_id": 2, "rank_in_cluster": 11}

>  <energy>  (12) 
-7.92

>  <cluster_rmsd>  (12) 
0.38

>  <cluster>  (12) 
2

$$$$

     RDKit          3D

 48 51  0  0  0  0  0  0  0  0999 V2000
  140.6520   71.7530  221.1250 O   0  0  0  0  0  0  0  0  0  0  0  0
  140.1490   72.1820  222.2080 C   0  0  0  0  0  0  0  0  0  0  0  0
  139.6620   73.5140  222.2940 N   0  0  0  0  0  0  0  0  0  0  0  0
  139.7250   74.4140  221.1590 C   0  0  0  0  0  0  0  0  0  0  0  0
  140.9750   75.2170  221.1680 C   0  0  0  0  0  0  0  0  0  0  0  0
  141.4170   75.6470  222.2650 O   0  0  0  0  0  0  0  0  0  0  0  0
  141.6110   75.4590  219.9180 N   0  0  0  0  0  0  0  0  0  0  0  0
  141.5420   76.7640  219.2510 C   0  0  0  0  0  0  0  0  0  0  0  0
  142.9340   77.1230  218.8490 C   0  0  0  0  0  0  0  0  0  0  0  0
  143.4530   76.1050  217.8580 C   0  0  0  0  0  0  0  0  0  0  0  0
  142.7070   74.7920  217.9080 C   0  0  0  0  0  0  0  0  0  0  0  0
  142.3340   74.3790  219.3130 C   0  0  1  0  0  0  0  0  0  0  0  0
  143.5450   73.9530  220.0300 C   0  0  0  0  0  0  0  0  0  0  0  0
  143.8180   72.6840  220.5310 C   0  0  0  0  0  0  0  0  0  0  0  0
  145.0160   72.7110  221.1110 N   0  0  0  0  0  0  0  0  0  0  0  0
  145.4810   73.9660  220.9760 C   0  0  0  0  0  0  0  0  0  0  0  0
  144.5990   74.7390  220.3190 N   0  0  0  0  0  0  0  0  0  0  0  0
  140.0730   71.2950  223.3680 C   0  0  0  0  0  0  0  0  0  0  0  0
  139.5390   70.0370  223.2420 C   0  0  0  0  0  0  0  0  0  0  0  0
  139.5030   69.2570  224.3890 C   0  0  0  0  0  0  0  0  0  0  0  0
  139.9740   69.7040  225.6060 C   0  0  0  0  0  0  0  0  0  0  0  0
  139.9540   68.9630  226.7570 C   0  0  0  0  0  0  0  0  0  0  0  0
  140.4510   69.4900  227.9420 C   0  0  0  0  0  0  0  0  0  0  0  0
  140.4500   68.7960  229.0960 F   0  0  0  0  0  0  0  0  0  0  0  0
  140.9700   70.7680  227.9730 C   0  0  0  0  0  0  0  0  0  0  0  0
  141.0010   71.5320  226.8310 C   0  0  0  0  0  0  0  0  0  0  0  0
  140.5050   70.9890  225.6710 C   0  0  0  0  0  0  0  0  0  0  0  0
  140.5300   71.7190  224.5610 N   0  0  0  0  0  0  0  0  0  0  0  0
  139.2530   73.8090  223.2300 H   0  0  0  0  0  0  0  0  0  0  0  0
  139.6867   73.8231  220.2320 H   0  0  0  0  0  0  0  0  0  0  0  0
  138.8712   75.1049  221.2193 H   0  0  0  0  0  0  0  0  0  0  0  0
  140.8967   76.7004  218.3624 H   0  0  0  0  0  0  0  0  0  0  0  0
  141.1185   77.5258  219.9220 H   0  0  0  0  0  0  0  0  0  0  0  0
  142.9355   78.1202  218.3846 H   0  0  0  0  0  0  0  0  0  0  0  0
  143.5812   77.1307  219.7384 H   0  0  0  0  0  0  0  0  0  0  0  0
  143.3576   76.5230  216.8450 H   0  0  0  0  0  0  0  0  0  0  0  0
  144.5003   75.8963  218.1218 H   0  0  0  0  0  0  0  0  0  0  0  0
  141.7858   74.8892  217.3148 H   0  0  0  0  0  0  0  0  0  0  0  0
  143.3755   74.0177  217.5035 H   0  0  0  0  0  0  0  0  0  0  0  0
  141.6641   73.5069  219.3368 H   0  0  0  0  0  0  0  0  0  0  0  0
  143.1567   71.8078  220.4600 H   0  0  0  0  0  0  0  0  0  0  0  0
  145.5080   71.9000  221.5870 H   0  0  0  0  0  0  0  0  0  0  0  0
  146.4540   74.3137  221.3532 H   0  0  0  0  0  0  0  0  0  0  0  0
  139.1583   69.6654  222.2792 H   0  0  0  0  0  0  0  0  0  0  0  0
  139.0824   68.2426  224.3253 H   0  0  0  0  0  0  0  0  0  0  0  0
  139.5415   67.9434  226.7432 H   0  0  0  0  0  0  0  0  0  0  0  0
  141.3608   71.1774  228.9162 H   0  0  0  0  0  0  0  0  0  0  0  0
  141.4124   72.5520  226.8456 H   0  0  0  0  0  0  0  0  0  0  0  0
  1  2  2  0
  2  3  1  0
  3  4  1  0
  4  5  1  0
  5  6  2  0
  5  7  1  0
  7  8  1  0
  8  9  1  0
  9 10  1  0
 10 11  1  0
 11 12  1  0
 12 13  1  0
 13 14  2  0
 14 15  1  0
 15 16  1  0
 16 17  2  0
  2 18  1  0
 18 19  2  0
 19 20  1  0
 20 21  2  0
 21 22  1  0
 22 23  2  0
 23 24  1  0
 23 25  1  0
 25 26  2  0
 26 27  1  0
 27 28  2  0
 12  7  1  0
 17 13  1  0
 28 18  1  0
 27 21  1  0
  3 29  1  0
  4 30  1  0
  4 31  1  0
  8 32  1  0
  8 33  1  0
  9 34  1  0
  9 35  1  0
 10 36  1  0
 10 37  1  0
 11 38  1  0
 11 39  1  0
 12 40  1  6
 14 41  1  0
 15 42  1  0
 16 43  1  0
 19 44  1  0
 20 45  1  0
 22 46  1  0
 25 47  1  0
 26 48  1  0
M  END
>  <smiles>  (13) 
O=C(NCC(=O)N1CCCC[C@H]1c1c[nH]cn1)c1ccc2cc(F)ccc2n1

>  <score_type>  (13) 
oracle

>  <origin>  (13) 
autodockgpu

>  <m_score__min__energy>  (13) 
-8.1500000000000004

>  <m_primary>  (13) 
energy

>  <rmsd>  (13) 
2.7387453797063297

>  <m_score__min__rmsd>  (13) 
2.7387453797063297

>  <meeko>  (13) 
{"free_energy": -7.99, "intermolecular_energy": -9.48, "internal_energy": -1.62, "cluster_size": 20, "cluster_id": 2, "rank_in_cluster": 7}

>  <energy>  (13) 
-7.91

>  <cluster_rmsd>  (13) 
0.42

>  <cluster>  (13) 
2

$$$$

     RDKit          3D

 48 51  0  0  0  0  0  0  0  0999 V2000
  138.7180   74.6740  222.3210 O   0  0  0  0  0  0  0  0  0  0  0  0
  139.8360   75.1520  221.9590 C   0  0  0  0  0  0  0  0  0  0  0  0
  140.0370   76.5580  221.9230 N   0  0  0  0  0  0  0  0  0  0  0  0
  138.9820   77.4800  222.2980 C   0  0  0  0  0  0  0  0  0  0  0  0
  139.1760   78.8150  221.6740 C   0  0  0  0  0  0  0  0  0  0  0  0
  138.3510   79.2100  220.8090 O   0  0  0  0  0  0  0  0  0  0  0  0
  140.2990   79.5810  222.0940 N   0  0  0  0  0  0  0  0  0  0  0  0
  140.7500   79.5960  223.4900 C   0  0  0  0  0  0  0  0  0  0  0  0
  142.2260   79.3670  223.4750 C   0  0  0  0  0  0  0  0  0  0  0  0
  142.9060   80.5000  222.7380 C   0  0  0  0  0  0  0  0  0  0  0  0
  141.9760   81.2530  221.8160 C   0  0  0  0  0  0  0  0  0  0  0  0
  140.9930   80.3520  221.1050 C   0  0  1  0  0  0  0  0  0  0  0  0
  141.7040   79.5710  220.0830 C   0  0  0  0  0  0  0  0  0  0  0  0
  142.3400   80.0620  218.9460 C   0  0  0  0  0  0  0  0  0  0  0  0
  142.8620   79.0340  218.2810 N   0  0  0  0  0  0  0  0  0  0  0  0
  142.5610   77.9270  218.9840 C   0  0  0  0  0  0  0  0  0  0  0  0
  141.8560   78.2340  220.0860 N   0  0  0  0  0  0  0  0  0  0  0  0
  140.9180   74.2460  221.5760 C   0  0  0  0  0  0  0  0  0  0  0  0
  140.7230   72.8870  221.6030 C   0  0  0  0  0  0  0  0  0  0  0  0
  141.7980   72.0950  221.2250 C   0  0  0  0  0  0  0  0  0  0  0  0
  143.0110   72.6250  220.8390 C   0  0  0  0  0  0  0  0  0  0  0  0
  144.0910   71.8750  220.4610 C   0  0  0  0  0  0  0  0  0  0  0  0
  145.2790   72.4900  220.0850 C   0  0  0  0  0  0  0  0  0  0  0  0
  146.3650   71.7910  219.7060 F   0  0  0  0  0  0  0  0  0  0  0  0
  145.3820   73.8670  220.0880 C   0  0  0  0  0  0  0  0  0  0  0  0
  144.3110   74.6410  220.4640 C   0  0  0  0  0  0  0  0  0  0  0  0
  143.1480   74.0110  220.8310 C   0  0  0  0  0  0  0  0  0  0  0  0
  142.1060   74.7500  221.1960 N   0  0  0  0  0  0  0  0  0  0  0  0
  140.9960   76.8920  221.6110 H   0  0  0  0  0  0  0  0  0  0  0  0
  138.0156   77.0695  221.9700 H   0  0  0  0  0  0  0  0  0  0  0  0
  139.0051   77.6039  223.3908 H   0  0  0  0  0  0  0  0  0  0  0  0
  140.5235   80.5693  223.9497 H   0  0  0  0  0  0  0  0  0  0  0  0
  140.2382   78.8184  224.0761 H   0  0  0  0  0  0  0  0  0  0  0  0
  142.6008   79.3249  224.5083 H   0  0  0  0  0  0  0  0  0  0  0  0
  142.4439   78.4164  222.9662 H   0  0  0  0  0  0  0  0  0  0  0  0
  143.3110   81.2055  223.4785 H   0  0  0  0  0  0  0  0  0  0  0  0
  143.6963   80.0566  222.1144 H   0  0  0  0  0  0  0  0  0  0  0  0
  141.4122   81.9874  222.4100 H   0  0  0  0  0  0  0  0  0  0  0  0
  142.5957   81.7365  221.0464 H   0  0  0  0  0  0  0  0  0  0  0  0
  140.2232   80.9123  220.5541 H   0  0  0  0  0  0  0  0  0  0  0  0
  142.4007   81.1191  218.6481 H   0  0  0  0  0  0  0  0  0  0  0  0
  143.4090   79.0790  217.3730 H   0  0  0  0  0  0  0  0  0  0  0  0
  142.8531   76.9066  218.6951 H   0  0  0  0  0  0  0  0  0  0  0  0
  139.7621   72.4478  221.9091 H   0  0  0  0  0  0  0  0  0  0  0  0
  141.6777   71.0016  221.2337 H   0  0  0  0  0  0  0  0  0  0  0  0
  144.0184   70.7774  220.4547 H   0  0  0  0  0  0  0  0  0  0  0  0
  146.3256   74.3463  219.7880 H   0  0  0  0  0  0  0  0  0  0  0  0
  144.3837   75.7386  220.4708 H   0  0  0  0  0  0  0  0  0  0  0  0
  1  2  2  0
  2  3  1  0
  3  4  1  0
  4  5  1  0
  5  6  2  0
  5  7  1  0
  7  8  1  0
  8  9  1  0
  9 10  1  0
 10 11  1  0
 11 12  1  0
 12 13  1  0
 13 14  2  0
 14 15  1  0
 15 16  1  0
 16 17  2  0
  2 18  1  0
 18 19  2  0
 19 20  1  0
 20 21  2  0
 21 22  1  0
 22 23  2  0
 23 24  1  0
 23 25  1  0
 25 26  2  0
 26 27  1  0
 27 28  2  0
 12  7  1  0
 17 13  1  0
 28 18  1  0
 27 21  1  0
  3 29  1  0
  4 30  1  0
  4 31  1  0
  8 32  1  0
  8 33  1  0
  9 34  1  0
  9 35  1  0
 10 36  1  0
 10 37  1  0
 11 38  1  0
 11 39  1  0
 12 40  1  6
 14 41  1  0
 15 42  1  0
 16 43  1  0
 19 44  1  0
 20 45  1  0
 22 46  1  0
 25 47  1  0
 26 48  1  0
M  END
>  <smiles>  (14) 
O=C(NCC(=O)N1CCCC[C@H]1c1c[nH]cn1)c1ccc2cc(F)ccc2n1

>  <score_type>  (14) 
oracle

>  <origin>  (14) 
autodockgpu

>  <m_score__min__energy>  (14) 
-8.1500000000000004

>  <m_primary>  (14) 
energy

>  <rmsd>  (14) 
6.351193064877707

>  <m_score__min__rmsd>  (14) 
6.351193064877707

>  <meeko>  (14) 
{"free_energy": -6.71, "intermolecular_energy": -8.2, "internal_energy": -2.66, "cluster_size": 22, "cluster_id": 4, "rank_in_cluster": 9}

>  <energy>  (14) 
-7.91

>  <cluster_rmsd>  (14) 
0.31

>  <cluster>  (14) 
2

$$$$

     RDKit          3D

 48 51  0  0  0  0  0  0  0  0999 V2000
  141.3500   72.0830  221.4320 O   0  0  0  0  0  0  0  0  0  0  0  0
  140.5770   72.4790  222.3560 C   0  0  0  0  0  0  0  0  0  0  0  0
  140.0150   73.7830  222.3110 N   0  0  0  0  0  0  0  0  0  0  0  0
  140.3050   74.6910  221.2180 C   0  0  0  0  0  0  0  0  0  0  0  0
  139.8170   76.0650  221.5060 C   0  0  0  0  0  0  0  0  0  0  0  0
  139.0800   76.2540  222.5080 O   0  0  0  0  0  0  0  0  0  0  0  0
  140.2160   77.1040  220.6200 N   0  0  0  0  0  0  0  0  0  0  0  0
  139.3760   77.5320  219.4950 C   0  0  0  0  0  0  0  0  0  0  0  0
  139.3030   79.0220  219.5460 C   0  0  0  0  0  0  0  0  0  0  0  0
  140.6870   79.6030  219.3590 C   0  0  0  0  0  0  0  0  0  0  0  0
  141.7920   78.6200  219.6680 C   0  0  0  0  0  0  0  0  0  0  0  0
  141.4810   77.7370  220.8540 C   0  0  1  0  0  0  0  0  0  0  0  0
  141.5670   78.5350  222.0870 C   0  0  0  0  0  0  0  0  0  0  0  0
  142.5690   79.4360  222.4330 C   0  0  0  0  0  0  0  0  0  0  0  0
  142.2780   79.9490  223.6260 N   0  0  0  0  0  0  0  0  0  0  0  0
  141.1220   79.3830  224.0170 C   0  0  0  0  0  0  0  0  0  0  0  0
  140.6720   78.5180  223.0920 N   0  0  0  0  0  0  0  0  0  0  0  0
  140.2680   71.5840  223.4700 C   0  0  0  0  0  0  0  0  0  0  0  0
  139.5510   70.4340  223.2540 C   0  0  0  0  0  0  0  0  0  0  0  0
  139.2990   69.6380  224.3620 C   0  0  0  0  0  0  0  0  0  0  0  0
  139.7380   69.9670  225.6280 C   0  0  0  0  0  0  0  0  0  0  0  0
  139.5080   69.2070  226.7420 C   0  0  0  0  0  0  0  0  0  0  0  0
  139.9870   69.6130  227.9820 C   0  0  0  0  0  0  0  0  0  0  0  0
  139.7830   68.8950  229.1030 F   0  0  0  0  0  0  0  0  0  0  0  0
  140.7010   70.7870  228.1040 C   0  0  0  0  0  0  0  0  0  0  0  0
  140.9440   71.5670  226.9990 C   0  0  0  0  0  0  0  0  0  0  0  0
  140.4610   71.1470  225.7850 C   0  0  0  0  0  0  0  0  0  0  0  0
  140.6910   71.8930  224.7100 N   0  0  0  0  0  0  0  0  0  0  0  0
  139.3760   74.0510  223.1160 H   0  0  0  0  0  0  0  0  0  0  0  0
  141.3931   74.7241  221.0602 H   0  0  0  0  0  0  0  0  0  0  0  0
  139.7893   74.3235  220.3185 H   0  0  0  0  0  0  0  0  0  0  0  0
  139.8245   77.2082  218.5442 H   0  0  0  0  0  0  0  0  0  0  0  0
  138.3722   77.0875  219.5637 H   0  0  0  0  0  0  0  0  0  0  0  0
  138.6423   79.3841  218.7445 H   0  0  0  0  0  0  0  0  0  0  0  0
  138.9032   79.3356  220.5216 H   0  0  0  0  0  0  0  0  0  0  0  0
  140.7911   79.9287  218.3135 H   0  0  0  0  0  0  0  0  0  0  0  0
  140.7879   80.4407  220.0648 H   0  0  0  0  0  0  0  0  0  0  0  0
  141.9494   77.9809  218.7867 H   0  0  0  0  0  0  0  0  0  0  0  0
  142.6909   79.2027  219.9179 H   0  0  0  0  0  0  0  0  0  0  0  0
  142.2125   76.9259  220.9843 H   0  0  0  0  0  0  0  0  0  0  0  0
  143.4514   79.6824  221.8242 H   0  0  0  0  0  0  0  0  0  0  0  0
  142.8470   80.6650  224.1640 H   0  0  0  0  0  0  0  0  0  0  0  0
  140.6126   79.5994  224.9676 H   0  0  0  0  0  0  0  0  0  0  0  0
  139.1935   70.1569  222.2513 H   0  0  0  0  0  0  0  0  0  0  0  0
  138.7269   68.7084  224.2259 H   0  0  0  0  0  0  0  0  0  0  0  0
  138.9404   68.2687  226.6559 H   0  0  0  0  0  0  0  0  0  0  0  0
  141.0771   71.0999  229.0892 H   0  0  0  0  0  0  0  0  0  0  0  0
  141.5118   72.5051  227.0854 H   0  0  0  0  0  0  0  0  0  0  0  0
  1  2  2  0
  2  3  1  0
  3  4  1  0
  4  5  1  0
  5  6  2  0
  5  7  1  0
  7  8  1  0
  8  9  1  0
  9 10  1  0
 10 11  1  0
 11 12  1  0
 12 13  1  0
 13 14  2  0
 14 15  1  0
 15 16  1  0
 16 17  2  0
  2 18  1  0
 18 19  2  0
 19 20  1  0
 20 21  2  0
 21 22  1  0
 22 23  2  0
 23 24  1  0
 23 25  1  0
 25 26  2  0
 26 27  1  0
 27 28  2  0
 12  7  1  0
 17 13  1  0
 28 18  1  0
 27 21  1  0
  3 29  1  0
  4 30  1  0
  4 31  1  0
  8 32  1  0
  8 33  1  0
  9 34  1  0
  9 35  1  0
 10 36  1  0
 10 37  1  0
 11 38  1  0
 11 39  1  0
 12 40  1  1
 14 41  1  0
 15 42  1  0
 16 43  1  0
 19 44  1  0
 20 45  1  0
 22 46  1  0
 25 47  1  0
 26 48  1  0
M  END
>  <smiles>  (15) 
O=C(NCC(=O)N1CCCC[C@H]1c1c[nH]cn1)c1ccc2cc(F)ccc2n1

>  <score_type>  (15) 
oracle

>  <origin>  (15) 
autodockgpu

>  <m_score__min__energy>  (15) 
-8.1500000000000004

>  <m_primary>  (15) 
energy

>  <rmsd>  (15) 
2.100866598534128

>  <m_score__min__rmsd>  (15) 
2.100866598534128

>  <meeko>  (15) 
{"free_energy": -7.48, "intermolecular_energy": -8.97, "internal_energy": -1.67, "cluster_size": 5, "cluster_id": 3, "rank_in_cluster": 4}

>  <energy>  (15) 
-7.9

>  <cluster_rmsd>  (15) 
0.47

>  <cluster>  (15) 
2

$$$$

     RDKit          3D

 48 51  0  0  0  0  0  0  0  0999 V2000
  140.0780   73.9410  221.9230 O   0  0  0  0  0  0  0  0  0  0  0  0
  141.0360   74.6930  221.5670 C   0  0  0  0  0  0  0  0  0  0  0  0
  140.9640   76.0950  221.7800 N   0  0  0  0  0  0  0  0  0  0  0  0
  139.8060   76.7040  222.4050 C   0  0  0  0  0  0  0  0  0  0  0  0
  139.5420   78.0620  221.8600 C   0  0  0  0  0  0  0  0  0  0  0  0
  138.5160   78.2480  221.1560 O   0  0  0  0  0  0  0  0  0  0  0  0
  140.4770   79.0880  222.1690 N   0  0  0  0  0  0  0  0  0  0  0  0
  141.0640   79.2290  223.5070 C   0  0  0  0  0  0  0  0  0  0  0  0
  142.5380   79.3770  223.3250 C   0  0  0  0  0  0  0  0  0  0  0  0
  142.8270   80.6370  222.5400 C   0  0  0  0  0  0  0  0  0  0  0  0
  141.6420   81.1240  221.7400 C   0  0  0  0  0  0  0  0  0  0  0  0
  140.8420   80.0000  221.1250 C   0  0  1  0  0  0  0  0  0  0  0  0
  141.6080   79.4120  220.0150 C   0  0  0  0  0  0  0  0  0  0  0  0
  142.2230   80.0940  218.9700 C   0  0  0  0  0  0  0  0  0  0  0  0
  142.8110   79.2020  218.1760 N   0  0  0  0  0  0  0  0  0  0  0  0
  142.5700   77.9920  218.7120 C   0  0  0  0  0  0  0  0  0  0  0  0
  141.8380   78.0990  219.8350 N   0  0  0  0  0  0  0  0  0  0  0  0
  142.2160   74.1050  220.9350 C   0  0  0  0  0  0  0  0  0  0  0  0
  143.2200   74.9130  220.4610 C   0  0  0  0  0  0  0  0  0  0  0  0
  144.3060   74.2790  219.8740 C   0  0  0  0  0  0  0  0  0  0  0  0
  144.3940   72.9070  219.7610 C   0  0  0  0  0  0  0  0  0  0  0  0
  145.4480   72.2490  219.1890 C   0  0  0  0  0  0  0  0  0  0  0  0
  145.4560   70.8620  219.1170 C   0  0  0  0  0  0  0  0  0  0  0  0
  146.4730   70.1750  218.5630 F   0  0  0  0  0  0  0  0  0  0  0  0
  144.4000   70.1310  219.6220 C   0  0  0  0  0  0  0  0  0  0  0  0
  143.3300   70.7690  220.2010 C   0  0  0  0  0  0  0  0  0  0  0  0
  143.3440   72.1410  220.2610 C   0  0  0  0  0  0  0  0  0  0  0  0
  142.3140   72.7680  220.8190 N   0  0  0  0  0  0  0  0  0  0  0  0
  141.8000   76.6670  221.4590 H   0  0  0  0  0  0  0  0  0  0  0  0
  138.9265   76.0689  222.2230 H   0  0  0  0  0  0  0  0  0  0  0  0
  140.0057   76.7981  223.4826 H   0  0  0  0  0  0  0  0  0  0  0  0
  140.6541   80.1188  224.0072 H   0  0  0  0  0  0  0  0  0  0  0  0
  140.8321   78.3533  224.1311 H   0  0  0  0  0  0  0  0  0  0  0  0
  143.0243   79.4393  224.3097 H   0  0  0  0  0  0  0  0  0  0  0  0
  142.9281   78.5068  222.7767 H   0  0  0  0  0  0  0  0  0  0  0  0
  143.1220   81.4282  223.2449 H   0  0  0  0  0  0  0  0  0  0  0  0
  143.6291   80.4004  221.8254 H   0  0  0  0  0  0  0  0  0  0  0  0
  140.9825   81.6999  222.4059 H   0  0  0  0  0  0  0  0  0  0  0  0
  142.0323   81.7390  220.9157 H   0  0  0  0  0  0  0  0  0  0  0  0
  139.9000   80.3454  220.6740 H   0  0  0  0  0  0  0  0  0  0  0  0
  142.2233   81.1844  218.8247 H   0  0  0  0  0  0  0  0  0  0  0  0
  143.3630   79.4050  217.2930 H   0  0  0  0  0  0  0  0  0  0  0  0
  142.9247   77.0410  218.2879 H   0  0  0  0  0  0  0  0  0  0  0  0
  143.1661   76.0087  220.5425 H   0  0  0  0  0  0  0  0  0  0  0  0
  145.1293   74.8950  219.4833 H   0  0  0  0  0  0  0  0  0  0  0  0
  146.2948   72.8221  218.7834 H   0  0  0  0  0  0  0  0  0  0  0  0
  144.4151   69.0328  219.5606 H   0  0  0  0  0  0  0  0  0  0  0  0
  142.4834   70.1955  220.6063 H   0  0  0  0  0  0  0  0  0  0  0  0
  1  2  2  0
  2  3  1  0
  3  4  1  0
  4  5  1  0
  5  6  2  0
  5  7  1  0
  7  8  1  0
  8  9  1  0
  9 10  1  0
 10 11  1  0
 11 12  1  0
 12 13  1  0
 13 14  2  0
 14 15  1  0
 15 16  1  0
 16 17  2  0
  2 18  1  0
 18 19  2  0
 19 20  1  0
 20 21  2  0
 21 22  1  0
 22 23  2  0
 23 24  1  0
 23 25  1  0
 25 26  2  0
 26 27  1  0
 27 28  2  0
 12  7  1  0
 17 13  1  0
 28 18  1  0
 27 21  1  0
  3 29  1  0
  4 30  1  0
  4 31  1  0
  8 32  1  0
  8 33  1  0
  9 34  1  0
  9 35  1  0
 10 36  1  0
 10 37  1  0
 11 38  1  0
 11 39  1  0
 12 40  1  6
 14 41  1  0
 15 42  1  0
 16 43  1  0
 19 44  1  0
 20 45  1  0
 22 46  1  0
 25 47  1  0
 26 48  1  0
M  END
>  <smiles>  (16) 
O=C(NCC(=O)N1CCCC[C@H]1c1c[nH]cn1)c1ccc2cc(F)ccc2n1

>  <score_type>  (16) 
oracle

>  <origin>  (16) 
autodockgpu

>  <m_score__min__energy>  (16) 
-8.1500000000000004

>  <m_primary>  (16) 
energy

>  <rmsd>  (16) 
6.864030343707443

>  <m_score__min__rmsd>  (16) 
6.864030343707443

>  <meeko>  (16) 
{"free_energy": -7.34, "intermolecular_energy": -8.83, "internal_energy": -2.23, "cluster_size": 22, "cluster_id": 4, "rank_in_cluster": 3}

>  <energy>  (16) 
-7.85

>  <cluster_rmsd>  (16) 
0.61

>  <cluster>  (16) 
2

$$$$

     RDKit          3D

 48 51  0  0  0  0  0  0  0  0999 V2000
  139.3570   70.3050  221.2270 O   0  0  0  0  0  0  0  0  0  0  0  0
  139.9170   70.7730  222.2660 C   0  0  0  0  0  0  0  0  0  0  0  0
  140.6200   72.0060  222.2070 N   0  0  0  0  0  0  0  0  0  0  0  0
  140.7170   72.7600  220.9720 C   0  0  0  0  0  0  0  0  0  0  0  0
  140.9140   74.2100  221.2320 C   0  0  0  0  0  0  0  0  0  0  0  0
  140.5140   74.6940  222.3230 O   0  0  0  0  0  0  0  0  0  0  0  0
  141.5500   74.9800  220.2190 N   0  0  0  0  0  0  0  0  0  0  0  0
  141.2260   76.3940  219.9990 C   0  0  0  0  0  0  0  0  0  0  0  0
  142.5210   77.1320  219.9170 C   0  0  0  0  0  0  0  0  0  0  0  0
  143.3150   76.6310  218.7310 C   0  0  0  0  0  0  0  0  0  0  0  0
  142.8840   75.2610  218.2630 C   0  0  0  0  0  0  0  0  0  0  0  0
  142.5330   74.3320  219.4020 C   0  0  1  0  0  0  0  0  0  0  0  0
  143.7660   73.9320  220.0980 C   0  0  0  0  0  0  0  0  0  0  0  0
  144.1230   72.6470  220.4940 C   0  0  0  0  0  0  0  0  0  0  0  0
  145.3110   72.7080  221.0910 N   0  0  0  0  0  0  0  0  0  0  0  0
  145.6870   73.9990  221.0690 C   0  0  0  0  0  0  0  0  0  0  0  0
  144.7580   74.7620  220.4670 N   0  0  0  0  0  0  0  0  0  0  0  0
  139.8340   70.0330  223.5240 C   0  0  0  0  0  0  0  0  0  0  0  0
  139.1670   68.8340  223.5780 C   0  0  0  0  0  0  0  0  0  0  0  0
  139.1330   68.1950  224.8090 C   0  0  0  0  0  0  0  0  0  0  0  0
  139.7330   68.7190  225.9360 C   0  0  0  0  0  0  0  0  0  0  0  0
  139.7200   68.1160  227.1640 C   0  0  0  0  0  0  0  0  0  0  0  0
  140.3500   68.7140  228.2480 C   0  0  0  0  0  0  0  0  0  0  0  0
  140.3610   68.1550  229.4730 F   0  0  0  0  0  0  0  0  0  0  0  0
  140.9980   69.9230  228.0980 C   0  0  0  0  0  0  0  0  0  0  0  0
  141.0250   70.5480  226.8740 C   0  0  0  0  0  0  0  0  0  0  0  0
  140.3950   69.9380  225.8180 C   0  0  0  0  0  0  0  0  0  0  0  0
  140.4150   70.5340  224.6300 N   0  0  0  0  0  0  0  0  0  0  0  0
  141.0650   72.3400  223.1120 H   0  0  0  0  0  0  0  0  0  0  0  0
  141.5700   72.3825  220.3890 H   0  0  0  0  0  0  0  0  0  0  0  0
  139.7760   72.6342  220.4165 H   0  0  0  0  0  0  0  0  0  0  0  0
  140.6646   76.5111  219.0603 H   0  0  0  0  0  0  0  0  0  0  0  0
  140.6028   76.7853  220.8166 H   0  0  0  0  0  0  0  0  0  0  0  0
  142.3228   78.2074  219.7972 H   0  0  0  0  0  0  0  0  0  0  0  0
  143.0964   76.9647  220.8395 H   0  0  0  0  0  0  0  0  0  0  0  0
  143.1877   77.3405  217.9001 H   0  0  0  0  0  0  0  0  0  0  0  0
  144.3649   76.5525  219.0498 H   0  0  0  0  0  0  0  0  0  0  0  0
  142.0008   75.3730  217.6169 H   0  0  0  0  0  0  0  0  0  0  0  0
  143.7328   74.8150  217.7239 H   0  0  0  0  0  0  0  0  0  0  0  0
  142.0781   73.3909  219.0594 H   0  0  0  0  0  0  0  0  0  0  0  0
  143.5256   71.7363  220.3400 H   0  0  0  0  0  0  0  0  0  0  0  0
  145.8550   71.8960  221.5040 H   0  0  0  0  0  0  0  0  0  0  0  0
  146.6299   74.3803  221.4881 H   0  0  0  0  0  0  0  0  0  0  0  0
  138.6837   68.4016  222.6895 H   0  0  0  0  0  0  0  0  0  0  0  0
  138.6069   67.2324  224.8900 H   0  0  0  0  0  0  0  0  0  0  0  0
  139.2074   67.1514  227.2938 H   0  0  0  0  0  0  0  0  0  0  0  0
  141.4951   70.3887  228.9617 H   0  0  0  0  0  0  0  0  0  0  0  0
  141.5383   71.5122  226.7441 H   0  0  0  0  0  0  0  0  0  0  0  0
  1  2  2  0
  2  3  1  0
  3  4  1  0
  4  5  1  0
  5  6  2  0
  5  7  1  0
  7  8  1  0
  8  9  1  0
  9 10  1  0
 10 11  1  0
 11 12  1  0
 12 13  1  0
 13 14  2  0
 14 15  1  0
 15 16  1  0
 16 17  2  0
  2 18  1  0
 18 19  2  0
 19 20  1  0
 20 21  2  0
 21 22  1  0
 22 23  2  0
 23 24  1  0
 23 25  1  0
 25 26  2  0
 26 27  1  0
 27 28  2  0
 12  7  1  0
 17 13  1  0
 28 18  1  0
 27 21  1  0
  3 29  1  0
  4 30  1  0
  4 31  1  0
  8 32  1  0
  8 33  1  0
  9 34  1  0
  9 35  1  0
 10 36  1  0
 10 37  1  0
 11 38  1  0
 11 39  1  0
 12 40  1  6
 14 41  1  0
 15 42  1  0
 16 43  1  0
 19 44  1  0
 20 45  1  0
 22 46  1  0
 25 47  1  0
 26 48  1  0
M  END
>  <smiles>  (17) 
O=C(NCC(=O)N1CCCC[C@H]1c1c[nH]cn1)c1ccc2cc(F)ccc2n1

>  <score_type>  (17) 
oracle

>  <origin>  (17) 
autodockgpu

>  <m_score__min__energy>  (17) 
-8.1500000000000004

>  <m_primary>  (17) 
energy

>  <rmsd>  (17) 
2.845827882107301

>  <m_score__min__rmsd>  (17) 
2.845827882107301

>  <meeko>  (17) 
{"free_energy": -7.65, "intermolecular_energy": -9.14, "internal_energy": -1.7, "cluster_size": 20, "cluster_id": 2, "rank_in_cluster": 14}

>  <energy>  (17) 
-7.65

>  <cluster_rmsd>  (17) 
1.15

>  <cluster>  (17) 
2

$$$$

     RDKit          3D

 48 51  0  0  0  0  0  0  0  0999 V2000
  141.1240   72.1580  221.3780 O   0  0  0  0  0  0  0  0  0  0  0  0
  140.3060   72.4260  222.3100 C   0  0  0  0  0  0  0  0  0  0  0  0
  139.5200   73.6080  222.2560 N   0  0  0  0  0  0  0  0  0  0  0  0
  139.6260   74.5340  221.1450 C   0  0  0  0  0  0  0  0  0  0  0  0
  140.9100   75.2830  221.1800 C   0  0  0  0  0  0  0  0  0  0  0  0
  141.3980   75.6060  222.2940 O   0  0  0  0  0  0  0  0  0  0  0  0
  141.5220   75.5970  219.9350 N   0  0  0  0  0  0  0  0  0  0  0  0
  141.4400   76.9370  219.3450 C   0  0  0  0  0  0  0  0  0  0  0  0
  142.8240   77.3220  218.9380 C   0  0  0  0  0  0  0  0  0  0  0  0
  143.3260   76.3620  217.8820 C   0  0  0  0  0  0  0  0  0  0  0  0
  142.5830   75.0480  217.8710 C   0  0  0  0  0  0  0  0  0  0  0  0
  142.2360   74.5550  219.2560 C   0  0  1  0  0  0  0  0  0  0  0  0
  143.4600   74.0910  219.9260 C   0  0  0  0  0  0  0  0  0  0  0  0
  143.7870   72.7790  220.2560 C   0  0  0  0  0  0  0  0  0  0  0  0
  144.9790   72.7820  220.8500 N   0  0  0  0  0  0  0  0  0  0  0  0
  145.3860   74.0630  220.8910 C   0  0  0  0  0  0  0  0  0  0  0  0
  144.4740   74.8770  220.3310 N   0  0  0  0  0  0  0  0  0  0  0  0
  140.1780   71.5100  223.4430 C   0  0  0  0  0  0  0  0  0  0  0  0
  139.5840   70.2830  223.2750 C   0  0  0  0  0  0  0  0  0  0  0  0
  139.5010   69.4720  224.3980 C   0  0  0  0  0  0  0  0  0  0  0  0
  139.9840   69.8580  225.6310 C   0  0  0  0  0  0  0  0  0  0  0  0
  139.9190   69.0850  226.7580 C   0  0  0  0  0  0  0  0  0  0  0  0
  140.4310   69.5520  227.9620 C   0  0  0  0  0  0  0  0  0  0  0  0
  140.3880   68.8240  229.0940 F   0  0  0  0  0  0  0  0  0  0  0  0
  141.0130   70.8020  228.0350 C   0  0  0  0  0  0  0  0  0  0  0  0
  141.0890   71.5960  226.9170 C   0  0  0  0  0  0  0  0  0  0  0  0
  140.5760   71.1140  225.7380 C   0  0  0  0  0  0  0  0  0  0  0  0
  140.6460   71.8740  224.6510 N   0  0  0  0  0  0  0  0  0  0  0  0
  138.8550   73.7720  223.0690 H   0  0  0  0  0  0  0  0  0  0  0  0
  139.5670   73.9697  220.2026 H   0  0  0  0  0  0  0  0  0  0  0  0
  138.8018   75.2586  221.2200 H   0  0  0  0  0  0  0  0  0  0  0  0
  140.7784   76.9227  218.4664 H   0  0  0  0  0  0  0  0  0  0  0  0
  141.0287   77.6583  220.0665 H   0  0  0  0  0  0  0  0  0  0  0  0
  142.8152   78.3435  218.5301 H   0  0  0  0  0  0  0  0  0  0  0  0
  143.4877   77.2821  219.8143 H   0  0  0  0  0  0  0  0  0  0  0  0
  143.2122   76.8362  216.8960 H   0  0  0  0  0  0  0  0  0  0  0  0
  144.3780   76.1406  218.1152 H   0  0  0  0  0  0  0  0  0  0  0  0
  141.6511   75.1770  217.3010 H   0  0  0  0  0  0  0  0  0  0  0  0
  143.2450   74.2993  217.4113 H   0  0  0  0  0  0  0  0  0  0  0  0
  141.5676   73.6815  219.2415 H   0  0  0  0  0  0  0  0  0  0  0  0
  143.1672   71.8917  220.0598 H   0  0  0  0  0  0  0  0  0  0  0  0
  145.5040   71.9380  221.2200 H   0  0  0  0  0  0  0  0  0  0  0  0
  146.3388   74.4003  221.3252 H   0  0  0  0  0  0  0  0  0  0  0  0
  139.1935   69.9593  222.2989 H   0  0  0  0  0  0  0  0  0  0  0  0
  139.0314   68.4820  224.3010 H   0  0  0  0  0  0  0  0  0  0  0  0
  139.4584   68.0872  226.7104 H   0  0  0  0  0  0  0  0  0  0  0  0
  141.4173   71.1632  228.9921 H   0  0  0  0  0  0  0  0  0  0  0  0
  141.5496   72.5938  226.9649 H   0  0  0  0  0  0  0  0  0  0  0  0
  1  2  2  0
  2  3  1  0
  3  4  1  0
  4  5  1  0
  5  6  2  0
  5  7  1  0
  7  8  1  0
  8  9  1  0
  9 10  1  0
 10 11  1  0
 11 12  1  0
 12 13  1  0
 13 14  2  0
 14 15  1  0
 15 16  1  0
 16 17  2  0
  2 18  1  0
 18 19  2  0
 19 20  1  0
 20 21  2  0
 21 22  1  0
 22 23  2  0
 23 24  1  0
 23 25  1  0
 25 26  2  0
 26 27  1  0
 27 28  2  0
 12  7  1  0
 17 13  1  0
 28 18  1  0
 27 21  1  0
  3 29  1  0
  4 30  1  0
  4 31  1  0
  8 32  1  0
  8 33  1  0
  9 34  1  0
  9 35  1  0
 10 36  1  0
 10 37  1  0
 11 38  1  0
 11 39  1  0
 12 40  1  6
 14 41  1  0
 15 42  1  0
 16 43  1  0
 19 44  1  0
 20 45  1  0
 22 46  1  0
 25 47  1  0
 26 48  1  0
M  END
>  <smiles>  (18) 
O=C(NCC(=O)N1CCCC[C@H]1c1c[nH]cn1)c1ccc2cc(F)ccc2n1

>  <score_type>  (18) 
oracle

>  <origin>  (18) 
autodockgpu

>  <m_score__min__energy>  (18) 
-8.1500000000000004

>  <m_primary>  (18) 
energy

>  <rmsd>  (18) 
2.7202704292557676

>  <m_score__min__rmsd>  (18) 
2.7202704292557676

>  <meeko>  (18) 
{"free_energy": -8.13, "intermolecular_energy": -9.62, "internal_energy": -1.57, "cluster_size": 20, "cluster_id": 2, "rank_in_cluster": 1}

>  <energy>  (18) 
-7.62

>  <cluster_rmsd>  (18) 
1.27

>  <cluster>  (18) 
2

$$$$

     RDKit          3D

 48 51  0  0  0  0  0  0  0  0999 V2000
  140.1440   73.8960  221.9370 O   0  0  0  0  0  0  0  0  0  0  0  0
  141.0890   74.6560  221.5660 C   0  0  0  0  0  0  0  0  0  0  0  0
  141.0000   76.0600  221.7650 N   0  0  0  0  0  0  0  0  0  0  0  0
  139.8390   76.6600  222.3910 C   0  0  0  0  0  0  0  0  0  0  0  0
  139.5680   78.0180  221.8510 C   0  0  0  0  0  0  0  0  0  0  0  0
  138.5380   78.2020  221.1510 O   0  0  0  0  0  0  0  0  0  0  0  0
  140.5000   79.0480  222.1600 N   0  0  0  0  0  0  0  0  0  0  0  0
  141.0940   79.1830  223.4950 C   0  0  0  0  0  0  0  0  0  0  0  0
  142.5660   79.3390  223.3050 C   0  0  0  0  0  0  0  0  0  0  0  0
  142.8440   80.6050  222.5250 C   0  0  0  0  0  0  0  0  0  0  0  0
  141.6520   81.0920  221.7360 C   0  0  0  0  0  0  0  0  0  0  0  0
  140.8540   79.9670  221.1190 C   0  0  1  0  0  0  0  0  0  0  0  0
  141.6160   79.3890  220.0010 C   0  0  0  0  0  0  0  0  0  0  0  0
  142.2120   80.0790  218.9500 C   0  0  0  0  0  0  0  0  0  0  0  0
  142.8030   79.1940  218.1500 N   0  0  0  0  0  0  0  0  0  0  0  0
  142.5820   77.9810  218.6880 C   0  0  0  0  0  0  0  0  0  0  0  0
  141.8610   78.0790  219.8180 N   0  0  0  0  0  0  0  0  0  0  0  0
  142.2730   74.0770  220.9320 C   0  0  0  0  0  0  0  0  0  0  0  0
  143.2710   74.8920  220.4570 C   0  0  0  0  0  0  0  0  0  0  0  0
  144.3600   74.2660  219.8690 C   0  0  0  0  0  0  0  0  0  0  0  0
  144.4570   72.8950  219.7550 C   0  0  0  0  0  0  0  0  0  0  0  0
  145.5150   72.2450  219.1810 C   0  0  0  0  0  0  0  0  0  0  0  0
  145.5330   70.8580  219.1070 C   0  0  0  0  0  0  0  0  0  0  0  0
  146.5540   70.1780  218.5510 F   0  0  0  0  0  0  0  0  0  0  0  0
  144.4820   70.1190  219.6130 C   0  0  0  0  0  0  0  0  0  0  0  0
  143.4080   70.7490  220.1940 C   0  0  0  0  0  0  0  0  0  0  0  0
  143.4130   72.1210  220.2550 C   0  0  0  0  0  0  0  0  0  0  0  0
  142.3790   72.7410  220.8150 N   0  0  0  0  0  0  0  0  0  0  0  0
  141.8270   76.6380  221.4320 H   0  0  0  0  0  0  0  0  0  0  0  0
  138.9631   76.0207  222.2061 H   0  0  0  0  0  0  0  0  0  0  0  0
  140.0375   76.7513  223.4691 H   0  0  0  0  0  0  0  0  0  0  0  0
  140.6831   80.0677  224.0034 H   0  0  0  0  0  0  0  0  0  0  0  0
  140.8698   78.3024  224.1148 H   0  0  0  0  0  0  0  0  0  0  0  0
  143.0579   79.3983  224.2871 H   0  0  0  0  0  0  0  0  0  0  0  0
  142.9571   78.4737  222.7497 H   0  0  0  0  0  0  0  0  0  0  0  0
  143.1406   81.3934  223.2324 H   0  0  0  0  0  0  0  0  0  0  0  0
  143.6418   80.3755  221.8033 H   0  0  0  0  0  0  0  0  0  0  0  0
  140.9939   81.6603  222.4097 H   0  0  0  0  0  0  0  0  0  0  0  0
  142.0335   81.7149  220.9136 H   0  0  0  0  0  0  0  0  0  0  0  0
  139.9078   80.3100  220.6751 H   0  0  0  0  0  0  0  0  0  0  0  0
  142.1974   81.1693  218.8049 H   0  0  0  0  0  0  0  0  0  0  0  0
  143.3430   79.4050  217.2610 H   0  0  0  0  0  0  0  0  0  0  0  0
  142.9435   77.0344  218.2599 H   0  0  0  0  0  0  0  0  0  0  0  0
  143.2097   75.9872  220.5388 H   0  0  0  0  0  0  0  0  0  0  0  0
  145.1789   74.8877  219.4780 H   0  0  0  0  0  0  0  0  0  0  0  0
  146.3573   72.8246  218.7753 H   0  0  0  0  0  0  0  0  0  0  0  0
  144.5047   69.0210  219.5507 H   0  0  0  0  0  0  0  0  0  0  0  0
  142.5658   70.1693  220.5998 H   0  0  0  0  0  0  0  0  0  0  0  0
  1  2  2  0
  2  3  1  0
  3  4  1  0
  4  5  1  0
  5  6  2  0
  5  7  1  0
  7  8  1  0
  8  9  1  0
  9 10  1  0
 10 11  1  0
 11 12  1  0
 12 13  1  0
 13 14  2  0
 14 15  1  0
 15 16  1  0
 16 17  2  0
  2 18  1  0
 18 19  2  0
 19 20  1  0
 20 21  2  0
 21 22  1  0
 22 23  2  0
 23 24  1  0
 23 25  1  0
 25 26  2  0
 26 27  1  0
 27 28  2  0
 12  7  1  0
 17 13  1  0
 28 18  1  0
 27 21  1  0
  3 29  1  0
  4 30  1  0
  4 31  1  0
  8 32  1  0
  8 33  1  0
  9 34  1  0
  9 35  1  0
 10 36  1  0
 10 37  1  0
 11 38  1  0
 11 39  1  0
 12 40  1  6
 14 41  1  0
 15 42  1  0
 16 43  1  0
 19 44  1  0
 20 45  1  0
 22 46  1  0
 25 47  1  0
 26 48  1  0
M  END
>  <smiles>  (19) 
O=C(NCC(=O)N1CCCC[C@H]1c1c[nH]cn1)c1ccc2cc(F)ccc2n1

>  <score_type>  (19) 
oracle

>  <origin>  (19) 
autodockgpu

>  <m_score__min__energy>  (19) 
-8.1500000000000004

>  <m_primary>  (19) 
energy

>  <rmsd>  (19) 
6.871616507456319

>  <m_score__min__rmsd>  (19) 
6.871616507456319

>  <meeko>  (19) 
{"free_energy": -7.36, "intermolecular_energy": -8.85, "internal_energy": -2.23, "cluster_size": 22, "cluster_id": 4, "rank_in_cluster": 1}

>  <energy>  (19) 
-7.61

>  <cluster_rmsd>  (19) 
1.14

>  <cluster>  (19) 
2

$$$$

     RDKit          3D

 48 51  0  0  0  0  0  0  0  0999 V2000
  138.6250   74.7890  222.1310 O   0  0  0  0  0  0  0  0  0  0  0  0
  139.7390   75.2780  221.7700 C   0  0  0  0  0  0  0  0  0  0  0  0
  139.9070   76.6850  221.6740 N   0  0  0  0  0  0  0  0  0  0  0  0
  138.8220   77.5970  221.9830 C   0  0  0  0  0  0  0  0  0  0  0  0
  139.1380   78.9860  221.5590 C   0  0  0  0  0  0  0  0  0  0  0  0
  138.3570   79.5750  220.7670 O   0  0  0  0  0  0  0  0  0  0  0  0
  140.3230   79.5790  222.0780 N   0  0  0  0  0  0  0  0  0  0  0  0
  140.7470   79.3780  223.4680 C   0  0  0  0  0  0  0  0  0  0  0  0
  142.1930   79.0070  223.4340 C   0  0  0  0  0  0  0  0  0  0  0  0
  142.9950   80.1480  222.8470 C   0  0  0  0  0  0  0  0  0  0  0  0
  142.1610   81.0960  222.0190 C   0  0  0  0  0  0  0  0  0  0  0  0
  141.1080   80.3920  221.1960 C   0  0  1  0  0  0  0  0  0  0  0  0
  141.7580   79.6740  220.0890 C   0  0  0  0  0  0  0  0  0  0  0  0
  142.3650   80.2350  218.9700 C   0  0  0  0  0  0  0  0  0  0  0  0
  142.8330   79.2490  218.2080 N   0  0  0  0  0  0  0  0  0  0  0  0
  142.5250   78.0990  218.8350 C   0  0  0  0  0  0  0  0  0  0  0  0
  141.8700   78.3370  219.9850 N   0  0  0  0  0  0  0  0  0  0  0  0
  140.8490   74.3820  221.4520 C   0  0  0  0  0  0  0  0  0  0  0  0
  140.6830   73.0210  221.5300 C   0  0  0  0  0  0  0  0  0  0  0  0
  141.7850   72.2390  221.2120 C   0  0  0  0  0  0  0  0  0  0  0  0
  142.9970   72.7810  220.8360 C   0  0  0  0  0  0  0  0  0  0  0  0
  144.1020   72.0410  220.5170 C   0  0  0  0  0  0  0  0  0  0  0  0
  145.2860   72.6680  220.1470 C   0  0  0  0  0  0  0  0  0  0  0  0
  146.3970   71.9790  219.8250 F   0  0  0  0  0  0  0  0  0  0  0  0
  145.3590   74.0450  220.0970 C   0  0  0  0  0  0  0  0  0  0  0  0
  144.2620   74.8100  220.4130 C   0  0  0  0  0  0  0  0  0  0  0  0
  143.1040   74.1680  220.7760 C   0  0  0  0  0  0  0  0  0  0  0  0
  142.0360   74.8970  221.0830 N   0  0  0  0  0  0  0  0  0  0  0  0
  140.8640   77.0280  221.3660 H   0  0  0  0  0  0  0  0  0  0  0  0
  137.9140   77.2619  221.4602 H   0  0  0  0  0  0  0  0  0  0  0  0
  138.6708   77.5956  223.0726 H   0  0  0  0  0  0  0  0  0  0  0  0
  140.6083   80.3054  224.0431 H   0  0  0  0  0  0  0  0  0  0  0  0
  140.1506   78.5894  223.9502 H   0  0  0  0  0  0  0  0  0  0  0  0
  142.5426   78.8016  224.4566 H   0  0  0  0  0  0  0  0  0  0  0  0
  142.3257   78.1090  222.8127 H   0  0  0  0  0  0  0  0  0  0  0  0
  143.4531   80.7140  223.6715 H   0  0  0  0  0  0  0  0  0  0  0  0
  143.7500   79.7077  222.1791 H   0  0  0  0  0  0  0  0  0  0  0  0
  141.6610   81.8050  222.6953 H   0  0  0  0  0  0  0  0  0  0  0  0
  142.8396   81.6049  221.3187 H   0  0  0  0  0  0  0  0  0  0  0  0
  140.4077   81.0897  220.7135 H   0  0  0  0  0  0  0  0  0  0  0  0
  142.4447   81.3102  218.7520 H   0  0  0  0  0  0  0  0  0  0  0  0
  143.3470   79.3500  217.2860 H   0  0  0  0  0  0  0  0  0  0  0  0
  142.7758   77.0969  218.4569 H   0  0  0  0  0  0  0  0  0  0  0  0
  139.7242   72.5727  221.8296 H   0  0  0  0  0  0  0  0  0  0  0  0
  141.6883   71.1444  221.2617 H   0  0  0  0  0  0  0  0  0  0  0  0
  144.0534   70.9427  220.5535 H   0  0  0  0  0  0  0  0  0  0  0  0
  146.3000   74.5328  219.8027 H   0  0  0  0  0  0  0  0  0  0  0  0
  144.3104   75.9083  220.3760 H   0  0  0  0  0  0  0  0  0  0  0  0
  1  2  2  0
  2  3  1  0
  3  4  1  0
  4  5  1  0
  5  6  2  0
  5  7  1  0
  7  8  1  0
  8  9  1  0
  9 10  1  0
 10 11  1  0
 11 12  1  0
 12 13  1  0
 13 14  2  0
 14 15  1  0
 15 16  1  0
 16 17  2  0
  2 18  1  0
 18 19  2  0
 19 20  1  0
 20 21  2  0
 21 22  1  0
 22 23  2  0
 23 24  1  0
 23 25  1  0
 25 26  2  0
 26 27  1  0
 27 28  2  0
 12  7  1  0
 17 13  1  0
 28 18  1  0
 27 21  1  0
  3 29  1  0
  4 30  1  0
  4 31  1  0
  8 32  1  0
  8 33  1  0
  9 34  1  0
  9 35  1  0
 10 36  1  0
 10 37  1  0
 11 38  1  0
 11 39  1  0
 12 40  1  6
 14 41  1  0
 15 42  1  0
 16 43  1  0
 19 44  1  0
 20 45  1  0
 22 46  1  0
 25 47  1  0
 26 48  1  0
M  END
>  <smiles>  (20) 
O=C(NCC(=O)N1CCCC[C@H]1c1c[nH]cn1)c1ccc2cc(F)ccc2n1

>  <score_type>  (20) 
oracle

>  <origin>  (20) 
autodockgpu

>  <m_score__min__energy>  (20) 
-8.1500000000000004

>  <m_primary>  (20) 
energy

>  <rmsd>  (20) 
6.371678844477945

>  <m_score__min__rmsd>  (20) 
6.371678844477945

>  <meeko>  (20) 
{"free_energy": -6.69, "intermolecular_energy": -8.18, "internal_energy": -2.77, "cluster_size": 22, "cluster_id": 4, "rank_in_cluster": 16}

>  <energy>  (20) 
-7.43

>  <cluster_rmsd>  (20) 
0.82

>  <cluster>  (20) 
2

$$$$

     RDKit          3D

 48 51  0  0  0  0  0  0  0  0999 V2000
  140.1810   73.9150  221.9640 O   0  0  0  0  0  0  0  0  0  0  0  0
  141.1160   74.6770  221.5730 C   0  0  0  0  0  0  0  0  0  0  0  0
  141.0130   76.0840  221.7440 N   0  0  0  0  0  0  0  0  0  0  0  0
  139.8480   76.6850  222.3630 C   0  0  0  0  0  0  0  0  0  0  0  0
  139.5940   78.0520  221.8370 C   0  0  0  0  0  0  0  0  0  0  0  0
  138.5700   78.2540  221.1330 O   0  0  0  0  0  0  0  0  0  0  0  0
  140.5340   79.0680  222.1640 N   0  0  0  0  0  0  0  0  0  0  0  0
  141.1260   79.1790  223.5020 C   0  0  0  0  0  0  0  0  0  0  0  0
  142.6000   79.3250  223.3160 C   0  0  0  0  0  0  0  0  0  0  0  0
  142.8900   80.6010  222.5570 C   0  0  0  0  0  0  0  0  0  0  0  0
  141.7040   81.1090  221.7730 C   0  0  0  0  0  0  0  0  0  0  0  0
  140.8980   80.0000  221.1370 C   0  0  1  0  0  0  0  0  0  0  0  0
  141.6570   79.4340  220.0120 C   0  0  0  0  0  0  0  0  0  0  0  0
  142.2480   80.1330  218.9650 C   0  0  0  0  0  0  0  0  0  0  0  0
  142.8390   79.2570  218.1560 N   0  0  0  0  0  0  0  0  0  0  0  0
  142.6210   78.0380  218.6840 C   0  0  0  0  0  0  0  0  0  0  0  0
  141.9030   78.1250  219.8170 N   0  0  0  0  0  0  0  0  0  0  0  0
  142.3030   74.0980  220.9450 C   0  0  0  0  0  0  0  0  0  0  0  0
  143.3040   74.9130  220.4760 C   0  0  0  0  0  0  0  0  0  0  0  0
  144.3960   74.2870  219.8940 C   0  0  0  0  0  0  0  0  0  0  0  0
  144.4930   72.9160  219.7800 C   0  0  0  0  0  0  0  0  0  0  0  0
  145.5540   72.2650  219.2110 C   0  0  0  0  0  0  0  0  0  0  0  0
  145.5710   70.8780  219.1370 C   0  0  0  0  0  0  0  0  0  0  0  0
  146.5950   70.1980  218.5860 F   0  0  0  0  0  0  0  0  0  0  0  0
  144.5170   70.1400  219.6360 C   0  0  0  0  0  0  0  0  0  0  0  0
  143.4410   70.7700  220.2120 C   0  0  0  0  0  0  0  0  0  0  0  0
  143.4460   72.1420  220.2740 C   0  0  0  0  0  0  0  0  0  0  0  0
  142.4090   72.7620  220.8280 N   0  0  0  0  0  0  0  0  0  0  0  0
  141.8320   76.6640  221.3940 H   0  0  0  0  0  0  0  0  0  0  0  0
  138.9699   76.0548  222.1587 H   0  0  0  0  0  0  0  0  0  0  0  0
  140.0332   76.7610  223.4446 H   0  0  0  0  0  0  0  0  0  0  0  0
  140.7217   80.0599  224.0221 H   0  0  0  0  0  0  0  0  0  0  0  0
  140.8928   78.2921  224.1094 H   0  0  0  0  0  0  0  0  0  0  0  0
  143.0913   79.3639  224.2994 H   0  0  0  0  0  0  0  0  0  0  0  0
  142.9841   78.4654  222.7472 H   0  0  0  0  0  0  0  0  0  0  0  0
  143.1906   81.3758  223.2776 H   0  0  0  0  0  0  0  0  0  0  0  0
  143.6883   80.3772  221.8341 H   0  0  0  0  0  0  0  0  0  0  0  0
  141.0490   81.6724  222.4538 H   0  0  0  0  0  0  0  0  0  0  0  0
  142.0926   81.7409  220.9608 H   0  0  0  0  0  0  0  0  0  0  0  0
  139.9554   80.3568  220.6963 H   0  0  0  0  0  0  0  0  0  0  0  0
  142.2300   81.2244  218.8287 H   0  0  0  0  0  0  0  0  0  0  0  0
  143.3760   79.4760  217.2680 H   0  0  0  0  0  0  0  0  0  0  0  0
  142.9825   77.0958  218.2463 H   0  0  0  0  0  0  0  0  0  0  0  0
  143.2426   76.0082  220.5580 H   0  0  0  0  0  0  0  0  0  0  0  0
  145.2174   74.9086  219.5080 H   0  0  0  0  0  0  0  0  0  0  0  0
  146.3988   72.8440  218.8097 H   0  0  0  0  0  0  0  0  0  0  0  0
  144.5387   69.0421  219.5721 H   0  0  0  0  0  0  0  0  0  0  0  0
  142.5967   70.1904  220.6135 H   0  0  0  0  0  0  0  0  0  0  0  0
  1  2  2  0
  2  3  1  0
  3  4  1  0
  4  5  1  0
  5  6  2  0
  5  7  1  0
  7  8  1  0
  8  9  1  0
  9 10  1  0
 10 11  1  0
 11 12  1  0
 12 13  1  0
 13 14  2  0
 14 15  1  0
 15 16  1  0
 16 17  2  0
  2 18  1  0
 18 19  2  0
 19 20  1  0
 20 21  2  0
 21 22  1  0
 22 23  2  0
 23 24  1  0
 23 25  1  0
 25 26  2  0
 26 27  1  0
 27 28  2  0
 12  7  1  0
 17 13  1  0
 28 18  1  0
 27 21  1  0
  3 29  1  0
  4 30  1  0
  4 31  1  0
  8 32  1  0
  8 33  1  0
  9 34  1  0
  9 35  1  0
 10 36  1  0
 10 37  1  0
 11 38  1  0
 11 39  1  0
 12 40  1  6
 14 41  1  0
 15 42  1  0
 16 43  1  0
 19 44  1  0
 20 45  1  0
 22 46  1  0
 25 47  1  0
 26 48  1  0
M  END
>  <smiles>  (21) 
O=C(NCC(=O)N1CCCC[C@H]1c1c[nH]cn1)c1ccc2cc(F)ccc2n1

>  <score_type>  (21) 
oracle

>  <origin>  (21) 
autodockgpu

>  <m_score__min__energy>  (21) 
-8.1500000000000004

>  <m_primary>  (21) 
energy

>  <rmsd>  (21) 
6.884789633202194

>  <m_score__min__rmsd>  (21) 
6.884789633202194

>  <meeko>  (21) 
{"free_energy": -7.33, "intermolecular_energy": -8.83, "internal_energy": -2.23, "cluster_size": 22, "cluster_id": 4, "rank_in_cluster": 4}

>  <energy>  (21) 
-7.43

>  <cluster_rmsd>  (21) 
1.21

>  <cluster>  (21) 
2

$$$$

     RDKit          3D

 48 51  0  0  0  0  0  0  0  0999 V2000
  138.4320   72.2540  222.6030 O   0  0  0  0  0  0  0  0  0  0  0  0
  139.5060   71.5990  222.7740 C   0  0  0  0  0  0  0  0  0  0  0  0
  140.5980   71.7680  221.8820 N   0  0  0  0  0  0  0  0  0  0  0  0
  140.5210   72.6860  220.7610 C   0  0  0  0  0  0  0  0  0  0  0  0
  140.9380   74.0580  221.1500 C   0  0  0  0  0  0  0  0  0  0  0  0
  140.7210   74.4530  222.3260 O   0  0  0  0  0  0  0  0  0  0  0  0
  141.5680   74.8610  220.1580 N   0  0  0  0  0  0  0  0  0  0  0  0
  141.1980   76.2640  219.9430 C   0  0  0  0  0  0  0  0  0  0  0  0
  142.4670   77.0490  219.8970 C   0  0  0  0  0  0  0  0  0  0  0  0
  143.3040   76.5890  218.7240 C   0  0  0  0  0  0  0  0  0  0  0  0
  142.9350   75.2080  218.2350 C   0  0  0  0  0  0  0  0  0  0  0  0
  142.5930   74.2560  219.3580 C   0  0  1  0  0  0  0  0  0  0  0  0
  143.8230   73.8950  220.0780 C   0  0  0  0  0  0  0  0  0  0  0  0
  144.2150   72.6210  220.4770 C   0  0  0  0  0  0  0  0  0  0  0  0
  145.3880   72.7190  221.0990 N   0  0  0  0  0  0  0  0  0  0  0  0
  145.7210   74.0220  221.0890 C   0  0  0  0  0  0  0  0  0  0  0  0
  144.7800   74.7560  220.4700 N   0  0  0  0  0  0  0  0  0  0  0  0
  139.6110   70.6670  223.8950 C   0  0  0  0  0  0  0  0  0  0  0  0
  139.1140   69.3910  223.7830 C   0  0  0  0  0  0  0  0  0  0  0  0
  139.2530   68.5680  224.8910 C   0  0  0  0  0  0  0  0  0  0  0  0
  139.8560   68.9890  226.0580 C   0  0  0  0  0  0  0  0  0  0  0  0
  140.0090   68.2050  227.1690 C   0  0  0  0  0  0  0  0  0  0  0  0
  140.6300   68.7080  228.3050 C   0  0  0  0  0  0  0  0  0  0  0  0
  140.8020   67.9710  229.4190 F   0  0  0  0  0  0  0  0  0  0  0  0
  141.1000   70.0060  228.3260 C   0  0  0  0  0  0  0  0  0  0  0  0
  140.9570   70.8120  227.2230 C   0  0  0  0  0  0  0  0  0  0  0  0
  140.3400   70.2930  226.1120 C   0  0  0  0  0  0  0  0  0  0  0  0
  140.1970   71.0640  225.0390 N   0  0  0  0  0  0  0  0  0  0  0  0
  141.4670   71.1900  222.0820 H   0  0  0  0  0  0  0  0  0  0  0  0
  141.1814   72.3259  219.9583 H   0  0  0  0  0  0  0  0  0  0  0  0
  139.4760   72.7269  220.4201 H   0  0  0  0  0  0  0  0  0  0  0  0
  140.6540   76.3697  218.9928 H   0  0  0  0  0  0  0  0  0  0  0  0
  140.5428   76.6248  220.7495 H   0  0  0  0  0  0  0  0  0  0  0  0
  142.2328   78.1177  219.7832 H   0  0  0  0  0  0  0  0  0  0  0  0
  143.0279   76.8931  220.8304 H   0  0  0  0  0  0  0  0  0  0  0  0
  143.1676   77.3009  217.8966 H   0  0  0  0  0  0  0  0  0  0  0  0
  144.3491   76.5468  219.0646 H   0  0  0  0  0  0  0  0  0  0  0  0
  142.0631   75.2930  217.5697 H   0  0  0  0  0  0  0  0  0  0  0  0
  143.8120   74.7987  217.7121 H   0  0  0  0  0  0  0  0  0  0  0  0
  142.1810   73.3019  218.9976 H   0  0  0  0  0  0  0  0  0  0  0  0
  143.6518   71.6914  220.3075 H   0  0  0  0  0  0  0  0  0  0  0  0
  145.9500   71.9240  221.5200 H   0  0  0  0  0  0  0  0  0  0  0  0
  146.6416   74.4328  221.5291 H   0  0  0  0  0  0  0  0  0  0  0  0
  138.6297   69.0393  222.8601 H   0  0  0  0  0  0  0  0  0  0  0  0
  138.8672   67.5393  224.8369 H   0  0  0  0  0  0  0  0  0  0  0  0
  139.6377   67.1696  227.1624 H   0  0  0  0  0  0  0  0  0  0  0  0
  141.5910   70.3963  229.2297 H   0  0  0  0  0  0  0  0  0  0  0  0
  141.3277   71.8476  227.2298 H   0  0  0  0  0  0  0  0  0  0  0  0
  1  2  2  0
  2  3  1  0
  3  4  1  0
  4  5  1  0
  5  6  2  0
  5  7  1  0
  7  8  1  0
  8  9  1  0
  9 10  1  0
 10 11  1  0
 11 12  1  0
 12 13  1  0
 13 14  2  0
 14 15  1  0
 15 16  1  0
 16 17  2  0
  2 18  1  0
 18 19  2  0
 19 20  1  0
 20 21  2  0
 21 22  1  0
 22 23  2  0
 23 24  1  0
 23 25  1  0
 25 26  2  0
 26 27  1  0
 27 28  2  0
 12  7  1  0
 17 13  1  0
 28 18  1  0
 27 21  1  0
  3 29  1  0
  4 30  1  0
  4 31  1  0
  8 32  1  0
  8 33  1  0
  9 34  1  0
  9 35  1  0
 10 36  1  0
 10 37  1  0
 11 38  1  0
 11 39  1  0
 12 40  1  6
 14 41  1  0
 15 42  1  0
 16 43  1  0
 19 44  1  0
 20 45  1  0
 22 46  1  0
 25 47  1  0
 26 48  1  0
M  END
>  <smiles>  (22) 
O=C(NCC(=O)N1CCCC[C@H]1c1c[nH]cn1)c1ccc2cc(F)ccc2n1

>  <score_type>  (22) 
oracle

>  <origin>  (22) 
autodockgpu

>  <m_score__min__energy>  (22) 
-8.1500000000000004

>  <m_primary>  (22) 
energy

>  <rmsd>  (22) 
2.8683869651287766

>  <m_score__min__rmsd>  (22) 
2.8683869651287766

>  <meeko>  (22) 
{"free_energy": -8.06, "intermolecular_energy": -9.55, "internal_energy": -1.21, "cluster_size": 20, "cluster_id": 2, "rank_in_cluster": 6}

>  <energy>  (22) 
-7.28

>  <cluster_rmsd>  (22) 
0.95

>  <cluster>  (22) 
2

$$$$

     RDKit          3D

 48 51  0  0  0  0  0  0  0  0999 V2000
  141.2940   72.3020  221.5450 O   0  0  0  0  0  0  0  0  0  0  0  0
  140.3310   72.4850  222.3510 C   0  0  0  0  0  0  0  0  0  0  0  0
  139.4370   73.5730  222.1640 N   0  0  0  0  0  0  0  0  0  0  0  0
  139.5970   74.4990  221.0590 C   0  0  0  0  0  0  0  0  0  0  0  0
  140.9150   75.1850  221.1080 C   0  0  0  0  0  0  0  0  0  0  0  0
  141.4180   75.4620  222.2270 O   0  0  0  0  0  0  0  0  0  0  0  0
  141.5420   75.4930  219.8680 N   0  0  0  0  0  0  0  0  0  0  0  0
  141.4390   76.8220  219.2550 C   0  0  0  0  0  0  0  0  0  0  0  0
  142.8210   77.2320  218.8670 C   0  0  0  0  0  0  0  0  0  0  0  0
  143.3640   76.2690  217.8350 C   0  0  0  0  0  0  0  0  0  0  0  0
  142.6520   74.9370  217.8330 C   0  0  0  0  0  0  0  0  0  0  0  0
  142.2920   74.4580  219.2200 C   0  0  1  0  0  0  0  0  0  0  0  0
  143.5150   74.0340  219.9180 C   0  0  0  0  0  0  0  0  0  0  0  0
  143.8800   72.7330  220.2500 C   0  0  0  0  0  0  0  0  0  0  0  0
  145.0550   72.7740  220.8740 N   0  0  0  0  0  0  0  0  0  0  0  0
  145.4150   74.0690  220.9320 C   0  0  0  0  0  0  0  0  0  0  0  0
  144.4890   74.8530  220.3530 N   0  0  0  0  0  0  0  0  0  0  0  0
  140.1460   71.5670  223.4730 C   0  0  0  0  0  0  0  0  0  0  0  0
  139.4740   70.3830  223.2950 C   0  0  0  0  0  0  0  0  0  0  0  0
  139.3410   69.5670  224.4090 C   0  0  0  0  0  0  0  0  0  0  0  0
  139.8500   69.9080  225.6450 C   0  0  0  0  0  0  0  0  0  0  0  0
  139.7370   69.1290  226.7630 C   0  0  0  0  0  0  0  0  0  0  0  0
  140.2810   69.5480  227.9710 C   0  0  0  0  0  0  0  0  0  0  0  0
  140.1930   68.8130  229.0960 F   0  0  0  0  0  0  0  0  0  0  0  0
  140.9420   70.7570  228.0560 C   0  0  0  0  0  0  0  0  0  0  0  0
  141.0680   71.5570  226.9460 C   0  0  0  0  0  0  0  0  0  0  0  0
  140.5220   71.1210  225.7640 C   0  0  0  0  0  0  0  0  0  0  0  0
  140.6390   71.8870  224.6840 N   0  0  0  0  0  0  0  0  0  0  0  0
  138.6520   73.6680  222.8740 H   0  0  0  0  0  0  0  0  0  0  0  0
  139.5185   73.9432  220.1130 H   0  0  0  0  0  0  0  0  0  0  0  0
  138.8083   75.2623  221.1321 H   0  0  0  0  0  0  0  0  0  0  0  0
  140.7940   76.7786  218.3650 H   0  0  0  0  0  0  0  0  0  0  0  0
  140.9975   77.5449  219.9569 H   0  0  0  0  0  0  0  0  0  0  0  0
  142.7967   78.2470  218.4438 H   0  0  0  0  0  0  0  0  0  0  0  0
  143.4692   77.2195  219.7556 H   0  0  0  0  0  0  0  0  0  0  0  0
  143.2557   76.7250  216.8399 H   0  0  0  0  0  0  0  0  0  0  0  0
  144.4170   76.0769  218.0885 H   0  0  0  0  0  0  0  0  0  0  0  0
  141.7275   75.0346  217.2449 H   0  0  0  0  0  0  0  0  0  0  0  0
  143.3395   74.1970  217.3974 H   0  0  0  0  0  0  0  0  0  0  0  0
  141.6448   73.5686  219.2096 H   0  0  0  0  0  0  0  0  0  0  0  0
  143.2971   71.8256  220.0337 H   0  0  0  0  0  0  0  0  0  0  0  0
  145.6010   71.9470  221.2530 H   0  0  0  0  0  0  0  0  0  0  0  0
  146.3437   74.4374  221.3921 H   0  0  0  0  0  0  0  0  0  0  0  0
  139.0612   70.0955  222.3168 H   0  0  0  0  0  0  0  0  0  0  0  0
  138.8087   68.6103  224.3025 H   0  0  0  0  0  0  0  0  0  0  0  0
  139.2119   68.1641  226.7057 H   0  0  0  0  0  0  0  0  0  0  0  0
  141.3696   71.0812  229.0163 H   0  0  0  0  0  0  0  0  0  0  0  0
  141.5928   72.5220  227.0028 H   0  0  0  0  0  0  0  0  0  0  0  0
  1  2  2  0
  2  3  1  0
  3  4  1  0
  4  5  1  0
  5  6  2  0
  5  7  1  0
  7  8  1  0
  8  9  1  0
  9 10  1  0
 10 11  1  0
 11 12  1  0
 12 13  1  0
 13 14  2  0
 14 15  1  0
 15 16  1  0
 16 17  2  0
  2 18  1  0
 18 19  2  0
 19 20  1  0
 20 21  2  0
 21 22  1  0
 22 23  2  0
 23 24  1  0
 23 25  1  0
 25 26  2  0
 26 27  1  0
 27 28  2  0
 12  7  1  0
 17 13  1  0
 28 18  1  0
 27 21  1  0
  3 29  1  0
  4 30  1  0
  4 31  1  0
  8 32  1  0
  8 33  1  0
  9 34  1  0
  9 35  1  0
 10 36  1  0
 10 37  1  0
 11 38  1  0
 11 39  1  0
 12 40  1  6
 14 41  1  0
 15 42  1  0
 16 43  1  0
 19 44  1  0
 20 45  1  0
 22 46  1  0
 25 47  1  0
 26 48  1  0
M  END
>  <smiles>  (23) 
O=C(NCC(=O)N1CCCC[C@H]1c1c[nH]cn1)c1ccc2cc(F)ccc2n1

>  <score_type>  (23) 
oracle

>  <origin>  (23) 
autodockgpu

>  <m_score__min__energy>  (23) 
-8.1500000000000004

>  <m_primary>  (23) 
energy

>  <rmsd>  (23) 
2.7320591311615736

>  <m_score__min__rmsd>  (23) 
2.7320591311615736

>  <meeko>  (23) 
{"free_energy": -8.1, "intermolecular_energy": -9.59, "internal_energy": -1.51, "cluster_size": 20, "cluster_id": 2, "rank_in_cluster": 3}

>  <energy>  (23) 
-7.28

>  <cluster_rmsd>  (23) 
1.16

>  <cluster>  (23) 
2

$$$$

     RDKit          3D

 48 51  0  0  0  0  0  0  0  0999 V2000
  138.6270   74.8060  222.1940 O   0  0  0  0  0  0  0  0  0  0  0  0
  139.7310   75.2880  221.7970 C   0  0  0  0  0  0  0  0  0  0  0  0
  139.8940   76.6940  221.6680 N   0  0  0  0  0  0  0  0  0  0  0  0
  138.8150   77.6100  221.9830 C   0  0  0  0  0  0  0  0  0  0  0  0
  139.1390   78.9990  221.5670 C   0  0  0  0  0  0  0  0  0  0  0  0
  138.3620   79.5980  220.7780 O   0  0  0  0  0  0  0  0  0  0  0  0
  140.3270   79.5830  222.0900 N   0  0  0  0  0  0  0  0  0  0  0  0
  140.7510   79.3690  223.4780 C   0  0  0  0  0  0  0  0  0  0  0  0
  142.1950   78.9920  223.4410 C   0  0  0  0  0  0  0  0  0  0  0  0
  143.0020   80.1340  222.8630 C   0  0  0  0  0  0  0  0  0  0  0  0
  142.1720   81.0930  222.0430 C   0  0  0  0  0  0  0  0  0  0  0  0
  141.1150   80.4000  221.2150 C   0  0  1  0  0  0  0  0  0  0  0  0
  141.7620   79.6880  220.1020 C   0  0  0  0  0  0  0  0  0  0  0  0
  142.3620   80.2560  218.9820 C   0  0  0  0  0  0  0  0  0  0  0  0
  142.8280   79.2730  218.2140 N   0  0  0  0  0  0  0  0  0  0  0  0
  142.5270   78.1200  218.8380 C   0  0  0  0  0  0  0  0  0  0  0  0
  141.8770   78.3520  219.9910 N   0  0  0  0  0  0  0  0  0  0  0  0
  140.8360   74.3880  221.4730 C   0  0  0  0  0  0  0  0  0  0  0  0
  140.6680   73.0280  221.5620 C   0  0  0  0  0  0  0  0  0  0  0  0
  141.7640   72.2420  221.2370 C   0  0  0  0  0  0  0  0  0  0  0  0
  142.9720   72.7770  220.8430 C   0  0  0  0  0  0  0  0  0  0  0  0
  144.0720   72.0330  220.5160 C   0  0  0  0  0  0  0  0  0  0  0  0
  145.2530   72.6540  220.1270 C   0  0  0  0  0  0  0  0  0  0  0  0
  146.3580   71.9600  219.7970 F   0  0  0  0  0  0  0  0  0  0  0  0
  145.3290   74.0310  220.0670 C   0  0  0  0  0  0  0  0  0  0  0  0
  144.2370   74.8000  220.3900 C   0  0  0  0  0  0  0  0  0  0  0  0
  143.0820   74.1640  220.7710 C   0  0  0  0  0  0  0  0  0  0  0  0
  142.0200   74.8980  221.0860 N   0  0  0  0  0  0  0  0  0  0  0  0
  140.8430   77.0310  221.3310 H   0  0  0  0  0  0  0  0  0  0  0  0
  137.9047   77.2833  221.4589 H   0  0  0  0  0  0  0  0  0  0  0  0
  138.6643   77.6030  223.0726 H   0  0  0  0  0  0  0  0  0  0  0  0
  140.6166   80.2924  224.0605 H   0  0  0  0  0  0  0  0  0  0  0  0
  140.1515   78.5790  223.9539 H   0  0  0  0  0  0  0  0  0  0  0  0
  142.5437   78.7770  224.4619 H   0  0  0  0  0  0  0  0  0  0  0  0
  142.3237   78.0984  222.8126 H   0  0  0  0  0  0  0  0  0  0  0  0
  143.4631   80.6911  223.6919 H   0  0  0  0  0  0  0  0  0  0  0  0
  143.7546   79.6956  222.1911 H   0  0  0  0  0  0  0  0  0  0  0  0
  141.6758   81.7989  222.7252 H   0  0  0  0  0  0  0  0  0  0  0  0
  142.8525   81.6046  221.3465 H   0  0  0  0  0  0  0  0  0  0  0  0
  140.4172   81.1048  220.7392 H   0  0  0  0  0  0  0  0  0  0  0  0
  142.4382   81.3323  218.7679 H   0  0  0  0  0  0  0  0  0  0  0  0
  143.3380   79.3790  217.2890 H   0  0  0  0  0  0  0  0  0  0  0  0
  142.7794   77.1201  218.4553 H   0  0  0  0  0  0  0  0  0  0  0  0
  139.7117   72.5838  221.8755 H   0  0  0  0  0  0  0  0  0  0  0  0
  141.6652   71.1480  221.2960 H   0  0  0  0  0  0  0  0  0  0  0  0
  144.0217   70.9351  220.5612 H   0  0  0  0  0  0  0  0  0  0  0  0
  146.2678   74.5148  219.7593 H   0  0  0  0  0  0  0  0  0  0  0  0
  144.2873   75.8979  220.3443 H   0  0  0  0  0  0  0  0  0  0  0  0
  1  2  2  0
  2  3  1  0
  3  4  1  0
  4  5  1  0
  5  6  2  0
  5  7  1  0
  7  8  1  0
  8  9  1  0
  9 10  1  0
 10 11  1  0
 11 12  1  0
 12 13  1  0
 13 14  2  0
 14 15  1  0
 15 16  1  0
 16 17  2  0
  2 18  1  0
 18 19  2  0
 19 20  1  0
 20 21  2  0
 21 22  1  0
 22 23  2  0
 23 24  1  0
 23 25  1  0
 25 26  2  0
 26 27  1  0
 27 28  2  0
 12  7  1  0
 17 13  1  0
 28 18  1  0
 27 21  1  0
  3 29  1  0
  4 30  1  0
  4 31  1  0
  8 32  1  0
  8 33  1  0
  9 34  1  0
  9 35  1  0
 10 36  1  0
 10 37  1  0
 11 38  1  0
 11 39  1  0
 12 40  1  6
 14 41  1  0
 15 42  1  0
 16 43  1  0
 19 44  1  0
 20 45  1  0
 22 46  1  0
 25 47  1  0
 26 48  1  0
M  END
>  <smiles>  (24) 
O=C(NCC(=O)N1CCCC[C@H]1c1c[nH]cn1)c1ccc2cc(F)ccc2n1

>  <score_type>  (24) 
oracle

>  <origin>  (24) 
autodockgpu

>  <m_score__min__energy>  (24) 
-8.1500000000000004

>  <m_primary>  (24) 
energy

>  <rmsd>  (24) 
6.37271336821232

>  <m_score__min__rmsd>  (24) 
6.37271336821232

>  <meeko>  (24) 
{"free_energy": -6.69, "intermolecular_energy": -8.18, "internal_energy": -2.77, "cluster_size": 22, "cluster_id": 4, "rank_in_cluster": 15}

>  <energy>  (24) 
-8.02

>  <cluster_rmsd>  (24) 
0.0

>  <cluster>  (24) 
3

$$$$

     RDKit          3D

 48 51  0  0  0  0  0  0  0  0999 V2000
  140.3610   73.3800  222.5140 O   0  0  0  0  0  0  0  0  0  0  0  0
  140.0250   72.1710  222.3300 C   0  0  0  0  0  0  0  0  0  0  0  0
  139.6970   71.7090  221.0270 N   0  0  0  0  0  0  0  0  0  0  0  0
  139.7360   72.5960  219.8810 C   0  0  0  0  0  0  0  0  0  0  0  0
  141.1330   72.8930  219.4670 C   0  0  0  0  0  0  0  0  0  0  0  0
  141.8920   71.9390  219.1530 O   0  0  0  0  0  0  0  0  0  0  0  0
  141.5390   74.2560  219.4490 N   0  0  0  0  0  0  0  0  0  0  0  0
  140.6350   75.3410  219.8470 C   0  0  0  0  0  0  0  0  0  0  0  0
  141.3890   76.2110  220.7980 C   0  0  0  0  0  0  0  0  0  0  0  0
  142.5830   76.8150  220.0940 C   0  0  0  0  0  0  0  0  0  0  0  0
  142.9960   76.0490  218.8600 C   0  0  0  0  0  0  0  0  0  0  0  0
  142.8770   74.5520  219.0260 C   0  0  1  0  0  0  0  0  0  0  0  0
  143.9400   74.0780  219.9250 C   0  0  0  0  0  0  0  0  0  0  0  0
  144.1380   72.7760  220.3730 C   0  0  0  0  0  0  0  0  0  0  0  0
  145.2060   72.7640  221.1680 N   0  0  0  0  0  0  0  0  0  0  0  0
  145.6640   74.0280  221.2160 C   0  0  0  0  0  0  0  0  0  0  0  0
  144.9060   74.8450  220.4640 N   0  0  0  0  0  0  0  0  0  0  0  0
  139.9770   71.2540  223.4680 C   0  0  0  0  0  0  0  0  0  0  0  0
  139.4120   70.0100  223.3290 C   0  0  0  0  0  0  0  0  0  0  0  0
  139.4060   69.2000  224.4560 C   0  0  0  0  0  0  0  0  0  0  0  0
  139.9340   69.6030  225.6640 C   0  0  0  0  0  0  0  0  0  0  0  0
  139.9450   68.8310  226.7940 C   0  0  0  0  0  0  0  0  0  0  0  0
  140.4990   69.3160  227.9720 C   0  0  0  0  0  0  0  0  0  0  0  0
  140.5300   68.5900  229.1060 F   0  0  0  0  0  0  0  0  0  0  0  0
  141.0460   70.5820  228.0170 C   0  0  0  0  0  0  0  0  0  0  0  0
  141.0470   71.3760  226.8950 C   0  0  0  0  0  0  0  0  0  0  0  0
  140.4940   70.8760  225.7430 C   0  0  0  0  0  0  0  0  0  0  0  0
  140.4900   71.6350  224.6520 N   0  0  0  0  0  0  0  0  0  0  0  0
  139.4250   70.6860  220.9420 H   0  0  0  0  0  0  0  0  0  0  0  0
  139.2086   72.1187  219.0419 H   0  0  0  0  0  0  0  0  0  0  0  0
  139.2513   73.5427  220.1616 H   0  0  0  0  0  0  0  0  0  0  0  0
  140.3304   75.9219  218.9640 H   0  0  0  0  0  0  0  0  0  0  0  0
  139.7251   74.9408  220.3182 H   0  0  0  0  0  0  0  0  0  0  0  0
  140.7311   77.0153  221.1588 H   0  0  0  0  0  0  0  0  0  0  0  0
  141.7340   75.6076  221.6506 H   0  0  0  0  0  0  0  0  0  0  0  0
  142.3309   77.8442  219.7986 H   0  0  0  0  0  0  0  0  0  0  0  0
  143.4282   76.7823  220.7972 H   0  0  0  0  0  0  0  0  0  0  0  0
  142.3541   76.3608  218.0229 H   0  0  0  0  0  0  0  0  0  0  0  0
  144.0559   76.2756  218.6719 H   0  0  0  0  0  0  0  0  0  0  0  0
  143.0324   74.0054  218.0841 H   0  0  0  0  0  0  0  0  0  0  0  0
  143.5180   71.9049  220.1145 H   0  0  0  0  0  0  0  0  0  0  0  0
  145.6160   71.9220  221.6670 H   0  0  0  0  0  0  0  0  0  0  0  0
  146.5425   74.3505  221.7941 H   0  0  0  0  0  0  0  0  0  0  0  0
  138.9857   69.6726  222.3727 H   0  0  0  0  0  0  0  0  0  0  0  0
  138.9622   68.1962  224.3824 H   0  0  0  0  0  0  0  0  0  0  0  0
  139.5124   67.8199  226.7693 H   0  0  0  0  0  0  0  0  0  0  0  0
  141.4829   70.9572  228.9542 H   0  0  0  0  0  0  0  0  0  0  0  0
  141.4802   72.3868  226.9200 H   0  0  0  0  0  0  0  0  0  0  0  0
  1  2  2  0
  2  3  1  0
  3  4  1  0
  4  5  1  0
  5  6  2  0
  5  7  1  0
  7  8  1  0
  8  9  1  0
  9 10  1  0
 10 11  1  0
 11 12  1  0
 12 13  1  0
 13 14  2  0
 14 15  1  0
 15 16  1  0
 16 17  2  0
  2 18  1  0
 18 19  2  0
 19 20  1  0
 20 21  2  0
 21 22  1  0
 22 23  2  0
 23 24  1  0
 23 25  1  0
 25 26  2  0
 26 27  1  0
 27 28  2  0
 12  7  1  0
 17 13  1  0
 28 18  1  0
 27 21  1  0
  3 29  1  0
  4 30  1  0
  4 31  1  0
  8 32  1  0
  8 33  1  0
  9 34  1  0
  9 35  1  0
 10 36  1  0
 10 37  1  0
 11 38  1  0
 11 39  1  0
 12 40  1  6
 14 41  1  0
 15 42  1  0
 16 43  1  0
 19 44  1  0
 20 45  1  0
 22 46  1  0
 25 47  1  0
 26 48  1  0
M  END
>  <smiles>  (25) 
O=C(NCC(=O)N1CCCC[C@H]1c1c[nH]cn1)c1ccc2cc(F)ccc2n1

>  <score_type>  (25) 
oracle

>  <origin>  (25) 
autodockgpu

>  <m_score__min__energy>  (25) 
-8.1500000000000004

>  <m_primary>  (25) 
energy

>  <rmsd>  (25) 
2.8778954433724158

>  <m_score__min__rmsd>  (25) 
2.8778954433724158

>  <meeko>  (25) 
{"free_energy": -7.62, "intermolecular_energy": -9.11, "internal_energy": -1.24, "cluster_size": 20, "cluster_id": 2, "rank_in_cluster": 15}

>  <energy>  (25) 
-7.59

>  <cluster_rmsd>  (25) 
0.98

>  <cluster>  (25) 
3

$$$$

     RDKit          3D

 48 51  0  0  0  0  0  0  0  0999 V2000
  138.7420   74.5950  222.3070 O   0  0  0  0  0  0  0  0  0  0  0  0
  139.8560   75.0790  221.9420 C   0  0  0  0  0  0  0  0  0  0  0  0
  140.0530   76.4860  221.9200 N   0  0  0  0  0  0  0  0  0  0  0  0
  138.9980   77.4010  222.3100 C   0  0  0  0  0  0  0  0  0  0  0  0
  139.1610   78.7300  221.6640 C   0  0  0  0  0  0  0  0  0  0  0  0
  138.3270   79.0920  220.7930 O   0  0  0  0  0  0  0  0  0  0  0  0
  140.2660   79.5290  222.0710 N   0  0  0  0  0  0  0  0  0  0  0  0
  140.7220   79.5710  223.4650 C   0  0  0  0  0  0  0  0  0  0  0  0
  142.2030   79.3790  223.4460 C   0  0  0  0  0  0  0  0  0  0  0  0
  142.8520   80.5190  222.6940 C   0  0  0  0  0  0  0  0  0  0  0  0
  141.9010   81.2380  221.7670 C   0  0  0  0  0  0  0  0  0  0  0  0
  140.9380   80.3050  221.0700 C   0  0  1  0  0  0  0  0  0  0  0  0
  141.6650   79.5290  220.0540 C   0  0  0  0  0  0  0  0  0  0  0  0
  142.2960   80.0240  218.9170 C   0  0  0  0  0  0  0  0  0  0  0  0
  142.8370   79.0010  218.2590 N   0  0  0  0  0  0  0  0  0  0  0  0
  142.5510   77.8940  218.9680 C   0  0  0  0  0  0  0  0  0  0  0  0
  141.8380   78.1950  220.0660 N   0  0  0  0  0  0  0  0  0  0  0  0
  140.9380   74.1800  221.5440 C   0  0  0  0  0  0  0  0  0  0  0  0
  140.7380   72.8210  221.5340 C   0  0  0  0  0  0  0  0  0  0  0  0
  141.8140   72.0360  221.1440 C   0  0  0  0  0  0  0  0  0  0  0  0
  143.0320   72.5720  220.7800 C   0  0  0  0  0  0  0  0  0  0  0  0
  144.1120   71.8280  220.3910 C   0  0  0  0  0  0  0  0  0  0  0  0
  145.3040   72.4490  220.0400 C   0  0  0  0  0  0  0  0  0  0  0  0
  146.3910   71.7560  219.6510 F   0  0  0  0  0  0  0  0  0  0  0  0
  145.4120   73.8250  220.0800 C   0  0  0  0  0  0  0  0  0  0  0  0
  144.3410   74.5930  220.4670 C   0  0  0  0  0  0  0  0  0  0  0  0
  143.1730   73.9570  220.8100 C   0  0  0  0  0  0  0  0  0  0  0  0
  142.1310   74.6900  221.1860 N   0  0  0  0  0  0  0  0  0  0  0  0
  141.0090   76.8260  221.6040 H   0  0  0  0  0  0  0  0  0  0  0  0
  138.0282   76.9757  222.0123 H   0  0  0  0  0  0  0  0  0  0  0  0
  139.0477   77.5395  223.4001 H   0  0  0  0  0  0  0  0  0  0  0  0
  140.4729   80.5434  223.9148 H   0  0  0  0  0  0  0  0  0  0  0  0
  140.2322   78.7876  224.0620 H   0  0  0  0  0  0  0  0  0  0  0  0
  142.5828   79.3579  224.4781 H   0  0  0  0  0  0  0  0  0  0  0  0
  142.4420   78.4285  222.9465 H   0  0  0  0  0  0  0  0  0  0  0  0
  143.2420   81.2428  223.4248 H   0  0  0  0  0  0  0  0  0  0  0  0
  143.6508   80.0879  222.0727 H   0  0  0  0  0  0  0  0  0  0  0  0
  141.3214   81.9652  222.3545 H   0  0  0  0  0  0  0  0  0  0  0  0
  142.5060   81.7275  220.9896 H   0  0  0  0  0  0  0  0  0  0  0  0
  140.1530   80.8397  220.5151 H   0  0  0  0  0  0  0  0  0  0  0  0
  142.3403   81.0804  218.6136 H   0  0  0  0  0  0  0  0  0  0  0  0
  143.3860   79.0500  217.3530 H   0  0  0  0  0  0  0  0  0  0  0  0
  142.8602   76.8767  218.6859 H   0  0  0  0  0  0  0  0  0  0  0  0
  139.7733   72.3771  221.8208 H   0  0  0  0  0  0  0  0  0  0  0  0
  141.6908   70.9431  221.1243 H   0  0  0  0  0  0  0  0  0  0  0  0
  144.0361   70.7312  220.3559 H   0  0  0  0  0  0  0  0  0  0  0  0
  146.3599   74.3082  219.8007 H   0  0  0  0  0  0  0  0  0  0  0  0
  144.4168   75.6898  220.5013 H   0  0  0  0  0  0  0  0  0  0  0  0
  1  2  2  0
  2  3  1  0
  3  4  1  0
  4  5  1  0
  5  6  2  0
  5  7  1  0
  7  8  1  0
  8  9  1  0
  9 10  1  0
 10 11  1  0
 11 12  1  0
 12 13  1  0
 13 14  2  0
 14 15  1  0
 15 16  1  0
 16 17  2  0
  2 18  1  0
 18 19  2  0
 19 20  1  0
 20 21  2  0
 21 22  1  0
 22 23  2  0
 23 24  1  0
 23 25  1  0
 25 26  2  0
 26 27  1  0
 27 28  2  0
 12  7  1  0
 17 13  1  0
 28 18  1  0
 27 21  1  0
  3 29  1  0
  4 30  1  0
  4 31  1  0
  8 32  1  0
  8 33  1  0
  9 34  1  0
  9 35  1  0
 10 36  1  0
 10 37  1  0
 11 38  1  0
 11 39  1  0
 12 40  1  6
 14 41  1  0
 15 42  1  0
 16 43  1  0
 19 44  1  0
 20 45  1  0
 22 46  1  0
 25 47  1  0
 26 48  1  0
M  END
>  <smiles>  (26) 
O=C(NCC(=O)N1CCCC[C@H]1c1c[nH]cn1)c1ccc2cc(F)ccc2n1

>  <score_type>  (26) 
oracle

>  <origin>  (26) 
autodockgpu

>  <m_score__min__energy>  (26) 
-8.1500000000000004

>  <m_primary>  (26) 
energy

>  <rmsd>  (26) 
6.3346551055488085

>  <m_score__min__rmsd>  (26) 
6.3346551055488085

>  <meeko>  (26) 
{"free_energy": -6.69, "intermolecular_energy": -8.19, "internal_energy": -2.64, "cluster_size": 22, "cluster_id": 4, "rank_in_cluster": 14}

>  <energy>  (26) 
-7.55

>  <cluster_rmsd>  (26) 
1.24

>  <cluster>  (26) 
3

$$$$

     RDKit          3D

 48 51  0  0  0  0  0  0  0  0999 V2000
  138.6620   74.7770  222.2330 O   0  0  0  0  0  0  0  0  0  0  0  0
  139.7580   75.2610  221.8170 C   0  0  0  0  0  0  0  0  0  0  0  0
  139.9130   76.6660  221.6750 N   0  0  0  0  0  0  0  0  0  0  0  0
  138.8340   77.5800  221.9970 C   0  0  0  0  0  0  0  0  0  0  0  0
  139.1430   78.9660  221.5610 C   0  0  0  0  0  0  0  0  0  0  0  0
  138.3620   79.5430  220.7590 O   0  0  0  0  0  0  0  0  0  0  0  0
  140.3210   79.5720  222.0790 N   0  0  0  0  0  0  0  0  0  0  0  0
  140.7470   79.3780  223.4700 C   0  0  0  0  0  0  0  0  0  0  0  0
  142.1970   79.0220  223.4370 C   0  0  0  0  0  0  0  0  0  0  0  0
  142.9870   80.1700  222.8490 C   0  0  0  0  0  0  0  0  0  0  0  0
  142.1440   81.1090  222.0190 C   0  0  0  0  0  0  0  0  0  0  0  0
  141.0980   80.3920  221.1970 C   0  0  1  0  0  0  0  0  0  0  0  0
  141.7560   79.6800  220.0910 C   0  0  0  0  0  0  0  0  0  0  0  0
  142.3660   80.2460  218.9760 C   0  0  0  0  0  0  0  0  0  0  0  0
  142.8410   79.2640  218.2140 N   0  0  0  0  0  0  0  0  0  0  0  0
  142.5360   78.1110  218.8370 C   0  0  0  0  0  0  0  0  0  0  0  0
  141.8750   78.3440  219.9840 N   0  0  0  0  0  0  0  0  0  0  0  0
  140.8630   74.3630  221.4850 C   0  0  0  0  0  0  0  0  0  0  0  0
  140.6950   73.0030  221.5640 C   0  0  0  0  0  0  0  0  0  0  0  0
  141.7910   72.2190  221.2320 C   0  0  0  0  0  0  0  0  0  0  0  0
  142.9990   72.7580  220.8400 C   0  0  0  0  0  0  0  0  0  0  0  0
  144.0990   72.0170  220.5070 C   0  0  0  0  0  0  0  0  0  0  0  0
  145.2790   72.6410  220.1220 C   0  0  0  0  0  0  0  0  0  0  0  0
  146.3840   71.9500  219.7850 F   0  0  0  0  0  0  0  0  0  0  0  0
  145.3540   74.0190  220.0710 C   0  0  0  0  0  0  0  0  0  0  0  0
  144.2630   74.7850  220.4020 C   0  0  0  0  0  0  0  0  0  0  0  0
  143.1080   74.1450  220.7790 C   0  0  0  0  0  0  0  0  0  0  0  0
  142.0460   74.8770  221.1010 N   0  0  0  0  0  0  0  0  0  0  0  0
  140.8560   77.0060  221.3220 H   0  0  0  0  0  0  0  0  0  0  0  0
  137.9174   77.2426  221.4910 H   0  0  0  0  0  0  0  0  0  0  0  0
  138.7011   77.5844  223.0889 H   0  0  0  0  0  0  0  0  0  0  0  0
  140.5985   80.3050  224.0433 H   0  0  0  0  0  0  0  0  0  0  0  0
  140.1588   78.5842  223.9536 H   0  0  0  0  0  0  0  0  0  0  0  0
  142.5483   78.8216  224.4599 H   0  0  0  0  0  0  0  0  0  0  0  0
  142.3393   78.1246  222.8169 H   0  0  0  0  0  0  0  0  0  0  0  0
  143.4389   80.7417  223.6730 H   0  0  0  0  0  0  0  0  0  0  0  0
  143.7464   79.7363  222.1818 H   0  0  0  0  0  0  0  0  0  0  0  0
  141.6369   81.8143  222.6938 H   0  0  0  0  0  0  0  0  0  0  0  0
  142.8175   81.6240  221.3182 H   0  0  0  0  0  0  0  0  0  0  0  0
  140.3900   81.0816  220.7142 H   0  0  0  0  0  0  0  0  0  0  0  0
  142.4426   81.3221  218.7610 H   0  0  0  0  0  0  0  0  0  0  0  0
  143.3580   79.3690  217.2940 H   0  0  0  0  0  0  0  0  0  0  0  0
  142.7933   77.1109  218.4581 H   0  0  0  0  0  0  0  0  0  0  0  0
  139.7390   72.5566  221.8751 H   0  0  0  0  0  0  0  0  0  0  0  0
  141.6927   71.1246  221.2834 H   0  0  0  0  0  0  0  0  0  0  0  0
  144.0492   70.9188  220.5443 H   0  0  0  0  0  0  0  0  0  0  0  0
  146.2917   74.5053  219.7639 H   0  0  0  0  0  0  0  0  0  0  0  0
  144.3132   75.8833  220.3660 H   0  0  0  0  0  0  0  0  0  0  0  0
  1  2  2  0
  2  3  1  0
  3  4  1  0
  4  5  1  0
  5  6  2  0
  5  7  1  0
  7  8  1  0
  8  9  1  0
  9 10  1  0
 10 11  1  0
 11 12  1  0
 12 13  1  0
 13 14  2  0
 14 15  1  0
 15 16  1  0
 16 17  2  0
  2 18  1  0
 18 19  2  0
 19 20  1  0
 20 21  2  0
 21 22  1  0
 22 23  2  0
 23 24  1  0
 23 25  1  0
 25 26  2  0
 26 27  1  0
 27 28  2  0
 12  7  1  0
 17 13  1  0
 28 18  1  0
 27 21  1  0
  3 29  1  0
  4 30  1  0
  4 31  1  0
  8 32  1  0
  8 33  1  0
  9 34  1  0
  9 35  1  0
 10 36  1  0
 10 37  1  0
 11 38  1  0
 11 39  1  0
 12 40  1  6
 14 41  1  0
 15 42  1  0
 16 43  1  0
 19 44  1  0
 20 45  1  0
 22 46  1  0
 25 47  1  0
 26 48  1  0
M  END
>  <smiles>  (27) 
O=C(NCC(=O)N1CCCC[C@H]1c1c[nH]cn1)c1ccc2cc(F)ccc2n1

>  <score_type>  (27) 
oracle

>  <origin>  (27) 
autodockgpu

>  <m_score__min__energy>  (27) 
-8.1500000000000004

>  <m_primary>  (27) 
energy

>  <rmsd>  (27) 
6.369994108631999

>  <m_score__min__rmsd>  (27) 
6.369994108631999

>  <meeko>  (27) 
{"free_energy": -6.71, "intermolecular_energy": -8.2, "internal_energy": -2.76, "cluster_size": 22, "cluster_id": 4, "rank_in_cluster": 10}

>  <energy>  (27) 
-7.48

>  <cluster_rmsd>  (27) 
1.23

>  <cluster>  (27) 
3

$$$$

     RDKit          3D

 48 51  0  0  0  0  0  0  0  0999 V2000
  138.6750   74.8090  222.3250 O   0  0  0  0  0  0  0  0  0  0  0  0
  139.7460   75.2820  221.8370 C   0  0  0  0  0  0  0  0  0  0  0  0
  139.8780   76.6790  221.6190 N   0  0  0  0  0  0  0  0  0  0  0  0
  138.8040   77.5980  221.9450 C   0  0  0  0  0  0  0  0  0  0  0  0
  139.1300   78.9880  221.5310 C   0  0  0  0  0  0  0  0  0  0  0  0
  138.3580   79.5850  220.7370 O   0  0  0  0  0  0  0  0  0  0  0  0
  140.3130   79.5730  222.0630 N   0  0  0  0  0  0  0  0  0  0  0  0
  140.7320   79.3540  223.4520 C   0  0  0  0  0  0  0  0  0  0  0  0
  142.1770   78.9810  223.4190 C   0  0  0  0  0  0  0  0  0  0  0  0
  142.9830   80.1280  222.8500 C   0  0  0  0  0  0  0  0  0  0  0  0
  142.1530   81.0890  222.0310 C   0  0  0  0  0  0  0  0  0  0  0  0
  141.1030   80.3960  221.1950 C   0  0  1  0  0  0  0  0  0  0  0  0
  141.7570   79.6910  220.0820 C   0  0  0  0  0  0  0  0  0  0  0  0
  142.3710   80.2660  218.9730 C   0  0  0  0  0  0  0  0  0  0  0  0
  142.8400   79.2890  218.2010 N   0  0  0  0  0  0  0  0  0  0  0  0
  142.5270   78.1320  218.8110 C   0  0  0  0  0  0  0  0  0  0  0  0
  141.8670   78.3560  219.9600 N   0  0  0  0  0  0  0  0  0  0  0  0
  140.8440   74.3780  221.4990 C   0  0  0  0  0  0  0  0  0  0  0  0
  140.6680   73.0180  221.5710 C   0  0  0  0  0  0  0  0  0  0  0  0
  141.7580   72.2290  221.2340 C   0  0  0  0  0  0  0  0  0  0  0  0
  142.9690   72.7620  220.8430 C   0  0  0  0  0  0  0  0  0  0  0  0
  144.0640   72.0150  220.5050 C   0  0  0  0  0  0  0  0  0  0  0  0
  145.2470   72.6340  220.1220 C   0  0  0  0  0  0  0  0  0  0  0  0
  146.3480   71.9370  219.7800 F   0  0  0  0  0  0  0  0  0  0  0  0
  145.3320   74.0110  220.0780 C   0  0  0  0  0  0  0  0  0  0  0  0
  144.2450   74.7830  220.4140 C   0  0  0  0  0  0  0  0  0  0  0  0
  143.0870   74.1490  220.7890 C   0  0  0  0  0  0  0  0  0  0  0  0
  142.0300   74.8860  221.1160 N   0  0  0  0  0  0  0  0  0  0  0  0
  140.8000   77.0090  221.2080 H   0  0  0  0  0  0  0  0  0  0  0  0
  137.8888   77.2762  221.4264 H   0  0  0  0  0  0  0  0  0  0  0  0
  138.6611   77.5879  223.0356 H   0  0  0  0  0  0  0  0  0  0  0  0
  140.5928   80.2744  224.0380 H   0  0  0  0  0  0  0  0  0  0  0  0
  140.1326   78.5604  223.9220 H   0  0  0  0  0  0  0  0  0  0  0  0
  142.5222   78.7618  224.4402 H   0  0  0  0  0  0  0  0  0  0  0  0
  142.3107   78.0908  222.7868 H   0  0  0  0  0  0  0  0  0  0  0  0
  143.4391   80.6823  223.6835 H   0  0  0  0  0  0  0  0  0  0  0  0
  143.7396   79.6951  222.1791 H   0  0  0  0  0  0  0  0  0  0  0  0
  141.6510   81.7895  222.7146 H   0  0  0  0  0  0  0  0  0  0  0  0
  142.8346   81.6074  221.3406 H   0  0  0  0  0  0  0  0  0  0  0  0
  140.4056   81.1006  220.7184 H   0  0  0  0  0  0  0  0  0  0  0  0
  142.4543   81.3438  218.7696 H   0  0  0  0  0  0  0  0  0  0  0  0
  143.3590   79.4010  217.2820 H   0  0  0  0  0  0  0  0  0  0  0  0
  142.7780   77.1345  218.4211 H   0  0  0  0  0  0  0  0  0  0  0  0
  139.7096   72.5759  221.8808 H   0  0  0  0  0  0  0  0  0  0  0  0
  141.6527   71.1350  221.2803 H   0  0  0  0  0  0  0  0  0  0  0  0
  144.0073   70.9169  220.5367 H   0  0  0  0  0  0  0  0  0  0  0  0
  146.2728   74.4925  219.7730 H   0  0  0  0  0  0  0  0  0  0  0  0
  144.3021   75.8811  220.3830 H   0  0  0  0  0  0  0  0  0  0  0  0
  1  2  2  0
  2  3  1  0
  3  4  1  0
  4  5  1  0
  5  6  2  0
  5  7  1  0
  7  8  1  0
  8  9  1  0
  9 10  1  0
 10 11  1  0
 11 12  1  0
 12 13  1  0
 13 14  2  0
 14 15  1  0
 15 16  1  0
 16 17  2  0
  2 18  1  0
 18 19  2  0
 19 20  1  0
 20 21  2  0
 21 22  1  0
 22 23  2  0
 23 24  1  0
 23 25  1  0
 25 26  2  0
 26 27  1  0
 27 28  2  0
 12  7  1  0
 17 13  1  0
 28 18  1  0
 27 21  1  0
  3 29  1  0
  4 30  1  0
  4 31  1  0
  8 32  1  0
  8 33  1  0
  9 34  1  0
  9 35  1  0
 10 36  1  0
 10 37  1  0
 11 38  1  0
 11 39  1  0
 12 40  1  6
 14 41  1  0
 15 42  1  0
 16 43  1  0
 19 44  1  0
 20 45  1  0
 22 46  1  0
 25 47  1  0
 26 48  1  0
M  END
>  <smiles>  (28) 
O=C(NCC(=O)N1CCCC[C@H]1c1c[nH]cn1)c1ccc2cc(F)ccc2n1

>  <score_type>  (28) 
oracle

>  <origin>  (28) 
autodockgpu

>  <m_score__min__energy>  (28) 
-8.1500000000000004

>  <m_primary>  (28) 
energy

>  <rmsd>  (28) 
6.361118334321393

>  <m_score__min__rmsd>  (28) 
6.361118334321393

>  <meeko>  (28) 
{"free_energy": -6.72, "intermolecular_energy": -8.21, "internal_energy": -2.76, "cluster_size": 22, "cluster_id": 4, "rank_in_cluster": 8}

>  <energy>  (28) 
-7.1

>  <cluster_rmsd>  (28) 
1.42

>  <cluster>  (28) 
3

$$$$

     RDKit          3D

 48 51  0  0  0  0  0  0  0  0999 V2000
  138.1310   76.5520  222.2500 O   0  0  0  0  0  0  0  0  0  0  0  0
  139.1130   76.7150  221.4630 C   0  0  0  0  0  0  0  0  0  0  0  0
  139.2400   77.9180  220.7160 N   0  0  0  0  0  0  0  0  0  0  0  0
  138.2620   78.9830  220.8300 C   0  0  0  0  0  0  0  0  0  0  0  0
  138.8930   80.2590  221.2590 C   0  0  0  0  0  0  0  0  0  0  0  0
  138.3180   81.3450  220.9860 O   0  0  0  0  0  0  0  0  0  0  0  0
  140.1270   80.1790  221.9620 N   0  0  0  0  0  0  0  0  0  0  0  0
  140.2310   79.5440  223.2800 C   0  0  0  0  0  0  0  0  0  0  0  0
  141.3970   78.6130  223.2260 C   0  0  0  0  0  0  0  0  0  0  0  0
  142.6630   79.4010  222.9720 C   0  0  0  0  0  0  0  0  0  0  0  0
  142.4060   80.7580  222.3600 C   0  0  0  0  0  0  0  0  0  0  0  0
  141.2900   80.7440  221.3420 C   0  0  1  0  0  0  0  0  0  0  0  0
  141.7520   80.0570  220.1260 C   0  0  0  0  0  0  0  0  0  0  0  0
  142.2490   80.6480  218.9690 C   0  0  0  0  0  0  0  0  0  0  0  0
  142.5560   79.6830  218.1050 N   0  0  0  0  0  0  0  0  0  0  0  0
  142.2570   78.5170  218.7070 C   0  0  0  0  0  0  0  0  0  0  0  0
  141.7660   78.7240  219.9410 N   0  0  0  0  0  0  0  0  0  0  0  0
  140.1130   75.6580  221.3280 C   0  0  0  0  0  0  0  0  0  0  0  0
  139.8450   74.3910  221.7840 C   0  0  0  0  0  0  0  0  0  0  0  0
  140.8450   73.4440  221.6200 C   0  0  0  0  0  0  0  0  0  0  0  0
  142.0580   73.7380  221.0310 C   0  0  0  0  0  0  0  0  0  0  0  0
  143.0660   72.8310  220.8530 C   0  0  0  0  0  0  0  0  0  0  0  0
  144.2570   73.2120  220.2480 C   0  0  0  0  0  0  0  0  0  0  0  0
  145.2750   72.3510  220.0540 F   0  0  0  0  0  0  0  0  0  0  0  0
  144.4380   74.5120  219.8200 C   0  0  0  0  0  0  0  0  0  0  0  0
  143.4400   75.4410  219.9880 C   0  0  0  0  0  0  0  0  0  0  0  0
  142.2710   75.0410  220.5880 C   0  0  0  0  0  0  0  0  0  0  0  0
  141.2990   75.9320  220.7550 N   0  0  0  0  0  0  0  0  0  0  0  0
  140.0850   77.9900  220.0760 H   0  0  0  0  0  0  0  0  0  0  0  0
  137.7814   79.1331  219.8520 H   0  0  0  0  0  0  0  0  0  0  0  0
  137.5217   78.6917  221.5897 H   0  0  0  0  0  0  0  0  0  0  0  0
  140.3929   80.3074  224.0553 H   0  0  0  0  0  0  0  0  0  0  0  0
  139.3069   79.0013  223.5280 H   0  0  0  0  0  0  0  0  0  0  0  0
  141.4839   78.0790  224.1837 H   0  0  0  0  0  0  0  0  0  0  0  0
  141.2484   77.8876  222.4126 H   0  0  0  0  0  0  0  0  0  0  0  0
  143.1849   79.5426  223.9299 H   0  0  0  0  0  0  0  0  0  0  0  0
  143.2669   78.8272  222.2536 H   0  0  0  0  0  0  0  0  0  0  0  0
  142.1389   81.4601  223.1635 H   0  0  0  0  0  0  0  0  0  0  0  0
  143.3247   81.0628  221.8373 H   0  0  0  0  0  0  0  0  0  0  0  0
  141.0036   81.7531  221.0107 H   0  0  0  0  0  0  0  0  0  0  0  0
  142.3680   81.7280  218.7974 H   0  0  0  0  0  0  0  0  0  0  0  0
  142.9570   79.8080  217.1310 H   0  0  0  0  0  0  0  0  0  0  0  0
  142.3960   77.5262  218.2499 H   0  0  0  0  0  0  0  0  0  0  0  0
  138.8840   74.1392  222.2564 H   0  0  0  0  0  0  0  0  0  0  0  0
  140.6641   72.4181  221.9733 H   0  0  0  0  0  0  0  0  0  0  0  0
  142.9327   71.7928  221.1912 H   0  0  0  0  0  0  0  0  0  0  0  0
  145.3848   74.8050  219.3427 H   0  0  0  0  0  0  0  0  0  0  0  0
  143.5738   76.4793  219.6504 H   0  0  0  0  0  0  0  0  0  0  0  0
  1  2  2  0
  2  3  1  0
  3  4  1  0
  4  5  1  0
  5  6  2  0
  5  7  1  0
  7  8  1  0
  8  9  1  0
  9 10  1  0
 10 11  1  0
 11 12  1  0
 12 13  1  0
 13 14  2  0
 14 15  1  0
 15 16  1  0
 16 17  2  0
  2 18  1  0
 18 19  2  0
 19 20  1  0
 20 21  2  0
 21 22  1  0
 22 23  2  0
 23 24  1  0
 23 25  1  0
 25 26  2  0
 26 27  1  0
 27 28  2  0
 12  7  1  0
 17 13  1  0
 28 18  1  0
 27 21  1  0
  3 29  1  0
  4 30  1  0
  4 31  1  0
  8 32  1  0
  8 33  1  0
  9 34  1  0
  9 35  1  0
 10 36  1  0
 10 37  1  0
 11 38  1  0
 11 39  1  0
 12 40  1  6
 14 41  1  0
 15 42  1  0
 16 43  1  0
 19 44  1  0
 20 45  1  0
 22 46  1  0
 25 47  1  0
 26 48  1  0
M  END
>  <smiles>  (29) 
O=C(NCC(=O)N1CCCC[C@H]1c1c[nH]cn1)c1ccc2cc(F)ccc2n1

>  <score_type>  (29) 
oracle

>  <origin>  (29) 
autodockgpu

>  <m_score__min__energy>  (29) 
-8.1500000000000004

>  <m_primary>  (29) 
energy

>  <rmsd>  (29) 
6.637312586693181

>  <m_score__min__rmsd>  (29) 
6.637312586693181

>  <meeko>  (29) 
{"free_energy": -5.94, "intermolecular_energy": -7.43, "internal_energy": -3.2, "cluster_size": 22, "cluster_id": 4, "rank_in_cluster": 22}

>  <energy>  (29) 
-7.36

>  <cluster_rmsd>  (29) 
0.0

>  <cluster>  (29) 
4

$$$$

     RDKit          3D

 48 51  0  0  0  0  0  0  0  0999 V2000
  140.9610   71.9110  221.1860 O   0  0  0  0  0  0  0  0  0  0  0  0
  140.3920   72.3670  222.2240 C   0  0  0  0  0  0  0  0  0  0  0  0
  139.9750   73.7240  222.2760 N   0  0  0  0  0  0  0  0  0  0  0  0
  140.1840   74.6200  221.1540 C   0  0  0  0  0  0  0  0  0  0  0  0
  139.9990   76.0410  221.5490 C   0  0  0  0  0  0  0  0  0  0  0  0
  139.5650   76.3030  222.7010 O   0  0  0  0  0  0  0  0  0  0  0  0
  140.3260   77.0380  220.5880 N   0  0  0  0  0  0  0  0  0  0  0  0
  139.4160   77.3900  219.4930 C   0  0  0  0  0  0  0  0  0  0  0  0
  139.3150   78.8790  219.4700 C   0  0  0  0  0  0  0  0  0  0  0  0
  140.6740   79.4740  219.1740 C   0  0  0  0  0  0  0  0  0  0  0  0
  141.8140   78.5290  219.4710 C   0  0  0  0  0  0  0  0  0  0  0  0
  141.5890   77.7050  220.7170 C   0  0  1  0  0  0  0  0  0  0  0  0
  141.7270   78.5680  221.9000 C   0  0  0  0  0  0  0  0  0  0  0  0
  142.2040   79.8750  221.9310 C   0  0  0  0  0  0  0  0  0  0  0  0
  142.1700   80.3040  223.1910 N   0  0  0  0  0  0  0  0  0  0  0  0
  141.6840   79.2900  223.9290 C   0  0  0  0  0  0  0  0  0  0  0  0
  141.4070   78.2230  223.1610 N   0  0  0  0  0  0  0  0  0  0  0  0
  140.1680   71.4860  223.3700 C   0  0  0  0  0  0  0  0  0  0  0  0
  139.5380   70.2780  223.2000 C   0  0  0  0  0  0  0  0  0  0  0  0
  139.3640   69.5000  224.3350 C   0  0  0  0  0  0  0  0  0  0  0  0
  139.7940   69.9010  225.5830 C   0  0  0  0  0  0  0  0  0  0  0  0
  139.6390   69.1600  226.7230 C   0  0  0  0  0  0  0  0  0  0  0  0
  140.1030   69.6390  227.9420 C   0  0  0  0  0  0  0  0  0  0  0  0
  139.9710   68.9440  229.0880 F   0  0  0  0  0  0  0  0  0  0  0  0
  140.7260   70.8680  228.0170 C   0  0  0  0  0  0  0  0  0  0  0  0
  140.8930   71.6300  226.8860 C   0  0  0  0  0  0  0  0  0  0  0  0
  140.4270   71.1360  225.6930 C   0  0  0  0  0  0  0  0  0  0  0  0
  140.5830   71.8650  224.5920 N   0  0  0  0  0  0  0  0  0  0  0  0
  139.5050   74.0410  223.1740 H   0  0  0  0  0  0  0  0  0  0  0  0
  141.2077   74.4849  220.7748 H   0  0  0  0  0  0  0  0  0  0  0  0
  139.4433   74.3787  220.3774 H   0  0  0  0  0  0  0  0  0  0  0  0
  139.8169   77.0239  218.5363 H   0  0  0  0  0  0  0  0  0  0  0  0
  138.4271   76.9321  219.6423 H   0  0  0  0  0  0  0  0  0  0  0  0
  138.6029   79.1859  218.6897 H   0  0  0  0  0  0  0  0  0  0  0  0
  138.9642   79.2371  220.4492 H   0  0  0  0  0  0  0  0  0  0  0  0
  140.7127   79.7447  218.1085 H   0  0  0  0  0  0  0  0  0  0  0  0
  140.7968   80.3504  219.8274 H   0  0  0  0  0  0  0  0  0  0  0  0
  141.9351   77.8466  218.6168 H   0  0  0  0  0  0  0  0  0  0  0  0
  142.7127   79.1406  219.6391 H   0  0  0  0  0  0  0  0  0  0  0  0
  142.3439   76.9156  220.8477 H   0  0  0  0  0  0  0  0  0  0  0  0
  142.5501   80.4548  221.0626 H   0  0  0  0  0  0  0  0  0  0  0  0
  142.4690   81.2590  223.5430 H   0  0  0  0  0  0  0  0  0  0  0  0
  141.5332   79.3292  225.0179 H   0  0  0  0  0  0  0  0  0  0  0  0
  139.1884   69.9436  222.2121 H   0  0  0  0  0  0  0  0  0  0  0  0
  138.8637   68.5254  224.2362 H   0  0  0  0  0  0  0  0  0  0  0  0
  139.1439   68.1789  226.6740 H   0  0  0  0  0  0  0  0  0  0  0  0
  141.0904   71.2391  228.9863 H   0  0  0  0  0  0  0  0  0  0  0  0
  141.3877   72.6113  226.9352 H   0  0  0  0  0  0  0  0  0  0  0  0
  1  2  2  0
  2  3  1  0
  3  4  1  0
  4  5  1  0
  5  6  2  0
  5  7  1  0
  7  8  1  0
  8  9  1  0
  9 10  1  0
 10 11  1  0
 11 12  1  0
 12 13  1  0
 13 14  2  0
 14 15  1  0
 15 16  1  0
 16 17  2  0
  2 18  1  0
 18 19  2  0
 19 20  1  0
 20 21  2  0
 21 22  1  0
 22 23  2  0
 23 24  1  0
 23 25  1  0
 25 26  2  0
 26 27  1  0
 27 28  2  0
 12  7  1  0
 17 13  1  0
 28 18  1  0
 27 21  1  0
  3 29  1  0
  4 30  1  0
  4 31  1  0
  8 32  1  0
  8 33  1  0
  9 34  1  0
  9 35  1  0
 10 36  1  0
 10 37  1  0
 11 38  1  0
 11 39  1  0
 12 40  1  1
 14 41  1  0
 15 42  1  0
 16 43  1  0
 19 44  1  0
 20 45  1  0
 22 46  1  0
 25 47  1  0
 26 48  1  0
M  END
>  <smiles>  (30) 
O=C(NCC(=O)N1CCCC[C@H]1c1c[nH]cn1)c1ccc2cc(F)ccc2n1

>  <score_type>  (30) 
oracle

>  <origin>  (30) 
autodockgpu

>  <m_score__min__energy>  (30) 
-8.1500000000000004

>  <m_primary>  (30) 
energy

>  <rmsd>  (30) 
1.9774517548015376

>  <m_score__min__rmsd>  (30) 
1.9774517548015376

>  <meeko>  (30) 
{"free_energy": -7.55, "intermolecular_energy": -9.04, "internal_energy": -1.61, "cluster_size": 5, "cluster_id": 3, "rank_in_cluster": 3}

>  <energy>  (30) 
-7.36

>  <cluster_rmsd>  (30) 
0.04

>  <cluster>  (30) 
4

$$$$

     RDKit          3D

 48 51  0  0  0  0  0  0  0  0999 V2000
  138.5530   74.8110  222.0660 O   0  0  0  0  0  0  0  0  0  0  0  0
  139.6870   75.2910  221.7600 C   0  0  0  0  0  0  0  0  0  0  0  0
  139.8820   76.6970  221.7180 N   0  0  0  0  0  0  0  0  0  0  0  0
  138.8030   77.6170  222.0210 C   0  0  0  0  0  0  0  0  0  0  0  0
  139.1220   78.9990  221.5740 C   0  0  0  0  0  0  0  0  0  0  0  0
  138.3400   79.5780  220.7760 O   0  0  0  0  0  0  0  0  0  0  0  0
  140.3100   79.5970  222.0810 N   0  0  0  0  0  0  0  0  0  0  0  0
  140.7350   79.4210  223.4740 C   0  0  0  0  0  0  0  0  0  0  0  0
  142.1790   79.0430  223.4460 C   0  0  0  0  0  0  0  0  0  0  0  0
  142.9850   80.1690  222.8360 C   0  0  0  0  0  0  0  0  0  0  0  0
  142.1540   81.1050  221.9910 C   0  0  0  0  0  0  0  0  0  0  0  0
  141.0970   80.3890  221.1820 C   0  0  1  0  0  0  0  0  0  0  0  0
  141.7430   79.6470  220.0890 C   0  0  0  0  0  0  0  0  0  0  0  0
  142.3440   80.1840  218.9550 C   0  0  0  0  0  0  0  0  0  0  0  0
  142.8100   79.1810  218.2130 N   0  0  0  0  0  0  0  0  0  0  0  0
  142.5060   78.0460  218.8670 C   0  0  0  0  0  0  0  0  0  0  0  0
  141.8570   78.3090  220.0140 N   0  0  0  0  0  0  0  0  0  0  0  0
  140.7920   74.3860  221.4500 C   0  0  0  0  0  0  0  0  0  0  0  0
  140.6180   73.0270  221.5380 C   0  0  0  0  0  0  0  0  0  0  0  0
  141.7160   72.2360  221.2280 C   0  0  0  0  0  0  0  0  0  0  0  0
  142.9300   72.7670  220.8470 C   0  0  0  0  0  0  0  0  0  0  0  0
  144.0320   72.0190  220.5340 C   0  0  0  0  0  0  0  0  0  0  0  0
  145.2190   72.6360  220.1590 C   0  0  0  0  0  0  0  0  0  0  0  0
  146.3260   71.9380  219.8430 F   0  0  0  0  0  0  0  0  0  0  0  0
  145.3000   74.0120  220.0980 C   0  0  0  0  0  0  0  0  0  0  0  0
  144.2070   74.7850  220.4070 C   0  0  0  0  0  0  0  0  0  0  0  0
  143.0450   74.1530  220.7750 C   0  0  0  0  0  0  0  0  0  0  0  0
  141.9820   74.8920  221.0770 N   0  0  0  0  0  0  0  0  0  0  0  0
  140.8550   77.0320  221.4550 H   0  0  0  0  0  0  0  0  0  0  0  0
  137.8901   77.2779  221.5095 H   0  0  0  0  0  0  0  0  0  0  0  0
  138.6589   77.6321  223.1114 H   0  0  0  0  0  0  0  0  0  0  0  0
  140.6011   80.3599  224.0312 H   0  0  0  0  0  0  0  0  0  0  0  0
  140.1358   78.6444  223.9718 H   0  0  0  0  0  0  0  0  0  0  0  0
  142.5288   78.8561  224.4720 H   0  0  0  0  0  0  0  0  0  0  0  0
  142.3073   78.1323  222.8425 H   0  0  0  0  0  0  0  0  0  0  0  0
  143.4469   80.7487  223.6488 H   0  0  0  0  0  0  0  0  0  0  0  0
  143.7368   79.7125  222.1755 H   0  0  0  0  0  0  0  0  0  0  0  0
  141.6575   81.8285  222.6543 H   0  0  0  0  0  0  0  0  0  0  0  0
  142.8339   81.5984  221.2808 H   0  0  0  0  0  0  0  0  0  0  0  0
  140.3991   81.0795  220.6859 H   0  0  0  0  0  0  0  0  0  0  0  0
  142.4211   81.2542  218.7126 H   0  0  0  0  0  0  0  0  0  0  0  0
  143.3190   79.2620  217.2860 H   0  0  0  0  0  0  0  0  0  0  0  0
  142.7556   77.0358  218.5103 H   0  0  0  0  0  0  0  0  0  0  0  0
  139.6561   72.5866  221.8393 H   0  0  0  0  0  0  0  0  0  0  0  0
  141.6134   71.1425  221.2887 H   0  0  0  0  0  0  0  0  0  0  0  0
  143.9778   70.9213  220.5796 H   0  0  0  0  0  0  0  0  0  0  0  0
  146.2439   74.4923  219.8007 H   0  0  0  0  0  0  0  0  0  0  0  0
  144.2615   75.8827  220.3607 H   0  0  0  0  0  0  0  0  0  0  0  0
  1  2  2  0
  2  3  1  0
  3  4  1  0
  4  5  1  0
  5  6  2  0
  5  7  1  0
  7  8  1  0
  8  9  1  0
  9 10  1  0
 10 11  1  0
 11 12  1  0
 12 13  1  0
 13 14  2  0
 14 15  1  0
 15 16  1  0
 16 17  2  0
  2 18  1  0
 18 19  2  0
 19 20  1  0
 20 21  2  0
 21 22  1  0
 22 23  2  0
 23 24  1  0
 23 25  1  0
 25 26  2  0
 26 27  1  0
 27 28  2  0
 12  7  1  0
 17 13  1  0
 28 18  1  0
 27 21  1  0
  3 29  1  0
  4 30  1  0
  4 31  1  0
  8 32  1  0
  8 33  1  0
  9 34  1  0
  9 35  1  0
 10 36  1  0
 10 37  1  0
 11 38  1  0
 11 39  1  0
 12 40  1  6
 14 41  1  0
 15 42  1  0
 16 43  1  0
 19 44  1  0
 20 45  1  0
 22 46  1  0
 25 47  1  0
 26 48  1  0
M  END
>  <smiles>  (31) 
O=C(NCC(=O)N1CCCC[C@H]1c1c[nH]cn1)c1ccc2cc(F)ccc2n1

>  <score_type>  (31) 
oracle

>  <origin>  (31) 
autodockgpu

>  <m_score__min__energy>  (31) 
-8.1500000000000004

>  <m_primary>  (31) 
energy

>  <rmsd>  (31) 
6.356541101078443

>  <m_score__min__rmsd>  (31) 
6.356541101078443

>  <meeko>  (31) 
{"free_energy": -6.68, "intermolecular_energy": -8.18, "internal_energy": -2.77, "cluster_size": 22, "cluster_id": 4, "rank_in_cluster": 17}

>  <energy>  (31) 
-7.34

>  <cluster_rmsd>  (31) 
0.06

>  <cluster>  (31) 
4

$$$$

     RDKit          3D

 48 51  0  0  0  0  0  0  0  0999 V2000
  140.1720   71.5120  221.0370 O   0  0  0  0  0  0  0  0  0  0  0  0
  139.9530   72.0010  222.1870 C   0  0  0  0  0  0  0  0  0  0  0  0
  139.7370   73.3970  222.3430 N   0  0  0  0  0  0  0  0  0  0  0  0
  139.7600   74.2950  221.2050 C   0  0  0  0  0  0  0  0  0  0  0  0
  140.9570   75.1760  221.2280 C   0  0  0  0  0  0  0  0  0  0  0  0
  141.3640   75.6240  222.3310 O   0  0  0  0  0  0  0  0  0  0  0  0
  141.5830   75.4670  219.9840 N   0  0  0  0  0  0  0  0  0  0  0  0
  141.4950   76.7930  219.3620 C   0  0  0  0  0  0  0  0  0  0  0  0
  142.8810   77.1820  218.9650 C   0  0  0  0  0  0  0  0  0  0  0  0
  143.4070   76.2040  217.9380 C   0  0  0  0  0  0  0  0  0  0  0  0
  142.6770   74.8820  217.9480 C   0  0  0  0  0  0  0  0  0  0  0  0
  142.3160   74.4170  219.3400 C   0  0  1  0  0  0  0  0  0  0  0  0
  143.5360   73.9820  220.0360 C   0  0  0  0  0  0  0  0  0  0  0  0
  143.8090   72.7090  220.5290 C   0  0  0  0  0  0  0  0  0  0  0  0
  145.0160   72.7270  221.0890 N   0  0  0  0  0  0  0  0  0  0  0  0
  145.4860   73.9800  220.9520 C   0  0  0  0  0  0  0  0  0  0  0  0
  144.5980   74.7600  220.3110 N   0  0  0  0  0  0  0  0  0  0  0  0
  139.9250   71.1190  223.3520 C   0  0  0  0  0  0  0  0  0  0  0  0
  139.4600   69.8320  223.2330 C   0  0  0  0  0  0  0  0  0  0  0  0
  139.4660   69.0580  224.3850 C   0  0  0  0  0  0  0  0  0  0  0  0
  139.9120   69.5370  225.6000 C   0  0  0  0  0  0  0  0  0  0  0  0
  139.9310   68.8020  226.7540 C   0  0  0  0  0  0  0  0  0  0  0  0
  140.3980   69.3630  227.9360 C   0  0  0  0  0  0  0  0  0  0  0  0
  140.4350   68.6760  229.0940 F   0  0  0  0  0  0  0  0  0  0  0  0
  140.8480   70.6670  227.9600 C   0  0  0  0  0  0  0  0  0  0  0  0
  140.8380   71.4250  226.8140 C   0  0  0  0  0  0  0  0  0  0  0  0
  140.3720   70.8500  225.6570 C   0  0  0  0  0  0  0  0  0  0  0  0
  140.3580   71.5730  224.5430 N   0  0  0  0  0  0  0  0  0  0  0  0
  139.5590   73.7400  223.3330 H   0  0  0  0  0  0  0  0  0  0  0  0
  139.7727   73.6994  220.2803 H   0  0  0  0  0  0  0  0  0  0  0  0
  138.8635   74.9309  221.2500 H   0  0  0  0  0  0  0  0  0  0  0  0
  140.8455   76.7519  218.4752 H   0  0  0  0  0  0  0  0  0  0  0  0
  141.0663   77.5266  220.0606 H   0  0  0  0  0  0  0  0  0  0  0  0
  142.8681   78.1940  218.5341 H   0  0  0  0  0  0  0  0  0  0  0  0
  143.5328   77.1678  219.8510 H   0  0  0  0  0  0  0  0  0  0  0  0
  143.3014   76.6543  216.9400 H   0  0  0  0  0  0  0  0  0  0  0  0
  144.4581   75.9993  218.1894 H   0  0  0  0  0  0  0  0  0  0  0  0
  141.7516   74.9882  217.3629 H   0  0  0  0  0  0  0  0  0  0  0  0
  143.3527   74.1298  217.5149 H   0  0  0  0  0  0  0  0  0  0  0  0
  141.6568   73.5364  219.3381 H   0  0  0  0  0  0  0  0  0  0  0  0
  143.1411   71.8372  220.4663 H   0  0  0  0  0  0  0  0  0  0  0  0
  145.5110   71.9120  221.5550 H   0  0  0  0  0  0  0  0  0  0  0  0
  146.4664   74.3211  221.3160 H   0  0  0  0  0  0  0  0  0  0  0  0
  139.1007   69.4345  222.2723 H   0  0  0  0  0  0  0  0  0  0  0  0
  139.1009   68.0220  224.3273 H   0  0  0  0  0  0  0  0  0  0  0  0
  139.5746   67.7614  226.7457 H   0  0  0  0  0  0  0  0  0  0  0  0
  141.2165   71.1018  228.9008 H   0  0  0  0  0  0  0  0  0  0  0  0
  141.1941   72.4657  226.8229 H   0  0  0  0  0  0  0  0  0  0  0  0
  1  2  2  0
  2  3  1  0
  3  4  1  0
  4  5  1  0
  5  6  2  0
  5  7  1  0
  7  8  1  0
  8  9  1  0
  9 10  1  0
 10 11  1  0
 11 12  1  0
 12 13  1  0
 13 14  2  0
 14 15  1  0
 15 16  1  0
 16 17  2  0
  2 18  1  0
 18 19  2  0
 19 20  1  0
 20 21  2  0
 21 22  1  0
 22 23  2  0
 23 24  1  0
 23 25  1  0
 25 26  2  0
 26 27  1  0
 27 28  2  0
 12  7  1  0
 17 13  1  0
 28 18  1  0
 27 21  1  0
  3 29  1  0
  4 30  1  0
  4 31  1  0
  8 32  1  0
  8 33  1  0
  9 34  1  0
  9 35  1  0
 10 36  1  0
 10 37  1  0
 11 38  1  0
 11 39  1  0
 12 40  1  6
 14 41  1  0
 15 42  1  0
 16 43  1  0
 19 44  1  0
 20 45  1  0
 22 46  1  0
 25 47  1  0
 26 48  1  0
M  END
>  <smiles>  (32) 
O=C(NCC(=O)N1CCCC[C@H]1c1c[nH]cn1)c1ccc2cc(F)ccc2n1

>  <score_type>  (32) 
oracle

>  <origin>  (32) 
autodockgpu

>  <m_score__min__energy>  (32) 
-8.1500000000000004

>  <m_primary>  (32) 
energy

>  <rmsd>  (32) 
2.7046670700016726

>  <m_score__min__rmsd>  (32) 
2.7046670700016726

>  <meeko>  (32) 
{"free_energy": -7.92, "intermolecular_energy": -9.41, "internal_energy": -1.69, "cluster_size": 20, "cluster_id": 2, "rank_in_cluster": 9}

>  <energy>  (32) 
-7.33

>  <cluster_rmsd>  (32) 
0.05

>  <cluster>  (32) 
4

$$$$

     RDKit          3D

 48 51  0  0  0  0  0  0  0  0999 V2000
  138.4530   71.0030  221.4600 O   0  0  0  0  0  0  0  0  0  0  0  0
  139.0230   71.4610  222.4970 C   0  0  0  0  0  0  0  0  0  0  0  0
  139.4060   72.8280  222.5600 N   0  0  0  0  0  0  0  0  0  0  0  0
  139.1590   73.7320  221.4530 C   0  0  0  0  0  0  0  0  0  0  0  0
  139.8170   75.0470  221.6650 C   0  0  0  0  0  0  0  0  0  0  0  0
  141.0370   75.0770  221.9750 O   0  0  0  0  0  0  0  0  0  0  0  0
  139.0200   76.2150  221.5050 N   0  0  0  0  0  0  0  0  0  0  0  0
  137.6190   76.2650  221.9380 C   0  0  0  0  0  0  0  0  0  0  0  0
  137.4500   77.5200  222.7270 C   0  0  0  0  0  0  0  0  0  0  0  0
  137.7210   78.7160  221.8420 C   0  0  0  0  0  0  0  0  0  0  0  0
  138.5420   78.3770  220.6200 C   0  0  0  0  0  0  0  0  0  0  0  0
  139.6280   77.3640  220.9010 C   0  0  1  0  0  0  0  0  0  0  0  0
  140.6920   78.0020  221.6910 C   0  0  0  0  0  0  0  0  0  0  0  0
  141.8780   78.5470  221.2090 C   0  0  0  0  0  0  0  0  0  0  0  0
  142.5690   79.0250  222.2420 N   0  0  0  0  0  0  0  0  0  0  0  0
  141.8330   78.7840  223.3420 C   0  0  0  0  0  0  0  0  0  0  0  0
  140.6840   78.1620  223.0260 N   0  0  0  0  0  0  0  0  0  0  0  0
  139.2840   70.5720  223.6270 C   0  0  0  0  0  0  0  0  0  0  0  0
  138.9140   69.2510  223.5670 C   0  0  0  0  0  0  0  0  0  0  0  0
  139.1970   68.4730  224.6810 C   0  0  0  0  0  0  0  0  0  0  0  0
  139.8170   68.9810  225.8040 C   0  0  0  0  0  0  0  0  0  0  0  0
  140.1100   68.2440  226.9190 C   0  0  0  0  0  0  0  0  0  0  0  0
  140.7380   68.8350  228.0080 C   0  0  0  0  0  0  0  0  0  0  0  0
  141.0450   68.1470  229.1240 F   0  0  0  0  0  0  0  0  0  0  0  0
  141.0730   70.1730  227.9780 C   0  0  0  0  0  0  0  0  0  0  0  0
  140.7890   70.9340  226.8700 C   0  0  0  0  0  0  0  0  0  0  0  0
  140.1680   70.3280  225.8060 C   0  0  0  0  0  0  0  0  0  0  0  0
  139.8890   71.0550  224.7280 N   0  0  0  0  0  0  0  0  0  0  0  0
  139.8780   73.1460  223.4570 H   0  0  0  0  0  0  0  0  0  0  0  0
  139.5510   73.2812  220.5294 H   0  0  0  0  0  0  0  0  0  0  0  0
  138.0741   73.8976  221.3788 H   0  0  0  0  0  0  0  0  0  0  0  0
  136.9533   76.2769  221.0624 H   0  0  0  0  0  0  0  0  0  0  0  0
  137.3641   75.3832  222.5442 H   0  0  0  0  0  0  0  0  0  0  0  0
  136.4209   77.5749  223.1116 H   0  0  0  0  0  0  0  0  0  0  0  0
  138.1582   77.5205  223.5687 H   0  0  0  0  0  0  0  0  0  0  0  0
  136.7578   79.1322  221.5118 H   0  0  0  0  0  0  0  0  0  0  0  0
  138.3007   79.4380  222.4359 H   0  0  0  0  0  0  0  0  0  0  0  0
  137.8717   77.9679  219.8497 H   0  0  0  0  0  0  0  0  0  0  0  0
  139.0337   79.3028  220.2865 H   0  0  0  0  0  0  0  0  0  0  0  0
  140.1241   77.0061  219.9868 H   0  0  0  0  0  0  0  0  0  0  0  0
  142.1912   78.5777  220.1550 H   0  0  0  0  0  0  0  0  0  0  0  0
  143.5160   79.5010  222.2050 H   0  0  0  0  0  0  0  0  0  0  0  0
  142.1317   79.0593  224.3642 H   0  0  0  0  0  0  0  0  0  0  0  0
  138.4179   68.8302  222.6800 H   0  0  0  0  0  0  0  0  0  0  0  0
  138.9159   67.4096  224.6680 H   0  0  0  0  0  0  0  0  0  0  0  0
  139.8465   67.1766  226.9532 H   0  0  0  0  0  0  0  0  0  0  0  0
  141.5697   70.6326  228.8452 H   0  0  0  0  0  0  0  0  0  0  0  0
  141.0524   72.0015  226.8362 H   0  0  0  0  0  0  0  0  0  0  0  0
  1  2  2  0
  2  3  1  0
  3  4  1  0
  4  5  1  0
  5  6  2  0
  5  7  1  0
  7  8  1  0
  8  9  1  0
  9 10  1  0
 10 11  1  0
 11 12  1  0
 12 13  1  0
 13 14  2  0
 14 15  1  0
 15 16  1  0
 16 17  2  0
  2 18  1  0
 18 19  2  0
 19 20  1  0
 20 21  2  0
 21 22  1  0
 22 23  2  0
 23 24  1  0
 23 25  1  0
 25 26  2  0
 26 27  1  0
 27 28  2  0
 12  7  1  0
 17 13  1  0
 28 18  1  0
 27 21  1  0
  3 29  1  0
  4 30  1  0
  4 31  1  0
  8 32  1  0
  8 33  1  0
  9 34  1  0
  9 35  1  0
 10 36  1  0
 10 37  1  0
 11 38  1  0
 11 39  1  0
 12 40  1  6
 14 41  1  0
 15 42  1  0
 16 43  1  0
 19 44  1  0
 20 45  1  0
 22 46  1  0
 25 47  1  0
 26 48  1  0
M  END
>  <smiles>  (33) 
O=C(NCC(=O)N1CCCC[C@H]1c1c[nH]cn1)c1ccc2cc(F)ccc2n1

>  <score_type>  (33) 
oracle

>  <origin>  (33) 
autodockgpu

>  <m_score__min__energy>  (33) 
-8.1500000000000004

>  <m_primary>  (33) 
energy

>  <rmsd>  (33) 
2.520695607843344

>  <m_score__min__rmsd>  (33) 
2.520695607843344

>  <meeko>  (33) 
{"free_energy": -7.59, "intermolecular_energy": -9.08, "internal_energy": -1.64, "cluster_size": 5, "cluster_id": 3, "rank_in_cluster": 2}

>  <energy>  (33) 
-6.84

>  <cluster_rmsd>  (33) 
1.27

>  <cluster>  (33) 
4

$$$$

     RDKit          3D

 48 51  0  0  0  0  0  0  0  0999 V2000
  138.6060   74.8540  222.2210 O   0  0  0  0  0  0  0  0  0  0  0  0
  139.6830   75.3330  221.7510 C   0  0  0  0  0  0  0  0  0  0  0  0
  139.8060   76.7300  221.5230 N   0  0  0  0  0  0  0  0  0  0  0  0
  138.7170   77.6410  221.8190 C   0  0  0  0  0  0  0  0  0  0  0  0
  139.0800   79.0470  221.5000 C   0  0  0  0  0  0  0  0  0  0  0  0
  138.3230   79.7160  220.7490 O   0  0  0  0  0  0  0  0  0  0  0  0
  140.2770   79.5630  222.0680 N   0  0  0  0  0  0  0  0  0  0  0  0
  140.6610   79.2860  223.4570 C   0  0  0  0  0  0  0  0  0  0  0  0
  142.0890   78.8510  223.4370 C   0  0  0  0  0  0  0  0  0  0  0  0
  142.9540   79.9770  222.9160 C   0  0  0  0  0  0  0  0  0  0  0  0
  142.1830   80.9960  222.1110 C   0  0  0  0  0  0  0  0  0  0  0  0
  141.1180   80.3750  221.2380 C   0  0  1  0  0  0  0  0  0  0  0  0
  141.7600   79.6740  220.1150 C   0  0  0  0  0  0  0  0  0  0  0  0
  142.3630   80.2530  219.0030 C   0  0  0  0  0  0  0  0  0  0  0  0
  142.8240   79.2790  218.2220 N   0  0  0  0  0  0  0  0  0  0  0  0
  142.5160   78.1190  218.8310 C   0  0  0  0  0  0  0  0  0  0  0  0
  141.8680   78.3390  219.9870 N   0  0  0  0  0  0  0  0  0  0  0  0
  140.7960   74.4370  221.4440 C   0  0  0  0  0  0  0  0  0  0  0  0
  140.6350   73.0770  221.5370 C   0  0  0  0  0  0  0  0  0  0  0  0
  141.7390   72.2950  221.2280 C   0  0  0  0  0  0  0  0  0  0  0  0
  142.9490   72.8360  220.8460 C   0  0  0  0  0  0  0  0  0  0  0  0
  144.0570   72.0970  220.5360 C   0  0  0  0  0  0  0  0  0  0  0  0
  145.2390   72.7230  220.1590 C   0  0  0  0  0  0  0  0  0  0  0  0
  146.3520   72.0340  219.8450 F   0  0  0  0  0  0  0  0  0  0  0  0
  145.3080   74.1000  220.0930 C   0  0  0  0  0  0  0  0  0  0  0  0
  144.2080   74.8640  220.4000 C   0  0  0  0  0  0  0  0  0  0  0  0
  143.0520   74.2230  220.7700 C   0  0  0  0  0  0  0  0  0  0  0  0
  141.9820   74.9520  221.0690 N   0  0  0  0  0  0  0  0  0  0  0  0
  140.7340   77.0650  221.1290 H   0  0  0  0  0  0  0  0  0  0  0  0
  137.8389   77.3543  221.2216 H   0  0  0  0  0  0  0  0  0  0  0  0
  138.4968   77.5773  222.8949 H   0  0  0  0  0  0  0  0  0  0  0  0
  140.5514   80.1945  224.0675 H   0  0  0  0  0  0  0  0  0  0  0  0
  140.0194   78.5064  223.8935 H   0  0  0  0  0  0  0  0  0  0  0  0
  142.4059   78.5874  224.4568 H   0  0  0  0  0  0  0  0  0  0  0  0
  142.1952   77.9745  222.7809 H   0  0  0  0  0  0  0  0  0  0  0  0
  143.4177   80.4870  223.7732 H   0  0  0  0  0  0  0  0  0  0  0  0
  143.7034   79.5303  222.2460 H   0  0  0  0  0  0  0  0  0  0  0  0
  141.7007   81.6994  222.8057 H   0  0  0  0  0  0  0  0  0  0  0  0
  142.8996   81.5013  221.4468 H   0  0  0  0  0  0  0  0  0  0  0  0
  140.4606   81.1236  220.7717 H   0  0  0  0  0  0  0  0  0  0  0  0
  142.4448   81.3316  218.8034 H   0  0  0  0  0  0  0  0  0  0  0  0
  143.3340   79.3940  217.2980 H   0  0  0  0  0  0  0  0  0  0  0  0
  142.7622   77.1228  218.4347 H   0  0  0  0  0  0  0  0  0  0  0  0
  139.6777   72.6289  221.8416 H   0  0  0  0  0  0  0  0  0  0  0  0
  141.6455   71.2007  221.2901 H   0  0  0  0  0  0  0  0  0  0  0  0
  144.0124   70.9990  220.5854 H   0  0  0  0  0  0  0  0  0  0  0  0
  146.2474   74.5877  219.7934 H   0  0  0  0  0  0  0  0  0  0  0  0
  144.2526   75.9620  220.3505 H   0  0  0  0  0  0  0  0  0  0  0  0
  1  2  2  0
  2  3  1  0
  3  4  1  0
  4  5  1  0
  5  6  2  0
  5  7  1  0
  7  8  1  0
  8  9  1  0
  9 10  1  0
 10 11  1  0
 11 12  1  0
 12 13  1  0
 13 14  2  0
 14 15  1  0
 15 16  1  0
 16 17  2  0
  2 18  1  0
 18 19  2  0
 19 20  1  0
 20 21  2  0
 21 22  1  0
 22 23  2  0
 23 24  1  0
 23 25  1  0
 25 26  2  0
 26 27  1  0
 27 28  2  0
 12  7  1  0
 17 13  1  0
 28 18  1  0
 27 21  1  0
  3 29  1  0
  4 30  1  0
  4 31  1  0
  8 32  1  0
  8 33  1  0
  9 34  1  0
  9 35  1  0
 10 36  1  0
 10 37  1  0
 11 38  1  0
 11 39  1  0
 12 40  1  6
 14 41  1  0
 15 42  1  0
 16 43  1  0
 19 44  1  0
 20 45  1  0
 22 46  1  0
 25 47  1  0
 26 48  1  0
M  END
>  <smiles>  (34) 
O=C(NCC(=O)N1CCCC[C@H]1c1c[nH]cn1)c1ccc2cc(F)ccc2n1

>  <score_type>  (34) 
oracle

>  <origin>  (34) 
autodockgpu

>  <m_score__min__energy>  (34) 
-8.1500000000000004

>  <m_primary>  (34) 
energy

>  <rmsd>  (34) 
6.363618961195322

>  <m_score__min__rmsd>  (34) 
6.363618961195322

>  <meeko>  (34) 
{"free_energy": -6.61, "intermolecular_energy": -8.1, "internal_energy": -2.83, "cluster_size": 22, "cluster_id": 4, "rank_in_cluster": 18}

>  <energy>  (34) 
-6.76

>  <cluster_rmsd>  (34) 
1.12

>  <cluster>  (34) 
4

$$$$

     RDKit          3D

 48 51  0  0  0  0  0  0  0  0999 V2000
  139.5540   71.4560  221.0580 O   0  0  0  0  0  0  0  0  0  0  0  0
  139.5910   71.9670  222.2190 C   0  0  0  0  0  0  0  0  0  0  0  0
  139.5370   73.3770  222.3840 N   0  0  0  0  0  0  0  0  0  0  0  0
  139.4390   74.2660  221.2420 C   0  0  0  0  0  0  0  0  0  0  0  0
  140.0570   75.5880  221.5240 C   0  0  0  0  0  0  0  0  0  0  0  0
  140.0950   76.0030  222.7120 O   0  0  0  0  0  0  0  0  0  0  0  0
  140.5770   76.3200  220.4210 N   0  0  0  0  0  0  0  0  0  0  0  0
  140.4700   77.7810  220.3380 C   0  0  0  0  0  0  0  0  0  0  0  0
  141.8240   78.3000  219.9850 C   0  0  0  0  0  0  0  0  0  0  0  0
  142.2300   77.7710  218.6270 C   0  0  0  0  0  0  0  0  0  0  0  0
  141.4690   76.5310  218.2200 C   0  0  0  0  0  0  0  0  0  0  0  0
  141.2220   75.5860  219.3720 C   0  0  1  0  0  0  0  0  0  0  0  0
  142.4870   74.9350  219.7450 C   0  0  0  0  0  0  0  0  0  0  0  0
  143.7030   75.0240  219.0740 C   0  0  0  0  0  0  0  0  0  0  0  0
  144.5990   74.2900  219.7310 N   0  0  0  0  0  0  0  0  0  0  0  0
  143.9590   73.7560  220.7870 C   0  0  0  0  0  0  0  0  0  0  0  0
  142.6700   74.1380  220.8140 N   0  0  0  0  0  0  0  0  0  0  0  0
  139.6900   71.0940  223.3880 C   0  0  0  0  0  0  0  0  0  0  0  0
  139.2730   69.7880  223.3120 C   0  0  0  0  0  0  0  0  0  0  0  0
  139.4000   69.0250  224.4640 C   0  0  0  0  0  0  0  0  0  0  0  0
  139.9160   69.5330  225.6380 C   0  0  0  0  0  0  0  0  0  0  0  0
  140.0550   68.8100  226.7920 C   0  0  0  0  0  0  0  0  0  0  0  0
  140.5860   69.4000  227.9320 C   0  0  0  0  0  0  0  0  0  0  0  0
  140.7410   68.7260  229.0880 F   0  0  0  0  0  0  0  0  0  0  0  0
  140.9800   70.7230  227.9140 C   0  0  0  0  0  0  0  0  0  0  0  0
  140.8500   71.4690  226.7680 C   0  0  0  0  0  0  0  0  0  0  0  0
  140.3220   70.8650  225.6530 C   0  0  0  0  0  0  0  0  0  0  0  0
  140.1920   71.5770  224.5390 N   0  0  0  0  0  0  0  0  0  0  0  0
  139.5720   73.7390  223.3820 H   0  0  0  0  0  0  0  0  0  0  0  0
  139.9546   73.8060  220.3861 H   0  0  0  0  0  0  0  0  0  0  0  0
  138.3735   74.4244  221.0194 H   0  0  0  0  0  0  0  0  0  0  0  0
  139.7435   78.0628  219.5616 H   0  0  0  0  0  0  0  0  0  0  0  0
  140.1252   78.2035  221.2933 H   0  0  0  0  0  0  0  0  0  0  0  0
  141.7993   79.3994  219.9576 H   0  0  0  0  0  0  0  0  0  0  0  0
  142.5518   77.9676  220.7399 H   0  0  0  0  0  0  0  0  0  0  0  0
  142.0475   78.5551  217.8774 H   0  0  0  0  0  0  0  0  0  0  0  0
  143.2936   77.4970  218.6873 H   0  0  0  0  0  0  0  0  0  0  0  0
  140.4981   76.8366  217.8028 H   0  0  0  0  0  0  0  0  0  0  0  0
  142.0831   75.9956  217.4809 H   0  0  0  0  0  0  0  0  0  0  0  0
  140.5422   74.7624  219.1082 H   0  0  0  0  0  0  0  0  0  0  0  0
  143.8918   75.6020  218.1574 H   0  0  0  0  0  0  0  0  0  0  0  0
  145.6180   74.1530  219.4730 H   0  0  0  0  0  0  0  0  0  0  0  0
  144.4281   73.0944  221.5301 H   0  0  0  0  0  0  0  0  0  0  0  0
  138.8588   69.3674  222.3838 H   0  0  0  0  0  0  0  0  0  0  0  0
  139.0765   67.9739  224.4401 H   0  0  0  0  0  0  0  0  0  0  0  0
  139.7442   67.7551  226.8168 H   0  0  0  0  0  0  0  0  0  0  0  0
  141.3999   71.1817  228.8213 H   0  0  0  0  0  0  0  0  0  0  0  0
  141.1610   72.5238  226.7438 H   0  0  0  0  0  0  0  0  0  0  0  0
  1  2  2  0
  2  3  1  0
  3  4  1  0
  4  5  1  0
  5  6  2  0
  5  7  1  0
  7  8  1  0
  8  9  1  0
  9 10  1  0
 10 11  1  0
 11 12  1  0
 12 13  1  0
 13 14  2  0
 14 15  1  0
 15 16  1  0
 16 17  2  0
  2 18  1  0
 18 19  2  0
 19 20  1  0
 20 21  2  0
 21 22  1  0
 22 23  2  0
 23 24  1  0
 23 25  1  0
 25 26  2  0
 26 27  1  0
 27 28  2  0
 12  7  1  0
 17 13  1  0
 28 18  1  0
 27 21  1  0
  3 29  1  0
  4 30  1  0
  4 31  1  0
  8 32  1  0
  8 33  1  0
  9 34  1  0
  9 35  1  0
 10 36  1  0
 10 37  1  0
 11 38  1  0
 11 39  1  0
 12 40  1  6
 14 41  1  0
 15 42  1  0
 16 43  1  0
 19 44  1  0
 20 45  1  0
 22 46  1  0
 25 47  1  0
 26 48  1  0
M  END
>  <smiles>  (35) 
O=C(NCC(=O)N1CCCC[C@H]1c1c[nH]cn1)c1ccc2cc(F)ccc2n1

>  <score_type>  (35) 
oracle

>  <origin>  (35) 
autodockgpu

>  <m_score__min__energy>  (35) 
-8.1500000000000004

>  <m_primary>  (35) 
energy

>  <rmsd>  (35) 
2.5068515999370518

>  <m_score__min__rmsd>  (35) 
2.5068515999370518

>  <meeko>  (35) 
{"free_energy": -7.28, "intermolecular_energy": -8.77, "internal_energy": -1.88, "cluster_size": 20, "cluster_id": 2, "rank_in_cluster": 20}

>  <energy>  (35) 
-6.74

>  <cluster_rmsd>  (35) 
1.11

>  <cluster>  (35) 
4

$$$$

     RDKit          3D

 48 51  0  0  0  0  0  0  0  0999 V2000
  138.6990   74.7340  222.2930 O   0  0  0  0  0  0  0  0  0  0  0  0
  139.7830   75.2250  221.8520 C   0  0  0  0  0  0  0  0  0  0  0  0
  139.9200   76.6300  221.6910 N   0  0  0  0  0  0  0  0  0  0  0  0
  138.8380   77.5360  222.0230 C   0  0  0  0  0  0  0  0  0  0  0  0
  139.1270   78.9220  221.5700 C   0  0  0  0  0  0  0  0  0  0  0  0
  138.3400   79.4760  220.7590 O   0  0  0  0  0  0  0  0  0  0  0  0
  140.2940   79.5520  222.0840 N   0  0  0  0  0  0  0  0  0  0  0  0
  140.7290   79.3670  223.4740 C   0  0  0  0  0  0  0  0  0  0  0  0
  142.1850   79.0410  223.4360 C   0  0  0  0  0  0  0  0  0  0  0  0
  142.9500   80.2050  222.8450 C   0  0  0  0  0  0  0  0  0  0  0  0
  142.0840   81.1260  222.0180 C   0  0  0  0  0  0  0  0  0  0  0  0
  141.0510   80.3870  221.1990 C   0  0  1  0  0  0  0  0  0  0  0  0
  141.7210   79.6880  220.0920 C   0  0  0  0  0  0  0  0  0  0  0  0
  142.3220   80.2660  218.9780 C   0  0  0  0  0  0  0  0  0  0  0  0
  142.8120   79.2930  218.2140 N   0  0  0  0  0  0  0  0  0  0  0  0
  142.5240   78.1340  218.8340 C   0  0  0  0  0  0  0  0  0  0  0  0
  141.8600   78.3540  219.9810 N   0  0  0  0  0  0  0  0  0  0  0  0
  140.8910   74.3340  221.5100 C   0  0  0  0  0  0  0  0  0  0  0  0
  140.7270   72.9730  221.5720 C   0  0  0  0  0  0  0  0  0  0  0  0
  141.8260   72.1960  221.2320 C   0  0  0  0  0  0  0  0  0  0  0  0
  143.0320   72.7440  220.8470 C   0  0  0  0  0  0  0  0  0  0  0  0
  144.1350   72.0100  220.5060 C   0  0  0  0  0  0  0  0  0  0  0  0
  145.3130   72.6430  220.1290 C   0  0  0  0  0  0  0  0  0  0  0  0
  146.4210   71.9590  219.7850 F   0  0  0  0  0  0  0  0  0  0  0  0
  145.3840   74.0210  220.0950 C   0  0  0  0  0  0  0  0  0  0  0  0
  144.2900   74.7800  220.4340 C   0  0  0  0  0  0  0  0  0  0  0  0
  143.1370   74.1320  220.8030 C   0  0  0  0  0  0  0  0  0  0  0  0
  142.0730   74.8560  221.1330 N   0  0  0  0  0  0  0  0  0  0  0  0
  140.8530   76.9750  221.3180 H   0  0  0  0  0  0  0  0  0  0  0  0
  137.9165   77.1857  221.5350 H   0  0  0  0  0  0  0  0  0  0  0  0
  138.7227   77.5483  223.1169 H   0  0  0  0  0  0  0  0  0  0  0  0
  140.5636   80.2908  224.0477 H   0  0  0  0  0  0  0  0  0  0  0  0
  140.1589   78.5613  223.9597 H   0  0  0  0  0  0  0  0  0  0  0  0
  142.5438   78.8480  224.4578 H   0  0  0  0  0  0  0  0  0  0  0  0
  142.3433   78.1467  222.8153 H   0  0  0  0  0  0  0  0  0  0  0  0
  143.3931   80.7861  223.6672 H   0  0  0  0  0  0  0  0  0  0  0  0
  143.7163   79.7872  222.1755 H   0  0  0  0  0  0  0  0  0  0  0  0
  141.5640   81.8199  222.6948 H   0  0  0  0  0  0  0  0  0  0  0  0
  142.7440   81.6556  221.3152 H   0  0  0  0  0  0  0  0  0  0  0  0
  140.3274   81.0610  220.7171 H   0  0  0  0  0  0  0  0  0  0  0  0
  142.3818   81.3436  218.7652 H   0  0  0  0  0  0  0  0  0  0  0  0
  143.3290   79.4080  217.2940 H   0  0  0  0  0  0  0  0  0  0  0  0
  142.7960   77.1388  218.4525 H   0  0  0  0  0  0  0  0  0  0  0  0
  139.7718   72.5200  221.8761 H   0  0  0  0  0  0  0  0  0  0  0  0
  141.7315   71.1008  221.2711 H   0  0  0  0  0  0  0  0  0  0  0  0
  144.0889   70.9112  220.5304 H   0  0  0  0  0  0  0  0  0  0  0  0
  146.3206   74.5138  219.7952 H   0  0  0  0  0  0  0  0  0  0  0  0
  144.3366   75.8788  220.4104 H   0  0  0  0  0  0  0  0  0  0  0  0
  1  2  2  0
  2  3  1  0
  3  4  1  0
  4  5  1  0
  5  6  2  0
  5  7  1  0
  7  8  1  0
  8  9  1  0
  9 10  1  0
 10 11  1  0
 11 12  1  0
 12 13  1  0
 13 14  2  0
 14 15  1  0
 15 16  1  0
 16 17  2  0
  2 18  1  0
 18 19  2  0
 19 20  1  0
 20 21  2  0
 21 22  1  0
 22 23  2  0
 23 24  1  0
 23 25  1  0
 25 26  2  0
 26 27  1  0
 27 28  2  0
 12  7  1  0
 17 13  1  0
 28 18  1  0
 27 21  1  0
  3 29  1  0
  4 30  1  0
  4 31  1  0
  8 32  1  0
  8 33  1  0
  9 34  1  0
  9 35  1  0
 10 36  1  0
 10 37  1  0
 11 38  1  0
 11 39  1  0
 12 40  1  6
 14 41  1  0
 15 42  1  0
 16 43  1  0
 19 44  1  0
 20 45  1  0
 22 46  1  0
 25 47  1  0
 26 48  1  0
M  END
>  <smiles>  (36) 
O=C(NCC(=O)N1CCCC[C@H]1c1c[nH]cn1)c1ccc2cc(F)ccc2n1

>  <score_type>  (36) 
oracle

>  <origin>  (36) 
autodockgpu

>  <m_score__min__energy>  (36) 
-8.1500000000000004

>  <m_primary>  (36) 
energy

>  <rmsd>  (36) 
6.3635989934427455

>  <m_score__min__rmsd>  (36) 
6.3635989934427455

>  <meeko>  (36) 
{"free_energy": -6.74, "intermolecular_energy": -8.23, "internal_energy": -2.74, "cluster_size": 22, "cluster_id": 4, "rank_in_cluster": 7}

>  <energy>  (36) 
-6.72

>  <cluster_rmsd>  (36) 
1.14

>  <cluster>  (36) 
4

$$$$

     RDKit          3D

 48 51  0  0  0  0  0  0  0  0999 V2000
  141.0600   72.0580  221.3270 O   0  0  0  0  0  0  0  0  0  0  0  0
  140.2950   72.3750  222.2890 C   0  0  0  0  0  0  0  0  0  0  0  0
  139.5760   73.6000  222.2580 N   0  0  0  0  0  0  0  0  0  0  0  0
  139.6920   74.5150  221.1390 C   0  0  0  0  0  0  0  0  0  0  0  0
  140.9790   75.2580  221.1730 C   0  0  0  0  0  0  0  0  0  0  0  0
  141.4380   75.6340  222.2830 O   0  0  0  0  0  0  0  0  0  0  0  0
  141.6280   75.5070  219.9320 N   0  0  0  0  0  0  0  0  0  0  0  0
  141.5690   76.8160  219.2730 C   0  0  0  0  0  0  0  0  0  0  0  0
  142.9660   77.1750  218.8870 C   0  0  0  0  0  0  0  0  0  0  0  0
  143.4930   76.1620  217.8950 C   0  0  0  0  0  0  0  0  0  0  0  0
  142.7440   74.8510  217.9290 C   0  0  0  0  0  0  0  0  0  0  0  0
  142.3550   74.4290  219.3270 C   0  0  1  0  0  0  0  0  0  0  0  0
  143.5580   73.9960  220.0540 C   0  0  0  0  0  0  0  0  0  0  0  0
  143.8460   72.7100  220.5010 C   0  0  0  0  0  0  0  0  0  0  0  0
  145.0290   72.7350  221.1120 N   0  0  0  0  0  0  0  0  0  0  0  0
  145.4690   74.0050  221.0480 C   0  0  0  0  0  0  0  0  0  0  0  0
  144.5860   74.7890  220.4060 N   0  0  0  0  0  0  0  0  0  0  0  0
  140.1590   71.4710  223.4300 C   0  0  0  0  0  0  0  0  0  0  0  0
  139.5590   70.2460  223.2730 C   0  0  0  0  0  0  0  0  0  0  0  0
  139.4680   69.4470  224.4040 C   0  0  0  0  0  0  0  0  0  0  0  0
  139.9500   69.8430  225.6340 C   0  0  0  0  0  0  0  0  0  0  0  0
  139.8770   69.0820  226.7690 C   0  0  0  0  0  0  0  0  0  0  0  0
  140.3890   69.5580  227.9700 C   0  0  0  0  0  0  0  0  0  0  0  0
  140.3390   68.8430  229.1090 F   0  0  0  0  0  0  0  0  0  0  0  0
  140.9760   70.8060  228.0320 C   0  0  0  0  0  0  0  0  0  0  0  0
  141.0610   71.5890  226.9060 C   0  0  0  0  0  0  0  0  0  0  0  0
  140.5490   71.0970  225.7310 C   0  0  0  0  0  0  0  0  0  0  0  0
  140.6250   71.8460  224.6350 N   0  0  0  0  0  0  0  0  0  0  0  0
  138.9530   73.8040  223.0950 H   0  0  0  0  0  0  0  0  0  0  0  0
  139.6348   73.9422  220.2017 H   0  0  0  0  0  0  0  0  0  0  0  0
  138.8710   75.2443  221.2034 H   0  0  0  0  0  0  0  0  0  0  0  0
  140.9325   76.7596  218.3776 H   0  0  0  0  0  0  0  0  0  0  0  0
  141.1407   77.5743  219.9449 H   0  0  0  0  0  0  0  0  0  0  0  0
  142.9740   78.1750  218.4287 H   0  0  0  0  0  0  0  0  0  0  0  0
  143.6043   77.1762  219.7828 H   0  0  0  0  0  0  0  0  0  0  0  0
  143.4090   76.5865  216.8837 H   0  0  0  0  0  0  0  0  0  0  0  0
  144.5370   75.9493  218.1683 H   0  0  0  0  0  0  0  0  0  0  0  0
  141.8293   74.9542  217.3268 H   0  0  0  0  0  0  0  0  0  0  0  0
  143.4155   74.0780  217.5269 H   0  0  0  0  0  0  0  0  0  0  0  0
  141.6830   73.5582  219.3375 H   0  0  0  0  0  0  0  0  0  0  0  0
  143.2062   71.8246  220.3718 H   0  0  0  0  0  0  0  0  0  0  0  0
  145.5270   71.9130  221.5620 H   0  0  0  0  0  0  0  0  0  0  0  0
  146.4245   74.3551  221.4657 H   0  0  0  0  0  0  0  0  0  0  0  0
  139.1698   69.9144  222.2991 H   0  0  0  0  0  0  0  0  0  0  0  0
  138.9927   68.4589  224.3160 H   0  0  0  0  0  0  0  0  0  0  0  0
  139.4099   68.0868  226.7304 H   0  0  0  0  0  0  0  0  0  0  0  0
  141.3775   71.1753  228.9872 H   0  0  0  0  0  0  0  0  0  0  0  0
  141.5273   72.5845  226.9451 H   0  0  0  0  0  0  0  0  0  0  0  0
  1  2  2  0
  2  3  1  0
  3  4  1  0
  4  5  1  0
  5  6  2  0
  5  7  1  0
  7  8  1  0
  8  9  1  0
  9 10  1  0
 10 11  1  0
 11 12  1  0
 12 13  1  0
 13 14  2  0
 14 15  1  0
 15 16  1  0
 16 17  2  0
  2 18  1  0
 18 19  2  0
 19 20  1  0
 20 21  2  0
 21 22  1  0
 22 23  2  0
 23 24  1  0
 23 25  1  0
 25 26  2  0
 26 27  1  0
 27 28  2  0
 12  7  1  0
 17 13  1  0
 28 18  1  0
 27 21  1  0
  3 29  1  0
  4 30  1  0
  4 31  1  0
  8 32  1  0
  8 33  1  0
  9 34  1  0
  9 35  1  0
 10 36  1  0
 10 37  1  0
 11 38  1  0
 11 39  1  0
 12 40  1  6
 14 41  1  0
 15 42  1  0
 16 43  1  0
 19 44  1  0
 20 45  1  0
 22 46  1  0
 25 47  1  0
 26 48  1  0
M  END
>  <smiles>  (37) 
O=C(NCC(=O)N1CCCC[C@H]1c1c[nH]cn1)c1ccc2cc(F)ccc2n1

>  <score_type>  (37) 
oracle

>  <origin>  (37) 
autodockgpu

>  <m_score__min__energy>  (37) 
-8.1500000000000004

>  <m_primary>  (37) 
energy

>  <rmsd>  (37) 
2.7634206424335988

>  <m_score__min__rmsd>  (37) 
2.7634206424335988

>  <meeko>  (37) 
{"free_energy": -8.11, "intermolecular_energy": -9.6, "internal_energy": -1.58, "cluster_size": 20, "cluster_id": 2, "rank_in_cluster": 2}

>  <energy>  (37) 
-6.71

>  <cluster_rmsd>  (37) 
1.07

>  <cluster>  (37) 
4

$$$$

     RDKit          3D

 48 51  0  0  0  0  0  0  0  0999 V2000
  138.6610   74.8420  222.3300 O   0  0  0  0  0  0  0  0  0  0  0  0
  139.7310   75.3150  221.8370 C   0  0  0  0  0  0  0  0  0  0  0  0
  139.8610   76.7110  221.6130 N   0  0  0  0  0  0  0  0  0  0  0  0
  138.7860   77.6300  221.9370 C   0  0  0  0  0  0  0  0  0  0  0  0
  139.1190   79.0220  221.5360 C   0  0  0  0  0  0  0  0  0  0  0  0
  138.3450   79.6340  220.7540 O   0  0  0  0  0  0  0  0  0  0  0  0
  140.3100   79.5930  222.0660 N   0  0  0  0  0  0  0  0  0  0  0  0
  140.7270   79.3690  223.4550 C   0  0  0  0  0  0  0  0  0  0  0  0
  142.1680   78.9790  223.4210 C   0  0  0  0  0  0  0  0  0  0  0  0
  142.9870   80.1160  222.8510 C   0  0  0  0  0  0  0  0  0  0  0  0
  142.1680   81.0860  222.0330 C   0  0  0  0  0  0  0  0  0  0  0  0
  141.1080   80.4070  221.1970 C   0  0  1  0  0  0  0  0  0  0  0  0
  141.7530   79.6940  220.0840 C   0  0  0  0  0  0  0  0  0  0  0  0
  142.3530   80.2610  218.9640 C   0  0  0  0  0  0  0  0  0  0  0  0
  142.8160   79.2780  218.1940 N   0  0  0  0  0  0  0  0  0  0  0  0
  142.5130   78.1260  218.8180 C   0  0  0  0  0  0  0  0  0  0  0  0
  141.8650   78.3580  219.9720 N   0  0  0  0  0  0  0  0  0  0  0  0
  140.8300   74.4110  221.5010 C   0  0  0  0  0  0  0  0  0  0  0  0
  140.6560   73.0510  221.5840 C   0  0  0  0  0  0  0  0  0  0  0  0
  141.7470   72.2620  221.2480 C   0  0  0  0  0  0  0  0  0  0  0  0
  142.9550   72.7950  220.8490 C   0  0  0  0  0  0  0  0  0  0  0  0
  144.0510   72.0480  220.5120 C   0  0  0  0  0  0  0  0  0  0  0  0
  145.2310   72.6670  220.1200 C   0  0  0  0  0  0  0  0  0  0  0  0
  146.3320   71.9700  219.7790 F   0  0  0  0  0  0  0  0  0  0  0  0
  145.3130   74.0440  220.0660 C   0  0  0  0  0  0  0  0  0  0  0  0
  144.2260   74.8150  220.4000 C   0  0  0  0  0  0  0  0  0  0  0  0
  143.0700   74.1820  220.7850 C   0  0  0  0  0  0  0  0  0  0  0  0
  142.0130   74.9190  221.1100 N   0  0  0  0  0  0  0  0  0  0  0  0
  140.7820   77.0410  221.1980 H   0  0  0  0  0  0  0  0  0  0  0  0
  137.8745   77.3142  221.4084 H   0  0  0  0  0  0  0  0  0  0  0  0
  138.6335   77.6120  223.0262 H   0  0  0  0  0  0  0  0  0  0  0  0
  140.5990   80.2910  224.0412 H   0  0  0  0  0  0  0  0  0  0  0  0
  140.1186   78.5825  223.9254 H   0  0  0  0  0  0  0  0  0  0  0  0
  142.5113   78.7562  224.4420 H   0  0  0  0  0  0  0  0  0  0  0  0
  142.2907   78.0871  222.7890 H   0  0  0  0  0  0  0  0  0  0  0  0
  143.4505   80.6651  223.6839 H   0  0  0  0  0  0  0  0  0  0  0  0
  143.7379   79.6740  222.1795 H   0  0  0  0  0  0  0  0  0  0  0  0
  141.6753   81.7924  222.7173 H   0  0  0  0  0  0  0  0  0  0  0  0
  142.8556   81.5950  221.3416 H   0  0  0  0  0  0  0  0  0  0  0  0
  140.4187   81.1200  220.7211 H   0  0  0  0  0  0  0  0  0  0  0  0
  142.4315   81.3373  218.7510 H   0  0  0  0  0  0  0  0  0  0  0  0
  143.3250   79.3840  217.2690 H   0  0  0  0  0  0  0  0  0  0  0  0
  142.7627   77.1258  218.4343 H   0  0  0  0  0  0  0  0  0  0  0  0
  139.6997   72.6094  221.9009 H   0  0  0  0  0  0  0  0  0  0  0  0
  141.6444   71.1681  221.3020 H   0  0  0  0  0  0  0  0  0  0  0  0
  143.9971   70.9500  220.5518 H   0  0  0  0  0  0  0  0  0  0  0  0
  146.2517   74.5255  219.7545 H   0  0  0  0  0  0  0  0  0  0  0  0
  144.2805   75.9129  220.3599 H   0  0  0  0  0  0  0  0  0  0  0  0
  1  2  2  0
  2  3  1  0
  3  4  1  0
  4  5  1  0
  5  6  2  0
  5  7  1  0
  7  8  1  0
  8  9  1  0
  9 10  1  0
 10 11  1  0
 11 12  1  0
 12 13  1  0
 13 14  2  0
 14 15  1  0
 15 16  1  0
 16 17  2  0
  2 18  1  0
 18 19  2  0
 19 20  1  0
 20 21  2  0
 21 22  1  0
 22 23  2  0
 23 24  1  0
 23 25  1  0
 25 26  2  0
 26 27  1  0
 27 28  2  0
 12  7  1  0
 17 13  1  0
 28 18  1  0
 27 21  1  0
  3 29  1  0
  4 30  1  0
  4 31  1  0
  8 32  1  0
  8 33  1  0
  9 34  1  0
  9 35  1  0
 10 36  1  0
 10 37  1  0
 11 38  1  0
 11 39  1  0
 12 40  1  6
 14 41  1  0
 15 42  1  0
 16 43  1  0
 19 44  1  0
 20 45  1  0
 22 46  1  0
 25 47  1  0
 26 48  1  0
M  END
>  <smiles>  (38) 
O=C(NCC(=O)N1CCCC[C@H]1c1c[nH]cn1)c1ccc2cc(F)ccc2n1

>  <score_type>  (38) 
oracle

>  <origin>  (38) 
autodockgpu

>  <m_score__min__energy>  (38) 
-8.1500000000000004

>  <m_primary>  (38) 
energy

>  <rmsd>  (38) 
6.371732544665039

>  <m_score__min__rmsd>  (38) 
6.371732544665039

>  <meeko>  (38) 
{"free_energy": -6.7, "intermolecular_energy": -8.19, "internal_energy": -2.77, "cluster_size": 22, "cluster_id": 4, "rank_in_cluster": 13}

>  <energy>  (38) 
-6.71

>  <cluster_rmsd>  (38) 
1.12

>  <cluster>  (38) 
4

$$$$

     RDKit          3D

 48 51  0  0  0  0  0  0  0  0999 V2000
  138.8050   71.2160  221.7750 O   0  0  0  0  0  0  0  0  0  0  0  0
  139.5550   71.4720  222.7660 C   0  0  0  0  0  0  0  0  0  0  0  0
  140.3330   72.6600  222.7880 N   0  0  0  0  0  0  0  0  0  0  0  0
  140.2940   73.6070  221.6900 C   0  0  0  0  0  0  0  0  0  0  0  0
  141.2300   73.2210  220.6020 C   0  0  0  0  0  0  0  0  0  0  0  0
  141.4780   72.0020  220.4140 O   0  0  0  0  0  0  0  0  0  0  0  0
  141.8020   74.2660  219.8240 N   0  0  0  0  0  0  0  0  0  0  0  0
  141.2150   75.6100  219.7760 C   0  0  0  0  0  0  0  0  0  0  0  0
  142.3250   76.5810  220.0020 C   0  0  0  0  0  0  0  0  0  0  0  0
  143.3390   76.4600  218.8860 C   0  0  0  0  0  0  0  0  0  0  0  0
  143.2650   75.1400  218.1560 C   0  0  0  0  0  0  0  0  0  0  0  0
  142.9890   73.9730  219.0750 C   0  0  1  0  0  0  0  0  0  0  0  0
  144.1880   73.6940  219.8790 C   0  0  0  0  0  0  0  0  0  0  0  0
  144.7830   72.4550  220.0930 C   0  0  0  0  0  0  0  0  0  0  0  0
  145.8450   72.6290  220.8750 N   0  0  0  0  0  0  0  0  0  0  0  0
  145.9130   73.9460  221.1450 C   0  0  0  0  0  0  0  0  0  0  0  0
  144.9120   74.6120  220.5450 N   0  0  0  0  0  0  0  0  0  0  0  0
  139.6140   70.5350  223.8860 C   0  0  0  0  0  0  0  0  0  0  0  0
  139.0780   69.2760  223.7630 C   0  0  0  0  0  0  0  0  0  0  0  0
  139.1740   68.4470  224.8710 C   0  0  0  0  0  0  0  0  0  0  0  0
  139.7740   68.8450  226.0480 C   0  0  0  0  0  0  0  0  0  0  0  0
  139.8860   68.0540  227.1590 C   0  0  0  0  0  0  0  0  0  0  0  0
  140.5060   68.5350  228.3050 C   0  0  0  0  0  0  0  0  0  0  0  0
  140.6380   67.7910  229.4200 F   0  0  0  0  0  0  0  0  0  0  0  0
  141.0180   69.8170  228.3360 C   0  0  0  0  0  0  0  0  0  0  0  0
  140.9170   70.6300  227.2330 C   0  0  0  0  0  0  0  0  0  0  0  0
  140.2990   70.1330  226.1120 C   0  0  0  0  0  0  0  0  0  0  0  0
  140.1970   70.9110  225.0390 N   0  0  0  0  0  0  0  0  0  0  0  0
  140.9390   72.8140  223.6470 H   0  0  0  0  0  0  0  0  0  0  0  0
  139.2717   73.6430  221.2856 H   0  0  0  0  0  0  0  0  0  0  0  0
  140.5992   74.5917  222.0736 H   0  0  0  0  0  0  0  0  0  0  0  0
  140.7541   75.7857  218.7928 H   0  0  0  0  0  0  0  0  0  0  0  0
  140.4331   75.7236  220.5413 H   0  0  0  0  0  0  0  0  0  0  0  0
  141.9194   77.6034  220.0191 H   0  0  0  0  0  0  0  0  0  0  0  0
  142.8119   76.3623  220.9638 H   0  0  0  0  0  0  0  0  0  0  0  0
  143.1616   77.2698  218.1630 H   0  0  0  0  0  0  0  0  0  0  0  0
  144.3375   76.5256  219.3428 H   0  0  0  0  0  0  0  0  0  0  0  0
  142.4591   75.1968  217.4095 H   0  0  0  0  0  0  0  0  0  0  0  0
  144.2455   74.9666  217.6886 H   0  0  0  0  0  0  0  0  0  0  0  0
  142.7871   73.0399  218.5285 H   0  0  0  0  0  0  0  0  0  0  0  0
  144.4346   71.4947  219.6850 H   0  0  0  0  0  0  0  0  0  0  0  0
  146.5090   71.8770  221.2200 H   0  0  0  0  0  0  0  0  0  0  0  0
  146.6850   74.4145  221.7731 H   0  0  0  0  0  0  0  0  0  0  0  0
  138.5966   68.9419  222.8321 H   0  0  0  0  0  0  0  0  0  0  0  0
  138.7551   67.4318  224.8088 H   0  0  0  0  0  0  0  0  0  0  0  0
  139.4825   67.0308  227.1444 H   0  0  0  0  0  0  0  0  0  0  0  0
  141.5088   70.1889  229.2475 H   0  0  0  0  0  0  0  0  0  0  0  0
  141.3210   71.6530  227.2476 H   0  0  0  0  0  0  0  0  0  0  0  0
  1  2  2  0
  2  3  1  0
  3  4  1  0
  4  5  1  0
  5  6  2  0
  5  7  1  0
  7  8  1  0
  8  9  1  0
  9 10  1  0
 10 11  1  0
 11 12  1  0
 12 13  1  0
 13 14  2  0
 14 15  1  0
 15 16  1  0
 16 17  2  0
  2 18  1  0
 18 19  2  0
 19 20  1  0
 20 21  2  0
 21 22  1  0
 22 23  2  0
 23 24  1  0
 23 25  1  0
 25 26  2  0
 26 27  1  0
 27 28  2  0
 12  7  1  0
 17 13  1  0
 28 18  1  0
 27 21  1  0
  3 29  1  0
  4 30  1  0
  4 31  1  0
  8 32  1  0
  8 33  1  0
  9 34  1  0
  9 35  1  0
 10 36  1  0
 10 37  1  0
 11 38  1  0
 11 39  1  0
 12 40  1  6
 14 41  1  0
 15 42  1  0
 16 43  1  0
 19 44  1  0
 20 45  1  0
 22 46  1  0
 25 47  1  0
 26 48  1  0
M  END
>  <smiles>  (39) 
O=C(NCC(=O)N1CCCC[C@H]1c1c[nH]cn1)c1ccc2cc(F)ccc2n1

>  <score_type>  (39) 
oracle

>  <origin>  (39) 
autodockgpu

>  <m_score__min__energy>  (39) 
-8.1500000000000004

>  <m_primary>  (39) 
energy

>  <rmsd>  (39) 
2.9244653511801353

>  <m_score__min__rmsd>  (39) 
2.9244653511801353

>  <meeko>  (39) 
{"free_energy": -7.43, "intermolecular_energy": -8.92, "internal_energy": -1.49, "cluster_size": 20, "cluster_id": 2, "rank_in_cluster": 18}

>  <energy>  (39) 
-6.71

>  <cluster_rmsd>  (39) 
1.13

>  <cluster>  (39) 
4

$$$$

     RDKit          3D

 48 51  0  0  0  0  0  0  0  0999 V2000
  139.8770   71.3530  221.0060 O   0  0  0  0  0  0  0  0  0  0  0  0
  139.7650   71.8780  222.1550 C   0  0  0  0  0  0  0  0  0  0  0  0
  139.6570   73.2880  222.2920 N   0  0  0  0  0  0  0  0  0  0  0  0
  139.6690   74.1610  221.1350 C   0  0  0  0  0  0  0  0  0  0  0  0
  140.7680   75.1590  221.2150 C   0  0  0  0  0  0  0  0  0  0  0  0
  141.0850   75.6290  222.3390 O   0  0  0  0  0  0  0  0  0  0  0  0
  141.4070   75.5330  220.0000 N   0  0  0  0  0  0  0  0  0  0  0  0
  141.3330   76.9000  219.4720 C   0  0  0  0  0  0  0  0  0  0  0  0
  142.7240   77.3070  219.1160 C   0  0  0  0  0  0  0  0  0  0  0  0
  143.2550   76.4000  218.0280 C   0  0  0  0  0  0  0  0  0  0  0  0
  142.5180   75.0850  217.9390 C   0  0  0  0  0  0  0  0  0  0  0  0
  142.1410   74.5260  219.2910 C   0  0  1  0  0  0  0  0  0  0  0  0
  143.3520   74.0360  219.9670 C   0  0  0  0  0  0  0  0  0  0  0  0
  143.5670   72.7580  220.4740 C   0  0  0  0  0  0  0  0  0  0  0  0
  144.7870   72.7190  221.0060 N   0  0  0  0  0  0  0  0  0  0  0  0
  145.3200   73.9430  220.8370 C   0  0  0  0  0  0  0  0  0  0  0  0
  144.4610   74.7600  220.2040 N   0  0  0  0  0  0  0  0  0  0  0  0
  139.7500   71.0210  223.3400 C   0  0  0  0  0  0  0  0  0  0  0  0
  139.2400   69.7490  223.2660 C   0  0  0  0  0  0  0  0  0  0  0  0
  139.2610   68.9990  224.4330 C   0  0  0  0  0  0  0  0  0  0  0  0
  139.7650   69.4880  225.6210 C   0  0  0  0  0  0  0  0  0  0  0  0
  139.8010   68.7780  226.7900 C   0  0  0  0  0  0  0  0  0  0  0  0
  140.3270   69.3480  227.9430 C   0  0  0  0  0  0  0  0  0  0  0  0
  140.3820   68.6850  229.1140 F   0  0  0  0  0  0  0  0  0  0  0  0
  140.8180   70.6370  227.9230 C   0  0  0  0  0  0  0  0  0  0  0  0
  140.7920   71.3700  226.7610 C   0  0  0  0  0  0  0  0  0  0  0  0
  140.2680   70.7870  225.6340 C   0  0  0  0  0  0  0  0  0  0  0  0
  140.2380   71.4860  224.5050 N   0  0  0  0  0  0  0  0  0  0  0  0
  139.5660   73.6620  223.2830 H   0  0  0  0  0  0  0  0  0  0  0  0
  139.8051   73.5518  220.2293 H   0  0  0  0  0  0  0  0  0  0  0  0
  138.7127   74.7036  221.1029 H   0  0  0  0  0  0  0  0  0  0  0  0
  140.6917   76.9256  218.5786 H   0  0  0  0  0  0  0  0  0  0  0  0
  140.9023   77.5854  220.2168 H   0  0  0  0  0  0  0  0  0  0  0  0
  142.7207   78.3467  218.7567 H   0  0  0  0  0  0  0  0  0  0  0  0
  143.3670   77.2268  220.0048 H   0  0  0  0  0  0  0  0  0  0  0  0
  143.1614   76.9195  217.0629 H   0  0  0  0  0  0  0  0  0  0  0  0
  144.3026   76.1721  218.2741 H   0  0  0  0  0  0  0  0  0  0  0  0
  141.5989   75.2373  217.3542 H   0  0  0  0  0  0  0  0  0  0  0  0
  143.1942   74.3610  217.4609 H   0  0  0  0  0  0  0  0  0  0  0  0
  141.4775   73.6514  219.2210 H   0  0  0  0  0  0  0  0  0  0  0  0
  142.8516   71.9231  220.4409 H   0  0  0  0  0  0  0  0  0  0  0  0
  145.2480   71.8860  221.4740 H   0  0  0  0  0  0  0  0  0  0  0  0
  146.3257   74.2360  221.1726 H   0  0  0  0  0  0  0  0  0  0  0  0
  138.8344   69.3439  222.3272 H   0  0  0  0  0  0  0  0  0  0  0  0
  138.8604   67.9748  224.4105 H   0  0  0  0  0  0  0  0  0  0  0  0
  139.4112   67.7497  226.8173 H   0  0  0  0  0  0  0  0  0  0  0  0
  141.2320   71.0798  228.8409 H   0  0  0  0  0  0  0  0  0  0  0  0
  141.1814   72.3984  226.7345 H   0  0  0  0  0  0  0  0  0  0  0  0
  1  2  2  0
  2  3  1  0
  3  4  1  0
  4  5  1  0
  5  6  2  0
  5  7  1  0
  7  8  1  0
  8  9  1  0
  9 10  1  0
 10 11  1  0
 11 12  1  0
 12 13  1  0
 13 14  2  0
 14 15  1  0
 15 16  1  0
 16 17  2  0
  2 18  1  0
 18 19  2  0
 19 20  1  0
 20 21  2  0
 21 22  1  0
 22 23  2  0
 23 24  1  0
 23 25  1  0
 25 26  2  0
 26 27  1  0
 27 28  2  0
 12  7  1  0
 17 13  1  0
 28 18  1  0
 27 21  1  0
  3 29  1  0
  4 30  1  0
  4 31  1  0
  8 32  1  0
  8 33  1  0
  9 34  1  0
  9 35  1  0
 10 36  1  0
 10 37  1  0
 11 38  1  0
 11 39  1  0
 12 40  1  6
 14 41  1  0
 15 42  1  0
 16 43  1  0
 19 44  1  0
 20 45  1  0
 22 46  1  0
 25 47  1  0
 26 48  1  0
M  END
>  <smiles>  (40) 
O=C(NCC(=O)N1CCCC[C@H]1c1c[nH]cn1)c1ccc2cc(F)ccc2n1

>  <score_type>  (40) 
oracle

>  <origin>  (40) 
autodockgpu

>  <m_score__min__energy>  (40) 
-8.1500000000000004

>  <m_primary>  (40) 
energy

>  <rmsd>  (40) 
2.6406626903306125

>  <m_score__min__rmsd>  (40) 
2.6406626903306125

>  <meeko>  (40) 
{"free_energy": -7.9, "intermolecular_energy": -9.39, "internal_energy": -1.71, "cluster_size": 20, "cluster_id": 2, "rank_in_cluster": 12}

>  <energy>  (40) 
-6.7

>  <cluster_rmsd>  (40) 
1.13

>  <cluster>  (40) 
4

$$$$

     RDKit          3D

 48 51  0  0  0  0  0  0  0  0999 V2000
  139.5670   74.7710  222.2220 O   0  0  0  0  0  0  0  0  0  0  0  0
  140.7170   75.0720  221.7800 C   0  0  0  0  0  0  0  0  0  0  0  0
  141.1800   76.4140  221.8370 N   0  0  0  0  0  0  0  0  0  0  0  0
  140.3590   77.4700  222.3970 C   0  0  0  0  0  0  0  0  0  0  0  0
  141.1370   78.7220  222.5890 C   0  0  0  0  0  0  0  0  0  0  0  0
  142.0490   78.7480  223.4560 O   0  0  0  0  0  0  0  0  0  0  0  0
  140.8020   79.8370  221.7700 N   0  0  0  0  0  0  0  0  0  0  0  0
  140.8600   81.2140  222.2710 C   0  0  0  0  0  0  0  0  0  0  0  0
  141.6060   82.0170  221.2580 C   0  0  0  0  0  0  0  0  0  0  0  0
  140.8470   82.0140  219.9500 C   0  0  0  0  0  0  0  0  0  0  0  0
  139.8710   80.8670  219.8320 C   0  0  0  0  0  0  0  0  0  0  0  0
  140.4000   79.5790  220.4180 C   0  0  1  0  0  0  0  0  0  0  0  0
  141.4520   79.0430  219.5400 C   0  0  0  0  0  0  0  0  0  0  0  0
  142.0400   79.6830  218.4530 C   0  0  0  0  0  0  0  0  0  0  0  0
  142.9450   78.8630  217.9240 N   0  0  0  0  0  0  0  0  0  0  0  0
  142.9230   77.7380  218.6610 C   0  0  0  0  0  0  0  0  0  0  0  0
  142.0190   77.8290  219.6520 N   0  0  0  0  0  0  0  0  0  0  0  0
  141.5650   74.0260  221.2090 C   0  0  0  0  0  0  0  0  0  0  0  0
  141.0590   72.7690  220.9910 C   0  0  0  0  0  0  0  0  0  0  0  0
  141.9280   71.8330  220.4460 C   0  0  0  0  0  0  0  0  0  0  0  0
  143.2380   72.1290  220.1330 C   0  0  0  0  0  0  0  0  0  0  0  0
  144.1210   71.2320  219.5960 C   0  0  0  0  0  0  0  0  0  0  0  0
  145.4250   71.6150  219.3100 C   0  0  0  0  0  0  0  0  0  0  0  0
  146.3260   70.7650  218.7810 F   0  0  0  0  0  0  0  0  0  0  0  0
  145.8460   72.9040  219.5640 C   0  0  0  0  0  0  0  0  0  0  0  0
  144.9780   73.8230  220.1030 C   0  0  0  0  0  0  0  0  0  0  0  0
  143.6940   73.4220  220.3770 C   0  0  0  0  0  0  0  0  0  0  0  0
  142.8450   74.3030  220.8990 N   0  0  0  0  0  0  0  0  0  0  0  0
  142.1520   76.5970  221.4490 H   0  0  0  0  0  0  0  0  0  0  0  0
  139.5208   77.6714  221.7137 H   0  0  0  0  0  0  0  0  0  0  0  0
  139.9925   77.1376  223.3795 H   0  0  0  0  0  0  0  0  0  0  0  0
  139.8428   81.6138  222.3951 H   0  0  0  0  0  0  0  0  0  0  0  0
  141.3608   81.2544  223.2495 H   0  0  0  0  0  0  0  0  0  0  0  0
  141.7128   83.0513  221.6170 H   0  0  0  0  0  0  0  0  0  0  0  0
  142.6020   81.5764  221.1037 H   0  0  0  0  0  0  0  0  0  0  0  0
  140.2887   82.9582  219.8674 H   0  0  0  0  0  0  0  0  0  0  0  0
  141.5858   81.8994  219.1431 H   0  0  0  0  0  0  0  0  0  0  0  0
  138.9454   81.1385  220.3608 H   0  0  0  0  0  0  0  0  0  0  0  0
  139.6957   80.6932  218.7601 H   0  0  0  0  0  0  0  0  0  0  0  0
  139.6367   78.7885  220.4674 H   0  0  0  0  0  0  0  0  0  0  0  0
  141.7981   80.6938  218.0927 H   0  0  0  0  0  0  0  0  0  0  0  0
  143.5640   79.0580  217.0840 H   0  0  0  0  0  0  0  0  0  0  0  0
  143.5600   76.8602  218.4773 H   0  0  0  0  0  0  0  0  0  0  0  0
  140.0170   72.5156  221.2358 H   0  0  0  0  0  0  0  0  0  0  0  0
  141.5567   70.8151  220.2564 H   0  0  0  0  0  0  0  0  0  0  0  0
  143.7961   70.2016  219.3896 H   0  0  0  0  0  0  0  0  0  0  0  0
  146.8809   73.1974  219.3341 H   0  0  0  0  0  0  0  0  0  0  0  0
  145.3036   74.8532  220.3095 H   0  0  0  0  0  0  0  0  0  0  0  0
  1  2  2  0
  2  3  1  0
  3  4  1  0
  4  5  1  0
  5  6  2  0
  5  7  1  0
  7  8  1  0
  8  9  1  0
  9 10  1  0
 10 11  1  0
 11 12  1  0
 12 13  1  0
 13 14  2  0
 14 15  1  0
 15 16  1  0
 16 17  2  0
  2 18  1  0
 18 19  2  0
 19 20  1  0
 20 21  2  0
 21 22  1  0
 22 23  2  0
 23 24  1  0
 23 25  1  0
 25 26  2  0
 26 27  1  0
 27 28  2  0
 12  7  1  0
 17 13  1  0
 28 18  1  0
 27 21  1  0
  3 29  1  0
  4 30  1  0
  4 31  1  0
  8 32  1  0
  8 33  1  0
  9 34  1  0
  9 35  1  0
 10 36  1  0
 10 37  1  0
 11 38  1  0
 11 39  1  0
 12 40  1  1
 14 41  1  0
 15 42  1  0
 16 43  1  0
 19 44  1  0
 20 45  1  0
 22 46  1  0
 25 47  1  0
 26 48  1  0
M  END
>  <smiles>  (41) 
O=C(NCC(=O)N1CCCC[C@H]1c1c[nH]cn1)c1ccc2cc(F)ccc2n1

>  <score_type>  (41) 
oracle

>  <origin>  (41) 
autodockgpu

>  <m_score__min__energy>  (41) 
-8.1500000000000004

>  <m_primary>  (41) 
energy

>  <rmsd>  (41) 
6.497475007065859

>  <m_score__min__rmsd>  (41) 
6.497475007065859

>  <meeko>  (41) 
{"free_energy": -6.84, "intermolecular_energy": -8.33, "internal_energy": -2.31, "cluster_size": 22, "cluster_id": 4, "rank_in_cluster": 5}

>  <energy>  (41) 
-6.7

>  <cluster_rmsd>  (41) 
1.15

>  <cluster>  (41) 
4

$$$$

     RDKit          3D

 48 51  0  0  0  0  0  0  0  0999 V2000
  139.9310   70.9870  221.0030 O   0  0  0  0  0  0  0  0  0  0  0  0
  139.7970   71.5610  222.1260 C   0  0  0  0  0  0  0  0  0  0  0  0
  139.6990   72.9770  222.1990 N   0  0  0  0  0  0  0  0  0  0  0  0
  139.7490   73.7990  221.0060 C   0  0  0  0  0  0  0  0  0  0  0  0
  140.6560   74.9630  221.1810 C   0  0  0  0  0  0  0  0  0  0  0  0
  140.7960   75.4600  222.3290 O   0  0  0  0  0  0  0  0  0  0  0  0
  141.3240   75.4560  220.0260 N   0  0  0  0  0  0  0  0  0  0  0  0
  141.2080   76.8560  219.6000 C   0  0  0  0  0  0  0  0  0  0  0  0
  142.5930   77.3480  219.3350 C   0  0  0  0  0  0  0  0  0  0  0  0
  143.2050   76.5510  218.2040 C   0  0  0  0  0  0  0  0  0  0  0  0
  142.5320   75.2170  217.9840 C   0  0  0  0  0  0  0  0  0  0  0  0
  142.1290   74.5400  219.2730 C   0  0  1  0  0  0  0  0  0  0  0  0
  143.3340   74.0500  219.9600 C   0  0  0  0  0  0  0  0  0  0  0  0
  143.5440   72.7730  220.4730 C   0  0  0  0  0  0  0  0  0  0  0  0
  144.7590   72.7340  221.0150 N   0  0  0  0  0  0  0  0  0  0  0  0
  145.2960   73.9560  220.8450 C   0  0  0  0  0  0  0  0  0  0  0  0
  144.4430   74.7720  220.2020 N   0  0  0  0  0  0  0  0  0  0  0  0
  139.7440   70.7570  223.3460 C   0  0  0  0  0  0  0  0  0  0  0  0
  139.2040   69.4950  223.3180 C   0  0  0  0  0  0  0  0  0  0  0  0
  139.1910   68.7960  224.5170 C   0  0  0  0  0  0  0  0  0  0  0  0
  139.6890   69.3240  225.6900 C   0  0  0  0  0  0  0  0  0  0  0  0
  139.6910   68.6640  226.8890 C   0  0  0  0  0  0  0  0  0  0  0  0
  140.2140   69.2700  228.0240 C   0  0  0  0  0  0  0  0  0  0  0  0
  140.2360   68.6570  229.2230 F   0  0  0  0  0  0  0  0  0  0  0  0
  140.7360   70.5460  227.9570 C   0  0  0  0  0  0  0  0  0  0  0  0
  140.7450   71.2280  226.7640 C   0  0  0  0  0  0  0  0  0  0  0  0
  140.2230   70.6090  225.6550 C   0  0  0  0  0  0  0  0  0  0  0  0
  140.2260   71.2600  224.4970 N   0  0  0  0  0  0  0  0  0  0  0  0
  139.5880   73.3940  223.1700 H   0  0  0  0  0  0  0  0  0  0  0  0
  140.1109   73.1876  220.1662 H   0  0  0  0  0  0  0  0  0  0  0  0
  138.7360   74.1791  220.8075 H   0  0  0  0  0  0  0  0  0  0  0  0
  140.6016   76.9234  218.6847 H   0  0  0  0  0  0  0  0  0  0  0  0
  140.7175   77.4629  220.3753 H   0  0  0  0  0  0  0  0  0  0  0  0
  142.5570   78.4115  219.0563 H   0  0  0  0  0  0  0  0  0  0  0  0
  143.2044   77.2263  220.2413 H   0  0  0  0  0  0  0  0  0  0  0  0
  143.1251   77.1398  217.2783 H   0  0  0  0  0  0  0  0  0  0  0  0
  144.2514   76.3483  218.4758 H   0  0  0  0  0  0  0  0  0  0  0  0
  141.6302   75.3756  217.3744 H   0  0  0  0  0  0  0  0  0  0  0  0
  143.2576   74.5612  217.4805 H   0  0  0  0  0  0  0  0  0  0  0  0
  141.5083   73.6470  219.1082 H   0  0  0  0  0  0  0  0  0  0  0  0
  142.8281   71.9387  220.4366 H   0  0  0  0  0  0  0  0  0  0  0  0
  145.2150   71.9020  221.4890 H   0  0  0  0  0  0  0  0  0  0  0  0
  146.2998   74.2484  221.1868 H   0  0  0  0  0  0  0  0  0  0  0  0
  138.8017   69.0596  222.3914 H   0  0  0  0  0  0  0  0  0  0  0  0
  138.7669   67.7811  224.5324 H   0  0  0  0  0  0  0  0  0  0  0  0
  139.2759   67.6474  226.9541 H   0  0  0  0  0  0  0  0  0  0  0  0
  141.1462   71.0186  228.8616 H   0  0  0  0  0  0  0  0  0  0  0  0
  141.1601   72.2446  226.6991 H   0  0  0  0  0  0  0  0  0  0  0  0
  1  2  2  0
  2  3  1  0
  3  4  1  0
  4  5  1  0
  5  6  2  0
  5  7  1  0
  7  8  1  0
  8  9  1  0
  9 10  1  0
 10 11  1  0
 11 12  1  0
 12 13  1  0
 13 14  2  0
 14 15  1  0
 15 16  1  0
 16 17  2  0
  2 18  1  0
 18 19  2  0
 19 20  1  0
 20 21  2  0
 21 22  1  0
 22 23  2  0
 23 24  1  0
 23 25  1  0
 25 26  2  0
 26 27  1  0
 27 28  2  0
 12  7  1  0
 17 13  1  0
 28 18  1  0
 27 21  1  0
  3 29  1  0
  4 30  1  0
  4 31  1  0
  8 32  1  0
  8 33  1  0
  9 34  1  0
  9 35  1  0
 10 36  1  0
 10 37  1  0
 11 38  1  0
 11 39  1  0
 12 40  1  6
 14 41  1  0
 15 42  1  0
 16 43  1  0
 19 44  1  0
 20 45  1  0
 22 46  1  0
 25 47  1  0
 26 48  1  0
M  END
>  <smiles>  (42) 
O=C(NCC(=O)N1CCCC[C@H]1c1c[nH]cn1)c1ccc2cc(F)ccc2n1

>  <score_type>  (42) 
oracle

>  <origin>  (42) 
autodockgpu

>  <m_score__min__energy>  (42) 
-8.1500000000000004

>  <m_primary>  (42) 
energy

>  <rmsd>  (42) 
2.6162066908817256

>  <m_score__min__rmsd>  (42) 
2.6162066908817256

>  <meeko>  (42) 
{"free_energy": -7.85, "intermolecular_energy": -9.34, "internal_energy": -1.73, "cluster_size": 20, "cluster_id": 2, "rank_in_cluster": 13}

>  <energy>  (42) 
-6.69

>  <cluster_rmsd>  (42) 
1.04

>  <cluster>  (42) 
4

$$$$

     RDKit          3D

 48 51  0  0  0  0  0  0  0  0999 V2000
  138.6410   74.7890  222.2040 O   0  0  0  0  0  0  0  0  0  0  0  0
  139.7430   75.2710  221.8010 C   0  0  0  0  0  0  0  0  0  0  0  0
  139.9060   76.6770  221.6710 N   0  0  0  0  0  0  0  0  0  0  0  0
  138.8290   77.5930  221.9910 C   0  0  0  0  0  0  0  0  0  0  0  0
  139.1430   78.9790  221.5560 C   0  0  0  0  0  0  0  0  0  0  0  0
  138.3650   79.5570  220.7520 O   0  0  0  0  0  0  0  0  0  0  0  0
  140.3210   79.5820  222.0780 N   0  0  0  0  0  0  0  0  0  0  0  0
  140.7430   79.3860  223.4690 C   0  0  0  0  0  0  0  0  0  0  0  0
  142.1910   79.0260  223.4400 C   0  0  0  0  0  0  0  0  0  0  0  0
  142.9860   80.1730  222.8550 C   0  0  0  0  0  0  0  0  0  0  0  0
  142.1470   81.1140  222.0240 C   0  0  0  0  0  0  0  0  0  0  0  0
  141.1020   80.4000  221.1980 C   0  0  1  0  0  0  0  0  0  0  0  0
  141.7620   79.6860  220.0940 C   0  0  0  0  0  0  0  0  0  0  0  0
  142.3650   80.2520  218.9750 C   0  0  0  0  0  0  0  0  0  0  0  0
  142.8440   79.2680  218.2160 N   0  0  0  0  0  0  0  0  0  0  0  0
  142.5470   78.1170  218.8450 C   0  0  0  0  0  0  0  0  0  0  0  0
  141.8880   78.3510  219.9930 N   0  0  0  0  0  0  0  0  0  0  0  0
  140.8460   74.3700  221.4710 C   0  0  0  0  0  0  0  0  0  0  0  0
  140.6740   73.0100  221.5470 C   0  0  0  0  0  0  0  0  0  0  0  0
  141.7690   72.2240  221.2170 C   0  0  0  0  0  0  0  0  0  0  0  0
  142.9790   72.7600  220.8310 C   0  0  0  0  0  0  0  0  0  0  0  0
  144.0780   72.0150  220.5000 C   0  0  0  0  0  0  0  0  0  0  0  0
  145.2620   72.6370  220.1210 C   0  0  0  0  0  0  0  0  0  0  0  0
  146.3660   71.9420  219.7870 F   0  0  0  0  0  0  0  0  0  0  0  0
  145.3420   74.0140  220.0740 C   0  0  0  0  0  0  0  0  0  0  0  0
  144.2510   74.7830  220.4020 C   0  0  0  0  0  0  0  0  0  0  0  0
  143.0930   74.1460  220.7730 C   0  0  0  0  0  0  0  0  0  0  0  0
  142.0330   74.8810  221.0930 N   0  0  0  0  0  0  0  0  0  0  0  0
  140.8540   77.0140  221.3290 H   0  0  0  0  0  0  0  0  0  0  0  0
  137.9126   77.2582  221.4828 H   0  0  0  0  0  0  0  0  0  0  0  0
  138.6934   77.5971  223.0826 H   0  0  0  0  0  0  0  0  0  0  0  0
  140.5958   80.3131  224.0425 H   0  0  0  0  0  0  0  0  0  0  0  0
  140.1514   78.5934  223.9503 H   0  0  0  0  0  0  0  0  0  0  0  0
  142.5388   78.8237  224.4638 H   0  0  0  0  0  0  0  0  0  0  0  0
  142.3327   78.1286  222.8198 H   0  0  0  0  0  0  0  0  0  0  0  0
  143.4371   80.7430  223.6806 H   0  0  0  0  0  0  0  0  0  0  0  0
  143.7466   79.7384  222.1897 H   0  0  0  0  0  0  0  0  0  0  0  0
  141.6392   81.8192  222.6983 H   0  0  0  0  0  0  0  0  0  0  0  0
  142.8234   81.6286  221.3257 H   0  0  0  0  0  0  0  0  0  0  0  0
  140.3974   81.0912  220.7123 H   0  0  0  0  0  0  0  0  0  0  0  0
  142.4342   81.3276  218.7550 H   0  0  0  0  0  0  0  0  0  0  0  0
  143.3590   79.3720  217.2940 H   0  0  0  0  0  0  0  0  0  0  0  0
  142.8087   77.1166  218.4698 H   0  0  0  0  0  0  0  0  0  0  0  0
  139.7158   72.5655  221.8542 H   0  0  0  0  0  0  0  0  0  0  0  0
  141.6674   71.1298  221.2653 H   0  0  0  0  0  0  0  0  0  0  0  0
  144.0242   70.9168  220.5340 H   0  0  0  0  0  0  0  0  0  0  0  0
  146.2827   74.4981  219.7728 H   0  0  0  0  0  0  0  0  0  0  0  0
  144.3045   75.8812  220.3680 H   0  0  0  0  0  0  0  0  0  0  0  0
  1  2  2  0
  2  3  1  0
  3  4  1  0
  4  5  1  0
  5  6  2  0
  5  7  1  0
  7  8  1  0
  8  9  1  0
  9 10  1  0
 10 11  1  0
 11 12  1  0
 12 13  1  0
 13 14  2  0
 14 15  1  0
 15 16  1  0
 16 17  2  0
  2 18  1  0
 18 19  2  0
 19 20  1  0
 20 21  2  0
 21 22  1  0
 22 23  2  0
 23 24  1  0
 23 25  1  0
 25 26  2  0
 26 27  1  0
 27 28  2  0
 12  7  1  0
 17 13  1  0
 28 18  1  0
 27 21  1  0
  3 29  1  0
  4 30  1  0
  4 31  1  0
  8 32  1  0
  8 33  1  0
  9 34  1  0
  9 35  1  0
 10 36  1  0
 10 37  1  0
 11 38  1  0
 11 39  1  0
 12 40  1  6
 14 41  1  0
 15 42  1  0
 16 43  1  0
 19 44  1  0
 20 45  1  0
 22 46  1  0
 25 47  1  0
 26 48  1  0
M  END
>  <smiles>  (43) 
O=C(NCC(=O)N1CCCC[C@H]1c1c[nH]cn1)c1ccc2cc(F)ccc2n1

>  <score_type>  (43) 
oracle

>  <origin>  (43) 
autodockgpu

>  <m_score__min__energy>  (43) 
-8.1500000000000004

>  <m_primary>  (43) 
energy

>  <rmsd>  (43) 
6.370242285993222

>  <m_score__min__rmsd>  (43) 
6.370242285993222

>  <meeko>  (43) 
{"free_energy": -6.71, "intermolecular_energy": -8.2, "internal_energy": -2.76, "cluster_size": 22, "cluster_id": 4, "rank_in_cluster": 11}

>  <energy>  (43) 
-6.69

>  <cluster_rmsd>  (43) 
1.14

>  <cluster>  (43) 
4

$$$$

     RDKit          3D

 48 51  0  0  0  0  0  0  0  0999 V2000
  140.0410   71.4130  221.0060 O   0  0  0  0  0  0  0  0  0  0  0  0
  139.8810   71.9250  222.1550 C   0  0  0  0  0  0  0  0  0  0  0  0
  139.7020   73.3270  222.2970 N   0  0  0  0  0  0  0  0  0  0  0  0
  139.6970   74.2070  221.1440 C   0  0  0  0  0  0  0  0  0  0  0  0
  140.8020   75.1980  221.2080 C   0  0  0  0  0  0  0  0  0  0  0  0
  141.1280   75.6780  222.3260 O   0  0  0  0  0  0  0  0  0  0  0  0
  141.4390   75.5550  219.9870 N   0  0  0  0  0  0  0  0  0  0  0  0
  141.3700   76.9160  219.4430 C   0  0  0  0  0  0  0  0  0  0  0  0
  142.7630   77.3100  219.0770 C   0  0  0  0  0  0  0  0  0  0  0  0
  143.2820   76.3880  217.9960 C   0  0  0  0  0  0  0  0  0  0  0  0
  142.5370   75.0760  217.9250 C   0  0  0  0  0  0  0  0  0  0  0  0
  142.1630   74.5350  219.2850 C   0  0  1  0  0  0  0  0  0  0  0  0
  143.3730   74.0450  219.9610 C   0  0  0  0  0  0  0  0  0  0  0  0
  143.5880   72.7670  220.4690 C   0  0  0  0  0  0  0  0  0  0  0  0
  144.8080   72.7280  221.0010 N   0  0  0  0  0  0  0  0  0  0  0  0
  145.3420   73.9500  220.8310 C   0  0  0  0  0  0  0  0  0  0  0  0
  144.4830   74.7680  220.1970 N   0  0  0  0  0  0  0  0  0  0  0  0
  139.8820   71.0620  223.3350 C   0  0  0  0  0  0  0  0  0  0  0  0
  139.3840   69.7840  223.2570 C   0  0  0  0  0  0  0  0  0  0  0  0
  139.4210   69.0290  224.4200 C   0  0  0  0  0  0  0  0  0  0  0  0
  139.9270   69.5160  225.6070 C   0  0  0  0  0  0  0  0  0  0  0  0
  139.9790   68.8000  226.7720 C   0  0  0  0  0  0  0  0  0  0  0  0
  140.5060   69.3680  227.9250 C   0  0  0  0  0  0  0  0  0  0  0  0
  140.5760   68.6990  229.0920 F   0  0  0  0  0  0  0  0  0  0  0  0
  140.9850   70.6620  227.9090 C   0  0  0  0  0  0  0  0  0  0  0  0
  140.9440   71.4020  226.7510 C   0  0  0  0  0  0  0  0  0  0  0  0
  140.4180   70.8190  225.6240 C   0  0  0  0  0  0  0  0  0  0  0  0
  140.3740   71.5250  224.4990 N   0  0  0  0  0  0  0  0  0  0  0  0
  139.5730   73.6900  223.2870 H   0  0  0  0  0  0  0  0  0  0  0  0
  139.8124   73.6020  220.2326 H   0  0  0  0  0  0  0  0  0  0  0  0
  138.7433   74.7551  221.1334 H   0  0  0  0  0  0  0  0  0  0  0  0
  140.7255   76.9346  218.5518 H   0  0  0  0  0  0  0  0  0  0  0  0
  140.9455   77.6129  220.1806 H   0  0  0  0  0  0  0  0  0  0  0  0
  142.7656   78.3460  218.7073 H   0  0  0  0  0  0  0  0  0  0  0  0
  143.4096   77.2347  219.9637 H   0  0  0  0  0  0  0  0  0  0  0  0
  143.1858   76.8976  217.0259 H   0  0  0  0  0  0  0  0  0  0  0  0
  144.3295   76.1564  218.2389 H   0  0  0  0  0  0  0  0  0  0  0  0
  141.6162   75.2269  217.3425 H   0  0  0  0  0  0  0  0  0  0  0  0
  143.2067   74.3426  217.4521 H   0  0  0  0  0  0  0  0  0  0  0  0
  141.4934   73.6642  219.2270 H   0  0  0  0  0  0  0  0  0  0  0  0
  142.8725   71.9321  220.4365 H   0  0  0  0  0  0  0  0  0  0  0  0
  145.2680   71.8940  221.4690 H   0  0  0  0  0  0  0  0  0  0  0  0
  146.3482   74.2422  221.1660 H   0  0  0  0  0  0  0  0  0  0  0  0
  138.9762   69.3796  222.3189 H   0  0  0  0  0  0  0  0  0  0  0  0
  139.0312   68.0007  224.3946 H   0  0  0  0  0  0  0  0  0  0  0  0
  139.6008   67.7673  226.7957 H   0  0  0  0  0  0  0  0  0  0  0  0
  141.4014   71.1033  228.8265 H   0  0  0  0  0  0  0  0  0  0  0  0
  141.3227   72.4345  226.7277 H   0  0  0  0  0  0  0  0  0  0  0  0
  1  2  2  0
  2  3  1  0
  3  4  1  0
  4  5  1  0
  5  6  2  0
  5  7  1  0
  7  8  1  0
  8  9  1  0
  9 10  1  0
 10 11  1  0
 11 12  1  0
 12 13  1  0
 13 14  2  0
 14 15  1  0
 15 16  1  0
 16 17  2  0
  2 18  1  0
 18 19  2  0
 19 20  1  0
 20 21  2  0
 21 22  1  0
 22 23  2  0
 23 24  1  0
 23 25  1  0
 25 26  2  0
 26 27  1  0
 27 28  2  0
 12  7  1  0
 17 13  1  0
 28 18  1  0
 27 21  1  0
  3 29  1  0
  4 30  1  0
  4 31  1  0
  8 32  1  0
  8 33  1  0
  9 34  1  0
  9 35  1  0
 10 36  1  0
 10 37  1  0
 11 38  1  0
 11 39  1  0
 12 40  1  6
 14 41  1  0
 15 42  1  0
 16 43  1  0
 19 44  1  0
 20 45  1  0
 22 46  1  0
 25 47  1  0
 26 48  1  0
M  END
>  <smiles>  (44) 
O=C(NCC(=O)N1CCCC[C@H]1c1c[nH]cn1)c1ccc2cc(F)ccc2n1

>  <score_type>  (44) 
oracle

>  <origin>  (44) 
autodockgpu

>  <m_score__min__energy>  (44) 
-8.1500000000000004

>  <m_primary>  (44) 
energy

>  <rmsd>  (44) 
2.658449440768487

>  <m_score__min__rmsd>  (44) 
2.658449440768487

>  <meeko>  (44) 
{"free_energy": -7.91, "intermolecular_energy": -9.4, "internal_energy": -1.7, "cluster_size": 20, "cluster_id": 2, "rank_in_cluster": 10}

>  <energy>  (44) 
-6.69

>  <cluster_rmsd>  (44) 
1.13

>  <cluster>  (44) 
4

$$$$

     RDKit          3D

 48 51  0  0  0  0  0  0  0  0999 V2000
  138.5650   74.9230  222.2230 O   0  0  0  0  0  0  0  0  0  0  0  0
  139.6210   75.3820  221.6910 C   0  0  0  0  0  0  0  0  0  0  0  0
  139.7190   76.7620  221.3670 N   0  0  0  0  0  0  0  0  0  0  0  0
  138.6270   77.6780  221.6330 C   0  0  0  0  0  0  0  0  0  0  0  0
  139.0320   79.0900  221.4090 C   0  0  0  0  0  0  0  0  0  0  0  0
  138.3080   79.8270  220.6900 O   0  0  0  0  0  0  0  0  0  0  0  0
  140.2330   79.5370  222.0290 N   0  0  0  0  0  0  0  0  0  0  0  0
  140.5590   79.2060  223.4200 C   0  0  0  0  0  0  0  0  0  0  0  0
  141.9660   78.7080  223.4330 C   0  0  0  0  0  0  0  0  0  0  0  0
  142.8960   79.8080  222.9710 C   0  0  0  0  0  0  0  0  0  0  0  0
  142.1960   80.8820  222.1730 C   0  0  0  0  0  0  0  0  0  0  0  0
  141.1340   80.3330  221.2490 C   0  0  1  0  0  0  0  0  0  0  0  0
  141.7810   79.6350  220.1270 C   0  0  0  0  0  0  0  0  0  0  0  0
  142.3800   80.2170  219.0140 C   0  0  0  0  0  0  0  0  0  0  0  0
  142.8470   79.2440  218.2340 N   0  0  0  0  0  0  0  0  0  0  0  0
  142.5470   78.0830  218.8440 C   0  0  0  0  0  0  0  0  0  0  0  0
  141.8980   78.3010  220.0010 N   0  0  0  0  0  0  0  0  0  0  0  0
  140.7380   74.4810  221.4110 C   0  0  0  0  0  0  0  0  0  0  0  0
  140.5800   73.1230  221.5440 C   0  0  0  0  0  0  0  0  0  0  0  0
  141.6870   72.3360  221.2610 C   0  0  0  0  0  0  0  0  0  0  0  0
  142.8960   72.8690  220.8640 C   0  0  0  0  0  0  0  0  0  0  0  0
  144.0070   72.1240  220.5770 C   0  0  0  0  0  0  0  0  0  0  0  0
  145.1870   72.7420  220.1830 C   0  0  0  0  0  0  0  0  0  0  0  0
  146.3020   72.0480  219.8910 F   0  0  0  0  0  0  0  0  0  0  0  0
  145.2520   74.1170  220.0760 C   0  0  0  0  0  0  0  0  0  0  0  0
  144.1490   74.8870  220.3600 C   0  0  0  0  0  0  0  0  0  0  0  0
  142.9940   74.2530  220.7470 C   0  0  0  0  0  0  0  0  0  0  0  0
  141.9220   74.9880  221.0230 N   0  0  0  0  0  0  0  0  0  0  0  0
  140.6310   77.0810  220.9240 H   0  0  0  0  0  0  0  0  0  0  0  0
  137.7876   77.4368  220.9643 H   0  0  0  0  0  0  0  0  0  0  0  0
  138.3332   77.5670  222.6872 H   0  0  0  0  0  0  0  0  0  0  0  0
  140.4697   80.1018  224.0522 H   0  0  0  0  0  0  0  0  0  0  0  0
  139.8698   78.4444  223.8137 H   0  0  0  0  0  0  0  0  0  0  0  0
  142.2375   78.4036  224.4546 H   0  0  0  0  0  0  0  0  0  0  0  0
  142.0552   77.8451  222.7566 H   0  0  0  0  0  0  0  0  0  0  0  0
  143.3546   80.2729  223.8561 H   0  0  0  0  0  0  0  0  0  0  0  0
  143.6459   79.3468  222.3115 H   0  0  0  0  0  0  0  0  0  0  0  0
  141.7220   81.5859  222.8728 H   0  0  0  0  0  0  0  0  0  0  0  0
  142.9548   81.3741  221.5468 H   0  0  0  0  0  0  0  0  0  0  0  0
  140.5255   81.1222  220.7834 H   0  0  0  0  0  0  0  0  0  0  0  0
  142.4549   81.2959  218.8130 H   0  0  0  0  0  0  0  0  0  0  0  0
  143.3560   79.3620  217.3110 H   0  0  0  0  0  0  0  0  0  0  0  0
  142.7991   77.0879  218.4487 H   0  0  0  0  0  0  0  0  0  0  0  0
  139.6232   72.6813  221.8593 H   0  0  0  0  0  0  0  0  0  0  0  0
  141.5972   71.2439  221.3570 H   0  0  0  0  0  0  0  0  0  0  0  0
  143.9656   71.0278  220.6588 H   0  0  0  0  0  0  0  0  0  0  0  0
  146.1900   74.5983  219.7623 H   0  0  0  0  0  0  0  0  0  0  0  0
  144.1906   75.9832  220.2793 H   0  0  0  0  0  0  0  0  0  0  0  0
  1  2  2  0
  2  3  1  0
  3  4  1  0
  4  5  1  0
  5  6  2  0
  5  7  1  0
  7  8  1  0
  8  9  1  0
  9 10  1  0
 10 11  1  0
 11 12  1  0
 12 13  1  0
 13 14  2  0
 14 15  1  0
 15 16  1  0
 16 17  2  0
  2 18  1  0
 18 19  2  0
 19 20  1  0
 20 21  2  0
 21 22  1  0
 22 23  2  0
 23 24  1  0
 23 25  1  0
 25 26  2  0
 26 27  1  0
 27 28  2  0
 12  7  1  0
 17 13  1  0
 28 18  1  0
 27 21  1  0
  3 29  1  0
  4 30  1  0
  4 31  1  0
  8 32  1  0
  8 33  1  0
  9 34  1  0
  9 35  1  0
 10 36  1  0
 10 37  1  0
 11 38  1  0
 11 39  1  0
 12 40  1  6
 14 41  1  0
 15 42  1  0
 16 43  1  0
 19 44  1  0
 20 45  1  0
 22 46  1  0
 25 47  1  0
 26 48  1  0
M  END
>  <smiles>  (45) 
O=C(NCC(=O)N1CCCC[C@H]1c1c[nH]cn1)c1ccc2cc(F)ccc2n1

>  <score_type>  (45) 
oracle

>  <origin>  (45) 
autodockgpu

>  <m_score__min__energy>  (45) 
-8.1500000000000004

>  <m_primary>  (45) 
energy

>  <rmsd>  (45) 
6.343678226815705

>  <m_score__min__rmsd>  (45) 
6.343678226815705

>  <meeko>  (45) 
{"free_energy": -6.52, "intermolecular_energy": -8.01, "internal_energy": -2.88, "cluster_size": 22, "cluster_id": 4, "rank_in_cluster": 21}

>  <energy>  (45) 
-6.68

>  <cluster_rmsd>  (45) 
1.14

>  <cluster>  (45) 
4

$$$$

     RDKit          3D

 48 51  0  0  0  0  0  0  0  0999 V2000
  141.3000   72.5670  221.9100 O   0  0  0  0  0  0  0  0  0  0  0  0
  140.2360   72.5110  222.6000 C   0  0  0  0  0  0  0  0  0  0  0  0
  139.1630   73.4040  222.3380 N   0  0  0  0  0  0  0  0  0  0  0  0
  139.2500   74.3970  221.2840 C   0  0  0  0  0  0  0  0  0  0  0  0
  139.8920   75.6480  221.7630 C   0  0  0  0  0  0  0  0  0  0  0  0
  141.0690   75.5990  222.2060 O   0  0  0  0  0  0  0  0  0  0  0  0
  139.1290   76.8480  221.6940 N   0  0  0  0  0  0  0  0  0  0  0  0
  137.7530   76.9230  222.1950 C   0  0  0  0  0  0  0  0  0  0  0  0
  137.6640   78.1460  223.0470 C   0  0  0  0  0  0  0  0  0  0  0  0
  137.9360   79.3710  222.2040 C   0  0  0  0  0  0  0  0  0  0  0  0
  138.6860   79.0620  220.9300 C   0  0  0  0  0  0  0  0  0  0  0  0
  139.7480   78.0030  221.1130 C   0  0  1  0  0  0  0  0  0  0  0  0
  140.8690   78.5690  221.8780 C   0  0  0  0  0  0  0  0  0  0  0  0
  142.1100   78.9560  221.3810 C   0  0  0  0  0  0  0  0  0  0  0  0
  142.8420   79.4160  222.3940 N   0  0  0  0  0  0  0  0  0  0  0  0
  142.0770   79.3180  223.4970 C   0  0  0  0  0  0  0  0  0  0  0  0
  140.8710   78.8040  223.2030 N   0  0  0  0  0  0  0  0  0  0  0  0
  140.1230   71.5200  223.6690 C   0  0  0  0  0  0  0  0  0  0  0  0
  139.5300   70.3060  223.4250 C   0  0  0  0  0  0  0  0  0  0  0  0
  139.4600   69.4210  224.4920 C   0  0  0  0  0  0  0  0  0  0  0  0
  139.9550   69.7240  225.7430 C   0  0  0  0  0  0  0  0  0  0  0  0
  139.9040   68.8770  226.8160 C   0  0  0  0  0  0  0  0  0  0  0  0
  140.4270   69.2630  228.0430 C   0  0  0  0  0  0  0  0  0  0  0  0
  140.3980   68.4600  229.1240 F   0  0  0  0  0  0  0  0  0  0  0  0
  141.0060   70.5060  228.1950 C   0  0  0  0  0  0  0  0  0  0  0  0
  141.0700   71.3750  227.1320 C   0  0  0  0  0  0  0  0  0  0  0  0
  140.5460   70.9720  225.9290 C   0  0  0  0  0  0  0  0  0  0  0  0
  140.6020   71.8040  224.8940 N   0  0  0  0  0  0  0  0  0  0  0  0
  138.3020   73.3040  222.9520 H   0  0  0  0  0  0  0  0  0  0  0  0
  139.8440   73.9859  220.4544 H   0  0  0  0  0  0  0  0  0  0  0  0
  138.2289   74.6388  220.9540 H   0  0  0  0  0  0  0  0  0  0  0  0
  137.0483   76.9968  221.3537 H   0  0  0  0  0  0  0  0  0  0  0  0
  137.4963   76.0229  222.7728 H   0  0  0  0  0  0  0  0  0  0  0  0
  136.6560   78.2170  223.4817 H   0  0  0  0  0  0  0  0  0  0  0  0
  138.4090   78.0846  223.8539 H   0  0  0  0  0  0  0  0  0  0  0  0
  136.9739   79.8342  221.9397 H   0  0  0  0  0  0  0  0  0  0  0  0
  138.5688   80.0445  222.8007 H   0  0  0  0  0  0  0  0  0  0  0  0
  137.9664   78.7104  220.1760 H   0  0  0  0  0  0  0  0  0  0  0  0
  139.1930   79.9856  220.6140 H   0  0  0  0  0  0  0  0  0  0  0  0
  140.1886   77.6716  220.1611 H   0  0  0  0  0  0  0  0  0  0  0  0
  142.4314   78.8927  220.3309 H   0  0  0  0  0  0  0  0  0  0  0  0
  143.8340   79.7870  222.3420 H   0  0  0  0  0  0  0  0  0  0  0  0
  142.3968   79.6189  224.5056 H   0  0  0  0  0  0  0  0  0  0  0  0
  139.1303   70.0476  222.4333 H   0  0  0  0  0  0  0  0  0  0  0  0
  138.9910   68.4387  224.3334 H   0  0  0  0  0  0  0  0  0  0  0  0
  139.4455   67.8832  226.7060 H   0  0  0  0  0  0  0  0  0  0  0  0
  141.4180   70.8028  229.1708 H   0  0  0  0  0  0  0  0  0  0  0  0
  141.5295   72.3683  227.2425 H   0  0  0  0  0  0  0  0  0  0  0  0
  1  2  2  0
  2  3  1  0
  3  4  1  0
  4  5  1  0
  5  6  2  0
  5  7  1  0
  7  8  1  0
  8  9  1  0
  9 10  1  0
 10 11  1  0
 11 12  1  0
 12 13  1  0
 13 14  2  0
 14 15  1  0
 15 16  1  0
 16 17  2  0
  2 18  1  0
 18 19  2  0
 19 20  1  0
 20 21  2  0
 21 22  1  0
 22 23  2  0
 23 24  1  0
 23 25  1  0
 25 26  2  0
 26 27  1  0
 27 28  2  0
 12  7  1  0
 17 13  1  0
 28 18  1  0
 27 21  1  0
  3 29  1  0
  4 30  1  0
  4 31  1  0
  8 32  1  0
  8 33  1  0
  9 34  1  0
  9 35  1  0
 10 36  1  0
 10 37  1  0
 11 38  1  0
 11 39  1  0
 12 40  1  6
 14 41  1  0
 15 42  1  0
 16 43  1  0
 19 44  1  0
 20 45  1  0
 22 46  1  0
 25 47  1  0
 26 48  1  0
M  END
>  <smiles>  (46) 
O=C(NCC(=O)N1CCCC[C@H]1c1c[nH]cn1)c1ccc2cc(F)ccc2n1

>  <score_type>  (46) 
oracle

>  <origin>  (46) 
autodockgpu

>  <m_score__min__energy>  (46) 
-8.1500000000000004

>  <m_primary>  (46) 
energy

>  <rmsd>  (46) 
2.833531601352419

>  <m_score__min__rmsd>  (46) 
2.833531601352419

>  <meeko>  (46) 
{"free_energy": -8.02, "intermolecular_energy": -9.51, "internal_energy": -1.2, "cluster_size": 5, "cluster_id": 3, "rank_in_cluster": 1}

>  <energy>  (46) 
-6.61

>  <cluster_rmsd>  (46) 
1.17

>  <cluster>  (46) 
4

$$$$

     RDKit          3D

 48 51  0  0  0  0  0  0  0  0999 V2000
  138.6210   74.8850  222.3190 O   0  0  0  0  0  0  0  0  0  0  0  0
  139.6430   75.3360  221.7190 C   0  0  0  0  0  0  0  0  0  0  0  0
  139.7060   76.7040  221.3380 N   0  0  0  0  0  0  0  0  0  0  0  0
  138.6140   77.6150  221.6220 C   0  0  0  0  0  0  0  0  0  0  0  0
  138.9980   79.0260  221.3550 C   0  0  0  0  0  0  0  0  0  0  0  0
  138.2680   79.7260  220.6060 O   0  0  0  0  0  0  0  0  0  0  0  0
  140.1850   79.5130  221.9700 N   0  0  0  0  0  0  0  0  0  0  0  0
  140.5240   79.1990  223.3620 C   0  0  0  0  0  0  0  0  0  0  0  0
  141.9460   78.7450  223.3740 C   0  0  0  0  0  0  0  0  0  0  0  0
  142.8410   79.8700  222.9040 C   0  0  0  0  0  0  0  0  0  0  0  0
  142.1070   80.9180  222.1020 C   0  0  0  0  0  0  0  0  0  0  0  0
  141.0600   80.3320  221.1830 C   0  0  1  0  0  0  0  0  0  0  0  0
  141.7260   79.6490  220.0640 C   0  0  0  0  0  0  0  0  0  0  0  0
  142.3240   80.2440  218.9570 C   0  0  0  0  0  0  0  0  0  0  0  0
  142.8110   79.2820  218.1770 N   0  0  0  0  0  0  0  0  0  0  0  0
  142.5260   78.1140  218.7810 C   0  0  0  0  0  0  0  0  0  0  0  0
  141.8650   78.3170  219.9340 N   0  0  0  0  0  0  0  0  0  0  0  0
  140.7580   74.4390  221.4200 C   0  0  0  0  0  0  0  0  0  0  0  0
  140.5960   73.0790  221.5180 C   0  0  0  0  0  0  0  0  0  0  0  0
  141.7020   72.2960  221.2180 C   0  0  0  0  0  0  0  0  0  0  0  0
  142.9130   72.8360  220.8380 C   0  0  0  0  0  0  0  0  0  0  0  0
  144.0230   72.0950  220.5360 C   0  0  0  0  0  0  0  0  0  0  0  0
  145.2060   72.7200  220.1610 C   0  0  0  0  0  0  0  0  0  0  0  0
  146.3210   72.0290  219.8540 F   0  0  0  0  0  0  0  0  0  0  0  0
  145.2750   74.0960  220.0890 C   0  0  0  0  0  0  0  0  0  0  0  0
  144.1740   74.8620  220.3880 C   0  0  0  0  0  0  0  0  0  0  0  0
  143.0160   74.2220  220.7560 C   0  0  0  0  0  0  0  0  0  0  0  0
  141.9450   74.9530  221.0480 N   0  0  0  0  0  0  0  0  0  0  0  0
  140.5900   77.0160  220.8390 H   0  0  0  0  0  0  0  0  0  0  0  0
  137.7550   77.3521  220.9872 H   0  0  0  0  0  0  0  0  0  0  0  0
  138.3563   77.5232  222.6874 H   0  0  0  0  0  0  0  0  0  0  0  0
  140.4082   80.0946  223.9901 H   0  0  0  0  0  0  0  0  0  0  0  0
  139.8597   78.4183  223.7609 H   0  0  0  0  0  0  0  0  0  0  0  0
  142.2291   78.4546  224.3965 H   0  0  0  0  0  0  0  0  0  0  0  0
  142.0599   77.8819  222.7016 H   0  0  0  0  0  0  0  0  0  0  0  0
  143.2873   80.3534  223.7856 H   0  0  0  0  0  0  0  0  0  0  0  0
  143.6031   79.4282  222.2452 H   0  0  0  0  0  0  0  0  0  0  0  0
  141.6132   81.6109  222.7992 H   0  0  0  0  0  0  0  0  0  0  0  0
  142.8492   81.4296  221.4715 H   0  0  0  0  0  0  0  0  0  0  0  0
  140.4261   81.0991  220.7142 H   0  0  0  0  0  0  0  0  0  0  0  0
  142.3839   81.3246  218.7604 H   0  0  0  0  0  0  0  0  0  0  0  0
  143.3250   79.4100  217.2580 H   0  0  0  0  0  0  0  0  0  0  0  0
  142.7977   77.1247  218.3843 H   0  0  0  0  0  0  0  0  0  0  0  0
  139.6371   72.6322  221.8194 H   0  0  0  0  0  0  0  0  0  0  0  0
  141.6092   71.2020  221.2859 H   0  0  0  0  0  0  0  0  0  0  0  0
  143.9785   70.9973  220.5904 H   0  0  0  0  0  0  0  0  0  0  0  0
  146.2156   74.5822  219.7909 H   0  0  0  0  0  0  0  0  0  0  0  0
  144.2191   75.9597  220.3340 H   0  0  0  0  0  0  0  0  0  0  0  0
  1  2  2  0
  2  3  1  0
  3  4  1  0
  4  5  1  0
  5  6  2  0
  5  7  1  0
  7  8  1  0
  8  9  1  0
  9 10  1  0
 10 11  1  0
 11 12  1  0
 12 13  1  0
 13 14  2  0
 14 15  1  0
 15 16  1  0
 16 17  2  0
  2 18  1  0
 18 19  2  0
 19 20  1  0
 20 21  2  0
 21 22  1  0
 22 23  2  0
 23 24  1  0
 23 25  1  0
 25 26  2  0
 26 27  1  0
 27 28  2  0
 12  7  1  0
 17 13  1  0
 28 18  1  0
 27 21  1  0
  3 29  1  0
  4 30  1  0
  4 31  1  0
  8 32  1  0
  8 33  1  0
  9 34  1  0
  9 35  1  0
 10 36  1  0
 10 37  1  0
 11 38  1  0
 11 39  1  0
 12 40  1  6
 14 41  1  0
 15 42  1  0
 16 43  1  0
 19 44  1  0
 20 45  1  0
 22 46  1  0
 25 47  1  0
 26 48  1  0
M  END
>  <smiles>  (47) 
O=C(NCC(=O)N1CCCC[C@H]1c1c[nH]cn1)c1ccc2cc(F)ccc2n1

>  <score_type>  (47) 
oracle

>  <origin>  (47) 
autodockgpu

>  <m_score__min__energy>  (47) 
-8.1500000000000004

>  <m_primary>  (47) 
energy

>  <rmsd>  (47) 
6.325565906762578

>  <m_score__min__rmsd>  (47) 
6.325565906762578

>  <meeko>  (47) 
{"free_energy": -6.58, "intermolecular_energy": -8.08, "internal_energy": -2.83, "cluster_size": 22, "cluster_id": 4, "rank_in_cluster": 19}

>  <energy>  (47) 
-6.58

>  <cluster_rmsd>  (47) 
1.2

>  <cluster>  (47) 
4

$$$$

     RDKit          3D

 48 51  0  0  0  0  0  0  0  0999 V2000
  139.6370   71.0780  221.1400 O   0  0  0  0  0  0  0  0  0  0  0  0
  139.7200   71.5970  222.2950 C   0  0  0  0  0  0  0  0  0  0  0  0
  139.8310   73.0060  222.4410 N   0  0  0  0  0  0  0  0  0  0  0  0
  139.8520   73.8840  221.2880 C   0  0  0  0  0  0  0  0  0  0  0  0
  141.0900   74.7050  221.2480 C   0  0  0  0  0  0  0  0  0  0  0  0
  141.0280   75.9190  221.5750 O   0  0  0  0  0  0  0  0  0  0  0  0
  142.2920   74.0640  220.8380 N   0  0  0  0  0  0  0  0  0  0  0  0
  142.4340   72.6040  220.8400 C   0  0  0  0  0  0  0  0  0  0  0  0
  143.0020   72.2180  219.5150 C   0  0  0  0  0  0  0  0  0  0  0  0
  144.3740   72.8330  219.3540 C   0  0  0  0  0  0  0  0  0  0  0  0
  144.6050   74.0180  220.2610 C   0  0  0  0  0  0  0  0  0  0  0  0
  143.3820   74.8920  220.4130 C   0  0  1  0  0  0  0  0  0  0  0  0
  143.1600   75.6340  219.1630 C   0  0  0  0  0  0  0  0  0  0  0  0
  143.3380   76.9990  218.9570 C   0  0  0  0  0  0  0  0  0  0  0  0
  143.0310   77.2750  217.6910 N   0  0  0  0  0  0  0  0  0  0  0  0
  142.6690   76.1120  217.1200 C   0  0  0  0  0  0  0  0  0  0  0  0
  142.7420   75.0990  218.0010 N   0  0  0  0  0  0  0  0  0  0  0  0
  139.7020   70.7350  223.4750 C   0  0  0  0  0  0  0  0  0  0  0  0
  139.1790   69.4680  223.3970 C   0  0  0  0  0  0  0  0  0  0  0  0
  139.1990   68.7120  224.5610 C   0  0  0  0  0  0  0  0  0  0  0  0
  139.7120   69.1900  225.7480 C   0  0  0  0  0  0  0  0  0  0  0  0
  139.7470   68.4740  226.9140 C   0  0  0  0  0  0  0  0  0  0  0  0
  140.2840   69.0330  228.0670 C   0  0  0  0  0  0  0  0  0  0  0  0
  140.3390   68.3630  229.2340 F   0  0  0  0  0  0  0  0  0  0  0  0
  140.7880   70.3170  228.0510 C   0  0  0  0  0  0  0  0  0  0  0  0
  140.7640   71.0560  226.8920 C   0  0  0  0  0  0  0  0  0  0  0  0
  140.2290   70.4840  225.7650 C   0  0  0  0  0  0  0  0  0  0  0  0
  140.2010   71.1890  224.6400 N   0  0  0  0  0  0  0  0  0  0  0  0
  139.8970   73.3750  223.4350 H   0  0  0  0  0  0  0  0  0  0  0  0
  139.7983   73.2743  220.3740 H   0  0  0  0  0  0  0  0  0  0  0  0
  138.9903   74.5641  221.3577 H   0  0  0  0  0  0  0  0  0  0  0  0
  143.1129   72.2918  221.6472 H   0  0  0  0  0  0  0  0  0  0  0  0
  141.4626   72.1158  221.0075 H   0  0  0  0  0  0  0  0  0  0  0  0
  143.0824   71.1225  219.4560 H   0  0  0  0  0  0  0  0  0  0  0  0
  142.3417   72.5818  218.7139 H   0  0  0  0  0  0  0  0  0  0  0  0
  145.1295   72.0664  219.5811 H   0  0  0  0  0  0  0  0  0  0  0  0
  144.4505   73.1946  218.3180 H   0  0  0  0  0  0  0  0  0  0  0  0
  144.8967   73.6473  221.2547 H   0  0  0  0  0  0  0  0  0  0  0  0
  145.3944   74.6331  219.8044 H   0  0  0  0  0  0  0  0  0  0  0  0
  143.5028   75.6636  221.1876 H   0  0  0  0  0  0  0  0  0  0  0  0
  143.6747   77.7256  219.7111 H   0  0  0  0  0  0  0  0  0  0  0  0
  143.0640   78.2270  217.2240 H   0  0  0  0  0  0  0  0  0  0  0  0
  142.3549   76.0041  216.0713 H   0  0  0  0  0  0  0  0  0  0  0  0
  138.7646   69.0715  222.4584 H   0  0  0  0  0  0  0  0  0  0  0  0
  138.7894   67.6914  224.5353 H   0  0  0  0  0  0  0  0  0  0  0  0
  139.3474   67.4494  226.9383 H   0  0  0  0  0  0  0  0  0  0  0  0
  141.2107   70.7512  228.9690 H   0  0  0  0  0  0  0  0  0  0  0  0
  141.1638   72.0805  226.8685 H   0  0  0  0  0  0  0  0  0  0  0  0
  1  2  2  0
  2  3  1  0
  3  4  1  0
  4  5  1  0
  5  6  2  0
  5  7  1  0
  7  8  1  0
  8  9  1  0
  9 10  1  0
 10 11  1  0
 11 12  1  0
 12 13  1  0
 13 14  2  0
 14 15  1  0
 15 16  1  0
 16 17  2  0
  2 18  1  0
 18 19  2  0
 19 20  1  0
 20 21  2  0
 21 22  1  0
 22 23  2  0
 23 24  1  0
 23 25  1  0
 25 26  2  0
 26 27  1  0
 27 28  2  0
 12  7  1  0
 17 13  1  0
 28 18  1  0
 27 21  1  0
  3 29  1  0
  4 30  1  0
  4 31  1  0
  8 32  1  0
  8 33  1  0
  9 34  1  0
  9 35  1  0
 10 36  1  0
 10 37  1  0
 11 38  1  0
 11 39  1  0
 12 40  1  1
 14 41  1  0
 15 42  1  0
 16 43  1  0
 19 44  1  0
 20 45  1  0
 22 46  1  0
 25 47  1  0
 26 48  1  0
M  END
>  <smiles>  (48) 
O=C(NCC(=O)N1CCCC[C@H]1c1c[nH]cn1)c1ccc2cc(F)ccc2n1

>  <score_type>  (48) 
oracle

>  <origin>  (48) 
autodockgpu

>  <m_score__min__energy>  (48) 
-8.1500000000000004

>  <m_primary>  (48) 
energy

>  <rmsd>  (48) 
3.2792833854338923

>  <m_score__min__rmsd>  (48) 
3.2792833854338923

>  <meeko>  (48) 
{"free_energy": -7.07, "intermolecular_energy": -8.56, "internal_energy": -1.67, "cluster_size": 3, "cluster_id": 1, "rank_in_cluster": 3}

>  <energy>  (48) 
-6.57

>  <cluster_rmsd>  (48) 
1.2

>  <cluster>  (48) 
4

$$$$

     RDKit          3D

 48 51  0  0  0  0  0  0  0  0999 V2000
  141.1330   72.1110  221.3870 O   0  0  0  0  0  0  0  0  0  0  0  0
  140.2690   72.3380  222.2880 C   0  0  0  0  0  0  0  0  0  0  0  0
  139.4200   73.4730  222.1970 N   0  0  0  0  0  0  0  0  0  0  0  0
  139.5130   74.3960  221.0820 C   0  0  0  0  0  0  0  0  0  0  0  0
  140.0400   75.7180  221.5110 C   0  0  0  0  0  0  0  0  0  0  0  0
  139.9780   76.0350  222.7270 O   0  0  0  0  0  0  0  0  0  0  0  0
  140.5920   76.5630  220.5080 N   0  0  0  0  0  0  0  0  0  0  0  0
  140.4830   78.0240  220.5760 C   0  0  0  0  0  0  0  0  0  0  0  0
  141.8460   78.5770  220.3220 C   0  0  0  0  0  0  0  0  0  0  0  0
  142.2960   78.1940  218.9290 C   0  0  0  0  0  0  0  0  0  0  0  0
  141.5510   77.0050  218.3700 C   0  0  0  0  0  0  0  0  0  0  0  0
  141.2710   75.9430  219.4080 C   0  0  1  0  0  0  0  0  0  0  0  0
  142.5260   75.2560  219.7490 C   0  0  0  0  0  0  0  0  0  0  0  0
  143.7060   75.2540  219.0110 C   0  0  0  0  0  0  0  0  0  0  0  0
  144.6040   74.5170  219.6600 N   0  0  0  0  0  0  0  0  0  0  0  0
  144.0010   74.0670  220.7750 C   0  0  0  0  0  0  0  0  0  0  0  0
  142.7330   74.5080  220.8480 N   0  0  0  0  0  0  0  0  0  0  0  0
  140.1540   71.4240  223.4230 C   0  0  0  0  0  0  0  0  0  0  0  0
  139.5630   70.1950  223.2630 C   0  0  0  0  0  0  0  0  0  0  0  0
  139.4920   69.3860  224.3880 C   0  0  0  0  0  0  0  0  0  0  0  0
  139.9830   69.7760  225.6170 C   0  0  0  0  0  0  0  0  0  0  0  0
  139.9300   69.0050  226.7450 C   0  0  0  0  0  0  0  0  0  0  0  0
  140.4510   69.4760  227.9450 C   0  0  0  0  0  0  0  0  0  0  0  0
  140.4190   68.7500  229.0790 F   0  0  0  0  0  0  0  0  0  0  0  0
  141.0280   70.7280  228.0110 C   0  0  0  0  0  0  0  0  0  0  0  0
  141.0930   71.5210  226.8900 C   0  0  0  0  0  0  0  0  0  0  0  0
  140.5720   71.0340  225.7170 C   0  0  0  0  0  0  0  0  0  0  0  0
  140.6300   71.7920  224.6270 N   0  0  0  0  0  0  0  0  0  0  0  0
  138.7190   73.6050  222.9850 H   0  0  0  0  0  0  0  0  0  0  0  0
  140.1865   73.9722  220.3225 H   0  0  0  0  0  0  0  0  0  0  0  0
  138.5032   74.5439  220.6716 H   0  0  0  0  0  0  0  0  0  0  0  0
  139.7801   78.3861  219.8113 H   0  0  0  0  0  0  0  0  0  0  0  0
  140.1072   78.3437  221.5592 H   0  0  0  0  0  0  0  0  0  0  0  0
  141.8188   79.6732  220.4098 H   0  0  0  0  0  0  0  0  0  0  0  0
  142.5508   78.1666  221.0601 H   0  0  0  0  0  0  0  0  0  0  0  0
  142.1354   79.0530  218.2610 H   0  0  0  0  0  0  0  0  0  0  0  0
  143.3579   77.9142  218.9934 H   0  0  0  0  0  0  0  0  0  0  0  0
  140.5926   77.3538  217.9579 H   0  0  0  0  0  0  0  0  0  0  0  0
  142.1886   76.5504  217.5975 H   0  0  0  0  0  0  0  0  0  0  0  0
  140.6021   75.1519  219.0383 H   0  0  0  0  0  0  0  0  0  0  0  0
  143.8685   75.7729  218.0548 H   0  0  0  0  0  0  0  0  0  0  0  0
  145.6020   74.3200  219.3560 H   0  0  0  0  0  0  0  0  0  0  0  0
  144.4814   73.4238  221.5270 H   0  0  0  0  0  0  0  0  0  0  0  0
  139.1654   69.8679  222.2909 H   0  0  0  0  0  0  0  0  0  0  0  0
  139.0256   68.3940  224.2964 H   0  0  0  0  0  0  0  0  0  0  0  0
  139.4722   68.0057  226.7028 H   0  0  0  0  0  0  0  0  0  0  0  0
  141.4375   71.0928  228.9645 H   0  0  0  0  0  0  0  0  0  0  0  0
  141.5508   72.5203  226.9318 H   0  0  0  0  0  0  0  0  0  0  0  0
  1  2  2  0
  2  3  1  0
  3  4  1  0
  4  5  1  0
  5  6  2  0
  5  7  1  0
  7  8  1  0
  8  9  1  0
  9 10  1  0
 10 11  1  0
 11 12  1  0
 12 13  1  0
 13 14  2  0
 14 15  1  0
 15 16  1  0
 16 17  2  0
  2 18  1  0
 18 19  2  0
 19 20  1  0
 20 21  2  0
 21 22  1  0
 22 23  2  0
 23 24  1  0
 23 25  1  0
 25 26  2  0
 26 27  1  0
 27 28  2  0
 12  7  1  0
 17 13  1  0
 28 18  1  0
 27 21  1  0
  3 29  1  0
  4 30  1  0
  4 31  1  0
  8 32  1  0
  8 33  1  0
  9 34  1  0
  9 35  1  0
 10 36  1  0
 10 37  1  0
 11 38  1  0
 11 39  1  0
 12 40  1  6
 14 41  1  0
 15 42  1  0
 16 43  1  0
 19 44  1  0
 20 45  1  0
 22 46  1  0
 25 47  1  0
 26 48  1  0
M  END
>  <smiles>  (49) 
O=C(NCC(=O)N1CCCC[C@H]1c1c[nH]cn1)c1ccc2cc(F)ccc2n1

>  <score_type>  (49) 
oracle

>  <origin>  (49) 
autodockgpu

>  <m_score__min__energy>  (49) 
-8.1500000000000004

>  <m_primary>  (49) 
energy

>  <rmsd>  (49) 
2.6093131335773583

>  <m_score__min__rmsd>  (49) 
2.6093131335773583

>  <meeko>  (49) 
{"free_energy": -7.61, "intermolecular_energy": -9.1, "internal_energy": -1.54, "cluster_size": 20, "cluster_id": 2, "rank_in_cluster": 16}

>  <energy>  (49) 
-6.52

>  <cluster_rmsd>  (49) 
1.21

>  <cluster>  (49) 
4

$$$$

     RDKit          3D

 48 51  0  0  0  0  0  0  0  0999 V2000
  141.1540   71.8420  221.5150 O   0  0  0  0  0  0  0  0  0  0  0  0
  140.2310   72.0990  222.3470 C   0  0  0  0  0  0  0  0  0  0  0  0
  139.3920   73.2300  222.1600 N   0  0  0  0  0  0  0  0  0  0  0  0
  139.5630   74.1150  221.0250 C   0  0  0  0  0  0  0  0  0  0  0  0
  140.7490   74.9950  221.1920 C   0  0  0  0  0  0  0  0  0  0  0  0
  141.0470   75.4050  222.3440 O   0  0  0  0  0  0  0  0  0  0  0  0
  141.4890   75.3310  220.0240 N   0  0  0  0  0  0  0  0  0  0  0  0
  141.8720   76.7140  219.7180 C   0  0  0  0  0  0  0  0  0  0  0  0
  143.3240   76.6980  219.3710 C   0  0  0  0  0  0  0  0  0  0  0  0
  143.5410   75.8550  218.1340 C   0  0  0  0  0  0  0  0  0  0  0  0
  142.4150   74.8830  217.8730 C   0  0  0  0  0  0  0  0  0  0  0  0
  141.8610   74.2680  219.1370 C   0  0  1  0  0  0  0  0  0  0  0  0
  142.8360   73.3090  219.6770 C   0  0  0  0  0  0  0  0  0  0  0  0
  143.7840   73.5480  220.6670 C   0  0  0  0  0  0  0  0  0  0  0  0
  144.4710   72.4260  220.8700 N   0  0  0  0  0  0  0  0  0  0  0  0
  143.9650   71.5080  220.0260 C   0  0  0  0  0  0  0  0  0  0  0  0
  142.9670   72.0270  219.2900 N   0  0  0  0  0  0  0  0  0  0  0  0
  140.0370   71.2220  223.5010 C   0  0  0  0  0  0  0  0  0  0  0  0
  139.2990   70.0710  223.3780 C   0  0  0  0  0  0  0  0  0  0  0  0
  139.1610   69.2940  224.5190 C   0  0  0  0  0  0  0  0  0  0  0  0
  139.7270   69.6410  225.7280 C   0  0  0  0  0  0  0  0  0  0  0  0
  139.6110   68.8990  226.8710 C   0  0  0  0  0  0  0  0  0  0  0  0
  140.2160   69.3230  228.0490 C   0  0  0  0  0  0  0  0  0  0  0  0
  140.1270   68.6240  229.1960 F   0  0  0  0  0  0  0  0  0  0  0  0
  140.9400   70.4970  228.0780 C   0  0  0  0  0  0  0  0  0  0  0  0
  141.0710   71.2590  226.9420 C   0  0  0  0  0  0  0  0  0  0  0  0
  140.4650   70.8210  225.7900 C   0  0  0  0  0  0  0  0  0  0  0  0
  140.5850   71.5500  224.6860 N   0  0  0  0  0  0  0  0  0  0  0  0
  138.6390   73.3870  222.8930 H   0  0  0  0  0  0  0  0  0  0  0  0
  139.6931   73.5091  220.1162 H   0  0  0  0  0  0  0  0  0  0  0  0
  138.6697   74.7521  220.9475 H   0  0  0  0  0  0  0  0  0  0  0  0
  141.2844   77.0893  218.8672 H   0  0  0  0  0  0  0  0  0  0  0  0
  141.6809   77.3736  220.5773 H   0  0  0  0  0  0  0  0  0  0  0  0
  143.6656   77.7257  219.1782 H   0  0  0  0  0  0  0  0  0  0  0  0
  143.8950   76.2711  220.2087 H   0  0  0  0  0  0  0  0  0  0  0  0
  143.6334   76.5245  217.2661 H   0  0  0  0  0  0  0  0  0  0  0  0
  144.4535   75.2629  218.2972 H   0  0  0  0  0  0  0  0  0  0  0  0
  141.6030   75.4173  217.3581 H   0  0  0  0  0  0  0  0  0  0  0  0
  142.8218   74.0652  217.2601 H   0  0  0  0  0  0  0  0  0  0  0  0
  140.9484   73.6800  218.9600 H   0  0  0  0  0  0  0  0  0  0  0  0
  143.9393   74.5018  221.1925 H   0  0  0  0  0  0  0  0  0  0  0  0
  145.2630   72.2830  221.5610 H   0  0  0  0  0  0  0  0  0  0  0  0
  144.3210   70.4701  219.9486 H   0  0  0  0  0  0  0  0  0  0  0  0
  138.8398   69.7792  222.4220 H   0  0  0  0  0  0  0  0  0  0  0  0
  138.5768   68.3640  224.4570 H   0  0  0  0  0  0  0  0  0  0  0  0
  139.0358   67.9615  226.8584 H   0  0  0  0  0  0  0  0  0  0  0  0
  141.4146   70.8246  229.0147 H   0  0  0  0  0  0  0  0  0  0  0  0
  141.6467   72.1962  226.9550 H   0  0  0  0  0  0  0  0  0  0  0  0
  1  2  2  0
  2  3  1  0
  3  4  1  0
  4  5  1  0
  5  6  2  0
  5  7  1  0
  7  8  1  0
  8  9  1  0
  9 10  1  0
 10 11  1  0
 11 12  1  0
 12 13  1  0
 13 14  2  0
 14 15  1  0
 15 16  1  0
 16 17  2  0
  2 18  1  0
 18 19  2  0
 19 20  1  0
 20 21  2  0
 21 22  1  0
 22 23  2  0
 23 24  1  0
 23 25  1  0
 25 26  2  0
 26 27  1  0
 27 28  2  0
 12  7  1  0
 17 13  1  0
 28 18  1  0
 27 21  1  0
  3 29  1  0
  4 30  1  0
  4 31  1  0
  8 32  1  0
  8 33  1  0
  9 34  1  0
  9 35  1  0
 10 36  1  0
 10 37  1  0
 11 38  1  0
 11 39  1  0
 12 40  1  6
 14 41  1  0
 15 42  1  0
 16 43  1  0
 19 44  1  0
 20 45  1  0
 22 46  1  0
 25 47  1  0
 26 48  1  0
M  END
>  <smiles>  (50) 
O=C(NCC(=O)N1CCCC[C@H]1c1c[nH]cn1)c1ccc2cc(F)ccc2n1

>  <score_type>  (50) 
oracle

>  <origin>  (50) 
autodockgpu

>  <m_score__min__energy>  (50) 
-8.1500000000000004

>  <m_primary>  (50) 
energy

>  <rmsd>  (50) 
3.1525201261255975

>  <m_score__min__rmsd>  (50) 
3.1525201261255975

>  <meeko>  (50) 
{"free_energy": -7.43, "intermolecular_energy": -8.92, "internal_energy": -1.56, "cluster_size": 20, "cluster_id": 2, "rank_in_cluster": 17}

>  <energy>  (50) 
-5.94

>  <cluster_rmsd>  (50) 
1.58

>  <cluster>  (50) 
4

$$$$
