
     RDKit          3D

 54 58  0  0  0  0  0  0  0  0999 V2000
  139.2180   74.8580  222.1980 O   0  0  0  0  0  0  0  0  0  0  0  0
  140.2600   75.5370  222.0110 C   0  0  0  0  0  0  0  0  0  0  0  0
  141.4370   75.0070  221.4070 N   0  0  0  0  0  0  0  0  0  0  0  0
  141.4450   73.6100  220.9800 C   0  0  0  0  0  0  0  0  0  0  0  0
  140.9490   73.5370  219.5780 C   0  0  0  0  0  0  0  0  0  0  0  0
  139.9240   72.8530  219.3170 O   0  0  0  0  0  0  0  0  0  0  0  0
  141.6330   74.2320  218.5700 N   0  0  0  0  0  0  0  0  0  0  0  0
  141.2340   74.3010  217.1560 C   0  0  0  0  0  0  0  0  0  0  0  0
  142.5550   74.4160  216.4120 C   0  0  0  0  0  0  0  0  0  0  0  0
  143.6280   74.5070  217.4780 C   0  0  0  0  0  0  0  0  0  0  0  0
  142.8320   75.0110  218.6610 C   0  0  1  0  0  0  0  0  0  0  0  0
  142.6360   76.4690  218.6340 C   0  0  0  0  0  0  0  0  0  0  0  0
  143.3310   77.3000  217.7500 C   0  0  0  0  0  0  0  0  0  0  0  0
  142.9420   78.5580  217.9650 N   0  0  0  0  0  0  0  0  0  0  0  0
  142.0280   78.5550  218.9520 C   0  0  0  0  0  0  0  0  0  0  0  0
  141.3600   79.7380  219.4810 C   0  0  0  0  0  0  0  0  0  0  0  0
  140.0080   79.7390  219.7180 C   0  0  0  0  0  0  0  0  0  0  0  0
  139.4370   80.9030  220.2240 C   0  0  0  0  0  0  0  0  0  0  0  0
  140.2450   81.9760  220.4550 C   0  0  0  0  0  0  0  0  0  0  0  0
  141.6100   81.9790  220.2180 C   0  0  0  0  0  0  0  0  0  0  0  0
  142.1260   80.8280  219.7270 N   0  0  0  0  0  0  0  0  0  0  0  0
  141.8510   77.2760  219.3510 N   0  0  0  0  0  0  0  0  0  0  0  0
  140.2760   76.9470  222.4320 C   0  0  0  0  0  0  0  0  0  0  0  0
  139.0940   77.6160  222.6810 C   0  0  0  0  0  0  0  0  0  0  0  0
  139.0890   78.9420  223.0780 C   0  0  0  0  0  0  0  0  0  0  0  0
  140.2810   79.5910  223.2230 C   0  0  0  0  0  0  0  0  0  0  0  0
  140.3430   80.9050  223.6130 C   0  0  0  0  0  0  0  0  0  0  0  0
  141.5690   81.5440  223.7540 C   0  0  0  0  0  0  0  0  0  0  0  0
  142.7370   80.8870  223.5090 C   0  0  0  0  0  0  0  0  0  0  0  0
  142.6670   79.5680  223.1180 C   0  0  0  0  0  0  0  0  0  0  0  0
  141.4590   78.9140  222.9720 C   0  0  0  0  0  0  0  0  0  0  0  0
  141.4320   77.6200  222.5860 N   0  0  0  0  0  0  0  0  0  0  0  0
  142.2600   75.6390  221.2880 H   0  0  0  0  0  0  0  0  0  0  0  0
  142.4696   73.2130  221.0314 H   0  0  0  0  0  0  0  0  0  0  0  0
  140.7971   73.0129  221.6385 H   0  0  0  0  0  0  0  0  0  0  0  0
  140.6934   73.3911  216.8565 H   0  0  0  0  0  0  0  0  0  0  0  0
  140.5532   75.1392  216.9464 H   0  0  0  0  0  0  0  0  0  0  0  0
  142.7169   73.5294  215.7814 H   0  0  0  0  0  0  0  0  0  0  0  0
  142.5694   75.2942  215.7498 H   0  0  0  0  0  0  0  0  0  0  0  0
  144.0751   73.5233  217.6837 H   0  0  0  0  0  0  0  0  0  0  0  0
  144.4803   75.1463  217.2045 H   0  0  0  0  0  0  0  0  0  0  0  0
  143.3311   74.8828  219.6329 H   0  0  0  0  0  0  0  0  0  0  0  0
  144.0714   76.9728  217.0052 H   0  0  0  0  0  0  0  0  0  0  0  0
  143.2950   79.3940  217.4490 H   0  0  0  0  0  0  0  0  0  0  0  0
  139.3954   78.8483  219.5145 H   0  0  0  0  0  0  0  0  0  0  0  0
  138.3583   80.9558  220.4327 H   0  0  0  0  0  0  0  0  0  0  0  0
  139.7865   82.8933  220.8529 H   0  0  0  0  0  0  0  0  0  0  0  0
  142.2355   82.8618  220.4165 H   0  0  0  0  0  0  0  0  0  0  0  0
  138.1381   77.0850  222.5616 H   0  0  0  0  0  0  0  0  0  0  0  0
  138.1406   79.4639  223.2733 H   0  0  0  0  0  0  0  0  0  0  0  0
  139.4138   81.4577  223.8159 H   0  0  0  0  0  0  0  0  0  0  0  0
  141.5968   82.5977  224.0686 H   0  0  0  0  0  0  0  0  0  0  0  0
  143.7066   81.3944  223.6201 H   0  0  0  0  0  0  0  0  0  0  0  0
  143.5993   79.0201  222.9163 H   0  0  0  0  0  0  0  0  0  0  0  0
  1  2  2  0
  2  3  1  0
  3  4  1  0
  4  5  1  0
  5  6  2  0
  5  7  1  0
  7  8  1  0
  8  9  1  0
  9 10  1  0
 10 11  1  0
 11 12  1  0
 12 13  2  0
 13 14  1  0
 14 15  1  0
 15 16  1  0
 16 17  2  0
 17 18  1  0
 18 19  2  0
 19 20  1  0
 20 21  2  0
 15 22  2  0
  2 23  1  0
 23 24  2  0
 24 25  1  0
 25 26  2  0
 26 27  1  0
 27 28  2  0
 28 29  1  0
 29 30  2  0
 30 31  1  0
 31 32  2  0
 11  7  1  0
 22 12  1  0
 32 23  1  0
 21 16  1  0
 31 26  1  0
  3 33  1  0
  4 34  1  0
  4 35  1  0
  8 36  1  0
  8 37  1  0
  9 38  1  0
  9 39  1  0
 10 40  1  0
 10 41  1  0
 11 42  1  1
 13 43  1  0
 14 44  1  0
 17 45  1  0
 18 46  1  0
 19 47  1  0
 20 48  1  0
 24 49  1  0
 25 50  1  0
 27 51  1  0
 28 52  1  0
 29 53  1  0
 30 54  1  0
M  END
>  <smiles>  (1) 
O=C(NCC(=O)N1CCC[C@H]1c1c[nH]c(-c2ccccn2)n1)c1ccc2ccccc2n1

>  <score_type>  (1) 
oracle

>  <origin>  (1) 
autodockgpu

>  <m_score__min__energy>  (1) 
-9.4800000000000004

>  <m_primary>  (1) 
energy

>  <rmsd>  (1) 
6.579821175657426

>  <m_score__min__rmsd>  (1) 
6.579821175657426

>  <meeko>  (1) 
{"free_energy": -6.68, "intermolecular_energy": -8.47, "internal_energy": -3.89, "cluster_size": 14, "cluster_id": 6, "rank_in_cluster": 6}

>  <energy>  (1) 
-9.48

>  <cluster_rmsd>  (1) 
0.0

>  <cluster>  (1) 
1

$$$$

     RDKit          3D

 54 58  0  0  0  0  0  0  0  0999 V2000
  138.6860   70.1330  221.5510 O   0  0  0  0  0  0  0  0  0  0  0  0
  138.7030   70.9840  222.4770 C   0  0  0  0  0  0  0  0  0  0  0  0
  138.2970   72.3380  222.2990 N   0  0  0  0  0  0  0  0  0  0  0  0
  137.8370   72.7710  220.9810 C   0  0  0  0  0  0  0  0  0  0  0  0
  138.9780   72.6900  220.0280 C   0  0  0  0  0  0  0  0  0  0  0  0
  138.9490   71.8440  219.0950 O   0  0  0  0  0  0  0  0  0  0  0  0
  140.0690   73.5580  220.1850 N   0  0  0  0  0  0  0  0  0  0  0  0
  140.7370   74.2970  219.1030 C   0  0  0  0  0  0  0  0  0  0  0  0
  142.1810   74.3950  219.5710 C   0  0  0  0  0  0  0  0  0  0  0  0
  142.2140   73.7830  220.9560 C   0  0  0  0  0  0  0  0  0  0  0  0
  140.7690   73.9250  221.3800 C   0  0  1  0  0  0  0  0  0  0  0  0
  140.4590   75.2650  221.9020 C   0  0  0  0  0  0  0  0  0  0  0  0
  139.1670   75.6380  222.2830 C   0  0  0  0  0  0  0  0  0  0  0  0
  139.2050   76.9020  222.7100 N   0  0  0  0  0  0  0  0  0  0  0  0
  140.4720   77.3420  222.6130 C   0  0  0  0  0  0  0  0  0  0  0  0
  140.9270   78.6780  222.9830 C   0  0  0  0  0  0  0  0  0  0  0  0
  142.2650   78.9790  223.0330 C   0  0  0  0  0  0  0  0  0  0  0  0
  142.6280   80.2730  223.3940 C   0  0  0  0  0  0  0  0  0  0  0  0
  141.6410   81.1690  223.6770 C   0  0  0  0  0  0  0  0  0  0  0  0
  140.2890   80.8690  223.6270 C   0  0  0  0  0  0  0  0  0  0  0  0
  139.9790   79.6010  223.2730 N   0  0  0  0  0  0  0  0  0  0  0  0
  141.2260   76.3360  222.1190 N   0  0  0  0  0  0  0  0  0  0  0  0
  139.1620   70.5720  223.8140 C   0  0  0  0  0  0  0  0  0  0  0  0
  138.8980   69.3010  224.2830 C   0  0  0  0  0  0  0  0  0  0  0  0
  139.3220   68.8950  225.5370 C   0  0  0  0  0  0  0  0  0  0  0  0
  140.0130   69.7780  226.3160 C   0  0  0  0  0  0  0  0  0  0  0  0
  140.4590   69.4360  227.5680 C   0  0  0  0  0  0  0  0  0  0  0  0
  141.1610   70.3520  228.3430 C   0  0  0  0  0  0  0  0  0  0  0  0
  141.4230   71.6080  227.8830 C   0  0  0  0  0  0  0  0  0  0  0  0
  140.9720   71.9430  226.6260 C   0  0  0  0  0  0  0  0  0  0  0  0
  140.2730   71.0480  225.8390 C   0  0  0  0  0  0  0  0  0  0  0  0
  139.8460   71.4150  224.6110 N   0  0  0  0  0  0  0  0  0  0  0  0
  138.3420   72.9810  223.1210 H   0  0  0  0  0  0  0  0  0  0  0  0
  137.0220   72.1159  220.6395 H   0  0  0  0  0  0  0  0  0  0  0  0
  137.4653   73.8049  221.0343 H   0  0  0  0  0  0  0  0  0  0  0  0
  140.6692   73.7473  218.1526 H   0  0  0  0  0  0  0  0  0  0  0  0
  140.2823   75.2808  218.9148 H   0  0  0  0  0  0  0  0  0  0  0  0
  142.8418   73.8373  218.8910 H   0  0  0  0  0  0  0  0  0  0  0  0
  142.5304   75.4379  219.5832 H   0  0  0  0  0  0  0  0  0  0  0  0
  142.5214   72.7274  220.9221 H   0  0  0  0  0  0  0  0  0  0  0  0
  142.9321   74.2582  221.6404 H   0  0  0  0  0  0  0  0  0  0  0  0
  140.4811   73.2944  222.2341 H   0  0  0  0  0  0  0  0  0  0  0  0
  138.2724   74.9994  222.2386 H   0  0  0  0  0  0  0  0  0  0  0  0
  138.3840   77.4450  223.0570 H   0  0  0  0  0  0  0  0  0  0  0  0
  143.0263   78.2215  222.7953 H   0  0  0  0  0  0  0  0  0  0  0  0
  143.6869   80.5658  223.4496 H   0  0  0  0  0  0  0  0  0  0  0  0
  141.9347   82.1901  223.9618 H   0  0  0  0  0  0  0  0  0  0  0  0
  139.5159   81.6158  223.8607 H   0  0  0  0  0  0  0  0  0  0  0  0
  138.3399   68.5970  223.6482 H   0  0  0  0  0  0  0  0  0  0  0  0
  139.1060   67.8790  225.8992 H   0  0  0  0  0  0  0  0  0  0  0  0
  140.2593   68.4284  227.9616 H   0  0  0  0  0  0  0  0  0  0  0  0
  141.5107   70.0584  229.3438 H   0  0  0  0  0  0  0  0  0  0  0  0
  141.9780   72.3321  228.4975 H   0  0  0  0  0  0  0  0  0  0  0  0
  141.1739   72.9520  226.2372 H   0  0  0  0  0  0  0  0  0  0  0  0
  1  2  2  0
  2  3  1  0
  3  4  1  0
  4  5  1  0
  5  6  2  0
  5  7  1  0
  7  8  1  0
  8  9  1  0
  9 10  1  0
 10 11  1  0
 11 12  1  0
 12 13  2  0
 13 14  1  0
 14 15  1  0
 15 16  1  0
 16 17  2  0
 17 18  1  0
 18 19  2  0
 19 20  1  0
 20 21  2  0
 15 22  2  0
  2 23  1  0
 23 24  2  0
 24 25  1  0
 25 26  2  0
 26 27  1  0
 27 28  2  0
 28 29  1  0
 29 30  2  0
 30 31  1  0
 31 32  2  0
 11  7  1  0
 22 12  1  0
 32 23  1  0
 21 16  1  0
 31 26  1  0
  3 33  1  0
  4 34  1  0
  4 35  1  0
  8 36  1  0
  8 37  1  0
  9 38  1  0
  9 39  1  0
 10 40  1  0
 10 41  1  0
 11 42  1  1
 13 43  1  0
 14 44  1  0
 17 45  1  0
 18 46  1  0
 19 47  1  0
 20 48  1  0
 24 49  1  0
 25 50  1  0
 27 51  1  0
 28 52  1  0
 29 53  1  0
 30 54  1  0
M  END
>  <smiles>  (2) 
O=C(NCC(=O)N1CCC[C@H]1c1c[nH]c(-c2ccccn2)n1)c1ccc2ccccc2n1

>  <score_type>  (2) 
oracle

>  <origin>  (2) 
autodockgpu

>  <m_score__min__energy>  (2) 
-9.4800000000000004

>  <m_primary>  (2) 
energy

>  <rmsd>  (2) 
2.7211155505602775

>  <m_score__min__rmsd>  (2) 
2.7211155505602775

>  <meeko>  (2) 
{"free_energy": -8.5, "intermolecular_energy": -10.29, "internal_energy": -2.12, "cluster_size": 1, "cluster_id": 4, "rank_in_cluster": 1}

>  <energy>  (2) 
-8.95

>  <cluster_rmsd>  (2) 
0.0

>  <cluster>  (2) 
2

$$$$

     RDKit          3D

 54 58  0  0  0  0  0  0  0  0999 V2000
  138.4040   75.6840  222.4040 O   0  0  0  0  0  0  0  0  0  0  0  0
  139.6060   76.0490  222.3280 C   0  0  0  0  0  0  0  0  0  0  0  0
  140.6520   75.1940  221.8770 N   0  0  0  0  0  0  0  0  0  0  0  0
  140.3270   73.8250  221.4810 C   0  0  0  0  0  0  0  0  0  0  0  0
  141.5770   73.1480  221.0380 C   0  0  0  0  0  0  0  0  0  0  0  0
  141.9370   72.0800  221.6000 O   0  0  0  0  0  0  0  0  0  0  0  0
  142.3340   73.7120  220.0000 N   0  0  0  0  0  0  0  0  0  0  0  0
  142.1880   73.4030  218.5690 C   0  0  0  0  0  0  0  0  0  0  0  0
  143.5950   73.5730  218.0170 C   0  0  0  0  0  0  0  0  0  0  0  0
  144.4390   74.0720  219.1720 C   0  0  0  0  0  0  0  0  0  0  0  0
  143.3860   74.6810  220.0710 C   0  0  1  0  0  0  0  0  0  0  0  0
  143.0110   76.0440  219.6630 C   0  0  0  0  0  0  0  0  0  0  0  0
  143.4690   76.6220  218.4760 C   0  0  0  0  0  0  0  0  0  0  0  0
  142.9630   77.8540  218.3860 N   0  0  0  0  0  0  0  0  0  0  0  0
  142.2020   78.0770  219.4730 C   0  0  0  0  0  0  0  0  0  0  0  0
  141.4740   79.3110  219.7490 C   0  0  0  0  0  0  0  0  0  0  0  0
  142.1400   80.4970  219.9320 C   0  0  0  0  0  0  0  0  0  0  0  0
  141.3820   81.6340  220.1920 C   0  0  0  0  0  0  0  0  0  0  0  0
  140.0260   81.5110  220.2520 C   0  0  0  0  0  0  0  0  0  0  0  0
  139.3500   80.3160  220.0680 C   0  0  0  0  0  0  0  0  0  0  0  0
  140.1240   79.2340  219.8170 N   0  0  0  0  0  0  0  0  0  0  0  0
  142.2410   76.9670  220.2440 N   0  0  0  0  0  0  0  0  0  0  0  0
  139.9590   77.4230  222.7210 C   0  0  0  0  0  0  0  0  0  0  0  0
  138.9720   78.3300  223.0530 C   0  0  0  0  0  0  0  0  0  0  0  0
  139.2850   79.6260  223.4250 C   0  0  0  0  0  0  0  0  0  0  0  0
  140.5960   80.0030  223.4600 C   0  0  0  0  0  0  0  0  0  0  0  0
  140.9700   81.2740  223.8200 C   0  0  0  0  0  0  0  0  0  0  0  0
  142.3120   81.6350  223.8490 C   0  0  0  0  0  0  0  0  0  0  0  0
  143.2880   80.7410  223.5210 C   0  0  0  0  0  0  0  0  0  0  0  0
  142.9040   79.4690  223.1610 C   0  0  0  0  0  0  0  0  0  0  0  0
  141.5760   79.0900  223.1260 C   0  0  0  0  0  0  0  0  0  0  0  0
  141.2400   77.8320  222.7670 N   0  0  0  0  0  0  0  0  0  0  0  0
  141.6240   75.5760  221.8430 H   0  0  0  0  0  0  0  0  0  0  0  0
  139.8962   73.2843  222.3366 H   0  0  0  0  0  0  0  0  0  0  0  0
  139.5947   73.8355  220.6602 H   0  0  0  0  0  0  0  0  0  0  0  0
  141.8321   72.3722  218.4248 H   0  0  0  0  0  0  0  0  0  0  0  0
  141.4526   74.0487  218.0668 H   0  0  0  0  0  0  0  0  0  0  0  0
  143.9805   72.6104  217.6498 H   0  0  0  0  0  0  0  0  0  0  0  0
  143.6138   74.2758  217.1710 H   0  0  0  0  0  0  0  0  0  0  0  0
  144.9655   73.2456  219.6718 H   0  0  0  0  0  0  0  0  0  0  0  0
  145.2364   74.7700  218.8772 H   0  0  0  0  0  0  0  0  0  0  0  0
  143.7156   74.8529  221.1063 H   0  0  0  0  0  0  0  0  0  0  0  0
  144.1331   76.1434  217.7412 H   0  0  0  0  0  0  0  0  0  0  0  0
  143.1350   78.5190  217.6020 H   0  0  0  0  0  0  0  0  0  0  0  0
  143.2374   80.5468  219.8749 H   0  0  0  0  0  0  0  0  0  0  0  0
  141.8658   82.6099  220.3456 H   0  0  0  0  0  0  0  0  0  0  0  0
  139.4332   82.4142  220.4588 H   0  0  0  0  0  0  0  0  0  0  0  0
  138.2533   80.2503  220.1224 H   0  0  0  0  0  0  0  0  0  0  0  0
  137.9180   78.0169  223.0212 H   0  0  0  0  0  0  0  0  0  0  0  0
  138.4905   80.3399  223.6879 H   0  0  0  0  0  0  0  0  0  0  0  0
  140.2008   82.0133  224.0879 H   0  0  0  0  0  0  0  0  0  0  0  0
  142.5911   82.6581  224.1412 H   0  0  0  0  0  0  0  0  0  0  0  0
  144.3498   81.0275  223.5434 H   0  0  0  0  0  0  0  0  0  0  0  0
  143.6768   78.7333  222.8935 H   0  0  0  0  0  0  0  0  0  0  0  0
  1  2  2  0
  2  3  1  0
  3  4  1  0
  4  5  1  0
  5  6  2  0
  5  7  1  0
  7  8  1  0
  8  9  1  0
  9 10  1  0
 10 11  1  0
 11 12  1  0
 12 13  2  0
 13 14  1  0
 14 15  1  0
 15 16  1  0
 16 17  2  0
 17 18  1  0
 18 19  2  0
 19 20  1  0
 20 21  2  0
 15 22  2  0
  2 23  1  0
 23 24  2  0
 24 25  1  0
 25 26  2  0
 26 27  1  0
 27 28  2  0
 28 29  1  0
 29 30  2  0
 30 31  1  0
 31 32  2  0
 11  7  1  0
 22 12  1  0
 32 23  1  0
 21 16  1  0
 31 26  1  0
  3 33  1  0
  4 34  1  0
  4 35  1  0
  8 36  1  0
  8 37  1  0
  9 38  1  0
  9 39  1  0
 10 40  1  0
 10 41  1  0
 11 42  1  1
 13 43  1  0
 14 44  1  0
 17 45  1  0
 18 46  1  0
 19 47  1  0
 20 48  1  0
 24 49  1  0
 25 50  1  0
 27 51  1  0
 28 52  1  0
 29 53  1  0
 30 54  1  0
M  END
>  <smiles>  (3) 
O=C(NCC(=O)N1CCC[C@H]1c1c[nH]c(-c2ccccn2)n1)c1ccc2ccccc2n1

>  <score_type>  (3) 
oracle

>  <origin>  (3) 
autodockgpu

>  <m_score__min__energy>  (3) 
-9.4800000000000004

>  <m_primary>  (3) 
energy

>  <rmsd>  (3) 
6.754417717169637

>  <m_score__min__rmsd>  (3) 
6.754417717169637

>  <meeko>  (3) 
{"free_energy": -6.88, "intermolecular_energy": -8.67, "internal_energy": -4.21, "cluster_size": 14, "cluster_id": 6, "rank_in_cluster": 3}

>  <energy>  (3) 
-8.85

>  <cluster_rmsd>  (3) 
1.73

>  <cluster>  (3) 
2

$$$$

     RDKit          3D

 54 58  0  0  0  0  0  0  0  0999 V2000
  139.3150   74.4720  222.3490 O   0  0  0  0  0  0  0  0  0  0  0  0
  140.2210   74.9950  221.6500 C   0  0  0  0  0  0  0  0  0  0  0  0
  140.1990   76.3600  221.2420 N   0  0  0  0  0  0  0  0  0  0  0  0
  139.0760   77.2020  221.6480 C   0  0  0  0  0  0  0  0  0  0  0  0
  139.5990   78.3310  222.4670 C   0  0  0  0  0  0  0  0  0  0  0  0
  139.0070   78.6520  223.5320 O   0  0  0  0  0  0  0  0  0  0  0  0
  140.7430   79.0190  222.0380 N   0  0  0  0  0  0  0  0  0  0  0  0
  142.0470   79.0210  222.7200 C   0  0  0  0  0  0  0  0  0  0  0  0
  142.6170   80.3950  222.4060 C   0  0  0  0  0  0  0  0  0  0  0  0
  141.6260   81.0550  221.4680 C   0  0  0  0  0  0  0  0  0  0  0  0
  140.9200   79.8510  220.8850 C   0  0  1  0  0  0  0  0  0  0  0  0
  141.6670   79.2360  219.7770 C   0  0  0  0  0  0  0  0  0  0  0  0
  142.3530   79.9970  218.8260 C   0  0  0  0  0  0  0  0  0  0  0  0
  142.9260   79.1620  217.9560 N   0  0  0  0  0  0  0  0  0  0  0  0
  142.6280   77.9020  218.3210 C   0  0  0  0  0  0  0  0  0  0  0  0
  143.0680   76.6990  217.6230 C   0  0  0  0  0  0  0  0  0  0  0  0
  143.9050   76.7790  216.5380 C   0  0  0  0  0  0  0  0  0  0  0  0
  144.2850   75.5920  215.9210 C   0  0  0  0  0  0  0  0  0  0  0  0
  143.8060   74.4180  216.4220 C   0  0  0  0  0  0  0  0  0  0  0  0
  142.9620   74.3330  217.5160 C   0  0  0  0  0  0  0  0  0  0  0  0
  142.6170   75.5100  218.0870 N   0  0  0  0  0  0  0  0  0  0  0  0
  141.8600   77.9610  219.4320 N   0  0  0  0  0  0  0  0  0  0  0  0
  141.3630   74.1680  221.2280 C   0  0  0  0  0  0  0  0  0  0  0  0
  141.1950   72.8210  220.9750 C   0  0  0  0  0  0  0  0  0  0  0  0
  142.2570   72.0270  220.5770 C   0  0  0  0  0  0  0  0  0  0  0  0
  143.4890   72.5970  220.4360 C   0  0  0  0  0  0  0  0  0  0  0  0
  144.5810   71.8640  220.0450 C   0  0  0  0  0  0  0  0  0  0  0  0
  145.8260   72.4670  219.9080 C   0  0  0  0  0  0  0  0  0  0  0  0
  145.9950   73.7960  220.1580 C   0  0  0  0  0  0  0  0  0  0  0  0
  144.8940   74.5250  220.5490 C   0  0  0  0  0  0  0  0  0  0  0  0
  143.6480   73.9450  220.6910 C   0  0  0  0  0  0  0  0  0  0  0  0
  142.5930   74.6940  221.0780 N   0  0  0  0  0  0  0  0  0  0  0  0
  140.9920   76.7170  220.6610 H   0  0  0  0  0  0  0  0  0  0  0  0
  138.5671   77.5961  220.7560 H   0  0  0  0  0  0  0  0  0  0  0  0
  138.3582   76.6121  222.2368 H   0  0  0  0  0  0  0  0  0  0  0  0
  141.9224   78.8867  223.8046 H   0  0  0  0  0  0  0  0  0  0  0  0
  142.7023   78.2021  222.3883 H   0  0  0  0  0  0  0  0  0  0  0  0
  142.7214   80.9852  223.3284 H   0  0  0  0  0  0  0  0  0  0  0  0
  143.6155   80.3220  221.9503 H   0  0  0  0  0  0  0  0  0  0  0  0
  140.9273   81.7059  222.0140 H   0  0  0  0  0  0  0  0  0  0  0  0
  142.0872   81.7133  220.7170 H   0  0  0  0  0  0  0  0  0  0  0  0
  139.9627   80.0791  220.3935 H   0  0  0  0  0  0  0  0  0  0  0  0
  142.4108   81.0952  218.7991 H   0  0  0  0  0  0  0  0  0  0  0  0
  143.5040   79.4500  217.1370 H   0  0  0  0  0  0  0  0  0  0  0  0
  144.2637   77.7509  216.1683 H   0  0  0  0  0  0  0  0  0  0  0  0
  144.9561   75.6002  215.0495 H   0  0  0  0  0  0  0  0  0  0  0  0
  144.1081   73.4829  215.9276 H   0  0  0  0  0  0  0  0  0  0  0  0
  142.5948   73.3687  217.8972 H   0  0  0  0  0  0  0  0  0  0  0  0
  140.1984   72.3702  221.0919 H   0  0  0  0  0  0  0  0  0  0  0  0
  142.1103   70.9552  220.3778 H   0  0  0  0  0  0  0  0  0  0  0  0
  144.4703   70.7893  219.8380 H   0  0  0  0  0  0  0  0  0  0  0  0
  146.6887   71.8617  219.5927 H   0  0  0  0  0  0  0  0  0  0  0  0
  146.9809   74.2719  220.0507 H   0  0  0  0  0  0  0  0  0  0  0  0
  145.0098   75.5995  220.7541 H   0  0  0  0  0  0  0  0  0  0  0  0
  1  2  2  0
  2  3  1  0
  3  4  1  0
  4  5  1  0
  5  6  2  0
  5  7  1  0
  7  8  1  0
  8  9  1  0
  9 10  1  0
 10 11  1  0
 11 12  1  0
 12 13  2  0
 13 14  1  0
 14 15  1  0
 15 16  1  0
 16 17  2  0
 17 18  1  0
 18 19  2  0
 19 20  1  0
 20 21  2  0
 15 22  2  0
  2 23  1  0
 23 24  2  0
 24 25  1  0
 25 26  2  0
 26 27  1  0
 27 28  2  0
 28 29  1  0
 29 30  2  0
 30 31  1  0
 31 32  2  0
 11  7  1  0
 22 12  1  0
 32 23  1  0
 21 16  1  0
 31 26  1  0
  3 33  1  0
  4 34  1  0
  4 35  1  0
  8 36  1  0
  8 37  1  0
  9 38  1  0
  9 39  1  0
 10 40  1  0
 10 41  1  0
 11 42  1  6
 13 43  1  0
 14 44  1  0
 17 45  1  0
 18 46  1  0
 19 47  1  0
 20 48  1  0
 24 49  1  0
 25 50  1  0
 27 51  1  0
 28 52  1  0
 29 53  1  0
 30 54  1  0
M  END
>  <smiles>  (4) 
O=C(NCC(=O)N1CCC[C@H]1c1c[nH]c(-c2ccccn2)n1)c1ccc2ccccc2n1

>  <score_type>  (4) 
oracle

>  <origin>  (4) 
autodockgpu

>  <m_score__min__energy>  (4) 
-9.4800000000000004

>  <m_primary>  (4) 
energy

>  <rmsd>  (4) 
6.685397672059331

>  <m_score__min__rmsd>  (4) 
6.685397672059331

>  <meeko>  (4) 
{"free_energy": -7.24, "intermolecular_energy": -9.03, "internal_energy": -3.76, "cluster_size": 25, "cluster_id": 5, "rank_in_cluster": 11}

>  <energy>  (4) 
-8.76

>  <cluster_rmsd>  (4) 
0.32

>  <cluster>  (4) 
2

$$$$

     RDKit          3D

 54 58  0  0  0  0  0  0  0  0999 V2000
  138.9130   74.7210  222.3350 O   0  0  0  0  0  0  0  0  0  0  0  0
  139.9980   75.2340  221.9560 C   0  0  0  0  0  0  0  0  0  0  0  0
  140.2220   76.6400  221.9160 N   0  0  0  0  0  0  0  0  0  0  0  0
  139.1490   77.5400  222.3320 C   0  0  0  0  0  0  0  0  0  0  0  0
  139.7540   78.7260  222.9990 C   0  0  0  0  0  0  0  0  0  0  0  0
  139.1990   79.2150  224.0190 O   0  0  0  0  0  0  0  0  0  0  0  0
  140.9330   79.2810  222.4790 N   0  0  0  0  0  0  0  0  0  0  0  0
  142.2760   79.1380  223.0620 C   0  0  0  0  0  0  0  0  0  0  0  0
  142.9710   80.4390  222.6920 C   0  0  0  0  0  0  0  0  0  0  0  0
  141.9920   81.2040  221.8240 C   0  0  0  0  0  0  0  0  0  0  0  0
  141.1150   80.0850  221.3080 C   0  0  1  0  0  0  0  0  0  0  0  0
  141.7030   79.3880  220.1540 C   0  0  0  0  0  0  0  0  0  0  0  0
  142.3350   80.0710  219.1110 C   0  0  0  0  0  0  0  0  0  0  0  0
  142.7610   79.1740  218.2190 N   0  0  0  0  0  0  0  0  0  0  0  0
  142.4220   77.9490  218.6600 C   0  0  0  0  0  0  0  0  0  0  0  0
  142.7110   76.6980  217.9660 C   0  0  0  0  0  0  0  0  0  0  0  0
  143.6960   76.6300  217.0130 C   0  0  0  0  0  0  0  0  0  0  0  0
  143.9170   75.4060  216.3920 C   0  0  0  0  0  0  0  0  0  0  0  0
  143.1470   74.3430  216.7590 C   0  0  0  0  0  0  0  0  0  0  0  0
  142.1520   74.4070  217.7210 C   0  0  0  0  0  0  0  0  0  0  0  0
  141.9690   75.6160  218.3000 N   0  0  0  0  0  0  0  0  0  0  0  0
  141.7780   78.0930  219.8390 N   0  0  0  0  0  0  0  0  0  0  0  0
  141.0950   74.3480  221.5330 C   0  0  0  0  0  0  0  0  0  0  0  0
  140.9050   72.9820  221.4710 C   0  0  0  0  0  0  0  0  0  0  0  0
  141.9240   72.1330  221.0750 C   0  0  0  0  0  0  0  0  0  0  0  0
  143.1350   72.6680  220.7420 C   0  0  0  0  0  0  0  0  0  0  0  0
  144.1850   71.8800  220.3420 C   0  0  0  0  0  0  0  0  0  0  0  0
  145.4090   72.4470  220.0080 C   0  0  0  0  0  0  0  0  0  0  0  0
  145.5990   73.7960  220.0690 C   0  0  0  0  0  0  0  0  0  0  0  0
  144.5410   74.5800  220.4710 C   0  0  0  0  0  0  0  0  0  0  0  0
  143.3160   74.0360  220.8070 C   0  0  0  0  0  0  0  0  0  0  0  0
  142.3020   74.8390  221.1970 N   0  0  0  0  0  0  0  0  0  0  0  0
  141.1530   76.9840  221.5890 H   0  0  0  0  0  0  0  0  0  0  0  0
  138.5745   77.8633  221.4514 H   0  0  0  0  0  0  0  0  0  0  0  0
  138.4733   77.0218  223.0284 H   0  0  0  0  0  0  0  0  0  0  0  0
  142.2189   79.0208  224.1542 H   0  0  0  0  0  0  0  0  0  0  0  0
  142.8089   78.2500  222.6912 H   0  0  0  0  0  0  0  0  0  0  0  0
  143.2100   81.0156  223.5978 H   0  0  0  0  0  0  0  0  0  0  0  0
  143.9179   80.2537  222.1638 H   0  0  0  0  0  0  0  0  0  0  0  0
  141.4130   81.9299  222.4139 H   0  0  0  0  0  0  0  0  0  0  0  0
  142.4655   81.8056  221.0341 H   0  0  0  0  0  0  0  0  0  0  0  0
  140.1550   80.4177  220.8865 H   0  0  0  0  0  0  0  0  0  0  0  0
  142.4600   81.1614  219.0378 H   0  0  0  0  0  0  0  0  0  0  0  0
  143.2690   79.3970  217.3360 H   0  0  0  0  0  0  0  0  0  0  0  0
  144.2919   77.5160  216.7488 H   0  0  0  0  0  0  0  0  0  0  0  0
  144.6953   75.2979  215.6222 H   0  0  0  0  0  0  0  0  0  0  0  0
  143.3260   73.3779  216.2624 H   0  0  0  0  0  0  0  0  0  0  0  0
  141.5485   73.5296  217.9968 H   0  0  0  0  0  0  0  0  0  0  0  0
  139.9256   72.5604  221.7413 H   0  0  0  0  0  0  0  0  0  0  0  0
  141.7608   71.0461  221.0294 H   0  0  0  0  0  0  0  0  0  0  0  0
  144.0565   70.7890  220.2852 H   0  0  0  0  0  0  0  0  0  0  0  0
  146.2376   71.7974  219.6894 H   0  0  0  0  0  0  0  0  0  0  0  0
  146.5682   74.2442  219.8050 H   0  0  0  0  0  0  0  0  0  0  0  0
  144.6747   75.6704  220.5263 H   0  0  0  0  0  0  0  0  0  0  0  0
  1  2  2  0
  2  3  1  0
  3  4  1  0
  4  5  1  0
  5  6  2  0
  5  7  1  0
  7  8  1  0
  8  9  1  0
  9 10  1  0
 10 11  1  0
 11 12  1  0
 12 13  2  0
 13 14  1  0
 14 15  1  0
 15 16  1  0
 16 17  2  0
 17 18  1  0
 18 19  2  0
 19 20  1  0
 20 21  2  0
 15 22  2  0
  2 23  1  0
 23 24  2  0
 24 25  1  0
 25 26  2  0
 26 27  1  0
 27 28  2  0
 28 29  1  0
 29 30  2  0
 30 31  1  0
 31 32  2  0
 11  7  1  0
 22 12  1  0
 32 23  1  0
 21 16  1  0
 31 26  1  0
  3 33  1  0
  4 34  1  0
  4 35  1  0
  8 36  1  0
  8 37  1  0
  9 38  1  0
  9 39  1  0
 10 40  1  0
 10 41  1  0
 11 42  1  6
 13 43  1  0
 14 44  1  0
 17 45  1  0
 18 46  1  0
 19 47  1  0
 20 48  1  0
 24 49  1  0
 25 50  1  0
 27 51  1  0
 28 52  1  0
 29 53  1  0
 30 54  1  0
M  END
>  <smiles>  (5) 
O=C(NCC(=O)N1CCC[C@H]1c1c[nH]c(-c2ccccn2)n1)c1ccc2ccccc2n1

>  <score_type>  (5) 
oracle

>  <origin>  (5) 
autodockgpu

>  <m_score__min__energy>  (5) 
-9.4800000000000004

>  <m_primary>  (5) 
energy

>  <rmsd>  (5) 
6.6450853479114755

>  <m_score__min__rmsd>  (5) 
6.6450853479114755

>  <meeko>  (5) 
{"free_energy": -7.13, "intermolecular_energy": -8.92, "internal_energy": -3.97, "cluster_size": 25, "cluster_id": 5, "rank_in_cluster": 14}

>  <energy>  (5) 
-8.74

>  <cluster_rmsd>  (5) 
1.04

>  <cluster>  (5) 
2

$$$$

     RDKit          3D

 54 58  0  0  0  0  0  0  0  0999 V2000
  137.3730   69.9770  222.1750 O   0  0  0  0  0  0  0  0  0  0  0  0
  137.6410   70.5460  223.2640 C   0  0  0  0  0  0  0  0  0  0  0  0
  137.2250   71.8740  223.5710 N   0  0  0  0  0  0  0  0  0  0  0  0
  136.4500   72.6190  222.5820 C   0  0  0  0  0  0  0  0  0  0  0  0
  136.2010   73.9900  223.1070 C   0  0  0  0  0  0  0  0  0  0  0  0
  135.6820   74.1350  224.2450 O   0  0  0  0  0  0  0  0  0  0  0  0
  136.5500   75.1010  222.3230 N   0  0  0  0  0  0  0  0  0  0  0  0
  135.8950   76.4170  222.3640 C   0  0  0  0  0  0  0  0  0  0  0  0
  136.0280   76.9310  220.9390 C   0  0  0  0  0  0  0  0  0  0  0  0
  136.8510   75.8980  220.1970 C   0  0  0  0  0  0  0  0  0  0  0  0
  137.5820   75.2240  221.3370 C   0  0  1  0  0  0  0  0  0  0  0  0
  138.7750   75.9700  221.7670 C   0  0  0  0  0  0  0  0  0  0  0  0
  140.0410   75.3820  221.8290 C   0  0  0  0  0  0  0  0  0  0  0  0
  140.9100   76.3030  222.2510 N   0  0  0  0  0  0  0  0  0  0  0  0
  140.2410   77.4510  222.4590 C   0  0  0  0  0  0  0  0  0  0  0  0
  140.8370   78.6980  222.9250 C   0  0  0  0  0  0  0  0  0  0  0  0
  140.0530   79.7320  223.3710 C   0  0  0  0  0  0  0  0  0  0  0  0
  140.6890   80.8920  223.8010 C   0  0  0  0  0  0  0  0  0  0  0  0
  142.0500   80.9410  223.7570 C   0  0  0  0  0  0  0  0  0  0  0  0
  142.8450   79.8990  223.3080 C   0  0  0  0  0  0  0  0  0  0  0  0
  142.1880   78.7900  222.8990 N   0  0  0  0  0  0  0  0  0  0  0  0
  138.9400   77.2350  222.1610 N   0  0  0  0  0  0  0  0  0  0  0  0
  138.4200   69.8160  224.2770 C   0  0  0  0  0  0  0  0  0  0  0  0
  138.6170   68.4540  224.1600 C   0  0  0  0  0  0  0  0  0  0  0  0
  139.3470   67.7500  225.1020 C   0  0  0  0  0  0  0  0  0  0  0  0
  139.8770   68.4250  226.1630 C   0  0  0  0  0  0  0  0  0  0  0  0
  140.6090   67.7840  227.1310 C   0  0  0  0  0  0  0  0  0  0  0  0
  141.1400   68.4930  228.2020 C   0  0  0  0  0  0  0  0  0  0  0  0
  140.9470   69.8370  228.3210 C   0  0  0  0  0  0  0  0  0  0  0  0
  140.2110   70.4730  227.3460 C   0  0  0  0  0  0  0  0  0  0  0  0
  139.6750   69.7870  226.2730 C   0  0  0  0  0  0  0  0  0  0  0  0
  138.9590   70.4470  225.3370 N   0  0  0  0  0  0  0  0  0  0  0  0
  137.4890   72.2730  224.5000 H   0  0  0  0  0  0  0  0  0  0  0  0
  137.0135   72.6800  221.6393 H   0  0  0  0  0  0  0  0  0  0  0  0
  135.4934   72.1097  222.3934 H   0  0  0  0  0  0  0  0  0  0  0  0
  134.8369   76.3197  222.6487 H   0  0  0  0  0  0  0  0  0  0  0  0
  136.3451   77.0941  223.1049 H   0  0  0  0  0  0  0  0  0  0  0  0
  135.0357   77.0336  220.4756 H   0  0  0  0  0  0  0  0  0  0  0  0
  136.5052   77.9217  220.9112 H   0  0  0  0  0  0  0  0  0  0  0  0
  136.2104   75.1876  219.6539 H   0  0  0  0  0  0  0  0  0  0  0  0
  137.5122   76.3194  219.4255 H   0  0  0  0  0  0  0  0  0  0  0  0
  138.0236   74.2494  221.0819 H   0  0  0  0  0  0  0  0  0  0  0  0
  140.2804   74.3391  221.5738 H   0  0  0  0  0  0  0  0  0  0  0  0
  141.9320   76.1460  222.3920 H   0  0  0  0  0  0  0  0  0  0  0  0
  138.9565   79.6464  223.3880 H   0  0  0  0  0  0  0  0  0  0  0  0
  140.1066   81.7500  224.1681 H   0  0  0  0  0  0  0  0  0  0  0  0
  142.5464   81.8615  224.0979 H   0  0  0  0  0  0  0  0  0  0  0  0
  143.9425   79.9694  223.2856 H   0  0  0  0  0  0  0  0  0  0  0  0
  138.1854   67.9184  223.3016 H   0  0  0  0  0  0  0  0  0  0  0  0
  139.4973   66.6654  224.9972 H   0  0  0  0  0  0  0  0  0  0  0  0
  140.7769   66.6993  227.0585 H   0  0  0  0  0  0  0  0  0  0  0  0
  141.7256   67.9608  228.9661 H   0  0  0  0  0  0  0  0  0  0  0  0
  141.3664   70.3967  229.1700 H   0  0  0  0  0  0  0  0  0  0  0  0
  140.0452   71.5577  227.4237 H   0  0  0  0  0  0  0  0  0  0  0  0
  1  2  2  0
  2  3  1  0
  3  4  1  0
  4  5  1  0
  5  6  2  0
  5  7  1  0
  7  8  1  0
  8  9  1  0
  9 10  1  0
 10 11  1  0
 11 12  1  0
 12 13  2  0
 13 14  1  0
 14 15  1  0
 15 16  1  0
 16 17  2  0
 17 18  1  0
 18 19  2  0
 19 20  1  0
 20 21  2  0
 15 22  2  0
  2 23  1  0
 23 24  2  0
 24 25  1  0
 25 26  2  0
 26 27  1  0
 27 28  2  0
 28 29  1  0
 29 30  2  0
 30 31  1  0
 31 32  2  0
 11  7  1  0
 22 12  1  0
 32 23  1  0
 21 16  1  0
 31 26  1  0
  3 33  1  0
  4 34  1  0
  4 35  1  0
  8 36  1  0
  8 37  1  0
  9 38  1  0
  9 39  1  0
 10 40  1  0
 10 41  1  0
 11 42  1  6
 13 43  1  0
 14 44  1  0
 17 45  1  0
 18 46  1  0
 19 47  1  0
 20 48  1  0
 24 49  1  0
 25 50  1  0
 27 51  1  0
 28 52  1  0
 29 53  1  0
 30 54  1  0
M  END
>  <smiles>  (6) 
O=C(NCC(=O)N1CCC[C@H]1c1c[nH]c(-c2ccccn2)n1)c1ccc2ccccc2n1

>  <score_type>  (6) 
oracle

>  <origin>  (6) 
autodockgpu

>  <m_score__min__energy>  (6) 
-9.4800000000000004

>  <m_primary>  (6) 
energy

>  <rmsd>  (6) 
3.5733190182191183

>  <m_score__min__rmsd>  (6) 
3.5733190182191183

>  <meeko>  (6) 
{"free_energy": -8.68, "intermolecular_energy": -10.47, "internal_energy": -2.02, "cluster_size": 6, "cluster_id": 2, "rank_in_cluster": 5}

>  <energy>  (6) 
-8.68

>  <cluster_rmsd>  (6) 
1.29

>  <cluster>  (6) 
2

$$$$

     RDKit          3D

 54 58  0  0  0  0  0  0  0  0999 V2000
  140.2820   71.4480  221.2390 O   0  0  0  0  0  0  0  0  0  0  0  0
  140.0330   72.0690  222.3040 C   0  0  0  0  0  0  0  0  0  0  0  0
  139.7330   73.4610  222.3420 N   0  0  0  0  0  0  0  0  0  0  0  0
  139.7130   74.2150  221.0900 C   0  0  0  0  0  0  0  0  0  0  0  0
  140.9260   75.0760  221.0320 C   0  0  0  0  0  0  0  0  0  0  0  0
  141.0100   76.0820  221.7860 O   0  0  0  0  0  0  0  0  0  0  0  0
  141.9580   74.7530  220.1380 N   0  0  0  0  0  0  0  0  0  0  0  0
  143.2430   75.4580  220.0230 C   0  0  0  0  0  0  0  0  0  0  0  0
  143.6040   75.3140  218.5520 C   0  0  0  0  0  0  0  0  0  0  0  0
  142.5300   74.4350  217.9430 C   0  0  0  0  0  0  0  0  0  0  0  0
  142.0140   73.7050  219.1630 C   0  0  1  0  0  0  0  0  0  0  0  0
  142.8500   72.5510  219.5290 C   0  0  0  0  0  0  0  0  0  0  0  0
  143.2350   72.2960  220.8480 C   0  0  0  0  0  0  0  0  0  0  0  0
  143.9820   71.1900  220.8600 N   0  0  0  0  0  0  0  0  0  0  0  0
  144.0840   70.7360  219.5980 C   0  0  0  0  0  0  0  0  0  0  0  0
  144.8220   69.5450  219.1920 C   0  0  0  0  0  0  0  0  0  0  0  0
  144.7570   68.3890  219.9280 C   0  0  0  0  0  0  0  0  0  0  0  0
  145.4870   67.2920  219.4810 C   0  0  0  0  0  0  0  0  0  0  0  0
  146.2240   67.4220  218.3430 C   0  0  0  0  0  0  0  0  0  0  0  0
  146.2920   68.5870  217.5960 C   0  0  0  0  0  0  0  0  0  0  0  0
  145.5680   69.6300  218.0650 N   0  0  0  0  0  0  0  0  0  0  0  0
  143.3910   71.5740  218.7960 N   0  0  0  0  0  0  0  0  0  0  0  0
  140.0460   71.3320  223.5780 C   0  0  0  0  0  0  0  0  0  0  0  0
  139.5820   70.0330  223.6400 C   0  0  0  0  0  0  0  0  0  0  0  0
  139.5870   69.3240  224.8290 C   0  0  0  0  0  0  0  0  0  0  0  0
  140.0630   69.9310  225.9550 C   0  0  0  0  0  0  0  0  0  0  0  0
  140.0940   69.2810  227.1640 C   0  0  0  0  0  0  0  0  0  0  0  0
  140.5830   69.9190  228.2970 C   0  0  0  0  0  0  0  0  0  0  0  0
  141.0420   71.2010  228.2400 C   0  0  0  0  0  0  0  0  0  0  0  0
  141.0080   71.8460  227.0240 C   0  0  0  0  0  0  0  0  0  0  0  0
  140.5260   71.2300  225.8850 C   0  0  0  0  0  0  0  0  0  0  0  0
  140.5080   71.8960  224.7100 N   0  0  0  0  0  0  0  0  0  0  0  0
  139.5370   73.9010  223.2690 H   0  0  0  0  0  0  0  0  0  0  0  0
  139.7123   73.5186  220.2385 H   0  0  0  0  0  0  0  0  0  0  0  0
  138.8081   74.8386  221.0424 H   0  0  0  0  0  0  0  0  0  0  0  0
  143.1350   76.5175  220.2983 H   0  0  0  0  0  0  0  0  0  0  0  0
  144.0142   75.0498  220.6928 H   0  0  0  0  0  0  0  0  0  0  0  0
  143.6146   76.2992  218.0627 H   0  0  0  0  0  0  0  0  0  0  0  0
  144.6046   74.8755  218.4235 H   0  0  0  0  0  0  0  0  0  0  0  0
  141.7395   75.0355  217.4693 H   0  0  0  0  0  0  0  0  0  0  0  0
  142.8915   73.7729  217.1424 H   0  0  0  0  0  0  0  0  0  0  0  0
  141.0356   73.2217  219.0250 H   0  0  0  0  0  0  0  0  0  0  0  0
  142.9681   72.9028  221.7258 H   0  0  0  0  0  0  0  0  0  0  0  0
  144.4080   70.7600  221.7110 H   0  0  0  0  0  0  0  0  0  0  0  0
  144.1475   68.3312  220.8419 H   0  0  0  0  0  0  0  0  0  0  0  0
  145.4693   66.3414  220.0342 H   0  0  0  0  0  0  0  0  0  0  0  0
  146.7992   66.5507  217.9965 H   0  0  0  0  0  0  0  0  0  0  0  0
  146.8962   68.6596  216.6797 H   0  0  0  0  0  0  0  0  0  0  0  0
  139.2010   69.5522  222.7269 H   0  0  0  0  0  0  0  0  0  0  0  0
  139.2140   68.2898  224.8656 H   0  0  0  0  0  0  0  0  0  0  0  0
  139.7284   68.2460  227.2361 H   0  0  0  0  0  0  0  0  0  0  0  0
  140.6000   69.3805  229.2560 H   0  0  0  0  0  0  0  0  0  0  0  0
  141.4280   71.7051  229.1383 H   0  0  0  0  0  0  0  0  0  0  0  0
  141.3749   72.8809  226.9574 H   0  0  0  0  0  0  0  0  0  0  0  0
  1  2  2  0
  2  3  1  0
  3  4  1  0
  4  5  1  0
  5  6  2  0
  5  7  1  0
  7  8  1  0
  8  9  1  0
  9 10  1  0
 10 11  1  0
 11 12  1  0
 12 13  2  0
 13 14  1  0
 14 15  1  0
 15 16  1  0
 16 17  2  0
 17 18  1  0
 18 19  2  0
 19 20  1  0
 20 21  2  0
 15 22  2  0
  2 23  1  0
 23 24  2  0
 24 25  1  0
 25 26  2  0
 26 27  1  0
 27 28  2  0
 28 29  1  0
 29 30  2  0
 30 31  1  0
 31 32  2  0
 11  7  1  0
 22 12  1  0
 32 23  1  0
 21 16  1  0
 31 26  1  0
  3 33  1  0
  4 34  1  0
  4 35  1  0
  8 36  1  0
  8 37  1  0
  9 38  1  0
  9 39  1  0
 10 40  1  0
 10 41  1  0
 11 42  1  6
 13 43  1  0
 14 44  1  0
 17 45  1  0
 18 46  1  0
 19 47  1  0
 20 48  1  0
 24 49  1  0
 25 50  1  0
 27 51  1  0
 28 52  1  0
 29 53  1  0
 30 54  1  0
M  END
>  <smiles>  (7) 
O=C(NCC(=O)N1CCC[C@H]1c1c[nH]c(-c2ccccn2)n1)c1ccc2ccccc2n1

>  <score_type>  (7) 
oracle

>  <origin>  (7) 
autodockgpu

>  <m_score__min__energy>  (7) 
-9.4800000000000004

>  <m_primary>  (7) 
energy

>  <rmsd>  (7) 
7.060865685173898

>  <m_score__min__rmsd>  (7) 
7.060865685173898

>  <meeko>  (7) 
{"free_energy": -8.42, "intermolecular_energy": -10.21, "internal_energy": -1.99, "cluster_size": 2, "cluster_id": 3, "rank_in_cluster": 2}

>  <energy>  (7) 
-8.67

>  <cluster_rmsd>  (7) 
1.08

>  <cluster>  (7) 
2

$$$$

     RDKit          3D

 54 58  0  0  0  0  0  0  0  0999 V2000
  140.7230   72.9900  222.6850 O   0  0  0  0  0  0  0  0  0  0  0  0
  139.8380   72.2370  223.1660 C   0  0  0  0  0  0  0  0  0  0  0  0
  138.5250   72.1310  222.6210 N   0  0  0  0  0  0  0  0  0  0  0  0
  138.1790   72.9320  221.4490 C   0  0  0  0  0  0  0  0  0  0  0  0
  136.8940   73.6350  221.7150 C   0  0  0  0  0  0  0  0  0  0  0  0
  135.8180   72.9810  221.7250 O   0  0  0  0  0  0  0  0  0  0  0  0
  136.9030   75.0180  221.9510 N   0  0  0  0  0  0  0  0  0  0  0  0
  136.3380   75.6890  223.1320 C   0  0  0  0  0  0  0  0  0  0  0  0
  135.8790   77.0360  222.5980 C   0  0  0  0  0  0  0  0  0  0  0  0
  136.3110   77.0800  221.1460 C   0  0  0  0  0  0  0  0  0  0  0  0
  137.4380   76.0710  221.1400 C   0  0  1  0  0  0  0  0  0  0  0  0
  138.7110   76.6390  221.6100 C   0  0  0  0  0  0  0  0  0  0  0  0
  139.8720   75.8700  221.7340 C   0  0  0  0  0  0  0  0  0  0  0  0
  140.8520   76.6600  222.1800 N   0  0  0  0  0  0  0  0  0  0  0  0
  140.3540   77.8980  222.3430 C   0  0  0  0  0  0  0  0  0  0  0  0
  141.1110   79.0520  222.8180 C   0  0  0  0  0  0  0  0  0  0  0  0
  140.4770   80.1250  223.3900 C   0  0  0  0  0  0  0  0  0  0  0  0
  141.2610   81.1910  223.8200 C   0  0  0  0  0  0  0  0  0  0  0  0
  142.6110   81.1130  223.6500 C   0  0  0  0  0  0  0  0  0  0  0  0
  143.2550   80.0310  223.0730 C   0  0  0  0  0  0  0  0  0  0  0  0
  142.4570   79.0170  222.6690 N   0  0  0  0  0  0  0  0  0  0  0  0
  139.0490   77.8730  221.9930 N   0  0  0  0  0  0  0  0  0  0  0  0
  140.1620   71.4190  224.3460 C   0  0  0  0  0  0  0  0  0  0  0  0
  141.0530   71.8830  225.2940 C   0  0  0  0  0  0  0  0  0  0  0  0
  141.3700   71.1280  226.4110 C   0  0  0  0  0  0  0  0  0  0  0  0
  140.7850   69.9050  226.5670 C   0  0  0  0  0  0  0  0  0  0  0  0
  141.0590   69.1100  227.6520 C   0  0  0  0  0  0  0  0  0  0  0  0
  140.4510   67.8680  227.7900 C   0  0  0  0  0  0  0  0  0  0  0  0
  139.5710   67.4080  226.8560 C   0  0  0  0  0  0  0  0  0  0  0  0
  139.3020   68.2110  225.7710 C   0  0  0  0  0  0  0  0  0  0  0  0
  139.8950   69.4490  225.6150 C   0  0  0  0  0  0  0  0  0  0  0  0
  139.6050   70.2080  224.5350 N   0  0  0  0  0  0  0  0  0  0  0  0
  137.8490   71.4800  223.0810 H   0  0  0  0  0  0  0  0  0  0  0  0
  138.9720   73.6698  221.2575 H   0  0  0  0  0  0  0  0  0  0  0  0
  138.0757   72.2821  220.5676 H   0  0  0  0  0  0  0  0  0  0  0  0
  135.4897   75.1188  223.5384 H   0  0  0  0  0  0  0  0  0  0  0  0
  137.0613   75.7817  223.9556 H   0  0  0  0  0  0  0  0  0  0  0  0
  134.7852   77.1245  222.6740 H   0  0  0  0  0  0  0  0  0  0  0  0
  136.3145   77.8665  223.1729 H   0  0  0  0  0  0  0  0  0  0  0  0
  135.4950   76.7759  220.4739 H   0  0  0  0  0  0  0  0  0  0  0  0
  136.6010   78.0806  220.7929 H   0  0  0  0  0  0  0  0  0  0  0  0
  137.7227   75.7131  220.1395 H   0  0  0  0  0  0  0  0  0  0  0  0
  139.9627   74.7982  221.5037 H   0  0  0  0  0  0  0  0  0  0  0  0
  141.8320   76.3550  222.3660 H   0  0  0  0  0  0  0  0  0  0  0  0
  139.3832   80.1424  223.5052 H   0  0  0  0  0  0  0  0  0  0  0  0
  140.8022   82.0755  224.2860 H   0  0  0  0  0  0  0  0  0  0  0  0
  143.2254   81.9593  223.9911 H   0  0  0  0  0  0  0  0  0  0  0  0
  144.3477   79.9986  222.9510 H   0  0  0  0  0  0  0  0  0  0  0  0
  141.5193   72.8701  225.1594 H   0  0  0  0  0  0  0  0  0  0  0  0
  142.0811   71.5076  227.1595 H   0  0  0  0  0  0  0  0  0  0  0  0
  141.7660   69.4591  228.4190 H   0  0  0  0  0  0  0  0  0  0  0  0
  140.6836   67.2461  228.6670 H   0  0  0  0  0  0  0  0  0  0  0  0
  139.0904   66.4247  226.9662 H   0  0  0  0  0  0  0  0  0  0  0  0
  138.5948   67.8570  225.0064 H   0  0  0  0  0  0  0  0  0  0  0  0
  1  2  2  0
  2  3  1  0
  3  4  1  0
  4  5  1  0
  5  6  2  0
  5  7  1  0
  7  8  1  0
  8  9  1  0
  9 10  1  0
 10 11  1  0
 11 12  1  0
 12 13  2  0
 13 14  1  0
 14 15  1  0
 15 16  1  0
 16 17  2  0
 17 18  1  0
 18 19  2  0
 19 20  1  0
 20 21  2  0
 15 22  2  0
  2 23  1  0
 23 24  2  0
 24 25  1  0
 25 26  2  0
 26 27  1  0
 27 28  2  0
 28 29  1  0
 29 30  2  0
 30 31  1  0
 31 32  2  0
 11  7  1  0
 22 12  1  0
 32 23  1  0
 21 16  1  0
 31 26  1  0
  3 33  1  0
  4 34  1  0
  4 35  1  0
  8 36  1  0
  8 37  1  0
  9 38  1  0
  9 39  1  0
 10 40  1  0
 10 41  1  0
 11 42  1  6
 13 43  1  0
 14 44  1  0
 17 45  1  0
 18 46  1  0
 19 47  1  0
 20 48  1  0
 24 49  1  0
 25 50  1  0
 27 51  1  0
 28 52  1  0
 29 53  1  0
 30 54  1  0
M  END
>  <smiles>  (8) 
O=C(NCC(=O)N1CCC[C@H]1c1c[nH]c(-c2ccccn2)n1)c1ccc2ccccc2n1

>  <score_type>  (8) 
oracle

>  <origin>  (8) 
autodockgpu

>  <m_score__min__energy>  (8) 
-9.4800000000000004

>  <m_primary>  (8) 
energy

>  <rmsd>  (8) 
4.166058394778611

>  <m_score__min__rmsd>  (8) 
4.166058394778611

>  <meeko>  (8) 
{"free_energy": -8.95, "intermolecular_energy": -10.74, "internal_energy": -2.01, "cluster_size": 6, "cluster_id": 2, "rank_in_cluster": 1}

>  <energy>  (8) 
-8.9

>  <cluster_rmsd>  (8) 
0.0

>  <cluster>  (8) 
3

$$$$

     RDKit          3D

 54 58  0  0  0  0  0  0  0  0999 V2000
  139.1600   74.5600  222.1940 O   0  0  0  0  0  0  0  0  0  0  0  0
  140.1980   75.0950  221.7270 C   0  0  0  0  0  0  0  0  0  0  0  0
  140.3460   76.5030  221.5700 N   0  0  0  0  0  0  0  0  0  0  0  0
  139.2450   77.3790  221.9670 C   0  0  0  0  0  0  0  0  0  0  0  0
  139.8010   78.5210  222.7430 C   0  0  0  0  0  0  0  0  0  0  0  0
  139.2730   78.8410  223.8410 O   0  0  0  0  0  0  0  0  0  0  0  0
  140.9060   79.2230  222.2390 N   0  0  0  0  0  0  0  0  0  0  0  0
  142.2530   79.2390  222.8310 C   0  0  0  0  0  0  0  0  0  0  0  0
  142.7840   80.6210  222.4800 C   0  0  0  0  0  0  0  0  0  0  0  0
  141.7240   81.2690  221.6120 C   0  0  0  0  0  0  0  0  0  0  0  0
  140.9950   80.0560  221.0770 C   0  0  1  0  0  0  0  0  0  0  0  0
  141.6730   79.4510  219.9200 C   0  0  0  0  0  0  0  0  0  0  0  0
  142.2930   80.2190  218.9310 C   0  0  0  0  0  0  0  0  0  0  0  0
  142.8130   79.3910  218.0220 N   0  0  0  0  0  0  0  0  0  0  0  0
  142.5440   78.1290  218.4000 C   0  0  0  0  0  0  0  0  0  0  0  0
  142.9440   76.9310  217.6680 C   0  0  0  0  0  0  0  0  0  0  0  0
  142.6050   75.6810  218.1220 C   0  0  0  0  0  0  0  0  0  0  0  0
  143.0200   74.5830  217.3750 C   0  0  0  0  0  0  0  0  0  0  0  0
  143.7390   74.8060  216.2380 C   0  0  0  0  0  0  0  0  0  0  0  0
  144.0820   76.0660  215.7760 C   0  0  0  0  0  0  0  0  0  0  0  0
  143.6600   77.1060  216.5320 N   0  0  0  0  0  0  0  0  0  0  0  0
  141.8480   78.1780  219.5570 N   0  0  0  0  0  0  0  0  0  0  0  0
  141.3220   74.2340  221.3200 C   0  0  0  0  0  0  0  0  0  0  0  0
  141.1410   72.8740  221.1700 C   0  0  0  0  0  0  0  0  0  0  0  0
  142.1850   72.0490  220.7880 C   0  0  0  0  0  0  0  0  0  0  0  0
  143.4110   72.6020  220.5590 C   0  0  0  0  0  0  0  0  0  0  0  0
  144.4860   71.8370  220.1780 C   0  0  0  0  0  0  0  0  0  0  0  0
  145.7260   72.4230  219.9500 C   0  0  0  0  0  0  0  0  0  0  0  0
  145.9070   73.7660  220.0980 C   0  0  0  0  0  0  0  0  0  0  0  0
  144.8240   74.5260  220.4800 C   0  0  0  0  0  0  0  0  0  0  0  0
  143.5830   73.9640  220.7110 C   0  0  0  0  0  0  0  0  0  0  0  0
  142.5450   74.7430  221.0850 N   0  0  0  0  0  0  0  0  0  0  0  0
  141.2420   76.8660  221.1730 H   0  0  0  0  0  0  0  0  0  0  0  0
  138.7301   77.7559  221.0710 H   0  0  0  0  0  0  0  0  0  0  0  0
  138.5254   76.8210  222.5841 H   0  0  0  0  0  0  0  0  0  0  0  0
  142.2040   79.1028  223.9214 H   0  0  0  0  0  0  0  0  0  0  0  0
  142.8938   78.4277  222.4552 H   0  0  0  0  0  0  0  0  0  0  0  0
  142.9435   81.2124  223.3937 H   0  0  0  0  0  0  0  0  0  0  0  0
  143.7501   80.5602  221.9575 H   0  0  0  0  0  0  0  0  0  0  0  0
  141.0559   81.9112  222.2046 H   0  0  0  0  0  0  0  0  0  0  0  0
  142.1251   81.9332  220.8322 H   0  0  0  0  0  0  0  0  0  0  0  0
  140.0038   80.2710  220.6511 H   0  0  0  0  0  0  0  0  0  0  0  0
  142.3439   81.3175  218.9057 H   0  0  0  0  0  0  0  0  0  0  0  0
  143.3370   79.6860  217.1700 H   0  0  0  0  0  0  0  0  0  0  0  0
  142.0238   75.5513  219.0469 H   0  0  0  0  0  0  0  0  0  0  0  0
  142.7740   73.5594  217.6940 H   0  0  0  0  0  0  0  0  0  0  0  0
  144.0660   73.9337  215.6531 H   0  0  0  0  0  0  0  0  0  0  0  0
  144.6612   76.2121  214.8523 H   0  0  0  0  0  0  0  0  0  0  0  0
  140.1489   72.4375  221.3574 H   0  0  0  0  0  0  0  0  0  0  0  0
  142.0288   70.9664  220.6711 H   0  0  0  0  0  0  0  0  0  0  0  0
  144.3649   70.7510  220.0521 H   0  0  0  0  0  0  0  0  0  0  0  0
  146.5746   71.7929  219.6453 H   0  0  0  0  0  0  0  0  0  0  0  0
  146.8885   74.2287  219.9177 H   0  0  0  0  0  0  0  0  0  0  0  0
  144.9505   75.6116  220.6048 H   0  0  0  0  0  0  0  0  0  0  0  0
  1  2  2  0
  2  3  1  0
  3  4  1  0
  4  5  1  0
  5  6  2  0
  5  7  1  0
  7  8  1  0
  8  9  1  0
  9 10  1  0
 10 11  1  0
 11 12  1  0
 12 13  2  0
 13 14  1  0
 14 15  1  0
 15 16  1  0
 16 17  2  0
 17 18  1  0
 18 19  2  0
 19 20  1  0
 20 21  2  0
 15 22  2  0
  2 23  1  0
 23 24  2  0
 24 25  1  0
 25 26  2  0
 26 27  1  0
 27 28  2  0
 28 29  1  0
 29 30  2  0
 30 31  1  0
 31 32  2  0
 11  7  1  0
 22 12  1  0
 32 23  1  0
 21 16  1  0
 31 26  1  0
  3 33  1  0
  4 34  1  0
  4 35  1  0
  8 36  1  0
  8 37  1  0
  9 38  1  0
  9 39  1  0
 10 40  1  0
 10 41  1  0
 11 42  1  6
 13 43  1  0
 14 44  1  0
 17 45  1  0
 18 46  1  0
 19 47  1  0
 20 48  1  0
 24 49  1  0
 25 50  1  0
 27 51  1  0
 28 52  1  0
 29 53  1  0
 30 54  1  0
M  END
>  <smiles>  (9) 
O=C(NCC(=O)N1CCC[C@H]1c1c[nH]c(-c2ccccn2)n1)c1ccc2ccccc2n1

>  <score_type>  (9) 
oracle

>  <origin>  (9) 
autodockgpu

>  <m_score__min__energy>  (9) 
-9.4800000000000004

>  <m_primary>  (9) 
energy

>  <rmsd>  (9) 
6.745650643508169

>  <m_score__min__rmsd>  (9) 
6.745650643508169

>  <meeko>  (9) 
{"free_energy": -7.34, "intermolecular_energy": -9.13, "internal_energy": -3.84, "cluster_size": 25, "cluster_id": 5, "rank_in_cluster": 6}

>  <energy>  (9) 
-8.42

>  <cluster_rmsd>  (9) 
1.22

>  <cluster>  (9) 
3

$$$$

     RDKit          3D

 54 58  0  0  0  0  0  0  0  0999 V2000
  138.5760   75.0040  222.3250 O   0  0  0  0  0  0  0  0  0  0  0  0
  139.6770   75.5120  221.9890 C   0  0  0  0  0  0  0  0  0  0  0  0
  139.9160   76.9160  221.9800 N   0  0  0  0  0  0  0  0  0  0  0  0
  138.8400   77.8200  222.3790 C   0  0  0  0  0  0  0  0  0  0  0  0
  139.4420   79.0860  222.8800 C   0  0  0  0  0  0  0  0  0  0  0  0
  138.7730   79.8340  223.6410 O   0  0  0  0  0  0  0  0  0  0  0  0
  140.7480   79.4270  222.4950 N   0  0  0  0  0  0  0  0  0  0  0  0
  141.9800   78.9910  223.1710 C   0  0  0  0  0  0  0  0  0  0  0  0
  142.9410   80.1490  222.9500 C   0  0  0  0  0  0  0  0  0  0  0  0
  142.2100   81.1370  222.0640 C   0  0  0  0  0  0  0  0  0  0  0  0
  141.1850   80.2420  221.4020 C   0  0  1  0  0  0  0  0  0  0  0  0
  141.7330   79.5070  220.2510 C   0  0  0  0  0  0  0  0  0  0  0  0
  142.4120   80.1470  219.2100 C   0  0  0  0  0  0  0  0  0  0  0  0
  142.7830   79.2220  218.3220 N   0  0  0  0  0  0  0  0  0  0  0  0
  142.3640   78.0230  218.7610 C   0  0  0  0  0  0  0  0  0  0  0  0
  142.5740   76.7550  218.0700 C   0  0  0  0  0  0  0  0  0  0  0  0
  141.6400   75.7520  218.1360 C   0  0  0  0  0  0  0  0  0  0  0  0
  141.9060   74.5690  217.4530 C   0  0  0  0  0  0  0  0  0  0  0  0
  143.0750   74.4700  216.7580 C   0  0  0  0  0  0  0  0  0  0  0  0
  144.0200   75.4800  216.6880 C   0  0  0  0  0  0  0  0  0  0  0  0
  143.7230   76.6130  217.3670 N   0  0  0  0  0  0  0  0  0  0  0  0
  141.7250   78.2090  219.9380 N   0  0  0  0  0  0  0  0  0  0  0  0
  140.7770   74.6220  221.5840 C   0  0  0  0  0  0  0  0  0  0  0  0
  140.6000   73.2520  221.5700 C   0  0  0  0  0  0  0  0  0  0  0  0
  141.6230   72.4000  221.1920 C   0  0  0  0  0  0  0  0  0  0  0  0
  142.8250   72.9340  220.8280 C   0  0  0  0  0  0  0  0  0  0  0  0
  143.8780   72.1420  220.4440 C   0  0  0  0  0  0  0  0  0  0  0  0
  145.0930   72.7090  220.0770 C   0  0  0  0  0  0  0  0  0  0  0  0
  145.2710   74.0600  220.0900 C   0  0  0  0  0  0  0  0  0  0  0  0
  144.2090   74.8480  220.4760 C   0  0  0  0  0  0  0  0  0  0  0  0
  142.9940   74.3050  220.8440 C   0  0  0  0  0  0  0  0  0  0  0  0
  141.9770   75.1110  221.2180 N   0  0  0  0  0  0  0  0  0  0  0  0
  140.8610   77.2560  221.6880 H   0  0  0  0  0  0  0  0  0  0  0  0
  138.1958   78.0336  221.5133 H   0  0  0  0  0  0  0  0  0  0  0  0
  138.2332   77.3547  223.1697 H   0  0  0  0  0  0  0  0  0  0  0  0
  141.8021   78.8282  224.2442 H   0  0  0  0  0  0  0  0  0  0  0  0
  142.3652   78.0369  222.7820 H   0  0  0  0  0  0  0  0  0  0  0  0
  143.2018   80.6175  223.9104 H   0  0  0  0  0  0  0  0  0  0  0  0
  143.8792   79.8103  222.4862 H   0  0  0  0  0  0  0  0  0  0  0  0
  141.7295   81.9297  222.6562 H   0  0  0  0  0  0  0  0  0  0  0  0
  142.8601   81.6751  221.3584 H   0  0  0  0  0  0  0  0  0  0  0  0
  140.3480   80.7785  220.9313 H   0  0  0  0  0  0  0  0  0  0  0  0
  142.6070   81.2270  219.1355 H   0  0  0  0  0  0  0  0  0  0  0  0
  143.3080   79.4120  217.4410 H   0  0  0  0  0  0  0  0  0  0  0  0
  140.7106   75.8789  218.7105 H   0  0  0  0  0  0  0  0  0  0  0  0
  141.1904   73.7338  217.4733 H   0  0  0  0  0  0  0  0  0  0  0  0
  143.2796   73.5321  216.2209 H   0  0  0  0  0  0  0  0  0  0  0  0
  144.9533   75.3686  216.1166 H   0  0  0  0  0  0  0  0  0  0  0  0
  139.6277   72.8304  221.8648 H   0  0  0  0  0  0  0  0  0  0  0  0
  141.4698   71.3107  221.1851 H   0  0  0  0  0  0  0  0  0  0  0  0
  143.7595   71.0485  220.4265 H   0  0  0  0  0  0  0  0  0  0  0  0
  145.9242   72.0566  219.7712 H   0  0  0  0  0  0  0  0  0  0  0  0
  146.2333   74.5077  219.8011 H   0  0  0  0  0  0  0  0  0  0  0  0
  144.3325   75.9409  220.4915 H   0  0  0  0  0  0  0  0  0  0  0  0
  1  2  2  0
  2  3  1  0
  3  4  1  0
  4  5  1  0
  5  6  2  0
  5  7  1  0
  7  8  1  0
  8  9  1  0
  9 10  1  0
 10 11  1  0
 11 12  1  0
 12 13  2  0
 13 14  1  0
 14 15  1  0
 15 16  1  0
 16 17  2  0
 17 18  1  0
 18 19  2  0
 19 20  1  0
 20 21  2  0
 15 22  2  0
  2 23  1  0
 23 24  2  0
 24 25  1  0
 25 26  2  0
 26 27  1  0
 27 28  2  0
 28 29  1  0
 29 30  2  0
 30 31  1  0
 31 32  2  0
 11  7  1  0
 22 12  1  0
 32 23  1  0
 21 16  1  0
 31 26  1  0
  3 33  1  0
  4 34  1  0
  4 35  1  0
  8 36  1  0
  8 37  1  0
  9 38  1  0
  9 39  1  0
 10 40  1  0
 10 41  1  0
 11 42  1  6
 13 43  1  0
 14 44  1  0
 17 45  1  0
 18 46  1  0
 19 47  1  0
 20 48  1  0
 24 49  1  0
 25 50  1  0
 27 51  1  0
 28 52  1  0
 29 53  1  0
 30 54  1  0
M  END
>  <smiles>  (10) 
O=C(NCC(=O)N1CCC[C@H]1c1c[nH]c(-c2ccccn2)n1)c1ccc2ccccc2n1

>  <score_type>  (10) 
oracle

>  <origin>  (10) 
autodockgpu

>  <m_score__min__energy>  (10) 
-9.4800000000000004

>  <m_primary>  (10) 
energy

>  <rmsd>  (10) 
6.701651544501003

>  <m_score__min__rmsd>  (10) 
6.701651544501003

>  <meeko>  (10) 
{"free_energy": -6.78, "intermolecular_energy": -8.57, "internal_energy": -4.26, "cluster_size": 25, "cluster_id": 5, "rank_in_cluster": 25}

>  <energy>  (10) 
-8.5

>  <cluster_rmsd>  (10) 
0.0

>  <cluster>  (10) 
4

$$$$

     RDKit          3D

 54 58  0  0  0  0  0  0  0  0999 V2000
  138.8050   74.7760  222.3110 O   0  0  0  0  0  0  0  0  0  0  0  0
  139.9040   75.2810  221.9680 C   0  0  0  0  0  0  0  0  0  0  0  0
  140.1440   76.6850  221.9480 N   0  0  0  0  0  0  0  0  0  0  0  0
  139.0680   77.5920  222.3420 C   0  0  0  0  0  0  0  0  0  0  0  0
  139.6720   78.8130  222.9450 C   0  0  0  0  0  0  0  0  0  0  0  0
  139.0680   79.4090  223.8750 O   0  0  0  0  0  0  0  0  0  0  0  0
  140.9050   79.2790  222.4660 N   0  0  0  0  0  0  0  0  0  0  0  0
  142.2150   79.0220  223.0830 C   0  0  0  0  0  0  0  0  0  0  0  0
  143.0210   80.2690  222.7520 C   0  0  0  0  0  0  0  0  0  0  0  0
  142.1310   81.1200  221.8700 C   0  0  0  0  0  0  0  0  0  0  0  0
  141.1820   80.0820  221.3130 C   0  0  1  0  0  0  0  0  0  0  0  0
  141.7470   79.3560  220.1640 C   0  0  0  0  0  0  0  0  0  0  0  0
  142.3720   80.0120  219.1000 C   0  0  0  0  0  0  0  0  0  0  0  0
  142.7750   79.0930  218.2200 N   0  0  0  0  0  0  0  0  0  0  0  0
  142.4270   77.8810  218.6880 C   0  0  0  0  0  0  0  0  0  0  0  0
  142.6910   76.6140  218.0140 C   0  0  0  0  0  0  0  0  0  0  0  0
  143.7340   76.4870  217.1310 C   0  0  0  0  0  0  0  0  0  0  0  0
  143.9270   75.2500  216.5250 C   0  0  0  0  0  0  0  0  0  0  0  0
  143.0740   74.2340  216.8370 C   0  0  0  0  0  0  0  0  0  0  0  0
  142.0200   74.3570  217.7280 C   0  0  0  0  0  0  0  0  0  0  0  0
  141.8670   75.5760  218.2950 N   0  0  0  0  0  0  0  0  0  0  0  0
  141.8010   78.0540  219.8720 N   0  0  0  0  0  0  0  0  0  0  0  0
  141.0040   74.3880  221.5670 C   0  0  0  0  0  0  0  0  0  0  0  0
  140.8230   73.0190  221.5540 C   0  0  0  0  0  0  0  0  0  0  0  0
  141.8450   72.1640  221.1800 C   0  0  0  0  0  0  0  0  0  0  0  0
  143.0500   72.6940  220.8200 C   0  0  0  0  0  0  0  0  0  0  0  0
  144.1020   71.8990  220.4390 C   0  0  0  0  0  0  0  0  0  0  0  0
  145.3190   72.4630  220.0760 C   0  0  0  0  0  0  0  0  0  0  0  0
  145.5010   73.8140  220.0880 C   0  0  0  0  0  0  0  0  0  0  0  0
  144.4400   74.6040  220.4700 C   0  0  0  0  0  0  0  0  0  0  0  0
  143.2220   74.0640  220.8350 C   0  0  0  0  0  0  0  0  0  0  0  0
  142.2060   74.8740  221.2050 N   0  0  0  0  0  0  0  0  0  0  0  0
  141.0870   77.0230  221.6500 H   0  0  0  0  0  0  0  0  0  0  0  0
  138.4752   77.8698  221.4580 H   0  0  0  0  0  0  0  0  0  0  0  0
  138.4095   77.0988  223.0722 H   0  0  0  0  0  0  0  0  0  0  0  0
  142.1178   78.8953  224.1713 H   0  0  0  0  0  0  0  0  0  0  0  0
  142.6864   78.0994  222.7134 H   0  0  0  0  0  0  0  0  0  0  0  0
  143.2789   80.8128  223.6727 H   0  0  0  0  0  0  0  0  0  0  0  0
  143.9650   80.0161  222.2471 H   0  0  0  0  0  0  0  0  0  0  0  0
  141.5953   81.8821  222.4550 H   0  0  0  0  0  0  0  0  0  0  0  0
  142.6732   81.6915  221.1022 H   0  0  0  0  0  0  0  0  0  0  0  0
  140.2630   80.4953  220.8717 H   0  0  0  0  0  0  0  0  0  0  0  0
  142.5084   81.0993  219.0042 H   0  0  0  0  0  0  0  0  0  0  0  0
  143.2740   79.2930  217.3260 H   0  0  0  0  0  0  0  0  0  0  0  0
  144.3965   77.3368  216.9095 H   0  0  0  0  0  0  0  0  0  0  0  0
  144.7490   75.0954  215.8105 H   0  0  0  0  0  0  0  0  0  0  0  0
  143.2315   73.2588  216.3530 H   0  0  0  0  0  0  0  0  0  0  0  0
  141.3496   73.5163  217.9599 H   0  0  0  0  0  0  0  0  0  0  0  0
  139.8486   72.6004  221.8463 H   0  0  0  0  0  0  0  0  0  0  0  0
  141.6886   71.0752  221.1730 H   0  0  0  0  0  0  0  0  0  0  0  0
  143.9807   70.8059  220.4208 H   0  0  0  0  0  0  0  0  0  0  0  0
  146.1496   71.8082  219.7738 H   0  0  0  0  0  0  0  0  0  0  0  0
  146.4653   74.2590  219.8015 H   0  0  0  0  0  0  0  0  0  0  0  0
  144.5658   75.6967  220.4850 H   0  0  0  0  0  0  0  0  0  0  0  0
  1  2  2  0
  2  3  1  0
  3  4  1  0
  4  5  1  0
  5  6  2  0
  5  7  1  0
  7  8  1  0
  8  9  1  0
  9 10  1  0
 10 11  1  0
 11 12  1  0
 12 13  2  0
 13 14  1  0
 14 15  1  0
 15 16  1  0
 16 17  2  0
 17 18  1  0
 18 19  2  0
 19 20  1  0
 20 21  2  0
 15 22  2  0
  2 23  1  0
 23 24  2  0
 24 25  1  0
 25 26  2  0
 26 27  1  0
 27 28  2  0
 28 29  1  0
 29 30  2  0
 30 31  1  0
 31 32  2  0
 11  7  1  0
 22 12  1  0
 32 23  1  0
 21 16  1  0
 31 26  1  0
  3 33  1  0
  4 34  1  0
  4 35  1  0
  8 36  1  0
  8 37  1  0
  9 38  1  0
  9 39  1  0
 10 40  1  0
 10 41  1  0
 11 42  1  6
 13 43  1  0
 14 44  1  0
 17 45  1  0
 18 46  1  0
 19 47  1  0
 20 48  1  0
 24 49  1  0
 25 50  1  0
 27 51  1  0
 28 52  1  0
 29 53  1  0
 30 54  1  0
M  END
>  <smiles>  (11) 
O=C(NCC(=O)N1CCC[C@H]1c1c[nH]c(-c2ccccn2)n1)c1ccc2ccccc2n1

>  <score_type>  (11) 
oracle

>  <origin>  (11) 
autodockgpu

>  <m_score__min__energy>  (11) 
-9.4800000000000004

>  <m_primary>  (11) 
energy

>  <rmsd>  (11) 
6.628078317700796

>  <m_score__min__rmsd>  (11) 
6.628078317700796

>  <meeko>  (11) 
{"free_energy": -7.07, "intermolecular_energy": -8.86, "internal_energy": -4.05, "cluster_size": 25, "cluster_id": 5, "rank_in_cluster": 20}

>  <energy>  (11) 
-7.45

>  <cluster_rmsd>  (11) 
0.0

>  <cluster>  (11) 
5

$$$$

     RDKit          3D

 54 58  0  0  0  0  0  0  0  0999 V2000
  137.6530   76.0190  223.1200 O   0  0  0  0  0  0  0  0  0  0  0  0
  138.4270   76.5710  222.2960 C   0  0  0  0  0  0  0  0  0  0  0  0
  138.6490   76.0710  220.9800 N   0  0  0  0  0  0  0  0  0  0  0  0
  137.9500   74.8600  220.5570 C   0  0  0  0  0  0  0  0  0  0  0  0
  138.8040   73.6820  220.8740 C   0  0  0  0  0  0  0  0  0  0  0  0
  138.3290   72.7360  221.5560 O   0  0  0  0  0  0  0  0  0  0  0  0
  140.1260   73.6450  220.4070 N   0  0  0  0  0  0  0  0  0  0  0  0
  140.5670   73.0710  219.1260 C   0  0  0  0  0  0  0  0  0  0  0  0
  141.9680   72.5590  219.4220 C   0  0  0  0  0  0  0  0  0  0  0  0
  142.2720   72.9740  220.8470 C   0  0  0  0  0  0  0  0  0  0  0  0
  141.3200   74.1350  221.0300 C   0  0  1  0  0  0  0  0  0  0  0  0
  141.8460   75.3930  220.4770 C   0  0  0  0  0  0  0  0  0  0  0  0
  143.1780   75.5350  220.0790 C   0  0  0  0  0  0  0  0  0  0  0  0
  143.3490   76.7790  219.6250 N   0  0  0  0  0  0  0  0  0  0  0  0
  142.1750   77.4280  219.7210 C   0  0  0  0  0  0  0  0  0  0  0  0
  141.9480   78.8140  219.3260 C   0  0  0  0  0  0  0  0  0  0  0  0
  140.9560   79.5610  219.9110 C   0  0  0  0  0  0  0  0  0  0  0  0
  140.7950   80.8760  219.4860 C   0  0  0  0  0  0  0  0  0  0  0  0
  141.6260   81.3500  218.5150 C   0  0  0  0  0  0  0  0  0  0  0  0
  142.6290   80.6000  217.9230 C   0  0  0  0  0  0  0  0  0  0  0  0
  142.7510   79.3270  218.3650 N   0  0  0  0  0  0  0  0  0  0  0  0
  141.2670   76.5730  220.2420 N   0  0  0  0  0  0  0  0  0  0  0  0
  139.1410   77.7930  222.6990 C   0  0  0  0  0  0  0  0  0  0  0  0
  138.4410   78.9050  223.1240 C   0  0  0  0  0  0  0  0  0  0  0  0
  139.0960   80.0620  223.5080 C   0  0  0  0  0  0  0  0  0  0  0  0
  140.4590   80.0940  223.4610 C   0  0  0  0  0  0  0  0  0  0  0  0
  141.1660   81.2130  223.8270 C   0  0  0  0  0  0  0  0  0  0  0  0
  142.5550   81.2210  223.7710 C   0  0  0  0  0  0  0  0  0  0  0  0
  143.2490   80.1260  223.3520 C   0  0  0  0  0  0  0  0  0  0  0  0
  142.5320   79.0080  222.9860 C   0  0  0  0  0  0  0  0  0  0  0  0
  141.1520   78.9780  223.0350 C   0  0  0  0  0  0  0  0  0  0  0  0
  140.4850   77.8630  222.6670 N   0  0  0  0  0  0  0  0  0  0  0  0
  139.3080   76.5910  220.3580 H   0  0  0  0  0  0  0  0  0  0  0  0
  136.9928   74.7785  221.0929 H   0  0  0  0  0  0  0  0  0  0  0  0
  137.7513   74.8995  219.4758 H   0  0  0  0  0  0  0  0  0  0  0  0
  139.9060   72.2479  218.8170 H   0  0  0  0  0  0  0  0  0  0  0  0
  140.5454   73.8003  218.3028 H   0  0  0  0  0  0  0  0  0  0  0  0
  142.0025   71.4636  219.3273 H   0  0  0  0  0  0  0  0  0  0  0  0
  142.7048   72.9708  218.7166 H   0  0  0  0  0  0  0  0  0  0  0  0
  142.0570   72.1618  221.5570 H   0  0  0  0  0  0  0  0  0  0  0  0
  143.3277   73.2259  221.0262 H   0  0  0  0  0  0  0  0  0  0  0  0
  141.1471   74.4213  222.0779 H   0  0  0  0  0  0  0  0  0  0  0  0
  143.9526   74.7557  220.1308 H   0  0  0  0  0  0  0  0  0  0  0  0
  144.2460   77.1680  219.2600 H   0  0  0  0  0  0  0  0  0  0  0  0
  140.3089   79.1335  220.6910 H   0  0  0  0  0  0  0  0  0  0  0  0
  140.0158   81.5177  219.9231 H   0  0  0  0  0  0  0  0  0  0  0  0
  141.4922   82.3897  218.1818 H   0  0  0  0  0  0  0  0  0  0  0  0
  143.2850   81.0133  217.1427 H   0  0  0  0  0  0  0  0  0  0  0  0
  137.3421   78.8704  223.1579 H   0  0  0  0  0  0  0  0  0  0  0  0
  138.5272   80.9410  223.8454 H   0  0  0  0  0  0  0  0  0  0  0  0
  140.6287   82.1105  224.1673 H   0  0  0  0  0  0  0  0  0  0  0  0
  143.1030   82.1267  224.0700 H   0  0  0  0  0  0  0  0  0  0  0  0
  144.3481   80.1343  223.3073 H   0  0  0  0  0  0  0  0  0  0  0  0
  143.0741   78.1137  222.6450 H   0  0  0  0  0  0  0  0  0  0  0  0
  1  2  2  0
  2  3  1  0
  3  4  1  0
  4  5  1  0
  5  6  2  0
  5  7  1  0
  7  8  1  0
  8  9  1  0
  9 10  1  0
 10 11  1  0
 11 12  1  0
 12 13  2  0
 13 14  1  0
 14 15  1  0
 15 16  1  0
 16 17  2  0
 17 18  1  0
 18 19  2  0
 19 20  1  0
 20 21  2  0
 15 22  2  0
  2 23  1  0
 23 24  2  0
 24 25  1  0
 25 26  2  0
 26 27  1  0
 27 28  2  0
 28 29  1  0
 29 30  2  0
 30 31  1  0
 31 32  2  0
 11  7  1  0
 22 12  1  0
 32 23  1  0
 21 16  1  0
 31 26  1  0
  3 33  1  0
  4 34  1  0
  4 35  1  0
  8 36  1  0
  8 37  1  0
  9 38  1  0
  9 39  1  0
 10 40  1  0
 10 41  1  0
 11 42  1  1
 13 43  1  0
 14 44  1  0
 17 45  1  0
 18 46  1  0
 19 47  1  0
 20 48  1  0
 24 49  1  0
 25 50  1  0
 27 51  1  0
 28 52  1  0
 29 53  1  0
 30 54  1  0
M  END
>  <smiles>  (12) 
O=C(NCC(=O)N1CCC[C@H]1c1c[nH]c(-c2ccccn2)n1)c1ccc2ccccc2n1

>  <score_type>  (12) 
oracle

>  <origin>  (12) 
autodockgpu

>  <m_score__min__energy>  (12) 
-9.4800000000000004

>  <m_primary>  (12) 
energy

>  <rmsd>  (12) 
6.913133010527568

>  <m_score__min__rmsd>  (12) 
6.913133010527568

>  <meeko>  (12) 
{"free_energy": -6.59, "intermolecular_energy": -8.38, "internal_energy": -3.89, "cluster_size": 14, "cluster_id": 6, "rank_in_cluster": 10}

>  <energy>  (12) 
-7.41

>  <cluster_rmsd>  (12) 
0.03

>  <cluster>  (12) 
5

$$$$

     RDKit          3D

 54 58  0  0  0  0  0  0  0  0999 V2000
  138.6140   74.9260  222.3380 O   0  0  0  0  0  0  0  0  0  0  0  0
  139.7020   75.4290  221.9590 C   0  0  0  0  0  0  0  0  0  0  0  0
  139.9300   76.8350  221.8940 N   0  0  0  0  0  0  0  0  0  0  0  0
  138.8550   77.7440  222.2840 C   0  0  0  0  0  0  0  0  0  0  0  0
  139.4600   78.9910  222.8270 C   0  0  0  0  0  0  0  0  0  0  0  0
  138.7970   79.7080  223.6220 O   0  0  0  0  0  0  0  0  0  0  0  0
  140.7610   79.3480  222.4440 N   0  0  0  0  0  0  0  0  0  0  0  0
  141.9990   78.9270  223.1190 C   0  0  0  0  0  0  0  0  0  0  0  0
  142.9460   80.0970  222.9000 C   0  0  0  0  0  0  0  0  0  0  0  0
  142.2020   81.0770  222.0160 C   0  0  0  0  0  0  0  0  0  0  0  0
  141.1890   80.1710  221.3520 C   0  0  1  0  0  0  0  0  0  0  0  0
  141.7460   79.4450  220.2000 C   0  0  0  0  0  0  0  0  0  0  0  0
  142.4160   80.0950  219.1600 C   0  0  0  0  0  0  0  0  0  0  0  0
  142.7990   79.1770  218.2700 N   0  0  0  0  0  0  0  0  0  0  0  0
  142.3970   77.9710  218.7080 C   0  0  0  0  0  0  0  0  0  0  0  0
  142.6240   76.7070  218.0160 C   0  0  0  0  0  0  0  0  0  0  0  0
  141.7350   75.6680  218.1320 C   0  0  0  0  0  0  0  0  0  0  0  0
  142.0140   74.4920  217.4440 C   0  0  0  0  0  0  0  0  0  0  0  0
  143.1520   74.4330  216.6950 C   0  0  0  0  0  0  0  0  0  0  0  0
  144.0520   75.4790  216.5740 C   0  0  0  0  0  0  0  0  0  0  0  0
  143.7420   76.6040  217.2590 N   0  0  0  0  0  0  0  0  0  0  0  0
  141.7560   78.1470  219.8850 N   0  0  0  0  0  0  0  0  0  0  0  0
  140.8010   74.5340  221.5610 C   0  0  0  0  0  0  0  0  0  0  0  0
  140.6180   73.1650  221.5480 C   0  0  0  0  0  0  0  0  0  0  0  0
  141.6380   72.3080  221.1770 C   0  0  0  0  0  0  0  0  0  0  0  0
  142.8450   72.8360  220.8190 C   0  0  0  0  0  0  0  0  0  0  0  0
  143.8960   72.0380  220.4410 C   0  0  0  0  0  0  0  0  0  0  0  0
  145.1160   72.5990  220.0800 C   0  0  0  0  0  0  0  0  0  0  0  0
  145.3000   73.9500  220.0920 C   0  0  0  0  0  0  0  0  0  0  0  0
  144.2400   74.7430  220.4710 C   0  0  0  0  0  0  0  0  0  0  0  0
  143.0200   74.2060  220.8340 C   0  0  0  0  0  0  0  0  0  0  0  0
  142.0040   75.0170  221.2010 N   0  0  0  0  0  0  0  0  0  0  0  0
  140.8640   77.1710  221.5680 H   0  0  0  0  0  0  0  0  0  0  0  0
  138.2363   77.9840  221.4067 H   0  0  0  0  0  0  0  0  0  0  0  0
  138.2215   77.2703  223.0484 H   0  0  0  0  0  0  0  0  0  0  0  0
  141.8233   78.7603  224.1920 H   0  0  0  0  0  0  0  0  0  0  0  0
  142.3961   77.9787  222.7278 H   0  0  0  0  0  0  0  0  0  0  0  0
  143.2014   80.5671  223.8612 H   0  0  0  0  0  0  0  0  0  0  0  0
  143.8884   79.7710  222.4357 H   0  0  0  0  0  0  0  0  0  0  0  0
  141.7112   81.8621  222.6100 H   0  0  0  0  0  0  0  0  0  0  0  0
  142.8451   81.6247  221.3115 H   0  0  0  0  0  0  0  0  0  0  0  0
  140.3459   80.6984  220.8818 H   0  0  0  0  0  0  0  0  0  0  0  0
  142.5967   81.1776  219.0873 H   0  0  0  0  0  0  0  0  0  0  0  0
  143.3210   79.3740  217.3880 H   0  0  0  0  0  0  0  0  0  0  0  0
  140.8299   75.7624  218.7499 H   0  0  0  0  0  0  0  0  0  0  0  0
  141.3330   73.6301  217.5026 H   0  0  0  0  0  0  0  0  0  0  0  0
  143.3681   73.4994  216.1549 H   0  0  0  0  0  0  0  0  0  0  0  0
  144.9612   75.4001  215.9599 H   0  0  0  0  0  0  0  0  0  0  0  0
  139.6422   72.7484  221.8383 H   0  0  0  0  0  0  0  0  0  0  0  0
  141.4795   71.2195  221.1705 H   0  0  0  0  0  0  0  0  0  0  0  0
  143.7720   70.9452  220.4235 H   0  0  0  0  0  0  0  0  0  0  0  0
  145.9460   71.9424  219.7799 H   0  0  0  0  0  0  0  0  0  0  0  0
  146.2659   74.3929  219.8076 H   0  0  0  0  0  0  0  0  0  0  0  0
  144.3683   75.8354  220.4851 H   0  0  0  0  0  0  0  0  0  0  0  0
  1  2  2  0
  2  3  1  0
  3  4  1  0
  4  5  1  0
  5  6  2  0
  5  7  1  0
  7  8  1  0
  8  9  1  0
  9 10  1  0
 10 11  1  0
 11 12  1  0
 12 13  2  0
 13 14  1  0
 14 15  1  0
 15 16  1  0
 16 17  2  0
 17 18  1  0
 18 19  2  0
 19 20  1  0
 20 21  2  0
 15 22  2  0
  2 23  1  0
 23 24  2  0
 24 25  1  0
 25 26  2  0
 26 27  1  0
 27 28  2  0
 28 29  1  0
 29 30  2  0
 30 31  1  0
 31 32  2  0
 11  7  1  0
 22 12  1  0
 32 23  1  0
 21 16  1  0
 31 26  1  0
  3 33  1  0
  4 34  1  0
  4 35  1  0
  8 36  1  0
  8 37  1  0
  9 38  1  0
  9 39  1  0
 10 40  1  0
 10 41  1  0
 11 42  1  6
 13 43  1  0
 14 44  1  0
 17 45  1  0
 18 46  1  0
 19 47  1  0
 20 48  1  0
 24 49  1  0
 25 50  1  0
 27 51  1  0
 28 52  1  0
 29 53  1  0
 30 54  1  0
M  END
>  <smiles>  (13) 
O=C(NCC(=O)N1CCC[C@H]1c1c[nH]c(-c2ccccn2)n1)c1ccc2ccccc2n1

>  <score_type>  (13) 
oracle

>  <origin>  (13) 
autodockgpu

>  <m_score__min__energy>  (13) 
-9.4800000000000004

>  <m_primary>  (13) 
energy

>  <rmsd>  (13) 
6.680486726443963

>  <m_score__min__rmsd>  (13) 
6.680486726443963

>  <meeko>  (13) 
{"free_energy": -6.83, "intermolecular_energy": -8.62, "internal_energy": -4.23, "cluster_size": 25, "cluster_id": 5, "rank_in_cluster": 24}

>  <energy>  (13) 
-7.41

>  <cluster_rmsd>  (13) 
0.08

>  <cluster>  (13) 
5

$$$$

     RDKit          3D

 54 58  0  0  0  0  0  0  0  0999 V2000
  138.8620   74.7940  222.3330 O   0  0  0  0  0  0  0  0  0  0  0  0
  139.9430   75.3070  221.9440 C   0  0  0  0  0  0  0  0  0  0  0  0
  140.1560   76.7140  221.8740 N   0  0  0  0  0  0  0  0  0  0  0  0
  139.0750   77.6140  222.2690 C   0  0  0  0  0  0  0  0  0  0  0  0
  139.6690   78.8220  222.9050 C   0  0  0  0  0  0  0  0  0  0  0  0
  139.0520   79.3990  223.8390 O   0  0  0  0  0  0  0  0  0  0  0  0
  140.9090   79.2980  222.4530 N   0  0  0  0  0  0  0  0  0  0  0  0
  142.2120   79.0220  223.0780 C   0  0  0  0  0  0  0  0  0  0  0  0
  143.0240   80.2760  222.7900 C   0  0  0  0  0  0  0  0  0  0  0  0
  142.1450   81.1520  221.9210 C   0  0  0  0  0  0  0  0  0  0  0  0
  141.2010   80.1310  221.3250 C   0  0  1  0  0  0  0  0  0  0  0  0
  141.7780   79.4350  220.1640 C   0  0  0  0  0  0  0  0  0  0  0  0
  142.3990   80.1190  219.1160 C   0  0  0  0  0  0  0  0  0  0  0  0
  142.8160   79.2220  218.2190 N   0  0  0  0  0  0  0  0  0  0  0  0
  142.4800   77.9970  218.6610 C   0  0  0  0  0  0  0  0  0  0  0  0
  142.7600   76.7470  217.9630 C   0  0  0  0  0  0  0  0  0  0  0  0
  143.7260   76.6820  216.9900 C   0  0  0  0  0  0  0  0  0  0  0  0
  143.9400   75.4580  216.3660 C   0  0  0  0  0  0  0  0  0  0  0  0
  143.1830   74.3920  216.7500 C   0  0  0  0  0  0  0  0  0  0  0  0
  142.2070   74.4520  217.7320 C   0  0  0  0  0  0  0  0  0  0  0  0
  142.0310   75.6610  218.3140 N   0  0  0  0  0  0  0  0  0  0  0  0
  141.8480   78.1400  219.8470 N   0  0  0  0  0  0  0  0  0  0  0  0
  141.0470   74.4210  221.5420 C   0  0  0  0  0  0  0  0  0  0  0  0
  140.8720   73.0520  221.5190 C   0  0  0  0  0  0  0  0  0  0  0  0
  141.8990   72.2030  221.1420 C   0  0  0  0  0  0  0  0  0  0  0  0
  143.1030   72.7410  220.7910 C   0  0  0  0  0  0  0  0  0  0  0  0
  144.1600   71.9520  220.4090 C   0  0  0  0  0  0  0  0  0  0  0  0
  145.3760   72.5230  220.0540 C   0  0  0  0  0  0  0  0  0  0  0  0
  145.5520   73.8750  220.0770 C   0  0  0  0  0  0  0  0  0  0  0  0
  144.4870   74.6590  220.4600 C   0  0  0  0  0  0  0  0  0  0  0  0
  143.2700   74.1110  220.8160 C   0  0  0  0  0  0  0  0  0  0  0  0
  142.2490   74.9150  221.1880 N   0  0  0  0  0  0  0  0  0  0  0  0
  141.0850   77.0580  221.5400 H   0  0  0  0  0  0  0  0  0  0  0  0
  138.4962   77.9095  221.3815 H   0  0  0  0  0  0  0  0  0  0  0  0
  138.4054   77.1069  222.9793 H   0  0  0  0  0  0  0  0  0  0  0  0
  142.1021   78.8663  224.1614 H   0  0  0  0  0  0  0  0  0  0  0  0
  142.6861   78.1089  222.6889 H   0  0  0  0  0  0  0  0  0  0  0  0
  143.2723   80.7944  223.7279 H   0  0  0  0  0  0  0  0  0  0  0  0
  143.9734   80.0352  222.2894 H   0  0  0  0  0  0  0  0  0  0  0  0
  141.6035   81.8988  222.5203 H   0  0  0  0  0  0  0  0  0  0  0  0
  142.6968   81.7431  221.1752 H   0  0  0  0  0  0  0  0  0  0  0  0
  140.2881   80.5577  220.8839 H   0  0  0  0  0  0  0  0  0  0  0  0
  142.5232   81.2095  219.0424 H   0  0  0  0  0  0  0  0  0  0  0  0
  143.3150   79.4460  217.3310 H   0  0  0  0  0  0  0  0  0  0  0  0
  144.3124   77.5703  216.7126 H   0  0  0  0  0  0  0  0  0  0  0  0
  144.7028   75.3526  215.5805 H   0  0  0  0  0  0  0  0  0  0  0  0
  143.3568   73.4271  216.2512 H   0  0  0  0  0  0  0  0  0  0  0  0
  141.6128   73.5723  218.0202 H   0  0  0  0  0  0  0  0  0  0  0  0
  139.8985   72.6275  221.8055 H   0  0  0  0  0  0  0  0  0  0  0  0
  141.7469   71.1137  221.1257 H   0  0  0  0  0  0  0  0  0  0  0  0
  144.0431   70.8585  220.3838 H   0  0  0  0  0  0  0  0  0  0  0  0
  146.2102   71.8739  219.7495 H   0  0  0  0  0  0  0  0  0  0  0  0
  146.5158   74.3257  219.7979 H   0  0  0  0  0  0  0  0  0  0  0  0
  144.6086   75.7520  220.4832 H   0  0  0  0  0  0  0  0  0  0  0  0
  1  2  2  0
  2  3  1  0
  3  4  1  0
  4  5  1  0
  5  6  2  0
  5  7  1  0
  7  8  1  0
  8  9  1  0
  9 10  1  0
 10 11  1  0
 11 12  1  0
 12 13  2  0
 13 14  1  0
 14 15  1  0
 15 16  1  0
 16 17  2  0
 17 18  1  0
 18 19  2  0
 19 20  1  0
 20 21  2  0
 15 22  2  0
  2 23  1  0
 23 24  2  0
 24 25  1  0
 25 26  2  0
 26 27  1  0
 27 28  2  0
 28 29  1  0
 29 30  2  0
 30 31  1  0
 31 32  2  0
 11  7  1  0
 22 12  1  0
 32 23  1  0
 21 16  1  0
 31 26  1  0
  3 33  1  0
  4 34  1  0
  4 35  1  0
  8 36  1  0
  8 37  1  0
  9 38  1  0
  9 39  1  0
 10 40  1  0
 10 41  1  0
 11 42  1  6
 13 43  1  0
 14 44  1  0
 17 45  1  0
 18 46  1  0
 19 47  1  0
 20 48  1  0
 24 49  1  0
 25 50  1  0
 27 51  1  0
 28 52  1  0
 29 53  1  0
 30 54  1  0
M  END
>  <smiles>  (14) 
O=C(NCC(=O)N1CCC[C@H]1c1c[nH]c(-c2ccccn2)n1)c1ccc2ccccc2n1

>  <score_type>  (14) 
oracle

>  <origin>  (14) 
autodockgpu

>  <m_score__min__energy>  (14) 
-9.4800000000000004

>  <m_primary>  (14) 
energy

>  <rmsd>  (14) 
6.646022945254175

>  <m_score__min__rmsd>  (14) 
6.646022945254175

>  <meeko>  (14) 
{"free_energy": -7.13, "intermolecular_energy": -8.92, "internal_energy": -3.99, "cluster_size": 25, "cluster_id": 5, "rank_in_cluster": 15}

>  <energy>  (14) 
-7.38

>  <cluster_rmsd>  (14) 
0.11

>  <cluster>  (14) 
5

$$$$

     RDKit          3D

 54 58  0  0  0  0  0  0  0  0999 V2000
  141.1120   72.8280  221.8200 O   0  0  0  0  0  0  0  0  0  0  0  0
  140.0600   72.7080  222.4990 C   0  0  0  0  0  0  0  0  0  0  0  0
  138.9060   73.5200  222.2970 N   0  0  0  0  0  0  0  0  0  0  0  0
  138.9360   74.5450  221.2560 C   0  0  0  0  0  0  0  0  0  0  0  0
  138.9630   75.8840  221.9060 C   0  0  0  0  0  0  0  0  0  0  0  0
  138.0000   76.2410  222.6350 O   0  0  0  0  0  0  0  0  0  0  0  0
  140.0640   76.7280  221.6970 N   0  0  0  0  0  0  0  0  0  0  0  0
  140.9190   77.2980  222.7500 C   0  0  0  0  0  0  0  0  0  0  0  0
  141.3590   78.6350  222.1740 C   0  0  0  0  0  0  0  0  0  0  0  0
  140.7960   78.6910  220.7690 C   0  0  0  0  0  0  0  0  0  0  0  0
  140.6050   77.2210  220.4650 C   0  0  1  0  0  0  0  0  0  0  0  0
  141.8450   76.5680  220.0190 C   0  0  0  0  0  0  0  0  0  0  0  0
  142.6450   77.0990  219.0030 C   0  0  0  0  0  0  0  0  0  0  0  0
  143.6900   76.2870  218.8250 N   0  0  0  0  0  0  0  0  0  0  0  0
  143.5800   75.2620  219.6900 C   0  0  0  0  0  0  0  0  0  0  0  0
  144.5260   74.1590  219.8090 C   0  0  0  0  0  0  0  0  0  0  0  0
  144.5390   73.1380  218.8920 C   0  0  0  0  0  0  0  0  0  0  0  0
  145.4680   72.1170  219.0670 C   0  0  0  0  0  0  0  0  0  0  0  0
  146.3130   72.1840  220.1340 C   0  0  0  0  0  0  0  0  0  0  0  0
  146.3040   73.2130  221.0620 C   0  0  0  0  0  0  0  0  0  0  0  0
  145.3850   74.1850  220.8550 N   0  0  0  0  0  0  0  0  0  0  0  0
  142.4510   75.4450  220.4110 N   0  0  0  0  0  0  0  0  0  0  0  0
  140.0050   71.6820  223.5530 C   0  0  0  0  0  0  0  0  0  0  0  0
  139.3820   70.4730  223.3200 C   0  0  0  0  0  0  0  0  0  0  0  0
  139.3210   69.4960  224.2990 C   0  0  0  0  0  0  0  0  0  0  0  0
  139.8910   69.7450  225.5140 C   0  0  0  0  0  0  0  0  0  0  0  0
  139.8640   68.8170  226.5250 C   0  0  0  0  0  0  0  0  0  0  0  0
  140.4520   69.0920  227.7540 C   0  0  0  0  0  0  0  0  0  0  0  0
  141.0680   70.2860  227.9870 C   0  0  0  0  0  0  0  0  0  0  0  0
  141.0910   71.2110  226.9670 C   0  0  0  0  0  0  0  0  0  0  0  0
  140.5130   70.9570  225.7380 C   0  0  0  0  0  0  0  0  0  0  0  0
  140.5560   71.8910  224.7630 N   0  0  0  0  0  0  0  0  0  0  0  0
  138.0720   73.3550  222.9040 H   0  0  0  0  0  0  0  0  0  0  0  0
  139.8352   74.4164  220.6356 H   0  0  0  0  0  0  0  0  0  0  0  0
  138.0453   74.4564  220.6167 H   0  0  0  0  0  0  0  0  0  0  0  0
  140.3517   77.4401  223.6816 H   0  0  0  0  0  0  0  0  0  0  0  0
  141.7664   76.6465  223.0097 H   0  0  0  0  0  0  0  0  0  0  0  0
  140.9589   79.4619  222.7791 H   0  0  0  0  0  0  0  0  0  0  0  0
  142.4547   78.7317  222.1727 H   0  0  0  0  0  0  0  0  0  0  0  0
  139.8406   79.2353  220.7398 H   0  0  0  0  0  0  0  0  0  0  0  0
  141.4373   79.2196  220.0483 H   0  0  0  0  0  0  0  0  0  0  0  0
  139.9397   77.0148  219.6136 H   0  0  0  0  0  0  0  0  0  0  0  0
  142.4475   78.0266  218.4458 H   0  0  0  0  0  0  0  0  0  0  0  0
  144.4540   76.4330  218.1310 H   0  0  0  0  0  0  0  0  0  0  0  0
  143.8370   73.1272  218.0452 H   0  0  0  0  0  0  0  0  0  0  0  0
  145.5191   71.2754  218.3605 H   0  0  0  0  0  0  0  0  0  0  0  0
  147.0451   71.3738  220.2664 H   0  0  0  0  0  0  0  0  0  0  0  0
  147.0000   73.2384  221.9134 H   0  0  0  0  0  0  0  0  0  0  0  0
  138.9252   70.2819  222.3378 H   0  0  0  0  0  0  0  0  0  0  0  0
  138.8219   68.5359  224.1012 H   0  0  0  0  0  0  0  0  0  0  0  0
  139.3725   67.8467  226.3610 H   0  0  0  0  0  0  0  0  0  0  0  0
  140.4199   68.3347  228.5511 H   0  0  0  0  0  0  0  0  0  0  0  0
  141.5324   70.5037  228.9601 H   0  0  0  0  0  0  0  0  0  0  0  0
  141.5837   72.1799  227.1356 H   0  0  0  0  0  0  0  0  0  0  0  0
  1  2  2  0
  2  3  1  0
  3  4  1  0
  4  5  1  0
  5  6  2  0
  5  7  1  0
  7  8  1  0
  8  9  1  0
  9 10  1  0
 10 11  1  0
 11 12  1  0
 12 13  2  0
 13 14  1  0
 14 15  1  0
 15 16  1  0
 16 17  2  0
 17 18  1  0
 18 19  2  0
 19 20  1  0
 20 21  2  0
 15 22  2  0
  2 23  1  0
 23 24  2  0
 24 25  1  0
 25 26  2  0
 26 27  1  0
 27 28  2  0
 28 29  1  0
 29 30  2  0
 30 31  1  0
 31 32  2  0
 11  7  1  0
 22 12  1  0
 32 23  1  0
 21 16  1  0
 31 26  1  0
  3 33  1  0
  4 34  1  0
  4 35  1  0
  8 36  1  0
  8 37  1  0
  9 38  1  0
  9 39  1  0
 10 40  1  0
 10 41  1  0
 11 42  1  6
 13 43  1  0
 14 44  1  0
 17 45  1  0
 18 46  1  0
 19 47  1  0
 20 48  1  0
 24 49  1  0
 25 50  1  0
 27 51  1  0
 28 52  1  0
 29 53  1  0
 30 54  1  0
M  END
>  <smiles>  (15) 
O=C(NCC(=O)N1CCC[C@H]1c1c[nH]c(-c2ccccn2)n1)c1ccc2ccccc2n1

>  <score_type>  (15) 
oracle

>  <origin>  (15) 
autodockgpu

>  <m_score__min__energy>  (15) 
-9.4800000000000004

>  <m_primary>  (15) 
energy

>  <rmsd>  (15) 
5.2912944424279225

>  <m_score__min__rmsd>  (15) 
5.2912944424279225

>  <meeko>  (15) 
{"free_energy": -9.48, "intermolecular_energy": -11.27, "internal_energy": -1.79, "cluster_size": 1, "cluster_id": 1, "rank_in_cluster": 1}

>  <energy>  (15) 
-7.35

>  <cluster_rmsd>  (15) 
0.11

>  <cluster>  (15) 
5

$$$$

     RDKit          3D

 54 58  0  0  0  0  0  0  0  0999 V2000
  138.9060   74.7280  222.3300 O   0  0  0  0  0  0  0  0  0  0  0  0
  139.9850   75.2430  221.9410 C   0  0  0  0  0  0  0  0  0  0  0  0
  140.1950   76.6500  221.8660 N   0  0  0  0  0  0  0  0  0  0  0  0
  139.1120   77.5490  222.2580 C   0  0  0  0  0  0  0  0  0  0  0  0
  139.7020   78.7490  222.9110 C   0  0  0  0  0  0  0  0  0  0  0  0
  139.0940   79.2970  223.8690 O   0  0  0  0  0  0  0  0  0  0  0  0
  140.9270   79.2520  222.4490 N   0  0  0  0  0  0  0  0  0  0  0  0
  142.2400   79.0090  223.0660 C   0  0  0  0  0  0  0  0  0  0  0  0
  143.0210   80.2800  222.7670 C   0  0  0  0  0  0  0  0  0  0  0  0
  142.1170   81.1310  221.8990 C   0  0  0  0  0  0  0  0  0  0  0  0
  141.1930   80.0850  221.3140 C   0  0  1  0  0  0  0  0  0  0  0  0
  141.7780   79.3970  220.1530 C   0  0  0  0  0  0  0  0  0  0  0  0
  142.4120   80.0870  219.1160 C   0  0  0  0  0  0  0  0  0  0  0  0
  142.8330   79.1960  218.2160 N   0  0  0  0  0  0  0  0  0  0  0  0
  142.4890   77.9690  218.6450 C   0  0  0  0  0  0  0  0  0  0  0  0
  142.7720   76.7230  217.9390 C   0  0  0  0  0  0  0  0  0  0  0  0
  142.0670   75.5790  218.2170 C   0  0  0  0  0  0  0  0  0  0  0  0
  142.3900   74.4280  217.5060 C   0  0  0  0  0  0  0  0  0  0  0  0
  143.3840   74.4960  216.5760 C   0  0  0  0  0  0  0  0  0  0  0  0
  144.0970   75.6490  216.2920 C   0  0  0  0  0  0  0  0  0  0  0  0
  143.7530   76.7460  217.0060 N   0  0  0  0  0  0  0  0  0  0  0  0
  141.8460   78.1040  219.8260 N   0  0  0  0  0  0  0  0  0  0  0  0
  141.0920   74.3580  221.5420 C   0  0  0  0  0  0  0  0  0  0  0  0
  140.9190   72.9880  221.5180 C   0  0  0  0  0  0  0  0  0  0  0  0
  141.9480   72.1410  221.1450 C   0  0  0  0  0  0  0  0  0  0  0  0
  143.1520   72.6800  220.7970 C   0  0  0  0  0  0  0  0  0  0  0  0
  144.2110   71.8930  220.4180 C   0  0  0  0  0  0  0  0  0  0  0  0
  145.4280   72.4660  220.0660 C   0  0  0  0  0  0  0  0  0  0  0  0
  145.6020   73.8180  220.0890 C   0  0  0  0  0  0  0  0  0  0  0  0
  144.5350   74.6000  220.4690 C   0  0  0  0  0  0  0  0  0  0  0  0
  143.3170   74.0510  220.8220 C   0  0  0  0  0  0  0  0  0  0  0  0
  142.2940   74.8530  221.1910 N   0  0  0  0  0  0  0  0  0  0  0  0
  141.1240   76.9950  221.5320 H   0  0  0  0  0  0  0  0  0  0  0  0
  138.5433   77.8541  221.3672 H   0  0  0  0  0  0  0  0  0  0  0  0
  138.4338   77.0371  222.9565 H   0  0  0  0  0  0  0  0  0  0  0  0
  142.1411   78.8556  224.1508 H   0  0  0  0  0  0  0  0  0  0  0  0
  142.7324   78.1053  222.6775 H   0  0  0  0  0  0  0  0  0  0  0  0
  143.2626   80.8088  223.7008 H   0  0  0  0  0  0  0  0  0  0  0  0
  143.9728   80.0587  222.2620 H   0  0  0  0  0  0  0  0  0  0  0  0
  141.5621   81.8683  222.4977 H   0  0  0  0  0  0  0  0  0  0  0  0
  142.6505   81.7308  221.1469 H   0  0  0  0  0  0  0  0  0  0  0  0
  140.2677   80.4876  220.8760 H   0  0  0  0  0  0  0  0  0  0  0  0
  142.5417   81.1775  219.0525 H   0  0  0  0  0  0  0  0  0  0  0  0
  143.3410   79.4260  217.3340 H   0  0  0  0  0  0  0  0  0  0  0  0
  141.2722   75.5724  218.9774 H   0  0  0  0  0  0  0  0  0  0  0  0
  141.8554   73.4844  217.6901 H   0  0  0  0  0  0  0  0  0  0  0  0
  143.6347   73.5816  216.0183 H   0  0  0  0  0  0  0  0  0  0  0  0
  144.8932   75.6716  215.5334 H   0  0  0  0  0  0  0  0  0  0  0  0
  139.9450   72.5620  221.8007 H   0  0  0  0  0  0  0  0  0  0  0  0
  141.7976   71.0514  221.1294 H   0  0  0  0  0  0  0  0  0  0  0  0
  144.0958   70.7993  220.3926 H   0  0  0  0  0  0  0  0  0  0  0  0
  146.2640   71.8179  219.7640 H   0  0  0  0  0  0  0  0  0  0  0  0
  146.5659   74.2701  219.8123 H   0  0  0  0  0  0  0  0  0  0  0  0
  144.6552   75.6932  220.4923 H   0  0  0  0  0  0  0  0  0  0  0  0
  1  2  2  0
  2  3  1  0
  3  4  1  0
  4  5  1  0
  5  6  2  0
  5  7  1  0
  7  8  1  0
  8  9  1  0
  9 10  1  0
 10 11  1  0
 11 12  1  0
 12 13  2  0
 13 14  1  0
 14 15  1  0
 15 16  1  0
 16 17  2  0
 17 18  1  0
 18 19  2  0
 19 20  1  0
 20 21  2  0
 15 22  2  0
  2 23  1  0
 23 24  2  0
 24 25  1  0
 25 26  2  0
 26 27  1  0
 27 28  2  0
 28 29  1  0
 29 30  2  0
 30 31  1  0
 31 32  2  0
 11  7  1  0
 22 12  1  0
 32 23  1  0
 21 16  1  0
 31 26  1  0
  3 33  1  0
  4 34  1  0
  4 35  1  0
  8 36  1  0
  8 37  1  0
  9 38  1  0
  9 39  1  0
 10 40  1  0
 10 41  1  0
 11 42  1  6
 13 43  1  0
 14 44  1  0
 17 45  1  0
 18 46  1  0
 19 47  1  0
 20 48  1  0
 24 49  1  0
 25 50  1  0
 27 51  1  0
 28 52  1  0
 29 53  1  0
 30 54  1  0
M  END
>  <smiles>  (16) 
O=C(NCC(=O)N1CCC[C@H]1c1c[nH]c(-c2ccccn2)n1)c1ccc2ccccc2n1

>  <score_type>  (16) 
oracle

>  <origin>  (16) 
autodockgpu

>  <m_score__min__energy>  (16) 
-9.4800000000000004

>  <m_primary>  (16) 
energy

>  <rmsd>  (16) 
6.708883199171483

>  <m_score__min__rmsd>  (16) 
6.708883199171483

>  <meeko>  (16) 
{"free_energy": -7.14, "intermolecular_energy": -8.93, "internal_energy": -4.09, "cluster_size": 25, "cluster_id": 5, "rank_in_cluster": 12}

>  <energy>  (16) 
-7.34

>  <cluster_rmsd>  (16) 
0.08

>  <cluster>  (16) 
5

$$$$

     RDKit          3D

 54 58  0  0  0  0  0  0  0  0999 V2000
  140.6940   73.1940  222.6810 O   0  0  0  0  0  0  0  0  0  0  0  0
  139.8720   72.2900  222.9800 C   0  0  0  0  0  0  0  0  0  0  0  0
  138.6930   72.0290  222.2250 N   0  0  0  0  0  0  0  0  0  0  0  0
  138.4140   72.8430  221.0440 C   0  0  0  0  0  0  0  0  0  0  0  0
  137.0920   73.5050  221.2240 C   0  0  0  0  0  0  0  0  0  0  0  0
  136.0390   72.8800  220.9300 O   0  0  0  0  0  0  0  0  0  0  0  0
  137.0410   74.8170  221.7180 N   0  0  0  0  0  0  0  0  0  0  0  0
  136.5720   75.2100  223.0550 C   0  0  0  0  0  0  0  0  0  0  0  0
  135.9730   76.5910  222.8360 C   0  0  0  0  0  0  0  0  0  0  0  0
  136.2370   76.9360  221.3850 C   0  0  0  0  0  0  0  0  0  0  0  0
  137.4160   76.0410  221.0750 C   0  0  1  0  0  0  0  0  0  0  0  0
  138.6960   76.6160  221.5180 C   0  0  0  0  0  0  0  0  0  0  0  0
  139.8810   75.8750  221.5360 C   0  0  0  0  0  0  0  0  0  0  0  0
  140.8610   76.6640  221.9830 N   0  0  0  0  0  0  0  0  0  0  0  0
  140.3400   77.8750  222.2480 C   0  0  0  0  0  0  0  0  0  0  0  0
  141.0900   79.0180  222.7580 C   0  0  0  0  0  0  0  0  0  0  0  0
  140.4510   80.0590  223.3840 C   0  0  0  0  0  0  0  0  0  0  0  0
  141.2290   81.1160  223.8450 C   0  0  0  0  0  0  0  0  0  0  0  0
  142.5770   81.0640  223.6500 C   0  0  0  0  0  0  0  0  0  0  0  0
  143.2250   80.0150  223.0190 C   0  0  0  0  0  0  0  0  0  0  0  0
  142.4330   79.0080  222.5860 N   0  0  0  0  0  0  0  0  0  0  0  0
  139.0200   77.8330  221.9620 N   0  0  0  0  0  0  0  0  0  0  0  0
  140.1320   71.4560  224.1650 C   0  0  0  0  0  0  0  0  0  0  0  0
  141.0000   71.8880  225.1480 C   0  0  0  0  0  0  0  0  0  0  0  0
  141.2550   71.1170  226.2690 C   0  0  0  0  0  0  0  0  0  0  0  0
  140.6330   69.9090  226.3940 C   0  0  0  0  0  0  0  0  0  0  0  0
  140.8450   69.0990  227.4820 C   0  0  0  0  0  0  0  0  0  0  0  0
  140.1990   67.8730  227.5870 C   0  0  0  0  0  0  0  0  0  0  0  0
  139.3420   67.4440  226.6180 C   0  0  0  0  0  0  0  0  0  0  0  0
  139.1340   68.2620  225.5310 C   0  0  0  0  0  0  0  0  0  0  0  0
  139.7660   69.4850  225.4070 C   0  0  0  0  0  0  0  0  0  0  0  0
  139.5360   70.2590  224.3240 N   0  0  0  0  0  0  0  0  0  0  0  0
  138.0620   71.2580  222.5420 H   0  0  0  0  0  0  0  0  0  0  0  0
  139.1975   73.6061  220.9265 H   0  0  0  0  0  0  0  0  0  0  0  0
  138.3970   72.2082  220.1458 H   0  0  0  0  0  0  0  0  0  0  0  0
  135.8117   74.5071  223.4262 H   0  0  0  0  0  0  0  0  0  0  0  0
  137.3757   75.2084  223.8060 H   0  0  0  0  0  0  0  0  0  0  0  0
  134.8911   76.5740  223.0340 H   0  0  0  0  0  0  0  0  0  0  0  0
  136.4172   77.3347  223.5139 H   0  0  0  0  0  0  0  0  0  0  0  0
  135.3714   76.6953  220.7503 H   0  0  0  0  0  0  0  0  0  0  0  0
  136.4239   78.0047  221.2038 H   0  0  0  0  0  0  0  0  0  0  0  0
  137.6088   75.8970  220.0016 H   0  0  0  0  0  0  0  0  0  0  0  0
  139.9878   74.8227  221.2338 H   0  0  0  0  0  0  0  0  0  0  0  0
  141.8570   76.3770  222.1010 H   0  0  0  0  0  0  0  0  0  0  0  0
  139.3591   80.0575  223.5169 H   0  0  0  0  0  0  0  0  0  0  0  0
  140.7670   81.9740  224.3552 H   0  0  0  0  0  0  0  0  0  0  0  0
  143.1858   81.9043  224.0151 H   0  0  0  0  0  0  0  0  0  0  0  0
  144.3160   80.0018  222.8788 H   0  0  0  0  0  0  0  0  0  0  0  0
  141.4980   72.8627  225.0383 H   0  0  0  0  0  0  0  0  0  0  0  0
  141.9476   71.4723  227.0462 H   0  0  0  0  0  0  0  0  0  0  0  0
  141.5321   69.4232  228.2775 H   0  0  0  0  0  0  0  0  0  0  0  0
  140.3824   67.2385  228.4666 H   0  0  0  0  0  0  0  0  0  0  0  0
  138.8319   66.4731  226.7022 H   0  0  0  0  0  0  0  0  0  0  0  0
  138.4455   67.9333  224.7386 H   0  0  0  0  0  0  0  0  0  0  0  0
  1  2  2  0
  2  3  1  0
  3  4  1  0
  4  5  1  0
  5  6  2  0
  5  7  1  0
  7  8  1  0
  8  9  1  0
  9 10  1  0
 10 11  1  0
 11 12  1  0
 12 13  2  0
 13 14  1  0
 14 15  1  0
 15 16  1  0
 16 17  2  0
 17 18  1  0
 18 19  2  0
 19 20  1  0
 20 21  2  0
 15 22  2  0
  2 23  1  0
 23 24  2  0
 24 25  1  0
 25 26  2  0
 26 27  1  0
 27 28  2  0
 28 29  1  0
 29 30  2  0
 30 31  1  0
 31 32  2  0
 11  7  1  0
 22 12  1  0
 32 23  1  0
 21 16  1  0
 31 26  1  0
  3 33  1  0
  4 34  1  0
  4 35  1  0
  8 36  1  0
  8 37  1  0
  9 38  1  0
  9 39  1  0
 10 40  1  0
 10 41  1  0
 11 42  1  6
 13 43  1  0
 14 44  1  0
 17 45  1  0
 18 46  1  0
 19 47  1  0
 20 48  1  0
 24 49  1  0
 25 50  1  0
 27 51  1  0
 28 52  1  0
 29 53  1  0
 30 54  1  0
M  END
>  <smiles>  (17) 
O=C(NCC(=O)N1CCC[C@H]1c1c[nH]c(-c2ccccn2)n1)c1ccc2ccccc2n1

>  <score_type>  (17) 
oracle

>  <origin>  (17) 
autodockgpu

>  <m_score__min__energy>  (17) 
-9.4800000000000004

>  <m_primary>  (17) 
energy

>  <rmsd>  (17) 
4.163914794058789

>  <m_score__min__rmsd>  (17) 
4.163914794058789

>  <meeko>  (17) 
{"free_energy": -8.76, "intermolecular_energy": -10.55, "internal_energy": -2.11, "cluster_size": 6, "cluster_id": 2, "rank_in_cluster": 3}

>  <energy>  (17) 
-7.31

>  <cluster_rmsd>  (17) 
0.18

>  <cluster>  (17) 
5

$$$$

     RDKit          3D

 54 58  0  0  0  0  0  0  0  0999 V2000
  138.8100   74.7820  222.2990 O   0  0  0  0  0  0  0  0  0  0  0  0
  139.9070   75.2910  221.9530 C   0  0  0  0  0  0  0  0  0  0  0  0
  140.1400   76.6960  221.9280 N   0  0  0  0  0  0  0  0  0  0  0  0
  139.0610   77.6000  222.3190 C   0  0  0  0  0  0  0  0  0  0  0  0
  139.6580   78.8200  222.9280 C   0  0  0  0  0  0  0  0  0  0  0  0
  139.0360   79.4280  223.8390 O   0  0  0  0  0  0  0  0  0  0  0  0
  140.9070   79.2730  222.4770 N   0  0  0  0  0  0  0  0  0  0  0  0
  142.2030   78.9750  223.1040 C   0  0  0  0  0  0  0  0  0  0  0  0
  143.0380   80.2130  222.8150 C   0  0  0  0  0  0  0  0  0  0  0  0
  142.1760   81.1040  221.9430 C   0  0  0  0  0  0  0  0  0  0  0  0
  141.2150   80.0990  221.3480 C   0  0  1  0  0  0  0  0  0  0  0  0
  141.7800   79.3910  220.1880 C   0  0  0  0  0  0  0  0  0  0  0  0
  142.4260   80.0610  219.1450 C   0  0  0  0  0  0  0  0  0  0  0  0
  142.8240   79.1550  218.2490 N   0  0  0  0  0  0  0  0  0  0  0  0
  142.4550   77.9380  218.6860 C   0  0  0  0  0  0  0  0  0  0  0  0
  142.7070   76.6830  217.9870 C   0  0  0  0  0  0  0  0  0  0  0  0
  141.9220   75.5800  218.2110 C   0  0  0  0  0  0  0  0  0  0  0  0
  142.2200   74.4160  217.5100 C   0  0  0  0  0  0  0  0  0  0  0  0
  143.2700   74.4320  216.6420 C   0  0  0  0  0  0  0  0  0  0  0  0
  144.0650   75.5430  216.4120 C   0  0  0  0  0  0  0  0  0  0  0  0
  143.7420   76.6540  217.1140 N   0  0  0  0  0  0  0  0  0  0  0  0
  141.8190   78.0950  219.8690 N   0  0  0  0  0  0  0  0  0  0  0  0
  141.0110   74.4010  221.5560 C   0  0  0  0  0  0  0  0  0  0  0  0
  140.8340   73.0320  221.5420 C   0  0  0  0  0  0  0  0  0  0  0  0
  141.8600   72.1800  221.1710 C   0  0  0  0  0  0  0  0  0  0  0  0
  143.0640   72.7150  220.8130 C   0  0  0  0  0  0  0  0  0  0  0  0
  144.1200   71.9230  220.4350 C   0  0  0  0  0  0  0  0  0  0  0  0
  145.3360   72.4900  220.0750 C   0  0  0  0  0  0  0  0  0  0  0  0
  145.5130   73.8420  220.0870 C   0  0  0  0  0  0  0  0  0  0  0  0
  144.4490   74.6290  220.4670 C   0  0  0  0  0  0  0  0  0  0  0  0
  143.2310   74.0850  220.8290 C   0  0  0  0  0  0  0  0  0  0  0  0
  142.2120   74.8920  221.1960 N   0  0  0  0  0  0  0  0  0  0  0  0
  141.0820   77.0370  221.6280 H   0  0  0  0  0  0  0  0  0  0  0  0
  138.4722   77.8789  221.4327 H   0  0  0  0  0  0  0  0  0  0  0  0
  138.4004   77.1034  223.0450 H   0  0  0  0  0  0  0  0  0  0  0  0
  142.0887   78.8234  224.1875 H   0  0  0  0  0  0  0  0  0  0  0  0
  142.6610   78.0527  222.7173 H   0  0  0  0  0  0  0  0  0  0  0  0
  143.2946   80.7284  223.7523 H   0  0  0  0  0  0  0  0  0  0  0  0
  143.9834   79.9539  222.3160 H   0  0  0  0  0  0  0  0  0  0  0  0
  141.6473   81.8615  222.5402 H   0  0  0  0  0  0  0  0  0  0  0  0
  142.7392   81.6840  221.1971 H   0  0  0  0  0  0  0  0  0  0  0  0
  140.3103   80.5413  220.9055 H   0  0  0  0  0  0  0  0  0  0  0  0
  142.5799   81.1479  219.0747 H   0  0  0  0  0  0  0  0  0  0  0  0
  143.3340   79.3690  217.3640 H   0  0  0  0  0  0  0  0  0  0  0  0
  141.0837   75.6151  218.9223 H   0  0  0  0  0  0  0  0  0  0  0  0
  141.6219   73.5040  217.6531 H   0  0  0  0  0  0  0  0  0  0  0  0
  143.5002   73.5081  216.0912 H   0  0  0  0  0  0  0  0  0  0  0  0
  144.9060   75.5233  215.7033 H   0  0  0  0  0  0  0  0  0  0  0  0
  139.8599   72.6105  221.8309 H   0  0  0  0  0  0  0  0  0  0  0  0
  141.7079   71.0906  221.1647 H   0  0  0  0  0  0  0  0  0  0  0  0
  144.0020   70.8295  220.4171 H   0  0  0  0  0  0  0  0  0  0  0  0
  146.1696   71.8378  219.7754 H   0  0  0  0  0  0  0  0  0  0  0  0
  146.4762   74.2902  219.8019 H   0  0  0  0  0  0  0  0  0  0  0  0
  144.5718   75.7220  220.4829 H   0  0  0  0  0  0  0  0  0  0  0  0
  1  2  2  0
  2  3  1  0
  3  4  1  0
  4  5  1  0
  5  6  2  0
  5  7  1  0
  7  8  1  0
  8  9  1  0
  9 10  1  0
 10 11  1  0
 11 12  1  0
 12 13  2  0
 13 14  1  0
 14 15  1  0
 15 16  1  0
 16 17  2  0
 17 18  1  0
 18 19  2  0
 19 20  1  0
 20 21  2  0
 15 22  2  0
  2 23  1  0
 23 24  2  0
 24 25  1  0
 25 26  2  0
 26 27  1  0
 27 28  2  0
 28 29  1  0
 29 30  2  0
 30 31  1  0
 31 32  2  0
 11  7  1  0
 22 12  1  0
 32 23  1  0
 21 16  1  0
 31 26  1  0
  3 33  1  0
  4 34  1  0
  4 35  1  0
  8 36  1  0
  8 37  1  0
  9 38  1  0
  9 39  1  0
 10 40  1  0
 10 41  1  0
 11 42  1  6
 13 43  1  0
 14 44  1  0
 17 45  1  0
 18 46  1  0
 19 47  1  0
 20 48  1  0
 24 49  1  0
 25 50  1  0
 27 51  1  0
 28 52  1  0
 29 53  1  0
 30 54  1  0
M  END
>  <smiles>  (18) 
O=C(NCC(=O)N1CCC[C@H]1c1c[nH]c(-c2ccccn2)n1)c1ccc2ccccc2n1

>  <score_type>  (18) 
oracle

>  <origin>  (18) 
autodockgpu

>  <m_score__min__energy>  (18) 
-9.4800000000000004

>  <m_primary>  (18) 
energy

>  <rmsd>  (18) 
6.701357764308301

>  <m_score__min__rmsd>  (18) 
6.701357764308301

>  <meeko>  (18) 
{"free_energy": -7.04, "intermolecular_energy": -8.83, "internal_energy": -4.14, "cluster_size": 25, "cluster_id": 5, "rank_in_cluster": 21}

>  <energy>  (18) 
-7.27

>  <cluster_rmsd>  (18) 
0.2

>  <cluster>  (18) 
5

$$$$

     RDKit          3D

 54 58  0  0  0  0  0  0  0  0999 V2000
  139.0880   74.5230  222.1900 O   0  0  0  0  0  0  0  0  0  0  0  0
  140.1520   75.0680  221.7990 C   0  0  0  0  0  0  0  0  0  0  0  0
  140.3240   76.4810  221.7300 N   0  0  0  0  0  0  0  0  0  0  0  0
  139.2180   77.3490  222.1290 C   0  0  0  0  0  0  0  0  0  0  0  0
  139.7760   78.5450  222.8170 C   0  0  0  0  0  0  0  0  0  0  0  0
  139.1910   79.0060  223.8330 O   0  0  0  0  0  0  0  0  0  0  0  0
  140.9450   79.1400  222.3220 N   0  0  0  0  0  0  0  0  0  0  0  0
  142.2830   79.0280  222.9230 C   0  0  0  0  0  0  0  0  0  0  0  0
  142.9460   80.3540  222.5810 C   0  0  0  0  0  0  0  0  0  0  0  0
  141.9590   81.1010  221.7080 C   0  0  0  0  0  0  0  0  0  0  0  0
  141.1210   79.9650  221.1640 C   0  0  1  0  0  0  0  0  0  0  0  0
  141.7460   79.3010  220.0100 C   0  0  0  0  0  0  0  0  0  0  0  0
  142.3700   80.0160  218.9840 C   0  0  0  0  0  0  0  0  0  0  0  0
  142.8350   79.1430  218.0870 N   0  0  0  0  0  0  0  0  0  0  0  0
  142.5290   77.9030  218.5080 C   0  0  0  0  0  0  0  0  0  0  0  0
  142.8660   76.6710  217.8040 C   0  0  0  0  0  0  0  0  0  0  0  0
  143.7280   76.6810  216.7360 C   0  0  0  0  0  0  0  0  0  0  0  0
  144.0040   75.4690  216.1110 C   0  0  0  0  0  0  0  0  0  0  0  0
  143.4060   74.3410  216.5890 C   0  0  0  0  0  0  0  0  0  0  0  0
  142.5360   74.3270  217.6670 C   0  0  0  0  0  0  0  0  0  0  0  0
  142.2940   75.5260  218.2460 N   0  0  0  0  0  0  0  0  0  0  0  0
  141.8650   78.0130  219.6800 N   0  0  0  0  0  0  0  0  0  0  0  0
  141.2810   74.2150  221.3920 C   0  0  0  0  0  0  0  0  0  0  0  0
  141.1190   72.8490  221.2770 C   0  0  0  0  0  0  0  0  0  0  0  0
  142.1690   72.0320  220.8950 C   0  0  0  0  0  0  0  0  0  0  0  0
  143.3820   72.5970  220.6310 C   0  0  0  0  0  0  0  0  0  0  0  0
  144.4620   71.8400  220.2490 C   0  0  0  0  0  0  0  0  0  0  0  0
  145.6880   72.4400  219.9850 C   0  0  0  0  0  0  0  0  0  0  0  0
  145.8510   73.7880  220.0990 C   0  0  0  0  0  0  0  0  0  0  0  0
  144.7630   74.5400  220.4820 C   0  0  0  0  0  0  0  0  0  0  0  0
  143.5350   73.9650  220.7490 C   0  0  0  0  0  0  0  0  0  0  0  0
  142.4920   74.7370  221.1230 N   0  0  0  0  0  0  0  0  0  0  0  0
  141.2410   76.8530  221.3940 H   0  0  0  0  0  0  0  0  0  0  0  0
  138.6541   77.6635  221.2384 H   0  0  0  0  0  0  0  0  0  0  0  0
  138.5416   76.8076  222.8068 H   0  0  0  0  0  0  0  0  0  0  0  0
  142.2133   78.8941  224.0126 H   0  0  0  0  0  0  0  0  0  0  0  0
  142.8468   78.1611  222.5481 H   0  0  0  0  0  0  0  0  0  0  0  0
  143.1539   80.9251  223.4978 H   0  0  0  0  0  0  0  0  0  0  0  0
  143.9062   80.2035  222.0659 H   0  0  0  0  0  0  0  0  0  0  0  0
  141.3510   81.8026  222.2979 H   0  0  0  0  0  0  0  0  0  0  0  0
  142.4275   81.7251  220.9327 H   0  0  0  0  0  0  0  0  0  0  0  0
  140.1580   80.2759  220.7328 H   0  0  0  0  0  0  0  0  0  0  0  0
  142.4622   81.1106  218.9254 H   0  0  0  0  0  0  0  0  0  0  0  0
  143.3480   79.3940  217.2140 H   0  0  0  0  0  0  0  0  0  0  0  0
  144.1861   77.6176  216.3853 H   0  0  0  0  0  0  0  0  0  0  0  0
  144.6887   75.4220  215.2513 H   0  0  0  0  0  0  0  0  0  0  0  0
  143.6272   73.3862  216.0896 H   0  0  0  0  0  0  0  0  0  0  0  0
  142.0707   73.3987  218.0299 H   0  0  0  0  0  0  0  0  0  0  0  0
  140.1376   72.4016  221.4928 H   0  0  0  0  0  0  0  0  0  0  0  0
  142.0275   70.9448  220.8058 H   0  0  0  0  0  0  0  0  0  0  0  0
  144.3563   70.7495  220.1510 H   0  0  0  0  0  0  0  0  0  0  0  0
  146.5407   71.8161  219.6790 H   0  0  0  0  0  0  0  0  0  0  0  0
  146.8221   74.2610  219.8914 H   0  0  0  0  0  0  0  0  0  0  0  0
  144.8745   75.6301  220.5782 H   0  0  0  0  0  0  0  0  0  0  0  0
  1  2  2  0
  2  3  1  0
  3  4  1  0
  4  5  1  0
  5  6  2  0
  5  7  1  0
  7  8  1  0
  8  9  1  0
  9 10  1  0
 10 11  1  0
 11 12  1  0
 12 13  2  0
 13 14  1  0
 14 15  1  0
 15 16  1  0
 16 17  2  0
 17 18  1  0
 18 19  2  0
 19 20  1  0
 20 21  2  0
 15 22  2  0
  2 23  1  0
 23 24  2  0
 24 25  1  0
 25 26  2  0
 26 27  1  0
 27 28  2  0
 28 29  1  0
 29 30  2  0
 30 31  1  0
 31 32  2  0
 11  7  1  0
 22 12  1  0
 32 23  1  0
 21 16  1  0
 31 26  1  0
  3 33  1  0
  4 34  1  0
  4 35  1  0
  8 36  1  0
  8 37  1  0
  9 38  1  0
  9 39  1  0
 10 40  1  0
 10 41  1  0
 11 42  1  6
 13 43  1  0
 14 44  1  0
 17 45  1  0
 18 46  1  0
 19 47  1  0
 20 48  1  0
 24 49  1  0
 25 50  1  0
 27 51  1  0
 28 52  1  0
 29 53  1  0
 30 54  1  0
M  END
>  <smiles>  (19) 
O=C(NCC(=O)N1CCC[C@H]1c1c[nH]c(-c2ccccn2)n1)c1ccc2ccccc2n1

>  <score_type>  (19) 
oracle

>  <origin>  (19) 
autodockgpu

>  <m_score__min__energy>  (19) 
-9.4800000000000004

>  <m_primary>  (19) 
energy

>  <rmsd>  (19) 
6.67107726462287

>  <m_score__min__rmsd>  (19) 
6.67107726462287

>  <meeko>  (19) 
{"free_energy": -7.26, "intermolecular_energy": -9.05, "internal_energy": -3.89, "cluster_size": 25, "cluster_id": 5, "rank_in_cluster": 9}

>  <energy>  (19) 
-7.26

>  <cluster_rmsd>  (19) 
0.58

>  <cluster>  (19) 
5

$$$$

     RDKit          3D

 54 58  0  0  0  0  0  0  0  0999 V2000
  138.7240   75.4980  222.1970 O   0  0  0  0  0  0  0  0  0  0  0  0
  139.9000   75.9400  222.1550 C   0  0  0  0  0  0  0  0  0  0  0  0
  141.0120   75.1580  221.7260 N   0  0  0  0  0  0  0  0  0  0  0  0
  140.7860   73.7750  221.3130 C   0  0  0  0  0  0  0  0  0  0  0  0
  140.7390   73.7230  219.8260 C   0  0  0  0  0  0  0  0  0  0  0  0
  139.7530   73.1880  219.2540 O   0  0  0  0  0  0  0  0  0  0  0  0
  141.7960   74.2730  219.0850 N   0  0  0  0  0  0  0  0  0  0  0  0
  142.0370   74.0580  217.6490 C   0  0  0  0  0  0  0  0  0  0  0  0
  143.5510   74.1310  217.5230 C   0  0  0  0  0  0  0  0  0  0  0  0
  144.0690   74.4870  218.9010 C   0  0  0  0  0  0  0  0  0  0  0  0
  142.8510   75.1380  219.5190 C   0  0  1  0  0  0  0  0  0  0  0  0
  142.7040   76.5500  219.1310 C   0  0  0  0  0  0  0  0  0  0  0  0
  143.3210   77.0810  217.9950 C   0  0  0  0  0  0  0  0  0  0  0  0
  143.0030   78.3750  217.9120 N   0  0  0  0  0  0  0  0  0  0  0  0
  142.2090   78.6820  218.9530 C   0  0  0  0  0  0  0  0  0  0  0  0
  141.6470   80.0010  219.2190 C   0  0  0  0  0  0  0  0  0  0  0  0
  140.5820   80.1560  220.0710 C   0  0  0  0  0  0  0  0  0  0  0  0
  140.0970   81.4430  220.2790 C   0  0  0  0  0  0  0  0  0  0  0  0
  140.7010   82.4780  219.6280 C   0  0  0  0  0  0  0  0  0  0  0  0
  141.7760   82.3260  218.7680 C   0  0  0  0  0  0  0  0  0  0  0  0
  142.2160   81.0580  218.5930 N   0  0  0  0  0  0  0  0  0  0  0  0
  142.0350   77.5620  219.6890 N   0  0  0  0  0  0  0  0  0  0  0  0
  140.1530   77.3310  222.5650 C   0  0  0  0  0  0  0  0  0  0  0  0
  139.1010   78.1700  222.8760 C   0  0  0  0  0  0  0  0  0  0  0  0
  139.3190   79.4810  223.2640 C   0  0  0  0  0  0  0  0  0  0  0  0
  140.6020   79.9420  223.3360 C   0  0  0  0  0  0  0  0  0  0  0  0
  140.8830   81.2310  223.7140 C   0  0  0  0  0  0  0  0  0  0  0  0
  142.1980   81.6780  223.7800 C   0  0  0  0  0  0  0  0  0  0  0  0
  143.2380   80.8520  223.4730 C   0  0  0  0  0  0  0  0  0  0  0  0
  142.9470   79.5600  223.0950 C   0  0  0  0  0  0  0  0  0  0  0  0
  141.6480   79.0960  223.0230 C   0  0  0  0  0  0  0  0  0  0  0  0
  141.4040   77.8220  222.6480 N   0  0  0  0  0  0  0  0  0  0  0  0
  141.9570   75.6030  221.7200 H   0  0  0  0  0  0  0  0  0  0  0  0
  141.6061   73.1403  221.6799 H   0  0  0  0  0  0  0  0  0  0  0  0
  139.8366   73.4092  221.7312 H   0  0  0  0  0  0  0  0  0  0  0  0
  141.6640   73.0730  217.3318 H   0  0  0  0  0  0  0  0  0  0  0  0
  141.5204   74.7937  217.0151 H   0  0  0  0  0  0  0  0  0  0  0  0
  143.9549   73.1594  217.2023 H   0  0  0  0  0  0  0  0  0  0  0  0
  143.8570   74.8755  216.7733 H   0  0  0  0  0  0  0  0  0  0  0  0
  144.3733   73.5901  219.4605 H   0  0  0  0  0  0  0  0  0  0  0  0
  144.9649   75.1253  218.8935 H   0  0  0  0  0  0  0  0  0  0  0  0
  142.8867   75.2223  220.6152 H   0  0  0  0  0  0  0  0  0  0  0  0
  143.9591   76.5278  217.2902 H   0  0  0  0  0  0  0  0  0  0  0  0
  143.3230   79.0260  217.1620 H   0  0  0  0  0  0  0  0  0  0  0  0
  140.1265   79.2899  220.5734 H   0  0  0  0  0  0  0  0  0  0  0  0
  139.2461   81.6218  220.9529 H   0  0  0  0  0  0  0  0  0  0  0  0
  140.3116   83.4930  219.7958 H   0  0  0  0  0  0  0  0  0  0  0  0
  142.2429   83.1821  218.2591 H   0  0  0  0  0  0  0  0  0  0  0  0
  138.0707   77.7896  222.8143 H   0  0  0  0  0  0  0  0  0  0  0  0
  138.4731   80.1398  223.5100 H   0  0  0  0  0  0  0  0  0  0  0  0
  140.0608   81.9165  223.9670 H   0  0  0  0  0  0  0  0  0  0  0  0
  142.4024   82.7150  224.0849 H   0  0  0  0  0  0  0  0  0  0  0  0
  144.2780   81.2065  223.5256 H   0  0  0  0  0  0  0  0  0  0  0  0
  143.7726   78.8781  222.8432 H   0  0  0  0  0  0  0  0  0  0  0  0
  1  2  2  0
  2  3  1  0
  3  4  1  0
  4  5  1  0
  5  6  2  0
  5  7  1  0
  7  8  1  0
  8  9  1  0
  9 10  1  0
 10 11  1  0
 11 12  1  0
 12 13  2  0
 13 14  1  0
 14 15  1  0
 15 16  1  0
 16 17  2  0
 17 18  1  0
 18 19  2  0
 19 20  1  0
 20 21  2  0
 15 22  2  0
  2 23  1  0
 23 24  2  0
 24 25  1  0
 25 26  2  0
 26 27  1  0
 27 28  2  0
 28 29  1  0
 29 30  2  0
 30 31  1  0
 31 32  2  0
 11  7  1  0
 22 12  1  0
 32 23  1  0
 21 16  1  0
 31 26  1  0
  3 33  1  0
  4 34  1  0
  4 35  1  0
  8 36  1  0
  8 37  1  0
  9 38  1  0
  9 39  1  0
 10 40  1  0
 10 41  1  0
 11 42  1  1
 13 43  1  0
 14 44  1  0
 17 45  1  0
 18 46  1  0
 19 47  1  0
 20 48  1  0
 24 49  1  0
 25 50  1  0
 27 51  1  0
 28 52  1  0
 29 53  1  0
 30 54  1  0
M  END
>  <smiles>  (20) 
O=C(NCC(=O)N1CCC[C@H]1c1c[nH]c(-c2ccccn2)n1)c1ccc2ccccc2n1

>  <score_type>  (20) 
oracle

>  <origin>  (20) 
autodockgpu

>  <m_score__min__energy>  (20) 
-9.4800000000000004

>  <m_primary>  (20) 
energy

>  <rmsd>  (20) 
6.771585109309413

>  <m_score__min__rmsd>  (20) 
6.771585109309413

>  <meeko>  (20) 
{"free_energy": -7.13, "intermolecular_energy": -8.92, "internal_energy": -3.38, "cluster_size": 14, "cluster_id": 6, "rank_in_cluster": 1}

>  <energy>  (20) 
-7.25

>  <cluster_rmsd>  (20) 
0.2

>  <cluster>  (20) 
5

$$$$

     RDKit          3D

 54 58  0  0  0  0  0  0  0  0999 V2000
  139.1710   74.5530  222.3450 O   0  0  0  0  0  0  0  0  0  0  0  0
  140.1810   75.0870  221.8190 C   0  0  0  0  0  0  0  0  0  0  0  0
  140.2960   76.4910  221.6040 N   0  0  0  0  0  0  0  0  0  0  0  0
  139.1950   77.3610  222.0100 C   0  0  0  0  0  0  0  0  0  0  0  0
  139.7540   78.5110  222.7740 C   0  0  0  0  0  0  0  0  0  0  0  0
  139.1620   78.9150  223.8090 O   0  0  0  0  0  0  0  0  0  0  0  0
  140.9330   79.1260  222.3260 N   0  0  0  0  0  0  0  0  0  0  0  0
  142.2630   78.9730  222.9360 C   0  0  0  0  0  0  0  0  0  0  0  0
  142.9360   80.3120  222.6750 C   0  0  0  0  0  0  0  0  0  0  0  0
  141.9620   81.1120  221.8340 C   0  0  0  0  0  0  0  0  0  0  0  0
  141.1260   80.0130  221.2180 C   0  0  1  0  0  0  0  0  0  0  0  0
  141.7620   79.4100  220.0360 C   0  0  0  0  0  0  0  0  0  0  0  0
  142.3480   80.1810  219.0280 C   0  0  0  0  0  0  0  0  0  0  0  0
  142.8350   79.3560  218.0990 N   0  0  0  0  0  0  0  0  0  0  0  0
  142.5780   78.0920  218.4810 C   0  0  0  0  0  0  0  0  0  0  0  0
  142.9510   76.8970  217.7330 C   0  0  0  0  0  0  0  0  0  0  0  0
  142.5910   75.6480  218.1720 C   0  0  0  0  0  0  0  0  0  0  0  0
  142.9800   74.5520  217.4090 C   0  0  0  0  0  0  0  0  0  0  0  0
  143.6960   74.7750  216.2700 C   0  0  0  0  0  0  0  0  0  0  0  0
  144.0610   76.0340  215.8230 C   0  0  0  0  0  0  0  0  0  0  0  0
  143.6630   77.0720  216.5940 N   0  0  0  0  0  0  0  0  0  0  0  0
  141.9230   78.1390  219.6630 N   0  0  0  0  0  0  0  0  0  0  0  0
  141.3040   74.2310  221.4020 C   0  0  0  0  0  0  0  0  0  0  0  0
  141.1270   72.8690  221.2530 C   0  0  0  0  0  0  0  0  0  0  0  0
  142.1700   72.0490  220.8610 C   0  0  0  0  0  0  0  0  0  0  0  0
  143.3930   72.6070  220.6220 C   0  0  0  0  0  0  0  0  0  0  0  0
  144.4670   71.8460  220.2310 C   0  0  0  0  0  0  0  0  0  0  0  0
  145.7020   72.4370  219.9920 C   0  0  0  0  0  0  0  0  0  0  0  0
  145.8800   73.7810  220.1400 C   0  0  0  0  0  0  0  0  0  0  0  0
  144.7970   74.5360  220.5310 C   0  0  0  0  0  0  0  0  0  0  0  0
  143.5610   73.9690  220.7730 C   0  0  0  0  0  0  0  0  0  0  0  0
  142.5230   74.7440  221.1560 N   0  0  0  0  0  0  0  0  0  0  0  0
  141.1700   76.8540  221.1600 H   0  0  0  0  0  0  0  0  0  0  0  0
  138.6666   77.7302  221.1187 H   0  0  0  0  0  0  0  0  0  0  0  0
  138.4865   76.8015  222.6385 H   0  0  0  0  0  0  0  0  0  0  0  0
  142.1794   78.7799  224.0157 H   0  0  0  0  0  0  0  0  0  0  0  0
  142.8270   78.1245  222.5212 H   0  0  0  0  0  0  0  0  0  0  0  0
  143.1368   80.8303  223.6242 H   0  0  0  0  0  0  0  0  0  0  0  0
  143.9010   80.1848  222.1625 H   0  0  0  0  0  0  0  0  0  0  0  0
  141.3502   81.7824  222.4555 H   0  0  0  0  0  0  0  0  0  0  0  0
  142.4420   81.7764  221.1004 H   0  0  0  0  0  0  0  0  0  0  0  0
  140.1699   80.3528  220.7934 H   0  0  0  0  0  0  0  0  0  0  0  0
  142.3990   81.2796  219.0046 H   0  0  0  0  0  0  0  0  0  0  0  0
  143.3280   79.6530  217.2290 H   0  0  0  0  0  0  0  0  0  0  0  0
  142.0127   75.5174  219.0986 H   0  0  0  0  0  0  0  0  0  0  0  0
  142.7163   73.5295  217.7171 H   0  0  0  0  0  0  0  0  0  0  0  0
  144.0014   73.9042  215.6714 H   0  0  0  0  0  0  0  0  0  0  0  0
  144.6387   76.1809  214.8985 H   0  0  0  0  0  0  0  0  0  0  0  0
  140.1385   72.4284  221.4497 H   0  0  0  0  0  0  0  0  0  0  0  0
  142.0166   70.9661  220.7439 H   0  0  0  0  0  0  0  0  0  0  0  0
  144.3489   70.7595  220.1059 H   0  0  0  0  0  0  0  0  0  0  0  0
  146.5499   71.8104  219.6783 H   0  0  0  0  0  0  0  0  0  0  0  0
  146.8585   74.2474  219.9528 H   0  0  0  0  0  0  0  0  0  0  0  0
  144.9197   75.6222  220.6542 H   0  0  0  0  0  0  0  0  0  0  0  0
  1  2  2  0
  2  3  1  0
  3  4  1  0
  4  5  1  0
  5  6  2  0
  5  7  1  0
  7  8  1  0
  8  9  1  0
  9 10  1  0
 10 11  1  0
 11 12  1  0
 12 13  2  0
 13 14  1  0
 14 15  1  0
 15 16  1  0
 16 17  2  0
 17 18  1  0
 18 19  2  0
 19 20  1  0
 20 21  2  0
 15 22  2  0
  2 23  1  0
 23 24  2  0
 24 25  1  0
 25 26  2  0
 26 27  1  0
 27 28  2  0
 28 29  1  0
 29 30  2  0
 30 31  1  0
 31 32  2  0
 11  7  1  0
 22 12  1  0
 32 23  1  0
 21 16  1  0
 31 26  1  0
  3 33  1  0
  4 34  1  0
  4 35  1  0
  8 36  1  0
  8 37  1  0
  9 38  1  0
  9 39  1  0
 10 40  1  0
 10 41  1  0
 11 42  1  6
 13 43  1  0
 14 44  1  0
 17 45  1  0
 18 46  1  0
 19 47  1  0
 20 48  1  0
 24 49  1  0
 25 50  1  0
 27 51  1  0
 28 52  1  0
 29 53  1  0
 30 54  1  0
M  END
>  <smiles>  (21) 
O=C(NCC(=O)N1CCC[C@H]1c1c[nH]c(-c2ccccn2)n1)c1ccc2ccccc2n1

>  <score_type>  (21) 
oracle

>  <origin>  (21) 
autodockgpu

>  <m_score__min__energy>  (21) 
-9.4800000000000004

>  <m_primary>  (21) 
energy

>  <rmsd>  (21) 
6.723805450641622

>  <m_score__min__rmsd>  (21) 
6.723805450641622

>  <meeko>  (21) 
{"free_energy": -7.38, "intermolecular_energy": -9.17, "internal_energy": -3.88, "cluster_size": 25, "cluster_id": 5, "rank_in_cluster": 4}

>  <energy>  (21) 
-7.24

>  <cluster_rmsd>  (21) 
0.55

>  <cluster>  (21) 
5

$$$$

     RDKit          3D

 54 58  0  0  0  0  0  0  0  0999 V2000
  139.2010   74.5680  222.3090 O   0  0  0  0  0  0  0  0  0  0  0  0
  140.1900   75.1020  221.7440 C   0  0  0  0  0  0  0  0  0  0  0  0
  140.2820   76.5020  221.4950 N   0  0  0  0  0  0  0  0  0  0  0  0
  139.1820   77.3690  221.9110 C   0  0  0  0  0  0  0  0  0  0  0  0
  139.7390   78.4930  222.7130 C   0  0  0  0  0  0  0  0  0  0  0  0
  139.1750   78.8280  223.7890 O   0  0  0  0  0  0  0  0  0  0  0  0
  140.8840   79.1630  222.2560 N   0  0  0  0  0  0  0  0  0  0  0  0
  142.2200   79.0860  222.8660 C   0  0  0  0  0  0  0  0  0  0  0  0
  142.8230   80.4550  222.5870 C   0  0  0  0  0  0  0  0  0  0  0  0
  141.8090   81.1930  221.7380 C   0  0  0  0  0  0  0  0  0  0  0  0
  141.0300   80.0440  221.1370 C   0  0  1  0  0  0  0  0  0  0  0  0
  141.6950   79.4610  219.9610 C   0  0  0  0  0  0  0  0  0  0  0  0
  142.2930   80.2480  218.9730 C   0  0  0  0  0  0  0  0  0  0  0  0
  142.8060   79.4380  218.0450 N   0  0  0  0  0  0  0  0  0  0  0  0
  142.5550   78.1670  218.4090 C   0  0  0  0  0  0  0  0  0  0  0  0
  142.9550   76.9840  217.6560 C   0  0  0  0  0  0  0  0  0  0  0  0
  142.7030   75.7230  218.1360 C   0  0  0  0  0  0  0  0  0  0  0  0
  143.1120   74.6400  217.3650 C   0  0  0  0  0  0  0  0  0  0  0  0
  143.7390   74.8860  216.1810 C   0  0  0  0  0  0  0  0  0  0  0  0
  143.9950   76.1560  215.6920 C   0  0  0  0  0  0  0  0  0  0  0  0
  143.5820   77.1820  216.4720 N   0  0  0  0  0  0  0  0  0  0  0  0
  141.8770   78.1950  219.5780 N   0  0  0  0  0  0  0  0  0  0  0  0
  141.3110   74.2500  221.3160 C   0  0  0  0  0  0  0  0  0  0  0  0
  141.1230   72.8970  221.1110 C   0  0  0  0  0  0  0  0  0  0  0  0
  142.1650   72.0810  220.7080 C   0  0  0  0  0  0  0  0  0  0  0  0
  143.3980   72.6330  220.5130 C   0  0  0  0  0  0  0  0  0  0  0  0
  144.4710   71.8760  220.1140 C   0  0  0  0  0  0  0  0  0  0  0  0
  145.7170   72.4620  219.9210 C   0  0  0  0  0  0  0  0  0  0  0  0
  145.9050   73.7970  220.1230 C   0  0  0  0  0  0  0  0  0  0  0  0
  144.8240   74.5490  220.5220 C   0  0  0  0  0  0  0  0  0  0  0  0
  143.5770   73.9870  220.7200 C   0  0  0  0  0  0  0  0  0  0  0  0
  142.5410   74.7590  221.1130 N   0  0  0  0  0  0  0  0  0  0  0  0
  141.1390   76.8650  221.0200 H   0  0  0  0  0  0  0  0  0  0  0  0
  138.6677   77.7664  221.0236 H   0  0  0  0  0  0  0  0  0  0  0  0
  138.4616   76.7978  222.5150 H   0  0  0  0  0  0  0  0  0  0  0  0
  142.1472   78.9025  223.9481 H   0  0  0  0  0  0  0  0  0  0  0  0
  142.8266   78.2624  222.4615 H   0  0  0  0  0  0  0  0  0  0  0  0
  142.9977   80.9949  223.5294 H   0  0  0  0  0  0  0  0  0  0  0  0
  143.7927   80.3711  222.0745 H   0  0  0  0  0  0  0  0  0  0  0  0
  141.1640   81.8388  222.3520 H   0  0  0  0  0  0  0  0  0  0  0  0
  142.2534   81.8721  220.9955 H   0  0  0  0  0  0  0  0  0  0  0  0
  140.0568   80.3276  220.7098 H   0  0  0  0  0  0  0  0  0  0  0  0
  142.3338   81.3472  218.9622 H   0  0  0  0  0  0  0  0  0  0  0  0
  143.3130   79.7490  217.1880 H   0  0  0  0  0  0  0  0  0  0  0  0
  142.1939   75.5737  219.0996 H   0  0  0  0  0  0  0  0  0  0  0  0
  142.9333   73.6088  217.7035 H   0  0  0  0  0  0  0  0  0  0  0  0
  144.0611   74.0246  215.5774 H   0  0  0  0  0  0  0  0  0  0  0  0
  144.5022   76.3206  214.7299 H   0  0  0  0  0  0  0  0  0  0  0  0
  140.1262   72.4602  221.2711 H   0  0  0  0  0  0  0  0  0  0  0  0
  142.0025   71.0050  220.5474 H   0  0  0  0  0  0  0  0  0  0  0  0
  144.3441   70.7964  219.9454 H   0  0  0  0  0  0  0  0  0  0  0  0
  146.5645   71.8385  219.6002 H   0  0  0  0  0  0  0  0  0  0  0  0
  146.8916   74.2593  219.9715 H   0  0  0  0  0  0  0  0  0  0  0  0
  144.9561   75.6283  220.6881 H   0  0  0  0  0  0  0  0  0  0  0  0
  1  2  2  0
  2  3  1  0
  3  4  1  0
  4  5  1  0
  5  6  2  0
  5  7  1  0
  7  8  1  0
  8  9  1  0
  9 10  1  0
 10 11  1  0
 11 12  1  0
 12 13  2  0
 13 14  1  0
 14 15  1  0
 15 16  1  0
 16 17  2  0
 17 18  1  0
 18 19  2  0
 19 20  1  0
 20 21  2  0
 15 22  2  0
  2 23  1  0
 23 24  2  0
 24 25  1  0
 25 26  2  0
 26 27  1  0
 27 28  2  0
 28 29  1  0
 29 30  2  0
 30 31  1  0
 31 32  2  0
 11  7  1  0
 22 12  1  0
 32 23  1  0
 21 16  1  0
 31 26  1  0
  3 33  1  0
  4 34  1  0
  4 35  1  0
  8 36  1  0
  8 37  1  0
  9 38  1  0
  9 39  1  0
 10 40  1  0
 10 41  1  0
 11 42  1  6
 13 43  1  0
 14 44  1  0
 17 45  1  0
 18 46  1  0
 19 47  1  0
 20 48  1  0
 24 49  1  0
 25 50  1  0
 27 51  1  0
 28 52  1  0
 29 53  1  0
 30 54  1  0
M  END
>  <smiles>  (22) 
O=C(NCC(=O)N1CCC[C@H]1c1c[nH]c(-c2ccccn2)n1)c1ccc2ccccc2n1

>  <score_type>  (22) 
oracle

>  <origin>  (22) 
autodockgpu

>  <m_score__min__energy>  (22) 
-9.4800000000000004

>  <m_primary>  (22) 
energy

>  <rmsd>  (22) 
6.737333991657456

>  <m_score__min__rmsd>  (22) 
6.737333991657456

>  <meeko>  (22) 
{"free_energy": -7.41, "intermolecular_energy": -9.2, "internal_energy": -3.81, "cluster_size": 25, "cluster_id": 5, "rank_in_cluster": 2}

>  <energy>  (22) 
-7.14

>  <cluster_rmsd>  (22) 
0.41

>  <cluster>  (22) 
5

$$$$

     RDKit          3D

 54 58  0  0  0  0  0  0  0  0999 V2000
  138.8390   74.7730  222.2890 O   0  0  0  0  0  0  0  0  0  0  0  0
  139.9380   75.2830  221.9490 C   0  0  0  0  0  0  0  0  0  0  0  0
  140.1690   76.6890  221.9230 N   0  0  0  0  0  0  0  0  0  0  0  0
  139.0860   77.5910  222.3070 C   0  0  0  0  0  0  0  0  0  0  0  0
  139.6770   78.8040  222.9360 C   0  0  0  0  0  0  0  0  0  0  0  0
  139.0680   79.3740  223.8800 O   0  0  0  0  0  0  0  0  0  0  0  0
  140.9050   79.2940  222.4660 N   0  0  0  0  0  0  0  0  0  0  0  0
  142.2170   79.0480  223.0820 C   0  0  0  0  0  0  0  0  0  0  0  0
  143.0060   80.3100  222.7690 C   0  0  0  0  0  0  0  0  0  0  0  0
  142.1060   81.1590  221.8950 C   0  0  0  0  0  0  0  0  0  0  0  0
  141.1740   80.1150  221.3230 C   0  0  1  0  0  0  0  0  0  0  0  0
  141.7500   79.4110  220.1670 C   0  0  0  0  0  0  0  0  0  0  0  0
  142.3840   80.0870  219.1210 C   0  0  0  0  0  0  0  0  0  0  0  0
  142.7980   79.1850  218.2280 N   0  0  0  0  0  0  0  0  0  0  0  0
  142.4490   77.9640  218.6710 C   0  0  0  0  0  0  0  0  0  0  0  0
  142.7220   76.7100  217.9770 C   0  0  0  0  0  0  0  0  0  0  0  0
  141.9710   75.5880  218.2240 C   0  0  0  0  0  0  0  0  0  0  0  0
  142.2870   74.4270  217.5270 C   0  0  0  0  0  0  0  0  0  0  0  0
  143.3210   74.4630  216.6390 C   0  0  0  0  0  0  0  0  0  0  0  0
  144.0810   75.5930  216.3860 C   0  0  0  0  0  0  0  0  0  0  0  0
  143.7410   76.7010  217.0850 N   0  0  0  0  0  0  0  0  0  0  0  0
  141.8100   78.1150  219.8520 N   0  0  0  0  0  0  0  0  0  0  0  0
  141.0450   74.3950  221.5580 C   0  0  0  0  0  0  0  0  0  0  0  0
  140.8730   73.0250  221.5530 C   0  0  0  0  0  0  0  0  0  0  0  0
  141.9020   72.1740  221.1880 C   0  0  0  0  0  0  0  0  0  0  0  0
  143.1040   72.7110  220.8290 C   0  0  0  0  0  0  0  0  0  0  0  0
  144.1630   71.9200  220.4570 C   0  0  0  0  0  0  0  0  0  0  0  0
  145.3780   72.4890  220.0940 C   0  0  0  0  0  0  0  0  0  0  0  0
  145.5500   73.8420  220.0980 C   0  0  0  0  0  0  0  0  0  0  0  0
  144.4830   74.6280  220.4710 C   0  0  0  0  0  0  0  0  0  0  0  0
  143.2670   74.0820  220.8360 C   0  0  0  0  0  0  0  0  0  0  0  0
  142.2440   74.8870  221.1970 N   0  0  0  0  0  0  0  0  0  0  0  0
  141.1110   77.0310  221.6280 H   0  0  0  0  0  0  0  0  0  0  0  0
  138.5104   77.8794  221.4151 H   0  0  0  0  0  0  0  0  0  0  0  0
  138.4139   77.0889  223.0185 H   0  0  0  0  0  0  0  0  0  0  0  0
  142.1196   78.9059  224.1684 H   0  0  0  0  0  0  0  0  0  0  0  0
  142.7021   78.1371  222.7012 H   0  0  0  0  0  0  0  0  0  0  0  0
  143.2537   80.8460  223.6971 H   0  0  0  0  0  0  0  0  0  0  0  0
  143.9550   80.0770  222.2638 H   0  0  0  0  0  0  0  0  0  0  0  0
  141.5579   81.9061  222.4879 H   0  0  0  0  0  0  0  0  0  0  0  0
  142.6419   81.7476  221.1358 H   0  0  0  0  0  0  0  0  0  0  0  0
  140.2509   80.5213  220.8839 H   0  0  0  0  0  0  0  0  0  0  0  0
  142.5189   81.1761  219.0462 H   0  0  0  0  0  0  0  0  0  0  0  0
  143.3040   79.4030  217.3430 H   0  0  0  0  0  0  0  0  0  0  0  0
  141.1452   75.6066  218.9504 H   0  0  0  0  0  0  0  0  0  0  0  0
  141.7159   73.5008  217.6883 H   0  0  0  0  0  0  0  0  0  0  0  0
  143.5659   73.5409  216.0916 H   0  0  0  0  0  0  0  0  0  0  0  0
  144.9092   75.5901  215.6621 H   0  0  0  0  0  0  0  0  0  0  0  0
  139.9003   72.6020  221.8444 H   0  0  0  0  0  0  0  0  0  0  0  0
  141.7533   71.0841  221.1874 H   0  0  0  0  0  0  0  0  0  0  0  0
  144.0487   70.8260  220.4462 H   0  0  0  0  0  0  0  0  0  0  0  0
  146.2140   71.8379  219.7988 H   0  0  0  0  0  0  0  0  0  0  0  0
  146.5123   74.2917  219.8119 H   0  0  0  0  0  0  0  0  0  0  0  0
  144.6017   75.7215  220.4787 H   0  0  0  0  0  0  0  0  0  0  0  0
  1  2  2  0
  2  3  1  0
  3  4  1  0
  4  5  1  0
  5  6  2  0
  5  7  1  0
  7  8  1  0
  8  9  1  0
  9 10  1  0
 10 11  1  0
 11 12  1  0
 12 13  2  0
 13 14  1  0
 14 15  1  0
 15 16  1  0
 16 17  2  0
 17 18  1  0
 18 19  2  0
 19 20  1  0
 20 21  2  0
 15 22  2  0
  2 23  1  0
 23 24  2  0
 24 25  1  0
 25 26  2  0
 26 27  1  0
 27 28  2  0
 28 29  1  0
 29 30  2  0
 30 31  1  0
 31 32  2  0
 11  7  1  0
 22 12  1  0
 32 23  1  0
 21 16  1  0
 31 26  1  0
  3 33  1  0
  4 34  1  0
  4 35  1  0
  8 36  1  0
  8 37  1  0
  9 38  1  0
  9 39  1  0
 10 40  1  0
 10 41  1  0
 11 42  1  6
 13 43  1  0
 14 44  1  0
 17 45  1  0
 18 46  1  0
 19 47  1  0
 20 48  1  0
 24 49  1  0
 25 50  1  0
 27 51  1  0
 28 52  1  0
 29 53  1  0
 30 54  1  0
M  END
>  <smiles>  (23) 
O=C(NCC(=O)N1CCC[C@H]1c1c[nH]c(-c2ccccn2)n1)c1ccc2ccccc2n1

>  <score_type>  (23) 
oracle

>  <origin>  (23) 
autodockgpu

>  <m_score__min__energy>  (23) 
-9.4800000000000004

>  <m_primary>  (23) 
energy

>  <rmsd>  (23) 
6.704862369733524

>  <m_score__min__rmsd>  (23) 
6.704862369733524

>  <meeko>  (23) 
{"free_energy": -7.1, "intermolecular_energy": -8.89, "internal_energy": -4.1, "cluster_size": 25, "cluster_id": 5, "rank_in_cluster": 17}

>  <energy>  (23) 
-7.13

>  <cluster_rmsd>  (23) 
0.61

>  <cluster>  (23) 
5

$$$$

     RDKit          3D

 54 58  0  0  0  0  0  0  0  0999 V2000
  139.1550   74.5700  222.2010 O   0  0  0  0  0  0  0  0  0  0  0  0
  140.1950   75.1040  221.7380 C   0  0  0  0  0  0  0  0  0  0  0  0
  140.3470   76.5130  221.5890 N   0  0  0  0  0  0  0  0  0  0  0  0
  139.2480   77.3890  221.9870 C   0  0  0  0  0  0  0  0  0  0  0  0
  139.8090   78.5440  222.7420 C   0  0  0  0  0  0  0  0  0  0  0  0
  139.2550   78.9160  223.8100 O   0  0  0  0  0  0  0  0  0  0  0  0
  140.9480   79.1990  222.2500 N   0  0  0  0  0  0  0  0  0  0  0  0
  142.2900   79.1490  222.8490 C   0  0  0  0  0  0  0  0  0  0  0  0
  142.8860   80.5080  222.5140 C   0  0  0  0  0  0  0  0  0  0  0  0
  141.8620   81.2120  221.6480 C   0  0  0  0  0  0  0  0  0  0  0  0
  141.0800   80.0390  221.0970 C   0  0  1  0  0  0  0  0  0  0  0  0
  141.7360   79.4140  219.9380 C   0  0  0  0  0  0  0  0  0  0  0  0
  142.3500   80.1660  218.9320 C   0  0  0  0  0  0  0  0  0  0  0  0
  142.8490   79.3230  218.0250 N   0  0  0  0  0  0  0  0  0  0  0  0
  142.5740   78.0670  218.4200 C   0  0  0  0  0  0  0  0  0  0  0  0
  142.9530   76.8580  217.6970 C   0  0  0  0  0  0  0  0  0  0  0  0
  142.5310   75.6220  218.1180 C   0  0  0  0  0  0  0  0  0  0  0  0
  142.9300   74.5120  217.3810 C   0  0  0  0  0  0  0  0  0  0  0  0
  143.7160   74.7090  216.2850 C   0  0  0  0  0  0  0  0  0  0  0  0
  144.1440   75.9540  215.8560 C   0  0  0  0  0  0  0  0  0  0  0  0
  143.7340   77.0070  216.6010 N   0  0  0  0  0  0  0  0  0  0  0  0
  141.8950   78.1360  219.5860 N   0  0  0  0  0  0  0  0  0  0  0  0
  141.3170   74.2420  221.3300 C   0  0  0  0  0  0  0  0  0  0  0  0
  141.1360   72.8810  221.1860 C   0  0  0  0  0  0  0  0  0  0  0  0
  142.1790   72.0550  220.8020 C   0  0  0  0  0  0  0  0  0  0  0  0
  143.4040   72.6080  220.5650 C   0  0  0  0  0  0  0  0  0  0  0  0
  144.4770   71.8420  220.1830 C   0  0  0  0  0  0  0  0  0  0  0  0
  145.7150   72.4280  219.9460 C   0  0  0  0  0  0  0  0  0  0  0  0
  145.8970   73.7710  220.0880 C   0  0  0  0  0  0  0  0  0  0  0  0
  144.8150   74.5320  220.4710 C   0  0  0  0  0  0  0  0  0  0  0  0
  143.5760   73.9700  220.7110 C   0  0  0  0  0  0  0  0  0  0  0  0
  142.5390   74.7510  221.0870 N   0  0  0  0  0  0  0  0  0  0  0  0
  141.2450   76.8760  221.1960 H   0  0  0  0  0  0  0  0  0  0  0  0
  138.7211   77.7521  221.0923 H   0  0  0  0  0  0  0  0  0  0  0  0
  138.5378   76.8364  222.6196 H   0  0  0  0  0  0  0  0  0  0  0  0
  142.2283   79.0055  223.9379 H   0  0  0  0  0  0  0  0  0  0  0  0
  142.8953   78.3129  222.4688 H   0  0  0  0  0  0  0  0  0  0  0  0
  143.0680   81.0827  223.4341 H   0  0  0  0  0  0  0  0  0  0  0  0
  143.8509   80.4076  221.9955 H   0  0  0  0  0  0  0  0  0  0  0  0
  141.2212   81.8785  222.2439 H   0  0  0  0  0  0  0  0  0  0  0  0
  142.2975   81.8643  220.8767 H   0  0  0  0  0  0  0  0  0  0  0  0
  140.1021   80.3044  220.6689 H   0  0  0  0  0  0  0  0  0  0  0  0
  142.4114   81.2636  218.8943 H   0  0  0  0  0  0  0  0  0  0  0  0
  143.3630   79.6030  217.1610 H   0  0  0  0  0  0  0  0  0  0  0  0
  141.8971   75.5125  219.0103 H   0  0  0  0  0  0  0  0  0  0  0  0
  142.6185   73.4990  217.6757 H   0  0  0  0  0  0  0  0  0  0  0  0
  144.0288   73.8268  215.7072 H   0  0  0  0  0  0  0  0  0  0  0  0
  144.7775   76.0794  214.9655 H   0  0  0  0  0  0  0  0  0  0  0  0
  140.1450   72.4447  221.3799 H   0  0  0  0  0  0  0  0  0  0  0  0
  142.0229   70.9719  220.6899 H   0  0  0  0  0  0  0  0  0  0  0  0
  144.3562   70.7552  220.0634 H   0  0  0  0  0  0  0  0  0  0  0  0
  146.5620   71.7970  219.6387 H   0  0  0  0  0  0  0  0  0  0  0  0
  146.8779   74.2330  219.9024 H   0  0  0  0  0  0  0  0  0  0  0  0
  144.9409   75.6184  220.5892 H   0  0  0  0  0  0  0  0  0  0  0  0
  1  2  2  0
  2  3  1  0
  3  4  1  0
  4  5  1  0
  5  6  2  0
  5  7  1  0
  7  8  1  0
  8  9  1  0
  9 10  1  0
 10 11  1  0
 11 12  1  0
 12 13  2  0
 13 14  1  0
 14 15  1  0
 15 16  1  0
 16 17  2  0
 17 18  1  0
 18 19  2  0
 19 20  1  0
 20 21  2  0
 15 22  2  0
  2 23  1  0
 23 24  2  0
 24 25  1  0
 25 26  2  0
 26 27  1  0
 27 28  2  0
 28 29  1  0
 29 30  2  0
 30 31  1  0
 31 32  2  0
 11  7  1  0
 22 12  1  0
 32 23  1  0
 21 16  1  0
 31 26  1  0
  3 33  1  0
  4 34  1  0
  4 35  1  0
  8 36  1  0
  8 37  1  0
  9 38  1  0
  9 39  1  0
 10 40  1  0
 10 41  1  0
 11 42  1  6
 13 43  1  0
 14 44  1  0
 17 45  1  0
 18 46  1  0
 19 47  1  0
 20 48  1  0
 24 49  1  0
 25 50  1  0
 27 51  1  0
 28 52  1  0
 29 53  1  0
 30 54  1  0
M  END
>  <smiles>  (24) 
O=C(NCC(=O)N1CCC[C@H]1c1c[nH]c(-c2ccccn2)n1)c1ccc2ccccc2n1

>  <score_type>  (24) 
oracle

>  <origin>  (24) 
autodockgpu

>  <m_score__min__energy>  (24) 
-9.4800000000000004

>  <m_primary>  (24) 
energy

>  <rmsd>  (24) 
6.754501277755347

>  <m_score__min__rmsd>  (24) 
6.754501277755347

>  <meeko>  (24) 
{"free_energy": -7.35, "intermolecular_energy": -9.14, "internal_energy": -3.9, "cluster_size": 25, "cluster_id": 5, "rank_in_cluster": 5}

>  <energy>  (24) 
-7.13

>  <cluster_rmsd>  (24) 
0.65

>  <cluster>  (24) 
5

$$$$

     RDKit          3D

 54 58  0  0  0  0  0  0  0  0999 V2000
  137.5610   75.8960  222.5020 O   0  0  0  0  0  0  0  0  0  0  0  0
  138.8030   76.0910  222.4560 C   0  0  0  0  0  0  0  0  0  0  0  0
  139.7430   75.0610  222.1630 N   0  0  0  0  0  0  0  0  0  0  0  0
  139.2530   73.7090  221.9020 C   0  0  0  0  0  0  0  0  0  0  0  0
  140.4200   72.8210  221.6440 C   0  0  0  0  0  0  0  0  0  0  0  0
  140.5690   71.7770  222.3320 O   0  0  0  0  0  0  0  0  0  0  0  0
  141.3350   73.1630  220.6380 N   0  0  0  0  0  0  0  0  0  0  0  0
  141.1780   72.8760  219.2040 C   0  0  0  0  0  0  0  0  0  0  0  0
  142.6060   72.6840  218.7150 C   0  0  0  0  0  0  0  0  0  0  0  0
  143.4980   72.9790  219.9040 C   0  0  0  0  0  0  0  0  0  0  0  0
  142.5900   73.8440  220.7500 C   0  0  1  0  0  0  0  0  0  0  0  0
  142.5810   75.2510  220.3180 C   0  0  0  0  0  0  0  0  0  0  0  0
  143.6900   75.8550  219.7190 C   0  0  0  0  0  0  0  0  0  0  0  0
  143.3770   77.1240  219.4430 N   0  0  0  0  0  0  0  0  0  0  0  0
  142.1130   77.3430  219.8460 C   0  0  0  0  0  0  0  0  0  0  0  0
  141.4010   78.6100  219.7210 C   0  0  0  0  0  0  0  0  0  0  0  0
  140.0300   78.6460  219.6590 C   0  0  0  0  0  0  0  0  0  0  0  0
  139.4170   79.8890  219.5390 C   0  0  0  0  0  0  0  0  0  0  0  0
  140.2050   81.0000  219.4890 C   0  0  0  0  0  0  0  0  0  0  0  0
  141.5880   80.9680  219.5520 C   0  0  0  0  0  0  0  0  0  0  0  0
  142.1450   79.7400  219.6680 N   0  0  0  0  0  0  0  0  0  0  0  0
  141.6390   76.1950  220.3780 N   0  0  0  0  0  0  0  0  0  0  0  0
  139.3210   77.4450  222.7140 C   0  0  0  0  0  0  0  0  0  0  0  0
  138.4530   78.5040  222.8870 C   0  0  0  0  0  0  0  0  0  0  0  0
  138.9220   79.7830  223.1320 C   0  0  0  0  0  0  0  0  0  0  0  0
  140.2690   79.9890  223.2010 C   0  0  0  0  0  0  0  0  0  0  0  0
  140.7960   81.2340  223.4400 C   0  0  0  0  0  0  0  0  0  0  0  0
  142.1720   81.4190  223.5060 C   0  0  0  0  0  0  0  0  0  0  0  0
  143.0310   80.3750  223.3350 C   0  0  0  0  0  0  0  0  0  0  0  0
  142.4950   79.1300  223.0960 C   0  0  0  0  0  0  0  0  0  0  0  0
  141.1300   78.9240  223.0260 C   0  0  0  0  0  0  0  0  0  0  0  0
  140.6430   77.6870  222.7890 N   0  0  0  0  0  0  0  0  0  0  0  0
  140.7580   75.3080  222.1440 H   0  0  0  0  0  0  0  0  0  0  0  0
  138.6946   73.3423  222.7759 H   0  0  0  0  0  0  0  0  0  0  0  0
  138.5849   73.7142  221.0281 H   0  0  0  0  0  0  0  0  0  0  0  0
  140.5846   71.9628  219.0496 H   0  0  0  0  0  0  0  0  0  0  0  0
  140.6472   73.6749  218.6654 H   0  0  0  0  0  0  0  0  0  0  0  0
  142.7566   71.6499  218.3715 H   0  0  0  0  0  0  0  0  0  0  0  0
  142.8337   73.3460  217.8665 H   0  0  0  0  0  0  0  0  0  0  0  0
  143.7824   72.0570  220.4323 H   0  0  0  0  0  0  0  0  0  0  0  0
  144.4552   73.4533  219.6417 H   0  0  0  0  0  0  0  0  0  0  0  0
  142.9076   73.9469  221.7981 H   0  0  0  0  0  0  0  0  0  0  0  0
  144.6546   75.3690  219.5107 H   0  0  0  0  0  0  0  0  0  0  0  0
  144.0140   77.8160  218.9920 H   0  0  0  0  0  0  0  0  0  0  0  0
  139.4353   77.7217  219.7028 H   0  0  0  0  0  0  0  0  0  0  0  0
  138.3215   79.9733  219.4857 H   0  0  0  0  0  0  0  0  0  0  0  0
  139.7136   81.9794  219.3930 H   0  0  0  0  0  0  0  0  0  0  0  0
  142.1960   81.8837  219.5104 H   0  0  0  0  0  0  0  0  0  0  0  0
  137.3687   78.3284  222.8291 H   0  0  0  0  0  0  0  0  0  0  0  0
  138.2206   80.6192  223.2688 H   0  0  0  0  0  0  0  0  0  0  0  0
  140.1232   82.0929  223.5805 H   0  0  0  0  0  0  0  0  0  0  0  0
  142.5741   82.4244  223.6994 H   0  0  0  0  0  0  0  0  0  0  0  0
  144.1198   80.5228  223.3864 H   0  0  0  0  0  0  0  0  0  0  0  0
  143.1723   78.2745  222.9567 H   0  0  0  0  0  0  0  0  0  0  0  0
  1  2  2  0
  2  3  1  0
  3  4  1  0
  4  5  1  0
  5  6  2  0
  5  7  1  0
  7  8  1  0
  8  9  1  0
  9 10  1  0
 10 11  1  0
 11 12  1  0
 12 13  2  0
 13 14  1  0
 14 15  1  0
 15 16  1  0
 16 17  2  0
 17 18  1  0
 18 19  2  0
 19 20  1  0
 20 21  2  0
 15 22  2  0
  2 23  1  0
 23 24  2  0
 24 25  1  0
 25 26  2  0
 26 27  1  0
 27 28  2  0
 28 29  1  0
 29 30  2  0
 30 31  1  0
 31 32  2  0
 11  7  1  0
 22 12  1  0
 32 23  1  0
 21 16  1  0
 31 26  1  0
  3 33  1  0
  4 34  1  0
  4 35  1  0
  8 36  1  0
  8 37  1  0
  9 38  1  0
  9 39  1  0
 10 40  1  0
 10 41  1  0
 11 42  1  1
 13 43  1  0
 14 44  1  0
 17 45  1  0
 18 46  1  0
 19 47  1  0
 20 48  1  0
 24 49  1  0
 25 50  1  0
 27 51  1  0
 28 52  1  0
 29 53  1  0
 30 54  1  0
M  END
>  <smiles>  (25) 
O=C(NCC(=O)N1CCC[C@H]1c1c[nH]c(-c2ccccn2)n1)c1ccc2ccccc2n1

>  <score_type>  (25) 
oracle

>  <origin>  (25) 
autodockgpu

>  <m_score__min__energy>  (25) 
-9.4800000000000004

>  <m_primary>  (25) 
energy

>  <rmsd>  (25) 
6.833885652517849

>  <m_score__min__rmsd>  (25) 
6.833885652517849

>  <meeko>  (25) 
{"free_energy": -6.55, "intermolecular_energy": -8.33, "internal_energy": -4.51, "cluster_size": 14, "cluster_id": 6, "rank_in_cluster": 13}

>  <energy>  (25) 
-7.13

>  <cluster_rmsd>  (25) 
0.66

>  <cluster>  (25) 
5

$$$$

     RDKit          3D

 54 58  0  0  0  0  0  0  0  0999 V2000
  138.1990   75.7050  222.3620 O   0  0  0  0  0  0  0  0  0  0  0  0
  139.4130   76.0320  222.3200 C   0  0  0  0  0  0  0  0  0  0  0  0
  140.4470   75.1400  221.9120 N   0  0  0  0  0  0  0  0  0  0  0  0
  140.0910   73.7780  221.5200 C   0  0  0  0  0  0  0  0  0  0  0  0
  141.3410   73.0320  221.2050 C   0  0  0  0  0  0  0  0  0  0  0  0
  141.5700   71.9340  221.7780 O   0  0  0  0  0  0  0  0  0  0  0  0
  142.2440   73.5650  220.2730 N   0  0  0  0  0  0  0  0  0  0  0  0
  142.3350   73.1860  218.8550 C   0  0  0  0  0  0  0  0  0  0  0  0
  143.8090   73.3670  218.5260 C   0  0  0  0  0  0  0  0  0  0  0  0
  144.4480   73.9420  219.7730 C   0  0  0  0  0  0  0  0  0  0  0  0
  143.2530   74.5650  220.4610 C   0  0  1  0  0  0  0  0  0  0  0  0
  142.9230   75.8970  219.9300 C   0  0  0  0  0  0  0  0  0  0  0  0
  143.4230   76.3590  218.7100 C   0  0  0  0  0  0  0  0  0  0  0  0
  142.9510   77.5910  218.5040 N   0  0  0  0  0  0  0  0  0  0  0  0
  142.1720   77.9240  219.5480 C   0  0  0  0  0  0  0  0  0  0  0  0
  141.4700   79.1940  219.7000 C   0  0  0  0  0  0  0  0  0  0  0  0
  142.1500   80.3850  219.6690 C   0  0  0  0  0  0  0  0  0  0  0  0
  141.4170   81.5570  219.8200 C   0  0  0  0  0  0  0  0  0  0  0  0
  140.0680   81.4620  219.9910 C   0  0  0  0  0  0  0  0  0  0  0  0
  139.3770   80.2620  220.0230 C   0  0  0  0  0  0  0  0  0  0  0  0
  140.1270   79.1460  219.8720 N   0  0  0  0  0  0  0  0  0  0  0  0
  142.1630   76.8840  220.4110 N   0  0  0  0  0  0  0  0  0  0  0  0
  139.7960   77.3990  222.7090 C   0  0  0  0  0  0  0  0  0  0  0  0
  138.8310   78.3250  223.0520 C   0  0  0  0  0  0  0  0  0  0  0  0
  139.1720   79.6150  223.4210 C   0  0  0  0  0  0  0  0  0  0  0  0
  140.4900   79.9670  223.4420 C   0  0  0  0  0  0  0  0  0  0  0  0
  140.8920   81.2300  223.7980 C   0  0  0  0  0  0  0  0  0  0  0  0
  142.2410   81.5650  223.8140 C   0  0  0  0  0  0  0  0  0  0  0  0
  143.1960   80.6540  223.4760 C   0  0  0  0  0  0  0  0  0  0  0  0
  142.7850   79.3890  223.1200 C   0  0  0  0  0  0  0  0  0  0  0  0
  141.4490   79.0350  223.0980 C   0  0  0  0  0  0  0  0  0  0  0  0
  141.0860   77.7830  222.7430 N   0  0  0  0  0  0  0  0  0  0  0  0
  141.4310   75.4920  221.9050 H   0  0  0  0  0  0  0  0  0  0  0  0
  139.5611   73.2812  222.3461 H   0  0  0  0  0  0  0  0  0  0  0  0
  139.4344   73.8004  220.6378 H   0  0  0  0  0  0  0  0  0  0  0  0
  142.0260   72.1406  218.7080 H   0  0  0  0  0  0  0  0  0  0  0  0
  141.6778   73.7880  218.2103 H   0  0  0  0  0  0  0  0  0  0  0  0
  144.2660   72.3986  218.2742 H   0  0  0  0  0  0  0  0  0  0  0  0
  143.9498   74.0295  217.6592 H   0  0  0  0  0  0  0  0  0  0  0  0
  144.9030   73.1544  220.3916 H   0  0  0  0  0  0  0  0  0  0  0  0
  145.2694   74.6459  219.5735 H   0  0  0  0  0  0  0  0  0  0  0  0
  143.4089   74.7947  221.5254 H   0  0  0  0  0  0  0  0  0  0  0  0
  144.0907   75.8034  218.0352 H   0  0  0  0  0  0  0  0  0  0  0  0
  143.1590   78.1830  217.6700 H   0  0  0  0  0  0  0  0  0  0  0  0
  143.2407   80.4121  219.5291 H   0  0  0  0  0  0  0  0  0  0  0  0
  141.9143   82.5380  219.8019 H   0  0  0  0  0  0  0  0  0  0  0  0
  139.4945   82.3930  220.1106 H   0  0  0  0  0  0  0  0  0  0  0  0
  138.2867   80.2190  220.1624 H   0  0  0  0  0  0  0  0  0  0  0  0
  137.7709   78.0321  223.0317 H   0  0  0  0  0  0  0  0  0  0  0  0
  138.3939   80.3435  223.6926 H   0  0  0  0  0  0  0  0  0  0  0  0
  140.1399   81.9841  224.0732 H   0  0  0  0  0  0  0  0  0  0  0  0
  142.5424   82.5823  224.1043 H   0  0  0  0  0  0  0  0  0  0  0  0
  144.2631   80.9210  223.4872 H   0  0  0  0  0  0  0  0  0  0  0  0
  143.5412   78.6389  222.8453 H   0  0  0  0  0  0  0  0  0  0  0  0
  1  2  2  0
  2  3  1  0
  3  4  1  0
  4  5  1  0
  5  6  2  0
  5  7  1  0
  7  8  1  0
  8  9  1  0
  9 10  1  0
 10 11  1  0
 11 12  1  0
 12 13  2  0
 13 14  1  0
 14 15  1  0
 15 16  1  0
 16 17  2  0
 17 18  1  0
 18 19  2  0
 19 20  1  0
 20 21  2  0
 15 22  2  0
  2 23  1  0
 23 24  2  0
 24 25  1  0
 25 26  2  0
 26 27  1  0
 27 28  2  0
 28 29  1  0
 29 30  2  0
 30 31  1  0
 31 32  2  0
 11  7  1  0
 22 12  1  0
 32 23  1  0
 21 16  1  0
 31 26  1  0
  3 33  1  0
  4 34  1  0
  4 35  1  0
  8 36  1  0
  8 37  1  0
  9 38  1  0
  9 39  1  0
 10 40  1  0
 10 41  1  0
 11 42  1  1
 13 43  1  0
 14 44  1  0
 17 45  1  0
 18 46  1  0
 19 47  1  0
 20 48  1  0
 24 49  1  0
 25 50  1  0
 27 51  1  0
 28 52  1  0
 29 53  1  0
 30 54  1  0
M  END
>  <smiles>  (26) 
O=C(NCC(=O)N1CCC[C@H]1c1c[nH]c(-c2ccccn2)n1)c1ccc2ccccc2n1

>  <score_type>  (26) 
oracle

>  <origin>  (26) 
autodockgpu

>  <m_score__min__energy>  (26) 
-9.4800000000000004

>  <m_primary>  (26) 
energy

>  <rmsd>  (26) 
6.758712008358247

>  <m_score__min__rmsd>  (26) 
6.758712008358247

>  <meeko>  (26) 
{"free_energy": -6.96, "intermolecular_energy": -8.75, "internal_energy": -4.13, "cluster_size": 14, "cluster_id": 6, "rank_in_cluster": 2}

>  <energy>  (26) 
-7.13

>  <cluster_rmsd>  (26) 
0.39

>  <cluster>  (26) 
5

$$$$

     RDKit          3D

 54 58  0  0  0  0  0  0  0  0999 V2000
  137.5640   75.8750  222.4240 O   0  0  0  0  0  0  0  0  0  0  0  0
  138.8060   76.0670  222.3600 C   0  0  0  0  0  0  0  0  0  0  0  0
  139.7360   75.0430  222.0170 N   0  0  0  0  0  0  0  0  0  0  0  0
  139.2350   73.7020  221.7230 C   0  0  0  0  0  0  0  0  0  0  0  0
  140.3970   72.7930  221.5250 C   0  0  0  0  0  0  0  0  0  0  0  0
  140.4680   71.7230  222.1850 O   0  0  0  0  0  0  0  0  0  0  0  0
  141.3970   73.1440  220.6050 N   0  0  0  0  0  0  0  0  0  0  0  0
  141.3930   72.8190  219.1710 C   0  0  0  0  0  0  0  0  0  0  0  0
  142.8680   72.6680  218.8300 C   0  0  0  0  0  0  0  0  0  0  0  0
  143.6260   73.0210  220.0930 C   0  0  0  0  0  0  0  0  0  0  0  0
  142.6110   73.8730  220.8230 C   0  0  1  0  0  0  0  0  0  0  0  0
  142.5990   75.2680  220.3550 C   0  0  0  0  0  0  0  0  0  0  0  0
  143.6980   75.8520  219.7200 C   0  0  0  0  0  0  0  0  0  0  0  0
  143.3840   77.1150  219.4190 N   0  0  0  0  0  0  0  0  0  0  0  0
  142.1280   77.3490  219.8390 C   0  0  0  0  0  0  0  0  0  0  0  0
  141.4180   78.6150  219.6950 C   0  0  0  0  0  0  0  0  0  0  0  0
  140.0460   78.6540  219.6490 C   0  0  0  0  0  0  0  0  0  0  0  0
  139.4350   79.8950  219.5100 C   0  0  0  0  0  0  0  0  0  0  0  0
  140.2250   81.0030  219.4260 C   0  0  0  0  0  0  0  0  0  0  0  0
  141.6090   80.9680  219.4730 C   0  0  0  0  0  0  0  0  0  0  0  0
  142.1640   79.7420  219.6080 N   0  0  0  0  0  0  0  0  0  0  0  0
  141.6610   76.2160  220.4090 N   0  0  0  0  0  0  0  0  0  0  0  0
  139.3350   77.4100  222.6510 C   0  0  0  0  0  0  0  0  0  0  0  0
  138.4750   78.4720  222.8490 C   0  0  0  0  0  0  0  0  0  0  0  0
  138.9540   79.7410  223.1240 C   0  0  0  0  0  0  0  0  0  0  0  0
  140.3030   79.9350  223.1980 C   0  0  0  0  0  0  0  0  0  0  0  0
  140.8390   81.1690  223.4670 C   0  0  0  0  0  0  0  0  0  0  0  0
  142.2160   81.3420  223.5390 C   0  0  0  0  0  0  0  0  0  0  0  0
  143.0670   80.2950  223.3430 C   0  0  0  0  0  0  0  0  0  0  0  0
  142.5220   79.0600  223.0740 C   0  0  0  0  0  0  0  0  0  0  0  0
  141.1550   78.8670  222.9990 C   0  0  0  0  0  0  0  0  0  0  0  0
  140.6590   77.6390  222.7330 N   0  0  0  0  0  0  0  0  0  0  0  0
  140.7520   75.2870  221.9860 H   0  0  0  0  0  0  0  0  0  0  0  0
  138.6227   73.3428  222.5633 H   0  0  0  0  0  0  0  0  0  0  0  0
  138.6158   73.7234  220.8141 H   0  0  0  0  0  0  0  0  0  0  0  0
  140.8492   71.8815  218.9830 H   0  0  0  0  0  0  0  0  0  0  0  0
  140.8915   73.5856  218.5621 H   0  0  0  0  0  0  0  0  0  0  0  0
  143.0869   71.6327  218.5294 H   0  0  0  0  0  0  0  0  0  0  0  0
  143.1566   73.3187  217.9914 H   0  0  0  0  0  0  0  0  0  0  0  0
  143.8861   72.1217  220.6706 H   0  0  0  0  0  0  0  0  0  0  0  0
  144.5884   73.5228  219.9141 H   0  0  0  0  0  0  0  0  0  0  0  0
  142.8185   74.0123  221.8942 H   0  0  0  0  0  0  0  0  0  0  0  0
  144.6565   75.3571  219.5050 H   0  0  0  0  0  0  0  0  0  0  0  0
  144.0150   77.7930  218.9380 H   0  0  0  0  0  0  0  0  0  0  0  0
  139.4494   77.7325  219.7199 H   0  0  0  0  0  0  0  0  0  0  0  0
  138.3391   79.9810  219.4687 H   0  0  0  0  0  0  0  0  0  0  0  0
  139.7350   81.9815  219.3144 H   0  0  0  0  0  0  0  0  0  0  0  0
  142.2189   81.8809  219.4048 H   0  0  0  0  0  0  0  0  0  0  0  0
  137.3893   78.3064  222.7870 H   0  0  0  0  0  0  0  0  0  0  0  0
  138.2591   80.5793  223.2803 H   0  0  0  0  0  0  0  0  0  0  0  0
  140.1726   82.0294  223.6272 H   0  0  0  0  0  0  0  0  0  0  0  0
  142.6257   82.3392  223.7575 H   0  0  0  0  0  0  0  0  0  0  0  0
  144.1569   80.4331  223.3982 H   0  0  0  0  0  0  0  0  0  0  0  0
  143.1926   78.2028  222.9143 H   0  0  0  0  0  0  0  0  0  0  0  0
  1  2  2  0
  2  3  1  0
  3  4  1  0
  4  5  1  0
  5  6  2  0
  5  7  1  0
  7  8  1  0
  8  9  1  0
  9 10  1  0
 10 11  1  0
 11 12  1  0
 12 13  2  0
 13 14  1  0
 14 15  1  0
 15 16  1  0
 16 17  2  0
 17 18  1  0
 18 19  2  0
 19 20  1  0
 20 21  2  0
 15 22  2  0
  2 23  1  0
 23 24  2  0
 24 25  1  0
 25 26  2  0
 26 27  1  0
 27 28  2  0
 28 29  1  0
 29 30  2  0
 30 31  1  0
 31 32  2  0
 11  7  1  0
 22 12  1  0
 32 23  1  0
 21 16  1  0
 31 26  1  0
  3 33  1  0
  4 34  1  0
  4 35  1  0
  8 36  1  0
  8 37  1  0
  9 38  1  0
  9 39  1  0
 10 40  1  0
 10 41  1  0
 11 42  1  1
 13 43  1  0
 14 44  1  0
 17 45  1  0
 18 46  1  0
 19 47  1  0
 20 48  1  0
 24 49  1  0
 25 50  1  0
 27 51  1  0
 28 52  1  0
 29 53  1  0
 30 54  1  0
M  END
>  <smiles>  (27) 
O=C(NCC(=O)N1CCC[C@H]1c1c[nH]c(-c2ccccn2)n1)c1ccc2ccccc2n1

>  <score_type>  (27) 
oracle

>  <origin>  (27) 
autodockgpu

>  <m_score__min__energy>  (27) 
-9.4800000000000004

>  <m_primary>  (27) 
energy

>  <rmsd>  (27) 
6.824695475752122

>  <m_score__min__rmsd>  (27) 
6.824695475752122

>  <meeko>  (27) 
{"free_energy": -6.62, "intermolecular_energy": -8.41, "internal_energy": -4.47, "cluster_size": 14, "cluster_id": 6, "rank_in_cluster": 8}

>  <energy>  (27) 
-7.1

>  <cluster_rmsd>  (27) 
0.46

>  <cluster>  (27) 
5

$$$$

     RDKit          3D

 54 58  0  0  0  0  0  0  0  0999 V2000
  137.5690   75.9250  222.4470 O   0  0  0  0  0  0  0  0  0  0  0  0
  138.8140   76.1030  222.4370 C   0  0  0  0  0  0  0  0  0  0  0  0
  139.7480   75.0640  222.1560 N   0  0  0  0  0  0  0  0  0  0  0  0
  139.2470   73.7230  221.8650 C   0  0  0  0  0  0  0  0  0  0  0  0
  140.4080   72.8220  221.6270 C   0  0  0  0  0  0  0  0  0  0  0  0
  140.5280   71.7690  222.3080 O   0  0  0  0  0  0  0  0  0  0  0  0
  141.3530   73.1620  220.6470 N   0  0  0  0  0  0  0  0  0  0  0  0
  141.2440   72.8580  219.2120 C   0  0  0  0  0  0  0  0  0  0  0  0
  142.6890   72.6750  218.7720 C   0  0  0  0  0  0  0  0  0  0  0  0
  143.5390   72.9910  219.9850 C   0  0  0  0  0  0  0  0  0  0  0  0
  142.5970   73.8570  220.7920 C   0  0  1  0  0  0  0  0  0  0  0  0
  142.5890   75.2580  220.3440 C   0  0  0  0  0  0  0  0  0  0  0  0
  143.6900   75.8490  219.7190 C   0  0  0  0  0  0  0  0  0  0  0  0
  143.3810   77.1160  219.4350 N   0  0  0  0  0  0  0  0  0  0  0  0
  142.1250   77.3480  219.8570 C   0  0  0  0  0  0  0  0  0  0  0  0
  141.4180   78.6180  219.7300 C   0  0  0  0  0  0  0  0  0  0  0  0
  140.0470   78.6620  219.6990 C   0  0  0  0  0  0  0  0  0  0  0  0
  139.4390   79.9070  219.5760 C   0  0  0  0  0  0  0  0  0  0  0  0
  140.2330   81.0120  219.4920 C   0  0  0  0  0  0  0  0  0  0  0  0
  141.6170   80.9720  219.5240 C   0  0  0  0  0  0  0  0  0  0  0  0
  142.1680   79.7420  219.6450 N   0  0  0  0  0  0  0  0  0  0  0  0
  141.6540   76.2090  220.4100 N   0  0  0  0  0  0  0  0  0  0  0  0
  139.3430   77.4460  222.7250 C   0  0  0  0  0  0  0  0  0  0  0  0
  138.4830   78.5040  222.9460 C   0  0  0  0  0  0  0  0  0  0  0  0
  138.9620   79.7730  223.2200 C   0  0  0  0  0  0  0  0  0  0  0  0
  140.3120   79.9720  223.2700 C   0  0  0  0  0  0  0  0  0  0  0  0
  140.8480   81.2070  223.5360 C   0  0  0  0  0  0  0  0  0  0  0  0
  142.2260   81.3850  223.5810 C   0  0  0  0  0  0  0  0  0  0  0  0
  143.0770   80.3420  223.3630 C   0  0  0  0  0  0  0  0  0  0  0  0
  142.5310   79.1070  223.0980 C   0  0  0  0  0  0  0  0  0  0  0  0
  141.1640   78.9090  223.0480 C   0  0  0  0  0  0  0  0  0  0  0  0
  140.6670   77.6810  222.7830 N   0  0  0  0  0  0  0  0  0  0  0  0
  140.7660   75.2970  222.1670 H   0  0  0  0  0  0  0  0  0  0  0  0
  138.6604   73.3534  222.7190 H   0  0  0  0  0  0  0  0  0  0  0  0
  138.6028   73.7483  220.9737 H   0  0  0  0  0  0  0  0  0  0  0  0
  140.6646   71.9373  219.0489 H   0  0  0  0  0  0  0  0  0  0  0  0
  140.7227   73.6452  218.6476 H   0  0  0  0  0  0  0  0  0  0  0  0
  142.8604   71.6389  218.4448 H   0  0  0  0  0  0  0  0  0  0  0  0
  142.9377   73.3305  217.9244 H   0  0  0  0  0  0  0  0  0  0  0  0
  143.8143   72.0775  220.5324 H   0  0  0  0  0  0  0  0  0  0  0  0
  144.4998   73.4713  219.7481 H   0  0  0  0  0  0  0  0  0  0  0  0
  142.8796   73.9753  221.8485 H   0  0  0  0  0  0  0  0  0  0  0  0
  144.6477   75.3547  219.4987 H   0  0  0  0  0  0  0  0  0  0  0  0
  144.0130   77.7990  218.9640 H   0  0  0  0  0  0  0  0  0  0  0  0
  139.4478   77.7422  219.7692 H   0  0  0  0  0  0  0  0  0  0  0  0
  138.3431   79.9978  219.5472 H   0  0  0  0  0  0  0  0  0  0  0  0
  139.7457   81.9932  219.3930 H   0  0  0  0  0  0  0  0  0  0  0  0
  142.2299   81.8829  219.4554 H   0  0  0  0  0  0  0  0  0  0  0  0
  137.3970   78.3346  222.9034 H   0  0  0  0  0  0  0  0  0  0  0  0
  138.2669   80.6075  223.3946 H   0  0  0  0  0  0  0  0  0  0  0  0
  140.1815   82.0635  223.7152 H   0  0  0  0  0  0  0  0  0  0  0  0
  142.6363   82.3828  223.7958 H   0  0  0  0  0  0  0  0  0  0  0  0
  144.1673   80.4837  223.3980 H   0  0  0  0  0  0  0  0  0  0  0  0
  143.2015   78.2531  222.9209 H   0  0  0  0  0  0  0  0  0  0  0  0
  1  2  2  0
  2  3  1  0
  3  4  1  0
  4  5  1  0
  5  6  2  0
  5  7  1  0
  7  8  1  0
  8  9  1  0
  9 10  1  0
 10 11  1  0
 11 12  1  0
 12 13  2  0
 13 14  1  0
 14 15  1  0
 15 16  1  0
 16 17  2  0
 17 18  1  0
 18 19  2  0
 19 20  1  0
 20 21  2  0
 15 22  2  0
  2 23  1  0
 23 24  2  0
 24 25  1  0
 25 26  2  0
 26 27  1  0
 27 28  2  0
 28 29  1  0
 29 30  2  0
 30 31  1  0
 31 32  2  0
 11  7  1  0
 22 12  1  0
 32 23  1  0
 21 16  1  0
 31 26  1  0
  3 33  1  0
  4 34  1  0
  4 35  1  0
  8 36  1  0
  8 37  1  0
  9 38  1  0
  9 39  1  0
 10 40  1  0
 10 41  1  0
 11 42  1  1
 13 43  1  0
 14 44  1  0
 17 45  1  0
 18 46  1  0
 19 47  1  0
 20 48  1  0
 24 49  1  0
 25 50  1  0
 27 51  1  0
 28 52  1  0
 29 53  1  0
 30 54  1  0
M  END
>  <smiles>  (28) 
O=C(NCC(=O)N1CCC[C@H]1c1c[nH]c(-c2ccccn2)n1)c1ccc2ccccc2n1

>  <score_type>  (28) 
oracle

>  <origin>  (28) 
autodockgpu

>  <m_score__min__energy>  (28) 
-9.4800000000000004

>  <m_primary>  (28) 
energy

>  <rmsd>  (28) 
6.827709451043306

>  <m_score__min__rmsd>  (28) 
6.827709451043306

>  <meeko>  (28) 
{"free_energy": -6.58, "intermolecular_energy": -8.37, "internal_energy": -4.5, "cluster_size": 14, "cluster_id": 6, "rank_in_cluster": 11}

>  <energy>  (28) 
-7.09

>  <cluster_rmsd>  (28) 
0.39

>  <cluster>  (28) 
5

$$$$

     RDKit          3D

 54 58  0  0  0  0  0  0  0  0999 V2000
  137.5630   75.8280  222.4570 O   0  0  0  0  0  0  0  0  0  0  0  0
  138.8040   76.0220  222.3930 C   0  0  0  0  0  0  0  0  0  0  0  0
  139.7390   74.9900  222.0910 N   0  0  0  0  0  0  0  0  0  0  0  0
  139.2440   73.6380  221.8430 C   0  0  0  0  0  0  0  0  0  0  0  0
  140.4060   72.7490  221.5660 C   0  0  0  0  0  0  0  0  0  0  0  0
  140.5630   71.7010  222.2470 O   0  0  0  0  0  0  0  0  0  0  0  0
  141.3090   73.0930  220.5490 N   0  0  0  0  0  0  0  0  0  0  0  0
  141.1240   72.8270  219.1140 C   0  0  0  0  0  0  0  0  0  0  0  0
  142.5410   72.6250  218.5980 C   0  0  0  0  0  0  0  0  0  0  0  0
  143.4560   72.8940  219.7760 C   0  0  0  0  0  0  0  0  0  0  0  0
  142.5740   73.7580  220.6490 C   0  0  1  0  0  0  0  0  0  0  0  0
  142.5740   75.1700  220.2360 C   0  0  0  0  0  0  0  0  0  0  0  0
  143.6930   75.7800  219.6610 C   0  0  0  0  0  0  0  0  0  0  0  0
  143.3880   77.0530  219.3980 N   0  0  0  0  0  0  0  0  0  0  0  0
  142.1180   77.2700  219.7850 C   0  0  0  0  0  0  0  0  0  0  0  0
  141.4110   78.5400  219.6660 C   0  0  0  0  0  0  0  0  0  0  0  0
  140.0410   78.5810  219.5900 C   0  0  0  0  0  0  0  0  0  0  0  0
  139.4320   79.8270  219.4780 C   0  0  0  0  0  0  0  0  0  0  0  0
  140.2240   80.9360  219.4490 C   0  0  0  0  0  0  0  0  0  0  0  0
  141.6070   80.8990  219.5260 C   0  0  0  0  0  0  0  0  0  0  0  0
  142.1590   79.6690  219.6340 N   0  0  0  0  0  0  0  0  0  0  0  0
  141.6340   76.1160  220.2950 N   0  0  0  0  0  0  0  0  0  0  0  0
  139.3280   77.3760  222.6380 C   0  0  0  0  0  0  0  0  0  0  0  0
  138.4630   78.4400  222.8010 C   0  0  0  0  0  0  0  0  0  0  0  0
  138.9370   79.7200  223.0340 C   0  0  0  0  0  0  0  0  0  0  0  0
  140.2850   79.9220  223.1000 C   0  0  0  0  0  0  0  0  0  0  0  0
  140.8160   81.1670  223.3270 C   0  0  0  0  0  0  0  0  0  0  0  0
  142.1930   81.3480  223.3910 C   0  0  0  0  0  0  0  0  0  0  0  0
  143.0480   80.2990  223.2300 C   0  0  0  0  0  0  0  0  0  0  0  0
  142.5080   79.0530  223.0030 C   0  0  0  0  0  0  0  0  0  0  0  0
  141.1420   78.8520  222.9360 C   0  0  0  0  0  0  0  0  0  0  0  0
  140.6510   77.6140  222.7110 N   0  0  0  0  0  0  0  0  0  0  0  0
  140.7540   75.2350  222.0570 H   0  0  0  0  0  0  0  0  0  0  0  0
  138.7018   73.2739  222.7281 H   0  0  0  0  0  0  0  0  0  0  0  0
  138.5598   73.6409  220.9817 H   0  0  0  0  0  0  0  0  0  0  0  0
  140.5172   71.9229  218.9579 H   0  0  0  0  0  0  0  0  0  0  0  0
  140.5935   73.6391  218.5952 H   0  0  0  0  0  0  0  0  0  0  0  0
  142.6736   71.5939  218.2385 H   0  0  0  0  0  0  0  0  0  0  0  0
  142.7623   73.2952  217.7543 H   0  0  0  0  0  0  0  0  0  0  0  0
  143.7382   71.9617  220.2871 H   0  0  0  0  0  0  0  0  0  0  0  0
  144.4139   73.3610  219.5034 H   0  0  0  0  0  0  0  0  0  0  0  0
  142.9111   73.8432  221.6926 H   0  0  0  0  0  0  0  0  0  0  0  0
  144.6592   75.2943  219.4597 H   0  0  0  0  0  0  0  0  0  0  0  0
  144.0330   77.7490  218.9660 H   0  0  0  0  0  0  0  0  0  0  0  0
  139.4434   77.6578  219.6168 H   0  0  0  0  0  0  0  0  0  0  0  0
  138.3374   79.9150  219.4144 H   0  0  0  0  0  0  0  0  0  0  0  0
  139.7366   81.9180  219.3592 H   0  0  0  0  0  0  0  0  0  0  0  0
  142.2181   81.8133  219.5008 H   0  0  0  0  0  0  0  0  0  0  0  0
  137.3780   78.2677  222.7447 H   0  0  0  0  0  0  0  0  0  0  0  0
  138.2387   80.5599  223.1637 H   0  0  0  0  0  0  0  0  0  0  0  0
  140.1461   82.0294  223.4595 H   0  0  0  0  0  0  0  0  0  0  0  0
  142.5988   82.3538  223.5745 H   0  0  0  0  0  0  0  0  0  0  0  0
  144.1373   80.4435  223.2799 H   0  0  0  0  0  0  0  0  0  0  0  0
  143.1821   78.1938  222.8713 H   0  0  0  0  0  0  0  0  0  0  0  0
  1  2  2  0
  2  3  1  0
  3  4  1  0
  4  5  1  0
  5  6  2  0
  5  7  1  0
  7  8  1  0
  8  9  1  0
  9 10  1  0
 10 11  1  0
 11 12  1  0
 12 13  2  0
 13 14  1  0
 14 15  1  0
 15 16  1  0
 16 17  2  0
 17 18  1  0
 18 19  2  0
 19 20  1  0
 20 21  2  0
 15 22  2  0
  2 23  1  0
 23 24  2  0
 24 25  1  0
 25 26  2  0
 26 27  1  0
 27 28  2  0
 28 29  1  0
 29 30  2  0
 30 31  1  0
 31 32  2  0
 11  7  1  0
 22 12  1  0
 32 23  1  0
 21 16  1  0
 31 26  1  0
  3 33  1  0
  4 34  1  0
  4 35  1  0
  8 36  1  0
  8 37  1  0
  9 38  1  0
  9 39  1  0
 10 40  1  0
 10 41  1  0
 11 42  1  1
 13 43  1  0
 14 44  1  0
 17 45  1  0
 18 46  1  0
 19 47  1  0
 20 48  1  0
 24 49  1  0
 25 50  1  0
 27 51  1  0
 28 52  1  0
 29 53  1  0
 30 54  1  0
M  END
>  <smiles>  (29) 
O=C(NCC(=O)N1CCC[C@H]1c1c[nH]c(-c2ccccn2)n1)c1ccc2ccccc2n1

>  <score_type>  (29) 
oracle

>  <origin>  (29) 
autodockgpu

>  <m_score__min__energy>  (29) 
-9.4800000000000004

>  <m_primary>  (29) 
energy

>  <rmsd>  (29) 
6.818834554125497

>  <m_score__min__rmsd>  (29) 
6.818834554125497

>  <meeko>  (29) 
{"free_energy": -6.5, "intermolecular_energy": -8.29, "internal_energy": -4.53, "cluster_size": 14, "cluster_id": 6, "rank_in_cluster": 14}

>  <energy>  (29) 
-7.09

>  <cluster_rmsd>  (29) 
0.66

>  <cluster>  (29) 
5

$$$$

     RDKit          3D

 54 58  0  0  0  0  0  0  0  0999 V2000
  138.2690   75.6480  222.3820 O   0  0  0  0  0  0  0  0  0  0  0  0
  139.4790   75.9900  222.3310 C   0  0  0  0  0  0  0  0  0  0  0  0
  140.5210   75.1090  221.9230 N   0  0  0  0  0  0  0  0  0  0  0  0
  140.1820   73.7400  221.5430 C   0  0  0  0  0  0  0  0  0  0  0  0
  141.4400   73.0080  221.2270 C   0  0  0  0  0  0  0  0  0  0  0  0
  141.6990   71.9310  221.8270 O   0  0  0  0  0  0  0  0  0  0  0  0
  142.3180   73.5310  220.2660 N   0  0  0  0  0  0  0  0  0  0  0  0
  142.3620   73.1460  218.8470 C   0  0  0  0  0  0  0  0  0  0  0  0
  143.8260   73.3140  218.4720 C   0  0  0  0  0  0  0  0  0  0  0  0
  144.5080   73.8890  219.6970 C   0  0  0  0  0  0  0  0  0  0  0  0
  143.3400   74.5230  220.4190 C   0  0  1  0  0  0  0  0  0  0  0  0
  143.0040   75.8560  219.8930 C   0  0  0  0  0  0  0  0  0  0  0  0
  143.5700   76.3610  218.7200 C   0  0  0  0  0  0  0  0  0  0  0  0
  143.0740   77.5810  218.5060 N   0  0  0  0  0  0  0  0  0  0  0  0
  142.2150   77.8670  219.5010 C   0  0  0  0  0  0  0  0  0  0  0  0
  141.4630   79.1110  219.6300 C   0  0  0  0  0  0  0  0  0  0  0  0
  140.1050   79.0980  219.8250 C   0  0  0  0  0  0  0  0  0  0  0  0
  139.4530   80.3220  219.9390 C   0  0  0  0  0  0  0  0  0  0  0  0
  140.1930   81.4630  219.8510 C   0  0  0  0  0  0  0  0  0  0  0  0
  141.5640   81.4800  219.6540 C   0  0  0  0  0  0  0  0  0  0  0  0
  142.1590   80.2700  219.5490 N   0  0  0  0  0  0  0  0  0  0  0  0
  142.1820   76.8080  220.3400 N   0  0  0  0  0  0  0  0  0  0  0  0
  139.8460   77.3650  222.7090 C   0  0  0  0  0  0  0  0  0  0  0  0
  138.8690   78.2840  223.0390 C   0  0  0  0  0  0  0  0  0  0  0  0
  139.1950   79.5800  223.3970 C   0  0  0  0  0  0  0  0  0  0  0  0
  140.5090   79.9470  223.4200 C   0  0  0  0  0  0  0  0  0  0  0  0
  140.8960   81.2180  223.7660 C   0  0  0  0  0  0  0  0  0  0  0  0
  142.2420   81.5680  223.7820 C   0  0  0  0  0  0  0  0  0  0  0  0
  143.2080   80.6630  223.4560 C   0  0  0  0  0  0  0  0  0  0  0  0
  142.8110   79.3910  223.1110 C   0  0  0  0  0  0  0  0  0  0  0  0
  141.4800   79.0220  223.0880 C   0  0  0  0  0  0  0  0  0  0  0  0
  141.1310   77.7640  222.7430 N   0  0  0  0  0  0  0  0  0  0  0  0
  141.5010   75.4740  221.9080 H   0  0  0  0  0  0  0  0  0  0  0  0
  139.6630   73.2423  222.3754 H   0  0  0  0  0  0  0  0  0  0  0  0
  139.5211   73.7473  220.6637 H   0  0  0  0  0  0  0  0  0  0  0  0
  142.0404   72.1025  218.7137 H   0  0  0  0  0  0  0  0  0  0  0  0
  141.6898   73.7509  218.2206 H   0  0  0  0  0  0  0  0  0  0  0  0
  144.2675   72.3411  218.2101 H   0  0  0  0  0  0  0  0  0  0  0  0
  143.9451   73.9720  217.5986 H   0  0  0  0  0  0  0  0  0  0  0  0
  144.9762   73.1003  220.3042 H   0  0  0  0  0  0  0  0  0  0  0  0
  145.3280   74.5861  219.4695 H   0  0  0  0  0  0  0  0  0  0  0  0
  143.5305   74.7546  221.4773 H   0  0  0  0  0  0  0  0  0  0  0  0
  144.3000   75.8416  218.0818 H   0  0  0  0  0  0  0  0  0  0  0  0
  143.3180   78.1980  217.7010 H   0  0  0  0  0  0  0  0  0  0  0  0
  139.5496   78.1507  219.8891 H   0  0  0  0  0  0  0  0  0  0  0  0
  138.3653   80.3676  220.0965 H   0  0  0  0  0  0  0  0  0  0  0  0
  139.6710   82.4270  219.9417 H   0  0  0  0  0  0  0  0  0  0  0  0
  142.1332   82.4189  219.5872 H   0  0  0  0  0  0  0  0  0  0  0  0
  137.8121   77.9798  223.0167 H   0  0  0  0  0  0  0  0  0  0  0  0
  138.4080   80.3026  223.6588 H   0  0  0  0  0  0  0  0  0  0  0  0
  140.1349   81.9660  224.0329 H   0  0  0  0  0  0  0  0  0  0  0  0
  142.5317   82.5915  224.0622 H   0  0  0  0  0  0  0  0  0  0  0  0
  144.2723   80.9408  223.4683 H   0  0  0  0  0  0  0  0  0  0  0  0
  143.5761   78.6465  222.8458 H   0  0  0  0  0  0  0  0  0  0  0  0
  1  2  2  0
  2  3  1  0
  3  4  1  0
  4  5  1  0
  5  6  2  0
  5  7  1  0
  7  8  1  0
  8  9  1  0
  9 10  1  0
 10 11  1  0
 11 12  1  0
 12 13  2  0
 13 14  1  0
 14 15  1  0
 15 16  1  0
 16 17  2  0
 17 18  1  0
 18 19  2  0
 19 20  1  0
 20 21  2  0
 15 22  2  0
  2 23  1  0
 23 24  2  0
 24 25  1  0
 25 26  2  0
 26 27  1  0
 27 28  2  0
 28 29  1  0
 29 30  2  0
 30 31  1  0
 31 32  2  0
 11  7  1  0
 22 12  1  0
 32 23  1  0
 21 16  1  0
 31 26  1  0
  3 33  1  0
  4 34  1  0
  4 35  1  0
  8 36  1  0
  8 37  1  0
  9 38  1  0
  9 39  1  0
 10 40  1  0
 10 41  1  0
 11 42  1  1
 13 43  1  0
 14 44  1  0
 17 45  1  0
 18 46  1  0
 19 47  1  0
 20 48  1  0
 24 49  1  0
 25 50  1  0
 27 51  1  0
 28 52  1  0
 29 53  1  0
 30 54  1  0
M  END
>  <smiles>  (30) 
O=C(NCC(=O)N1CCC[C@H]1c1c[nH]c(-c2ccccn2)n1)c1ccc2ccccc2n1

>  <score_type>  (30) 
oracle

>  <origin>  (30) 
autodockgpu

>  <m_score__min__energy>  (30) 
-9.4800000000000004

>  <m_primary>  (30) 
energy

>  <rmsd>  (30) 
6.843388891479703

>  <m_score__min__rmsd>  (30) 
6.843388891479703

>  <meeko>  (30) 
{"free_energy": -6.82, "intermolecular_energy": -8.61, "internal_energy": -4.22, "cluster_size": 14, "cluster_id": 6, "rank_in_cluster": 4}

>  <energy>  (30) 
-7.07

>  <cluster_rmsd>  (30) 
0.7

>  <cluster>  (30) 
5

$$$$

     RDKit          3D

 54 58  0  0  0  0  0  0  0  0999 V2000
  137.5420   75.9380  222.3870 O   0  0  0  0  0  0  0  0  0  0  0  0
  138.7870   76.1150  222.3890 C   0  0  0  0  0  0  0  0  0  0  0  0
  139.7230   75.0730  222.1230 N   0  0  0  0  0  0  0  0  0  0  0  0
  139.2230   73.7310  221.8340 C   0  0  0  0  0  0  0  0  0  0  0  0
  140.3860   72.8280  221.6120 C   0  0  0  0  0  0  0  0  0  0  0  0
  140.4930   71.7740  222.2930 O   0  0  0  0  0  0  0  0  0  0  0  0
  141.3460   73.1670  220.6470 N   0  0  0  0  0  0  0  0  0  0  0  0
  141.2660   72.8530  219.2130 C   0  0  0  0  0  0  0  0  0  0  0  0
  142.7190   72.6760  218.7990 C   0  0  0  0  0  0  0  0  0  0  0  0
  143.5450   73.0060  220.0260 C   0  0  0  0  0  0  0  0  0  0  0  0
  142.5830   73.8710  220.8100 C   0  0  1  0  0  0  0  0  0  0  0  0
  142.5750   75.2690  220.3520 C   0  0  0  0  0  0  0  0  0  0  0  0
  143.6760   75.8570  219.7250 C   0  0  0  0  0  0  0  0  0  0  0  0
  143.3660   77.1210  219.4310 N   0  0  0  0  0  0  0  0  0  0  0  0
  142.1100   77.3550  219.8500 C   0  0  0  0  0  0  0  0  0  0  0  0
  141.4010   78.6230  219.7130 C   0  0  0  0  0  0  0  0  0  0  0  0
  140.0310   78.6640  219.6550 C   0  0  0  0  0  0  0  0  0  0  0  0
  139.4220   79.9080  219.5240 C   0  0  0  0  0  0  0  0  0  0  0  0
  140.2140   81.0150  219.4580 C   0  0  0  0  0  0  0  0  0  0  0  0
  141.5980   80.9790  219.5170 C   0  0  0  0  0  0  0  0  0  0  0  0
  142.1500   79.7500  219.6440 N   0  0  0  0  0  0  0  0  0  0  0  0
  141.6380   76.2190  220.4100 N   0  0  0  0  0  0  0  0  0  0  0  0
  139.3150   77.4590  222.6760 C   0  0  0  0  0  0  0  0  0  0  0  0
  138.4540   78.5170  222.8900 C   0  0  0  0  0  0  0  0  0  0  0  0
  138.9320   79.7870  223.1630 C   0  0  0  0  0  0  0  0  0  0  0  0
  140.2810   79.9860  223.2180 C   0  0  0  0  0  0  0  0  0  0  0  0
  140.8160   81.2220  223.4830 C   0  0  0  0  0  0  0  0  0  0  0  0
  142.1940   81.4000  223.5350 C   0  0  0  0  0  0  0  0  0  0  0  0
  143.0460   80.3570  223.3240 C   0  0  0  0  0  0  0  0  0  0  0  0
  142.5010   79.1210  223.0590 C   0  0  0  0  0  0  0  0  0  0  0  0
  141.1350   78.9220  223.0030 C   0  0  0  0  0  0  0  0  0  0  0  0
  140.6390   77.6940  222.7390 N   0  0  0  0  0  0  0  0  0  0  0  0
  140.7410   75.3050  222.1440 H   0  0  0  0  0  0  0  0  0  0  0  0
  138.6277   73.3663  222.6841 H   0  0  0  0  0  0  0  0  0  0  0  0
  138.5872   73.7522  220.9366 H   0  0  0  0  0  0  0  0  0  0  0  0
  140.6953   71.9276  219.0457 H   0  0  0  0  0  0  0  0  0  0  0  0
  140.7508   73.6340  218.6345 H   0  0  0  0  0  0  0  0  0  0  0  0
  142.9027   71.6388  218.4820 H   0  0  0  0  0  0  0  0  0  0  0  0
  142.9789   73.3266  217.9509 H   0  0  0  0  0  0  0  0  0  0  0  0
  143.8163   72.0980  220.5845 H   0  0  0  0  0  0  0  0  0  0  0  0
  144.5068   73.4912  219.8033 H   0  0  0  0  0  0  0  0  0  0  0  0
  142.8449   73.9980  221.8708 H   0  0  0  0  0  0  0  0  0  0  0  0
  144.6348   75.3625  219.5103 H   0  0  0  0  0  0  0  0  0  0  0  0
  143.9990   77.8020  218.9570 H   0  0  0  0  0  0  0  0  0  0  0  0
  139.4329   77.7425  219.7103 H   0  0  0  0  0  0  0  0  0  0  0  0
  138.3266   79.9960  219.4749 H   0  0  0  0  0  0  0  0  0  0  0  0
  139.7259   81.9950  219.3516 H   0  0  0  0  0  0  0  0  0  0  0  0
  142.2094   81.8919  219.4639 H   0  0  0  0  0  0  0  0  0  0  0  0
  137.3682   78.3475  222.8427 H   0  0  0  0  0  0  0  0  0  0  0  0
  138.2362   80.6219  223.3328 H   0  0  0  0  0  0  0  0  0  0  0  0
  140.1487   82.0792  223.6557 H   0  0  0  0  0  0  0  0  0  0  0  0
  142.6031   82.3982  223.7498 H   0  0  0  0  0  0  0  0  0  0  0  0
  144.1361   80.4988  223.3643 H   0  0  0  0  0  0  0  0  0  0  0  0
  143.1726   78.2670  222.8868 H   0  0  0  0  0  0  0  0  0  0  0  0
  1  2  2  0
  2  3  1  0
  3  4  1  0
  4  5  1  0
  5  6  2  0
  5  7  1  0
  7  8  1  0
  8  9  1  0
  9 10  1  0
 10 11  1  0
 11 12  1  0
 12 13  2  0
 13 14  1  0
 14 15  1  0
 15 16  1  0
 16 17  2  0
 17 18  1  0
 18 19  2  0
 19 20  1  0
 20 21  2  0
 15 22  2  0
  2 23  1  0
 23 24  2  0
 24 25  1  0
 25 26  2  0
 26 27  1  0
 27 28  2  0
 28 29  1  0
 29 30  2  0
 30 31  1  0
 31 32  2  0
 11  7  1  0
 22 12  1  0
 32 23  1  0
 21 16  1  0
 31 26  1  0
  3 33  1  0
  4 34  1  0
  4 35  1  0
  8 36  1  0
  8 37  1  0
  9 38  1  0
  9 39  1  0
 10 40  1  0
 10 41  1  0
 11 42  1  1
 13 43  1  0
 14 44  1  0
 17 45  1  0
 18 46  1  0
 19 47  1  0
 20 48  1  0
 24 49  1  0
 25 50  1  0
 27 51  1  0
 28 52  1  0
 29 53  1  0
 30 54  1  0
M  END
>  <smiles>  (31) 
O=C(NCC(=O)N1CCC[C@H]1c1c[nH]c(-c2ccccn2)n1)c1ccc2ccccc2n1

>  <score_type>  (31) 
oracle

>  <origin>  (31) 
autodockgpu

>  <m_score__min__energy>  (31) 
-9.4800000000000004

>  <m_primary>  (31) 
energy

>  <rmsd>  (31) 
6.838684471535294

>  <m_score__min__rmsd>  (31) 
6.838684471535294

>  <meeko>  (31) 
{"free_energy": -6.6, "intermolecular_energy": -8.39, "internal_energy": -4.49, "cluster_size": 14, "cluster_id": 6, "rank_in_cluster": 9}

>  <energy>  (31) 
-7.04

>  <cluster_rmsd>  (31) 
0.49

>  <cluster>  (31) 
5

$$$$

     RDKit          3D

 54 58  0  0  0  0  0  0  0  0999 V2000
  138.9060   74.7610  222.3350 O   0  0  0  0  0  0  0  0  0  0  0  0
  139.9790   75.2810  221.9350 C   0  0  0  0  0  0  0  0  0  0  0  0
  140.1770   76.6900  221.8480 N   0  0  0  0  0  0  0  0  0  0  0  0
  139.0890   77.5820  222.2390 C   0  0  0  0  0  0  0  0  0  0  0  0
  139.6730   78.7900  222.8860 C   0  0  0  0  0  0  0  0  0  0  0  0
  139.0570   79.3460  223.8340 O   0  0  0  0  0  0  0  0  0  0  0  0
  140.9010   79.2890  222.4290 N   0  0  0  0  0  0  0  0  0  0  0  0
  142.2120   79.0370  223.0480 C   0  0  0  0  0  0  0  0  0  0  0  0
  142.9990   80.3060  222.7560 C   0  0  0  0  0  0  0  0  0  0  0  0
  142.1010   81.1650  221.8910 C   0  0  0  0  0  0  0  0  0  0  0  0
  141.1730   80.1270  221.2990 C   0  0  1  0  0  0  0  0  0  0  0  0
  141.7570   79.4410  220.1360 C   0  0  0  0  0  0  0  0  0  0  0  0
  142.3850   80.1350  219.0970 C   0  0  0  0  0  0  0  0  0  0  0  0
  142.8080   79.2460  218.1950 N   0  0  0  0  0  0  0  0  0  0  0  0
  142.4700   78.0170  218.6250 C   0  0  0  0  0  0  0  0  0  0  0  0
  142.7560   76.7730  217.9170 C   0  0  0  0  0  0  0  0  0  0  0  0
  142.0680   75.6220  218.2080 C   0  0  0  0  0  0  0  0  0  0  0  0
  142.3920   74.4720  217.4940 C   0  0  0  0  0  0  0  0  0  0  0  0
  143.3720   74.5490  216.5500 C   0  0  0  0  0  0  0  0  0  0  0  0
  144.0690   75.7090  216.2540 C   0  0  0  0  0  0  0  0  0  0  0  0
  143.7230   76.8040  216.9700 N   0  0  0  0  0  0  0  0  0  0  0  0
  141.8300   78.1490  219.8080 N   0  0  0  0  0  0  0  0  0  0  0  0
  141.0910   74.4030  221.5350 C   0  0  0  0  0  0  0  0  0  0  0  0
  140.9230   73.0320  221.5040 C   0  0  0  0  0  0  0  0  0  0  0  0
  141.9560   72.1910  221.1310 C   0  0  0  0  0  0  0  0  0  0  0  0
  143.1600   72.7360  220.7890 C   0  0  0  0  0  0  0  0  0  0  0  0
  144.2230   71.9550  220.4110 C   0  0  0  0  0  0  0  0  0  0  0  0
  145.4390   72.5340  220.0670 C   0  0  0  0  0  0  0  0  0  0  0  0
  145.6080   73.8860  220.0970 C   0  0  0  0  0  0  0  0  0  0  0  0
  144.5370   74.6630  220.4770 C   0  0  0  0  0  0  0  0  0  0  0  0
  143.3190   74.1080  220.8230 C   0  0  0  0  0  0  0  0  0  0  0  0
  142.2920   74.9040  221.1910 N   0  0  0  0  0  0  0  0  0  0  0  0
  141.1000   77.0400  221.5050 H   0  0  0  0  0  0  0  0  0  0  0  0
  138.5156   77.8793  221.3486 H   0  0  0  0  0  0  0  0  0  0  0  0
  138.4162   77.0681  222.9413 H   0  0  0  0  0  0  0  0  0  0  0  0
  142.1102   78.8793  224.1319 H   0  0  0  0  0  0  0  0  0  0  0  0
  142.7012   78.1327  222.6569 H   0  0  0  0  0  0  0  0  0  0  0  0
  143.2415   80.8293  223.6927 H   0  0  0  0  0  0  0  0  0  0  0  0
  143.9504   80.0826  222.2512 H   0  0  0  0  0  0  0  0  0  0  0  0
  141.5486   81.9020  222.4924 H   0  0  0  0  0  0  0  0  0  0  0  0
  142.6389   81.7657  221.1428 H   0  0  0  0  0  0  0  0  0  0  0  0
  140.2509   80.5373  220.8614 H   0  0  0  0  0  0  0  0  0  0  0  0
  142.5092   81.2261  219.0337 H   0  0  0  0  0  0  0  0  0  0  0  0
  143.3130   79.4780  217.3120 H   0  0  0  0  0  0  0  0  0  0  0  0
  141.2854   75.6086  218.9809 H   0  0  0  0  0  0  0  0  0  0  0  0
  141.8695   73.5235  217.6871 H   0  0  0  0  0  0  0  0  0  0  0  0
  143.6243   73.6364  215.9902 H   0  0  0  0  0  0  0  0  0  0  0  0
  144.8548   75.7382  215.4848 H   0  0  0  0  0  0  0  0  0  0  0  0
  139.9496   72.6011  221.7811 H   0  0  0  0  0  0  0  0  0  0  0  0
  141.8097   71.1010  221.1103 H   0  0  0  0  0  0  0  0  0  0  0  0
  144.1119   70.8611  220.3799 H   0  0  0  0  0  0  0  0  0  0  0  0
  146.2786   71.8904  219.7656 H   0  0  0  0  0  0  0  0  0  0  0  0
  146.5713   74.3427  219.8257 H   0  0  0  0  0  0  0  0  0  0  0  0
  144.6537   75.7564  220.5062 H   0  0  0  0  0  0  0  0  0  0  0  0
  1  2  2  0
  2  3  1  0
  3  4  1  0
  4  5  1  0
  5  6  2  0
  5  7  1  0
  7  8  1  0
  8  9  1  0
  9 10  1  0
 10 11  1  0
 11 12  1  0
 12 13  2  0
 13 14  1  0
 14 15  1  0
 15 16  1  0
 16 17  2  0
 17 18  1  0
 18 19  2  0
 19 20  1  0
 20 21  2  0
 15 22  2  0
  2 23  1  0
 23 24  2  0
 24 25  1  0
 25 26  2  0
 26 27  1  0
 27 28  2  0
 28 29  1  0
 29 30  2  0
 30 31  1  0
 31 32  2  0
 11  7  1  0
 22 12  1  0
 32 23  1  0
 21 16  1  0
 31 26  1  0
  3 33  1  0
  4 34  1  0
  4 35  1  0
  8 36  1  0
  8 37  1  0
  9 38  1  0
  9 39  1  0
 10 40  1  0
 10 41  1  0
 11 42  1  6
 13 43  1  0
 14 44  1  0
 17 45  1  0
 18 46  1  0
 19 47  1  0
 20 48  1  0
 24 49  1  0
 25 50  1  0
 27 51  1  0
 28 52  1  0
 29 53  1  0
 30 54  1  0
M  END
>  <smiles>  (32) 
O=C(NCC(=O)N1CCC[C@H]1c1c[nH]c(-c2ccccn2)n1)c1ccc2ccccc2n1

>  <score_type>  (32) 
oracle

>  <origin>  (32) 
autodockgpu

>  <m_score__min__energy>  (32) 
-9.4800000000000004

>  <m_primary>  (32) 
energy

>  <rmsd>  (32) 
6.717163120422378

>  <m_score__min__rmsd>  (32) 
6.717163120422378

>  <meeko>  (32) 
{"free_energy": -7.13, "intermolecular_energy": -8.92, "internal_energy": -4.08, "cluster_size": 25, "cluster_id": 5, "rank_in_cluster": 16}

>  <energy>  (32) 
-6.96

>  <cluster_rmsd>  (32) 
0.41

>  <cluster>  (32) 
5

$$$$

     RDKit          3D

 54 58  0  0  0  0  0  0  0  0999 V2000
  141.4110   71.6920  222.2480 O   0  0  0  0  0  0  0  0  0  0  0  0
  140.4550   71.8690  223.0460 C   0  0  0  0  0  0  0  0  0  0  0  0
  139.3140   72.6620  222.7310 N   0  0  0  0  0  0  0  0  0  0  0  0
  139.2400   73.3050  221.4210 C   0  0  0  0  0  0  0  0  0  0  0  0
  140.4760   74.1100  221.2150 C   0  0  0  0  0  0  0  0  0  0  0  0
  140.7800   75.0050  222.0460 O   0  0  0  0  0  0  0  0  0  0  0  0
  141.2820   73.8570  220.0950 N   0  0  0  0  0  0  0  0  0  0  0  0
  142.3080   74.7640  219.5570 C   0  0  0  0  0  0  0  0  0  0  0  0
  142.2940   74.4790  218.0630 C   0  0  0  0  0  0  0  0  0  0  0  0
  141.3160   73.3390  217.8640 C   0  0  0  0  0  0  0  0  0  0  0  0
  141.3080   72.7090  219.2390 C   0  0  1  0  0  0  0  0  0  0  0  0
  142.4400   71.7940  219.4510 C   0  0  0  0  0  0  0  0  0  0  0  0
  143.5950   72.1800  220.1370 C   0  0  0  0  0  0  0  0  0  0  0  0
  144.4330   71.1410  220.1640 N   0  0  0  0  0  0  0  0  0  0  0  0
  143.8520   70.1130  219.5200 C   0  0  0  0  0  0  0  0  0  0  0  0
  144.4490   68.7960  219.3310 C   0  0  0  0  0  0  0  0  0  0  0  0
  143.7690   67.8000  218.6760 C   0  0  0  0  0  0  0  0  0  0  0  0
  144.3980   66.5680  218.5330 C   0  0  0  0  0  0  0  0  0  0  0  0
  145.6510   66.4150  219.0480 C   0  0  0  0  0  0  0  0  0  0  0  0
  146.3410   67.4170  219.7090 C   0  0  0  0  0  0  0  0  0  0  0  0
  145.6930   68.5990  219.8280 N   0  0  0  0  0  0  0  0  0  0  0  0
  142.6380   70.5240  219.0890 N   0  0  0  0  0  0  0  0  0  0  0  0
  140.5060   71.2310  224.3720 C   0  0  0  0  0  0  0  0  0  0  0  0
  141.0750   71.8890  225.4440 C   0  0  0  0  0  0  0  0  0  0  0  0
  141.1320   71.3060  226.6970 C   0  0  0  0  0  0  0  0  0  0  0  0
  140.6130   70.0550  226.8650 C   0  0  0  0  0  0  0  0  0  0  0  0
  140.6390   69.4220  228.0830 C   0  0  0  0  0  0  0  0  0  0  0  0
  140.1030   68.1480  228.2300 C   0  0  0  0  0  0  0  0  0  0  0  0
  139.5410   67.4950  227.1740 C   0  0  0  0  0  0  0  0  0  0  0  0
  139.5180   68.1370  225.9560 C   0  0  0  0  0  0  0  0  0  0  0  0
  140.0450   69.4030  225.7880 C   0  0  0  0  0  0  0  0  0  0  0  0
  140.0040   69.9990  224.5770 N   0  0  0  0  0  0  0  0  0  0  0  0
  138.5630   72.7580  223.4510 H   0  0  0  0  0  0  0  0  0  0  0  0
  139.1622   72.5384  220.6360 H   0  0  0  0  0  0  0  0  0  0  0  0
  138.3552   73.9567  221.3723 H   0  0  0  0  0  0  0  0  0  0  0  0
  142.0481   75.8137  219.7585 H   0  0  0  0  0  0  0  0  0  0  0  0
  143.2971   74.6062  220.0117 H   0  0  0  0  0  0  0  0  0  0  0  0
  141.9622   75.3685  217.5074 H   0  0  0  0  0  0  0  0  0  0  0  0
  143.2967   74.2185  217.6933 H   0  0  0  0  0  0  0  0  0  0  0  0
  140.3183   73.7089  217.5851 H   0  0  0  0  0  0  0  0  0  0  0  0
  141.5906   72.6472  217.0540 H   0  0  0  0  0  0  0  0  0  0  0  0
  140.4566   72.0384  219.4272 H   0  0  0  0  0  0  0  0  0  0  0  0
  143.7815   73.1700  220.5788 H   0  0  0  0  0  0  0  0  0  0  0  0
  145.3750   71.1400  220.6120 H   0  0  0  0  0  0  0  0  0  0  0  0
  142.7584   67.9708  218.2767 H   0  0  0  0  0  0  0  0  0  0  0  0
  143.8963   65.7364  218.0165 H   0  0  0  0  0  0  0  0  0  0  0  0
  146.1428   65.4380  218.9315 H   0  0  0  0  0  0  0  0  0  0  0  0
  147.3526   67.2619  220.1122 H   0  0  0  0  0  0  0  0  0  0  0  0
  141.4912   72.8968  225.2988 H   0  0  0  0  0  0  0  0  0  0  0  0
  141.5876   71.8412  227.5432 H   0  0  0  0  0  0  0  0  0  0  0  0
  141.0882   69.9277  228.9505 H   0  0  0  0  0  0  0  0  0  0  0  0
  140.1329   67.6588  229.2148 H   0  0  0  0  0  0  0  0  0  0  0  0
  139.1187   66.4861  227.2910 H   0  0  0  0  0  0  0  0  0  0  0  0
  139.0670   67.6272  225.0919 H   0  0  0  0  0  0  0  0  0  0  0  0
  1  2  2  0
  2  3  1  0
  3  4  1  0
  4  5  1  0
  5  6  2  0
  5  7  1  0
  7  8  1  0
  8  9  1  0
  9 10  1  0
 10 11  1  0
 11 12  1  0
 12 13  2  0
 13 14  1  0
 14 15  1  0
 15 16  1  0
 16 17  2  0
 17 18  1  0
 18 19  2  0
 19 20  1  0
 20 21  2  0
 15 22  2  0
  2 23  1  0
 23 24  2  0
 24 25  1  0
 25 26  2  0
 26 27  1  0
 27 28  2  0
 28 29  1  0
 29 30  2  0
 30 31  1  0
 31 32  2  0
 11  7  1  0
 22 12  1  0
 32 23  1  0
 21 16  1  0
 31 26  1  0
  3 33  1  0
  4 34  1  0
  4 35  1  0
  8 36  1  0
  8 37  1  0
  9 38  1  0
  9 39  1  0
 10 40  1  0
 10 41  1  0
 11 42  1  6
 13 43  1  0
 14 44  1  0
 17 45  1  0
 18 46  1  0
 19 47  1  0
 20 48  1  0
 24 49  1  0
 25 50  1  0
 27 51  1  0
 28 52  1  0
 29 53  1  0
 30 54  1  0
M  END
>  <smiles>  (33) 
O=C(NCC(=O)N1CCC[C@H]1c1c[nH]c(-c2ccccn2)n1)c1ccc2ccccc2n1

>  <score_type>  (33) 
oracle

>  <origin>  (33) 
autodockgpu

>  <m_score__min__energy>  (33) 
-9.4800000000000004

>  <m_primary>  (33) 
energy

>  <rmsd>  (33) 
7.5473165217710925

>  <m_score__min__rmsd>  (33) 
7.5473165217710925

>  <meeko>  (33) 
{"free_energy": -8.9, "intermolecular_energy": -10.69, "internal_energy": -1.64, "cluster_size": 2, "cluster_id": 3, "rank_in_cluster": 1}

>  <energy>  (33) 
-6.84

>  <cluster_rmsd>  (33) 
0.82

>  <cluster>  (33) 
5

$$$$

     RDKit          3D

 54 58  0  0  0  0  0  0  0  0999 V2000
  139.2080   74.5850  222.3310 O   0  0  0  0  0  0  0  0  0  0  0  0
  140.1980   75.1140  221.7630 C   0  0  0  0  0  0  0  0  0  0  0  0
  140.2950   76.5120  221.5110 N   0  0  0  0  0  0  0  0  0  0  0  0
  139.1990   77.3850  221.9260 C   0  0  0  0  0  0  0  0  0  0  0  0
  139.7610   78.5070  222.7270 C   0  0  0  0  0  0  0  0  0  0  0  0
  139.2030   78.8410  223.8050 O   0  0  0  0  0  0  0  0  0  0  0  0
  140.9040   79.1760  222.2650 N   0  0  0  0  0  0  0  0  0  0  0  0
  142.2410   79.1070  222.8750 C   0  0  0  0  0  0  0  0  0  0  0  0
  142.8410   80.4750  222.5870 C   0  0  0  0  0  0  0  0  0  0  0  0
  141.8250   81.2060  221.7330 C   0  0  0  0  0  0  0  0  0  0  0  0
  141.0480   80.0510  221.1400 C   0  0  1  0  0  0  0  0  0  0  0  0
  141.7140   79.4610  219.9680 C   0  0  0  0  0  0  0  0  0  0  0  0
  142.3130   80.2440  218.9770 C   0  0  0  0  0  0  0  0  0  0  0  0
  142.8270   79.4280  218.0530 N   0  0  0  0  0  0  0  0  0  0  0  0
  142.5750   78.1600  218.4230 C   0  0  0  0  0  0  0  0  0  0  0  0
  142.9750   76.9720  217.6760 C   0  0  0  0  0  0  0  0  0  0  0  0
  142.6910   75.7140  218.1460 C   0  0  0  0  0  0  0  0  0  0  0  0
  143.1020   74.6270  217.3820 C   0  0  0  0  0  0  0  0  0  0  0  0
  143.7630   74.8670  216.2140 C   0  0  0  0  0  0  0  0  0  0  0  0
  144.0510   76.1350  215.7360 C   0  0  0  0  0  0  0  0  0  0  0  0
  143.6340   77.1640  216.5090 N   0  0  0  0  0  0  0  0  0  0  0  0
  141.8960   78.1930  219.5910 N   0  0  0  0  0  0  0  0  0  0  0  0
  141.3150   74.2560  221.3360 C   0  0  0  0  0  0  0  0  0  0  0  0
  141.1260   72.9000  221.1540 C   0  0  0  0  0  0  0  0  0  0  0  0
  142.1650   72.0790  220.7520 C   0  0  0  0  0  0  0  0  0  0  0  0
  143.3950   72.6290  220.5360 C   0  0  0  0  0  0  0  0  0  0  0  0
  144.4650   71.8670  220.1370 C   0  0  0  0  0  0  0  0  0  0  0  0
  145.7080   72.4510  219.9220 C   0  0  0  0  0  0  0  0  0  0  0  0
  145.8970   73.7880  220.1010 C   0  0  0  0  0  0  0  0  0  0  0  0
  144.8190   74.5460  220.5010 C   0  0  0  0  0  0  0  0  0  0  0  0
  143.5750   73.9860  220.7200 C   0  0  0  0  0  0  0  0  0  0  0  0
  142.5420   74.7630  221.1130 N   0  0  0  0  0  0  0  0  0  0  0  0
  141.1530   76.8710  221.0340 H   0  0  0  0  0  0  0  0  0  0  0  0
  138.6869   77.7841  221.0380 H   0  0  0  0  0  0  0  0  0  0  0  0
  138.4758   76.8179  222.5304 H   0  0  0  0  0  0  0  0  0  0  0  0
  142.1690   78.9306  223.9584 H   0  0  0  0  0  0  0  0  0  0  0  0
  142.8494   78.2824  222.4752 H   0  0  0  0  0  0  0  0  0  0  0  0
  143.0148   81.0213  223.5258 H   0  0  0  0  0  0  0  0  0  0  0  0
  143.8107   80.3896  222.0747 H   0  0  0  0  0  0  0  0  0  0  0  0
  141.1790   81.8547  222.3428 H   0  0  0  0  0  0  0  0  0  0  0  0
  142.2678   81.8811  220.9859 H   0  0  0  0  0  0  0  0  0  0  0  0
  140.0742   80.3305  220.7116 H   0  0  0  0  0  0  0  0  0  0  0  0
  142.3540   81.3431  218.9609 H   0  0  0  0  0  0  0  0  0  0  0  0
  143.3350   79.7350  217.1950 H   0  0  0  0  0  0  0  0  0  0  0  0
  142.1557   75.5703  219.0961 H   0  0  0  0  0  0  0  0  0  0  0  0
  142.8985   73.5977  217.7124 H   0  0  0  0  0  0  0  0  0  0  0  0
  144.0868   74.0026  215.6157 H   0  0  0  0  0  0  0  0  0  0  0  0
  144.5850   76.2950  214.7877 H   0  0  0  0  0  0  0  0  0  0  0  0
  140.1316   72.4647  221.3318 H   0  0  0  0  0  0  0  0  0  0  0  0
  142.0020   71.0006  220.6089 H   0  0  0  0  0  0  0  0  0  0  0  0
  144.3376   70.7849  219.9861 H   0  0  0  0  0  0  0  0  0  0  0  0
  146.5527   71.8232  219.6021 H   0  0  0  0  0  0  0  0  0  0  0  0
  146.8814   74.2486  219.9311 H   0  0  0  0  0  0  0  0  0  0  0  0
  144.9521   75.6277  220.6504 H   0  0  0  0  0  0  0  0  0  0  0  0
  1  2  2  0
  2  3  1  0
  3  4  1  0
  4  5  1  0
  5  6  2  0
  5  7  1  0
  7  8  1  0
  8  9  1  0
  9 10  1  0
 10 11  1  0
 11 12  1  0
 12 13  2  0
 13 14  1  0
 14 15  1  0
 15 16  1  0
 16 17  2  0
 17 18  1  0
 18 19  2  0
 19 20  1  0
 20 21  2  0
 15 22  2  0
  2 23  1  0
 23 24  2  0
 24 25  1  0
 25 26  2  0
 26 27  1  0
 27 28  2  0
 28 29  1  0
 29 30  2  0
 30 31  1  0
 31 32  2  0
 11  7  1  0
 22 12  1  0
 32 23  1  0
 21 16  1  0
 31 26  1  0
  3 33  1  0
  4 34  1  0
  4 35  1  0
  8 36  1  0
  8 37  1  0
  9 38  1  0
  9 39  1  0
 10 40  1  0
 10 41  1  0
 11 42  1  6
 13 43  1  0
 14 44  1  0
 17 45  1  0
 18 46  1  0
 19 47  1  0
 20 48  1  0
 24 49  1  0
 25 50  1  0
 27 51  1  0
 28 52  1  0
 29 53  1  0
 30 54  1  0
M  END
>  <smiles>  (34) 
O=C(NCC(=O)N1CCC[C@H]1c1c[nH]c(-c2ccccn2)n1)c1ccc2ccccc2n1

>  <score_type>  (34) 
oracle

>  <origin>  (34) 
autodockgpu

>  <m_score__min__energy>  (34) 
-9.4800000000000004

>  <m_primary>  (34) 
energy

>  <rmsd>  (34) 
6.743073632364628

>  <m_score__min__rmsd>  (34) 
6.743073632364628

>  <meeko>  (34) 
{"free_energy": -7.45, "intermolecular_energy": -9.24, "internal_energy": -3.81, "cluster_size": 25, "cluster_id": 5, "rank_in_cluster": 1}

>  <energy>  (34) 
-6.83

>  <cluster_rmsd>  (34) 
0.63

>  <cluster>  (34) 
5

$$$$

     RDKit          3D

 54 58  0  0  0  0  0  0  0  0999 V2000
  137.5000   75.8610  222.5360 O   0  0  0  0  0  0  0  0  0  0  0  0
  138.7440   76.0330  222.4750 C   0  0  0  0  0  0  0  0  0  0  0  0
  139.6620   74.9850  222.1790 N   0  0  0  0  0  0  0  0  0  0  0  0
  139.1460   73.6400  221.9350 C   0  0  0  0  0  0  0  0  0  0  0  0
  140.2960   72.7200  221.7180 C   0  0  0  0  0  0  0  0  0  0  0  0
  140.4170   71.6960  222.4410 O   0  0  0  0  0  0  0  0  0  0  0  0
  141.2290   73.0090  220.7110 N   0  0  0  0  0  0  0  0  0  0  0  0
  141.0700   72.6970  219.2830 C   0  0  0  0  0  0  0  0  0  0  0  0
  142.4940   72.4480  218.8070 C   0  0  0  0  0  0  0  0  0  0  0  0
  143.3880   72.7380  219.9950 C   0  0  0  0  0  0  0  0  0  0  0  0
  142.5050   73.6510  220.8180 C   0  0  1  0  0  0  0  0  0  0  0  0
  142.5460   75.0470  220.3560 C   0  0  0  0  0  0  0  0  0  0  0  0
  143.6830   75.6050  219.7640 C   0  0  0  0  0  0  0  0  0  0  0  0
  143.4130   76.8760  219.4570 N   0  0  0  0  0  0  0  0  0  0  0  0
  142.1500   77.1420  219.8320 C   0  0  0  0  0  0  0  0  0  0  0  0
  141.4780   78.4270  219.6680 C   0  0  0  0  0  0  0  0  0  0  0  0
  142.1930   79.5700  219.4110 C   0  0  0  0  0  0  0  0  0  0  0  0
  141.4870   80.7600  219.2660 C   0  0  0  0  0  0  0  0  0  0  0  0
  140.1300   80.7290  219.3860 C   0  0  0  0  0  0  0  0  0  0  0  0
  139.4040   79.5770  219.6450 C   0  0  0  0  0  0  0  0  0  0  0  0
  140.1280   78.4420  219.7790 N   0  0  0  0  0  0  0  0  0  0  0  0
  141.6320   76.0200  220.3800 N   0  0  0  0  0  0  0  0  0  0  0  0
  139.2890   77.3790  222.7170 C   0  0  0  0  0  0  0  0  0  0  0  0
  138.4420   78.4540  222.8980 C   0  0  0  0  0  0  0  0  0  0  0  0
  138.9360   79.7270  223.1270 C   0  0  0  0  0  0  0  0  0  0  0  0
  140.2870   79.9110  223.1720 C   0  0  0  0  0  0  0  0  0  0  0  0
  140.8390   81.1480  223.3950 C   0  0  0  0  0  0  0  0  0  0  0  0
  142.2180   81.3100  223.4380 C   0  0  0  0  0  0  0  0  0  0  0  0
  143.0570   80.2510  223.2590 C   0  0  0  0  0  0  0  0  0  0  0  0
  142.4970   79.0130  223.0360 C   0  0  0  0  0  0  0  0  0  0  0  0
  141.1280   78.8300  222.9900 C   0  0  0  0  0  0  0  0  0  0  0  0
  140.6160   77.6000  222.7690 N   0  0  0  0  0  0  0  0  0  0  0  0
  140.6820   75.2130  222.1470 H   0  0  0  0  0  0  0  0  0  0  0  0
  138.5621   73.3041  222.8046 H   0  0  0  0  0  0  0  0  0  0  0  0
  138.4958   73.6431  221.0477 H   0  0  0  0  0  0  0  0  0  0  0  0
  140.4477   71.8006  219.1443 H   0  0  0  0  0  0  0  0  0  0  0  0
  140.5684   73.5010  218.7244 H   0  0  0  0  0  0  0  0  0  0  0  0
  142.6123   71.4026  218.4858 H   0  0  0  0  0  0  0  0  0  0  0  0
  142.7483   73.0843  217.9465 H   0  0  0  0  0  0  0  0  0  0  0  0
  143.6383   71.8183  220.5441 H   0  0  0  0  0  0  0  0  0  0  0  0
  144.3618   73.1747  219.7287 H   0  0  0  0  0  0  0  0  0  0  0  0
  142.8191   73.7661  221.8659 H   0  0  0  0  0  0  0  0  0  0  0  0
  144.6359   75.0863  219.5824 H   0  0  0  0  0  0  0  0  0  0  0  0
  144.0780   77.5390  219.0030 H   0  0  0  0  0  0  0  0  0  0  0  0
  143.2892   79.5460  219.3225 H   0  0  0  0  0  0  0  0  0  0  0  0
  142.0121   81.7042  219.0593 H   0  0  0  0  0  0  0  0  0  0  0  0
  139.5783   81.6736  219.2705 H   0  0  0  0  0  0  0  0  0  0  0  0
  138.3078   79.5851  219.7359 H   0  0  0  0  0  0  0  0  0  0  0  0
  137.3541   78.2962  222.8596 H   0  0  0  0  0  0  0  0  0  0  0  0
  138.2508   80.5755  223.2702 H   0  0  0  0  0  0  0  0  0  0  0  0
  140.1832   82.0190  223.5410 H   0  0  0  0  0  0  0  0  0  0  0  0
  142.6398   82.3096  223.6195 H   0  0  0  0  0  0  0  0  0  0  0  0
  144.1488   80.3814  223.2917 H   0  0  0  0  0  0  0  0  0  0  0  0
  143.1576   78.1456  222.8904 H   0  0  0  0  0  0  0  0  0  0  0  0
  1  2  2  0
  2  3  1  0
  3  4  1  0
  4  5  1  0
  5  6  2  0
  5  7  1  0
  7  8  1  0
  8  9  1  0
  9 10  1  0
 10 11  1  0
 11 12  1  0
 12 13  2  0
 13 14  1  0
 14 15  1  0
 15 16  1  0
 16 17  2  0
 17 18  1  0
 18 19  2  0
 19 20  1  0
 20 21  2  0
 15 22  2  0
  2 23  1  0
 23 24  2  0
 24 25  1  0
 25 26  2  0
 26 27  1  0
 27 28  2  0
 28 29  1  0
 29 30  2  0
 30 31  1  0
 31 32  2  0
 11  7  1  0
 22 12  1  0
 32 23  1  0
 21 16  1  0
 31 26  1  0
  3 33  1  0
  4 34  1  0
  4 35  1  0
  8 36  1  0
  8 37  1  0
  9 38  1  0
  9 39  1  0
 10 40  1  0
 10 41  1  0
 11 42  1  1
 13 43  1  0
 14 44  1  0
 17 45  1  0
 18 46  1  0
 19 47  1  0
 20 48  1  0
 24 49  1  0
 25 50  1  0
 27 51  1  0
 28 52  1  0
 29 53  1  0
 30 54  1  0
M  END
>  <smiles>  (35) 
O=C(NCC(=O)N1CCC[C@H]1c1c[nH]c(-c2ccccn2)n1)c1ccc2ccccc2n1

>  <score_type>  (35) 
oracle

>  <origin>  (35) 
autodockgpu

>  <m_score__min__energy>  (35) 
-9.4800000000000004

>  <m_primary>  (35) 
energy

>  <rmsd>  (35) 
6.76079607270436

>  <m_score__min__rmsd>  (35) 
6.76079607270436

>  <meeko>  (35) 
{"free_energy": -6.68, "intermolecular_energy": -8.47, "internal_energy": -4.36, "cluster_size": 14, "cluster_id": 6, "rank_in_cluster": 5}

>  <energy>  (35) 
-6.78

>  <cluster_rmsd>  (35) 
0.69

>  <cluster>  (35) 
5

$$$$

     RDKit          3D

 54 58  0  0  0  0  0  0  0  0999 V2000
  139.1860   74.4550  222.2550 O   0  0  0  0  0  0  0  0  0  0  0  0
  140.2310   75.0080  221.8240 C   0  0  0  0  0  0  0  0  0  0  0  0
  140.3800   76.4220  221.7260 N   0  0  0  0  0  0  0  0  0  0  0  0
  139.2730   77.2800  222.1410 C   0  0  0  0  0  0  0  0  0  0  0  0
  139.8330   78.4960  222.7940 C   0  0  0  0  0  0  0  0  0  0  0  0
  139.2670   78.9680  223.8160 O   0  0  0  0  0  0  0  0  0  0  0  0
  140.9830   79.0960  222.2610 N   0  0  0  0  0  0  0  0  0  0  0  0
  142.3260   79.0540  222.8590 C   0  0  0  0  0  0  0  0  0  0  0  0
  142.9490   80.3770  222.4410 C   0  0  0  0  0  0  0  0  0  0  0  0
  141.9370   81.0480  221.5350 C   0  0  0  0  0  0  0  0  0  0  0  0
  141.1300   79.8610  221.0590 C   0  0  1  0  0  0  0  0  0  0  0  0
  141.7680   79.1530  219.9380 C   0  0  0  0  0  0  0  0  0  0  0  0
  142.3860   79.8290  218.8820 C   0  0  0  0  0  0  0  0  0  0  0  0
  142.8670   78.9220  218.0290 N   0  0  0  0  0  0  0  0  0  0  0  0
  142.5760   77.6980  218.5050 C   0  0  0  0  0  0  0  0  0  0  0  0
  142.9310   76.4390  217.8600 C   0  0  0  0  0  0  0  0  0  0  0  0
  142.2200   75.2920  218.1090 C   0  0  0  0  0  0  0  0  0  0  0  0
  142.6150   74.1280  217.4590 C   0  0  0  0  0  0  0  0  0  0  0  0
  143.6820   74.1860  216.6130 C   0  0  0  0  0  0  0  0  0  0  0  0
  144.4020   75.3420  216.3570 C   0  0  0  0  0  0  0  0  0  0  0  0
  143.9860   76.4520  217.0100 N   0  0  0  0  0  0  0  0  0  0  0  0
  141.9050   77.8520  219.6690 N   0  0  0  0  0  0  0  0  0  0  0  0
  141.3600   74.1640  221.4000 C   0  0  0  0  0  0  0  0  0  0  0  0
  141.2000   72.8000  221.2610 C   0  0  0  0  0  0  0  0  0  0  0  0
  142.2500   71.9910  220.8630 C   0  0  0  0  0  0  0  0  0  0  0  0
  143.4620   72.5630  220.6070 C   0  0  0  0  0  0  0  0  0  0  0  0
  144.5420   71.8140  220.2090 C   0  0  0  0  0  0  0  0  0  0  0  0
  145.7670   72.4200  219.9530 C   0  0  0  0  0  0  0  0  0  0  0  0
  145.9280   73.7660  220.0900 C   0  0  0  0  0  0  0  0  0  0  0  0
  144.8400   74.5100  220.4890 C   0  0  0  0  0  0  0  0  0  0  0  0
  143.6140   73.9280  220.7480 C   0  0  0  0  0  0  0  0  0  0  0  0
  142.5710   74.6920  221.1380 N   0  0  0  0  0  0  0  0  0  0  0  0
  141.2820   76.8000  221.3570 H   0  0  0  0  0  0  0  0  0  0  0  0
  138.6802   77.5714  221.2614 H   0  0  0  0  0  0  0  0  0  0  0  0
  138.6233   76.7405  222.8458 H   0  0  0  0  0  0  0  0  0  0  0  0
  142.2652   78.9780  223.9547 H   0  0  0  0  0  0  0  0  0  0  0  0
  142.9123   78.1838  222.5289 H   0  0  0  0  0  0  0  0  0  0  0  0
  143.1454   81.0028  223.3241 H   0  0  0  0  0  0  0  0  0  0  0  0
  143.9103   80.2252  221.9282 H   0  0  0  0  0  0  0  0  0  0  0  0
  141.3119   81.7631  222.0899 H   0  0  0  0  0  0  0  0  0  0  0  0
  142.3835   81.6426  220.7244 H   0  0  0  0  0  0  0  0  0  0  0  0
  140.1564   80.1203  220.6175 H   0  0  0  0  0  0  0  0  0  0  0  0
  142.4627   80.9209  218.7728 H   0  0  0  0  0  0  0  0  0  0  0  0
  143.3790   79.1380  217.1460 H   0  0  0  0  0  0  0  0  0  0  0  0
  141.3648   75.2934  218.8008 H   0  0  0  0  0  0  0  0  0  0  0  0
  142.0786   73.1819  217.6238 H   0  0  0  0  0  0  0  0  0  0  0  0
  143.9897   73.2609  216.1036 H   0  0  0  0  0  0  0  0  0  0  0  0
  145.2580   75.3565  215.6663 H   0  0  0  0  0  0  0  0  0  0  0  0
  140.2195   72.3475  221.4705 H   0  0  0  0  0  0  0  0  0  0  0  0
  142.1098   70.9053  220.7549 H   0  0  0  0  0  0  0  0  0  0  0  0
  144.4371   70.7253  220.0917 H   0  0  0  0  0  0  0  0  0  0  0  0
  146.6200   71.8027  219.6347 H   0  0  0  0  0  0  0  0  0  0  0  0
  146.8979   74.2440  219.8880 H   0  0  0  0  0  0  0  0  0  0  0  0
  144.9501   75.5983  220.6048 H   0  0  0  0  0  0  0  0  0  0  0  0
  1  2  2  0
  2  3  1  0
  3  4  1  0
  4  5  1  0
  5  6  2  0
  5  7  1  0
  7  8  1  0
  8  9  1  0
  9 10  1  0
 10 11  1  0
 11 12  1  0
 12 13  2  0
 13 14  1  0
 14 15  1  0
 15 16  1  0
 16 17  2  0
 17 18  1  0
 18 19  2  0
 19 20  1  0
 20 21  2  0
 15 22  2  0
  2 23  1  0
 23 24  2  0
 24 25  1  0
 25 26  2  0
 26 27  1  0
 27 28  2  0
 28 29  1  0
 29 30  2  0
 30 31  1  0
 31 32  2  0
 11  7  1  0
 22 12  1  0
 32 23  1  0
 21 16  1  0
 31 26  1  0
  3 33  1  0
  4 34  1  0
  4 35  1  0
  8 36  1  0
  8 37  1  0
  9 38  1  0
  9 39  1  0
 10 40  1  0
 10 41  1  0
 11 42  1  6
 13 43  1  0
 14 44  1  0
 17 45  1  0
 18 46  1  0
 19 47  1  0
 20 48  1  0
 24 49  1  0
 25 50  1  0
 27 51  1  0
 28 52  1  0
 29 53  1  0
 30 54  1  0
M  END
>  <smiles>  (36) 
O=C(NCC(=O)N1CCC[C@H]1c1c[nH]c(-c2ccccn2)n1)c1ccc2ccccc2n1

>  <score_type>  (36) 
oracle

>  <origin>  (36) 
autodockgpu

>  <m_score__min__energy>  (36) 
-9.4800000000000004

>  <m_primary>  (36) 
energy

>  <rmsd>  (36) 
6.776486633738792

>  <m_score__min__rmsd>  (36) 
6.776486633738792

>  <meeko>  (36) 
{"free_energy": -7.09, "intermolecular_energy": -8.88, "internal_energy": -4.13, "cluster_size": 25, "cluster_id": 5, "rank_in_cluster": 18}

>  <energy>  (36) 
-7.13

>  <cluster_rmsd>  (36) 
0.0

>  <cluster>  (36) 
6

$$$$

     RDKit          3D

 54 58  0  0  0  0  0  0  0  0999 V2000
  138.4040   70.2410  221.6160 O   0  0  0  0  0  0  0  0  0  0  0  0
  138.8400   71.0050  222.5150 C   0  0  0  0  0  0  0  0  0  0  0  0
  138.9310   72.4180  222.3590 N   0  0  0  0  0  0  0  0  0  0  0  0
  138.4990   73.0200  221.1000 C   0  0  0  0  0  0  0  0  0  0  0  0
  137.1540   73.6270  221.2990 C   0  0  0  0  0  0  0  0  0  0  0  0
  136.1230   72.9480  221.0460 O   0  0  0  0  0  0  0  0  0  0  0  0
  137.0560   74.9460  221.7650 N   0  0  0  0  0  0  0  0  0  0  0  0
  136.5200   75.3540  223.0730 C   0  0  0  0  0  0  0  0  0  0  0  0
  135.9050   76.7190  222.8020 C   0  0  0  0  0  0  0  0  0  0  0  0
  136.2270   77.0420  221.3570 C   0  0  0  0  0  0  0  0  0  0  0  0
  137.4360   76.1660  221.1170 C   0  0  1  0  0  0  0  0  0  0  0  0
  138.6840   76.7730  221.6040 C   0  0  0  0  0  0  0  0  0  0  0  0
  139.8470   76.0270  221.8110 C   0  0  0  0  0  0  0  0  0  0  0  0
  140.8000   76.8510  222.2530 N   0  0  0  0  0  0  0  0  0  0  0  0
  140.2830   78.0900  222.3330 C   0  0  0  0  0  0  0  0  0  0  0  0
  141.0080   79.2760  222.7750 C   0  0  0  0  0  0  0  0  0  0  0  0
  140.4870   80.5320  222.5930 C   0  0  0  0  0  0  0  0  0  0  0  0
  141.2330   81.6170  223.0390 C   0  0  0  0  0  0  0  0  0  0  0  0
  142.4380   81.3780  223.6310 C   0  0  0  0  0  0  0  0  0  0  0  0
  142.9680   80.1120  223.8170 C   0  0  0  0  0  0  0  0  0  0  0  0
  142.2100   79.0840  223.3690 N   0  0  0  0  0  0  0  0  0  0  0  0
  138.9920   78.0300  221.9360 N   0  0  0  0  0  0  0  0  0  0  0  0
  139.2810   70.4220  223.7930 C   0  0  0  0  0  0  0  0  0  0  0  0
  139.1630   69.0650  224.0200 C   0  0  0  0  0  0  0  0  0  0  0  0
  139.5730   68.4990  225.2150 C   0  0  0  0  0  0  0  0  0  0  0  0
  140.1000   69.3070  226.1800 C   0  0  0  0  0  0  0  0  0  0  0  0
  140.5230   68.8060  227.3860 C   0  0  0  0  0  0  0  0  0  0  0  0
  141.0580   69.6480  228.3530 C   0  0  0  0  0  0  0  0  0  0  0  0
  141.1750   70.9880  228.1320 C   0  0  0  0  0  0  0  0  0  0  0  0
  140.7480   71.4830  226.9200 C   0  0  0  0  0  0  0  0  0  0  0  0
  140.2140   70.6620  225.9450 C   0  0  0  0  0  0  0  0  0  0  0  0
  139.8060   71.1860  224.7680 N   0  0  0  0  0  0  0  0  0  0  0  0
  139.3050   72.9810  223.1560 H   0  0  0  0  0  0  0  0  0  0  0  0
  139.2151   73.7978  220.7965 H   0  0  0  0  0  0  0  0  0  0  0  0
  138.4515   72.2522  220.3138 H   0  0  0  0  0  0  0  0  0  0  0  0
  135.7574   74.6429  223.4233 H   0  0  0  0  0  0  0  0  0  0  0  0
  137.2894   75.3819  223.8586 H   0  0  0  0  0  0  0  0  0  0  0  0
  134.8159   76.6843  222.9525 H   0  0  0  0  0  0  0  0  0  0  0  0
  136.3040   77.4837  223.4846 H   0  0  0  0  0  0  0  0  0  0  0  0
  135.3955   76.7716  220.6895 H   0  0  0  0  0  0  0  0  0  0  0  0
  136.4009   78.1108  221.1634 H   0  0  0  0  0  0  0  0  0  0  0  0
  137.6795   76.0078  220.0560 H   0  0  0  0  0  0  0  0  0  0  0  0
  139.9584   74.9462  221.6393 H   0  0  0  0  0  0  0  0  0  0  0  0
  141.7760   76.5700  222.4910 H   0  0  0  0  0  0  0  0  0  0  0  0
  139.5096   80.6761  222.1093 H   0  0  0  0  0  0  0  0  0  0  0  0
  140.8599   82.6446  222.9172 H   0  0  0  0  0  0  0  0  0  0  0  0
  143.0232   82.2410  223.9812 H   0  0  0  0  0  0  0  0  0  0  0  0
  143.9439   79.9520  224.2987 H   0  0  0  0  0  0  0  0  0  0  0  0
  138.7353   68.4219  223.2368 H   0  0  0  0  0  0  0  0  0  0  0  0
  139.4756   67.4164  225.3837 H   0  0  0  0  0  0  0  0  0  0  0  0
  140.4376   67.7282  227.5886 H   0  0  0  0  0  0  0  0  0  0  0  0
  141.3926   69.2265  229.3124 H   0  0  0  0  0  0  0  0  0  0  0  0
  141.5978   71.6539  228.8987 H   0  0  0  0  0  0  0  0  0  0  0  0
  140.8343   72.5617  226.7225 H   0  0  0  0  0  0  0  0  0  0  0  0
  1  2  2  0
  2  3  1  0
  3  4  1  0
  4  5  1  0
  5  6  2  0
  5  7  1  0
  7  8  1  0
  8  9  1  0
  9 10  1  0
 10 11  1  0
 11 12  1  0
 12 13  2  0
 13 14  1  0
 14 15  1  0
 15 16  1  0
 16 17  2  0
 17 18  1  0
 18 19  2  0
 19 20  1  0
 20 21  2  0
 15 22  2  0
  2 23  1  0
 23 24  2  0
 24 25  1  0
 25 26  2  0
 26 27  1  0
 27 28  2  0
 28 29  1  0
 29 30  2  0
 30 31  1  0
 31 32  2  0
 11  7  1  0
 22 12  1  0
 32 23  1  0
 21 16  1  0
 31 26  1  0
  3 33  1  0
  4 34  1  0
  4 35  1  0
  8 36  1  0
  8 37  1  0
  9 38  1  0
  9 39  1  0
 10 40  1  0
 10 41  1  0
 11 42  1  6
 13 43  1  0
 14 44  1  0
 17 45  1  0
 18 46  1  0
 19 47  1  0
 20 48  1  0
 24 49  1  0
 25 50  1  0
 27 51  1  0
 28 52  1  0
 29 53  1  0
 30 54  1  0
M  END
>  <smiles>  (37) 
O=C(NCC(=O)N1CCC[C@H]1c1c[nH]c(-c2ccccn2)n1)c1ccc2ccccc2n1

>  <score_type>  (37) 
oracle

>  <origin>  (37) 
autodockgpu

>  <m_score__min__energy>  (37) 
-9.4800000000000004

>  <m_primary>  (37) 
energy

>  <rmsd>  (37) 
3.4760171135977416

>  <m_score__min__rmsd>  (37) 
3.4760171135977416

>  <meeko>  (37) 
{"free_energy": -8.67, "intermolecular_energy": -10.46, "internal_energy": -1.94, "cluster_size": 6, "cluster_id": 2, "rank_in_cluster": 6}

>  <energy>  (37) 
-6.96

>  <cluster_rmsd>  (37) 
1.08

>  <cluster>  (37) 
6

$$$$

     RDKit          3D

 54 58  0  0  0  0  0  0  0  0999 V2000
  139.1000   74.5520  221.9680 O   0  0  0  0  0  0  0  0  0  0  0  0
  140.2220   75.0730  221.7370 C   0  0  0  0  0  0  0  0  0  0  0  0
  140.4640   76.4740  221.8330 N   0  0  0  0  0  0  0  0  0  0  0  0
  139.3650   77.3580  222.2160 C   0  0  0  0  0  0  0  0  0  0  0  0
  139.9330   78.5640  222.8800 C   0  0  0  0  0  0  0  0  0  0  0  0
  139.4090   78.9930  223.9410 O   0  0  0  0  0  0  0  0  0  0  0  0
  141.0440   79.2030  222.3100 N   0  0  0  0  0  0  0  0  0  0  0  0
  142.3950   79.2520  222.8910 C   0  0  0  0  0  0  0  0  0  0  0  0
  142.9430   80.5900  222.4180 C   0  0  0  0  0  0  0  0  0  0  0  0
  141.8870   81.1750  221.5030 C   0  0  0  0  0  0  0  0  0  0  0  0
  141.1370   79.9310  221.0800 C   0  0  1  0  0  0  0  0  0  0  0  0
  141.7980   79.2180  219.9760 C   0  0  0  0  0  0  0  0  0  0  0  0
  142.4490   79.8880  218.9370 C   0  0  0  0  0  0  0  0  0  0  0  0
  142.9440   78.9770  218.0960 N   0  0  0  0  0  0  0  0  0  0  0  0
  142.6310   77.7560  218.5650 C   0  0  0  0  0  0  0  0  0  0  0  0
  142.9930   76.4940  217.9290 C   0  0  0  0  0  0  0  0  0  0  0  0
  142.2610   75.3550  218.1530 C   0  0  0  0  0  0  0  0  0  0  0  0
  142.6630   74.1870  217.5140 C   0  0  0  0  0  0  0  0  0  0  0  0
  143.7580   74.2340  216.7030 C   0  0  0  0  0  0  0  0  0  0  0  0
  144.4990   75.3820  216.4730 C   0  0  0  0  0  0  0  0  0  0  0  0
  144.0740   76.4950  217.1140 N   0  0  0  0  0  0  0  0  0  0  0  0
  141.9320   77.9160  219.7110 N   0  0  0  0  0  0  0  0  0  0  0  0
  141.3450   74.2040  221.3500 C   0  0  0  0  0  0  0  0  0  0  0  0
  141.1670   72.8390  221.2410 C   0  0  0  0  0  0  0  0  0  0  0  0
  142.2110   72.0060  220.8780 C   0  0  0  0  0  0  0  0  0  0  0  0
  143.4350   72.5540  220.6260 C   0  0  0  0  0  0  0  0  0  0  0  0
  144.5090   71.7820  220.2630 C   0  0  0  0  0  0  0  0  0  0  0  0
  145.7460   72.3630  220.0110 C   0  0  0  0  0  0  0  0  0  0  0  0
  145.9250   73.7100  220.1180 C   0  0  0  0  0  0  0  0  0  0  0  0
  144.8420   74.4790  220.4830 C   0  0  0  0  0  0  0  0  0  0  0  0
  143.6040   73.9200  220.7380 C   0  0  0  0  0  0  0  0  0  0  0  0
  142.5660   74.7080  221.0940 N   0  0  0  0  0  0  0  0  0  0  0  0
  141.4260   76.8250  221.6260 H   0  0  0  0  0  0  0  0  0  0  0  0
  138.8023   77.6590  221.3200 H   0  0  0  0  0  0  0  0  0  0  0  0
  138.6856   76.8351  222.9052 H   0  0  0  0  0  0  0  0  0  0  0  0
  142.3512   79.2123  223.9894 H   0  0  0  0  0  0  0  0  0  0  0  0
  143.0221   78.4020  222.5838 H   0  0  0  0  0  0  0  0  0  0  0  0
  143.1169   81.2563  223.2758 H   0  0  0  0  0  0  0  0  0  0  0  0
  143.9046   80.4698  221.8976 H   0  0  0  0  0  0  0  0  0  0  0  0
  141.2322   81.8763  222.0409 H   0  0  0  0  0  0  0  0  0  0  0  0
  142.2923   81.7624  220.6660 H   0  0  0  0  0  0  0  0  0  0  0  0
  140.1459   80.1232  220.6432 H   0  0  0  0  0  0  0  0  0  0  0  0
  142.5384   80.9792  218.8303 H   0  0  0  0  0  0  0  0  0  0  0  0
  143.4810   79.1890  217.2270 H   0  0  0  0  0  0  0  0  0  0  0  0
  141.3840   75.3655  218.8170 H   0  0  0  0  0  0  0  0  0  0  0  0
  142.1104   73.2471  217.6595 H   0  0  0  0  0  0  0  0  0  0  0  0
  144.0715   73.3063  216.2020 H   0  0  0  0  0  0  0  0  0  0  0  0
  145.3774   75.3880  215.8110 H   0  0  0  0  0  0  0  0  0  0  0  0
  140.1771   72.4056  221.4465 H   0  0  0  0  0  0  0  0  0  0  0  0
  142.0566   70.9201  220.7940 H   0  0  0  0  0  0  0  0  0  0  0  0
  144.3900   70.6924  220.1704 H   0  0  0  0  0  0  0  0  0  0  0  0
  146.5942   71.7257  219.7206 H   0  0  0  0  0  0  0  0  0  0  0  0
  146.9046   74.1691  219.9189 H   0  0  0  0  0  0  0  0  0  0  0  0
  144.9659   75.5682  220.5740 H   0  0  0  0  0  0  0  0  0  0  0  0
  1  2  2  0
  2  3  1  0
  3  4  1  0
  4  5  1  0
  5  6  2  0
  5  7  1  0
  7  8  1  0
  8  9  1  0
  9 10  1  0
 10 11  1  0
 11 12  1  0
 12 13  2  0
 13 14  1  0
 14 15  1  0
 15 16  1  0
 16 17  2  0
 17 18  1  0
 18 19  2  0
 19 20  1  0
 20 21  2  0
 15 22  2  0
  2 23  1  0
 23 24  2  0
 24 25  1  0
 25 26  2  0
 26 27  1  0
 27 28  2  0
 28 29  1  0
 29 30  2  0
 30 31  1  0
 31 32  2  0
 11  7  1  0
 22 12  1  0
 32 23  1  0
 21 16  1  0
 31 26  1  0
  3 33  1  0
  4 34  1  0
  4 35  1  0
  8 36  1  0
  8 37  1  0
  9 38  1  0
  9 39  1  0
 10 40  1  0
 10 41  1  0
 11 42  1  6
 13 43  1  0
 14 44  1  0
 17 45  1  0
 18 46  1  0
 19 47  1  0
 20 48  1  0
 24 49  1  0
 25 50  1  0
 27 51  1  0
 28 52  1  0
 29 53  1  0
 30 54  1  0
M  END
>  <smiles>  (38) 
O=C(NCC(=O)N1CCC[C@H]1c1c[nH]c(-c2ccccn2)n1)c1ccc2ccccc2n1

>  <score_type>  (38) 
oracle

>  <origin>  (38) 
autodockgpu

>  <m_score__min__energy>  (38) 
-9.4800000000000004

>  <m_primary>  (38) 
energy

>  <rmsd>  (38) 
6.788684459600293

>  <m_score__min__rmsd>  (38) 
6.788684459600293

>  <meeko>  (38) 
{"free_energy": -6.96, "intermolecular_energy": -8.75, "internal_energy": -4.01, "cluster_size": 25, "cluster_id": 5, "rank_in_cluster": 22}

>  <energy>  (38) 
-6.88

>  <cluster_rmsd>  (38) 
0.98

>  <cluster>  (38) 
6

$$$$

     RDKit          3D

 54 58  0  0  0  0  0  0  0  0999 V2000
  139.2310   74.5520  222.2920 O   0  0  0  0  0  0  0  0  0  0  0  0
  140.2420   75.0840  221.7640 C   0  0  0  0  0  0  0  0  0  0  0  0
  140.3600   76.4870  221.5460 N   0  0  0  0  0  0  0  0  0  0  0  0
  139.2600   77.3600  221.9490 C   0  0  0  0  0  0  0  0  0  0  0  0
  139.8170   78.4980  222.7310 C   0  0  0  0  0  0  0  0  0  0  0  0
  139.2600   78.8440  223.8070 O   0  0  0  0  0  0  0  0  0  0  0  0
  140.9550   79.1660  222.2570 N   0  0  0  0  0  0  0  0  0  0  0  0
  142.2940   79.1150  222.8650 C   0  0  0  0  0  0  0  0  0  0  0  0
  142.8850   80.4820  222.5550 C   0  0  0  0  0  0  0  0  0  0  0  0
  141.8630   81.1920  221.6910 C   0  0  0  0  0  0  0  0  0  0  0  0
  141.0920   80.0240  221.1180 C   0  0  1  0  0  0  0  0  0  0  0  0
  141.7600   79.4200  219.9540 C   0  0  0  0  0  0  0  0  0  0  0  0
  142.3660   80.1890  218.9580 C   0  0  0  0  0  0  0  0  0  0  0  0
  142.8800   79.3630  218.0440 N   0  0  0  0  0  0  0  0  0  0  0  0
  142.6200   78.0990  218.4260 C   0  0  0  0  0  0  0  0  0  0  0  0
  143.0180   76.9020  217.6920 C   0  0  0  0  0  0  0  0  0  0  0  0
  142.6860   75.6520  218.1490 C   0  0  0  0  0  0  0  0  0  0  0  0
  143.0970   74.5550  217.3990 C   0  0  0  0  0  0  0  0  0  0  0  0
  143.8060   74.7790  216.2560 C   0  0  0  0  0  0  0  0  0  0  0  0
  144.1420   76.0390  215.7910 C   0  0  0  0  0  0  0  0  0  0  0  0
  143.7230   77.0790  216.5500 N   0  0  0  0  0  0  0  0  0  0  0  0
  141.9370   78.1470  219.5910 N   0  0  0  0  0  0  0  0  0  0  0  0
  141.3640   74.2250  221.3510 C   0  0  0  0  0  0  0  0  0  0  0  0
  141.1830   72.8650  221.1960 C   0  0  0  0  0  0  0  0  0  0  0  0
  142.2260   72.0420  220.8070 C   0  0  0  0  0  0  0  0  0  0  0  0
  143.4510   72.5960  220.5750 C   0  0  0  0  0  0  0  0  0  0  0  0
  144.5250   71.8330  220.1880 C   0  0  0  0  0  0  0  0  0  0  0  0
  145.7630   72.4200  219.9570 C   0  0  0  0  0  0  0  0  0  0  0  0
  145.9450   73.7620  220.1090 C   0  0  0  0  0  0  0  0  0  0  0  0
  144.8630   74.5210  220.4970 C   0  0  0  0  0  0  0  0  0  0  0  0
  143.6230   73.9570  220.7320 C   0  0  0  0  0  0  0  0  0  0  0  0
  142.5870   74.7350  221.1120 N   0  0  0  0  0  0  0  0  0  0  0  0
  141.2340   76.8470  221.1020 H   0  0  0  0  0  0  0  0  0  0  0  0
  138.7439   77.7419  221.0558 H   0  0  0  0  0  0  0  0  0  0  0  0
  138.5412   76.7984  222.5638 H   0  0  0  0  0  0  0  0  0  0  0  0
  142.2255   78.9548  223.9511 H   0  0  0  0  0  0  0  0  0  0  0  0
  142.9068   78.2883  222.4763 H   0  0  0  0  0  0  0  0  0  0  0  0
  143.0562   81.0443  223.4848 H   0  0  0  0  0  0  0  0  0  0  0  0
  143.8549   80.3952  222.0433 H   0  0  0  0  0  0  0  0  0  0  0  0
  141.2141   81.8465  222.2914 H   0  0  0  0  0  0  0  0  0  0  0  0
  142.3008   81.8571  220.9320 H   0  0  0  0  0  0  0  0  0  0  0  0
  140.1156   80.2906  220.6872 H   0  0  0  0  0  0  0  0  0  0  0  0
  142.4119   81.2877  218.9313 H   0  0  0  0  0  0  0  0  0  0  0  0
  143.3920   79.6590  217.1850 H   0  0  0  0  0  0  0  0  0  0  0  0
  142.1131   75.5213  219.0789 H   0  0  0  0  0  0  0  0  0  0  0  0
  142.8558   73.5310  217.7204 H   0  0  0  0  0  0  0  0  0  0  0  0
  144.1301   73.9072  215.6687 H   0  0  0  0  0  0  0  0  0  0  0  0
  144.7137   76.1860  214.8628 H   0  0  0  0  0  0  0  0  0  0  0  0
  140.1917   72.4273  221.3851 H   0  0  0  0  0  0  0  0  0  0  0  0
  142.0697   70.9598  220.6870 H   0  0  0  0  0  0  0  0  0  0  0  0
  144.4042   70.7472  220.0597 H   0  0  0  0  0  0  0  0  0  0  0  0
  146.6103   71.7910  219.6463 H   0  0  0  0  0  0  0  0  0  0  0  0
  146.9261   74.2250  219.9274 H   0  0  0  0  0  0  0  0  0  0  0  0
  144.9892   75.6064  220.6234 H   0  0  0  0  0  0  0  0  0  0  0  0
  1  2  2  0
  2  3  1  0
  3  4  1  0
  4  5  1  0
  5  6  2  0
  5  7  1  0
  7  8  1  0
  8  9  1  0
  9 10  1  0
 10 11  1  0
 11 12  1  0
 12 13  2  0
 13 14  1  0
 14 15  1  0
 15 16  1  0
 16 17  2  0
 17 18  1  0
 18 19  2  0
 19 20  1  0
 20 21  2  0
 15 22  2  0
  2 23  1  0
 23 24  2  0
 24 25  1  0
 25 26  2  0
 26 27  1  0
 27 28  2  0
 28 29  1  0
 29 30  2  0
 30 31  1  0
 31 32  2  0
 11  7  1  0
 22 12  1  0
 32 23  1  0
 21 16  1  0
 31 26  1  0
  3 33  1  0
  4 34  1  0
  4 35  1  0
  8 36  1  0
  8 37  1  0
  9 38  1  0
  9 39  1  0
 10 40  1  0
 10 41  1  0
 11 42  1  6
 13 43  1  0
 14 44  1  0
 17 45  1  0
 18 46  1  0
 19 47  1  0
 20 48  1  0
 24 49  1  0
 25 50  1  0
 27 51  1  0
 28 52  1  0
 29 53  1  0
 30 54  1  0
M  END
>  <smiles>  (39) 
O=C(NCC(=O)N1CCC[C@H]1c1c[nH]c(-c2ccccn2)n1)c1ccc2ccccc2n1

>  <score_type>  (39) 
oracle

>  <origin>  (39) 
autodockgpu

>  <m_score__min__energy>  (39) 
-9.4800000000000004

>  <m_primary>  (39) 
energy

>  <rmsd>  (39) 
6.7536220894449

>  <m_score__min__rmsd>  (39) 
6.7536220894449

>  <meeko>  (39) 
{"free_energy": -7.41, "intermolecular_energy": -9.2, "internal_energy": -3.84, "cluster_size": 25, "cluster_id": 5, "rank_in_cluster": 3}

>  <energy>  (39) 
-6.82

>  <cluster_rmsd>  (39) 
1.04

>  <cluster>  (39) 
6

$$$$

     RDKit          3D

 54 58  0  0  0  0  0  0  0  0999 V2000
  139.1570   74.5750  222.2880 O   0  0  0  0  0  0  0  0  0  0  0  0
  140.2020   75.1120  221.8390 C   0  0  0  0  0  0  0  0  0  0  0  0
  140.3540   76.5220  221.6960 N   0  0  0  0  0  0  0  0  0  0  0  0
  139.2500   77.3960  222.0870 C   0  0  0  0  0  0  0  0  0  0  0  0
  139.8070   78.5680  222.8180 C   0  0  0  0  0  0  0  0  0  0  0  0
  139.2120   79.0020  223.8400 O   0  0  0  0  0  0  0  0  0  0  0  0
  140.9860   79.1710  222.3550 N   0  0  0  0  0  0  0  0  0  0  0  0
  142.3160   79.0290  222.9660 C   0  0  0  0  0  0  0  0  0  0  0  0
  142.9910   80.3610  222.6730 C   0  0  0  0  0  0  0  0  0  0  0  0
  142.0180   81.1430  221.8160 C   0  0  0  0  0  0  0  0  0  0  0  0
  141.1790   80.0310  221.2260 C   0  0  1  0  0  0  0  0  0  0  0  0
  141.8120   79.4010  220.0570 C   0  0  0  0  0  0  0  0  0  0  0  0
  142.4230   80.1470  219.0450 C   0  0  0  0  0  0  0  0  0  0  0  0
  142.9000   79.3000  218.1300 N   0  0  0  0  0  0  0  0  0  0  0  0
  142.6130   78.0470  218.5260 C   0  0  0  0  0  0  0  0  0  0  0  0
  142.9670   76.8340  217.7950 C   0  0  0  0  0  0  0  0  0  0  0  0
  142.5110   75.6060  218.2040 C   0  0  0  0  0  0  0  0  0  0  0  0
  142.8880   74.4920  217.4600 C   0  0  0  0  0  0  0  0  0  0  0  0
  143.6860   74.6790  216.3710 C   0  0  0  0  0  0  0  0  0  0  0  0
  144.1480   75.9170  215.9550 C   0  0  0  0  0  0  0  0  0  0  0  0
  143.7590   76.9730  216.7060 N   0  0  0  0  0  0  0  0  0  0  0  0
  141.9500   78.1210  219.7010 N   0  0  0  0  0  0  0  0  0  0  0  0
  141.3280   74.2530  221.4390 C   0  0  0  0  0  0  0  0  0  0  0  0
  141.1690   72.8840  221.3570 C   0  0  0  0  0  0  0  0  0  0  0  0
  142.2160   72.0600  220.9820 C   0  0  0  0  0  0  0  0  0  0  0  0
  143.4250   72.6230  220.6910 C   0  0  0  0  0  0  0  0  0  0  0  0
  144.5020   71.8600  220.3140 C   0  0  0  0  0  0  0  0  0  0  0  0
  145.7230   72.4560  220.0210 C   0  0  0  0  0  0  0  0  0  0  0  0
  145.8840   73.8070  220.1010 C   0  0  0  0  0  0  0  0  0  0  0  0
  144.7990   74.5650  220.4800 C   0  0  0  0  0  0  0  0  0  0  0  0
  143.5760   73.9930  220.7750 C   0  0  0  0  0  0  0  0  0  0  0  0
  142.5350   74.7710  221.1430 N   0  0  0  0  0  0  0  0  0  0  0  0
  141.2560   76.8860  221.3150 H   0  0  0  0  0  0  0  0  0  0  0  0
  138.7138   77.7395  221.1900 H   0  0  0  0  0  0  0  0  0  0  0  0
  138.5486   76.8486  222.7339 H   0  0  0  0  0  0  0  0  0  0  0  0
  142.2339   78.8608  224.0500 H   0  0  0  0  0  0  0  0  0  0  0  0
  142.8777   78.1700  222.5702 H   0  0  0  0  0  0  0  0  0  0  0  0
  143.1942   80.9006  223.6098 H   0  0  0  0  0  0  0  0  0  0  0  0
  143.9548   80.2202  222.1618 H   0  0  0  0  0  0  0  0  0  0  0  0
  141.4082   81.8284  222.4229 H   0  0  0  0  0  0  0  0  0  0  0  0
  142.4981   81.7899  221.0669 H   0  0  0  0  0  0  0  0  0  0  0  0
  140.2226   80.3613  220.7945 H   0  0  0  0  0  0  0  0  0  0  0  0
  142.4979   81.2439  219.0088 H   0  0  0  0  0  0  0  0  0  0  0  0
  143.4070   79.5760  217.2610 H   0  0  0  0  0  0  0  0  0  0  0  0
  141.8684   75.5055  219.0911 H   0  0  0  0  0  0  0  0  0  0  0  0
  142.5500   73.4845  217.7441 H   0  0  0  0  0  0  0  0  0  0  0  0
  143.9808   73.7942  215.7877 H   0  0  0  0  0  0  0  0  0  0  0  0
  144.7906   76.0341  215.0699 H   0  0  0  0  0  0  0  0  0  0  0  0
  140.1912   72.4395  221.5943 H   0  0  0  0  0  0  0  0  0  0  0  0
  142.0763   70.9707  220.9196 H   0  0  0  0  0  0  0  0  0  0  0  0
  144.3978   70.7672  220.2431 H   0  0  0  0  0  0  0  0  0  0  0  0
  146.5735   71.8269  219.7195 H   0  0  0  0  0  0  0  0  0  0  0  0
  146.8511   74.2773  219.8699 H   0  0  0  0  0  0  0  0  0  0  0  0
  144.9087   75.6573  220.5500 H   0  0  0  0  0  0  0  0  0  0  0  0
  1  2  2  0
  2  3  1  0
  3  4  1  0
  4  5  1  0
  5  6  2  0
  5  7  1  0
  7  8  1  0
  8  9  1  0
  9 10  1  0
 10 11  1  0
 11 12  1  0
 12 13  2  0
 13 14  1  0
 14 15  1  0
 15 16  1  0
 16 17  2  0
 17 18  1  0
 18 19  2  0
 19 20  1  0
 20 21  2  0
 15 22  2  0
  2 23  1  0
 23 24  2  0
 24 25  1  0
 25 26  2  0
 26 27  1  0
 27 28  2  0
 28 29  1  0
 29 30  2  0
 30 31  1  0
 31 32  2  0
 11  7  1  0
 22 12  1  0
 32 23  1  0
 21 16  1  0
 31 26  1  0
  3 33  1  0
  4 34  1  0
  4 35  1  0
  8 36  1  0
  8 37  1  0
  9 38  1  0
  9 39  1  0
 10 40  1  0
 10 41  1  0
 11 42  1  6
 13 43  1  0
 14 44  1  0
 17 45  1  0
 18 46  1  0
 19 47  1  0
 20 48  1  0
 24 49  1  0
 25 50  1  0
 27 51  1  0
 28 52  1  0
 29 53  1  0
 30 54  1  0
M  END
>  <smiles>  (40) 
O=C(NCC(=O)N1CCC[C@H]1c1c[nH]c(-c2ccccn2)n1)c1ccc2ccccc2n1

>  <score_type>  (40) 
oracle

>  <origin>  (40) 
autodockgpu

>  <m_score__min__energy>  (40) 
-9.4800000000000004

>  <m_primary>  (40) 
energy

>  <rmsd>  (40) 
6.747541970436165

>  <m_score__min__rmsd>  (40) 
6.747541970436165

>  <meeko>  (40) 
{"free_energy": -7.31, "intermolecular_energy": -9.1, "internal_energy": -3.93, "cluster_size": 25, "cluster_id": 5, "rank_in_cluster": 7}

>  <energy>  (40) 
-6.68

>  <cluster_rmsd>  (40) 
1.51

>  <cluster>  (40) 
6

$$$$

     RDKit          3D

 54 58  0  0  0  0  0  0  0  0999 V2000
  138.8670   74.7590  222.3470 O   0  0  0  0  0  0  0  0  0  0  0  0
  139.9360   75.2800  221.9380 C   0  0  0  0  0  0  0  0  0  0  0  0
  140.1330   76.6880  221.8500 N   0  0  0  0  0  0  0  0  0  0  0  0
  139.0480   77.5810  222.2510 C   0  0  0  0  0  0  0  0  0  0  0  0
  139.6380   78.7990  222.8720 C   0  0  0  0  0  0  0  0  0  0  0  0
  139.0070   79.4000  223.7820 O   0  0  0  0  0  0  0  0  0  0  0  0
  140.8890   79.2570  222.4330 N   0  0  0  0  0  0  0  0  0  0  0  0
  142.1820   78.9500  223.0630 C   0  0  0  0  0  0  0  0  0  0  0  0
  143.0190   80.1920  222.7940 C   0  0  0  0  0  0  0  0  0  0  0  0
  142.1620   81.0940  221.9300 C   0  0  0  0  0  0  0  0  0  0  0  0
  141.2030   80.0980  221.3170 C   0  0  1  0  0  0  0  0  0  0  0  0
  141.7740   79.4050  220.1510 C   0  0  0  0  0  0  0  0  0  0  0  0
  142.3990   80.0910  219.1060 C   0  0  0  0  0  0  0  0  0  0  0  0
  142.8080   79.1970  218.2040 N   0  0  0  0  0  0  0  0  0  0  0  0
  142.4650   77.9710  218.6380 C   0  0  0  0  0  0  0  0  0  0  0  0
  142.7360   76.7240  217.9320 C   0  0  0  0  0  0  0  0  0  0  0  0
  143.6950   76.6610  216.9530 C   0  0  0  0  0  0  0  0  0  0  0  0
  143.9000   75.4390  216.3210 C   0  0  0  0  0  0  0  0  0  0  0  0
  143.1420   74.3730  216.7050 C   0  0  0  0  0  0  0  0  0  0  0  0
  142.1730   74.4320  217.6940 C   0  0  0  0  0  0  0  0  0  0  0  0
  142.0050   75.6390  218.2830 N   0  0  0  0  0  0  0  0  0  0  0  0
  141.8340   78.1110  219.8260 N   0  0  0  0  0  0  0  0  0  0  0  0
  141.0440   74.4020  221.5290 C   0  0  0  0  0  0  0  0  0  0  0  0
  140.8700   73.0330  221.4790 C   0  0  0  0  0  0  0  0  0  0  0  0
  141.9000   72.1910  221.0960 C   0  0  0  0  0  0  0  0  0  0  0  0
  143.1070   72.7360  220.7640 C   0  0  0  0  0  0  0  0  0  0  0  0
  144.1670   71.9550  220.3770 C   0  0  0  0  0  0  0  0  0  0  0  0
  145.3860   72.5330  220.0430 C   0  0  0  0  0  0  0  0  0  0  0  0
  145.5620   73.8840  220.0920 C   0  0  0  0  0  0  0  0  0  0  0  0
  144.4930   74.6600  220.4810 C   0  0  0  0  0  0  0  0  0  0  0  0
  143.2730   74.1060  220.8170 C   0  0  0  0  0  0  0  0  0  0  0  0
  142.2480   74.9020  221.1940 N   0  0  0  0  0  0  0  0  0  0  0  0
  141.0530   77.0390  221.5000 H   0  0  0  0  0  0  0  0  0  0  0  0
  138.4566   77.8650  221.3680 H   0  0  0  0  0  0  0  0  0  0  0  0
  138.3911   77.0728  222.9723 H   0  0  0  0  0  0  0  0  0  0  0  0
  142.0621   78.7844  224.1438 H   0  0  0  0  0  0  0  0  0  0  0  0
  142.6417   78.0325  222.6670 H   0  0  0  0  0  0  0  0  0  0  0  0
  143.2711   80.6951  223.7392 H   0  0  0  0  0  0  0  0  0  0  0  0
  143.9668   79.9391  222.2962 H   0  0  0  0  0  0  0  0  0  0  0  0
  141.6310   81.8440  222.5345 H   0  0  0  0  0  0  0  0  0  0  0  0
  142.7293   81.6830  221.1943 H   0  0  0  0  0  0  0  0  0  0  0  0
  140.3007   80.5470  220.8762 H   0  0  0  0  0  0  0  0  0  0  0  0
  142.5311   81.1810  219.0387 H   0  0  0  0  0  0  0  0  0  0  0  0
  143.3080   79.4230  217.3160 H   0  0  0  0  0  0  0  0  0  0  0  0
  144.2831   77.5486  216.6767 H   0  0  0  0  0  0  0  0  0  0  0  0
  144.6566   75.3351  215.5293 H   0  0  0  0  0  0  0  0  0  0  0  0
  143.3092   73.4099  216.2005 H   0  0  0  0  0  0  0  0  0  0  0  0
  141.5777   73.5530  217.9822 H   0  0  0  0  0  0  0  0  0  0  0  0
  139.8940   72.6032  221.7487 H   0  0  0  0  0  0  0  0  0  0  0  0
  141.7486   71.1021  221.0598 H   0  0  0  0  0  0  0  0  0  0  0  0
  144.0509   70.8621  220.3307 H   0  0  0  0  0  0  0  0  0  0  0  0
  146.2229   71.8895  219.7339 H   0  0  0  0  0  0  0  0  0  0  0  0
  146.5279   74.3400  219.8290 H   0  0  0  0  0  0  0  0  0  0  0  0
  144.6140   75.7524  220.5255 H   0  0  0  0  0  0  0  0  0  0  0  0
  1  2  2  0
  2  3  1  0
  3  4  1  0
  4  5  1  0
  5  6  2  0
  5  7  1  0
  7  8  1  0
  8  9  1  0
  9 10  1  0
 10 11  1  0
 11 12  1  0
 12 13  2  0
 13 14  1  0
 14 15  1  0
 15 16  1  0
 16 17  2  0
 17 18  1  0
 18 19  2  0
 19 20  1  0
 20 21  2  0
 15 22  2  0
  2 23  1  0
 23 24  2  0
 24 25  1  0
 25 26  2  0
 26 27  1  0
 27 28  2  0
 28 29  1  0
 29 30  2  0
 30 31  1  0
 31 32  2  0
 11  7  1  0
 22 12  1  0
 32 23  1  0
 21 16  1  0
 31 26  1  0
  3 33  1  0
  4 34  1  0
  4 35  1  0
  8 36  1  0
  8 37  1  0
  9 38  1  0
  9 39  1  0
 10 40  1  0
 10 41  1  0
 11 42  1  6
 13 43  1  0
 14 44  1  0
 17 45  1  0
 18 46  1  0
 19 47  1  0
 20 48  1  0
 24 49  1  0
 25 50  1  0
 27 51  1  0
 28 52  1  0
 29 53  1  0
 30 54  1  0
M  END
>  <smiles>  (41) 
O=C(NCC(=O)N1CCC[C@H]1c1c[nH]c(-c2ccccn2)n1)c1ccc2ccccc2n1

>  <score_type>  (41) 
oracle

>  <origin>  (41) 
autodockgpu

>  <m_score__min__energy>  (41) 
-9.4800000000000004

>  <m_primary>  (41) 
energy

>  <rmsd>  (41) 
6.6375559117202

>  <m_score__min__rmsd>  (41) 
6.6375559117202

>  <meeko>  (41) 
{"free_energy": -7.09, "intermolecular_energy": -8.88, "internal_energy": -4.01, "cluster_size": 25, "cluster_id": 5, "rank_in_cluster": 19}

>  <energy>  (41) 
-6.68

>  <cluster_rmsd>  (41) 
0.65

>  <cluster>  (41) 
6

$$$$

     RDKit          3D

 54 58  0  0  0  0  0  0  0  0999 V2000
  137.3590   76.1740  222.9560 O   0  0  0  0  0  0  0  0  0  0  0  0
  138.4780   76.4080  222.4320 C   0  0  0  0  0  0  0  0  0  0  0  0
  139.1410   75.4890  221.5680 N   0  0  0  0  0  0  0  0  0  0  0  0
  138.5000   74.2100  221.2700 C   0  0  0  0  0  0  0  0  0  0  0  0
  139.5400   73.1450  221.2680 C   0  0  0  0  0  0  0  0  0  0  0  0
  139.3630   72.1020  221.9520 O   0  0  0  0  0  0  0  0  0  0  0  0
  140.7030   73.3200  220.5040 N   0  0  0  0  0  0  0  0  0  0  0  0
  140.8740   72.9150  219.1000 C   0  0  0  0  0  0  0  0  0  0  0  0
  142.3520   72.5690  219.0010 C   0  0  0  0  0  0  0  0  0  0  0  0
  142.9510   72.9020  220.3520 C   0  0  0  0  0  0  0  0  0  0  0  0
  141.9530   73.9090  220.8800 C   0  0  1  0  0  0  0  0  0  0  0  0
  142.1890   75.2660  220.3630 C   0  0  0  0  0  0  0  0  0  0  0  0
  143.4120   75.6530  219.8080 C   0  0  0  0  0  0  0  0  0  0  0  0
  143.3170   76.9300  219.4330 N   0  0  0  0  0  0  0  0  0  0  0  0
  142.0800   77.3660  219.7300 C   0  0  0  0  0  0  0  0  0  0  0  0
  141.5810   78.7140  219.4760 C   0  0  0  0  0  0  0  0  0  0  0  0
  142.3320   79.6250  218.7770 C   0  0  0  0  0  0  0  0  0  0  0  0
  141.7940   80.8910  218.5730 C   0  0  0  0  0  0  0  0  0  0  0  0
  140.5560   81.1600  219.0750 C   0  0  0  0  0  0  0  0  0  0  0  0
  139.7940   80.2430  219.7800 C   0  0  0  0  0  0  0  0  0  0  0  0
  140.3530   79.0240  219.9570 N   0  0  0  0  0  0  0  0  0  0  0  0
  141.4020   76.3430  220.2970 N   0  0  0  0  0  0  0  0  0  0  0  0
  139.1440   77.6900  222.7160 C   0  0  0  0  0  0  0  0  0  0  0  0
  138.3990   78.8120  223.0210 C   0  0  0  0  0  0  0  0  0  0  0  0
  139.0070   80.0250  223.2920 C   0  0  0  0  0  0  0  0  0  0  0  0
  140.3690   80.1030  223.2530 C   0  0  0  0  0  0  0  0  0  0  0  0
  141.0320   81.2770  223.5120 C   0  0  0  0  0  0  0  0  0  0  0  0
  142.4200   81.3310  223.4670 C   0  0  0  0  0  0  0  0  0  0  0  0
  143.1570   80.2250  223.1660 C   0  0  0  0  0  0  0  0  0  0  0  0
  142.4860   79.0510  222.9090 C   0  0  0  0  0  0  0  0  0  0  0  0
  141.1070   78.9760  222.9480 C   0  0  0  0  0  0  0  0  0  0  0  0
  140.4850   77.8050  222.6880 N   0  0  0  0  0  0  0  0  0  0  0  0
  140.0690   75.7610  221.1730 H   0  0  0  0  0  0  0  0  0  0  0  0
  137.7435   73.9874  222.0369 H   0  0  0  0  0  0  0  0  0  0  0  0
  138.0088   74.2566  220.2869 H   0  0  0  0  0  0  0  0  0  0  0  0
  140.2499   72.0401  218.8655 H   0  0  0  0  0  0  0  0  0  0  0  0
  140.5717   73.6995  218.3906 H   0  0  0  0  0  0  0  0  0  0  0  0
  142.4800   71.4991  218.7796 H   0  0  0  0  0  0  0  0  0  0  0  0
  142.8437   73.1307  218.1931 H   0  0  0  0  0  0  0  0  0  0  0  0
  143.0062   72.0133  220.9979 H   0  0  0  0  0  0  0  0  0  0  0  0
  143.9850   73.2746  220.3063 H   0  0  0  0  0  0  0  0  0  0  0  0
  142.0125   74.0830  221.9645 H   0  0  0  0  0  0  0  0  0  0  0  0
  144.3008   75.0141  219.6990 H   0  0  0  0  0  0  0  0  0  0  0  0
  144.0790   77.4850  218.9860 H   0  0  0  0  0  0  0  0  0  0  0  0
  143.3278   79.3624  218.3903 H   0  0  0  0  0  0  0  0  0  0  0  0
  142.3551   81.6579  218.0189 H   0  0  0  0  0  0  0  0  0  0  0  0
  140.1374   82.1639  218.9108 H   0  0  0  0  0  0  0  0  0  0  0  0
  138.7963   80.4906  220.1716 H   0  0  0  0  0  0  0  0  0  0  0  0
  137.3017   78.7401  223.0490 H   0  0  0  0  0  0  0  0  0  0  0  0
  138.4028   80.9115  223.5348 H   0  0  0  0  0  0  0  0  0  0  0  0
  140.4592   82.1834  223.7574 H   0  0  0  0  0  0  0  0  0  0  0  0
  142.9318   82.2816  223.6777 H   0  0  0  0  0  0  0  0  0  0  0  0
  144.2555   80.2691  223.1295 H   0  0  0  0  0  0  0  0  0  0  0  0
  143.0639   78.1472  222.6657 H   0  0  0  0  0  0  0  0  0  0  0  0
  1  2  2  0
  2  3  1  0
  3  4  1  0
  4  5  1  0
  5  6  2  0
  5  7  1  0
  7  8  1  0
  8  9  1  0
  9 10  1  0
 10 11  1  0
 11 12  1  0
 12 13  2  0
 13 14  1  0
 14 15  1  0
 15 16  1  0
 16 17  2  0
 17 18  1  0
 18 19  2  0
 19 20  1  0
 20 21  2  0
 15 22  2  0
  2 23  1  0
 23 24  2  0
 24 25  1  0
 25 26  2  0
 26 27  1  0
 27 28  2  0
 28 29  1  0
 29 30  2  0
 30 31  1  0
 31 32  2  0
 11  7  1  0
 22 12  1  0
 32 23  1  0
 21 16  1  0
 31 26  1  0
  3 33  1  0
  4 34  1  0
  4 35  1  0
  8 36  1  0
  8 37  1  0
  9 38  1  0
  9 39  1  0
 10 40  1  0
 10 41  1  0
 11 42  1  1
 13 43  1  0
 14 44  1  0
 17 45  1  0
 18 46  1  0
 19 47  1  0
 20 48  1  0
 24 49  1  0
 25 50  1  0
 27 51  1  0
 28 52  1  0
 29 53  1  0
 30 54  1  0
M  END
>  <smiles>  (42) 
O=C(NCC(=O)N1CCC[C@H]1c1c[nH]c(-c2ccccn2)n1)c1ccc2ccccc2n1

>  <score_type>  (42) 
oracle

>  <origin>  (42) 
autodockgpu

>  <m_score__min__energy>  (42) 
-9.4800000000000004

>  <m_primary>  (42) 
energy

>  <rmsd>  (42) 
6.821747975634056

>  <m_score__min__rmsd>  (42) 
6.821747975634056

>  <meeko>  (42) 
{"free_energy": -6.58, "intermolecular_energy": -8.37, "internal_energy": -4.08, "cluster_size": 14, "cluster_id": 6, "rank_in_cluster": 12}

>  <energy>  (42) 
-6.67

>  <cluster_rmsd>  (42) 
1.44

>  <cluster>  (42) 
6

$$$$

     RDKit          3D

 54 58  0  0  0  0  0  0  0  0999 V2000
  141.7000   79.2090  217.0090 O   0  0  0  0  0  0  0  0  0  0  0  0
  141.9430   78.7150  218.1390 C   0  0  0  0  0  0  0  0  0  0  0  0
  142.3060   77.3510  218.3310 N   0  0  0  0  0  0  0  0  0  0  0  0
  142.4030   76.4740  217.1660 C   0  0  0  0  0  0  0  0  0  0  0  0
  143.0790   75.2120  217.5760 C   0  0  0  0  0  0  0  0  0  0  0  0
  143.6900   74.5270  216.7130 O   0  0  0  0  0  0  0  0  0  0  0  0
  143.0240   74.8060  218.9170 N   0  0  0  0  0  0  0  0  0  0  0  0
  144.0710   75.0350  219.9250 C   0  0  0  0  0  0  0  0  0  0  0  0
  143.9540   73.8320  220.8480 C   0  0  0  0  0  0  0  0  0  0  0  0
  142.7630   73.0380  220.3510 C   0  0  0  0  0  0  0  0  0  0  0  0
  141.9850   74.1010  219.6070 C   0  0  1  0  0  0  0  0  0  0  0  0
  141.1540   74.9250  220.4990 C   0  0  0  0  0  0  0  0  0  0  0  0
  140.5160   74.3970  221.6250 C   0  0  0  0  0  0  0  0  0  0  0  0
  139.8430   75.3820  222.2250 N   0  0  0  0  0  0  0  0  0  0  0  0
  140.0320   76.5120  221.5210 C   0  0  0  0  0  0  0  0  0  0  0  0
  139.4600   77.8130  221.8520 C   0  0  0  0  0  0  0  0  0  0  0  0
  138.8530   78.5830  220.8920 C   0  0  0  0  0  0  0  0  0  0  0  0
  138.3300   79.8120  221.2780 C   0  0  0  0  0  0  0  0  0  0  0  0
  138.4480   80.1870  222.5840 C   0  0  0  0  0  0  0  0  0  0  0  0
  139.0590   79.4120  223.5560 C   0  0  0  0  0  0  0  0  0  0  0  0
  139.5540   78.2240  223.1390 N   0  0  0  0  0  0  0  0  0  0  0  0
  140.8320   76.2210  220.4710 N   0  0  0  0  0  0  0  0  0  0  0  0
  141.8530   79.5780  219.3280 C   0  0  0  0  0  0  0  0  0  0  0  0
  141.4160   80.8830  219.2130 C   0  0  0  0  0  0  0  0  0  0  0  0
  141.3230   81.7090  220.3200 C   0  0  0  0  0  0  0  0  0  0  0  0
  141.6740   81.2140  221.5430 C   0  0  0  0  0  0  0  0  0  0  0  0
  141.6050   81.9840  222.6770 C   0  0  0  0  0  0  0  0  0  0  0  0
  141.9660   81.4580  223.9120 C   0  0  0  0  0  0  0  0  0  0  0  0
  142.3980   80.1700  224.0290 C   0  0  0  0  0  0  0  0  0  0  0  0
  142.4640   79.4050  222.8860 C   0  0  0  0  0  0  0  0  0  0  0  0
  142.1090   79.9080  221.6490 C   0  0  0  0  0  0  0  0  0  0  0  0
  142.1890   79.1260  220.5510 N   0  0  0  0  0  0  0  0  0  0  0  0
  142.4920   77.0200  219.3050 H   0  0  0  0  0  0  0  0  0  0  0  0
  141.3953   76.2484  216.7871 H   0  0  0  0  0  0  0  0  0  0  0  0
  142.9803   76.9682  216.3708 H   0  0  0  0  0  0  0  0  0  0  0  0
  145.0651   75.0739  219.4558 H   0  0  0  0  0  0  0  0  0  0  0  0
  143.9501   75.9914  220.4547 H   0  0  0  0  0  0  0  0  0  0  0  0
  144.8678   73.2217  220.7981 H   0  0  0  0  0  0  0  0  0  0  0  0
  143.8239   74.1397  221.8961 H   0  0  0  0  0  0  0  0  0  0  0  0
  143.0740   72.2235  219.6802 H   0  0  0  0  0  0  0  0  0  0  0  0
  142.1923   72.5376  221.1472 H   0  0  0  0  0  0  0  0  0  0  0  0
  141.2264   73.7081  218.9140 H   0  0  0  0  0  0  0  0  0  0  0  0
  140.5606   73.3500  221.9594 H   0  0  0  0  0  0  0  0  0  0  0  0
  139.2720   75.2790  223.0920 H   0  0  0  0  0  0  0  0  0  0  0  0
  138.7824   78.2387  219.8497 H   0  0  0  0  0  0  0  0  0  0  0  0
  137.8327   80.4666  220.5472 H   0  0  0  0  0  0  0  0  0  0  0  0
  138.0340   81.1613  222.8827 H   0  0  0  0  0  0  0  0  0  0  0  0
  139.1369   79.7421  224.6024 H   0  0  0  0  0  0  0  0  0  0  0  0
  141.1366   81.2734  218.2233 H   0  0  0  0  0  0  0  0  0  0  0  0
  140.9723   82.7464  220.2160 H   0  0  0  0  0  0  0  0  0  0  0  0
  141.2610   83.0265  222.6080 H   0  0  0  0  0  0  0  0  0  0  0  0
  141.9022   82.0910  224.8094 H   0  0  0  0  0  0  0  0  0  0  0  0
  142.6849   79.7548  225.0064 H   0  0  0  0  0  0  0  0  0  0  0  0
  142.8094   78.3632  222.9598 H   0  0  0  0  0  0  0  0  0  0  0  0
  1  2  2  0
  2  3  1  0
  3  4  1  0
  4  5  1  0
  5  6  2  0
  5  7  1  0
  7  8  1  0
  8  9  1  0
  9 10  1  0
 10 11  1  0
 11 12  1  0
 12 13  2  0
 13 14  1  0
 14 15  1  0
 15 16  1  0
 16 17  2  0
 17 18  1  0
 18 19  2  0
 19 20  1  0
 20 21  2  0
 15 22  2  0
  2 23  1  0
 23 24  2  0
 24 25  1  0
 25 26  2  0
 26 27  1  0
 27 28  2  0
 28 29  1  0
 29 30  2  0
 30 31  1  0
 31 32  2  0
 11  7  1  0
 22 12  1  0
 32 23  1  0
 21 16  1  0
 31 26  1  0
  3 33  1  0
  4 34  1  0
  4 35  1  0
  8 36  1  0
  8 37  1  0
  9 38  1  0
  9 39  1  0
 10 40  1  0
 10 41  1  0
 11 42  1  6
 13 43  1  0
 14 44  1  0
 17 45  1  0
 18 46  1  0
 19 47  1  0
 20 48  1  0
 24 49  1  0
 25 50  1  0
 27 51  1  0
 28 52  1  0
 29 53  1  0
 30 54  1  0
M  END
>  <smiles>  (43) 
O=C(NCC(=O)N1CCC[C@H]1c1c[nH]c(-c2ccccn2)n1)c1ccc2ccccc2n1

>  <score_type>  (43) 
oracle

>  <origin>  (43) 
autodockgpu

>  <m_score__min__energy>  (43) 
-9.4800000000000004

>  <m_primary>  (43) 
energy

>  <rmsd>  (43) 
8.20231606302141

>  <m_score__min__rmsd>  (43) 
8.20231606302141

>  <meeko>  (43) 
{"free_energy": -6.25, "intermolecular_energy": -8.04, "internal_energy": -4.45, "cluster_size": 1, "cluster_id": 7, "rank_in_cluster": 1}

>  <energy>  (43) 
-6.62

>  <cluster_rmsd>  (43) 
1.43

>  <cluster>  (43) 
6

$$$$

     RDKit          3D

 54 58  0  0  0  0  0  0  0  0999 V2000
  137.5510   75.9320  222.4510 O   0  0  0  0  0  0  0  0  0  0  0  0
  138.7950   76.1140  222.4220 C   0  0  0  0  0  0  0  0  0  0  0  0
  139.7280   75.0780  222.1270 N   0  0  0  0  0  0  0  0  0  0  0  0
  139.2270   73.7360  221.8420 C   0  0  0  0  0  0  0  0  0  0  0  0
  140.3890   72.8290  221.6270 C   0  0  0  0  0  0  0  0  0  0  0  0
  140.4900   71.7770  222.3120 O   0  0  0  0  0  0  0  0  0  0  0  0
  141.3530   73.1630  220.6650 N   0  0  0  0  0  0  0  0  0  0  0  0
  141.2760   72.8460  219.2310 C   0  0  0  0  0  0  0  0  0  0  0  0
  142.7300   72.6640  218.8230 C   0  0  0  0  0  0  0  0  0  0  0  0
  143.5540   72.9930  220.0510 C   0  0  0  0  0  0  0  0  0  0  0  0
  142.5920   73.8630  220.8310 C   0  0  1  0  0  0  0  0  0  0  0  0
  142.5900   75.2600  220.3700 C   0  0  0  0  0  0  0  0  0  0  0  0
  143.6890   75.8370  219.7290 C   0  0  0  0  0  0  0  0  0  0  0  0
  143.3860   77.1040  219.4360 N   0  0  0  0  0  0  0  0  0  0  0  0
  142.1370   77.3500  219.8690 C   0  0  0  0  0  0  0  0  0  0  0  0
  141.4380   78.6230  219.7380 C   0  0  0  0  0  0  0  0  0  0  0  0
  142.1320   79.7980  219.5920 C   0  0  0  0  0  0  0  0  0  0  0  0
  141.4010   80.9750  219.4720 C   0  0  0  0  0  0  0  0  0  0  0  0
  140.0400   80.9010  219.5070 C   0  0  0  0  0  0  0  0  0  0  0  0
  139.3360   79.7180  219.6530 C   0  0  0  0  0  0  0  0  0  0  0  0
  140.0840   78.5960  219.7670 N   0  0  0  0  0  0  0  0  0  0  0  0
  141.6620   76.2190  220.4370 N   0  0  0  0  0  0  0  0  0  0  0  0
  139.3250   77.4590  222.7050 C   0  0  0  0  0  0  0  0  0  0  0  0
  138.4650   78.5220  222.9000 C   0  0  0  0  0  0  0  0  0  0  0  0
  138.9440   79.7920  223.1680 C   0  0  0  0  0  0  0  0  0  0  0  0
  140.2940   79.9870  223.2370 C   0  0  0  0  0  0  0  0  0  0  0  0
  140.8310   81.2230  223.4980 C   0  0  0  0  0  0  0  0  0  0  0  0
  142.2080   81.3960  223.5640 C   0  0  0  0  0  0  0  0  0  0  0  0
  143.0590   80.3480  223.3710 C   0  0  0  0  0  0  0  0  0  0  0  0
  142.5120   79.1120  223.1100 C   0  0  0  0  0  0  0  0  0  0  0  0
  141.1460   78.9180  223.0400 C   0  0  0  0  0  0  0  0  0  0  0  0
  140.6490   77.6890  222.7810 N   0  0  0  0  0  0  0  0  0  0  0  0
  140.7460   75.3140  222.1230 H   0  0  0  0  0  0  0  0  0  0  0  0
  138.6285   73.3760  222.6918 H   0  0  0  0  0  0  0  0  0  0  0  0
  138.5944   73.7549  220.9423 H   0  0  0  0  0  0  0  0  0  0  0  0
  140.7031   71.9219  219.0638 H   0  0  0  0  0  0  0  0  0  0  0  0
  140.7646   73.6267  218.6489 H   0  0  0  0  0  0  0  0  0  0  0  0
  142.9113   71.6257  218.5083 H   0  0  0  0  0  0  0  0  0  0  0  0
  142.9943   73.3133  217.9753 H   0  0  0  0  0  0  0  0  0  0  0  0
  143.8207   72.0850  220.6118 H   0  0  0  0  0  0  0  0  0  0  0  0
  144.5182   73.4743  219.8302 H   0  0  0  0  0  0  0  0  0  0  0  0
  142.8510   73.9908  221.8924 H   0  0  0  0  0  0  0  0  0  0  0  0
  144.6409   75.3338  219.5042 H   0  0  0  0  0  0  0  0  0  0  0  0
  144.0190   77.7780  218.9540 H   0  0  0  0  0  0  0  0  0  0  0  0
  143.2317   79.8085  219.5706 H   0  0  0  0  0  0  0  0  0  0  0  0
  141.9090   81.9432  219.3516 H   0  0  0  0  0  0  0  0  0  0  0  0
  139.4680   81.8359  219.4138 H   0  0  0  0  0  0  0  0  0  0  0  0
  138.2365   79.6916  219.6750 H   0  0  0  0  0  0  0  0  0  0  0  0
  137.3792   78.3558  222.8411 H   0  0  0  0  0  0  0  0  0  0  0  0
  138.2492   80.6306  223.3229 H   0  0  0  0  0  0  0  0  0  0  0  0
  140.1652   82.0842  223.6563 H   0  0  0  0  0  0  0  0  0  0  0  0
  142.6184   82.3945  223.7753 H   0  0  0  0  0  0  0  0  0  0  0  0
  144.1491   80.4861  223.4223 H   0  0  0  0  0  0  0  0  0  0  0  0
  143.1820   78.2539  222.9526 H   0  0  0  0  0  0  0  0  0  0  0  0
  1  2  2  0
  2  3  1  0
  3  4  1  0
  4  5  1  0
  5  6  2  0
  5  7  1  0
  7  8  1  0
  8  9  1  0
  9 10  1  0
 10 11  1  0
 11 12  1  0
 12 13  2  0
 13 14  1  0
 14 15  1  0
 15 16  1  0
 16 17  2  0
 17 18  1  0
 18 19  2  0
 19 20  1  0
 20 21  2  0
 15 22  2  0
  2 23  1  0
 23 24  2  0
 24 25  1  0
 25 26  2  0
 26 27  1  0
 27 28  2  0
 28 29  1  0
 29 30  2  0
 30 31  1  0
 31 32  2  0
 11  7  1  0
 22 12  1  0
 32 23  1  0
 21 16  1  0
 31 26  1  0
  3 33  1  0
  4 34  1  0
  4 35  1  0
  8 36  1  0
  8 37  1  0
  9 38  1  0
  9 39  1  0
 10 40  1  0
 10 41  1  0
 11 42  1  1
 13 43  1  0
 14 44  1  0
 17 45  1  0
 18 46  1  0
 19 47  1  0
 20 48  1  0
 24 49  1  0
 25 50  1  0
 27 51  1  0
 28 52  1  0
 29 53  1  0
 30 54  1  0
M  END
>  <smiles>  (44) 
O=C(NCC(=O)N1CCC[C@H]1c1c[nH]c(-c2ccccn2)n1)c1ccc2ccccc2n1

>  <score_type>  (44) 
oracle

>  <origin>  (44) 
autodockgpu

>  <m_score__min__energy>  (44) 
-9.4800000000000004

>  <m_primary>  (44) 
energy

>  <rmsd>  (44) 
6.762435018294902

>  <m_score__min__rmsd>  (44) 
6.762435018294902

>  <meeko>  (44) 
{"free_energy": -6.67, "intermolecular_energy": -8.46, "internal_energy": -4.36, "cluster_size": 14, "cluster_id": 6, "rank_in_cluster": 7}

>  <energy>  (44) 
-6.6

>  <cluster_rmsd>  (44) 
1.44

>  <cluster>  (44) 
6

$$$$

     RDKit          3D

 54 58  0  0  0  0  0  0  0  0999 V2000
  138.5480   75.0170  222.3270 O   0  0  0  0  0  0  0  0  0  0  0  0
  139.6480   75.5190  221.9800 C   0  0  0  0  0  0  0  0  0  0  0  0
  139.8900   76.9230  221.9520 N   0  0  0  0  0  0  0  0  0  0  0  0
  138.8160   77.8340  222.3440 C   0  0  0  0  0  0  0  0  0  0  0  0
  139.4230   79.0960  222.8490 C   0  0  0  0  0  0  0  0  0  0  0  0
  138.7540   79.8460  223.6080 O   0  0  0  0  0  0  0  0  0  0  0  0
  140.7310   79.4300  222.4710 N   0  0  0  0  0  0  0  0  0  0  0  0
  141.9580   78.9960  223.1570 C   0  0  0  0  0  0  0  0  0  0  0  0
  142.9240   80.1500  222.9340 C   0  0  0  0  0  0  0  0  0  0  0  0
  142.2010   81.1330  222.0360 C   0  0  0  0  0  0  0  0  0  0  0  0
  141.1780   80.2360  221.3740 C   0  0  1  0  0  0  0  0  0  0  0  0
  141.7310   79.4920  220.2320 C   0  0  0  0  0  0  0  0  0  0  0  0
  142.4020   80.1250  219.1820 C   0  0  0  0  0  0  0  0  0  0  0  0
  142.7810   79.1920  218.3050 N   0  0  0  0  0  0  0  0  0  0  0  0
  142.3740   77.9940  218.7610 C   0  0  0  0  0  0  0  0  0  0  0  0
  142.5950   76.7200  218.0860 C   0  0  0  0  0  0  0  0  0  0  0  0
  143.7120   76.5140  217.3150 C   0  0  0  0  0  0  0  0  0  0  0  0
  143.8590   75.2740  216.7010 C   0  0  0  0  0  0  0  0  0  0  0  0
  142.8900   74.3350  216.8940 C   0  0  0  0  0  0  0  0  0  0  0  0
  141.7620   74.5390  217.6720 C   0  0  0  0  0  0  0  0  0  0  0  0
  141.6580   75.7570  218.2510 N   0  0  0  0  0  0  0  0  0  0  0  0
  141.7350   78.1900  219.9350 N   0  0  0  0  0  0  0  0  0  0  0  0
  140.7460   74.6230  221.5810 C   0  0  0  0  0  0  0  0  0  0  0  0
  140.5640   73.2540  221.5770 C   0  0  0  0  0  0  0  0  0  0  0  0
  141.5840   72.3950  221.2050 C   0  0  0  0  0  0  0  0  0  0  0  0
  142.7880   72.9230  220.8380 C   0  0  0  0  0  0  0  0  0  0  0  0
  143.8380   72.1250  220.4600 C   0  0  0  0  0  0  0  0  0  0  0  0
  145.0550   72.6850  220.0890 C   0  0  0  0  0  0  0  0  0  0  0  0
  145.2380   74.0360  220.0930 C   0  0  0  0  0  0  0  0  0  0  0  0
  144.1790   74.8300  220.4740 C   0  0  0  0  0  0  0  0  0  0  0  0
  142.9610   74.2930  220.8450 C   0  0  0  0  0  0  0  0  0  0  0  0
  141.9470   75.1060  221.2130 N   0  0  0  0  0  0  0  0  0  0  0  0
  140.8330   77.2580  221.6510 H   0  0  0  0  0  0  0  0  0  0  0  0
  138.1789   78.0516  221.4741 H   0  0  0  0  0  0  0  0  0  0  0  0
  138.2006   77.3725  223.1303 H   0  0  0  0  0  0  0  0  0  0  0  0
  141.7733   78.8410  224.2302 H   0  0  0  0  0  0  0  0  0  0  0  0
  142.3430   78.0385  222.7763 H   0  0  0  0  0  0  0  0  0  0  0  0
  143.1797   80.6249  223.8927 H   0  0  0  0  0  0  0  0  0  0  0  0
  143.8645   79.8057  222.4792 H   0  0  0  0  0  0  0  0  0  0  0  0
  141.7187   81.9312  222.6193 H   0  0  0  0  0  0  0  0  0  0  0  0
  142.8570   81.6641  221.3305 H   0  0  0  0  0  0  0  0  0  0  0  0
  140.3454   80.7710  220.8939 H   0  0  0  0  0  0  0  0  0  0  0  0
  142.5862   81.2058  219.0933 H   0  0  0  0  0  0  0  0  0  0  0  0
  143.3030   79.3750  217.4200 H   0  0  0  0  0  0  0  0  0  0  0  0
  144.4667   77.3039  217.1867 H   0  0  0  0  0  0  0  0  0  0  0  0
  144.7366   75.0566  216.0745 H   0  0  0  0  0  0  0  0  0  0  0  0
  143.0107   73.3580  216.4032 H   0  0  0  0  0  0  0  0  0  0  0  0
  140.9986   73.7592  217.8102 H   0  0  0  0  0  0  0  0  0  0  0  0
  139.5902   72.8382  221.8750 H   0  0  0  0  0  0  0  0  0  0  0  0
  141.4269   71.3063  221.2052 H   0  0  0  0  0  0  0  0  0  0  0  0
  143.7157   71.0319  220.4504 H   0  0  0  0  0  0  0  0  0  0  0  0
  145.8837   72.0275  219.7873 H   0  0  0  0  0  0  0  0  0  0  0  0
  146.2019   74.4784  219.8009 H   0  0  0  0  0  0  0  0  0  0  0  0
  144.3064   75.9226  220.4832 H   0  0  0  0  0  0  0  0  0  0  0  0
  1  2  2  0
  2  3  1  0
  3  4  1  0
  4  5  1  0
  5  6  2  0
  5  7  1  0
  7  8  1  0
  8  9  1  0
  9 10  1  0
 10 11  1  0
 11 12  1  0
 12 13  2  0
 13 14  1  0
 14 15  1  0
 15 16  1  0
 16 17  2  0
 17 18  1  0
 18 19  2  0
 19 20  1  0
 20 21  2  0
 15 22  2  0
  2 23  1  0
 23 24  2  0
 24 25  1  0
 25 26  2  0
 26 27  1  0
 27 28  2  0
 28 29  1  0
 29 30  2  0
 30 31  1  0
 31 32  2  0
 11  7  1  0
 22 12  1  0
 32 23  1  0
 21 16  1  0
 31 26  1  0
  3 33  1  0
  4 34  1  0
  4 35  1  0
  8 36  1  0
  8 37  1  0
  9 38  1  0
  9 39  1  0
 10 40  1  0
 10 41  1  0
 11 42  1  6
 13 43  1  0
 14 44  1  0
 17 45  1  0
 18 46  1  0
 19 47  1  0
 20 48  1  0
 24 49  1  0
 25 50  1  0
 27 51  1  0
 28 52  1  0
 29 53  1  0
 30 54  1  0
M  END
>  <smiles>  (45) 
O=C(NCC(=O)N1CCC[C@H]1c1c[nH]c(-c2ccccn2)n1)c1ccc2ccccc2n1

>  <score_type>  (45) 
oracle

>  <origin>  (45) 
autodockgpu

>  <m_score__min__energy>  (45) 
-9.4800000000000004

>  <m_primary>  (45) 
energy

>  <rmsd>  (45) 
6.626025031729684

>  <m_score__min__rmsd>  (45) 
6.626025031729684

>  <meeko>  (45) 
{"free_energy": -6.84, "intermolecular_energy": -8.63, "internal_energy": -4.16, "cluster_size": 25, "cluster_id": 5, "rank_in_cluster": 23}

>  <energy>  (45) 
-6.59

>  <cluster_rmsd>  (45) 
1.63

>  <cluster>  (45) 
6

$$$$

     RDKit          3D

 54 58  0  0  0  0  0  0  0  0999 V2000
  138.1530   70.1740  221.9050 O   0  0  0  0  0  0  0  0  0  0  0  0
  138.6040   70.9240  222.8090 C   0  0  0  0  0  0  0  0  0  0  0  0
  138.6270   72.3450  222.7020 N   0  0  0  0  0  0  0  0  0  0  0  0
  138.1070   72.9720  221.4900 C   0  0  0  0  0  0  0  0  0  0  0  0
  136.9330   73.8120  221.8550 C   0  0  0  0  0  0  0  0  0  0  0  0
  135.8690   73.2590  222.2400 O   0  0  0  0  0  0  0  0  0  0  0  0
  137.0310   75.2080  221.7630 N   0  0  0  0  0  0  0  0  0  0  0  0
  136.3280   76.1740  222.6210 C   0  0  0  0  0  0  0  0  0  0  0  0
  136.1040   77.3720  221.7110 C   0  0  0  0  0  0  0  0  0  0  0  0
  136.7960   77.0380  220.4040 C   0  0  0  0  0  0  0  0  0  0  0  0
  137.8030   76.0040  220.8550 C   0  0  1  0  0  0  0  0  0  0  0  0
  139.0180   76.6060  221.4260 C   0  0  0  0  0  0  0  0  0  0  0  0
  140.1870   75.8700  221.6380 C   0  0  0  0  0  0  0  0  0  0  0  0
  141.1050   76.6850  222.1630 N   0  0  0  0  0  0  0  0  0  0  0  0
  140.5600   77.9080  222.2900 C   0  0  0  0  0  0  0  0  0  0  0  0
  141.2440   79.0800  222.8260 C   0  0  0  0  0  0  0  0  0  0  0  0
  140.5360   80.1290  223.3570 C   0  0  0  0  0  0  0  0  0  0  0  0
  141.2530   81.2140  223.8510 C   0  0  0  0  0  0  0  0  0  0  0  0
  142.6130   81.1800  223.7790 C   0  0  0  0  0  0  0  0  0  0  0  0
  143.3320   80.1230  223.2440 C   0  0  0  0  0  0  0  0  0  0  0  0
  142.5970   79.0880  222.7760 N   0  0  0  0  0  0  0  0  0  0  0  0
  139.2880   77.8470  221.8380 N   0  0  0  0  0  0  0  0  0  0  0  0
  139.1330   70.3160  224.0410 C   0  0  0  0  0  0  0  0  0  0  0  0
  139.0880   68.9480  224.2210 C   0  0  0  0  0  0  0  0  0  0  0  0
  139.5810   68.3590  225.3710 C   0  0  0  0  0  0  0  0  0  0  0  0
  140.1200   69.1540  226.3400 C   0  0  0  0  0  0  0  0  0  0  0  0
  140.6260   68.6300  227.5040 C   0  0  0  0  0  0  0  0  0  0  0  0
  141.1700   69.4610  228.4760 C   0  0  0  0  0  0  0  0  0  0  0  0
  141.2160   70.8120  228.3020 C   0  0  0  0  0  0  0  0  0  0  0  0
  140.7080   71.3300  227.1320 C   0  0  0  0  0  0  0  0  0  0  0  0
  140.1620   70.5220  226.1520 C   0  0  0  0  0  0  0  0  0  0  0  0
  139.6730   71.0680  225.0180 N   0  0  0  0  0  0  0  0  0  0  0  0
  139.0190   72.8950  223.5000 H   0  0  0  0  0  0  0  0  0  0  0  0
  138.8859   73.6016  221.0352 H   0  0  0  0  0  0  0  0  0  0  0  0
  137.8057   72.1995  220.7672 H   0  0  0  0  0  0  0  0  0  0  0  0
  135.3695   75.7627  222.9704 H   0  0  0  0  0  0  0  0  0  0  0  0
  136.8957   76.4291  223.5280 H   0  0  0  0  0  0  0  0  0  0  0  0
  135.0282   77.5299  221.5446 H   0  0  0  0  0  0  0  0  0  0  0  0
  136.5040   78.2957  222.1545 H   0  0  0  0  0  0  0  0  0  0  0  0
  136.0907   76.6197  219.6708 H   0  0  0  0  0  0  0  0  0  0  0  0
  137.2403   77.9065  219.8958 H   0  0  0  0  0  0  0  0  0  0  0  0
  138.2292   75.3991  220.0410 H   0  0  0  0  0  0  0  0  0  0  0  0
  140.3267   74.8027  221.4113 H   0  0  0  0  0  0  0  0  0  0  0  0
  142.0760   76.4080  222.4250 H   0  0  0  0  0  0  0  0  0  0  0  0
  139.4366   80.1124  223.3909 H   0  0  0  0  0  0  0  0  0  0  0  0
  140.7340   82.0791  224.2895 H   0  0  0  0  0  0  0  0  0  0  0  0
  143.1736   82.0426  224.1686 H   0  0  0  0  0  0  0  0  0  0  0  0
  144.4312   80.1253  223.2024 H   0  0  0  0  0  0  0  0  0  0  0  0
  138.6517   68.3144  223.4347 H   0  0  0  0  0  0  0  0  0  0  0  0
  139.5393   67.2677  225.5023 H   0  0  0  0  0  0  0  0  0  0  0  0
  140.6005   67.5427  227.6686 H   0  0  0  0  0  0  0  0  0  0  0  0
  141.5702   69.0210  229.4013 H   0  0  0  0  0  0  0  0  0  0  0  0
  141.6459   71.4684  229.0729 H   0  0  0  0  0  0  0  0  0  0  0  0
  140.7373   72.4180  226.9723 H   0  0  0  0  0  0  0  0  0  0  0  0
  1  2  2  0
  2  3  1  0
  3  4  1  0
  4  5  1  0
  5  6  2  0
  5  7  1  0
  7  8  1  0
  8  9  1  0
  9 10  1  0
 10 11  1  0
 11 12  1  0
 12 13  2  0
 13 14  1  0
 14 15  1  0
 15 16  1  0
 16 17  2  0
 17 18  1  0
 18 19  2  0
 19 20  1  0
 20 21  2  0
 15 22  2  0
  2 23  1  0
 23 24  2  0
 24 25  1  0
 25 26  2  0
 26 27  1  0
 27 28  2  0
 28 29  1  0
 29 30  2  0
 30 31  1  0
 31 32  2  0
 11  7  1  0
 22 12  1  0
 32 23  1  0
 21 16  1  0
 31 26  1  0
  3 33  1  0
  4 34  1  0
  4 35  1  0
  8 36  1  0
  8 37  1  0
  9 38  1  0
  9 39  1  0
 10 40  1  0
 10 41  1  0
 11 42  1  6
 13 43  1  0
 14 44  1  0
 17 45  1  0
 18 46  1  0
 19 47  1  0
 20 48  1  0
 24 49  1  0
 25 50  1  0
 27 51  1  0
 28 52  1  0
 29 53  1  0
 30 54  1  0
M  END
>  <smiles>  (46) 
O=C(NCC(=O)N1CCC[C@H]1c1c[nH]c(-c2ccccn2)n1)c1ccc2ccccc2n1

>  <score_type>  (46) 
oracle

>  <origin>  (46) 
autodockgpu

>  <m_score__min__energy>  (46) 
-9.4800000000000004

>  <m_primary>  (46) 
energy

>  <rmsd>  (46) 
3.3968201442305537

>  <m_score__min__rmsd>  (46) 
3.3968201442305537

>  <meeko>  (46) 
{"free_energy": -8.74, "intermolecular_energy": -10.53, "internal_energy": -1.89, "cluster_size": 6, "cluster_id": 2, "rank_in_cluster": 4}

>  <energy>  (46) 
-6.58

>  <cluster_rmsd>  (46) 
1.43

>  <cluster>  (46) 
6

$$$$

     RDKit          3D

 54 58  0  0  0  0  0  0  0  0999 V2000
  139.0740   74.5400  222.2570 O   0  0  0  0  0  0  0  0  0  0  0  0
  140.1220   75.0820  221.8200 C   0  0  0  0  0  0  0  0  0  0  0  0
  140.2760   76.4930  221.6960 N   0  0  0  0  0  0  0  0  0  0  0  0
  139.1700   77.3620  222.0920 C   0  0  0  0  0  0  0  0  0  0  0  0
  139.7260   78.5430  222.8080 C   0  0  0  0  0  0  0  0  0  0  0  0
  139.1360   78.9840  223.8300 O   0  0  0  0  0  0  0  0  0  0  0  0
  140.9000   79.1460  222.3330 N   0  0  0  0  0  0  0  0  0  0  0  0
  142.2350   79.0170  222.9390 C   0  0  0  0  0  0  0  0  0  0  0  0
  142.9030   80.3480  222.6300 C   0  0  0  0  0  0  0  0  0  0  0  0
  141.9220   81.1180  221.7690 C   0  0  0  0  0  0  0  0  0  0  0  0
  141.0840   79.9960  221.1950 C   0  0  1  0  0  0  0  0  0  0  0  0
  141.7140   79.3570  220.0290 C   0  0  0  0  0  0  0  0  0  0  0  0
  142.3300   80.0940  219.0150 C   0  0  0  0  0  0  0  0  0  0  0  0
  142.8020   79.2400  218.1040 N   0  0  0  0  0  0  0  0  0  0  0  0
  142.5070   77.9910  218.5040 C   0  0  0  0  0  0  0  0  0  0  0  0
  142.8540   76.7730  217.7800 C   0  0  0  0  0  0  0  0  0  0  0  0
  142.3530   75.5550  218.1650 C   0  0  0  0  0  0  0  0  0  0  0  0
  142.7260   74.4360  217.4280 C   0  0  0  0  0  0  0  0  0  0  0  0
  143.5650   74.6060  216.3680 C   0  0  0  0  0  0  0  0  0  0  0  0
  144.0720   75.8340  215.9750 C   0  0  0  0  0  0  0  0  0  0  0  0
  143.6860   76.8960  216.7180 N   0  0  0  0  0  0  0  0  0  0  0  0
  141.8440   78.0750  219.6790 N   0  0  0  0  0  0  0  0  0  0  0  0
  141.2500   74.2270  221.4150 C   0  0  0  0  0  0  0  0  0  0  0  0
  141.0900   72.8590  221.3160 C   0  0  0  0  0  0  0  0  0  0  0  0
  142.1390   72.0390  220.9360 C   0  0  0  0  0  0  0  0  0  0  0  0
  143.3500   72.6050  220.6590 C   0  0  0  0  0  0  0  0  0  0  0  0
  144.4290   71.8460  220.2780 C   0  0  0  0  0  0  0  0  0  0  0  0
  145.6520   72.4440  219.9990 C   0  0  0  0  0  0  0  0  0  0  0  0
  145.8130   73.7950  220.0970 C   0  0  0  0  0  0  0  0  0  0  0  0
  144.7260   74.5490  220.4790 C   0  0  0  0  0  0  0  0  0  0  0  0
  143.5010   73.9740  220.7610 C   0  0  0  0  0  0  0  0  0  0  0  0
  142.4590   74.7480  221.1330 N   0  0  0  0  0  0  0  0  0  0  0  0
  141.1800   76.8620  221.3240 H   0  0  0  0  0  0  0  0  0  0  0  0
  138.6220   77.6948  221.1982 H   0  0  0  0  0  0  0  0  0  0  0  0
  138.4794   76.8146  222.7503 H   0  0  0  0  0  0  0  0  0  0  0  0
  142.1590   78.8593  224.0250 H   0  0  0  0  0  0  0  0  0  0  0  0
  142.7986   78.1570  222.5482 H   0  0  0  0  0  0  0  0  0  0  0  0
  143.1082   80.8977  223.5604 H   0  0  0  0  0  0  0  0  0  0  0  0
  143.8651   80.2061  222.1160 H   0  0  0  0  0  0  0  0  0  0  0  0
  141.3127   81.8075  222.3717 H   0  0  0  0  0  0  0  0  0  0  0  0
  142.3957   81.7587  221.0107 H   0  0  0  0  0  0  0  0  0  0  0  0
  140.1238   80.3183  220.7660 H   0  0  0  0  0  0  0  0  0  0  0  0
  142.4121   81.1902  218.9741 H   0  0  0  0  0  0  0  0  0  0  0  0
  143.3110   79.5090  217.2340 H   0  0  0  0  0  0  0  0  0  0  0  0
  141.6779   75.4664  219.0289 H   0  0  0  0  0  0  0  0  0  0  0  0
  142.3521   73.4365  217.6948 H   0  0  0  0  0  0  0  0  0  0  0  0
  143.8568   73.7164  215.7906 H   0  0  0  0  0  0  0  0  0  0  0  0
  144.7465   75.9386  215.1124 H   0  0  0  0  0  0  0  0  0  0  0  0
  140.1108   72.4123  221.5433 H   0  0  0  0  0  0  0  0  0  0  0  0
  141.9990   70.9507  220.8587 H   0  0  0  0  0  0  0  0  0  0  0  0
  144.3243   70.7543  220.1928 H   0  0  0  0  0  0  0  0  0  0  0  0
  146.5037   71.8180  219.6943 H   0  0  0  0  0  0  0  0  0  0  0  0
  146.7817   74.2677  219.8775 H   0  0  0  0  0  0  0  0  0  0  0  0
  144.8356   75.6404  220.5622 H   0  0  0  0  0  0  0  0  0  0  0  0
  1  2  2  0
  2  3  1  0
  3  4  1  0
  4  5  1  0
  5  6  2  0
  5  7  1  0
  7  8  1  0
  8  9  1  0
  9 10  1  0
 10 11  1  0
 11 12  1  0
 12 13  2  0
 13 14  1  0
 14 15  1  0
 15 16  1  0
 16 17  2  0
 17 18  1  0
 18 19  2  0
 19 20  1  0
 20 21  2  0
 15 22  2  0
  2 23  1  0
 23 24  2  0
 24 25  1  0
 25 26  2  0
 26 27  1  0
 27 28  2  0
 28 29  1  0
 29 30  2  0
 30 31  1  0
 31 32  2  0
 11  7  1  0
 22 12  1  0
 32 23  1  0
 21 16  1  0
 31 26  1  0
  3 33  1  0
  4 34  1  0
  4 35  1  0
  8 36  1  0
  8 37  1  0
  9 38  1  0
  9 39  1  0
 10 40  1  0
 10 41  1  0
 11 42  1  6
 13 43  1  0
 14 44  1  0
 17 45  1  0
 18 46  1  0
 19 47  1  0
 20 48  1  0
 24 49  1  0
 25 50  1  0
 27 51  1  0
 28 52  1  0
 29 53  1  0
 30 54  1  0
M  END
>  <smiles>  (47) 
O=C(NCC(=O)N1CCC[C@H]1c1c[nH]c(-c2ccccn2)n1)c1ccc2ccccc2n1

>  <score_type>  (47) 
oracle

>  <origin>  (47) 
autodockgpu

>  <m_score__min__energy>  (47) 
-9.4800000000000004

>  <m_primary>  (47) 
energy

>  <rmsd>  (47) 
6.719530967301322

>  <m_score__min__rmsd>  (47) 
6.719530967301322

>  <meeko>  (47) 
{"free_energy": -7.27, "intermolecular_energy": -9.06, "internal_energy": -3.97, "cluster_size": 25, "cluster_id": 5, "rank_in_cluster": 8}

>  <energy>  (47) 
-6.58

>  <cluster_rmsd>  (47) 
1.53

>  <cluster>  (47) 
6

$$$$

     RDKit          3D

 54 58  0  0  0  0  0  0  0  0999 V2000
  138.9640   70.8260  221.5550 O   0  0  0  0  0  0  0  0  0  0  0  0
  138.5600   71.2730  222.6600 C   0  0  0  0  0  0  0  0  0  0  0  0
  137.5960   72.3150  222.7720 N   0  0  0  0  0  0  0  0  0  0  0  0
  137.0430   72.9020  221.5530 C   0  0  0  0  0  0  0  0  0  0  0  0
  137.6670   74.2370  221.3420 C   0  0  0  0  0  0  0  0  0  0  0  0
  136.9960   75.2790  221.5650 O   0  0  0  0  0  0  0  0  0  0  0  0
  138.9950   74.3130  220.8970 N   0  0  0  0  0  0  0  0  0  0  0  0
  139.4330   74.2460  219.4940 C   0  0  0  0  0  0  0  0  0  0  0  0
  140.8030   73.5890  219.5740 C   0  0  0  0  0  0  0  0  0  0  0  0
  141.0980   73.4160  221.0500 C   0  0  0  0  0  0  0  0  0  0  0  0
  140.1980   74.4680  221.6600 C   0  0  1  0  0  0  0  0  0  0  0  0
  140.7930   75.8130  221.6270 C   0  0  0  0  0  0  0  0  0  0  0  0
  141.5940   76.2500  220.5680 C   0  0  0  0  0  0  0  0  0  0  0  0
  141.9830   77.5010  220.8240 N   0  0  0  0  0  0  0  0  0  0  0  0
  141.4580   77.8710  222.0060 C   0  0  0  0  0  0  0  0  0  0  0  0
  141.6500   79.1710  222.6390 C   0  0  0  0  0  0  0  0  0  0  0  0
  140.5840   80.0000  222.8880 C   0  0  0  0  0  0  0  0  0  0  0  0
  140.8410   81.2250  223.4940 C   0  0  0  0  0  0  0  0  0  0  0  0
  142.1300   81.5380  223.8070 C   0  0  0  0  0  0  0  0  0  0  0  0
  143.2080   80.7040  223.5590 C   0  0  0  0  0  0  0  0  0  0  0  0
  142.9160   79.5220  222.9680 N   0  0  0  0  0  0  0  0  0  0  0  0
  140.7360   76.8340  222.4850 N   0  0  0  0  0  0  0  0  0  0  0  0
  139.1010   70.6970  223.9020 C   0  0  0  0  0  0  0  0  0  0  0  0
  139.0640   69.3330  224.1150 C   0  0  0  0  0  0  0  0  0  0  0  0
  139.5690   68.7740  225.2760 C   0  0  0  0  0  0  0  0  0  0  0  0
  140.1100   69.5950  226.2210 C   0  0  0  0  0  0  0  0  0  0  0  0
  140.6270   69.1020  227.3940 C   0  0  0  0  0  0  0  0  0  0  0  0
  141.1740   69.9580  228.3420 C   0  0  0  0  0  0  0  0  0  0  0  0
  141.2120   71.3050  228.1340 C   0  0  0  0  0  0  0  0  0  0  0  0
  140.6930   71.7920  226.9560 C   0  0  0  0  0  0  0  0  0  0  0  0
  140.1440   70.9580  226.0000 C   0  0  0  0  0  0  0  0  0  0  0  0
  139.6440   71.4750  224.8570 N   0  0  0  0  0  0  0  0  0  0  0  0
  137.3130   72.6280  223.7280 H   0  0  0  0  0  0  0  0  0  0  0  0
  137.2638   72.2502  220.6949 H   0  0  0  0  0  0  0  0  0  0  0  0
  135.9524   73.0084  221.6490 H   0  0  0  0  0  0  0  0  0  0  0  0
  138.7401   73.6363  218.8956 H   0  0  0  0  0  0  0  0  0  0  0  0
  139.4615   75.2329  219.0091 H   0  0  0  0  0  0  0  0  0  0  0  0
  140.7879   72.6113  219.0701 H   0  0  0  0  0  0  0  0  0  0  0  0
  141.5721   74.1996  219.0784 H   0  0  0  0  0  0  0  0  0  0  0  0
  140.8310   72.4073  221.3981 H   0  0  0  0  0  0  0  0  0  0  0  0
  142.1606   73.5267  221.3120 H   0  0  0  0  0  0  0  0  0  0  0  0
  140.0182   74.3434  222.7380 H   0  0  0  0  0  0  0  0  0  0  0  0
  141.8586   75.6632  219.6760 H   0  0  0  0  0  0  0  0  0  0  0  0
  142.5900   78.0810  220.2060 H   0  0  0  0  0  0  0  0  0  0  0  0
  139.5597   79.7046  222.6168 H   0  0  0  0  0  0  0  0  0  0  0  0
  140.0224   81.9255  223.7157 H   0  0  0  0  0  0  0  0  0  0  0  0
  142.3258   82.5095  224.2844 H   0  0  0  0  0  0  0  0  0  0  0  0
  144.2375   80.9850  223.8259 H   0  0  0  0  0  0  0  0  0  0  0  0
  138.6249   68.6786  223.3475 H   0  0  0  0  0  0  0  0  0  0  0  0
  139.5346   67.6859  225.4338 H   0  0  0  0  0  0  0  0  0  0  0  0
  140.6078   68.0189  227.5849 H   0  0  0  0  0  0  0  0  0  0  0  0
  141.5828   69.5425  229.2749 H   0  0  0  0  0  0  0  0  0  0  0  0
  141.6445   71.9822  228.8852 H   0  0  0  0  0  0  0  0  0  0  0  0
  140.7157   72.8759  226.7699 H   0  0  0  0  0  0  0  0  0  0  0  0
  1  2  2  0
  2  3  1  0
  3  4  1  0
  4  5  1  0
  5  6  2  0
  5  7  1  0
  7  8  1  0
  8  9  1  0
  9 10  1  0
 10 11  1  0
 11 12  1  0
 12 13  2  0
 13 14  1  0
 14 15  1  0
 15 16  1  0
 16 17  2  0
 17 18  1  0
 18 19  2  0
 19 20  1  0
 20 21  2  0
 15 22  2  0
  2 23  1  0
 23 24  2  0
 24 25  1  0
 25 26  2  0
 26 27  1  0
 27 28  2  0
 28 29  1  0
 29 30  2  0
 30 31  1  0
 31 32  2  0
 11  7  1  0
 22 12  1  0
 32 23  1  0
 21 16  1  0
 31 26  1  0
  3 33  1  0
  4 34  1  0
  4 35  1  0
  8 36  1  0
  8 37  1  0
  9 38  1  0
  9 39  1  0
 10 40  1  0
 10 41  1  0
 11 42  1  1
 13 43  1  0
 14 44  1  0
 17 45  1  0
 18 46  1  0
 19 47  1  0
 20 48  1  0
 24 49  1  0
 25 50  1  0
 27 51  1  0
 28 52  1  0
 29 53  1  0
 30 54  1  0
M  END
>  <smiles>  (48) 
O=C(NCC(=O)N1CCC[C@H]1c1c[nH]c(-c2ccccn2)n1)c1ccc2ccccc2n1

>  <score_type>  (48) 
oracle

>  <origin>  (48) 
autodockgpu

>  <m_score__min__energy>  (48) 
-9.4800000000000004

>  <m_primary>  (48) 
energy

>  <rmsd>  (48) 
2.780987766980792

>  <m_score__min__rmsd>  (48) 
2.780987766980792

>  <meeko>  (48) 
{"free_energy": -8.85, "intermolecular_energy": -10.64, "internal_energy": -1.67, "cluster_size": 6, "cluster_id": 2, "rank_in_cluster": 2}

>  <energy>  (48) 
-6.55

>  <cluster_rmsd>  (48) 
1.43

>  <cluster>  (48) 
6

$$$$

     RDKit          3D

 54 58  0  0  0  0  0  0  0  0999 V2000
  139.1650   74.2310  222.3310 O   0  0  0  0  0  0  0  0  0  0  0  0
  140.0850   74.8160  221.7030 C   0  0  0  0  0  0  0  0  0  0  0  0
  140.0190   76.1880  221.3260 N   0  0  0  0  0  0  0  0  0  0  0  0
  138.8320   76.9640  221.6800 C   0  0  0  0  0  0  0  0  0  0  0  0
  139.2590   78.1630  222.4520 C   0  0  0  0  0  0  0  0  0  0  0  0
  138.4780   78.6640  223.3030 O   0  0  0  0  0  0  0  0  0  0  0  0
  140.5260   78.7170  222.2180 N   0  0  0  0  0  0  0  0  0  0  0  0
  141.7620   78.3580  222.9300 C   0  0  0  0  0  0  0  0  0  0  0  0
  142.5670   79.6490  222.9310 C   0  0  0  0  0  0  0  0  0  0  0  0
  141.7620   80.6430  222.1190 C   0  0  0  0  0  0  0  0  0  0  0  0
  140.9150   79.7200  221.2720 C   0  0  1  0  0  0  0  0  0  0  0  0
  141.6290   79.2220  220.0860 C   0  0  0  0  0  0  0  0  0  0  0  0
  142.2380   80.0790  219.1660 C   0  0  0  0  0  0  0  0  0  0  0  0
  142.7990   79.3370  218.2090 N   0  0  0  0  0  0  0  0  0  0  0  0
  142.5670   78.0420  218.4890 C   0  0  0  0  0  0  0  0  0  0  0  0
  143.0170   76.9140  217.6810 C   0  0  0  0  0  0  0  0  0  0  0  0
  143.5260   77.1070  216.4210 C   0  0  0  0  0  0  0  0  0  0  0  0
  143.9360   75.9860  215.7070 C   0  0  0  0  0  0  0  0  0  0  0  0
  143.8110   74.7610  216.2920 C   0  0  0  0  0  0  0  0  0  0  0  0
  143.2990   74.5620  217.5640 C   0  0  0  0  0  0  0  0  0  0  0  0
  142.9120   75.6780  218.2240 N   0  0  0  0  0  0  0  0  0  0  0  0
  141.8520   77.9850  219.6350 N   0  0  0  0  0  0  0  0  0  0  0  0
  141.2920   74.0570  221.3370 C   0  0  0  0  0  0  0  0  0  0  0  0
  141.2400   72.6830  221.2060 C   0  0  0  0  0  0  0  0  0  0  0  0
  142.3640   71.9520  220.8610 C   0  0  0  0  0  0  0  0  0  0  0  0
  143.5400   72.6130  220.6500 C   0  0  0  0  0  0  0  0  0  0  0  0
  144.6890   71.9450  220.3060 C   0  0  0  0  0  0  0  0  0  0  0  0
  145.8740   72.6390  220.0950 C   0  0  0  0  0  0  0  0  0  0  0  0
  145.9280   73.9950  220.2240 C   0  0  0  0  0  0  0  0  0  0  0  0
  144.7710   74.6580  220.5680 C   0  0  0  0  0  0  0  0  0  0  0  0
  143.5820   73.9870  220.7820 C   0  0  0  0  0  0  0  0  0  0  0  0
  142.4690   74.6730  221.1200 N   0  0  0  0  0  0  0  0  0  0  0  0
  140.8280   76.5980  220.8060 H   0  0  0  0  0  0  0  0  0  0  0  0
  138.3095   77.2796  220.7649 H   0  0  0  0  0  0  0  0  0  0  0  0
  138.1501   76.3504  222.2870 H   0  0  0  0  0  0  0  0  0  0  0  0
  141.5421   78.0323  223.9574 H   0  0  0  0  0  0  0  0  0  0  0  0
  142.2983   77.5221  222.4571 H   0  0  0  0  0  0  0  0  0  0  0  0
  142.7011   80.0151  223.9596 H   0  0  0  0  0  0  0  0  0  0  0  0
  143.5701   79.4990  222.5051 H   0  0  0  0  0  0  0  0  0  0  0  0
  141.1400   81.2802  222.7649 H   0  0  0  0  0  0  0  0  0  0  0  0
  142.3735   81.3503  221.5395 H   0  0  0  0  0  0  0  0  0  0  0  0
  140.0434   80.2023  220.8054 H   0  0  0  0  0  0  0  0  0  0  0  0
  142.2526   81.1775  219.2210 H   0  0  0  0  0  0  0  0  0  0  0  0
  143.3250   79.7090  217.3880 H   0  0  0  0  0  0  0  0  0  0  0  0
  143.6071   78.1157  215.9898 H   0  0  0  0  0  0  0  0  0  0  0  0
  144.3516   76.0856  214.6934 H   0  0  0  0  0  0  0  0  0  0  0  0
  144.1357   73.8788  215.7207 H   0  0  0  0  0  0  0  0  0  0  0  0
  143.2126   73.5599  218.0092 H   0  0  0  0  0  0  0  0  0  0  0  0
  140.2879   72.1599  221.3790 H   0  0  0  0  0  0  0  0  0  0  0  0
  142.3106   70.8581  220.7587 H   0  0  0  0  0  0  0  0  0  0  0  0
  144.6713   70.8506  220.1965 H   0  0  0  0  0  0  0  0  0  0  0  0
  146.7835   72.0852  219.8193 H   0  0  0  0  0  0  0  0  0  0  0  0
  146.8673   74.5430  220.0583 H   0  0  0  0  0  0  0  0  0  0  0  0
  144.7939   75.7525  220.6754 H   0  0  0  0  0  0  0  0  0  0  0  0
  1  2  2  0
  2  3  1  0
  3  4  1  0
  4  5  1  0
  5  6  2  0
  5  7  1  0
  7  8  1  0
  8  9  1  0
  9 10  1  0
 10 11  1  0
 11 12  1  0
 12 13  2  0
 13 14  1  0
 14 15  1  0
 15 16  1  0
 16 17  2  0
 17 18  1  0
 18 19  2  0
 19 20  1  0
 20 21  2  0
 15 22  2  0
  2 23  1  0
 23 24  2  0
 24 25  1  0
 25 26  2  0
 26 27  1  0
 27 28  2  0
 28 29  1  0
 29 30  2  0
 30 31  1  0
 31 32  2  0
 11  7  1  0
 22 12  1  0
 32 23  1  0
 21 16  1  0
 31 26  1  0
  3 33  1  0
  4 34  1  0
  4 35  1  0
  8 36  1  0
  8 37  1  0
  9 38  1  0
  9 39  1  0
 10 40  1  0
 10 41  1  0
 11 42  1  6
 13 43  1  0
 14 44  1  0
 17 45  1  0
 18 46  1  0
 19 47  1  0
 20 48  1  0
 24 49  1  0
 25 50  1  0
 27 51  1  0
 28 52  1  0
 29 53  1  0
 30 54  1  0
M  END
>  <smiles>  (49) 
O=C(NCC(=O)N1CCC[C@H]1c1c[nH]c(-c2ccccn2)n1)c1ccc2ccccc2n1

>  <score_type>  (49) 
oracle

>  <origin>  (49) 
autodockgpu

>  <m_score__min__energy>  (49) 
-9.4800000000000004

>  <m_primary>  (49) 
energy

>  <rmsd>  (49) 
6.559856557099669

>  <m_score__min__rmsd>  (49) 
6.559856557099669

>  <meeko>  (49) 
{"free_energy": -7.13, "intermolecular_energy": -8.92, "internal_energy": -3.69, "cluster_size": 25, "cluster_id": 5, "rank_in_cluster": 13}

>  <energy>  (49) 
-6.5

>  <cluster_rmsd>  (49) 
1.44

>  <cluster>  (49) 
6

$$$$

     RDKit          3D

 54 58  0  0  0  0  0  0  0  0999 V2000
  139.0900   74.5470  222.3170 O   0  0  0  0  0  0  0  0  0  0  0  0
  140.1150   75.0920  221.8320 C   0  0  0  0  0  0  0  0  0  0  0  0
  140.2340   76.4990  221.6440 N   0  0  0  0  0  0  0  0  0  0  0  0
  139.1190   77.3610  222.0290 C   0  0  0  0  0  0  0  0  0  0  0  0
  139.6620   78.5570  222.7300 C   0  0  0  0  0  0  0  0  0  0  0  0
  139.0110   79.0690  223.6790 O   0  0  0  0  0  0  0  0  0  0  0  0
  140.8920   79.0940  222.3230 N   0  0  0  0  0  0  0  0  0  0  0  0
  142.1940   78.8290  222.9540 C   0  0  0  0  0  0  0  0  0  0  0  0
  142.9680   80.1210  222.7420 C   0  0  0  0  0  0  0  0  0  0  0  0
  142.0750   81.0110  221.9020 C   0  0  0  0  0  0  0  0  0  0  0  0
  141.1740   79.9910  221.2420 C   0  0  1  0  0  0  0  0  0  0  0  0
  141.7890   79.3720  220.0570 C   0  0  0  0  0  0  0  0  0  0  0  0
  142.3750   80.1280  219.0380 C   0  0  0  0  0  0  0  0  0  0  0  0
  142.8410   79.2900  218.1100 N   0  0  0  0  0  0  0  0  0  0  0  0
  142.5720   78.0330  218.5040 C   0  0  0  0  0  0  0  0  0  0  0  0
  142.9220   76.8270  217.7600 C   0  0  0  0  0  0  0  0  0  0  0  0
  142.4770   75.5940  218.1650 C   0  0  0  0  0  0  0  0  0  0  0  0
  142.8490   74.4870  217.4080 C   0  0  0  0  0  0  0  0  0  0  0  0
  143.6320   74.6850  216.3100 C   0  0  0  0  0  0  0  0  0  0  0  0
  144.0830   75.9280  215.8980 C   0  0  0  0  0  0  0  0  0  0  0  0
  143.6990   76.9770  216.6610 N   0  0  0  0  0  0  0  0  0  0  0  0
  141.9310   78.0960  219.6910 N   0  0  0  0  0  0  0  0  0  0  0  0
  141.2530   74.2440  221.4370 C   0  0  0  0  0  0  0  0  0  0  0  0
  141.1100   72.8730  221.3640 C   0  0  0  0  0  0  0  0  0  0  0  0
  142.1680   72.0600  220.9940 C   0  0  0  0  0  0  0  0  0  0  0  0
  143.3690   72.6370  220.6980 C   0  0  0  0  0  0  0  0  0  0  0  0
  144.4560   71.8850  220.3260 C   0  0  0  0  0  0  0  0  0  0  0  0
  145.6690   72.4950  220.0290 C   0  0  0  0  0  0  0  0  0  0  0  0
  145.8130   73.8480  220.1000 C   0  0  0  0  0  0  0  0  0  0  0  0
  144.7180   74.5950  220.4750 C   0  0  0  0  0  0  0  0  0  0  0  0
  143.5030   74.0090  220.7740 C   0  0  0  0  0  0  0  0  0  0  0  0
  142.4520   74.7760  221.1370 N   0  0  0  0  0  0  0  0  0  0  0  0
  141.1210   76.8710  221.2340 H   0  0  0  0  0  0  0  0  0  0  0  0
  138.5676   77.6766  221.1310 H   0  0  0  0  0  0  0  0  0  0  0  0
  138.4344   76.8145  222.6944 H   0  0  0  0  0  0  0  0  0  0  0  0
  142.0738   78.6154  224.0263 H   0  0  0  0  0  0  0  0  0  0  0  0
  142.7035   77.9524  222.5275 H   0  0  0  0  0  0  0  0  0  0  0  0
  143.1842   80.5998  223.7085 H   0  0  0  0  0  0  0  0  0  0  0  0
  143.9324   79.9357  222.2464 H   0  0  0  0  0  0  0  0  0  0  0  0
  141.5008   81.7103  222.5275 H   0  0  0  0  0  0  0  0  0  0  0  0
  142.6186   81.6553  221.1953 H   0  0  0  0  0  0  0  0  0  0  0  0
  140.2544   80.4102  220.8078 H   0  0  0  0  0  0  0  0  0  0  0  0
  142.4408   81.2256  219.0064 H   0  0  0  0  0  0  0  0  0  0  0  0
  143.3290   79.5750  217.2330 H   0  0  0  0  0  0  0  0  0  0  0  0
  141.8463   75.4839  219.0595 H   0  0  0  0  0  0  0  0  0  0  0  0
  142.5189   73.4761  217.6892 H   0  0  0  0  0  0  0  0  0  0  0  0
  143.9228   73.8059  215.7162 H   0  0  0  0  0  0  0  0  0  0  0  0
  144.7141   76.0544  215.0059 H   0  0  0  0  0  0  0  0  0  0  0  0
  140.1377   72.4180  221.6042 H   0  0  0  0  0  0  0  0  0  0  0  0
  142.0428   70.9685  220.9396 H   0  0  0  0  0  0  0  0  0  0  0  0
  144.3660   70.7905  220.2625 H   0  0  0  0  0  0  0  0  0  0  0  0
  146.5275   71.8749  219.7315 H   0  0  0  0  0  0  0  0  0  0  0  0
  146.7740   74.3290  219.8651 H   0  0  0  0  0  0  0  0  0  0  0  0
  144.8136   75.6890  220.5382 H   0  0  0  0  0  0  0  0  0  0  0  0
  1  2  2  0
  2  3  1  0
  3  4  1  0
  4  5  1  0
  5  6  2  0
  5  7  1  0
  7  8  1  0
  8  9  1  0
  9 10  1  0
 10 11  1  0
 11 12  1  0
 12 13  2  0
 13 14  1  0
 14 15  1  0
 15 16  1  0
 16 17  2  0
 17 18  1  0
 18 19  2  0
 19 20  1  0
 20 21  2  0
 15 22  2  0
  2 23  1  0
 23 24  2  0
 24 25  1  0
 25 26  2  0
 26 27  1  0
 27 28  2  0
 28 29  1  0
 29 30  2  0
 30 31  1  0
 31 32  2  0
 11  7  1  0
 22 12  1  0
 32 23  1  0
 21 16  1  0
 31 26  1  0
  3 33  1  0
  4 34  1  0
  4 35  1  0
  8 36  1  0
  8 37  1  0
  9 38  1  0
  9 39  1  0
 10 40  1  0
 10 41  1  0
 11 42  1  6
 13 43  1  0
 14 44  1  0
 17 45  1  0
 18 46  1  0
 19 47  1  0
 20 48  1  0
 24 49  1  0
 25 50  1  0
 27 51  1  0
 28 52  1  0
 29 53  1  0
 30 54  1  0
M  END
>  <smiles>  (50) 
O=C(NCC(=O)N1CCC[C@H]1c1c[nH]c(-c2ccccn2)n1)c1ccc2ccccc2n1

>  <score_type>  (50) 
oracle

>  <origin>  (50) 
autodockgpu

>  <m_score__min__energy>  (50) 
-9.4800000000000004

>  <m_primary>  (50) 
energy

>  <rmsd>  (50) 
6.7116954142440886

>  <m_score__min__rmsd>  (50) 
6.7116954142440886

>  <meeko>  (50) 
{"free_energy": -7.25, "intermolecular_energy": -9.04, "internal_energy": -3.96, "cluster_size": 25, "cluster_id": 5, "rank_in_cluster": 10}

>  <energy>  (50) 
-6.25

>  <cluster_rmsd>  (50) 
0.0

>  <cluster>  (50) 
7

$$$$
