
     RDKit          3D

 56 59  0  0  0  0  0  0  0  0999 V2000
  140.3140   73.6380  222.3260 O   0  0  0  0  0  0  0  0  0  0  0  0
  140.3700   72.3850  222.2010 C   0  0  0  0  0  0  0  0  0  0  0  0
  140.6370   71.7410  220.9560 N   0  0  0  0  0  0  0  0  0  0  0  0
  140.8560   72.5520  219.7720 C   0  0  0  0  0  0  0  0  0  0  0  0
  142.1280   72.2390  219.0960 C   0  0  0  0  0  0  0  0  0  0  0  0
  142.1730   71.2520  218.3180 O   0  0  0  0  0  0  0  0  0  0  0  0
  143.2440   73.0790  219.3670 N   0  0  0  0  0  0  0  0  0  0  0  0
  144.5580   72.8560  218.7830 C   0  0  0  0  0  0  0  0  0  0  0  0
  145.5820   72.5890  219.8770 C   0  0  0  0  0  0  0  0  0  0  0  0
  145.4280   73.6290  220.9370 C   0  0  0  0  0  0  0  0  0  0  0  0
  144.5100   74.7710  220.4370 C   0  0  0  0  0  0  0  0  0  0  0  0
  143.1290   74.2410  220.2690 C   0  0  1  0  0  0  0  0  0  0  0  0
  142.1740   75.2400  219.6880 C   0  0  0  0  0  0  0  0  0  0  0  0
  141.3020   75.8390  220.6400 N   0  0  0  0  0  0  0  0  0  0  0  0
  141.4220   77.0910  221.2690 C   0  0  0  0  0  0  0  0  0  0  0  0
  141.0800   77.2410  222.6260 C   0  0  0  0  0  0  0  0  0  0  0  0
  141.1490   78.4490  223.2650 C   0  0  0  0  0  0  0  0  0  0  0  0
  141.5540   79.5910  222.6190 C   0  0  0  0  0  0  0  0  0  0  0  0
  141.6330   81.1110  223.4500 Cl  0  0  0  0  0  0  0  0  0  0  0  0
  141.8940   79.4750  221.2880 C   0  0  0  0  0  0  0  0  0  0  0  0
  141.8240   78.2550  220.6490 C   0  0  0  0  0  0  0  0  0  0  0  0
  140.1520   71.5440  223.3810 C   0  0  0  0  0  0  0  0  0  0  0  0
  139.4200   70.3780  223.2910 C   0  0  0  0  0  0  0  0  0  0  0  0
  139.2150   69.5820  224.4160 C   0  0  0  0  0  0  0  0  0  0  0  0
  139.7470   69.9530  225.6470 C   0  0  0  0  0  0  0  0  0  0  0  0
  139.5570   69.1750  226.7860 C   0  0  0  0  0  0  0  0  0  0  0  0
  140.1080   69.5870  227.9950 C   0  0  0  0  0  0  0  0  0  0  0  0
  139.9390   68.8490  229.1230 F   0  0  0  0  0  0  0  0  0  0  0  0
  140.8360   70.7540  228.0640 C   0  0  0  0  0  0  0  0  0  0  0  0
  141.0170   71.5180  226.9240 C   0  0  0  0  0  0  0  0  0  0  0  0
  140.4740   71.1270  225.6980 C   0  0  0  0  0  0  0  0  0  0  0  0
  140.6520   71.8720  224.5900 N   0  0  0  0  0  0  0  0  0  0  0  0
  140.6660   70.6870  220.9400 H   0  0  0  0  0  0  0  0  0  0  0  0
  140.0301   72.3760  219.0671 H   0  0  0  0  0  0  0  0  0  0  0  0
  140.8998   73.6033  220.0926 H   0  0  0  0  0  0  0  0  0  0  0  0
  144.5130   71.9885  218.1081 H   0  0  0  0  0  0  0  0  0  0  0  0
  144.8581   73.7535  218.2223 H   0  0  0  0  0  0  0  0  0  0  0  0
  145.4117   71.5917  220.3087 H   0  0  0  0  0  0  0  0  0  0  0  0
  146.5984   72.6268  219.4580 H   0  0  0  0  0  0  0  0  0  0  0  0
  144.9833   73.1714  221.8330 H   0  0  0  0  0  0  0  0  0  0  0  0
  146.4176   74.0441  221.1787 H   0  0  0  0  0  0  0  0  0  0  0  0
  144.5046   75.5892  221.1722 H   0  0  0  0  0  0  0  0  0  0  0  0
  144.8818   75.1540  219.4752 H   0  0  0  0  0  0  0  0  0  0  0  0
  142.7186   73.9795  221.2555 H   0  0  0  0  0  0  0  0  0  0  0  0
  142.7598   76.0376  219.2077 H   0  0  0  0  0  0  0  0  0  0  0  0
  141.5369   74.6912  218.9788 H   0  0  0  0  0  0  0  0  0  0  0  0
  140.4440   75.2640  220.9150 H   0  0  0  0  0  0  0  0  0  0  0  0
  140.7464   76.3583  223.1913 H   0  0  0  0  0  0  0  0  0  0  0  0
  140.8718   78.5070  224.3279 H   0  0  0  0  0  0  0  0  0  0  0  0
  142.2242   80.3639  220.7305 H   0  0  0  0  0  0  0  0  0  0  0  0
  142.1043   78.2079  219.5864 H   0  0  0  0  0  0  0  0  0  0  0  0
  138.9947   70.0743  222.3231 H   0  0  0  0  0  0  0  0  0  0  0  0
  138.6292   68.6549  224.3305 H   0  0  0  0  0  0  0  0  0  0  0  0
  138.9762   68.2425  226.7303 H   0  0  0  0  0  0  0  0  0  0  0  0
  141.2717   71.0776  229.0208 H   0  0  0  0  0  0  0  0  0  0  0  0
  141.5988   72.4496  226.9847 H   0  0  0  0  0  0  0  0  0  0  0  0
  1  2  2  0
  2  3  1  0
  3  4  1  0
  4  5  1  0
  5  6  2  0
  5  7  1  0
  7  8  1  0
  8  9  1  0
  9 10  1  0
 10 11  1  0
 11 12  1  0
 12 13  1  0
 13 14  1  0
 14 15  1  0
 15 16  2  0
 16 17  1  0
 17 18  2  0
 18 19  1  0
 18 20  1  0
 20 21  2  0
  2 22  1  0
 22 23  2  0
 23 24  1  0
 24 25  2  0
 25 26  1  0
 26 27  2  0
 27 28  1  0
 27 29  1  0
 29 30  2  0
 30 31  1  0
 31 32  2  0
 12  7  1  0
 21 15  1  0
 32 22  1  0
 31 25  1  0
  3 33  1  0
  4 34  1  0
  4 35  1  0
  8 36  1  0
  8 37  1  0
  9 38  1  0
  9 39  1  0
 10 40  1  0
 10 41  1  0
 11 42  1  0
 11 43  1  0
 12 44  1  1
 13 45  1  0
 13 46  1  0
 14 47  1  0
 16 48  1  0
 17 49  1  0
 20 50  1  0
 21 51  1  0
 23 52  1  0
 24 53  1  0
 26 54  1  0
 29 55  1  0
 30 56  1  0
M  END
>  <smiles>  (1) 
O=C(NCC(=O)N1CCCC[C@H]1CNc1ccc(Cl)cc1)c1ccc2cc(F)ccc2n1

>  <score_type>  (1) 
oracle

>  <origin>  (1) 
autodockgpu

>  <m_score__min__energy>  (1) 
-9.0600000000000005

>  <m_primary>  (1) 
energy

>  <rmsd>  (1) 
3.6316582980019274

>  <m_score__min__rmsd>  (1) 
3.6316582980019274

>  <meeko>  (1) 
{"free_energy": -9.01, "intermolecular_energy": -11.1, "internal_energy": -2.14, "cluster_size": 17, "cluster_id": 1, "rank_in_cluster": 2}

>  <energy>  (1) 
-9.06

>  <cluster_rmsd>  (1) 
0.0

>  <cluster>  (1) 
1

$$$$

     RDKit          3D

 56 59  0  0  0  0  0  0  0  0999 V2000
  140.3450   71.7780  220.9580 O   0  0  0  0  0  0  0  0  0  0  0  0
  140.0560   72.3130  222.0620 C   0  0  0  0  0  0  0  0  0  0  0  0
  139.8160   73.7120  222.2060 N   0  0  0  0  0  0  0  0  0  0  0  0
  139.9060   74.5710  221.0390 C   0  0  0  0  0  0  0  0  0  0  0  0
  140.8410   75.6940  221.2310 C   0  0  0  0  0  0  0  0  0  0  0  0
  141.3960   75.8340  222.3500 O   0  0  0  0  0  0  0  0  0  0  0  0
  141.0630   76.5640  220.1270 N   0  0  0  0  0  0  0  0  0  0  0  0
  140.4510   77.8800  220.0260 C   0  0  0  0  0  0  0  0  0  0  0  0
  139.5520   77.9500  218.8000 C   0  0  0  0  0  0  0  0  0  0  0  0
  140.3020   77.4090  217.6280 C   0  0  0  0  0  0  0  0  0  0  0  0
  141.8000   77.2440  217.9810 C   0  0  0  0  0  0  0  0  0  0  0  0
  141.9390   76.1730  219.0060 C   0  0  1  0  0  0  0  0  0  0  0  0
  143.3440   75.9990  219.4990 C   0  0  0  0  0  0  0  0  0  0  0  0
  143.5060   74.9460  220.4430 N   0  0  0  0  0  0  0  0  0  0  0  0
  143.9200   73.6210  220.2130 C   0  0  0  0  0  0  0  0  0  0  0  0
  145.1580   73.3600  219.5960 C   0  0  0  0  0  0  0  0  0  0  0  0
  145.5810   72.0890  219.3230 C   0  0  0  0  0  0  0  0  0  0  0  0
  144.8220   70.9880  219.6330 C   0  0  0  0  0  0  0  0  0  0  0  0
  145.3790   69.3840  219.2760 Cl  0  0  0  0  0  0  0  0  0  0  0  0
  143.6040   71.2120  220.2360 C   0  0  0  0  0  0  0  0  0  0  0  0
  143.1820   72.4970  220.5100 C   0  0  0  0  0  0  0  0  0  0  0  0
  139.9590   71.4690  223.2560 C   0  0  0  0  0  0  0  0  0  0  0  0
  139.3910   70.2130  223.1890 C   0  0  0  0  0  0  0  0  0  0  0  0
  139.3010   69.4160  224.3280 C   0  0  0  0  0  0  0  0  0  0  0  0
  139.7840   69.8760  225.5490 C   0  0  0  0  0  0  0  0  0  0  0  0
  139.7060   69.0970  226.7010 C   0  0  0  0  0  0  0  0  0  0  0  0
  140.2020   69.6010  227.9000 C   0  0  0  0  0  0  0  0  0  0  0  0
  140.1400   68.8640  229.0400 F   0  0  0  0  0  0  0  0  0  0  0  0
  140.7660   70.8550  227.9460 C   0  0  0  0  0  0  0  0  0  0  0  0
  140.8370   71.6190  226.7930 C   0  0  0  0  0  0  0  0  0  0  0  0
  140.3460   71.1380  225.5770 C   0  0  0  0  0  0  0  0  0  0  0  0
  140.4150   71.8820  224.4560 N   0  0  0  0  0  0  0  0  0  0  0  0
  139.5790   74.0780  223.1670 H   0  0  0  0  0  0  0  0  0  0  0  0
  140.2493   73.9693  220.1846 H   0  0  0  0  0  0  0  0  0  0  0  0
  138.9073   74.9964  220.8614 H   0  0  0  0  0  0  0  0  0  0  0  0
  139.8509   78.0716  220.9278 H   0  0  0  0  0  0  0  0  0  0  0  0
  141.2431   78.6376  219.9334 H   0  0  0  0  0  0  0  0  0  0  0  0
  138.6463   77.3493  218.9698 H   0  0  0  0  0  0  0  0  0  0  0  0
  139.2574   78.9925  218.6090 H   0  0  0  0  0  0  0  0  0  0  0  0
  139.8844   76.4301  217.3500 H   0  0  0  0  0  0  0  0  0  0  0  0
  140.2071   78.1109  216.7864 H   0  0  0  0  0  0  0  0  0  0  0  0
  142.3637   76.9664  217.0781 H   0  0  0  0  0  0  0  0  0  0  0  0
  142.1964   78.1912  218.3757 H   0  0  0  0  0  0  0  0  0  0  0  0
  141.6606   75.2066  218.5605 H   0  0  0  0  0  0  0  0  0  0  0  0
  143.9895   75.7885  218.6335 H   0  0  0  0  0  0  0  0  0  0  0  0
  143.6146   76.9312  220.0165 H   0  0  0  0  0  0  0  0  0  0  0  0
  143.2850   75.1910  221.4590 H   0  0  0  0  0  0  0  0  0  0  0  0
  145.8062   74.2063  219.3247 H   0  0  0  0  0  0  0  0  0  0  0  0
  146.5588   71.9442  218.8405 H   0  0  0  0  0  0  0  0  0  0  0  0
  142.9621   70.3591  220.5015 H   0  0  0  0  0  0  0  0  0  0  0  0
  142.2024   72.6307  220.9921 H   0  0  0  0  0  0  0  0  0  0  0  0
  139.0064   69.8384  222.2289 H   0  0  0  0  0  0  0  0  0  0  0  0
  138.8453   68.4170  224.2616 H   0  0  0  0  0  0  0  0  0  0  0  0
  139.2569   68.0935  226.6637 H   0  0  0  0  0  0  0  0  0  0  0  0
  141.1590   71.2493  228.8947 H   0  0  0  0  0  0  0  0  0  0  0  0
  141.2877   72.6215  226.8356 H   0  0  0  0  0  0  0  0  0  0  0  0
  1  2  2  0
  2  3  1  0
  3  4  1  0
  4  5  1  0
  5  6  2  0
  5  7  1  0
  7  8  1  0
  8  9  1  0
  9 10  1  0
 10 11  1  0
 11 12  1  0
 12 13  1  0
 13 14  1  0
 14 15  1  0
 15 16  2  0
 16 17  1  0
 17 18  2  0
 18 19  1  0
 18 20  1  0
 20 21  2  0
  2 22  1  0
 22 23  2  0
 23 24  1  0
 24 25  2  0
 25 26  1  0
 26 27  2  0
 27 28  1  0
 27 29  1  0
 29 30  2  0
 30 31  1  0
 31 32  2  0
 12  7  1  0
 21 15  1  0
 32 22  1  0
 31 25  1  0
  3 33  1  0
  4 34  1  0
  4 35  1  0
  8 36  1  0
  8 37  1  0
  9 38  1  0
  9 39  1  0
 10 40  1  0
 10 41  1  0
 11 42  1  0
 11 43  1  0
 12 44  1  6
 13 45  1  0
 13 46  1  0
 14 47  1  0
 16 48  1  0
 17 49  1  0
 20 50  1  0
 21 51  1  0
 23 52  1  0
 24 53  1  0
 26 54  1  0
 29 55  1  0
 30 56  1  0
M  END
>  <smiles>  (2) 
O=C(NCC(=O)N1CCCC[C@H]1CNc1ccc(Cl)cc1)c1ccc2cc(F)ccc2n1

>  <score_type>  (2) 
oracle

>  <origin>  (2) 
autodockgpu

>  <m_score__min__energy>  (2) 
-9.0600000000000005

>  <m_primary>  (2) 
energy

>  <rmsd>  (2) 
4.447592578248348

>  <m_score__min__rmsd>  (2) 
4.447592578248348

>  <meeko>  (2) 
{"free_energy": -7.84, "intermolecular_energy": -9.93, "internal_energy": -2.68, "cluster_size": 10, "cluster_id": 2, "rank_in_cluster": 7}

>  <energy>  (2) 
-9.01

>  <cluster_rmsd>  (2) 
1.79

>  <cluster>  (2) 
1

$$$$

     RDKit          3D

 56 59  0  0  0  0  0  0  0  0999 V2000
  137.8040   76.9430  223.0190 O   0  0  0  0  0  0  0  0  0  0  0  0
  138.0030   75.7680  222.6090 C   0  0  0  0  0  0  0  0  0  0  0  0
  136.9920   74.7620  222.6190 N   0  0  0  0  0  0  0  0  0  0  0  0
  135.6700   75.0910  223.1210 C   0  0  0  0  0  0  0  0  0  0  0  0
  135.4230   74.5450  224.4680 C   0  0  0  0  0  0  0  0  0  0  0  0
  135.7170   75.2480  225.4690 O   0  0  0  0  0  0  0  0  0  0  0  0
  134.8590   73.2420  224.5590 N   0  0  0  0  0  0  0  0  0  0  0  0
  133.4240   73.0080  224.6250 C   0  0  0  0  0  0  0  0  0  0  0  0
  133.0620   72.3250  225.9360 C   0  0  0  0  0  0  0  0  0  0  0  0
  133.9930   71.1780  226.1480 C   0  0  0  0  0  0  0  0  0  0  0  0
  134.7950   70.8930  224.8550 C   0  0  0  0  0  0  0  0  0  0  0  0
  135.7100   72.0380  224.5940 C   0  0  1  0  0  0  0  0  0  0  0  0
  136.4650   71.9150  223.3040 C   0  0  0  0  0  0  0  0  0  0  0  0
  137.8800   71.8900  223.4550 N   0  0  0  0  0  0  0  0  0  0  0  0
  138.6610   71.0130  224.2300 C   0  0  0  0  0  0  0  0  0  0  0  0
  138.1560   69.7560  224.6080 C   0  0  0  0  0  0  0  0  0  0  0  0
  138.8690   68.8900  225.3910 C   0  0  0  0  0  0  0  0  0  0  0  0
  140.1240   69.1970  225.8570 C   0  0  0  0  0  0  0  0  0  0  0  0
  141.0100   68.0830  226.8480 Cl  0  0  0  0  0  0  0  0  0  0  0  0
  140.6450   70.4230  225.5040 C   0  0  0  0  0  0  0  0  0  0  0  0
  139.9210   71.2920  224.7140 C   0  0  0  0  0  0  0  0  0  0  0  0
  139.3280   75.4100  222.0970 C   0  0  0  0  0  0  0  0  0  0  0  0
  140.1930   76.3800  221.6340 C   0  0  0  0  0  0  0  0  0  0  0  0
  141.4520   76.0330  221.1470 C   0  0  0  0  0  0  0  0  0  0  0  0
  141.8540   74.7020  221.1230 C   0  0  0  0  0  0  0  0  0  0  0  0
  143.1080   74.3300  220.6420 C   0  0  0  0  0  0  0  0  0  0  0  0
  143.4650   72.9850  220.6370 C   0  0  0  0  0  0  0  0  0  0  0  0
  144.6810   72.5920  220.1740 F   0  0  0  0  0  0  0  0  0  0  0  0
  142.5890   72.0320  221.1040 C   0  0  0  0  0  0  0  0  0  0  0  0
  141.3460   72.4150  221.5790 C   0  0  0  0  0  0  0  0  0  0  0  0
  140.9620   73.7580  221.5950 C   0  0  0  0  0  0  0  0  0  0  0  0
  139.7530   74.1290  222.0570 N   0  0  0  0  0  0  0  0  0  0  0  0
  137.2430   73.8040  222.2570 H   0  0  0  0  0  0  0  0  0  0  0  0
  135.5707   76.1858  223.1610 H   0  0  0  0  0  0  0  0  0  0  0  0
  134.9332   74.6415  222.4390 H   0  0  0  0  0  0  0  0  0  0  0  0
  132.8956   73.9705  224.5588 H   0  0  0  0  0  0  0  0  0  0  0  0
  133.1277   72.3583  223.7883 H   0  0  0  0  0  0  0  0  0  0  0  0
  133.1601   73.0402  226.7660 H   0  0  0  0  0  0  0  0  0  0  0  0
  132.0236   71.9641  225.8976 H   0  0  0  0  0  0  0  0  0  0  0  0
  134.6913   71.4227  226.9619 H   0  0  0  0  0  0  0  0  0  0  0  0
  133.4073   70.2847  226.4108 H   0  0  0  0  0  0  0  0  0  0  0  0
  135.3827   69.9716  224.9803 H   0  0  0  0  0  0  0  0  0  0  0  0
  134.1046   70.7665  224.0080 H   0  0  0  0  0  0  0  0  0  0  0  0
  136.4760   72.0767  225.3826 H   0  0  0  0  0  0  0  0  0  0  0  0
  136.1544   70.9823  222.8104 H   0  0  0  0  0  0  0  0  0  0  0  0
  136.2266   72.8110  222.7121 H   0  0  0  0  0  0  0  0  0  0  0  0
  138.4220   72.6320  222.9090 H   0  0  0  0  0  0  0  0  0  0  0  0
  137.1546   69.4594  224.2626 H   0  0  0  0  0  0  0  0  0  0  0  0
  138.4241   67.9193  225.6552 H   0  0  0  0  0  0  0  0  0  0  0  0
  141.6468   70.7112  225.8551 H   0  0  0  0  0  0  0  0  0  0  0  0
  140.3742   72.2606  224.4563 H   0  0  0  0  0  0  0  0  0  0  0  0
  139.8864   77.4363  221.6493 H   0  0  0  0  0  0  0  0  0  0  0  0
  142.1313   76.8163  220.7796 H   0  0  0  0  0  0  0  0  0  0  0  0
  143.8087   75.0920  220.2700 H   0  0  0  0  0  0  0  0  0  0  0  0
  142.8752   70.9699  221.1000 H   0  0  0  0  0  0  0  0  0  0  0  0
  140.6492   71.6489  221.9499 H   0  0  0  0  0  0  0  0  0  0  0  0
  1  2  2  0
  2  3  1  0
  3  4  1  0
  4  5  1  0
  5  6  2  0
  5  7  1  0
  7  8  1  0
  8  9  1  0
  9 10  1  0
 10 11  1  0
 11 12  1  0
 12 13  1  0
 13 14  1  0
 14 15  1  0
 15 16  2  0
 16 17  1  0
 17 18  2  0
 18 19  1  0
 18 20  1  0
 20 21  2  0
  2 22  1  0
 22 23  2  0
 23 24  1  0
 24 25  2  0
 25 26  1  0
 26 27  2  0
 27 28  1  0
 27 29  1  0
 29 30  2  0
 30 31  1  0
 31 32  2  0
 12  7  1  0
 21 15  1  0
 32 22  1  0
 31 25  1  0
  3 33  1  0
  4 34  1  0
  4 35  1  0
  8 36  1  0
  8 37  1  0
  9 38  1  0
  9 39  1  0
 10 40  1  0
 10 41  1  0
 11 42  1  0
 11 43  1  0
 12 44  1  1
 13 45  1  0
 13 46  1  0
 14 47  1  0
 16 48  1  0
 17 49  1  0
 20 50  1  0
 21 51  1  0
 23 52  1  0
 24 53  1  0
 26 54  1  0
 29 55  1  0
 30 56  1  0
M  END
>  <smiles>  (3) 
O=C(NCC(=O)N1CCCC[C@H]1CNc1ccc(Cl)cc1)c1ccc2cc(F)ccc2n1

>  <score_type>  (3) 
oracle

>  <origin>  (3) 
autodockgpu

>  <m_score__min__energy>  (3) 
-9.0600000000000005

>  <m_primary>  (3) 
energy

>  <rmsd>  (3) 
8.779455864556217

>  <m_score__min__rmsd>  (3) 
8.779455864556217

>  <meeko>  (3) 
{"free_energy": -7.07, "intermolecular_energy": -9.15, "internal_energy": -2.91, "cluster_size": 1, "cluster_id": 12, "rank_in_cluster": 1}

>  <energy>  (3) 
-8.88

>  <cluster_rmsd>  (3) 
1.17

>  <cluster>  (3) 
1

$$$$

     RDKit          3D

 56 59  0  0  0  0  0  0  0  0999 V2000
  140.8870   72.0850  221.0940 O   0  0  0  0  0  0  0  0  0  0  0  0
  140.2380   72.4710  222.1030 C   0  0  0  0  0  0  0  0  0  0  0  0
  139.6190   73.7540  222.1820 N   0  0  0  0  0  0  0  0  0  0  0  0
  139.7340   74.6670  221.0590 C   0  0  0  0  0  0  0  0  0  0  0  0
  140.7560   75.7070  221.2750 C   0  0  0  0  0  0  0  0  0  0  0  0
  141.4030   75.7050  222.3530 O   0  0  0  0  0  0  0  0  0  0  0  0
  140.9550   76.6620  220.2390 N   0  0  0  0  0  0  0  0  0  0  0  0
  140.2870   77.9550  220.2210 C   0  0  0  0  0  0  0  0  0  0  0  0
  139.4030   78.0730  218.9880 C   0  0  0  0  0  0  0  0  0  0  0  0
  140.1920   77.6490  217.7940 C   0  0  0  0  0  0  0  0  0  0  0  0
  141.6910   77.5250  218.1600 C   0  0  0  0  0  0  0  0  0  0  0  0
  141.8630   76.3910  219.1090 C   0  0  1  0  0  0  0  0  0  0  0  0
  143.2680   76.2440  219.6120 C   0  0  0  0  0  0  0  0  0  0  0  0
  143.4780   75.0990  220.4310 N   0  0  0  0  0  0  0  0  0  0  0  0
  144.0980   73.8820  220.0900 C   0  0  0  0  0  0  0  0  0  0  0  0
  143.3890   72.8990  219.3760 C   0  0  0  0  0  0  0  0  0  0  0  0
  143.9430   71.6900  219.0560 C   0  0  0  0  0  0  0  0  0  0  0  0
  145.2270   71.3610  219.4150 C   0  0  0  0  0  0  0  0  0  0  0  0
  145.9080   69.8210  218.9990 Cl  0  0  0  0  0  0  0  0  0  0  0  0
  145.9460   72.3040  220.1180 C   0  0  0  0  0  0  0  0  0  0  0  0
  145.3820   73.5220  220.4370 C   0  0  0  0  0  0  0  0  0  0  0  0
  140.1070   71.5690  223.2500 C   0  0  0  0  0  0  0  0  0  0  0  0
  139.5710   70.3070  223.0990 C   0  0  0  0  0  0  0  0  0  0  0  0
  139.4480   69.4550  224.1940 C   0  0  0  0  0  0  0  0  0  0  0  0
  139.8650   69.8650  225.4560 C   0  0  0  0  0  0  0  0  0  0  0  0
  139.7530   69.0310  226.5660 C   0  0  0  0  0  0  0  0  0  0  0  0
  140.1850   69.4870  227.8090 C   0  0  0  0  0  0  0  0  0  0  0  0
  140.0880   68.6960  228.9090 F   0  0  0  0  0  0  0  0  0  0  0  0
  140.7170   70.7490  227.9390 C   0  0  0  0  0  0  0  0  0  0  0  0
  140.8220   71.5680  226.8270 C   0  0  0  0  0  0  0  0  0  0  0  0
  140.3970   71.1360  225.5690 C   0  0  0  0  0  0  0  0  0  0  0  0
  140.5000   71.9340  224.4890 N   0  0  0  0  0  0  0  0  0  0  0  0
  139.0950   73.9980  223.0640 H   0  0  0  0  0  0  0  0  0  0  0  0
  140.0031   74.0898  220.1621 H   0  0  0  0  0  0  0  0  0  0  0  0
  138.7644   75.1728  220.9409 H   0  0  0  0  0  0  0  0  0  0  0  0
  139.6667   78.0561  221.1238 H   0  0  0  0  0  0  0  0  0  0  0  0
  141.0461   78.7507  220.1957 H   0  0  0  0  0  0  0  0  0  0  0  0
  138.5223   77.4235  219.0999 H   0  0  0  0  0  0  0  0  0  0  0  0
  139.0656   79.1128  218.8656 H   0  0  0  0  0  0  0  0  0  0  0  0
  139.8223   76.6748  217.4415 H   0  0  0  0  0  0  0  0  0  0  0  0
  140.0773   78.4034  217.0017 H   0  0  0  0  0  0  0  0  0  0  0  0
  142.2791   77.3372  217.2496 H   0  0  0  0  0  0  0  0  0  0  0  0
  142.0392   78.4581  218.6270 H   0  0  0  0  0  0  0  0  0  0  0  0
  141.6340   75.4474  218.5921 H   0  0  0  0  0  0  0  0  0  0  0  0
  143.9398   76.1749  218.7437 H   0  0  0  0  0  0  0  0  0  0  0  0
  143.4724   77.1236  220.2402 H   0  0  0  0  0  0  0  0  0  0  0  0
  143.1200   75.1690  221.4350 H   0  0  0  0  0  0  0  0  0  0  0  0
  142.3552   73.1095  219.0648 H   0  0  0  0  0  0  0  0  0  0  0  0
  143.3421   70.9596  218.4944 H   0  0  0  0  0  0  0  0  0  0  0  0
  146.9783   72.0834  220.4273 H   0  0  0  0  0  0  0  0  0  0  0  0
  145.9907   74.2454  220.9992 H   0  0  0  0  0  0  0  0  0  0  0  0
  139.2381   69.9708  222.1060 H   0  0  0  0  0  0  0  0  0  0  0  0
  139.0183   68.4513  224.0598 H   0  0  0  0  0  0  0  0  0  0  0  0
  139.3275   68.0220  226.4618 H   0  0  0  0  0  0  0  0  0  0  0  0
  141.0576   71.1062  228.9221 H   0  0  0  0  0  0  0  0  0  0  0  0
  141.2476   72.5764  226.9368 H   0  0  0  0  0  0  0  0  0  0  0  0
  1  2  2  0
  2  3  1  0
  3  4  1  0
  4  5  1  0
  5  6  2  0
  5  7  1  0
  7  8  1  0
  8  9  1  0
  9 10  1  0
 10 11  1  0
 11 12  1  0
 12 13  1  0
 13 14  1  0
 14 15  1  0
 15 16  2  0
 16 17  1  0
 17 18  2  0
 18 19  1  0
 18 20  1  0
 20 21  2  0
  2 22  1  0
 22 23  2  0
 23 24  1  0
 24 25  2  0
 25 26  1  0
 26 27  2  0
 27 28  1  0
 27 29  1  0
 29 30  2  0
 30 31  1  0
 31 32  2  0
 12  7  1  0
 21 15  1  0
 32 22  1  0
 31 25  1  0
  3 33  1  0
  4 34  1  0
  4 35  1  0
  8 36  1  0
  8 37  1  0
  9 38  1  0
  9 39  1  0
 10 40  1  0
 10 41  1  0
 11 42  1  0
 11 43  1  0
 12 44  1  6
 13 45  1  0
 13 46  1  0
 14 47  1  0
 16 48  1  0
 17 49  1  0
 20 50  1  0
 21 51  1  0
 23 52  1  0
 24 53  1  0
 26 54  1  0
 29 55  1  0
 30 56  1  0
M  END
>  <smiles>  (4) 
O=C(NCC(=O)N1CCCC[C@H]1CNc1ccc(Cl)cc1)c1ccc2cc(F)ccc2n1

>  <score_type>  (4) 
oracle

>  <origin>  (4) 
autodockgpu

>  <m_score__min__energy>  (4) 
-9.0600000000000005

>  <m_primary>  (4) 
energy

>  <rmsd>  (4) 
4.383976712114161

>  <m_score__min__rmsd>  (4) 
4.383976712114161

>  <meeko>  (4) 
{"free_energy": -8.19, "intermolecular_energy": -10.27, "internal_energy": -2.47, "cluster_size": 10, "cluster_id": 2, "rank_in_cluster": 3}

>  <energy>  (4) 
-8.8

>  <cluster_rmsd>  (4) 
1.47

>  <cluster>  (4) 
1

$$$$

     RDKit          3D

 56 59  0  0  0  0  0  0  0  0999 V2000
  138.0430   69.9670  222.6840 O   0  0  0  0  0  0  0  0  0  0  0  0
  137.7460   71.1350  223.0550 C   0  0  0  0  0  0  0  0  0  0  0  0
  138.5030   72.2840  222.6780 N   0  0  0  0  0  0  0  0  0  0  0  0
  139.6700   72.1170  221.8310 C   0  0  0  0  0  0  0  0  0  0  0  0
  140.4640   73.3530  221.7070 C   0  0  0  0  0  0  0  0  0  0  0  0
  140.0660   74.3880  222.2990 O   0  0  0  0  0  0  0  0  0  0  0  0
  141.6460   73.3020  220.9180 N   0  0  0  0  0  0  0  0  0  0  0  0
  142.1050   72.0850  220.2640 C   0  0  0  0  0  0  0  0  0  0  0  0
  143.4720   71.6840  220.8000 C   0  0  0  0  0  0  0  0  0  0  0  0
  144.3570   72.8860  220.7950 C   0  0  0  0  0  0  0  0  0  0  0  0
  143.6990   74.0320  219.9880 C   0  0  0  0  0  0  0  0  0  0  0  0
  142.4860   74.4980  220.7150 C   0  0  1  0  0  0  0  0  0  0  0  0
  141.7090   75.5410  219.9690 C   0  0  0  0  0  0  0  0  0  0  0  0
  140.8890   76.3610  220.7950 N   0  0  0  0  0  0  0  0  0  0  0  0
  141.2390   77.5380  221.4810 C   0  0  0  0  0  0  0  0  0  0  0  0
  141.0730   77.6240  222.8760 C   0  0  0  0  0  0  0  0  0  0  0  0
  141.3670   78.7620  223.5750 C   0  0  0  0  0  0  0  0  0  0  0  0
  141.8430   79.8920  222.9580 C   0  0  0  0  0  0  0  0  0  0  0  0
  142.2100   81.3240  223.8650 Cl  0  0  0  0  0  0  0  0  0  0  0  0
  142.0150   79.8380  221.5910 C   0  0  0  0  0  0  0  0  0  0  0  0
  141.7170   78.6880  220.8900 C   0  0  0  0  0  0  0  0  0  0  0  0
  136.5740   71.3310  223.9120 C   0  0  0  0  0  0  0  0  0  0  0  0
  135.9040   70.2510  224.4510 C   0  0  0  0  0  0  0  0  0  0  0  0
  134.7900   70.4440  225.2650 C   0  0  0  0  0  0  0  0  0  0  0  0
  134.3370   71.7300  225.5440 C   0  0  0  0  0  0  0  0  0  0  0  0
  133.2250   71.9480  226.3550 C   0  0  0  0  0  0  0  0  0  0  0  0
  132.8090   73.2530  226.6060 C   0  0  0  0  0  0  0  0  0  0  0  0
  131.7280   73.4970  227.3930 F   0  0  0  0  0  0  0  0  0  0  0  0
  133.4900   74.3160  226.0590 C   0  0  0  0  0  0  0  0  0  0  0  0
  134.5930   74.0840  225.2550 C   0  0  0  0  0  0  0  0  0  0  0  0
  135.0320   72.7850  224.9870 C   0  0  0  0  0  0  0  0  0  0  0  0
  136.1050   72.5620  224.2040 N   0  0  0  0  0  0  0  0  0  0  0  0
  138.1850   73.2250  223.0330 H   0  0  0  0  0  0  0  0  0  0  0  0
  140.3076   71.3307  222.2613 H   0  0  0  0  0  0  0  0  0  0  0  0
  139.3151   71.8476  220.8253 H   0  0  0  0  0  0  0  0  0  0  0  0
  141.3866   71.2750  220.4583 H   0  0  0  0  0  0  0  0  0  0  0  0
  142.1828   72.2664  219.1819 H   0  0  0  0  0  0  0  0  0  0  0  0
  143.3702   71.3031  221.8269 H   0  0  0  0  0  0  0  0  0  0  0  0
  143.9064   70.8949  220.1686 H   0  0  0  0  0  0  0  0  0  0  0  0
  144.5228   73.2193  221.8301 H   0  0  0  0  0  0  0  0  0  0  0  0
  145.3168   72.6227  220.3266 H   0  0  0  0  0  0  0  0  0  0  0  0
  144.4096   74.8651  219.8830 H   0  0  0  0  0  0  0  0  0  0  0  0
  143.4185   73.6706  218.9877 H   0  0  0  0  0  0  0  0  0  0  0  0
  142.7896   74.9742  221.6590 H   0  0  0  0  0  0  0  0  0  0  0  0
  142.4225   76.1894  219.4393 H   0  0  0  0  0  0  0  0  0  0  0  0
  141.0333   75.0038  219.2872 H   0  0  0  0  0  0  0  0  0  0  0  0
  139.8750   76.0430  220.9100 H   0  0  0  0  0  0  0  0  0  0  0  0
  140.6944   76.7472  223.4218 H   0  0  0  0  0  0  0  0  0  0  0  0
  141.2175   78.7722  224.6647 H   0  0  0  0  0  0  0  0  0  0  0  0
  142.3935   80.7204  221.0543 H   0  0  0  0  0  0  0  0  0  0  0  0
  141.8690   78.6886  219.8006 H   0  0  0  0  0  0  0  0  0  0  0  0
  136.2525   69.2300  224.2361 H   0  0  0  0  0  0  0  0  0  0  0  0
  134.2656   69.5752  225.6895 H   0  0  0  0  0  0  0  0  0  0  0  0
  132.6813   71.0977  226.7925 H   0  0  0  0  0  0  0  0  0  0  0  0
  133.1595   75.3458  226.2596 H   0  0  0  0  0  0  0  0  0  0  0  0
  135.1333   74.9375  224.8195 H   0  0  0  0  0  0  0  0  0  0  0  0
  1  2  2  0
  2  3  1  0
  3  4  1  0
  4  5  1  0
  5  6  2  0
  5  7  1  0
  7  8  1  0
  8  9  1  0
  9 10  1  0
 10 11  1  0
 11 12  1  0
 12 13  1  0
 13 14  1  0
 14 15  1  0
 15 16  2  0
 16 17  1  0
 17 18  2  0
 18 19  1  0
 18 20  1  0
 20 21  2  0
  2 22  1  0
 22 23  2  0
 23 24  1  0
 24 25  2  0
 25 26  1  0
 26 27  2  0
 27 28  1  0
 27 29  1  0
 29 30  2  0
 30 31  1  0
 31 32  2  0
 12  7  1  0
 21 15  1  0
 32 22  1  0
 31 25  1  0
  3 33  1  0
  4 34  1  0
  4 35  1  0
  8 36  1  0
  8 37  1  0
  9 38  1  0
  9 39  1  0
 10 40  1  0
 10 41  1  0
 11 42  1  0
 11 43  1  0
 12 44  1  1
 13 45  1  0
 13 46  1  0
 14 47  1  0
 16 48  1  0
 17 49  1  0
 20 50  1  0
 21 51  1  0
 23 52  1  0
 24 53  1  0
 26 54  1  0
 29 55  1  0
 30 56  1  0
M  END
>  <smiles>  (5) 
O=C(NCC(=O)N1CCCC[C@H]1CNc1ccc(Cl)cc1)c1ccc2cc(F)ccc2n1

>  <score_type>  (5) 
oracle

>  <origin>  (5) 
autodockgpu

>  <m_score__min__energy>  (5) 
-9.0600000000000005

>  <m_primary>  (5) 
energy

>  <rmsd>  (5) 
4.940701353593256

>  <m_score__min__rmsd>  (5) 
4.940701353593256

>  <meeko>  (5) 
{"free_energy": -7.51, "intermolecular_energy": -9.59, "internal_energy": -2.6, "cluster_size": 1, "cluster_id": 7, "rank_in_cluster": 1}

>  <energy>  (5) 
-8.65

>  <cluster_rmsd>  (5) 
1.31

>  <cluster>  (5) 
1

$$$$

     RDKit          3D

 56 59  0  0  0  0  0  0  0  0999 V2000
  138.7530   70.6930  221.5940 O   0  0  0  0  0  0  0  0  0  0  0  0
  139.2210   71.2140  222.6420 C   0  0  0  0  0  0  0  0  0  0  0  0
  139.5580   72.5980  222.7350 N   0  0  0  0  0  0  0  0  0  0  0  0
  139.3600   73.4550  221.5800 C   0  0  0  0  0  0  0  0  0  0  0  0
  140.2710   74.6140  221.5690 C   0  0  0  0  0  0  0  0  0  0  0  0
  140.0130   75.5920  222.3160 O   0  0  0  0  0  0  0  0  0  0  0  0
  141.4000   74.5580  220.7060 N   0  0  0  0  0  0  0  0  0  0  0  0
  141.9690   73.3050  220.2330 C   0  0  0  0  0  0  0  0  0  0  0  0
  143.4060   73.1650  220.7150 C   0  0  0  0  0  0  0  0  0  0  0  0
  144.1290   74.4390  220.4340 C   0  0  0  0  0  0  0  0  0  0  0  0
  143.2830   75.3400  219.5010 C   0  0  0  0  0  0  0  0  0  0  0  0
  142.0670   75.7860  220.2340 C   0  0  1  0  0  0  0  0  0  0  0  0
  141.1200   76.5840  219.3880 C   0  0  0  0  0  0  0  0  0  0  0  0
  141.3070   77.9920  219.4700 N   0  0  0  0  0  0  0  0  0  0  0  0
  141.5220   78.7810  220.6150 C   0  0  0  0  0  0  0  0  0  0  0  0
  141.8460   80.1440  220.4880 C   0  0  0  0  0  0  0  0  0  0  0  0
  142.0980   80.9370  221.5750 C   0  0  0  0  0  0  0  0  0  0  0  0
  142.0510   80.4490  222.8570 C   0  0  0  0  0  0  0  0  0  0  0  0
  142.3740   81.4730  224.2190 Cl  0  0  0  0  0  0  0  0  0  0  0  0
  141.7370   79.1160  223.0130 C   0  0  0  0  0  0  0  0  0  0  0  0
  141.4840   78.3210  221.9140 C   0  0  0  0  0  0  0  0  0  0  0  0
  139.4310   70.3720  223.8220 C   0  0  0  0  0  0  0  0  0  0  0  0
  139.0380   69.0490  223.8250 C   0  0  0  0  0  0  0  0  0  0  0  0
  139.2400   68.2530  224.9500 C   0  0  0  0  0  0  0  0  0  0  0  0
  139.8430   68.7820  226.0870 C   0  0  0  0  0  0  0  0  0  0  0  0
  140.0560   68.0060  227.2250 C   0  0  0  0  0  0  0  0  0  0  0  0
  140.6620   68.5800  228.3390 C   0  0  0  0  0  0  0  0  0  0  0  0
  140.8830   67.8480  229.4620 F   0  0  0  0  0  0  0  0  0  0  0  0
  141.0470   69.9010  228.3160 C   0  0  0  0  0  0  0  0  0  0  0  0
  140.8290   70.6600  227.1790 C   0  0  0  0  0  0  0  0  0  0  0  0
  140.2230   70.1100  226.0470 C   0  0  0  0  0  0  0  0  0  0  0  0
  140.0110   70.8500  224.9430 N   0  0  0  0  0  0  0  0  0  0  0  0
  139.9450   72.9530  223.6500 H   0  0  0  0  0  0  0  0  0  0  0  0
  139.5324   72.8632  220.6689 H   0  0  0  0  0  0  0  0  0  0  0  0
  138.3311   73.8414  221.6253 H   0  0  0  0  0  0  0  0  0  0  0  0
  141.3725   72.4659  220.6204 H   0  0  0  0  0  0  0  0  0  0  0  0
  141.9571   73.2980  219.1331 H   0  0  0  0  0  0  0  0  0  0  0  0
  143.4161   72.9640  221.7964 H   0  0  0  0  0  0  0  0  0  0  0  0
  143.8977   72.3311  220.1927 H   0  0  0  0  0  0  0  0  0  0  0  0
  144.3137   74.9682  221.3805 H   0  0  0  0  0  0  0  0  0  0  0  0
  145.0843   74.2079  219.9400 H   0  0  0  0  0  0  0  0  0  0  0  0
  143.8744   76.2169  219.1988 H   0  0  0  0  0  0  0  0  0  0  0  0
  142.9908   74.7761  218.6029 H   0  0  0  0  0  0  0  0  0  0  0  0
  142.3641   76.4550  221.0551 H   0  0  0  0  0  0  0  0  0  0  0  0
  141.2538   76.2790  218.3396 H   0  0  0  0  0  0  0  0  0  0  0  0
  140.1082   76.3777  219.7670 H   0  0  0  0  0  0  0  0  0  0  0  0
  141.2810   78.5220  218.5420 H   0  0  0  0  0  0  0  0  0  0  0  0
  141.8985   80.5870  219.4825 H   0  0  0  0  0  0  0  0  0  0  0  0
  142.3456   81.9970  221.4163 H   0  0  0  0  0  0  0  0  0  0  0  0
  141.6877   78.6821  224.0226 H   0  0  0  0  0  0  0  0  0  0  0  0
  141.2385   77.2622  222.0836 H   0  0  0  0  0  0  0  0  0  0  0  0
  138.5613   68.6196  222.9315 H   0  0  0  0  0  0  0  0  0  0  0  0
  138.9211   67.2003  224.9396 H   0  0  0  0  0  0  0  0  0  0  0  0
  139.7482   66.9501  227.2427 H   0  0  0  0  0  0  0  0  0  0  0  0
  141.5260   70.3520  229.1975 H   0  0  0  0  0  0  0  0  0  0  0  0
  141.1386   71.7155  227.1668 H   0  0  0  0  0  0  0  0  0  0  0  0
  1  2  2  0
  2  3  1  0
  3  4  1  0
  4  5  1  0
  5  6  2  0
  5  7  1  0
  7  8  1  0
  8  9  1  0
  9 10  1  0
 10 11  1  0
 11 12  1  0
 12 13  1  0
 13 14  1  0
 14 15  1  0
 15 16  2  0
 16 17  1  0
 17 18  2  0
 18 19  1  0
 18 20  1  0
 20 21  2  0
  2 22  1  0
 22 23  2  0
 23 24  1  0
 24 25  2  0
 25 26  1  0
 26 27  2  0
 27 28  1  0
 27 29  1  0
 29 30  2  0
 30 31  1  0
 31 32  2  0
 12  7  1  0
 21 15  1  0
 32 22  1  0
 31 25  1  0
  3 33  1  0
  4 34  1  0
  4 35  1  0
  8 36  1  0
  8 37  1  0
  9 38  1  0
  9 39  1  0
 10 40  1  0
 10 41  1  0
 11 42  1  0
 11 43  1  0
 12 44  1  1
 13 45  1  0
 13 46  1  0
 14 47  1  0
 16 48  1  0
 17 49  1  0
 20 50  1  0
 21 51  1  0
 23 52  1  0
 24 53  1  0
 26 54  1  0
 29 55  1  0
 30 56  1  0
M  END
>  <smiles>  (6) 
O=C(NCC(=O)N1CCCC[C@H]1CNc1ccc(Cl)cc1)c1ccc2cc(F)ccc2n1

>  <score_type>  (6) 
oracle

>  <origin>  (6) 
autodockgpu

>  <m_score__min__energy>  (6) 
-9.0600000000000005

>  <m_primary>  (6) 
energy

>  <rmsd>  (6) 
2.456523080508603

>  <m_score__min__rmsd>  (6) 
2.456523080508603

>  <meeko>  (6) 
{"free_energy": -9.06, "intermolecular_energy": -11.14, "internal_energy": -1.84, "cluster_size": 17, "cluster_id": 1, "rank_in_cluster": 1}

>  <energy>  (6) 
-8.53

>  <cluster_rmsd>  (6) 
1.87

>  <cluster>  (6) 
1

$$$$

     RDKit          3D

 56 59  0  0  0  0  0  0  0  0999 V2000
  140.6610   73.9110  222.3430 O   0  0  0  0  0  0  0  0  0  0  0  0
  140.3970   72.7060  222.0870 C   0  0  0  0  0  0  0  0  0  0  0  0
  140.2230   72.2150  220.7590 N   0  0  0  0  0  0  0  0  0  0  0  0
  140.3530   73.1340  219.6420 C   0  0  0  0  0  0  0  0  0  0  0  0
  141.5030   72.8160  218.7760 C   0  0  0  0  0  0  0  0  0  0  0  0
  141.3080   72.1310  217.7400 O   0  0  0  0  0  0  0  0  0  0  0  0
  142.7790   73.3080  219.1670 N   0  0  0  0  0  0  0  0  0  0  0  0
  144.0260   72.7130  218.7110 C   0  0  0  0  0  0  0  0  0  0  0  0
  144.8200   72.1810  219.8960 C   0  0  0  0  0  0  0  0  0  0  0  0
  144.8640   73.2360  220.9510 C   0  0  0  0  0  0  0  0  0  0  0  0
  144.3620   74.5850  220.3810 C   0  0  0  0  0  0  0  0  0  0  0  0
  142.9110   74.4670  220.0710 C   0  0  1  0  0  0  0  0  0  0  0  0
  142.3410   75.6880  219.4140 C   0  0  0  0  0  0  0  0  0  0  0  0
  142.6660   76.9090  220.0690 N   0  0  0  0  0  0  0  0  0  0  0  0
  141.8720   77.6670  220.9500 C   0  0  0  0  0  0  0  0  0  0  0  0
  141.0200   77.0270  221.8690 C   0  0  0  0  0  0  0  0  0  0  0  0
  140.2070   77.7270  222.7170 C   0  0  0  0  0  0  0  0  0  0  0  0
  140.1720   79.0990  222.7230 C   0  0  0  0  0  0  0  0  0  0  0  0
  139.1320   79.9650  223.8080 Cl  0  0  0  0  0  0  0  0  0  0  0  0
  140.9940   79.7540  221.8320 C   0  0  0  0  0  0  0  0  0  0  0  0
  141.8130   79.0440  220.9790 C   0  0  0  0  0  0  0  0  0  0  0  0
  140.2600   71.7580  223.1960 C   0  0  0  0  0  0  0  0  0  0  0  0
  139.6690   70.5260  223.0040 C   0  0  0  0  0  0  0  0  0  0  0  0
  139.5410   69.6290  224.0620 C   0  0  0  0  0  0  0  0  0  0  0  0
  140.0080   69.9650  225.3290 C   0  0  0  0  0  0  0  0  0  0  0  0
  139.8910   69.0860  226.4040 C   0  0  0  0  0  0  0  0  0  0  0  0
  140.3730   69.4660  227.6530 C   0  0  0  0  0  0  0  0  0  0  0  0
  140.2730   68.6300  228.7190 F   0  0  0  0  0  0  0  0  0  0  0  0
  140.9590   70.7000  227.8240 C   0  0  0  0  0  0  0  0  0  0  0  0
  141.0680   71.5640  226.7480 C   0  0  0  0  0  0  0  0  0  0  0  0
  140.5930   71.2070  225.4840 C   0  0  0  0  0  0  0  0  0  0  0  0
  140.6990   72.0490  224.4380 N   0  0  0  0  0  0  0  0  0  0  0  0
  140.0030   71.1920  220.6330 H   0  0  0  0  0  0  0  0  0  0  0  0
  139.4344   73.0872  219.0388 H   0  0  0  0  0  0  0  0  0  0  0  0
  140.5163   74.1400  220.0560 H   0  0  0  0  0  0  0  0  0  0  0  0
  143.8028   71.8849  218.0222 H   0  0  0  0  0  0  0  0  0  0  0  0
  144.6221   73.4805  218.1956 H   0  0  0  0  0  0  0  0  0  0  0  0
  144.3324   71.2789  220.2940 H   0  0  0  0  0  0  0  0  0  0  0  0
  145.8413   71.9232  219.5791 H   0  0  0  0  0  0  0  0  0  0  0  0
  144.2217   72.9356  221.7920 H   0  0  0  0  0  0  0  0  0  0  0  0
  145.9020   73.3561  221.2947 H   0  0  0  0  0  0  0  0  0  0  0  0
  144.5173   75.3807  221.1244 H   0  0  0  0  0  0  0  0  0  0  0  0
  144.9197   74.8338  219.4661 H   0  0  0  0  0  0  0  0  0  0  0  0
  142.3487   74.3464  221.0087 H   0  0  0  0  0  0  0  0  0  0  0  0
  142.7246   75.7364  218.3842 H   0  0  0  0  0  0  0  0  0  0  0  0
  141.2464   75.5880  219.4571 H   0  0  0  0  0  0  0  0  0  0  0  0
  143.6380   77.3050  219.8670 H   0  0  0  0  0  0  0  0  0  0  0  0
  141.0075   75.9277  221.9065 H   0  0  0  0  0  0  0  0  0  0  0  0
  139.5617   77.1738  223.4153 H   0  0  0  0  0  0  0  0  0  0  0  0
  140.9971   80.8535  221.8007 H   0  0  0  0  0  0  0  0  0  0  0  0
  142.4537   79.6069  220.2843 H   0  0  0  0  0  0  0  0  0  0  0  0
  139.2957   70.2498  222.0068 H   0  0  0  0  0  0  0  0  0  0  0  0
  139.0683   68.6499  223.8950 H   0  0  0  0  0  0  0  0  0  0  0  0
  139.4219   68.1006  226.2666 H   0  0  0  0  0  0  0  0  0  0  0  0
  141.3392   70.9983  228.8122 H   0  0  0  0  0  0  0  0  0  0  0  0
  141.5368   72.5488  226.8909 H   0  0  0  0  0  0  0  0  0  0  0  0
  1  2  2  0
  2  3  1  0
  3  4  1  0
  4  5  1  0
  5  6  2  0
  5  7  1  0
  7  8  1  0
  8  9  1  0
  9 10  1  0
 10 11  1  0
 11 12  1  0
 12 13  1  0
 13 14  1  0
 14 15  1  0
 15 16  2  0
 16 17  1  0
 17 18  2  0
 18 19  1  0
 18 20  1  0
 20 21  2  0
  2 22  1  0
 22 23  2  0
 23 24  1  0
 24 25  2  0
 25 26  1  0
 26 27  2  0
 27 28  1  0
 27 29  1  0
 29 30  2  0
 30 31  1  0
 31 32  2  0
 12  7  1  0
 21 15  1  0
 32 22  1  0
 31 25  1  0
  3 33  1  0
  4 34  1  0
  4 35  1  0
  8 36  1  0
  8 37  1  0
  9 38  1  0
  9 39  1  0
 10 40  1  0
 10 41  1  0
 11 42  1  0
 11 43  1  0
 12 44  1  1
 13 45  1  0
 13 46  1  0
 14 47  1  0
 16 48  1  0
 17 49  1  0
 20 50  1  0
 21 51  1  0
 23 52  1  0
 24 53  1  0
 26 54  1  0
 29 55  1  0
 30 56  1  0
M  END
>  <smiles>  (7) 
O=C(NCC(=O)N1CCCC[C@H]1CNc1ccc(Cl)cc1)c1ccc2cc(F)ccc2n1

>  <score_type>  (7) 
oracle

>  <origin>  (7) 
autodockgpu

>  <m_score__min__energy>  (7) 
-9.0600000000000005

>  <m_primary>  (7) 
energy

>  <rmsd>  (7) 
3.4258729318281254

>  <m_score__min__rmsd>  (7) 
3.4258729318281254

>  <meeko>  (7) 
{"free_energy": -8.53, "intermolecular_energy": -10.62, "internal_energy": -1.77, "cluster_size": 17, "cluster_id": 1, "rank_in_cluster": 6}

>  <energy>  (7) 
-8.51

>  <cluster_rmsd>  (7) 
1.27

>  <cluster>  (7) 
1

$$$$

     RDKit          3D

 56 59  0  0  0  0  0  0  0  0999 V2000
  141.1450   77.5400  217.6380 O   0  0  0  0  0  0  0  0  0  0  0  0
  141.9750   77.3850  218.5730 C   0  0  0  0  0  0  0  0  0  0  0  0
  142.1990   78.3690  219.5820 N   0  0  0  0  0  0  0  0  0  0  0  0
  141.4450   79.6090  219.5430 C   0  0  0  0  0  0  0  0  0  0  0  0
  140.3810   79.6590  220.5610 C   0  0  0  0  0  0  0  0  0  0  0  0
  139.1860   79.7510  220.1830 O   0  0  0  0  0  0  0  0  0  0  0  0
  140.7720   79.5990  221.9280 N   0  0  0  0  0  0  0  0  0  0  0  0
  140.4800   80.6620  222.8780 C   0  0  0  0  0  0  0  0  0  0  0  0
  141.7740   81.2520  223.4220 C   0  0  0  0  0  0  0  0  0  0  0  0
  142.6680   80.1320  223.8410 C   0  0  0  0  0  0  0  0  0  0  0  0
  141.8820   78.7990  223.8610 C   0  0  0  0  0  0  0  0  0  0  0  0
  141.5070   78.4390  222.4660 C   0  0  1  0  0  0  0  0  0  0  0  0
  140.6500   77.2120  222.3780 C   0  0  0  0  0  0  0  0  0  0  0  0
  141.2760   76.1050  221.7390 N   0  0  0  0  0  0  0  0  0  0  0  0
  140.8350   74.7710  221.6680 C   0  0  0  0  0  0  0  0  0  0  0  0
  141.7040   73.7580  221.2230 C   0  0  0  0  0  0  0  0  0  0  0  0
  141.3030   72.4550  221.1060 C   0  0  0  0  0  0  0  0  0  0  0  0
  140.0260   72.0570  221.4150 C   0  0  0  0  0  0  0  0  0  0  0  0
  139.5410   70.3990  221.2580 Cl  0  0  0  0  0  0  0  0  0  0  0  0
  139.1520   73.0280  221.8520 C   0  0  0  0  0  0  0  0  0  0  0  0
  139.5610   74.3410  221.9690 C   0  0  0  0  0  0  0  0  0  0  0  0
  142.7500   76.1430  218.6360 C   0  0  0  0  0  0  0  0  0  0  0  0
  142.6350   75.1880  217.6470 C   0  0  0  0  0  0  0  0  0  0  0  0
  143.3730   74.0080  217.7120 C   0  0  0  0  0  0  0  0  0  0  0  0
  144.2380   73.7780  218.7770 C   0  0  0  0  0  0  0  0  0  0  0  0
  144.9870   72.6070  218.8650 C   0  0  0  0  0  0  0  0  0  0  0  0
  145.8390   72.4210  219.9500 C   0  0  0  0  0  0  0  0  0  0  0  0
  146.5820   71.2890  220.0630 F   0  0  0  0  0  0  0  0  0  0  0  0
  145.9400   73.3850  220.9260 C   0  0  0  0  0  0  0  0  0  0  0  0
  145.1890   74.5450  220.8270 C   0  0  0  0  0  0  0  0  0  0  0  0
  144.3270   74.7560  219.7490 C   0  0  0  0  0  0  0  0  0  0  0  0
  143.5970   75.8840  219.6540 N   0  0  0  0  0  0  0  0  0  0  0  0
  142.9130   78.1580  220.3290 H   0  0  0  0  0  0  0  0  0  0  0  0
  142.1365   80.4470  219.7150 H   0  0  0  0  0  0  0  0  0  0  0  0
  140.9642   79.6749  218.5559 H   0  0  0  0  0  0  0  0  0  0  0  0
  139.9044   81.4521  222.3735 H   0  0  0  0  0  0  0  0  0  0  0  0
  139.8964   80.2466  223.7128 H   0  0  0  0  0  0  0  0  0  0  0  0
  142.2675   81.8475  222.6398 H   0  0  0  0  0  0  0  0  0  0  0  0
  141.5583   81.9030  224.2820 H   0  0  0  0  0  0  0  0  0  0  0  0
  143.5044   80.0499  223.1313 H   0  0  0  0  0  0  0  0  0  0  0  0
  143.0512   80.3377  224.8514 H   0  0  0  0  0  0  0  0  0  0  0  0
  142.5114   78.0057  224.2905 H   0  0  0  0  0  0  0  0  0  0  0  0
  140.9752   78.9103  224.4736 H   0  0  0  0  0  0  0  0  0  0  0  0
  142.4174   78.2054  221.8945 H   0  0  0  0  0  0  0  0  0  0  0  0
  140.3750   76.9099  223.3993 H   0  0  0  0  0  0  0  0  0  0  0  0
  139.7787   77.4798  221.7622 H   0  0  0  0  0  0  0  0  0  0  0  0
  142.2030   76.3120  221.2480 H   0  0  0  0  0  0  0  0  0  0  0  0
  142.7391   74.0220  220.9607 H   0  0  0  0  0  0  0  0  0  0  0  0
  142.0254   71.7040  220.7538 H   0  0  0  0  0  0  0  0  0  0  0  0
  138.1183   72.7543  222.1102 H   0  0  0  0  0  0  0  0  0  0  0  0
  138.8306   75.0842  222.3215 H   0  0  0  0  0  0  0  0  0  0  0  0
  141.9547   75.3597  216.7998 H   0  0  0  0  0  0  0  0  0  0  0  0
  143.2712   73.2544  216.9172 H   0  0  0  0  0  0  0  0  0  0  0  0
  144.9060   71.8363  218.0843 H   0  0  0  0  0  0  0  0  0  0  0  0
  146.6146   73.2355  221.7819 H   0  0  0  0  0  0  0  0  0  0  0  0
  145.2732   75.3124  221.6105 H   0  0  0  0  0  0  0  0  0  0  0  0
  1  2  2  0
  2  3  1  0
  3  4  1  0
  4  5  1  0
  5  6  2  0
  5  7  1  0
  7  8  1  0
  8  9  1  0
  9 10  1  0
 10 11  1  0
 11 12  1  0
 12 13  1  0
 13 14  1  0
 14 15  1  0
 15 16  2  0
 16 17  1  0
 17 18  2  0
 18 19  1  0
 18 20  1  0
 20 21  2  0
  2 22  1  0
 22 23  2  0
 23 24  1  0
 24 25  2  0
 25 26  1  0
 26 27  2  0
 27 28  1  0
 27 29  1  0
 29 30  2  0
 30 31  1  0
 31 32  2  0
 12  7  1  0
 21 15  1  0
 32 22  1  0
 31 25  1  0
  3 33  1  0
  4 34  1  0
  4 35  1  0
  8 36  1  0
  8 37  1  0
  9 38  1  0
  9 39  1  0
 10 40  1  0
 10 41  1  0
 11 42  1  0
 11 43  1  0
 12 44  1  6
 13 45  1  0
 13 46  1  0
 14 47  1  0
 16 48  1  0
 17 49  1  0
 20 50  1  0
 21 51  1  0
 23 52  1  0
 24 53  1  0
 26 54  1  0
 29 55  1  0
 30 56  1  0
M  END
>  <smiles>  (8) 
O=C(NCC(=O)N1CCCC[C@H]1CNc1ccc(Cl)cc1)c1ccc2cc(F)ccc2n1

>  <score_type>  (8) 
oracle

>  <origin>  (8) 
autodockgpu

>  <m_score__min__energy>  (8) 
-9.0600000000000005

>  <m_primary>  (8) 
energy

>  <rmsd>  (8) 
7.762169022996287

>  <m_score__min__rmsd>  (8) 
7.762169022996287

>  <meeko>  (8) 
{"free_energy": -7.26, "intermolecular_energy": -9.34, "internal_energy": -3.5, "cluster_size": 5, "cluster_id": 9, "rank_in_cluster": 1}

>  <energy>  (8) 
-8.2

>  <cluster_rmsd>  (8) 
1.69

>  <cluster>  (8) 
1

$$$$

     RDKit          3D

 56 59  0  0  0  0  0  0  0  0999 V2000
  137.2030   69.7600  222.0320 O   0  0  0  0  0  0  0  0  0  0  0  0
  137.5290   70.4910  223.0070 C   0  0  0  0  0  0  0  0  0  0  0  0
  137.1690   71.8680  223.0970 N   0  0  0  0  0  0  0  0  0  0  0  0
  136.3920   72.4690  222.0280 C   0  0  0  0  0  0  0  0  0  0  0  0
  137.2120   72.7980  220.8470 C   0  0  0  0  0  0  0  0  0  0  0  0
  136.6320   73.1370  219.7840 O   0  0  0  0  0  0  0  0  0  0  0  0
  138.6260   72.7130  220.9800 N   0  0  0  0  0  0  0  0  0  0  0  0
  139.4330   71.7710  220.2210 C   0  0  0  0  0  0  0  0  0  0  0  0
  140.1450   70.8100  221.1630 C   0  0  0  0  0  0  0  0  0  0  0  0
  140.7890   71.6010  222.2520 C   0  0  0  0  0  0  0  0  0  0  0  0
  140.7720   73.1090  221.9010 C   0  0  0  0  0  0  0  0  0  0  0  0
  139.3630   73.5900  221.9100 C   0  0  1  0  0  0  0  0  0  0  0  0
  139.2180   75.0190  221.4810 C   0  0  0  0  0  0  0  0  0  0  0  0
  139.0920   75.9430  222.5560 N   0  0  0  0  0  0  0  0  0  0  0  0
  139.7360   77.1820  222.7240 C   0  0  0  0  0  0  0  0  0  0  0  0
  138.9960   78.3250  223.0810 C   0  0  0  0  0  0  0  0  0  0  0  0
  139.5780   79.5550  223.2190 C   0  0  0  0  0  0  0  0  0  0  0  0
  140.9220   79.7500  223.0160 C   0  0  0  0  0  0  0  0  0  0  0  0
  141.6380   81.3200  223.1970 Cl  0  0  0  0  0  0  0  0  0  0  0  0
  141.6720   78.6500  222.6640 C   0  0  0  0  0  0  0  0  0  0  0  0
  141.0810   77.4110  222.5270 C   0  0  0  0  0  0  0  0  0  0  0  0
  138.3130   69.9090  224.0990 C   0  0  0  0  0  0  0  0  0  0  0  0
  138.4410   68.5410  224.2270 C   0  0  0  0  0  0  0  0  0  0  0  0
  139.1860   67.9940  225.2680 C   0  0  0  0  0  0  0  0  0  0  0  0
  139.8140   68.8210  226.1950 C   0  0  0  0  0  0  0  0  0  0  0  0
  140.5650   68.2970  227.2450 C   0  0  0  0  0  0  0  0  0  0  0  0
  141.1740   69.1650  228.1470 C   0  0  0  0  0  0  0  0  0  0  0  0
  141.9130   68.6840  229.1810 F   0  0  0  0  0  0  0  0  0  0  0  0
  141.0350   70.5260  228.0030 C   0  0  0  0  0  0  0  0  0  0  0  0
  140.2850   71.0330  226.9550 C   0  0  0  0  0  0  0  0  0  0  0  0
  139.6630   70.1850  226.0350 C   0  0  0  0  0  0  0  0  0  0  0  0
  138.9340   70.6790  225.0170 N   0  0  0  0  0  0  0  0  0  0  0  0
  137.4820   72.4080  223.9470 H   0  0  0  0  0  0  0  0  0  0  0  0
  135.6048   71.7631  221.7248 H   0  0  0  0  0  0  0  0  0  0  0  0
  135.9682   73.4088  222.4118 H   0  0  0  0  0  0  0  0  0  0  0  0
  138.7825   71.1996  219.5425 H   0  0  0  0  0  0  0  0  0  0  0  0
  140.1840   72.3276  219.6412 H   0  0  0  0  0  0  0  0  0  0  0  0
  139.4173   70.1077  221.5956 H   0  0  0  0  0  0  0  0  0  0  0  0
  140.9069   70.2389  220.6121 H   0  0  0  0  0  0  0  0  0  0  0  0
  140.2393   71.4405  223.1912 H   0  0  0  0  0  0  0  0  0  0  0  0
  141.8322   71.2712  222.3657 H   0  0  0  0  0  0  0  0  0  0  0  0
  141.3579   73.6681  222.6454 H   0  0  0  0  0  0  0  0  0  0  0  0
  141.2129   73.2651  220.9054 H   0  0  0  0  0  0  0  0  0  0  0  0
  138.9729   73.5500  222.9377 H   0  0  0  0  0  0  0  0  0  0  0  0
  140.1059   75.2939  220.8927 H   0  0  0  0  0  0  0  0  0  0  0  0
  138.2852   75.0809  220.9013 H   0  0  0  0  0  0  0  0  0  0  0  0
  138.4220   75.6600  223.3390 H   0  0  0  0  0  0  0  0  0  0  0  0
  137.9143   78.2257  223.2546 H   0  0  0  0  0  0  0  0  0  0  0  0
  138.9508   80.4135  223.5010 H   0  0  0  0  0  0  0  0  0  0  0  0
  142.7526   78.7603  222.4904 H   0  0  0  0  0  0  0  0  0  0  0  0
  141.7177   76.5594  222.2452 H   0  0  0  0  0  0  0  0  0  0  0  0
  137.9501   67.8770  223.5002 H   0  0  0  0  0  0  0  0  0  0  0  0
  139.2790   66.9017  225.3586 H   0  0  0  0  0  0  0  0  0  0  0  0
  140.6756   67.2086  227.3601 H   0  0  0  0  0  0  0  0  0  0  0  0
  141.5177   71.2090  228.7175 H   0  0  0  0  0  0  0  0  0  0  0  0
  140.1771   72.1221  226.8449 H   0  0  0  0  0  0  0  0  0  0  0  0
  1  2  2  0
  2  3  1  0
  3  4  1  0
  4  5  1  0
  5  6  2  0
  5  7  1  0
  7  8  1  0
  8  9  1  0
  9 10  1  0
 10 11  1  0
 11 12  1  0
 12 13  1  0
 13 14  1  0
 14 15  1  0
 15 16  2  0
 16 17  1  0
 17 18  2  0
 18 19  1  0
 18 20  1  0
 20 21  2  0
  2 22  1  0
 22 23  2  0
 23 24  1  0
 24 25  2  0
 25 26  1  0
 26 27  2  0
 27 28  1  0
 27 29  1  0
 29 30  2  0
 30 31  1  0
 31 32  2  0
 12  7  1  0
 21 15  1  0
 32 22  1  0
 31 25  1  0
  3 33  1  0
  4 34  1  0
  4 35  1  0
  8 36  1  0
  8 37  1  0
  9 38  1  0
  9 39  1  0
 10 40  1  0
 10 41  1  0
 11 42  1  0
 11 43  1  0
 12 44  1  1
 13 45  1  0
 13 46  1  0
 14 47  1  0
 16 48  1  0
 17 49  1  0
 20 50  1  0
 21 51  1  0
 23 52  1  0
 24 53  1  0
 26 54  1  0
 29 55  1  0
 30 56  1  0
M  END
>  <smiles>  (9) 
O=C(NCC(=O)N1CCCC[C@H]1CNc1ccc(Cl)cc1)c1ccc2cc(F)ccc2n1

>  <score_type>  (9) 
oracle

>  <origin>  (9) 
autodockgpu

>  <m_score__min__energy>  (9) 
-9.0600000000000005

>  <m_primary>  (9) 
energy

>  <rmsd>  (9) 
3.4340661800661185

>  <m_score__min__rmsd>  (9) 
3.4340661800661185

>  <meeko>  (9) 
{"free_energy": -7.88, "intermolecular_energy": -9.97, "internal_energy": -2.29, "cluster_size": 17, "cluster_id": 1, "rank_in_cluster": 11}

>  <energy>  (9) 
-8.2

>  <cluster_rmsd>  (9) 
1.96

>  <cluster>  (9) 
1

$$$$

     RDKit          3D

 56 59  0  0  0  0  0  0  0  0999 V2000
  137.4530   71.7100  221.3500 O   0  0  0  0  0  0  0  0  0  0  0  0
  138.2510   72.0940  222.2470 C   0  0  0  0  0  0  0  0  0  0  0  0
  138.7400   73.4320  222.3280 N   0  0  0  0  0  0  0  0  0  0  0  0
  138.3080   74.4050  221.3400 C   0  0  0  0  0  0  0  0  0  0  0  0
  139.1240   74.3700  220.1130 C   0  0  0  0  0  0  0  0  0  0  0  0
  138.7320   75.0160  219.1080 O   0  0  0  0  0  0  0  0  0  0  0  0
  140.3190   73.5980  220.1360 N   0  0  0  0  0  0  0  0  0  0  0  0
  140.4390   72.3120  219.4670 C   0  0  0  0  0  0  0  0  0  0  0  0
  140.7270   71.2150  220.4820 C   0  0  0  0  0  0  0  0  0  0  0  0
  141.8310   71.6710  221.3760 C   0  0  0  0  0  0  0  0  0  0  0  0
  142.4970   72.9440  220.7970 C   0  0  0  0  0  0  0  0  0  0  0  0
  141.5210   74.0660  220.8520 C   0  0  1  0  0  0  0  0  0  0  0  0
  142.0270   75.3280  220.2200 C   0  0  0  0  0  0  0  0  0  0  0  0
  141.1660   76.4490  220.3830 N   0  0  0  0  0  0  0  0  0  0  0  0
  141.3650   77.5980  221.1710 C   0  0  0  0  0  0  0  0  0  0  0  0
  141.0940   77.5680  222.5510 C   0  0  0  0  0  0  0  0  0  0  0  0
  141.2410   78.6720  223.3460 C   0  0  0  0  0  0  0  0  0  0  0  0
  141.6610   79.8780  222.8440 C   0  0  0  0  0  0  0  0  0  0  0  0
  141.8390   81.2650  223.8700 Cl  0  0  0  0  0  0  0  0  0  0  0  0
  141.9330   79.9390  221.4940 C   0  0  0  0  0  0  0  0  0  0  0  0
  141.7840   78.8220  220.6970 C   0  0  0  0  0  0  0  0  0  0  0  0
  138.7030   71.1320  223.2550 C   0  0  0  0  0  0  0  0  0  0  0  0
  138.4060   69.7900  223.1340 C   0  0  0  0  0  0  0  0  0  0  0  0
  138.8380   68.8800  224.0970 C   0  0  0  0  0  0  0  0  0  0  0  0
  139.5770   69.3130  225.1940 C   0  0  0  0  0  0  0  0  0  0  0  0
  140.0200   68.4230  226.1690 C   0  0  0  0  0  0  0  0  0  0  0  0
  140.7560   68.9030  227.2480 C   0  0  0  0  0  0  0  0  0  0  0  0
  141.2020   68.0590  228.2150 F   0  0  0  0  0  0  0  0  0  0  0  0
  141.0420   70.2460  227.3510 C   0  0  0  0  0  0  0  0  0  0  0  0
  140.5950   71.1200  226.3740 C   0  0  0  0  0  0  0  0  0  0  0  0
  139.8550   70.6640  225.2810 C   0  0  0  0  0  0  0  0  0  0  0  0
  139.4210   71.5160  224.3320 N   0  0  0  0  0  0  0  0  0  0  0  0
  139.4060   73.6700  223.1100 H   0  0  0  0  0  0  0  0  0  0  0  0
  137.2618   74.1948  221.0730 H   0  0  0  0  0  0  0  0  0  0  0  0
  138.4210   75.4042  221.7859 H   0  0  0  0  0  0  0  0  0  0  0  0
  139.4980   72.0853  218.9445 H   0  0  0  0  0  0  0  0  0  0  0  0
  141.2679   72.3593  218.7454 H   0  0  0  0  0  0  0  0  0  0  0  0
  139.8247   71.0165  221.0791 H   0  0  0  0  0  0  0  0  0  0  0  0
  141.0214   70.2909  219.9630 H   0  0  0  0  0  0  0  0  0  0  0  0
  141.4224   71.8958  222.3723 H   0  0  0  0  0  0  0  0  0  0  0  0
  142.5851   70.8736  221.4505 H   0  0  0  0  0  0  0  0  0  0  0  0
  143.3864   73.1987  221.3921 H   0  0  0  0  0  0  0  0  0  0  0  0
  142.8006   72.7648  219.7550 H   0  0  0  0  0  0  0  0  0  0  0  0
  141.3221   74.3216  221.9032 H   0  0  0  0  0  0  0  0  0  0  0  0
  143.0005   75.5727  220.6700 H   0  0  0  0  0  0  0  0  0  0  0  0
  142.0929   75.1352  219.1390 H   0  0  0  0  0  0  0  0  0  0  0  0
  140.2480   76.4180  219.8360 H   0  0  0  0  0  0  0  0  0  0  0  0
  140.7528   76.6264  223.0059 H   0  0  0  0  0  0  0  0  0  0  0  0
  141.0157   78.5902  224.4196 H   0  0  0  0  0  0  0  0  0  0  0  0
  142.2717   80.8859  221.0481 H   0  0  0  0  0  0  0  0  0  0  0  0
  142.0122   78.9140  219.6249 H   0  0  0  0  0  0  0  0  0  0  0  0
  137.8237   69.4356  222.2707 H   0  0  0  0  0  0  0  0  0  0  0  0
  138.5934   67.8129  223.9894 H   0  0  0  0  0  0  0  0  0  0  0  0
  139.7903   67.3504  226.0870 H   0  0  0  0  0  0  0  0  0  0  0  0
  141.6230   70.6231  228.2055 H   0  0  0  0  0  0  0  0  0  0  0  0
  140.8269   72.1918  226.4605 H   0  0  0  0  0  0  0  0  0  0  0  0
  1  2  2  0
  2  3  1  0
  3  4  1  0
  4  5  1  0
  5  6  2  0
  5  7  1  0
  7  8  1  0
  8  9  1  0
  9 10  1  0
 10 11  1  0
 11 12  1  0
 12 13  1  0
 13 14  1  0
 14 15  1  0
 15 16  2  0
 16 17  1  0
 17 18  2  0
 18 19  1  0
 18 20  1  0
 20 21  2  0
  2 22  1  0
 22 23  2  0
 23 24  1  0
 24 25  2  0
 25 26  1  0
 26 27  2  0
 27 28  1  0
 27 29  1  0
 29 30  2  0
 30 31  1  0
 31 32  2  0
 12  7  1  0
 21 15  1  0
 32 22  1  0
 31 25  1  0
  3 33  1  0
  4 34  1  0
  4 35  1  0
  8 36  1  0
  8 37  1  0
  9 38  1  0
  9 39  1  0
 10 40  1  0
 10 41  1  0
 11 42  1  0
 11 43  1  0
 12 44  1  1
 13 45  1  0
 13 46  1  0
 14 47  1  0
 16 48  1  0
 17 49  1  0
 20 50  1  0
 21 51  1  0
 23 52  1  0
 24 53  1  0
 26 54  1  0
 29 55  1  0
 30 56  1  0
M  END
>  <smiles>  (10) 
O=C(NCC(=O)N1CCCC[C@H]1CNc1ccc(Cl)cc1)c1ccc2cc(F)ccc2n1

>  <score_type>  (10) 
oracle

>  <origin>  (10) 
autodockgpu

>  <m_score__min__energy>  (10) 
-9.0600000000000005

>  <m_primary>  (10) 
energy

>  <rmsd>  (10) 
2.9326434504641883

>  <m_score__min__rmsd>  (10) 
2.9326434504641883

>  <meeko>  (10) 
{"free_energy": -7.23, "intermolecular_energy": -9.32, "internal_energy": -3.01, "cluster_size": 17, "cluster_id": 1, "rank_in_cluster": 17}

>  <energy>  (10) 
-8.2

>  <cluster_rmsd>  (10) 
1.56

>  <cluster>  (10) 
1

$$$$

     RDKit          3D

 56 59  0  0  0  0  0  0  0  0999 V2000
  140.3350   77.1020  218.7090 O   0  0  0  0  0  0  0  0  0  0  0  0
  141.5590   77.0990  219.0090 C   0  0  0  0  0  0  0  0  0  0  0  0
  142.2690   78.2790  219.3820 N   0  0  0  0  0  0  0  0  0  0  0  0
  141.5630   79.5470  219.4230 C   0  0  0  0  0  0  0  0  0  0  0  0
  140.4290   79.5370  220.3640 C   0  0  0  0  0  0  0  0  0  0  0  0
  139.2670   79.3800  219.9100 O   0  0  0  0  0  0  0  0  0  0  0  0
  140.7180   79.7060  221.7470 N   0  0  0  0  0  0  0  0  0  0  0  0
  140.7370   81.0100  222.3940 C   0  0  0  0  0  0  0  0  0  0  0  0
  142.1240   81.3030  222.9460 C   0  0  0  0  0  0  0  0  0  0  0  0
  142.5950   80.1100  223.7090 C   0  0  0  0  0  0  0  0  0  0  0  0
  141.4250   79.1200  223.9300 C   0  0  0  0  0  0  0  0  0  0  0  0
  141.0190   78.5520  222.6160 C   0  0  1  0  0  0  0  0  0  0  0  0
  139.8210   77.6550  222.6980 C   0  0  0  0  0  0  0  0  0  0  0  0
  139.6330   76.8230  221.5590 N   0  0  0  0  0  0  0  0  0  0  0  0
  139.7510   75.4240  221.4700 C   0  0  0  0  0  0  0  0  0  0  0  0
  141.0020   74.8030  221.6380 C   0  0  0  0  0  0  0  0  0  0  0  0
  141.1650   73.4500  221.5230 C   0  0  0  0  0  0  0  0  0  0  0  0
  140.1160   72.6140  221.2350 C   0  0  0  0  0  0  0  0  0  0  0  0
  140.3460   70.9000  221.0940 Cl  0  0  0  0  0  0  0  0  0  0  0  0
  138.8770   73.1930  221.0630 C   0  0  0  0  0  0  0  0  0  0  0  0
  138.7180   74.5580  221.1800 C   0  0  0  0  0  0  0  0  0  0  0  0
  142.2950   75.8320  218.9760 C   0  0  0  0  0  0  0  0  0  0  0  0
  141.8770   74.7930  218.1700 C   0  0  0  0  0  0  0  0  0  0  0  0
  142.5800   73.5910  218.1440 C   0  0  0  0  0  0  0  0  0  0  0  0
  143.7150   73.4220  218.9310 C   0  0  0  0  0  0  0  0  0  0  0  0
  144.4360   72.2300  218.9210 C   0  0  0  0  0  0  0  0  0  0  0  0
  145.5650   72.1080  219.7260 C   0  0  0  0  0  0  0  0  0  0  0  0
  146.2880   70.9570  219.7380 F   0  0  0  0  0  0  0  0  0  0  0  0
  145.9660   73.1560  220.5220 C   0  0  0  0  0  0  0  0  0  0  0  0
  145.2410   74.3350  220.5220 C   0  0  0  0  0  0  0  0  0  0  0  0
  144.1030   74.4840  219.7250 C   0  0  0  0  0  0  0  0  0  0  0  0
  143.3990   75.6320  219.7260 N   0  0  0  0  0  0  0  0  0  0  0  0
  143.2920   78.1880  219.6180 H   0  0  0  0  0  0  0  0  0  0  0  0
  142.2686   80.3327  219.7308 H   0  0  0  0  0  0  0  0  0  0  0  0
  141.1583   79.7343  218.4174 H   0  0  0  0  0  0  0  0  0  0  0  0
  140.4672   81.7836  221.6600 H   0  0  0  0  0  0  0  0  0  0  0  0
  140.0138   81.0098  223.2228 H   0  0  0  0  0  0  0  0  0  0  0  0
  142.8167   81.5097  222.1169 H   0  0  0  0  0  0  0  0  0  0  0  0
  142.0873   82.1813  223.6072 H   0  0  0  0  0  0  0  0  0  0  0  0
  143.3933   79.6083  223.1424 H   0  0  0  0  0  0  0  0  0  0  0  0
  142.9773   80.4376  224.6870 H   0  0  0  0  0  0  0  0  0  0  0  0
  141.7491   78.3088  224.5986 H   0  0  0  0  0  0  0  0  0  0  0  0
  140.5739   79.6454  224.3877 H   0  0  0  0  0  0  0  0  0  0  0  0
  141.8328   77.9222  222.2273 H   0  0  0  0  0  0  0  0  0  0  0  0
  139.9340   77.0093  223.5813 H   0  0  0  0  0  0  0  0  0  0  0  0
  138.9400   78.3110  222.7576 H   0  0  0  0  0  0  0  0  0  0  0  0
  139.3680   77.3230  220.6530 H   0  0  0  0  0  0  0  0  0  0  0  0
  141.8782   75.4264  221.8696 H   0  0  0  0  0  0  0  0  0  0  0  0
  142.1670   73.0192  221.6657 H   0  0  0  0  0  0  0  0  0  0  0  0
  138.0074   72.5608  220.8304 H   0  0  0  0  0  0  0  0  0  0  0  0
  137.7122   74.9788  221.0340 H   0  0  0  0  0  0  0  0  0  0  0  0
  140.9814   74.9150  217.5430 H   0  0  0  0  0  0  0  0  0  0  0  0
  142.2359   72.7703  217.4974 H   0  0  0  0  0  0  0  0  0  0  0  0
  144.1161   71.3930  218.2829 H   0  0  0  0  0  0  0  0  0  0  0  0
  146.8594   73.0573  221.1561 H   0  0  0  0  0  0  0  0  0  0  0  0
  145.5664   75.1694  221.1607 H   0  0  0  0  0  0  0  0  0  0  0  0
  1  2  2  0
  2  3  1  0
  3  4  1  0
  4  5  1  0
  5  6  2  0
  5  7  1  0
  7  8  1  0
  8  9  1  0
  9 10  1  0
 10 11  1  0
 11 12  1  0
 12 13  1  0
 13 14  1  0
 14 15  1  0
 15 16  2  0
 16 17  1  0
 17 18  2  0
 18 19  1  0
 18 20  1  0
 20 21  2  0
  2 22  1  0
 22 23  2  0
 23 24  1  0
 24 25  2  0
 25 26  1  0
 26 27  2  0
 27 28  1  0
 27 29  1  0
 29 30  2  0
 30 31  1  0
 31 32  2  0
 12  7  1  0
 21 15  1  0
 32 22  1  0
 31 25  1  0
  3 33  1  0
  4 34  1  0
  4 35  1  0
  8 36  1  0
  8 37  1  0
  9 38  1  0
  9 39  1  0
 10 40  1  0
 10 41  1  0
 11 42  1  0
 11 43  1  0
 12 44  1  6
 13 45  1  0
 13 46  1  0
 14 47  1  0
 16 48  1  0
 17 49  1  0
 20 50  1  0
 21 51  1  0
 23 52  1  0
 24 53  1  0
 26 54  1  0
 29 55  1  0
 30 56  1  0
M  END
>  <smiles>  (11) 
O=C(NCC(=O)N1CCCC[C@H]1CNc1ccc(Cl)cc1)c1ccc2cc(F)ccc2n1

>  <score_type>  (11) 
oracle

>  <origin>  (11) 
autodockgpu

>  <m_score__min__energy>  (11) 
-9.0600000000000005

>  <m_primary>  (11) 
energy

>  <rmsd>  (11) 
7.54720688533525

>  <m_score__min__rmsd>  (11) 
7.54720688533525

>  <meeko>  (11) 
{"free_energy": -6.27, "intermolecular_energy": -8.36, "internal_energy": -4.39, "cluster_size": 5, "cluster_id": 9, "rank_in_cluster": 5}

>  <energy>  (11) 
-7.88

>  <cluster_rmsd>  (11) 
1.86

>  <cluster>  (11) 
1

$$$$

     RDKit          3D

 56 59  0  0  0  0  0  0  0  0999 V2000
  139.2790   70.7310  221.3300 O   0  0  0  0  0  0  0  0  0  0  0  0
  138.9720   71.4070  222.3480 C   0  0  0  0  0  0  0  0  0  0  0  0
  138.1070   72.5410  222.2940 N   0  0  0  0  0  0  0  0  0  0  0  0
  137.5490   72.9460  221.0160 C   0  0  0  0  0  0  0  0  0  0  0  0
  137.9100   74.3270  220.6500 C   0  0  0  0  0  0  0  0  0  0  0  0
  138.2960   74.5600  219.4760 O   0  0  0  0  0  0  0  0  0  0  0  0
  137.8000   75.3270  221.6560 N   0  0  0  0  0  0  0  0  0  0  0  0
  136.8540   75.2360  222.7570 C   0  0  0  0  0  0  0  0  0  0  0  0
  135.8700   76.3960  222.7030 C   0  0  0  0  0  0  0  0  0  0  0  0
  136.6380   77.6620  222.5120 C   0  0  0  0  0  0  0  0  0  0  0  0
  138.1500   77.4090  222.7290 C   0  0  0  0  0  0  0  0  0  0  0  0
  138.6530   76.5300  221.6380 C   0  0  1  0  0  0  0  0  0  0  0  0
  140.0900   76.1350  221.8070 C   0  0  0  0  0  0  0  0  0  0  0  0
  140.6630   75.5120  220.6630 N   0  0  0  0  0  0  0  0  0  0  0  0
  141.9200   74.8920  220.5420 C   0  0  0  0  0  0  0  0  0  0  0  0
  142.0850   73.5410  220.8990 C   0  0  0  0  0  0  0  0  0  0  0  0
  143.2980   72.9130  220.8300 C   0  0  0  0  0  0  0  0  0  0  0  0
  144.4310   73.5630  220.4090 C   0  0  0  0  0  0  0  0  0  0  0  0
  145.9580   72.7450  220.3300 Cl  0  0  0  0  0  0  0  0  0  0  0  0
  144.3010   74.8880  220.0540 C   0  0  0  0  0  0  0  0  0  0  0  0
  143.0760   75.5180  220.1250 C   0  0  0  0  0  0  0  0  0  0  0  0
  139.5220   71.0210  223.6500 C   0  0  0  0  0  0  0  0  0  0  0  0
  140.3770   71.8620  224.3330 C   0  0  0  0  0  0  0  0  0  0  0  0
  140.8980   71.4880  225.5700 C   0  0  0  0  0  0  0  0  0  0  0  0
  140.5620   70.2610  226.1340 C   0  0  0  0  0  0  0  0  0  0  0  0
  141.0700   69.8660  227.3690 C   0  0  0  0  0  0  0  0  0  0  0  0
  140.7060   68.6280  227.8920 C   0  0  0  0  0  0  0  0  0  0  0  0
  141.1850   68.2160  229.0950 F   0  0  0  0  0  0  0  0  0  0  0  0
  139.8520   67.8040  227.1950 C   0  0  0  0  0  0  0  0  0  0  0  0
  139.3550   68.2100  225.9680 C   0  0  0  0  0  0  0  0  0  0  0  0
  139.7050   69.4460  225.4200 C   0  0  0  0  0  0  0  0  0  0  0  0
  139.2200   69.8390  224.2270 N   0  0  0  0  0  0  0  0  0  0  0  0
  137.9020   73.0510  223.1940 H   0  0  0  0  0  0  0  0  0  0  0  0
  137.9239   72.2660  220.2369 H   0  0  0  0  0  0  0  0  0  0  0  0
  136.4533   72.9007  221.1025 H   0  0  0  0  0  0  0  0  0  0  0  0
  136.3017   74.2875  222.6838 H   0  0  0  0  0  0  0  0  0  0  0  0
  137.4054   75.2776  223.7079 H   0  0  0  0  0  0  0  0  0  0  0  0
  135.1748   76.2537  221.8625 H   0  0  0  0  0  0  0  0  0  0  0  0
  135.2926   76.4435  223.6381 H   0  0  0  0  0  0  0  0  0  0  0  0
  136.4752   78.0349  221.4900 H   0  0  0  0  0  0  0  0  0  0  0  0
  136.2903   78.4062  223.2436 H   0  0  0  0  0  0  0  0  0  0  0  0
  138.6910   78.3666  222.7108 H   0  0  0  0  0  0  0  0  0  0  0  0
  138.3107   76.9235  223.7029 H   0  0  0  0  0  0  0  0  0  0  0  0
  138.6064   77.0739  220.6830 H   0  0  0  0  0  0  0  0  0  0  0  0
  140.6720   77.0403  222.0344 H   0  0  0  0  0  0  0  0  0  0  0  0
  140.1202   75.3933  222.6188 H   0  0  0  0  0  0  0  0  0  0  0  0
  140.0620   75.5130  219.7790 H   0  0  0  0  0  0  0  0  0  0  0  0
  141.2099   72.9714  221.2449 H   0  0  0  0  0  0  0  0  0  0  0  0
  143.3676   71.8544  221.1209 H   0  0  0  0  0  0  0  0  0  0  0  0
  145.1828   75.4489  219.7106 H   0  0  0  0  0  0  0  0  0  0  0  0
  143.0179   76.5770  219.8332 H   0  0  0  0  0  0  0  0  0  0  0  0
  140.6492   72.8348  223.8976 H   0  0  0  0  0  0  0  0  0  0  0  0
  141.5791   72.1669  226.1041 H   0  0  0  0  0  0  0  0  0  0  0  0
  141.7520   70.5254  227.9258 H   0  0  0  0  0  0  0  0  0  0  0  0
  139.5654   66.8268  227.6110 H   0  0  0  0  0  0  0  0  0  0  0  0
  138.6726   67.5475  225.4153 H   0  0  0  0  0  0  0  0  0  0  0  0
  1  2  2  0
  2  3  1  0
  3  4  1  0
  4  5  1  0
  5  6  2  0
  5  7  1  0
  7  8  1  0
  8  9  1  0
  9 10  1  0
 10 11  1  0
 11 12  1  0
 12 13  1  0
 13 14  1  0
 14 15  1  0
 15 16  2  0
 16 17  1  0
 17 18  2  0
 18 19  1  0
 18 20  1  0
 20 21  2  0
  2 22  1  0
 22 23  2  0
 23 24  1  0
 24 25  2  0
 25 26  1  0
 26 27  2  0
 27 28  1  0
 27 29  1  0
 29 30  2  0
 30 31  1  0
 31 32  2  0
 12  7  1  0
 21 15  1  0
 32 22  1  0
 31 25  1  0
  3 33  1  0
  4 34  1  0
  4 35  1  0
  8 36  1  0
  8 37  1  0
  9 38  1  0
  9 39  1  0
 10 40  1  0
 10 41  1  0
 11 42  1  0
 11 43  1  0
 12 44  1  6
 13 45  1  0
 13 46  1  0
 14 47  1  0
 16 48  1  0
 17 49  1  0
 20 50  1  0
 21 51  1  0
 23 52  1  0
 24 53  1  0
 26 54  1  0
 29 55  1  0
 30 56  1  0
M  END
>  <smiles>  (12) 
O=C(NCC(=O)N1CCCC[C@H]1CNc1ccc(Cl)cc1)c1ccc2cc(F)ccc2n1

>  <score_type>  (12) 
oracle

>  <origin>  (12) 
autodockgpu

>  <m_score__min__energy>  (12) 
-9.0600000000000005

>  <m_primary>  (12) 
energy

>  <rmsd>  (12) 
4.690760927888728

>  <m_score__min__rmsd>  (12) 
4.690760927888728

>  <meeko>  (12) 
{"free_energy": -7.67, "intermolecular_energy": -9.76, "internal_energy": -2.42, "cluster_size": 10, "cluster_id": 2, "rank_in_cluster": 10}

>  <energy>  (12) 
-7.66

>  <cluster_rmsd>  (12) 
1.47

>  <cluster>  (12) 
1

$$$$

     RDKit          3D

 56 59  0  0  0  0  0  0  0  0999 V2000
  136.2740   76.9480  221.6710 O   0  0  0  0  0  0  0  0  0  0  0  0
  137.3450   76.7220  222.2960 C   0  0  0  0  0  0  0  0  0  0  0  0
  137.7750   75.4070  222.6470 N   0  0  0  0  0  0  0  0  0  0  0  0
  136.9530   74.2700  222.2730 C   0  0  0  0  0  0  0  0  0  0  0  0
  137.7510   73.0680  221.9680 C   0  0  0  0  0  0  0  0  0  0  0  0
  137.2560   71.9370  222.2090 O   0  0  0  0  0  0  0  0  0  0  0  0
  139.0470   73.2600  221.4140 N   0  0  0  0  0  0  0  0  0  0  0  0
  139.3940   74.4160  220.6020 C   0  0  0  0  0  0  0  0  0  0  0  0
  139.7970   73.9740  219.2020 C   0  0  0  0  0  0  0  0  0  0  0  0
  140.7760   72.8530  219.3210 C   0  0  0  0  0  0  0  0  0  0  0  0
  141.2660   72.7230  220.7840 C   0  0  0  0  0  0  0  0  0  0  0  0
  140.1280   72.2810  221.6360 C   0  0  1  0  0  0  0  0  0  0  0  0
  140.4650   72.2210  223.0950 C   0  0  0  0  0  0  0  0  0  0  0  0
  139.5870   71.4070  223.8650 N   0  0  0  0  0  0  0  0  0  0  0  0
  139.8870   70.6210  224.9920 C   0  0  0  0  0  0  0  0  0  0  0  0
  140.6670   71.1460  226.0390 C   0  0  0  0  0  0  0  0  0  0  0  0
  141.0100   70.4030  227.1350 C   0  0  0  0  0  0  0  0  0  0  0  0
  140.6150   69.0960  227.2800 C   0  0  0  0  0  0  0  0  0  0  0  0
  141.0630   68.1730  228.6780 Cl  0  0  0  0  0  0  0  0  0  0  0  0
  139.8510   68.5530  226.2690 C   0  0  0  0  0  0  0  0  0  0  0  0
  139.5070   69.3070  225.1660 C   0  0  0  0  0  0  0  0  0  0  0  0
  138.1930   77.8520  222.6850 C   0  0  0  0  0  0  0  0  0  0  0  0
  137.6370   79.0710  223.0130 C   0  0  0  0  0  0  0  0  0  0  0  0
  138.4480   80.1430  223.3810 C   0  0  0  0  0  0  0  0  0  0  0  0
  139.8310   79.9960  223.4240 C   0  0  0  0  0  0  0  0  0  0  0  0
  140.6630   81.0520  223.7890 C   0  0  0  0  0  0  0  0  0  0  0  0
  142.0410   80.8570  223.8160 C   0  0  0  0  0  0  0  0  0  0  0  0
  142.8780   81.8680  224.1690 F   0  0  0  0  0  0  0  0  0  0  0  0
  142.5760   79.6330  223.4860 C   0  0  0  0  0  0  0  0  0  0  0  0
  141.7370   78.5920  223.1250 C   0  0  0  0  0  0  0  0  0  0  0  0
  140.3510   78.7610  223.0890 C   0  0  0  0  0  0  0  0  0  0  0  0
  139.5370   77.7470  222.7370 N   0  0  0  0  0  0  0  0  0  0  0  0
  138.6850   75.3070  223.1700 H   0  0  0  0  0  0  0  0  0  0  0  0
  136.2721   74.0387  223.1054 H   0  0  0  0  0  0  0  0  0  0  0  0
  136.4017   74.5435  221.3613 H   0  0  0  0  0  0  0  0  0  0  0  0
  138.5249   75.0869  220.5350 H   0  0  0  0  0  0  0  0  0  0  0  0
  140.2396   74.9418  221.0694 H   0  0  0  0  0  0  0  0  0  0  0  0
  138.9083   73.6332  218.6506 H   0  0  0  0  0  0  0  0  0  0  0  0
  140.2522   74.8150  218.6583 H   0  0  0  0  0  0  0  0  0  0  0  0
  140.2917   71.9138  219.0154 H   0  0  0  0  0  0  0  0  0  0  0  0
  141.6389   73.0599  218.6709 H   0  0  0  0  0  0  0  0  0  0  0  0
  142.0770   71.9817  220.8373 H   0  0  0  0  0  0  0  0  0  0  0  0
  141.6422   73.6939  221.1388 H   0  0  0  0  0  0  0  0  0  0  0  0
  139.8424   71.2561  221.3568 H   0  0  0  0  0  0  0  0  0  0  0  0
  141.4845   71.8208  223.1971 H   0  0  0  0  0  0  0  0  0  0  0  0
  140.3676   73.2454  223.4837 H   0  0  0  0  0  0  0  0  0  0  0  0
  138.5670   71.3900  223.5480 H   0  0  0  0  0  0  0  0  0  0  0  0
  141.0123   72.1884  225.9739 H   0  0  0  0  0  0  0  0  0  0  0  0
  141.6206   70.8665  227.9239 H   0  0  0  0  0  0  0  0  0  0  0  0
  139.5126   67.5089  226.3424 H   0  0  0  0  0  0  0  0  0  0  0  0
  138.8963   68.8342  224.3827 H   0  0  0  0  0  0  0  0  0  0  0  0
  136.5447   79.1980  222.9839 H   0  0  0  0  0  0  0  0  0  0  0  0
  137.9924   81.1104  223.6388 H   0  0  0  0  0  0  0  0  0  0  0  0
  140.2352   82.0303  224.0533 H   0  0  0  0  0  0  0  0  0  0  0  0
  143.6654   79.4820  223.5088 H   0  0  0  0  0  0  0  0  0  0  0  0
  142.1695   77.6154  222.8621 H   0  0  0  0  0  0  0  0  0  0  0  0
  1  2  2  0
  2  3  1  0
  3  4  1  0
  4  5  1  0
  5  6  2  0
  5  7  1  0
  7  8  1  0
  8  9  1  0
  9 10  1  0
 10 11  1  0
 11 12  1  0
 12 13  1  0
 13 14  1  0
 14 15  1  0
 15 16  2  0
 16 17  1  0
 17 18  2  0
 18 19  1  0
 18 20  1  0
 20 21  2  0
  2 22  1  0
 22 23  2  0
 23 24  1  0
 24 25  2  0
 25 26  1  0
 26 27  2  0
 27 28  1  0
 27 29  1  0
 29 30  2  0
 30 31  1  0
 31 32  2  0
 12  7  1  0
 21 15  1  0
 32 22  1  0
 31 25  1  0
  3 33  1  0
  4 34  1  0
  4 35  1  0
  8 36  1  0
  8 37  1  0
  9 38  1  0
  9 39  1  0
 10 40  1  0
 10 41  1  0
 11 42  1  0
 11 43  1  0
 12 44  1  6
 13 45  1  0
 13 46  1  0
 14 47  1  0
 16 48  1  0
 17 49  1  0
 20 50  1  0
 21 51  1  0
 23 52  1  0
 24 53  1  0
 26 54  1  0
 29 55  1  0
 30 56  1  0
M  END
>  <smiles>  (13) 
O=C(NCC(=O)N1CCCC[C@H]1CNc1ccc(Cl)cc1)c1ccc2cc(F)ccc2n1

>  <score_type>  (13) 
oracle

>  <origin>  (13) 
autodockgpu

>  <m_score__min__energy>  (13) 
-9.0600000000000005

>  <m_primary>  (13) 
energy

>  <rmsd>  (13) 
8.720372758502458

>  <m_score__min__rmsd>  (13) 
8.720372758502458

>  <meeko>  (13) 
{"free_energy": -7.83, "intermolecular_energy": -9.92, "internal_energy": -2.24, "cluster_size": 2, "cluster_id": 5, "rank_in_cluster": 2}

>  <energy>  (13) 
-7.66

>  <cluster_rmsd>  (13) 
1.5

>  <cluster>  (13) 
1

$$$$

     RDKit          3D

 56 59  0  0  0  0  0  0  0  0999 V2000
  142.6310   76.3480  218.3080 O   0  0  0  0  0  0  0  0  0  0  0  0
  142.3040   76.8160  219.4320 C   0  0  0  0  0  0  0  0  0  0  0  0
  142.1280   76.0010  220.5890 N   0  0  0  0  0  0  0  0  0  0  0  0
  142.3310   74.5670  220.4840 C   0  0  0  0  0  0  0  0  0  0  0  0
  141.3320   73.7940  221.2440 C   0  0  0  0  0  0  0  0  0  0  0  0
  140.5710   74.4050  222.0370 O   0  0  0  0  0  0  0  0  0  0  0  0
  141.2860   72.3880  221.0330 N   0  0  0  0  0  0  0  0  0  0  0  0
  142.4300   71.5190  221.2630 C   0  0  0  0  0  0  0  0  0  0  0  0
  142.8410   70.8370  219.9660 C   0  0  0  0  0  0  0  0  0  0  0  0
  141.6210   70.2700  219.3190 C   0  0  0  0  0  0  0  0  0  0  0  0
  140.4280   70.3040  220.3050 C   0  0  0  0  0  0  0  0  0  0  0  0
  140.0560   71.7220  220.5630 C   0  0  1  0  0  0  0  0  0  0  0  0
  138.9730   71.8770  221.5880 C   0  0  0  0  0  0  0  0  0  0  0  0
  139.4480   72.1160  222.9080 N   0  0  0  0  0  0  0  0  0  0  0  0
  139.7030   71.1820  223.9290 C   0  0  0  0  0  0  0  0  0  0  0  0
  140.6560   71.4610  224.9260 C   0  0  0  0  0  0  0  0  0  0  0  0
  140.9590   70.5650  225.9140 C   0  0  0  0  0  0  0  0  0  0  0  0
  140.3520   69.3370  225.9920 C   0  0  0  0  0  0  0  0  0  0  0  0
  140.7530   68.2160  227.2540 Cl  0  0  0  0  0  0  0  0  0  0  0  0
  139.4160   69.0340  225.0280 C   0  0  0  0  0  0  0  0  0  0  0  0
  139.1130   69.9410  224.0330 C   0  0  0  0  0  0  0  0  0  0  0  0
  142.0920   78.2600  219.5650 C   0  0  0  0  0  0  0  0  0  0  0  0
  142.2390   79.0990  218.4800 C   0  0  0  0  0  0  0  0  0  0  0  0
  142.0370   80.4710  218.6130 C   0  0  0  0  0  0  0  0  0  0  0  0
  141.6830   81.0140  219.8450 C   0  0  0  0  0  0  0  0  0  0  0  0
  141.4750   82.3820  220.0030 C   0  0  0  0  0  0  0  0  0  0  0  0
  141.1230   82.8780  221.2550 C   0  0  0  0  0  0  0  0  0  0  0  0
  140.9140   84.2080  221.4400 F   0  0  0  0  0  0  0  0  0  0  0  0
  140.9810   82.0250  222.3260 C   0  0  0  0  0  0  0  0  0  0  0  0
  141.1910   80.6670  222.1540 C   0  0  0  0  0  0  0  0  0  0  0  0
  141.5460   80.1430  220.9080 C   0  0  0  0  0  0  0  0  0  0  0  0
  141.7490   78.8220  220.7430 N   0  0  0  0  0  0  0  0  0  0  0  0
  141.8520   76.4740  221.4910 H   0  0  0  0  0  0  0  0  0  0  0  0
  142.2668   74.2791  219.4243 H   0  0  0  0  0  0  0  0  0  0  0  0
  143.3201   74.3394  220.9081 H   0  0  0  0  0  0  0  0  0  0  0  0
  143.2714   72.1183  221.6409 H   0  0  0  0  0  0  0  0  0  0  0  0
  142.1548   70.7510  222.0008 H   0  0  0  0  0  0  0  0  0  0  0  0
  143.3099   71.5707  219.2939 H   0  0  0  0  0  0  0  0  0  0  0  0
  143.5629   70.0340  220.1759 H   0  0  0  0  0  0  0  0  0  0  0  0
  141.3727   70.8648  218.4276 H   0  0  0  0  0  0  0  0  0  0  0  0
  141.8192   69.2269  219.0313 H   0  0  0  0  0  0  0  0  0  0  0  0
  139.5712   69.7714  219.8665 H   0  0  0  0  0  0  0  0  0  0  0  0
  140.7106   69.8152  221.2490 H   0  0  0  0  0  0  0  0  0  0  0  0
  139.6539   72.1651  219.6400 H   0  0  0  0  0  0  0  0  0  0  0  0
  138.3367   72.7240  221.2919 H   0  0  0  0  0  0  0  0  0  0  0  0
  138.4268   70.9227  221.6170 H   0  0  0  0  0  0  0  0  0  0  0  0
  139.6350   73.1380  223.1600 H   0  0  0  0  0  0  0  0  0  0  0  0
  141.1741   72.4312  224.9103 H   0  0  0  0  0  0  0  0  0  0  0  0
  141.7118   70.8370  226.6686 H   0  0  0  0  0  0  0  0  0  0  0  0
  138.9053   68.0600  225.0515 H   0  0  0  0  0  0  0  0  0  0  0  0
  138.3601   69.6582  223.2826 H   0  0  0  0  0  0  0  0  0  0  0  0
  142.5181   78.6812  217.5014 H   0  0  0  0  0  0  0  0  0  0  0  0
  142.1579   81.1289  217.7397 H   0  0  0  0  0  0  0  0  0  0  0  0
  141.5878   83.0636  219.1470 H   0  0  0  0  0  0  0  0  0  0  0  0
  140.7020   82.4202  223.3139 H   0  0  0  0  0  0  0  0  0  0  0  0
  141.0764   79.9892  223.0128 H   0  0  0  0  0  0  0  0  0  0  0  0
  1  2  2  0
  2  3  1  0
  3  4  1  0
  4  5  1  0
  5  6  2  0
  5  7  1  0
  7  8  1  0
  8  9  1  0
  9 10  1  0
 10 11  1  0
 11 12  1  0
 12 13  1  0
 13 14  1  0
 14 15  1  0
 15 16  2  0
 16 17  1  0
 17 18  2  0
 18 19  1  0
 18 20  1  0
 20 21  2  0
  2 22  1  0
 22 23  2  0
 23 24  1  0
 24 25  2  0
 25 26  1  0
 26 27  2  0
 27 28  1  0
 27 29  1  0
 29 30  2  0
 30 31  1  0
 31 32  2  0
 12  7  1  0
 21 15  1  0
 32 22  1  0
 31 25  1  0
  3 33  1  0
  4 34  1  0
  4 35  1  0
  8 36  1  0
  8 37  1  0
  9 38  1  0
  9 39  1  0
 10 40  1  0
 10 41  1  0
 11 42  1  0
 11 43  1  0
 12 44  1  6
 13 45  1  0
 13 46  1  0
 14 47  1  0
 16 48  1  0
 17 49  1  0
 20 50  1  0
 21 51  1  0
 23 52  1  0
 24 53  1  0
 26 54  1  0
 29 55  1  0
 30 56  1  0
M  END
>  <smiles>  (14) 
O=C(NCC(=O)N1CCCC[C@H]1CNc1ccc(Cl)cc1)c1ccc2cc(F)ccc2n1

>  <score_type>  (14) 
oracle

>  <origin>  (14) 
autodockgpu

>  <m_score__min__energy>  (14) 
-9.0600000000000005

>  <m_primary>  (14) 
energy

>  <rmsd>  (14) 
9.818126005854436

>  <m_score__min__rmsd>  (14) 
9.818126005854436

>  <meeko>  (14) 
{"free_energy": -7.47, "intermolecular_energy": -9.55, "internal_energy": -2.77, "cluster_size": 1, "cluster_id": 8, "rank_in_cluster": 1}

>  <energy>  (14) 
-7.59

>  <cluster_rmsd>  (14) 
1.49

>  <cluster>  (14) 
1

$$$$

     RDKit          3D

 56 59  0  0  0  0  0  0  0  0999 V2000
  139.2910   72.8800  222.4530 O   0  0  0  0  0  0  0  0  0  0  0  0
  139.6420   71.6710  222.5230 C   0  0  0  0  0  0  0  0  0  0  0  0
  139.6780   70.8070  221.3880 N   0  0  0  0  0  0  0  0  0  0  0  0
  139.2960   71.3290  220.0880 C   0  0  0  0  0  0  0  0  0  0  0  0
  139.9680   72.6010  219.7670 C   0  0  0  0  0  0  0  0  0  0  0  0
  139.2640   73.5920  219.4430 O   0  0  0  0  0  0  0  0  0  0  0  0
  141.3880   72.6350  219.8430 N   0  0  0  0  0  0  0  0  0  0  0  0
  142.2450   71.9740  218.8710 C   0  0  0  0  0  0  0  0  0  0  0  0
  143.0890   70.9070  219.5530 C   0  0  0  0  0  0  0  0  0  0  0  0
  143.7050   71.4970  220.7770 C   0  0  0  0  0  0  0  0  0  0  0  0
  143.5280   73.0350  220.7770 C   0  0  0  0  0  0  0  0  0  0  0  0
  142.0820   73.3530  220.9300 C   0  0  1  0  0  0  0  0  0  0  0  0
  141.7820   74.8190  220.8390 C   0  0  0  0  0  0  0  0  0  0  0  0
  140.5300   75.1960  221.4040 N   0  0  0  0  0  0  0  0  0  0  0  0
  140.1750   76.4160  222.0080 C   0  0  0  0  0  0  0  0  0  0  0  0
  138.8210   76.7490  222.1940 C   0  0  0  0  0  0  0  0  0  0  0  0
  138.4330   77.9400  222.7450 C   0  0  0  0  0  0  0  0  0  0  0  0
  139.3440   78.8850  223.1480 C   0  0  0  0  0  0  0  0  0  0  0  0
  138.8290   80.3880  223.8440 Cl  0  0  0  0  0  0  0  0  0  0  0  0
  140.6790   78.5870  222.9770 C   0  0  0  0  0  0  0  0  0  0  0  0
  141.0640   77.3850  222.4220 C   0  0  0  0  0  0  0  0  0  0  0  0
  140.0310   71.1190  223.8230 C   0  0  0  0  0  0  0  0  0  0  0  0
  140.6980   71.8950  224.7490 C   0  0  0  0  0  0  0  0  0  0  0  0
  141.0670   71.3640  225.9830 C   0  0  0  0  0  0  0  0  0  0  0  0
  140.7670   70.0430  226.2990 C   0  0  0  0  0  0  0  0  0  0  0  0
  141.1240   69.4900  227.5270 C   0  0  0  0  0  0  0  0  0  0  0  0
  140.8020   68.1630  227.7970 C   0  0  0  0  0  0  0  0  0  0  0  0
  141.1380   67.5960  228.9860 F   0  0  0  0  0  0  0  0  0  0  0  0
  140.1360   67.4060  226.8610 C   0  0  0  0  0  0  0  0  0  0  0  0
  139.7870   67.9680  225.6450 C   0  0  0  0  0  0  0  0  0  0  0  0
  140.0980   69.2970  225.3480 C   0  0  0  0  0  0  0  0  0  0  0  0
  139.7580   69.8430  224.1640 N   0  0  0  0  0  0  0  0  0  0  0  0
  139.9840   69.8090  221.5350 H   0  0  0  0  0  0  0  0  0  0  0  0
  139.5600   70.5876  219.3195 H   0  0  0  0  0  0  0  0  0  0  0  0
  138.2133   71.5215  220.1119 H   0  0  0  0  0  0  0  0  0  0  0  0
  141.6208   71.5036  218.0970 H   0  0  0  0  0  0  0  0  0  0  0  0
  142.9113   72.7205  218.4142 H   0  0  0  0  0  0  0  0  0  0  0  0
  142.4530   70.0542  219.8326 H   0  0  0  0  0  0  0  0  0  0  0  0
  143.8754   70.5560  218.8686 H   0  0  0  0  0  0  0  0  0  0  0  0
  143.2176   71.0752  221.6684 H   0  0  0  0  0  0  0  0  0  0  0  0
  144.7790   71.2595  220.7882 H   0  0  0  0  0  0  0  0  0  0  0  0
  144.0929   73.4719  221.6137 H   0  0  0  0  0  0  0  0  0  0  0  0
  143.9041   73.4538  219.8319 H   0  0  0  0  0  0  0  0  0  0  0  0
  141.7469   73.0439  221.9311 H   0  0  0  0  0  0  0  0  0  0  0  0
  142.5770   75.3669  221.3660 H   0  0  0  0  0  0  0  0  0  0  0  0
  141.7318   75.0650  219.7680 H   0  0  0  0  0  0  0  0  0  0  0  0
  139.7580   74.4580  221.3650 H   0  0  0  0  0  0  0  0  0  0  0  0
  138.0488   76.0285  221.8865 H   0  0  0  0  0  0  0  0  0  0  0  0
  137.3596   78.1464  222.8687 H   0  0  0  0  0  0  0  0  0  0  0  0
  141.4439   79.3146  223.2861 H   0  0  0  0  0  0  0  0  0  0  0  0
  142.1397   77.1884  222.3030 H   0  0  0  0  0  0  0  0  0  0  0  0
  140.9402   72.9412  224.5108 H   0  0  0  0  0  0  0  0  0  0  0  0
  141.5988   71.9932  226.7119 H   0  0  0  0  0  0  0  0  0  0  0  0
  141.6551   70.0961  228.2757 H   0  0  0  0  0  0  0  0  0  0  0  0
  139.8818   66.3580  227.0781 H   0  0  0  0  0  0  0  0  0  0  0  0
  139.2557   67.3576  224.8999 H   0  0  0  0  0  0  0  0  0  0  0  0
  1  2  2  0
  2  3  1  0
  3  4  1  0
  4  5  1  0
  5  6  2  0
  5  7  1  0
  7  8  1  0
  8  9  1  0
  9 10  1  0
 10 11  1  0
 11 12  1  0
 12 13  1  0
 13 14  1  0
 14 15  1  0
 15 16  2  0
 16 17  1  0
 17 18  2  0
 18 19  1  0
 18 20  1  0
 20 21  2  0
  2 22  1  0
 22 23  2  0
 23 24  1  0
 24 25  2  0
 25 26  1  0
 26 27  2  0
 27 28  1  0
 27 29  1  0
 29 30  2  0
 30 31  1  0
 31 32  2  0
 12  7  1  0
 21 15  1  0
 32 22  1  0
 31 25  1  0
  3 33  1  0
  4 34  1  0
  4 35  1  0
  8 36  1  0
  8 37  1  0
  9 38  1  0
  9 39  1  0
 10 40  1  0
 10 41  1  0
 11 42  1  0
 11 43  1  0
 12 44  1  1
 13 45  1  0
 13 46  1  0
 14 47  1  0
 16 48  1  0
 17 49  1  0
 20 50  1  0
 21 51  1  0
 23 52  1  0
 24 53  1  0
 26 54  1  0
 29 55  1  0
 30 56  1  0
M  END
>  <smiles>  (15) 
O=C(NCC(=O)N1CCCC[C@H]1CNc1ccc(Cl)cc1)c1ccc2cc(F)ccc2n1

>  <score_type>  (15) 
oracle

>  <origin>  (15) 
autodockgpu

>  <m_score__min__energy>  (15) 
-9.0600000000000005

>  <m_primary>  (15) 
energy

>  <rmsd>  (15) 
3.9911609612759533

>  <m_score__min__rmsd>  (15) 
3.9911609612759533

>  <meeko>  (15) 
{"free_energy": -7.16, "intermolecular_energy": -9.25, "internal_energy": -3.39, "cluster_size": 2, "cluster_id": 10, "rank_in_cluster": 2}

>  <energy>  (15) 
-7.55

>  <cluster_rmsd>  (15) 
1.75

>  <cluster>  (15) 
1

$$$$

     RDKit          3D

 56 59  0  0  0  0  0  0  0  0999 V2000
  139.9280   72.9170  222.4270 O   0  0  0  0  0  0  0  0  0  0  0  0
  139.4540   71.8030  222.7800 C   0  0  0  0  0  0  0  0  0  0  0  0
  138.5280   71.0670  221.9830 N   0  0  0  0  0  0  0  0  0  0  0  0
  138.1020   71.6120  220.7060 C   0  0  0  0  0  0  0  0  0  0  0  0
  136.8080   72.3110  220.7900 C   0  0  0  0  0  0  0  0  0  0  0  0
  135.9690   72.1440  219.8680 O   0  0  0  0  0  0  0  0  0  0  0  0
  136.5790   73.1440  221.9210 N   0  0  0  0  0  0  0  0  0  0  0  0
  136.4250   72.6180  223.2680 C   0  0  0  0  0  0  0  0  0  0  0  0
  135.0450   72.9590  223.8120 C   0  0  0  0  0  0  0  0  0  0  0  0
  134.7820   74.4080  223.5660 C   0  0  0  0  0  0  0  0  0  0  0  0
  136.0830   75.1210  223.1270 C   0  0  0  0  0  0  0  0  0  0  0  0
  136.4840   74.6100  221.7870 C   0  0  1  0  0  0  0  0  0  0  0  0
  137.7940   75.1610  221.3070 C   0  0  0  0  0  0  0  0  0  0  0  0
  138.7030   75.4990  222.3490 N   0  0  0  0  0  0  0  0  0  0  0  0
  139.3480   76.7270  222.5820 C   0  0  0  0  0  0  0  0  0  0  0  0
  140.7530   76.7940  222.6310 C   0  0  0  0  0  0  0  0  0  0  0  0
  141.4170   77.9620  222.8900 C   0  0  0  0  0  0  0  0  0  0  0  0
  140.7530   79.1410  223.1190 C   0  0  0  0  0  0  0  0  0  0  0  0
  141.6170   80.6090  223.4460 Cl  0  0  0  0  0  0  0  0  0  0  0  0
  139.3760   79.1060  223.0790 C   0  0  0  0  0  0  0  0  0  0  0  0
  138.7100   77.9260  222.8170 C   0  0  0  0  0  0  0  0  0  0  0  0
  139.8660   71.2320  224.0650 C   0  0  0  0  0  0  0  0  0  0  0  0
  140.6990   71.9310  224.9150 C   0  0  0  0  0  0  0  0  0  0  0  0
  141.0880   71.3810  226.1340 C   0  0  0  0  0  0  0  0  0  0  0  0
  140.6410   70.1190  226.5120 C   0  0  0  0  0  0  0  0  0  0  0  0
  141.0160   69.5490  227.7270 C   0  0  0  0  0  0  0  0  0  0  0  0
  140.5440   68.2830  228.0610 C   0  0  0  0  0  0  0  0  0  0  0  0
  140.8930   67.7010  229.2390 F   0  0  0  0  0  0  0  0  0  0  0  0
  139.7140   67.6020  227.2000 C   0  0  0  0  0  0  0  0  0  0  0  0
  139.3500   68.1810  225.9960 C   0  0  0  0  0  0  0  0  0  0  0  0
  139.8100   69.4490  225.6360 C   0  0  0  0  0  0  0  0  0  0  0  0
  139.4540   70.0100  224.4640 N   0  0  0  0  0  0  0  0  0  0  0  0
  138.1800   70.1430  222.3540 H   0  0  0  0  0  0  0  0  0  0  0  0
  138.8642   72.3233  220.3550 H   0  0  0  0  0  0  0  0  0  0  0  0
  137.9803   70.7697  220.0090 H   0  0  0  0  0  0  0  0  0  0  0  0
  136.5473   71.5250  223.2472 H   0  0  0  0  0  0  0  0  0  0  0  0
  137.1884   73.0695  223.9186 H   0  0  0  0  0  0  0  0  0  0  0  0
  134.2841   72.3519  223.2998 H   0  0  0  0  0  0  0  0  0  0  0  0
  135.0026   72.7467  224.8905 H   0  0  0  0  0  0  0  0  0  0  0  0
  134.0264   74.5105  222.7732 H   0  0  0  0  0  0  0  0  0  0  0  0
  134.4166   74.8690  224.4955 H   0  0  0  0  0  0  0  0  0  0  0  0
  135.9091   76.2058  223.0717 H   0  0  0  0  0  0  0  0  0  0  0  0
  136.8818   74.9216  223.8565 H   0  0  0  0  0  0  0  0  0  0  0  0
  135.7401   74.9253  221.0406 H   0  0  0  0  0  0  0  0  0  0  0  0
  138.2710   74.4060  220.6648 H   0  0  0  0  0  0  0  0  0  0  0  0
  137.5665   76.0946  220.7715 H   0  0  0  0  0  0  0  0  0  0  0  0
  138.9260   74.7200  223.0460 H   0  0  0  0  0  0  0  0  0  0  0  0
  141.3360   75.8779  222.4554 H   0  0  0  0  0  0  0  0  0  0  0  0
  142.5167   77.9558  222.9154 H   0  0  0  0  0  0  0  0  0  0  0  0
  138.8022   80.0273  223.2576 H   0  0  0  0  0  0  0  0  0  0  0  0
  137.6104   77.9433  222.7945 H   0  0  0  0  0  0  0  0  0  0  0  0
  141.0584   72.9301  224.6275 H   0  0  0  0  0  0  0  0  0  0  0  0
  141.7529   71.9481  226.8021 H   0  0  0  0  0  0  0  0  0  0  0  0
  141.6785   70.0942  228.4153 H   0  0  0  0  0  0  0  0  0  0  0  0
  139.3414   66.6021  227.4671 H   0  0  0  0  0  0  0  0  0  0  0  0
  138.6868   67.6322  225.3112 H   0  0  0  0  0  0  0  0  0  0  0  0
  1  2  2  0
  2  3  1  0
  3  4  1  0
  4  5  1  0
  5  6  2  0
  5  7  1  0
  7  8  1  0
  8  9  1  0
  9 10  1  0
 10 11  1  0
 11 12  1  0
 12 13  1  0
 13 14  1  0
 14 15  1  0
 15 16  2  0
 16 17  1  0
 17 18  2  0
 18 19  1  0
 18 20  1  0
 20 21  2  0
  2 22  1  0
 22 23  2  0
 23 24  1  0
 24 25  2  0
 25 26  1  0
 26 27  2  0
 27 28  1  0
 27 29  1  0
 29 30  2  0
 30 31  1  0
 31 32  2  0
 12  7  1  0
 21 15  1  0
 32 22  1  0
 31 25  1  0
  3 33  1  0
  4 34  1  0
  4 35  1  0
  8 36  1  0
  8 37  1  0
  9 38  1  0
  9 39  1  0
 10 40  1  0
 10 41  1  0
 11 42  1  0
 11 43  1  0
 12 44  1  6
 13 45  1  0
 13 46  1  0
 14 47  1  0
 16 48  1  0
 17 49  1  0
 20 50  1  0
 21 51  1  0
 23 52  1  0
 24 53  1  0
 26 54  1  0
 29 55  1  0
 30 56  1  0
M  END
>  <smiles>  (16) 
O=C(NCC(=O)N1CCCC[C@H]1CNc1ccc(Cl)cc1)c1ccc2cc(F)ccc2n1

>  <score_type>  (16) 
oracle

>  <origin>  (16) 
autodockgpu

>  <m_score__min__energy>  (16) 
-9.0600000000000005

>  <m_primary>  (16) 
energy

>  <rmsd>  (16) 
4.73550943313813

>  <m_score__min__rmsd>  (16) 
4.73550943313813

>  <meeko>  (16) 
{"free_energy": -7.93, "intermolecular_energy": -10.02, "internal_energy": -2.81, "cluster_size": 3, "cluster_id": 4, "rank_in_cluster": 1}

>  <energy>  (16) 
-7.45

>  <cluster_rmsd>  (16) 
1.48

>  <cluster>  (16) 
1

$$$$

     RDKit          3D

 56 59  0  0  0  0  0  0  0  0999 V2000
  140.8510   71.7530  221.0950 O   0  0  0  0  0  0  0  0  0  0  0  0
  140.3570   72.2680  222.1330 C   0  0  0  0  0  0  0  0  0  0  0  0
  139.9640   73.6380  222.2080 N   0  0  0  0  0  0  0  0  0  0  0  0
  140.1360   74.4880  221.0430 C   0  0  0  0  0  0  0  0  0  0  0  0
  140.5240   75.8660  221.3980 C   0  0  0  0  0  0  0  0  0  0  0  0
  139.9350   76.4320  222.3540 O   0  0  0  0  0  0  0  0  0  0  0  0
  141.5510   76.4810  220.6300 N   0  0  0  0  0  0  0  0  0  0  0  0
  141.8450   77.9040  220.7050 C   0  0  0  0  0  0  0  0  0  0  0  0
  141.6210   78.5600  219.3500 C   0  0  0  0  0  0  0  0  0  0  0  0
  142.2960   77.7360  218.3050 C   0  0  0  0  0  0  0  0  0  0  0  0
  143.2240   76.6870  218.9670 C   0  0  0  0  0  0  0  0  0  0  0  0
  142.3880   75.6990  219.7000 C   0  0  1  0  0  0  0  0  0  0  0  0
  143.1910   74.6920  220.4680 C   0  0  0  0  0  0  0  0  0  0  0  0
  144.2050   74.0490  219.7050 N   0  0  0  0  0  0  0  0  0  0  0  0
  144.4510   72.6710  219.5620 C   0  0  0  0  0  0  0  0  0  0  0  0
  143.4010   71.7440  219.6950 C   0  0  0  0  0  0  0  0  0  0  0  0
  143.6040   70.3950  219.5990 C   0  0  0  0  0  0  0  0  0  0  0  0
  144.8470   69.8620  219.3670 C   0  0  0  0  0  0  0  0  0  0  0  0
  145.0810   68.1470  219.2500 Cl  0  0  0  0  0  0  0  0  0  0  0  0
  145.8970   70.7450  219.2340 C   0  0  0  0  0  0  0  0  0  0  0  0
  145.6870   72.1050  219.3310 C   0  0  0  0  0  0  0  0  0  0  0  0
  140.1730   71.4320  223.3230 C   0  0  0  0  0  0  0  0  0  0  0  0
  139.5370   70.2110  223.2360 C   0  0  0  0  0  0  0  0  0  0  0  0
  139.3640   69.4210  224.3710 C   0  0  0  0  0  0  0  0  0  0  0  0
  139.8320   69.8530  225.6070 C   0  0  0  0  0  0  0  0  0  0  0  0
  139.6720   69.0810  226.7560 C   0  0  0  0  0  0  0  0  0  0  0  0
  140.1570   69.5560  227.9710 C   0  0  0  0  0  0  0  0  0  0  0  0
  140.0160   68.8260  229.1070 F   0  0  0  0  0  0  0  0  0  0  0  0
  140.7900   70.7770  228.0360 C   0  0  0  0  0  0  0  0  0  0  0  0
  140.9420   71.5340  226.8870 C   0  0  0  0  0  0  0  0  0  0  0  0
  140.4640   71.0810  225.6550 C   0  0  0  0  0  0  0  0  0  0  0  0
  140.6130   71.8190  224.5380 N   0  0  0  0  0  0  0  0  0  0  0  0
  139.5590   73.9890  223.1160 H   0  0  0  0  0  0  0  0  0  0  0  0
  140.9195   74.0551  220.4037 H   0  0  0  0  0  0  0  0  0  0  0  0
  139.1686   74.5383  220.5218 H   0  0  0  0  0  0  0  0  0  0  0  0
  141.1842   78.3727  221.4491 H   0  0  0  0  0  0  0  0  0  0  0  0
  142.8966   78.0379  220.9987 H   0  0  0  0  0  0  0  0  0  0  0  0
  140.5429   78.6157  219.1389 H   0  0  0  0  0  0  0  0  0  0  0  0
  142.0366   79.5785  219.3521 H   0  0  0  0  0  0  0  0  0  0  0  0
  141.5348   77.2188  217.7024 H   0  0  0  0  0  0  0  0  0  0  0  0
  142.8995   78.3947  217.6632 H   0  0  0  0  0  0  0  0  0  0  0  0
  143.8107   76.1717  218.1922 H   0  0  0  0  0  0  0  0  0  0  0  0
  143.9112   77.1857  219.6664 H   0  0  0  0  0  0  0  0  0  0  0  0
  141.7977   75.1171  218.9768 H   0  0  0  0  0  0  0  0  0  0  0  0
  143.6701   75.2060  221.3143 H   0  0  0  0  0  0  0  0  0  0  0  0
  142.4902   73.9065  220.7872 H   0  0  0  0  0  0  0  0  0  0  0  0
  144.8680   74.6940  219.1690 H   0  0  0  0  0  0  0  0  0  0  0  0
  142.3831   72.1166  219.8824 H   0  0  0  0  0  0  0  0  0  0  0  0
  142.7452   69.7169  219.7111 H   0  0  0  0  0  0  0  0  0  0  0  0
  146.9114   70.3619  219.0489 H   0  0  0  0  0  0  0  0  0  0  0  0
  146.5526   72.7743  219.2179 H   0  0  0  0  0  0  0  0  0  0  0  0
  139.1635   69.8582  222.2633 H   0  0  0  0  0  0  0  0  0  0  0  0
  138.8541   68.4498  224.2885 H   0  0  0  0  0  0  0  0  0  0  0  0
  139.1670   68.1052  226.7032 H   0  0  0  0  0  0  0  0  0  0  0  0
  141.1735   71.1496  228.9973 H   0  0  0  0  0  0  0  0  0  0  0  0
  141.4479   72.5090  226.9451 H   0  0  0  0  0  0  0  0  0  0  0  0
  1  2  2  0
  2  3  1  0
  3  4  1  0
  4  5  1  0
  5  6  2  0
  5  7  1  0
  7  8  1  0
  8  9  1  0
  9 10  1  0
 10 11  1  0
 11 12  1  0
 12 13  1  0
 13 14  1  0
 14 15  1  0
 15 16  2  0
 16 17  1  0
 17 18  2  0
 18 19  1  0
 18 20  1  0
 20 21  2  0
  2 22  1  0
 22 23  2  0
 23 24  1  0
 24 25  2  0
 25 26  1  0
 26 27  2  0
 27 28  1  0
 27 29  1  0
 29 30  2  0
 30 31  1  0
 31 32  2  0
 12  7  1  0
 21 15  1  0
 32 22  1  0
 31 25  1  0
  3 33  1  0
  4 34  1  0
  4 35  1  0
  8 36  1  0
  8 37  1  0
  9 38  1  0
  9 39  1  0
 10 40  1  0
 10 41  1  0
 11 42  1  0
 11 43  1  0
 12 44  1  6
 13 45  1  0
 13 46  1  0
 14 47  1  0
 16 48  1  0
 17 49  1  0
 20 50  1  0
 21 51  1  0
 23 52  1  0
 24 53  1  0
 26 54  1  0
 29 55  1  0
 30 56  1  0
M  END
>  <smiles>  (17) 
O=C(NCC(=O)N1CCCC[C@H]1CNc1ccc(Cl)cc1)c1ccc2cc(F)ccc2n1

>  <score_type>  (17) 
oracle

>  <origin>  (17) 
autodockgpu

>  <m_score__min__energy>  (17) 
-9.0600000000000005

>  <m_primary>  (17) 
energy

>  <rmsd>  (17) 
5.075910336311467

>  <m_score__min__rmsd>  (17) 
5.075910336311467

>  <meeko>  (17) 
{"free_energy": -8.59, "intermolecular_energy": -10.68, "internal_energy": -1.8, "cluster_size": 10, "cluster_id": 2, "rank_in_cluster": 2}

>  <energy>  (17) 
-7.23

>  <cluster_rmsd>  (17) 
1.42

>  <cluster>  (17) 
1

$$$$

     RDKit          3D

 56 59  0  0  0  0  0  0  0  0999 V2000
  139.3930   74.9700  222.0500 O   0  0  0  0  0  0  0  0  0  0  0  0
  140.5810   75.2830  221.7680 C   0  0  0  0  0  0  0  0  0  0  0  0
  141.0850   76.6110  221.9000 N   0  0  0  0  0  0  0  0  0  0  0  0
  140.2020   77.6600  222.3780 C   0  0  0  0  0  0  0  0  0  0  0  0
  140.9140   78.9200  222.6540 C   0  0  0  0  0  0  0  0  0  0  0  0
  142.1500   78.8790  222.8830 O   0  0  0  0  0  0  0  0  0  0  0  0
  140.1540   80.1230  222.6460 N   0  0  0  0  0  0  0  0  0  0  0  0
  139.5950   80.7100  223.8540 C   0  0  0  0  0  0  0  0  0  0  0  0
  138.0770   80.7600  223.7610 C   0  0  0  0  0  0  0  0  0  0  0  0
  137.7000   81.3350  222.4360 C   0  0  0  0  0  0  0  0  0  0  0  0
  138.9420   81.9480  221.7450 C   0  0  0  0  0  0  0  0  0  0  0  0
  139.8870   80.8540  221.3920 C   0  0  1  0  0  0  0  0  0  0  0  0
  141.1770   81.3460  220.8080 C   0  0  0  0  0  0  0  0  0  0  0  0
  142.1090   80.3160  220.4970 N   0  0  0  0  0  0  0  0  0  0  0  0
  142.1720   79.5130  219.3430 C   0  0  0  0  0  0  0  0  0  0  0  0
  142.1580   80.1020  218.0650 C   0  0  0  0  0  0  0  0  0  0  0  0
  142.1820   79.3560  216.9190 C   0  0  0  0  0  0  0  0  0  0  0  0
  142.2200   77.9840  216.9460 C   0  0  0  0  0  0  0  0  0  0  0  0
  142.2500   77.0590  215.4790 Cl  0  0  0  0  0  0  0  0  0  0  0  0
  142.2330   77.3780  218.1830 C   0  0  0  0  0  0  0  0  0  0  0  0
  142.2090   78.1350  219.3370 C   0  0  0  0  0  0  0  0  0  0  0  0
  141.4930   74.2440  221.2830 C   0  0  0  0  0  0  0  0  0  0  0  0
  141.0760   72.9330  221.1730 C   0  0  0  0  0  0  0  0  0  0  0  0
  141.9480   71.9490  220.7120 C   0  0  0  0  0  0  0  0  0  0  0  0
  143.2520   72.2760  220.3550 C   0  0  0  0  0  0  0  0  0  0  0  0
  144.1430   71.3100  219.8910 C   0  0  0  0  0  0  0  0  0  0  0  0
  145.4380   71.6850  219.5460 C   0  0  0  0  0  0  0  0  0  0  0  0
  146.3290   70.7660  219.0910 F   0  0  0  0  0  0  0  0  0  0  0  0
  145.8350   72.9980  219.6620 C   0  0  0  0  0  0  0  0  0  0  0  0
  144.9390   73.9480  220.1250 C   0  0  0  0  0  0  0  0  0  0  0  0
  143.6340   73.5980  220.4780 C   0  0  0  0  0  0  0  0  0  0  0  0
  142.7650   74.5230  220.9290 N   0  0  0  0  0  0  0  0  0  0  0  0
  142.0920   76.7870  221.6420 H   0  0  0  0  0  0  0  0  0  0  0  0
  139.4344   77.8497  221.6132 H   0  0  0  0  0  0  0  0  0  0  0  0
  139.7575   77.3153  223.3233 H   0  0  0  0  0  0  0  0  0  0  0  0
  139.8858   80.1004  224.7222 H   0  0  0  0  0  0  0  0  0  0  0  0
  139.9813   81.7337  223.9672 H   0  0  0  0  0  0  0  0  0  0  0  0
  137.6663   79.7438  223.8545 H   0  0  0  0  0  0  0  0  0  0  0  0
  137.6711   81.3841  224.5708 H   0  0  0  0  0  0  0  0  0  0  0  0
  137.2860   80.5392  221.7994 H   0  0  0  0  0  0  0  0  0  0  0  0
  136.9487   82.1239  222.5883 H   0  0  0  0  0  0  0  0  0  0  0  0
  138.6326   82.4775  220.8318 H   0  0  0  0  0  0  0  0  0  0  0  0
  139.4333   82.6596  222.4250 H   0  0  0  0  0  0  0  0  0  0  0  0
  139.4340   80.2209  220.6148 H   0  0  0  0  0  0  0  0  0  0  0  0
  140.9491   81.8954  219.8827 H   0  0  0  0  0  0  0  0  0  0  0  0
  141.6495   81.9778  221.5745 H   0  0  0  0  0  0  0  0  0  0  0  0
  142.8590   80.1250  221.2340 H   0  0  0  0  0  0  0  0  0  0  0  0
  142.1267   81.1986  217.9851 H   0  0  0  0  0  0  0  0  0  0  0  0
  142.1705   79.8706  215.9469 H   0  0  0  0  0  0  0  0  0  0  0  0
  142.2628   76.2806  218.2518 H   0  0  0  0  0  0  0  0  0  0  0  0
  142.2200   77.6105  220.3038 H   0  0  0  0  0  0  0  0  0  0  0  0
  140.0468   72.6628  221.4516 H   0  0  0  0  0  0  0  0  0  0  0  0
  141.6033   70.9076  220.6299 H   0  0  0  0  0  0  0  0  0  0  0  0
  143.8256   70.2609  219.7983 H   0  0  0  0  0  0  0  0  0  0  0  0
  146.8591   73.2917  219.3883 H   0  0  0  0  0  0  0  0  0  0  0  0
  145.2611   74.9958  220.2161 H   0  0  0  0  0  0  0  0  0  0  0  0
  1  2  2  0
  2  3  1  0
  3  4  1  0
  4  5  1  0
  5  6  2  0
  5  7  1  0
  7  8  1  0
  8  9  1  0
  9 10  1  0
 10 11  1  0
 11 12  1  0
 12 13  1  0
 13 14  1  0
 14 15  1  0
 15 16  2  0
 16 17  1  0
 17 18  2  0
 18 19  1  0
 18 20  1  0
 20 21  2  0
  2 22  1  0
 22 23  2  0
 23 24  1  0
 24 25  2  0
 25 26  1  0
 26 27  2  0
 27 28  1  0
 27 29  1  0
 29 30  2  0
 30 31  1  0
 31 32  2  0
 12  7  1  0
 21 15  1  0
 32 22  1  0
 31 25  1  0
  3 33  1  0
  4 34  1  0
  4 35  1  0
  8 36  1  0
  8 37  1  0
  9 38  1  0
  9 39  1  0
 10 40  1  0
 10 41  1  0
 11 42  1  0
 11 43  1  0
 12 44  1  6
 13 45  1  0
 13 46  1  0
 14 47  1  0
 16 48  1  0
 17 49  1  0
 20 50  1  0
 21 51  1  0
 23 52  1  0
 24 53  1  0
 26 54  1  0
 29 55  1  0
 30 56  1  0
M  END
>  <smiles>  (18) 
O=C(NCC(=O)N1CCCC[C@H]1CNc1ccc(Cl)cc1)c1ccc2cc(F)ccc2n1

>  <score_type>  (18) 
oracle

>  <origin>  (18) 
autodockgpu

>  <m_score__min__energy>  (18) 
-9.0600000000000005

>  <m_primary>  (18) 
energy

>  <rmsd>  (18) 
6.4588149973459945

>  <m_score__min__rmsd>  (18) 
6.4588149973459945

>  <meeko>  (18) 
{"free_energy": -6.96, "intermolecular_energy": -9.05, "internal_energy": -3.13, "cluster_size": 1, "cluster_id": 13, "rank_in_cluster": 1}

>  <energy>  (18) 
-8.96

>  <cluster_rmsd>  (18) 
0.0

>  <cluster>  (18) 
2

$$$$

     RDKit          3D

 56 59  0  0  0  0  0  0  0  0999 V2000
  139.9220   71.3350  220.9000 O   0  0  0  0  0  0  0  0  0  0  0  0
  139.7000   71.8990  222.0050 C   0  0  0  0  0  0  0  0  0  0  0  0
  139.3350   73.2740  222.1130 N   0  0  0  0  0  0  0  0  0  0  0  0
  139.2110   74.0720  220.9060 C   0  0  0  0  0  0  0  0  0  0  0  0
  140.3470   73.8880  219.9850 C   0  0  0  0  0  0  0  0  0  0  0  0
  140.2260   73.0780  219.0310 O   0  0  0  0  0  0  0  0  0  0  0  0
  141.5250   74.6460  220.2310 N   0  0  0  0  0  0  0  0  0  0  0  0
  141.5030   75.9450  220.8860 C   0  0  0  0  0  0  0  0  0  0  0  0
  142.0400   77.0170  219.9480 C   0  0  0  0  0  0  0  0  0  0  0  0
  143.3170   76.5300  219.3490 C   0  0  0  0  0  0  0  0  0  0  0  0
  143.8080   75.2630  220.0930 C   0  0  0  0  0  0  0  0  0  0  0  0
  142.8550   74.1500  219.8280 C   0  0  1  0  0  0  0  0  0  0  0  0
  143.1780   72.8970  220.5860 C   0  0  0  0  0  0  0  0  0  0  0  0
  142.7020   71.7040  219.9720 N   0  0  0  0  0  0  0  0  0  0  0  0
  143.4050   70.5120  219.7190 C   0  0  0  0  0  0  0  0  0  0  0  0
  144.7800   70.5460  219.4230 C   0  0  0  0  0  0  0  0  0  0  0  0
  145.4910   69.4130  219.1360 C   0  0  0  0  0  0  0  0  0  0  0  0
  144.9040   68.1720  219.1170 C   0  0  0  0  0  0  0  0  0  0  0  0
  145.8260   66.7490  218.7500 Cl  0  0  0  0  0  0  0  0  0  0  0  0
  143.5570   68.1070  219.4010 C   0  0  0  0  0  0  0  0  0  0  0  0
  142.8450   69.2520  219.6910 C   0  0  0  0  0  0  0  0  0  0  0  0
  139.8190   71.1170  223.2380 C   0  0  0  0  0  0  0  0  0  0  0  0
  139.4410   69.7910  223.2730 C   0  0  0  0  0  0  0  0  0  0  0  0
  139.5560   69.0530  224.4490 C   0  0  0  0  0  0  0  0  0  0  0  0
  140.0540   69.6450  225.6060 C   0  0  0  0  0  0  0  0  0  0  0  0
  140.1790   68.9280  226.7940 C   0  0  0  0  0  0  0  0  0  0  0  0
  140.6820   69.5630  227.9250 C   0  0  0  0  0  0  0  0  0  0  0  0
  140.8150   68.8900  229.0970 F   0  0  0  0  0  0  0  0  0  0  0  0
  141.0540   70.8870  227.8700 C   0  0  0  0  0  0  0  0  0  0  0  0
  140.9240   71.5880  226.6830 C   0  0  0  0  0  0  0  0  0  0  0  0
  140.4220   70.9740  225.5320 C   0  0  0  0  0  0  0  0  0  0  0  0
  140.2960   71.6580  224.3790 N   0  0  0  0  0  0  0  0  0  0  0  0
  139.1670   73.6680  223.0770 H   0  0  0  0  0  0  0  0  0  0  0  0
  138.2857   73.7829  220.3861 H   0  0  0  0  0  0  0  0  0  0  0  0
  139.1941   75.1300  221.2067 H   0  0  0  0  0  0  0  0  0  0  0  0
  140.4686   76.1928  221.1665 H   0  0  0  0  0  0  0  0  0  0  0  0
  142.1367   75.9044  221.7842 H   0  0  0  0  0  0  0  0  0  0  0  0
  141.3077   77.2124  219.1508 H   0  0  0  0  0  0  0  0  0  0  0  0
  142.2178   77.9487  220.5051 H   0  0  0  0  0  0  0  0  0  0  0  0
  143.1519   76.2877  218.2888 H   0  0  0  0  0  0  0  0  0  0  0  0
  144.0794   77.3177  219.4399 H   0  0  0  0  0  0  0  0  0  0  0  0
  144.8091   74.9864  219.7307 H   0  0  0  0  0  0  0  0  0  0  0  0
  143.8593   75.4611  221.1738 H   0  0  0  0  0  0  0  0  0  0  0  0
  142.9061   73.8742  218.7644 H   0  0  0  0  0  0  0  0  0  0  0  0
  144.2714   72.8235  220.6809 H   0  0  0  0  0  0  0  0  0  0  0  0
  142.6700   72.9762  221.5584 H   0  0  0  0  0  0  0  0  0  0  0  0
  141.6790   71.7130  219.6630 H   0  0  0  0  0  0  0  0  0  0  0  0
  145.3003   71.5152  219.4223 H   0  0  0  0  0  0  0  0  0  0  0  0
  146.5649   69.4988  218.9138 H   0  0  0  0  0  0  0  0  0  0  0  0
  143.0452   67.1333  219.3963 H   0  0  0  0  0  0  0  0  0  0  0  0
  141.7718   69.1549  219.9120 H   0  0  0  0  0  0  0  0  0  0  0  0
  139.0455   69.3123  222.3650 H   0  0  0  0  0  0  0  0  0  0  0  0
  139.2514   67.9961  224.4632 H   0  0  0  0  0  0  0  0  0  0  0  0
  139.8827   67.8695  226.8373 H   0  0  0  0  0  0  0  0  0  0  0  0
  141.4529   71.3862  228.7653 H   0  0  0  0  0  0  0  0  0  0  0  0
  141.2209   72.6465  226.6452 H   0  0  0  0  0  0  0  0  0  0  0  0
  1  2  2  0
  2  3  1  0
  3  4  1  0
  4  5  1  0
  5  6  2  0
  5  7  1  0
  7  8  1  0
  8  9  1  0
  9 10  1  0
 10 11  1  0
 11 12  1  0
 12 13  1  0
 13 14  1  0
 14 15  1  0
 15 16  2  0
 16 17  1  0
 17 18  2  0
 18 19  1  0
 18 20  1  0
 20 21  2  0
  2 22  1  0
 22 23  2  0
 23 24  1  0
 24 25  2  0
 25 26  1  0
 26 27  2  0
 27 28  1  0
 27 29  1  0
 29 30  2  0
 30 31  1  0
 31 32  2  0
 12  7  1  0
 21 15  1  0
 32 22  1  0
 31 25  1  0
  3 33  1  0
  4 34  1  0
  4 35  1  0
  8 36  1  0
  8 37  1  0
  9 38  1  0
  9 39  1  0
 10 40  1  0
 10 41  1  0
 11 42  1  0
 11 43  1  0
 12 44  1  6
 13 45  1  0
 13 46  1  0
 14 47  1  0
 16 48  1  0
 17 49  1  0
 20 50  1  0
 21 51  1  0
 23 52  1  0
 24 53  1  0
 26 54  1  0
 29 55  1  0
 30 56  1  0
M  END
>  <smiles>  (19) 
O=C(NCC(=O)N1CCCC[C@H]1CNc1ccc(Cl)cc1)c1ccc2cc(F)ccc2n1

>  <score_type>  (19) 
oracle

>  <origin>  (19) 
autodockgpu

>  <m_score__min__energy>  (19) 
-9.0600000000000005

>  <m_primary>  (19) 
energy

>  <rmsd>  (19) 
5.751586702384328

>  <m_score__min__rmsd>  (19) 
5.751586702384328

>  <meeko>  (19) 
{"free_energy": -7.62, "intermolecular_energy": -9.71, "internal_energy": -3.11, "cluster_size": 4, "cluster_id": 6, "rank_in_cluster": 2}

>  <energy>  (19) 
-8.59

>  <cluster_rmsd>  (19) 
1.38

>  <cluster>  (19) 
2

$$$$

     RDKit          3D

 56 59  0  0  0  0  0  0  0  0999 V2000
  138.9270   71.4590  221.4970 O   0  0  0  0  0  0  0  0  0  0  0  0
  138.4810   71.7050  222.6500 C   0  0  0  0  0  0  0  0  0  0  0  0
  137.3030   72.4770  222.8760 N   0  0  0  0  0  0  0  0  0  0  0  0
  136.5760   73.0110  221.7380 C   0  0  0  0  0  0  0  0  0  0  0  0
  137.3590   74.0010  220.9770 C   0  0  0  0  0  0  0  0  0  0  0  0
  137.8950   73.6460  219.8960 O   0  0  0  0  0  0  0  0  0  0  0  0
  137.4650   75.3140  221.5140 N   0  0  0  0  0  0  0  0  0  0  0  0
  136.3680   75.9720  222.2080 C   0  0  0  0  0  0  0  0  0  0  0  0
  135.9560   77.2340  221.4630 C   0  0  0  0  0  0  0  0  0  0  0  0
  137.1840   78.0190  221.1430 C   0  0  0  0  0  0  0  0  0  0  0  0
  138.3990   77.4520  221.9180 C   0  0  0  0  0  0  0  0  0  0  0  0
  138.7120   76.0930  221.3970 C   0  0  1  0  0  0  0  0  0  0  0  0
  139.8110   75.4050  222.1480 C   0  0  0  0  0  0  0  0  0  0  0  0
  140.2920   74.2200  221.5250 N   0  0  0  0  0  0  0  0  0  0  0  0
  141.6190   73.8750  221.2070 C   0  0  0  0  0  0  0  0  0  0  0  0
  142.5340   74.8660  220.8060 C   0  0  0  0  0  0  0  0  0  0  0  0
  143.8220   74.5680  220.4550 C   0  0  0  0  0  0  0  0  0  0  0  0
  144.3000   73.2820  220.4700 C   0  0  0  0  0  0  0  0  0  0  0  0
  145.9380   72.9280  220.0190 Cl  0  0  0  0  0  0  0  0  0  0  0  0
  143.4260   72.2890  220.8560 C   0  0  0  0  0  0  0  0  0  0  0  0
  142.1290   72.5950  221.2110 C   0  0  0  0  0  0  0  0  0  0  0  0
  139.1960   71.1790  223.8150 C   0  0  0  0  0  0  0  0  0  0  0  0
  140.2710   71.8580  224.3500 C   0  0  0  0  0  0  0  0  0  0  0  0
  140.9480   71.3530  225.4580 C   0  0  0  0  0  0  0  0  0  0  0  0
  140.5480   70.1550  226.0410 C   0  0  0  0  0  0  0  0  0  0  0  0
  141.2080   69.6290  227.1490 C   0  0  0  0  0  0  0  0  0  0  0  0
  140.7710   68.4270  227.6970 C   0  0  0  0  0  0  0  0  0  0  0  0
  141.3950   67.8900  228.7780 F   0  0  0  0  0  0  0  0  0  0  0  0
  139.6960   67.7640  227.1500 C   0  0  0  0  0  0  0  0  0  0  0  0
  139.0490   68.2980  226.0480 C   0  0  0  0  0  0  0  0  0  0  0  0
  139.4680   69.5030  225.4780 C   0  0  0  0  0  0  0  0  0  0  0  0
  138.8370   70.0200  224.4060 N   0  0  0  0  0  0  0  0  0  0  0  0
  136.9990   72.6360  223.8730 H   0  0  0  0  0  0  0  0  0  0  0  0
  136.3124   72.1799  221.0673 H   0  0  0  0  0  0  0  0  0  0  0  0
  135.6813   73.5209  222.1247 H   0  0  0  0  0  0  0  0  0  0  0  0
  135.5097   75.2862  222.2634 H   0  0  0  0  0  0  0  0  0  0  0  0
  136.6968   76.2449  223.2216 H   0  0  0  0  0  0  0  0  0  0  0  0
  135.4367   76.9622  220.5322 H   0  0  0  0  0  0  0  0  0  0  0  0
  135.2775   77.8345  222.0867 H   0  0  0  0  0  0  0  0  0  0  0  0
  137.3822   77.9591  220.0627 H   0  0  0  0  0  0  0  0  0  0  0  0
  137.0271   79.0668  221.4388 H   0  0  0  0  0  0  0  0  0  0  0  0
  139.2680   78.1112  221.7756 H   0  0  0  0  0  0  0  0  0  0  0  0
  138.1628   77.3945  222.9908 H   0  0  0  0  0  0  0  0  0  0  0  0
  139.0709   76.1759  220.3605 H   0  0  0  0  0  0  0  0  0  0  0  0
  140.6518   76.1072  222.2486 H   0  0  0  0  0  0  0  0  0  0  0  0
  139.3889   75.1025  223.1177 H   0  0  0  0  0  0  0  0  0  0  0  0
  139.5520   73.4950  221.2640 H   0  0  0  0  0  0  0  0  0  0  0  0
  142.2027   75.9144  220.7738 H   0  0  0  0  0  0  0  0  0  0  0  0
  144.4947   75.3838  220.1516 H   0  0  0  0  0  0  0  0  0  0  0  0
  143.7658   71.2431  220.8812 H   0  0  0  0  0  0  0  0  0  0  0  0
  141.4651   71.7719  221.5140 H   0  0  0  0  0  0  0  0  0  0  0  0
  140.5965   72.8065  223.8979 H   0  0  0  0  0  0  0  0  0  0  0  0
  141.8038   71.9048  225.8742 H   0  0  0  0  0  0  0  0  0  0  0  0
  142.0668   70.1589  227.5868 H   0  0  0  0  0  0  0  0  0  0  0  0
  139.3523   66.8144  227.5860 H   0  0  0  0  0  0  0  0  0  0  0  0
  138.1906   67.7644  225.6140 H   0  0  0  0  0  0  0  0  0  0  0  0
  1  2  2  0
  2  3  1  0
  3  4  1  0
  4  5  1  0
  5  6  2  0
  5  7  1  0
  7  8  1  0
  8  9  1  0
  9 10  1  0
 10 11  1  0
 11 12  1  0
 12 13  1  0
 13 14  1  0
 14 15  1  0
 15 16  2  0
 16 17  1  0
 17 18  2  0
 18 19  1  0
 18 20  1  0
 20 21  2  0
  2 22  1  0
 22 23  2  0
 23 24  1  0
 24 25  2  0
 25 26  1  0
 26 27  2  0
 27 28  1  0
 27 29  1  0
 29 30  2  0
 30 31  1  0
 31 32  2  0
 12  7  1  0
 21 15  1  0
 32 22  1  0
 31 25  1  0
  3 33  1  0
  4 34  1  0
  4 35  1  0
  8 36  1  0
  8 37  1  0
  9 38  1  0
  9 39  1  0
 10 40  1  0
 10 41  1  0
 11 42  1  0
 11 43  1  0
 12 44  1  6
 13 45  1  0
 13 46  1  0
 14 47  1  0
 16 48  1  0
 17 49  1  0
 20 50  1  0
 21 51  1  0
 23 52  1  0
 24 53  1  0
 26 54  1  0
 29 55  1  0
 30 56  1  0
M  END
>  <smiles>  (20) 
O=C(NCC(=O)N1CCCC[C@H]1CNc1ccc(Cl)cc1)c1ccc2cc(F)ccc2n1

>  <score_type>  (20) 
oracle

>  <origin>  (20) 
autodockgpu

>  <m_score__min__energy>  (20) 
-9.0600000000000005

>  <m_primary>  (20) 
energy

>  <rmsd>  (20) 
4.75528606799408

>  <m_score__min__rmsd>  (20) 
4.75528606799408

>  <meeko>  (20) 
{"free_energy": -6.99, "intermolecular_energy": -9.08, "internal_energy": -3.3, "cluster_size": 2, "cluster_id": 11, "rank_in_cluster": 2}

>  <energy>  (20) 
-8.19

>  <cluster_rmsd>  (20) 
1.09

>  <cluster>  (20) 
2

$$$$

     RDKit          3D

 56 59  0  0  0  0  0  0  0  0999 V2000
  141.4310   73.2260  221.3960 O   0  0  0  0  0  0  0  0  0  0  0  0
  140.4070   73.3090  222.1270 C   0  0  0  0  0  0  0  0  0  0  0  0
  139.4970   74.4060  222.0650 N   0  0  0  0  0  0  0  0  0  0  0  0
  139.7480   75.4820  221.1230 C   0  0  0  0  0  0  0  0  0  0  0  0
  140.8980   76.3200  221.5110 C   0  0  0  0  0  0  0  0  0  0  0  0
  141.4390   76.1230  222.6280 O   0  0  0  0  0  0  0  0  0  0  0  0
  141.3320   77.3130  220.5890 N   0  0  0  0  0  0  0  0  0  0  0  0
  141.0800   78.7320  220.7840 C   0  0  0  0  0  0  0  0  0  0  0  0
  140.2240   79.2760  219.6490 C   0  0  0  0  0  0  0  0  0  0  0  0
  140.8030   78.8150  218.3530 C   0  0  0  0  0  0  0  0  0  0  0  0
  142.2100   78.2100  218.5800 C   0  0  0  0  0  0  0  0  0  0  0  0
  142.0720   76.9520  219.3650 C   0  0  1  0  0  0  0  0  0  0  0  0
  143.3870   76.3330  219.7330 C   0  0  0  0  0  0  0  0  0  0  0  0
  143.2770   75.0750  220.3900 N   0  0  0  0  0  0  0  0  0  0  0  0
  143.8940   73.8560  220.0540 C   0  0  0  0  0  0  0  0  0  0  0  0
  145.1990   73.5740  220.4960 C   0  0  0  0  0  0  0  0  0  0  0  0
  145.8470   72.4160  220.1620 C   0  0  0  0  0  0  0  0  0  0  0  0
  145.2610   71.4580  219.3720 C   0  0  0  0  0  0  0  0  0  0  0  0
  146.1020   69.9980  218.9600 Cl  0  0  0  0  0  0  0  0  0  0  0  0
  143.9830   71.7080  218.9210 C   0  0  0  0  0  0  0  0  0  0  0  0
  143.3340   72.8770  219.2620 C   0  0  0  0  0  0  0  0  0  0  0  0
  140.1310   72.2360  223.0860 C   0  0  0  0  0  0  0  0  0  0  0  0
  139.2670   71.2090  222.7680 C   0  0  0  0  0  0  0  0  0  0  0  0
  139.0070   70.1930  223.6850 C   0  0  0  0  0  0  0  0  0  0  0  0
  139.6180   70.2000  224.9350 C   0  0  0  0  0  0  0  0  0  0  0  0
  139.3740   69.1950  225.8690 C   0  0  0  0  0  0  0  0  0  0  0  0
  140.0080   69.2460  227.1070 C   0  0  0  0  0  0  0  0  0  0  0  0
  139.7910   68.2800  228.0380 F   0  0  0  0  0  0  0  0  0  0  0  0
  140.8670   70.2790  227.4060 C   0  0  0  0  0  0  0  0  0  0  0  0
  141.0990   71.2720  226.4680 C   0  0  0  0  0  0  0  0  0  0  0  0
  140.4760   71.2450  225.2180 C   0  0  0  0  0  0  0  0  0  0  0  0
  140.7030   72.2110  224.3080 N   0  0  0  0  0  0  0  0  0  0  0  0
  138.6650   74.3970  222.7130 H   0  0  0  0  0  0  0  0  0  0  0  0
  139.9489   75.0444  220.1340 H   0  0  0  0  0  0  0  0  0  0  0  0
  138.8566   76.1263  221.1086 H   0  0  0  0  0  0  0  0  0  0  0  0
  140.5537   78.8795  221.7386 H   0  0  0  0  0  0  0  0  0  0  0  0
  142.0405   79.2681  220.7972 H   0  0  0  0  0  0  0  0  0  0  0  0
  139.1945   78.9017  219.7490 H   0  0  0  0  0  0  0  0  0  0  0  0
  140.2083   80.3753  219.6837 H   0  0  0  0  0  0  0  0  0  0  0  0
  140.1456   78.0506  217.9130 H   0  0  0  0  0  0  0  0  0  0  0  0
  140.8880   79.6748  217.6722 H   0  0  0  0  0  0  0  0  0  0  0  0
  142.6787   77.9903  217.6094 H   0  0  0  0  0  0  0  0  0  0  0  0
  142.8397   78.9254  219.1293 H   0  0  0  0  0  0  0  0  0  0  0  0
  141.5511   76.1992  218.7552 H   0  0  0  0  0  0  0  0  0  0  0  0
  143.9711   76.1910  218.8118 H   0  0  0  0  0  0  0  0  0  0  0  0
  143.8711   77.0191  220.4436 H   0  0  0  0  0  0  0  0  0  0  0  0
  142.6450   75.0510  221.2520 H   0  0  0  0  0  0  0  0  0  0  0  0
  145.7158   74.3085  221.1311 H   0  0  0  0  0  0  0  0  0  0  0  0
  146.8672   72.2477  220.5374 H   0  0  0  0  0  0  0  0  0  0  0  0
  143.4757   70.9690  218.2834 H   0  0  0  0  0  0  0  0  0  0  0  0
  142.3144   73.0361  218.8810 H   0  0  0  0  0  0  0  0  0  0  0  0
  138.7792   71.1920  221.7822 H   0  0  0  0  0  0  0  0  0  0  0  0
  138.3147   69.3806  223.4193 H   0  0  0  0  0  0  0  0  0  0  0  0
  138.6872   68.3696  225.6302 H   0  0  0  0  0  0  0  0  0  0  0  0
  141.3670   70.3160  228.3851 H   0  0  0  0  0  0  0  0  0  0  0  0
  141.7857   72.0960  226.7119 H   0  0  0  0  0  0  0  0  0  0  0  0
  1  2  2  0
  2  3  1  0
  3  4  1  0
  4  5  1  0
  5  6  2  0
  5  7  1  0
  7  8  1  0
  8  9  1  0
  9 10  1  0
 10 11  1  0
 11 12  1  0
 12 13  1  0
 13 14  1  0
 14 15  1  0
 15 16  2  0
 16 17  1  0
 17 18  2  0
 18 19  1  0
 18 20  1  0
 20 21  2  0
  2 22  1  0
 22 23  2  0
 23 24  1  0
 24 25  2  0
 25 26  1  0
 26 27  2  0
 27 28  1  0
 27 29  1  0
 29 30  2  0
 30 31  1  0
 31 32  2  0
 12  7  1  0
 21 15  1  0
 32 22  1  0
 31 25  1  0
  3 33  1  0
  4 34  1  0
  4 35  1  0
  8 36  1  0
  8 37  1  0
  9 38  1  0
  9 39  1  0
 10 40  1  0
 10 41  1  0
 11 42  1  0
 11 43  1  0
 12 44  1  6
 13 45  1  0
 13 46  1  0
 14 47  1  0
 16 48  1  0
 17 49  1  0
 20 50  1  0
 21 51  1  0
 23 52  1  0
 24 53  1  0
 26 54  1  0
 29 55  1  0
 30 56  1  0
M  END
>  <smiles>  (21) 
O=C(NCC(=O)N1CCCC[C@H]1CNc1ccc(Cl)cc1)c1ccc2cc(F)ccc2n1

>  <score_type>  (21) 
oracle

>  <origin>  (21) 
autodockgpu

>  <m_score__min__energy>  (21) 
-9.0600000000000005

>  <m_primary>  (21) 
energy

>  <rmsd>  (21) 
4.679328522624307

>  <m_score__min__rmsd>  (21) 
4.679328522624307

>  <meeko>  (21) 
{"free_energy": -7.82, "intermolecular_energy": -9.91, "internal_energy": -2.83, "cluster_size": 10, "cluster_id": 2, "rank_in_cluster": 8}

>  <energy>  (21) 
-8.14

>  <cluster_rmsd>  (21) 
1.36

>  <cluster>  (21) 
2

$$$$

     RDKit          3D

 56 59  0  0  0  0  0  0  0  0999 V2000
  140.1680   73.6810  222.3460 O   0  0  0  0  0  0  0  0  0  0  0  0
  140.0510   72.4400  222.1590 C   0  0  0  0  0  0  0  0  0  0  0  0
  139.9710   71.8550  220.8600 N   0  0  0  0  0  0  0  0  0  0  0  0
  140.0250   72.7150  219.6920 C   0  0  0  0  0  0  0  0  0  0  0  0
  141.2460   73.5400  219.6500 C   0  0  0  0  0  0  0  0  0  0  0  0
  142.2490   73.1690  220.3100 O   0  0  0  0  0  0  0  0  0  0  0  0
  141.2180   74.7210  218.8560 N   0  0  0  0  0  0  0  0  0  0  0  0
  140.0340   75.1520  218.1280 C   0  0  0  0  0  0  0  0  0  0  0  0
  140.3180   75.1820  216.6330 C   0  0  0  0  0  0  0  0  0  0  0  0
  141.6080   75.9000  216.4080 C   0  0  0  0  0  0  0  0  0  0  0  0
  142.0570   76.6140  217.7060 C   0  0  0  0  0  0  0  0  0  0  0  0
  142.4050   75.5860  218.7250 C   0  0  1  0  0  0  0  0  0  0  0  0
  142.7570   76.1680  220.0620 C   0  0  0  0  0  0  0  0  0  0  0  0
  141.7670   75.9680  221.0650 N   0  0  0  0  0  0  0  0  0  0  0  0
  140.9520   76.9270  221.6930 C   0  0  0  0  0  0  0  0  0  0  0  0
  141.4730   78.1890  222.0350 C   0  0  0  0  0  0  0  0  0  0  0  0
  140.7230   79.1350  222.6780 C   0  0  0  0  0  0  0  0  0  0  0  0
  139.4150   78.9110  223.0300 C   0  0  0  0  0  0  0  0  0  0  0  0
  138.4840   80.1270  223.8450 Cl  0  0  0  0  0  0  0  0  0  0  0  0
  138.8780   77.6840  222.7090 C   0  0  0  0  0  0  0  0  0  0  0  0
  139.6380   76.7320  222.0600 C   0  0  0  0  0  0  0  0  0  0  0  0
  139.9940   71.5500  223.3220 C   0  0  0  0  0  0  0  0  0  0  0  0
  139.3820   70.3150  223.2370 C   0  0  0  0  0  0  0  0  0  0  0  0
  139.3300   69.4740  224.3460 C   0  0  0  0  0  0  0  0  0  0  0  0
  139.8950   69.8670  225.5550 C   0  0  0  0  0  0  0  0  0  0  0  0
  139.8560   69.0420  226.6770 C   0  0  0  0  0  0  0  0  0  0  0  0
  140.4350   69.4790  227.8650 C   0  0  0  0  0  0  0  0  0  0  0  0
  140.4120   68.6980  228.9760 F   0  0  0  0  0  0  0  0  0  0  0  0
  141.0410   70.7130  227.9300 C   0  0  0  0  0  0  0  0  0  0  0  0
  141.0720   71.5220  226.8060 C   0  0  0  0  0  0  0  0  0  0  0  0
  140.4980   71.1090  225.6020 C   0  0  0  0  0  0  0  0  0  0  0  0
  140.5300   71.8970  224.5100 N   0  0  0  0  0  0  0  0  0  0  0  0
  139.8740   70.8070  220.7940 H   0  0  0  0  0  0  0  0  0  0  0  0
  139.9938   72.0861  218.7900 H   0  0  0  0  0  0  0  0  0  0  0  0
  139.1638   73.3976  219.7414 H   0  0  0  0  0  0  0  0  0  0  0  0
  139.2098   74.4513  218.3273 H   0  0  0  0  0  0  0  0  0  0  0  0
  139.7562   76.1630  218.4609 H   0  0  0  0  0  0  0  0  0  0  0  0
  140.3942   74.1539  216.2495 H   0  0  0  0  0  0  0  0  0  0  0  0
  139.5028   75.6992  216.1057 H   0  0  0  0  0  0  0  0  0  0  0  0
  142.3790   75.1757  216.1066 H   0  0  0  0  0  0  0  0  0  0  0  0
  141.4672   76.6506  215.6163 H   0  0  0  0  0  0  0  0  0  0  0  0
  142.9369   77.2403  217.4976 H   0  0  0  0  0  0  0  0  0  0  0  0
  141.2431   77.2514  218.0819 H   0  0  0  0  0  0  0  0  0  0  0  0
  143.3003   75.0383  218.3958 H   0  0  0  0  0  0  0  0  0  0  0  0
  143.6936   75.7037  220.4044 H   0  0  0  0  0  0  0  0  0  0  0  0
  142.8471   77.2550  219.9194 H   0  0  0  0  0  0  0  0  0  0  0  0
  141.6230   74.9580  221.3850 H   0  0  0  0  0  0  0  0  0  0  0  0
  142.5166   78.4219  221.7770 H   0  0  0  0  0  0  0  0  0  0  0  0
  141.1818   80.1049  222.9205 H   0  0  0  0  0  0  0  0  0  0  0  0
  137.8336   77.4606  222.9723 H   0  0  0  0  0  0  0  0  0  0  0  0
  139.1696   75.7654  221.8229 H   0  0  0  0  0  0  0  0  0  0  0  0
  138.9322   69.9930  222.2862 H   0  0  0  0  0  0  0  0  0  0  0  0
  138.8391   68.4929  224.2654 H   0  0  0  0  0  0  0  0  0  0  0  0
  139.3726   68.0553  226.6246 H   0  0  0  0  0  0  0  0  0  0  0  0
  141.4985   71.0552  228.8700 H   0  0  0  0  0  0  0  0  0  0  0  0
  141.5575   72.5074  226.8630 H   0  0  0  0  0  0  0  0  0  0  0  0
  1  2  2  0
  2  3  1  0
  3  4  1  0
  4  5  1  0
  5  6  2  0
  5  7  1  0
  7  8  1  0
  8  9  1  0
  9 10  1  0
 10 11  1  0
 11 12  1  0
 12 13  1  0
 13 14  1  0
 14 15  1  0
 15 16  2  0
 16 17  1  0
 17 18  2  0
 18 19  1  0
 18 20  1  0
 20 21  2  0
  2 22  1  0
 22 23  2  0
 23 24  1  0
 24 25  2  0
 25 26  1  0
 26 27  2  0
 27 28  1  0
 27 29  1  0
 29 30  2  0
 30 31  1  0
 31 32  2  0
 12  7  1  0
 21 15  1  0
 32 22  1  0
 31 25  1  0
  3 33  1  0
  4 34  1  0
  4 35  1  0
  8 36  1  0
  8 37  1  0
  9 38  1  0
  9 39  1  0
 10 40  1  0
 10 41  1  0
 11 42  1  0
 11 43  1  0
 12 44  1  6
 13 45  1  0
 13 46  1  0
 14 47  1  0
 16 48  1  0
 17 49  1  0
 20 50  1  0
 21 51  1  0
 23 52  1  0
 24 53  1  0
 26 54  1  0
 29 55  1  0
 30 56  1  0
M  END
>  <smiles>  (22) 
O=C(NCC(=O)N1CCCC[C@H]1CNc1ccc(Cl)cc1)c1ccc2cc(F)ccc2n1

>  <score_type>  (22) 
oracle

>  <origin>  (22) 
autodockgpu

>  <m_score__min__energy>  (22) 
-9.0600000000000005

>  <m_primary>  (22) 
energy

>  <rmsd>  (22) 
2.4028348779202022

>  <m_score__min__rmsd>  (22) 
2.4028348779202022

>  <meeko>  (22) 
{"free_energy": -7.17, "intermolecular_energy": -9.26, "internal_energy": -3.0, "cluster_size": 2, "cluster_id": 10, "rank_in_cluster": 1}

>  <energy>  (22) 
-8.04

>  <cluster_rmsd>  (22) 
1.67

>  <cluster>  (22) 
2

$$$$

     RDKit          3D

 56 59  0  0  0  0  0  0  0  0999 V2000
  138.4860   70.7350  221.3110 O   0  0  0  0  0  0  0  0  0  0  0  0
  138.9420   71.3040  222.3400 C   0  0  0  0  0  0  0  0  0  0  0  0
  139.1840   72.7080  222.4060 N   0  0  0  0  0  0  0  0  0  0  0  0
  138.8990   73.5320  221.2450 C   0  0  0  0  0  0  0  0  0  0  0  0
  139.4850   74.8810  221.3480 C   0  0  0  0  0  0  0  0  0  0  0  0
  139.9470   75.2560  222.4560 O   0  0  0  0  0  0  0  0  0  0  0  0
  139.4930   75.6880  220.1770 N   0  0  0  0  0  0  0  0  0  0  0  0
  138.4830   76.7020  219.9120 C   0  0  0  0  0  0  0  0  0  0  0  0
  137.7200   76.3660  218.6390 C   0  0  0  0  0  0  0  0  0  0  0  0
  138.7060   76.0290  217.5690 C   0  0  0  0  0  0  0  0  0  0  0  0
  140.1360   76.4170  218.0170 C   0  0  0  0  0  0  0  0  0  0  0  0
  140.5410   75.5400  219.1490 C   0  0  1  0  0  0  0  0  0  0  0  0
  141.8750   75.8980  219.7330 C   0  0  0  0  0  0  0  0  0  0  0  0
  141.8030   76.6200  220.9570 N   0  0  0  0  0  0  0  0  0  0  0  0
  141.6500   78.0050  221.1480 C   0  0  0  0  0  0  0  0  0  0  0  0
  141.7160   78.8850  220.0520 C   0  0  0  0  0  0  0  0  0  0  0  0
  141.6070   80.2410  220.1990 C   0  0  0  0  0  0  0  0  0  0  0  0
  141.4280   80.8260  221.4280 C   0  0  0  0  0  0  0  0  0  0  0  0
  141.2930   82.5480  221.5910 Cl  0  0  0  0  0  0  0  0  0  0  0  0
  141.3600   79.9890  222.5210 C   0  0  0  0  0  0  0  0  0  0  0  0
  141.4700   78.6230  222.3670 C   0  0  0  0  0  0  0  0  0  0  0  0
  139.2390   70.4950  223.5250 C   0  0  0  0  0  0  0  0  0  0  0  0
  138.9150   69.1540  223.5650 C   0  0  0  0  0  0  0  0  0  0  0  0
  139.1990   68.3910  224.6950 C   0  0  0  0  0  0  0  0  0  0  0  0
  139.8150   68.9710  225.8000 C   0  0  0  0  0  0  0  0  0  0  0  0
  140.1090   68.2280  226.9410 C   0  0  0  0  0  0  0  0  0  0  0  0
  140.7250   68.8530  228.0220 C   0  0  0  0  0  0  0  0  0  0  0  0
  141.0250   68.1550  229.1480 F   0  0  0  0  0  0  0  0  0  0  0  0
  141.0410   70.1910  227.9620 C   0  0  0  0  0  0  0  0  0  0  0  0
  140.7420   70.9170  226.8220 C   0  0  0  0  0  0  0  0  0  0  0  0
  140.1240   70.3150  225.7230 C   0  0  0  0  0  0  0  0  0  0  0  0
  139.8340   71.0230  224.6150 N   0  0  0  0  0  0  0  0  0  0  0  0
  139.5670   73.1030  223.3060 H   0  0  0  0  0  0  0  0  0  0  0  0
  139.3096   73.0370  220.3526 H   0  0  0  0  0  0  0  0  0  0  0  0
  137.8071   73.6478  221.1793 H   0  0  0  0  0  0  0  0  0  0  0  0
  137.7796   76.7433  220.7567 H   0  0  0  0  0  0  0  0  0  0  0  0
  138.9779   77.6763  219.7864 H   0  0  0  0  0  0  0  0  0  0  0  0
  137.0593   75.5051  218.8190 H   0  0  0  0  0  0  0  0  0  0  0  0
  137.1076   77.2257  218.3293 H   0  0  0  0  0  0  0  0  0  0  0  0
  138.6690   74.9481  217.3684 H   0  0  0  0  0  0  0  0  0  0  0  0
  138.4514   76.5895  216.6574 H   0  0  0  0  0  0  0  0  0  0  0  0
  140.8348   76.2834  217.1781 H   0  0  0  0  0  0  0  0  0  0  0  0
  140.1539   77.4696  218.3360 H   0  0  0  0  0  0  0  0  0  0  0  0
  140.6444   74.5065  218.7867 H   0  0  0  0  0  0  0  0  0  0  0  0
  142.4328   74.9674  219.9141 H   0  0  0  0  0  0  0  0  0  0  0  0
  142.3704   76.5584  219.0061 H   0  0  0  0  0  0  0  0  0  0  0  0
  141.8750   76.0360  221.8490 H   0  0  0  0  0  0  0  0  0  0  0  0
  141.8600   78.4691  219.0439 H   0  0  0  0  0  0  0  0  0  0  0  0
  141.6645   80.8811  219.3063 H   0  0  0  0  0  0  0  0  0  0  0  0
  141.2167   80.4145  223.5252 H   0  0  0  0  0  0  0  0  0  0  0  0
  141.4109   77.9920  223.2661 H   0  0  0  0  0  0  0  0  0  0  0  0
  138.4286   68.6841  222.6975 H   0  0  0  0  0  0  0  0  0  0  0  0
  138.9348   67.3234  224.7142 H   0  0  0  0  0  0  0  0  0  0  0  0
  139.8570   67.1583  226.9875 H   0  0  0  0  0  0  0  0  0  0  0  0
  141.5294   70.6818  228.8168 H   0  0  0  0  0  0  0  0  0  0  0  0
  140.9954   71.9866  226.7806 H   0  0  0  0  0  0  0  0  0  0  0  0
  1  2  2  0
  2  3  1  0
  3  4  1  0
  4  5  1  0
  5  6  2  0
  5  7  1  0
  7  8  1  0
  8  9  1  0
  9 10  1  0
 10 11  1  0
 11 12  1  0
 12 13  1  0
 13 14  1  0
 14 15  1  0
 15 16  2  0
 16 17  1  0
 17 18  2  0
 18 19  1  0
 18 20  1  0
 20 21  2  0
  2 22  1  0
 22 23  2  0
 23 24  1  0
 24 25  2  0
 25 26  1  0
 26 27  2  0
 27 28  1  0
 27 29  1  0
 29 30  2  0
 30 31  1  0
 31 32  2  0
 12  7  1  0
 21 15  1  0
 32 22  1  0
 31 25  1  0
  3 33  1  0
  4 34  1  0
  4 35  1  0
  8 36  1  0
  8 37  1  0
  9 38  1  0
  9 39  1  0
 10 40  1  0
 10 41  1  0
 11 42  1  0
 11 43  1  0
 12 44  1  6
 13 45  1  0
 13 46  1  0
 14 47  1  0
 16 48  1  0
 17 49  1  0
 20 50  1  0
 21 51  1  0
 23 52  1  0
 24 53  1  0
 26 54  1  0
 29 55  1  0
 30 56  1  0
M  END
>  <smiles>  (23) 
O=C(NCC(=O)N1CCCC[C@H]1CNc1ccc(Cl)cc1)c1ccc2cc(F)ccc2n1

>  <score_type>  (23) 
oracle

>  <origin>  (23) 
autodockgpu

>  <m_score__min__energy>  (23) 
-9.0600000000000005

>  <m_primary>  (23) 
energy

>  <rmsd>  (23) 
1.7375235464984586

>  <m_score__min__rmsd>  (23) 
1.7375235464984586

>  <meeko>  (23) 
{"free_energy": -7.59, "intermolecular_energy": -9.68, "internal_energy": -2.97, "cluster_size": 17, "cluster_id": 1, "rank_in_cluster": 14}

>  <energy>  (23) 
-7.94

>  <cluster_rmsd>  (23) 
1.13

>  <cluster>  (23) 
2

$$$$

     RDKit          3D

 56 59  0  0  0  0  0  0  0  0999 V2000
  139.3390   72.9580  222.5910 O   0  0  0  0  0  0  0  0  0  0  0  0
  138.7070   71.8890  222.8060 C   0  0  0  0  0  0  0  0  0  0  0  0
  137.5430   71.5150  222.0690 N   0  0  0  0  0  0  0  0  0  0  0  0
  137.0540   72.3950  221.0230 C   0  0  0  0  0  0  0  0  0  0  0  0
  135.8170   73.1000  221.4050 C   0  0  0  0  0  0  0  0  0  0  0  0
  134.7640   72.8650  220.7600 O   0  0  0  0  0  0  0  0  0  0  0  0
  135.8880   74.0150  222.4920 N   0  0  0  0  0  0  0  0  0  0  0  0
  135.8360   73.5910  223.8830 C   0  0  0  0  0  0  0  0  0  0  0  0
  134.6200   74.1930  224.5720 C   0  0  0  0  0  0  0  0  0  0  0  0
  134.5690   75.6510  224.2580 C   0  0  0  0  0  0  0  0  0  0  0  0
  135.8980   76.1050  223.6060 C   0  0  0  0  0  0  0  0  0  0  0  0
  136.0200   75.4670  222.2670 C   0  0  1  0  0  0  0  0  0  0  0  0
  137.3240   75.7570  221.5860 C   0  0  0  0  0  0  0  0  0  0  0  0
  138.4310   75.8810  222.4710 N   0  0  0  0  0  0  0  0  0  0  0  0
  139.2410   77.0070  222.7060 C   0  0  0  0  0  0  0  0  0  0  0  0
  140.6420   76.9020  222.6330 C   0  0  0  0  0  0  0  0  0  0  0  0
  141.4660   77.9640  222.8900 C   0  0  0  0  0  0  0  0  0  0  0  0
  140.9740   79.1980  223.2370 C   0  0  0  0  0  0  0  0  0  0  0  0
  142.0370   80.5300  223.5580 Cl  0  0  0  0  0  0  0  0  0  0  0  0
  139.6040   79.3300  223.3190 C   0  0  0  0  0  0  0  0  0  0  0  0
  138.7780   78.2560  223.0580 C   0  0  0  0  0  0  0  0  0  0  0  0
  139.1780   70.9830  223.8560 C   0  0  0  0  0  0  0  0  0  0  0  0
  139.1030   69.6150  223.6960 C   0  0  0  0  0  0  0  0  0  0  0  0
  139.5520   68.7590  224.6990 C   0  0  0  0  0  0  0  0  0  0  0  0
  140.0840   69.2730  225.8770 C   0  0  0  0  0  0  0  0  0  0  0  0
  140.5410   68.4370  226.8940 C   0  0  0  0  0  0  0  0  0  0  0  0
  141.0650   68.9990  228.0550 C   0  0  0  0  0  0  0  0  0  0  0  0
  141.5180   68.2100  229.0640 F   0  0  0  0  0  0  0  0  0  0  0  0
  141.1320   70.3660  228.1960 C   0  0  0  0  0  0  0  0  0  0  0  0
  140.6750   71.1850  227.1770 C   0  0  0  0  0  0  0  0  0  0  0  0
  140.1440   70.6480  226.0020 C   0  0  0  0  0  0  0  0  0  0  0  0
  139.6990   71.4460  225.0120 N   0  0  0  0  0  0  0  0  0  0  0  0
  137.0740   70.6030  222.3130 H   0  0  0  0  0  0  0  0  0  0  0  0
  137.8302   73.1419  220.8000 H   0  0  0  0  0  0  0  0  0  0  0  0
  136.8244   71.7726  220.1455 H   0  0  0  0  0  0  0  0  0  0  0  0
  135.7716   72.4937  223.9260 H   0  0  0  0  0  0  0  0  0  0  0  0
  136.7459   73.9348  224.3968 H   0  0  0  0  0  0  0  0  0  0  0  0
  133.7059   73.7027  224.2059 H   0  0  0  0  0  0  0  0  0  0  0  0
  134.6922   74.0448  225.6596 H   0  0  0  0  0  0  0  0  0  0  0  0
  133.7388   75.8440  223.5627 H   0  0  0  0  0  0  0  0  0  0  0  0
  134.4166   76.2137  225.1908 H   0  0  0  0  0  0  0  0  0  0  0  0
  135.9001   77.1994  223.4953 H   0  0  0  0  0  0  0  0  0  0  0  0
  136.7457   75.8062  224.2401 H   0  0  0  0  0  0  0  0  0  0  0  0
  135.2427   75.8702  221.6012 H   0  0  0  0  0  0  0  0  0  0  0  0
  137.5351   74.9380  220.8826 H   0  0  0  0  0  0  0  0  0  0  0  0
  137.2092   76.7302  221.0863 H   0  0  0  0  0  0  0  0  0  0  0  0
  138.6820   75.0050  223.0310 H   0  0  0  0  0  0  0  0  0  0  0  0
  141.0897   75.9349  222.3605 H   0  0  0  0  0  0  0  0  0  0  0  0
  142.5547   77.8249  222.8164 H   0  0  0  0  0  0  0  0  0  0  0  0
  139.1655   80.3003  223.5950 H   0  0  0  0  0  0  0  0  0  0  0  0
  137.6909   78.4051  223.1351 H   0  0  0  0  0  0  0  0  0  0  0  0
  138.6851   69.1965  222.7685 H   0  0  0  0  0  0  0  0  0  0  0  0
  139.4855   67.6700  224.5587 H   0  0  0  0  0  0  0  0  0  0  0  0
  140.4883   67.3441  226.7806 H   0  0  0  0  0  0  0  0  0  0  0  0
  141.5469   70.8067  229.1145 H   0  0  0  0  0  0  0  0  0  0  0  0
  140.7312   72.2772  227.2950 H   0  0  0  0  0  0  0  0  0  0  0  0
  1  2  2  0
  2  3  1  0
  3  4  1  0
  4  5  1  0
  5  6  2  0
  5  7  1  0
  7  8  1  0
  8  9  1  0
  9 10  1  0
 10 11  1  0
 11 12  1  0
 12 13  1  0
 13 14  1  0
 14 15  1  0
 15 16  2  0
 16 17  1  0
 17 18  2  0
 18 19  1  0
 18 20  1  0
 20 21  2  0
  2 22  1  0
 22 23  2  0
 23 24  1  0
 24 25  2  0
 25 26  1  0
 26 27  2  0
 27 28  1  0
 27 29  1  0
 29 30  2  0
 30 31  1  0
 31 32  2  0
 12  7  1  0
 21 15  1  0
 32 22  1  0
 31 25  1  0
  3 33  1  0
  4 34  1  0
  4 35  1  0
  8 36  1  0
  8 37  1  0
  9 38  1  0
  9 39  1  0
 10 40  1  0
 10 41  1  0
 11 42  1  0
 11 43  1  0
 12 44  1  6
 13 45  1  0
 13 46  1  0
 14 47  1  0
 16 48  1  0
 17 49  1  0
 20 50  1  0
 21 51  1  0
 23 52  1  0
 24 53  1  0
 26 54  1  0
 29 55  1  0
 30 56  1  0
M  END
>  <smiles>  (24) 
O=C(NCC(=O)N1CCCC[C@H]1CNc1ccc(Cl)cc1)c1ccc2cc(F)ccc2n1

>  <score_type>  (24) 
oracle

>  <origin>  (24) 
autodockgpu

>  <m_score__min__energy>  (24) 
-9.0600000000000005

>  <m_primary>  (24) 
energy

>  <rmsd>  (24) 
4.478588316117858

>  <m_score__min__rmsd>  (24) 
4.478588316117858

>  <meeko>  (24) 
{"free_energy": -7.91, "intermolecular_energy": -9.99, "internal_energy": -2.42, "cluster_size": 3, "cluster_id": 4, "rank_in_cluster": 2}

>  <energy>  (24) 
-7.84

>  <cluster_rmsd>  (24) 
1.2

>  <cluster>  (24) 
2

$$$$

     RDKit          3D

 56 59  0  0  0  0  0  0  0  0999 V2000
  139.9410   73.7070  222.3670 O   0  0  0  0  0  0  0  0  0  0  0  0
  140.1980   72.4780  222.2570 C   0  0  0  0  0  0  0  0  0  0  0  0
  140.6420   71.8840  221.0380 N   0  0  0  0  0  0  0  0  0  0  0  0
  140.8080   72.7200  219.8630 C   0  0  0  0  0  0  0  0  0  0  0  0
  141.9300   73.6670  219.9940 C   0  0  0  0  0  0  0  0  0  0  0  0
  142.8330   73.4220  220.8340 O   0  0  0  0  0  0  0  0  0  0  0  0
  141.9270   74.8150  219.1540 N   0  0  0  0  0  0  0  0  0  0  0  0
  142.2350   74.7530  217.7330 C   0  0  0  0  0  0  0  0  0  0  0  0
  143.4690   75.5880  217.4250 C   0  0  0  0  0  0  0  0  0  0  0  0
  143.3140   76.9240  218.0730 C   0  0  0  0  0  0  0  0  0  0  0  0
  141.8600   77.1110  218.5730 C   0  0  0  0  0  0  0  0  0  0  0  0
  141.6060   76.1540  219.6840 C   0  0  1  0  0  0  0  0  0  0  0  0
  140.1900   76.1770  220.1780 C   0  0  0  0  0  0  0  0  0  0  0  0
  140.0530   76.5460  221.5450 N   0  0  0  0  0  0  0  0  0  0  0  0
  140.5670   77.6800  222.2010 C   0  0  0  0  0  0  0  0  0  0  0  0
  140.2050   78.9710  221.7750 C   0  0  0  0  0  0  0  0  0  0  0  0
  140.7100   80.0990  222.3630 C   0  0  0  0  0  0  0  0  0  0  0  0
  141.6020   80.0390  223.4040 C   0  0  0  0  0  0  0  0  0  0  0  0
  142.2290   81.4830  224.1330 Cl  0  0  0  0  0  0  0  0  0  0  0  0
  141.9760   78.7870  223.8420 C   0  0  0  0  0  0  0  0  0  0  0  0
  141.4640   77.6530  223.2470 C   0  0  0  0  0  0  0  0  0  0  0  0
  140.0370   71.6120  223.4280 C   0  0  0  0  0  0  0  0  0  0  0  0
  139.2770   70.4620  223.3580 C   0  0  0  0  0  0  0  0  0  0  0  0
  139.1270   69.6430  224.4750 C   0  0  0  0  0  0  0  0  0  0  0  0
  139.7440   69.9740  225.6770 C   0  0  0  0  0  0  0  0  0  0  0  0
  139.6090   69.1710  226.8080 C   0  0  0  0  0  0  0  0  0  0  0  0
  140.2440   69.5430  227.9890 C   0  0  0  0  0  0  0  0  0  0  0  0
  140.1320   68.7790  229.1070 F   0  0  0  0  0  0  0  0  0  0  0  0
  140.9990   70.6930  228.0390 C   0  0  0  0  0  0  0  0  0  0  0  0
  141.1240   71.4820  226.9080 C   0  0  0  0  0  0  0  0  0  0  0  0
  140.4960   71.1320  225.7100 C   0  0  0  0  0  0  0  0  0  0  0  0
  140.6190   71.9000  224.6110 N   0  0  0  0  0  0  0  0  0  0  0  0
  140.8340   70.8480  221.0330 H   0  0  0  0  0  0  0  0  0  0  0  0
  140.9935   72.0724  218.9934 H   0  0  0  0  0  0  0  0  0  0  0  0
  139.8874   73.3096  219.7413 H   0  0  0  0  0  0  0  0  0  0  0  0
  142.4234   73.7075  217.4475 H   0  0  0  0  0  0  0  0  0  0  0  0
  141.3819   75.1504  217.1635 H   0  0  0  0  0  0  0  0  0  0  0  0
  144.3643   75.0860  217.8205 H   0  0  0  0  0  0  0  0  0  0  0  0
  143.5793   75.7085  216.3372 H   0  0  0  0  0  0  0  0  0  0  0  0
  144.0038   76.9959  218.9268 H   0  0  0  0  0  0  0  0  0  0  0  0
  143.5440   77.7085  217.3370 H   0  0  0  0  0  0  0  0  0  0  0  0
  141.7232   78.1410  218.9342 H   0  0  0  0  0  0  0  0  0  0  0  0
  141.1554   76.9221  217.7497 H   0  0  0  0  0  0  0  0  0  0  0  0
  142.2256   76.4317  220.5495 H   0  0  0  0  0  0  0  0  0  0  0  0
  139.6241   76.8969  219.5684 H   0  0  0  0  0  0  0  0  0  0  0  0
  139.8086   75.1490  220.0894 H   0  0  0  0  0  0  0  0  0  0  0  0
  139.4870   75.8760  222.1560 H   0  0  0  0  0  0  0  0  0  0  0  0
  139.4935   79.0772  220.9429 H   0  0  0  0  0  0  0  0  0  0  0  0
  140.3912   81.0834  221.9898 H   0  0  0  0  0  0  0  0  0  0  0  0
  142.6894   78.6912  224.6738 H   0  0  0  0  0  0  0  0  0  0  0  0
  141.7893   76.6737  223.6280 H   0  0  0  0  0  0  0  0  0  0  0  0
  138.7856   70.1898  222.4123 H   0  0  0  0  0  0  0  0  0  0  0  0
  138.5175   68.7299  224.4061 H   0  0  0  0  0  0  0  0  0  0  0  0
  139.0061   68.2518  226.7675 H   0  0  0  0  0  0  0  0  0  0  0  0
  141.5009   70.9839  228.9736 H   0  0  0  0  0  0  0  0  0  0  0  0
  141.7281   72.4001  226.9535 H   0  0  0  0  0  0  0  0  0  0  0  0
  1  2  2  0
  2  3  1  0
  3  4  1  0
  4  5  1  0
  5  6  2  0
  5  7  1  0
  7  8  1  0
  8  9  1  0
  9 10  1  0
 10 11  1  0
 11 12  1  0
 12 13  1  0
 13 14  1  0
 14 15  1  0
 15 16  2  0
 16 17  1  0
 17 18  2  0
 18 19  1  0
 18 20  1  0
 20 21  2  0
  2 22  1  0
 22 23  2  0
 23 24  1  0
 24 25  2  0
 25 26  1  0
 26 27  2  0
 27 28  1  0
 27 29  1  0
 29 30  2  0
 30 31  1  0
 31 32  2  0
 12  7  1  0
 21 15  1  0
 32 22  1  0
 31 25  1  0
  3 33  1  0
  4 34  1  0
  4 35  1  0
  8 36  1  0
  8 37  1  0
  9 38  1  0
  9 39  1  0
 10 40  1  0
 10 41  1  0
 11 42  1  0
 11 43  1  0
 12 44  1  1
 13 45  1  0
 13 46  1  0
 14 47  1  0
 16 48  1  0
 17 49  1  0
 20 50  1  0
 21 51  1  0
 23 52  1  0
 24 53  1  0
 26 54  1  0
 29 55  1  0
 30 56  1  0
M  END
>  <smiles>  (25) 
O=C(NCC(=O)N1CCCC[C@H]1CNc1ccc(Cl)cc1)c1ccc2cc(F)ccc2n1

>  <score_type>  (25) 
oracle

>  <origin>  (25) 
autodockgpu

>  <m_score__min__energy>  (25) 
-9.0600000000000005

>  <m_primary>  (25) 
energy

>  <rmsd>  (25) 
2.4640509412836606

>  <m_score__min__rmsd>  (25) 
2.4640509412836606

>  <meeko>  (25) 
{"free_energy": -8.2, "intermolecular_energy": -10.29, "internal_energy": -2.25, "cluster_size": 17, "cluster_id": 1, "rank_in_cluster": 8}

>  <energy>  (25) 
-7.82

>  <cluster_rmsd>  (25) 
1.21

>  <cluster>  (25) 
2

$$$$

     RDKit          3D

 56 59  0  0  0  0  0  0  0  0999 V2000
  138.4780   70.9290  221.7760 O   0  0  0  0  0  0  0  0  0  0  0  0
  139.1570   71.3600  222.7460 C   0  0  0  0  0  0  0  0  0  0  0  0
  139.7030   72.6770  222.7850 N   0  0  0  0  0  0  0  0  0  0  0  0
  139.4730   73.5730  221.6660 C   0  0  0  0  0  0  0  0  0  0  0  0
  140.6180   74.4660  221.4090 C   0  0  0  0  0  0  0  0  0  0  0  0
  140.5530   75.6590  221.8010 O   0  0  0  0  0  0  0  0  0  0  0  0
  141.7400   73.9210  220.7250 N   0  0  0  0  0  0  0  0  0  0  0  0
  141.7750   72.5510  220.2350 C   0  0  0  0  0  0  0  0  0  0  0  0
  142.8950   71.7770  220.9150 C   0  0  0  0  0  0  0  0  0  0  0  0
  144.1410   72.5970  220.8610 C   0  0  0  0  0  0  0  0  0  0  0  0
  143.9540   73.7920  219.8940 C   0  0  0  0  0  0  0  0  0  0  0  0
  142.9500   74.7260  220.4710 C   0  0  1  0  0  0  0  0  0  0  0  0
  142.6130   75.8730  219.5660 C   0  0  0  0  0  0  0  0  0  0  0  0
  142.2720   77.0750  220.2470 N   0  0  0  0  0  0  0  0  0  0  0  0
  142.2030   78.3830  219.7320 C   0  0  0  0  0  0  0  0  0  0  0  0
  142.5920   78.6460  218.4060 C   0  0  0  0  0  0  0  0  0  0  0  0
  142.5730   79.9080  217.8790 C   0  0  0  0  0  0  0  0  0  0  0  0
  142.1740   80.9970  218.6130 C   0  0  0  0  0  0  0  0  0  0  0  0
  142.1580   82.5880  217.9230 Cl  0  0  0  0  0  0  0  0  0  0  0  0
  141.7880   80.7700  219.9170 C   0  0  0  0  0  0  0  0  0  0  0  0
  141.8080   79.4950  220.4440 C   0  0  0  0  0  0  0  0  0  0  0  0
  139.4040   70.4760  223.8880 C   0  0  0  0  0  0  0  0  0  0  0  0
  139.0510   69.1430  223.8400 C   0  0  0  0  0  0  0  0  0  0  0  0
  139.2880   68.3080  224.9290 C   0  0  0  0  0  0  0  0  0  0  0  0
  139.8850   68.8070  226.0820 C   0  0  0  0  0  0  0  0  0  0  0  0
  140.1320   67.9920  227.1850 C   0  0  0  0  0  0  0  0  0  0  0  0
  140.7310   68.5380  228.3160 C   0  0  0  0  0  0  0  0  0  0  0  0
  140.9850   67.7680  229.4060 F   0  0  0  0  0  0  0  0  0  0  0  0
  141.0770   69.8700  228.3450 C   0  0  0  0  0  0  0  0  0  0  0  0
  140.8250   70.6680  227.2430 C   0  0  0  0  0  0  0  0  0  0  0  0
  140.2240   70.1470  226.0940 C   0  0  0  0  0  0  0  0  0  0  0  0
  139.9800   70.9250  225.0230 N   0  0  0  0  0  0  0  0  0  0  0  0
  140.2600   72.9580  223.6360 H   0  0  0  0  0  0  0  0  0  0  0  0
  139.2872   72.9703  220.7647 H   0  0  0  0  0  0  0  0  0  0  0  0
  138.6083   74.2046  221.9176 H   0  0  0  0  0  0  0  0  0  0  0  0
  140.8131   72.0632  220.4514 H   0  0  0  0  0  0  0  0  0  0  0  0
  141.9549   72.5629  219.1499 H   0  0  0  0  0  0  0  0  0  0  0  0
  142.6261   71.5800  221.9633 H   0  0  0  0  0  0  0  0  0  0  0  0
  143.0541   70.8172  220.4018 H   0  0  0  0  0  0  0  0  0  0  0  0
  144.3699   72.9767  221.8677 H   0  0  0  0  0  0  0  0  0  0  0  0
  144.9684   71.9689  220.4991 H   0  0  0  0  0  0  0  0  0  0  0  0
  144.9128   74.3151  219.7636 H   0  0  0  0  0  0  0  0  0  0  0  0
  143.6063   73.4289  218.9156 H   0  0  0  0  0  0  0  0  0  0  0  0
  143.3622   75.1811  221.3837 H   0  0  0  0  0  0  0  0  0  0  0  0
  143.4848   76.0748  218.9263 H   0  0  0  0  0  0  0  0  0  0  0  0
  141.7234   75.5719  218.9933 H   0  0  0  0  0  0  0  0  0  0  0  0
  142.0380   76.9750  221.2850 H   0  0  0  0  0  0  0  0  0  0  0  0
  142.9222   77.8096  217.7724 H   0  0  0  0  0  0  0  0  0  0  0  0
  142.8871   80.0547  216.8350 H   0  0  0  0  0  0  0  0  0  0  0  0
  141.4610   81.6133  220.5431 H   0  0  0  0  0  0  0  0  0  0  0  0
  141.4916   79.3587  221.4887 H   0  0  0  0  0  0  0  0  0  0  0  0
  138.5783   68.7364  222.9338 H   0  0  0  0  0  0  0  0  0  0  0  0
  139.0013   67.2473  224.8771 H   0  0  0  0  0  0  0  0  0  0  0  0
  139.8561   66.9274  227.1618 H   0  0  0  0  0  0  0  0  0  0  0  0
  141.5517   70.2981  229.2402 H   0  0  0  0  0  0  0  0  0  0  0  0
  141.1028   71.7319  227.2719 H   0  0  0  0  0  0  0  0  0  0  0  0
  1  2  2  0
  2  3  1  0
  3  4  1  0
  4  5  1  0
  5  6  2  0
  5  7  1  0
  7  8  1  0
  8  9  1  0
  9 10  1  0
 10 11  1  0
 11 12  1  0
 12 13  1  0
 13 14  1  0
 14 15  1  0
 15 16  2  0
 16 17  1  0
 17 18  2  0
 18 19  1  0
 18 20  1  0
 20 21  2  0
  2 22  1  0
 22 23  2  0
 23 24  1  0
 24 25  2  0
 25 26  1  0
 26 27  2  0
 27 28  1  0
 27 29  1  0
 29 30  2  0
 30 31  1  0
 31 32  2  0
 12  7  1  0
 21 15  1  0
 32 22  1  0
 31 25  1  0
  3 33  1  0
  4 34  1  0
  4 35  1  0
  8 36  1  0
  8 37  1  0
  9 38  1  0
  9 39  1  0
 10 40  1  0
 10 41  1  0
 11 42  1  0
 11 43  1  0
 12 44  1  1
 13 45  1  0
 13 46  1  0
 14 47  1  0
 16 48  1  0
 17 49  1  0
 20 50  1  0
 21 51  1  0
 23 52  1  0
 24 53  1  0
 26 54  1  0
 29 55  1  0
 30 56  1  0
M  END
>  <smiles>  (26) 
O=C(NCC(=O)N1CCCC[C@H]1CNc1ccc(Cl)cc1)c1ccc2cc(F)ccc2n1

>  <score_type>  (26) 
oracle

>  <origin>  (26) 
autodockgpu

>  <m_score__min__energy>  (26) 
-9.0600000000000005

>  <m_primary>  (26) 
energy

>  <rmsd>  (26) 
2.841373501682532

>  <m_score__min__rmsd>  (26) 
2.841373501682532

>  <meeko>  (26) 
{"free_energy": -8.2, "intermolecular_energy": -10.28, "internal_energy": -2.36, "cluster_size": 17, "cluster_id": 1, "rank_in_cluster": 10}

>  <energy>  (26) 
-7.7

>  <cluster_rmsd>  (26) 
1.79

>  <cluster>  (26) 
2

$$$$

     RDKit          3D

 56 59  0  0  0  0  0  0  0  0999 V2000
  140.1660   71.9180  221.1200 O   0  0  0  0  0  0  0  0  0  0  0  0
  139.4520   72.1370  222.1350 C   0  0  0  0  0  0  0  0  0  0  0  0
  138.5220   73.2170  222.2100 N   0  0  0  0  0  0  0  0  0  0  0  0
  138.3810   74.1110  221.0750 C   0  0  0  0  0  0  0  0  0  0  0  0
  138.4960   75.5310  221.4530 C   0  0  0  0  0  0  0  0  0  0  0  0
  137.4930   76.1100  221.9430 O   0  0  0  0  0  0  0  0  0  0  0  0
  139.7490   76.1720  221.2390 N   0  0  0  0  0  0  0  0  0  0  0  0
  140.7210   76.3760  222.3020 C   0  0  0  0  0  0  0  0  0  0  0  0
  140.9650   77.8640  222.5120 C   0  0  0  0  0  0  0  0  0  0  0  0
  141.2020   78.5000  221.1830 C   0  0  0  0  0  0  0  0  0  0  0  0
  141.4130   77.4140  220.1000 C   0  0  0  0  0  0  0  0  0  0  0  0
  140.1370   76.6730  219.9060 C   0  0  1  0  0  0  0  0  0  0  0  0
  140.2540   75.5250  218.9490 C   0  0  0  0  0  0  0  0  0  0  0  0
  140.8520   74.3590  219.5050 N   0  0  0  0  0  0  0  0  0  0  0  0
  142.1930   74.1570  219.8790 C   0  0  0  0  0  0  0  0  0  0  0  0
  142.6000   72.9290  220.4330 C   0  0  0  0  0  0  0  0  0  0  0  0
  143.8860   72.7060  220.8420 C   0  0  0  0  0  0  0  0  0  0  0  0
  144.8590   73.6680  220.7390 C   0  0  0  0  0  0  0  0  0  0  0  0
  146.4840   73.3620  221.2650 Cl  0  0  0  0  0  0  0  0  0  0  0  0
  144.4900   74.8830  220.2020 C   0  0  0  0  0  0  0  0  0  0  0  0
  143.1920   75.1030  219.7900 C   0  0  0  0  0  0  0  0  0  0  0  0
  139.5750   71.2510  223.2950 C   0  0  0  0  0  0  0  0  0  0  0  0
  139.1070   69.9530  223.2440 C   0  0  0  0  0  0  0  0  0  0  0  0
  139.2260   69.1150  224.3510 C   0  0  0  0  0  0  0  0  0  0  0  0
  139.8190   69.5750  225.5220 C   0  0  0  0  0  0  0  0  0  0  0  0
  139.9500   68.7560  226.6410 C   0  0  0  0  0  0  0  0  0  0  0  0
  140.5510   69.2610  227.7910 C   0  0  0  0  0  0  0  0  0  0  0  0
  140.6920   68.4860  228.8970 F   0  0  0  0  0  0  0  0  0  0  0  0
  141.0110   70.5570  227.8210 C   0  0  0  0  0  0  0  0  0  0  0  0
  140.8750   71.3610  226.7010 C   0  0  0  0  0  0  0  0  0  0  0  0
  140.2750   70.8790  225.5350 C   0  0  0  0  0  0  0  0  0  0  0  0
  140.1430   71.6620  224.4470 N   0  0  0  0  0  0  0  0  0  0  0  0
  137.9640   73.3290  223.0980 H   0  0  0  0  0  0  0  0  0  0  0  0
  139.1675   73.8768  220.3425 H   0  0  0  0  0  0  0  0  0  0  0  0
  137.3760   73.9590  220.6545 H   0  0  0  0  0  0  0  0  0  0  0  0
  140.3379   75.9354  223.2343 H   0  0  0  0  0  0  0  0  0  0  0  0
  141.6682   75.8929  222.0202 H   0  0  0  0  0  0  0  0  0  0  0  0
  140.0851   78.3200  222.9894 H   0  0  0  0  0  0  0  0  0  0  0  0
  141.8402   78.0132  223.1614 H   0  0  0  0  0  0  0  0  0  0  0  0
  140.3312   79.1162  220.9147 H   0  0  0  0  0  0  0  0  0  0  0  0
  142.1031   79.1281  221.2415 H   0  0  0  0  0  0  0  0  0  0  0  0
  141.7118   77.8890  219.1539 H   0  0  0  0  0  0  0  0  0  0  0  0
  142.2034   76.7184  220.4185 H   0  0  0  0  0  0  0  0  0  0  0  0
  139.3886   77.3488  219.4663 H   0  0  0  0  0  0  0  0  0  0  0  0
  139.2442   75.2620  218.6010 H   0  0  0  0  0  0  0  0  0  0  0  0
  140.9127   75.8595  218.1340 H   0  0  0  0  0  0  0  0  0  0  0  0
  140.2000   73.5260  219.6590 H   0  0  0  0  0  0  0  0  0  0  0  0
  141.8599   72.1224  220.5406 H   0  0  0  0  0  0  0  0  0  0  0  0
  144.1482   71.7256  221.2664 H   0  0  0  0  0  0  0  0  0  0  0  0
  145.2372   75.6840  220.1012 H   0  0  0  0  0  0  0  0  0  0  0  0
  142.9403   76.0869  219.3674 H   0  0  0  0  0  0  0  0  0  0  0  0
  138.6369   69.5778  222.3230 H   0  0  0  0  0  0  0  0  0  0  0  0
  138.8485   68.0831  224.2984 H   0  0  0  0  0  0  0  0  0  0  0  0
  139.5820   67.7197  226.6164 H   0  0  0  0  0  0  0  0  0  0  0  0
  141.4851   70.9536  228.7309 H   0  0  0  0  0  0  0  0  0  0  0  0
  141.2456   72.3963  226.7303 H   0  0  0  0  0  0  0  0  0  0  0  0
  1  2  2  0
  2  3  1  0
  3  4  1  0
  4  5  1  0
  5  6  2  0
  5  7  1  0
  7  8  1  0
  8  9  1  0
  9 10  1  0
 10 11  1  0
 11 12  1  0
 12 13  1  0
 13 14  1  0
 14 15  1  0
 15 16  2  0
 16 17  1  0
 17 18  2  0
 18 19  1  0
 18 20  1  0
 20 21  2  0
  2 22  1  0
 22 23  2  0
 23 24  1  0
 24 25  2  0
 25 26  1  0
 26 27  2  0
 27 28  1  0
 27 29  1  0
 29 30  2  0
 30 31  1  0
 31 32  2  0
 12  7  1  0
 21 15  1  0
 32 22  1  0
 31 25  1  0
  3 33  1  0
  4 34  1  0
  4 35  1  0
  8 36  1  0
  8 37  1  0
  9 38  1  0
  9 39  1  0
 10 40  1  0
 10 41  1  0
 11 42  1  0
 11 43  1  0
 12 44  1  6
 13 45  1  0
 13 46  1  0
 14 47  1  0
 16 48  1  0
 17 49  1  0
 20 50  1  0
 21 51  1  0
 23 52  1  0
 24 53  1  0
 26 54  1  0
 29 55  1  0
 30 56  1  0
M  END
>  <smiles>  (27) 
O=C(NCC(=O)N1CCCC[C@H]1CNc1ccc(Cl)cc1)c1ccc2cc(F)ccc2n1

>  <score_type>  (27) 
oracle

>  <origin>  (27) 
autodockgpu

>  <m_score__min__energy>  (27) 
-9.0600000000000005

>  <m_primary>  (27) 
energy

>  <rmsd>  (27) 
4.106780351599601

>  <m_score__min__rmsd>  (27) 
4.106780351599601

>  <meeko>  (27) 
{"free_energy": -8.14, "intermolecular_energy": -10.23, "internal_energy": -2.5, "cluster_size": 10, "cluster_id": 2, "rank_in_cluster": 4}

>  <energy>  (27) 
-7.67

>  <cluster_rmsd>  (27) 
2.0

>  <cluster>  (27) 
2

$$$$

     RDKit          3D

 56 59  0  0  0  0  0  0  0  0999 V2000
  140.9640   77.9790  217.5590 O   0  0  0  0  0  0  0  0  0  0  0  0
  141.8390   77.7630  218.4400 C   0  0  0  0  0  0  0  0  0  0  0  0
  142.1970   78.7260  219.4300 N   0  0  0  0  0  0  0  0  0  0  0  0
  141.5330   80.0180  219.4350 C   0  0  0  0  0  0  0  0  0  0  0  0
  140.4580   80.1000  220.4390 C   0  0  0  0  0  0  0  0  0  0  0  0
  139.2910   80.3680  220.0550 O   0  0  0  0  0  0  0  0  0  0  0  0
  140.8060   79.8690  221.7990 N   0  0  0  0  0  0  0  0  0  0  0  0
  140.5090   80.8190  222.8610 C   0  0  0  0  0  0  0  0  0  0  0  0
  141.7980   81.3070  223.5060 C   0  0  0  0  0  0  0  0  0  0  0  0
  142.6540   80.1240  223.8130 C   0  0  0  0  0  0  0  0  0  0  0  0
  141.8380   78.8170  223.6530 C   0  0  0  0  0  0  0  0  0  0  0  0
  141.4980   78.6350  222.2150 C   0  0  1  0  0  0  0  0  0  0  0  0
  140.6170   77.4490  221.9580 C   0  0  0  0  0  0  0  0  0  0  0  0
  141.3170   76.2770  221.5560 N   0  0  0  0  0  0  0  0  0  0  0  0
  140.8630   74.9450  221.5530 C   0  0  0  0  0  0  0  0  0  0  0  0
  139.5450   74.6420  221.9420 C   0  0  0  0  0  0  0  0  0  0  0  0
  139.0770   73.3580  221.9860 C   0  0  0  0  0  0  0  0  0  0  0  0
  139.8650   72.2840  221.6550 C   0  0  0  0  0  0  0  0  0  0  0  0
  139.2490   70.6640  221.7190 Cl  0  0  0  0  0  0  0  0  0  0  0  0
  141.1620   72.5500  221.2720 C   0  0  0  0  0  0  0  0  0  0  0  0
  141.6300   73.8470  221.2280 C   0  0  0  0  0  0  0  0  0  0  0  0
  142.5240   76.4680  218.4580 C   0  0  0  0  0  0  0  0  0  0  0  0
  142.2820   75.5270  217.4780 C   0  0  0  0  0  0  0  0  0  0  0  0
  142.9360   74.2970  217.5010 C   0  0  0  0  0  0  0  0  0  0  0  0
  143.8440   74.0020  218.5120 C   0  0  0  0  0  0  0  0  0  0  0  0
  144.5110   72.7790  218.5560 C   0  0  0  0  0  0  0  0  0  0  0  0
  145.4100   72.5290  219.5890 C   0  0  0  0  0  0  0  0  0  0  0  0
  146.0750   71.3460  219.6580 F   0  0  0  0  0  0  0  0  0  0  0  0
  145.6390   73.4810  220.5560 C   0  0  0  0  0  0  0  0  0  0  0  0
  144.9690   74.6910  220.5000 C   0  0  0  0  0  0  0  0  0  0  0  0
  144.0610   74.9680  219.4760 C   0  0  0  0  0  0  0  0  0  0  0  0
  143.4100   76.1460  219.4230 N   0  0  0  0  0  0  0  0  0  0  0  0
  142.9390   78.4640  220.1310 H   0  0  0  0  0  0  0  0  0  0  0  0
  142.2789   80.7963  219.6535 H   0  0  0  0  0  0  0  0  0  0  0  0
  141.0751   80.1605  218.4450 H   0  0  0  0  0  0  0  0  0  0  0  0
  139.9663   81.6777  222.4389 H   0  0  0  0  0  0  0  0  0  0  0  0
  139.8917   80.3225  223.6241 H   0  0  0  0  0  0  0  0  0  0  0  0
  142.3277   81.9782  222.8140 H   0  0  0  0  0  0  0  0  0  0  0  0
  141.5706   81.8567  224.4313 H   0  0  0  0  0  0  0  0  0  0  0  0
  143.5094   80.1052  223.1216 H   0  0  0  0  0  0  0  0  0  0  0  0
  143.0113   80.1992  224.8506 H   0  0  0  0  0  0  0  0  0  0  0  0
  142.4366   77.9627  224.0021 H   0  0  0  0  0  0  0  0  0  0  0  0
  140.9159   78.8774  224.2497 H   0  0  0  0  0  0  0  0  0  0  0  0
  142.4199   78.4479  221.6448 H   0  0  0  0  0  0  0  0  0  0  0  0
  140.0666   77.2216  222.8828 H   0  0  0  0  0  0  0  0  0  0  0  0
  139.9548   77.7228  221.1234 H   0  0  0  0  0  0  0  0  0  0  0  0
  142.3190   76.4240  221.2120 H   0  0  0  0  0  0  0  0  0  0  0  0
  138.8695   75.4646  222.2196 H   0  0  0  0  0  0  0  0  0  0  0  0
  138.0367   73.1803  222.2963 H   0  0  0  0  0  0  0  0  0  0  0  0
  141.8304   71.7202  220.9988 H   0  0  0  0  0  0  0  0  0  0  0  0
  142.6717   74.0139  220.9167 H   0  0  0  0  0  0  0  0  0  0  0  0
  141.5671   75.7498  216.6723 H   0  0  0  0  0  0  0  0  0  0  0  0
  142.7329   73.5549  216.7148 H   0  0  0  0  0  0  0  0  0  0  0  0
  144.3288   72.0188  217.7821 H   0  0  0  0  0  0  0  0  0  0  0  0
  146.3514   73.2813  221.3700 H   0  0  0  0  0  0  0  0  0  0  0  0
  145.1552   75.4479  221.2761 H   0  0  0  0  0  0  0  0  0  0  0  0
  1  2  2  0
  2  3  1  0
  3  4  1  0
  4  5  1  0
  5  6  2  0
  5  7  1  0
  7  8  1  0
  8  9  1  0
  9 10  1  0
 10 11  1  0
 11 12  1  0
 12 13  1  0
 13 14  1  0
 14 15  1  0
 15 16  2  0
 16 17  1  0
 17 18  2  0
 18 19  1  0
 18 20  1  0
 20 21  2  0
  2 22  1  0
 22 23  2  0
 23 24  1  0
 24 25  2  0
 25 26  1  0
 26 27  2  0
 27 28  1  0
 27 29  1  0
 29 30  2  0
 30 31  1  0
 31 32  2  0
 12  7  1  0
 21 15  1  0
 32 22  1  0
 31 25  1  0
  3 33  1  0
  4 34  1  0
  4 35  1  0
  8 36  1  0
  8 37  1  0
  9 38  1  0
  9 39  1  0
 10 40  1  0
 10 41  1  0
 11 42  1  0
 11 43  1  0
 12 44  1  6
 13 45  1  0
 13 46  1  0
 14 47  1  0
 16 48  1  0
 17 49  1  0
 20 50  1  0
 21 51  1  0
 23 52  1  0
 24 53  1  0
 26 54  1  0
 29 55  1  0
 30 56  1  0
M  END
>  <smiles>  (28) 
O=C(NCC(=O)N1CCCC[C@H]1CNc1ccc(Cl)cc1)c1ccc2cc(F)ccc2n1

>  <score_type>  (28) 
oracle

>  <origin>  (28) 
autodockgpu

>  <m_score__min__energy>  (28) 
-9.0600000000000005

>  <m_primary>  (28) 
energy

>  <rmsd>  (28) 
7.869507580039898

>  <m_score__min__rmsd>  (28) 
7.869507580039898

>  <meeko>  (28) 
{"free_energy": -7.16, "intermolecular_energy": -9.25, "internal_energy": -3.49, "cluster_size": 5, "cluster_id": 9, "rank_in_cluster": 2}

>  <energy>  (28) 
-8.27

>  <cluster_rmsd>  (28) 
0.0

>  <cluster>  (28) 
3

$$$$

     RDKit          3D

 56 59  0  0  0  0  0  0  0  0999 V2000
  139.2300   71.5890  221.5140 O   0  0  0  0  0  0  0  0  0  0  0  0
  138.6950   71.7960  222.6360 C   0  0  0  0  0  0  0  0  0  0  0  0
  137.4810   72.5280  222.7930 N   0  0  0  0  0  0  0  0  0  0  0  0
  136.8210   73.0660  221.6160 C   0  0  0  0  0  0  0  0  0  0  0  0
  137.5590   74.1920  221.0160 C   0  0  0  0  0  0  0  0  0  0  0  0
  138.1250   74.0210  219.9060 O   0  0  0  0  0  0  0  0  0  0  0  0
  137.5880   75.4190  221.7340 N   0  0  0  0  0  0  0  0  0  0  0  0
  136.4740   75.8840  222.5450 C   0  0  0  0  0  0  0  0  0  0  0  0
  135.9410   77.2030  222.0030 C   0  0  0  0  0  0  0  0  0  0  0  0
  137.0950   78.1200  221.7650 C   0  0  0  0  0  0  0  0  0  0  0  0
  138.3780   77.5460  222.4150 C   0  0  0  0  0  0  0  0  0  0  0  0
  138.7690   76.3040  221.6940 C   0  0  1  0  0  0  0  0  0  0  0  0
  139.9450   75.6050  222.3070 C   0  0  0  0  0  0  0  0  0  0  0  0
  140.3810   74.4560  221.5900 N   0  0  0  0  0  0  0  0  0  0  0  0
  141.6710   74.1600  221.1130 C   0  0  0  0  0  0  0  0  0  0  0  0
  142.1840   72.8540  221.2130 C   0  0  0  0  0  0  0  0  0  0  0  0
  143.4460   72.5330  220.7940 C   0  0  0  0  0  0  0  0  0  0  0  0
  144.2910   73.4690  220.2510 C   0  0  0  0  0  0  0  0  0  0  0  0
  145.8880   73.0390  219.7260 Cl  0  0  0  0  0  0  0  0  0  0  0  0
  143.8170   74.7580  220.1420 C   0  0  0  0  0  0  0  0  0  0  0  0
  142.5430   75.0760  220.5650 C   0  0  0  0  0  0  0  0  0  0  0  0
  139.3410   71.2650  223.8400 C   0  0  0  0  0  0  0  0  0  0  0  0
  140.3760   71.9470  224.4450 C   0  0  0  0  0  0  0  0  0  0  0  0
  140.9870   71.4370  225.5890 C   0  0  0  0  0  0  0  0  0  0  0  0
  140.5590   70.2320  226.1370 C   0  0  0  0  0  0  0  0  0  0  0  0
  141.1530   69.7010  227.2800 C   0  0  0  0  0  0  0  0  0  0  0  0
  140.6910   68.4920  227.7910 C   0  0  0  0  0  0  0  0  0  0  0  0
  141.2500   67.9500  228.9040 F   0  0  0  0  0  0  0  0  0  0  0  0
  139.6560   67.8270  227.1730 C   0  0  0  0  0  0  0  0  0  0  0  0
  139.0750   68.3660  226.0380 C   0  0  0  0  0  0  0  0  0  0  0  0
  139.5200   69.5780  225.5030 C   0  0  0  0  0  0  0  0  0  0  0  0
  138.9530   70.0990  224.3990 N   0  0  0  0  0  0  0  0  0  0  0  0
  137.1010   72.6560  223.7680 H   0  0  0  0  0  0  0  0  0  0  0  0
  136.7297   72.2657  220.8668 H   0  0  0  0  0  0  0  0  0  0  0  0
  135.8364   73.4430  221.9298 H   0  0  0  0  0  0  0  0  0  0  0  0
  135.6713   75.1322  222.5243 H   0  0  0  0  0  0  0  0  0  0  0  0
  136.8215   76.0355  223.5776 H   0  0  0  0  0  0  0  0  0  0  0  0
  135.4065   77.0266  221.0579 H   0  0  0  0  0  0  0  0  0  0  0  0
  135.2454   77.6535  222.7264 H   0  0  0  0  0  0  0  0  0  0  0  0
  137.2543   78.2299  220.6822 H   0  0  0  0  0  0  0  0  0  0  0  0
  136.8731   79.0996  222.2136 H   0  0  0  0  0  0  0  0  0  0  0  0
  139.1899   78.2849  222.3449 H   0  0  0  0  0  0  0  0  0  0  0  0
  138.1894   77.3184  223.4745 H   0  0  0  0  0  0  0  0  0  0  0  0
  139.0784   76.5612  220.6702 H   0  0  0  0  0  0  0  0  0  0  0  0
  140.7815   76.3176  222.3578 H   0  0  0  0  0  0  0  0  0  0  0  0
  139.6220   75.2544  223.2984 H   0  0  0  0  0  0  0  0  0  0  0  0
  139.6330   73.7200  221.3860 H   0  0  0  0  0  0  0  0  0  0  0  0
  141.5493   72.0648  221.6423 H   0  0  0  0  0  0  0  0  0  0  0  0
  143.7940   71.4944  220.8951 H   0  0  0  0  0  0  0  0  0  0  0  0
  144.4603   75.5408  219.7137 H   0  0  0  0  0  0  0  0  0  0  0  0
  142.2046   76.1173  220.4592 H   0  0  0  0  0  0  0  0  0  0  0  0
  140.7220   72.9012  224.0211 H   0  0  0  0  0  0  0  0  0  0  0  0
  141.8122   71.9902  226.0613 H   0  0  0  0  0  0  0  0  0  0  0  0
  141.9797   70.2327  227.7739 H   0  0  0  0  0  0  0  0  0  0  0  0
  139.2924   66.8717  227.5793 H   0  0  0  0  0  0  0  0  0  0  0  0
  138.2481   67.8307  225.5483 H   0  0  0  0  0  0  0  0  0  0  0  0
  1  2  2  0
  2  3  1  0
  3  4  1  0
  4  5  1  0
  5  6  2  0
  5  7  1  0
  7  8  1  0
  8  9  1  0
  9 10  1  0
 10 11  1  0
 11 12  1  0
 12 13  1  0
 13 14  1  0
 14 15  1  0
 15 16  2  0
 16 17  1  0
 17 18  2  0
 18 19  1  0
 18 20  1  0
 20 21  2  0
  2 22  1  0
 22 23  2  0
 23 24  1  0
 24 25  2  0
 25 26  1  0
 26 27  2  0
 27 28  1  0
 27 29  1  0
 29 30  2  0
 30 31  1  0
 31 32  2  0
 12  7  1  0
 21 15  1  0
 32 22  1  0
 31 25  1  0
  3 33  1  0
  4 34  1  0
  4 35  1  0
  8 36  1  0
  8 37  1  0
  9 38  1  0
  9 39  1  0
 10 40  1  0
 10 41  1  0
 11 42  1  0
 11 43  1  0
 12 44  1  6
 13 45  1  0
 13 46  1  0
 14 47  1  0
 16 48  1  0
 17 49  1  0
 20 50  1  0
 21 51  1  0
 23 52  1  0
 24 53  1  0
 26 54  1  0
 29 55  1  0
 30 56  1  0
M  END
>  <smiles>  (29) 
O=C(NCC(=O)N1CCCC[C@H]1CNc1ccc(Cl)cc1)c1ccc2cc(F)ccc2n1

>  <score_type>  (29) 
oracle

>  <origin>  (29) 
autodockgpu

>  <m_score__min__energy>  (29) 
-9.0600000000000005

>  <m_primary>  (29) 
energy

>  <rmsd>  (29) 
4.766203981494902

>  <m_score__min__rmsd>  (29) 
4.766203981494902

>  <meeko>  (29) 
{"free_energy": -7.13, "intermolecular_energy": -9.22, "internal_energy": -3.22, "cluster_size": 2, "cluster_id": 11, "rank_in_cluster": 1}

>  <energy>  (29) 
-7.93

>  <cluster_rmsd>  (29) 
0.0

>  <cluster>  (29) 
4

$$$$

     RDKit          3D

 56 59  0  0  0  0  0  0  0  0999 V2000
  137.1060   75.9530  222.1380 O   0  0  0  0  0  0  0  0  0  0  0  0
  138.3570   76.0770  222.2300 C   0  0  0  0  0  0  0  0  0  0  0  0
  139.2600   74.9930  222.0180 N   0  0  0  0  0  0  0  0  0  0  0  0
  138.7300   73.6840  221.6810 C   0  0  0  0  0  0  0  0  0  0  0  0
  139.6030   72.5840  222.1300 C   0  0  0  0  0  0  0  0  0  0  0  0
  140.6800   72.8680  222.7150 O   0  0  0  0  0  0  0  0  0  0  0  0
  139.1740   71.2530  221.8720 N   0  0  0  0  0  0  0  0  0  0  0  0
  140.0010   70.2800  221.1750 C   0  0  0  0  0  0  0  0  0  0  0  0
  139.3210   69.8370  219.8880 C   0  0  0  0  0  0  0  0  0  0  0  0
  137.9010   69.4920  220.1940 C   0  0  0  0  0  0  0  0  0  0  0  0
  137.6870   69.4150  221.7250 C   0  0  0  0  0  0  0  0  0  0  0  0
  137.8460   70.7780  222.3030 C   0  0  1  0  0  0  0  0  0  0  0  0
  137.7600   70.8030  223.8000 C   0  0  0  0  0  0  0  0  0  0  0  0
  138.9860   71.1200  224.4500 N   0  0  0  0  0  0  0  0  0  0  0  0
  139.6060   70.4520  225.5220 C   0  0  0  0  0  0  0  0  0  0  0  0
  139.4400   69.0640  225.6860 C   0  0  0  0  0  0  0  0  0  0  0  0
  139.9960   68.3830  226.7340 C   0  0  0  0  0  0  0  0  0  0  0  0
  140.7500   69.0140  227.6920 C   0  0  0  0  0  0  0  0  0  0  0  0
  141.4460   68.1300  229.0120 Cl  0  0  0  0  0  0  0  0  0  0  0  0
  140.9290   70.3740  227.5590 C   0  0  0  0  0  0  0  0  0  0  0  0
  140.3670   71.0560  226.4990 C   0  0  0  0  0  0  0  0  0  0  0  0
  138.9180   77.3870  222.5680 C   0  0  0  0  0  0  0  0  0  0  0  0
  138.1010   78.4880  222.7200 C   0  0  0  0  0  0  0  0  0  0  0  0
  138.6410   79.7320  223.0410 C   0  0  0  0  0  0  0  0  0  0  0  0
  140.0130   79.8790  223.2140 C   0  0  0  0  0  0  0  0  0  0  0  0
  140.5770   81.1120  223.5360 C   0  0  0  0  0  0  0  0  0  0  0  0
  141.9560   81.2110  223.6980 C   0  0  0  0  0  0  0  0  0  0  0  0
  142.5340   82.4000  224.0120 F   0  0  0  0  0  0  0  0  0  0  0  0
  142.7540   80.1010  223.5430 C   0  0  0  0  0  0  0  0  0  0  0  0
  142.1810   78.8820  223.2230 C   0  0  0  0  0  0  0  0  0  0  0  0
  140.8000   78.7550  223.0540 C   0  0  0  0  0  0  0  0  0  0  0  0
  140.2440   77.5690  222.7420 N   0  0  0  0  0  0  0  0  0  0  0  0
  140.2930   75.1830  222.1140 H   0  0  0  0  0  0  0  0  0  0  0  0
  137.7456   73.5693  222.1583 H   0  0  0  0  0  0  0  0  0  0  0  0
  138.6597   73.6261  220.5848 H   0  0  0  0  0  0  0  0  0  0  0  0
  140.9728   70.7355  220.9341 H   0  0  0  0  0  0  0  0  0  0  0  0
  140.1470   69.4035  221.8234 H   0  0  0  0  0  0  0  0  0  0  0  0
  139.3536   70.6535  219.1516 H   0  0  0  0  0  0  0  0  0  0  0  0
  139.8393   68.9607  219.4715 H   0  0  0  0  0  0  0  0  0  0  0  0
  137.2407   70.2647  219.7733 H   0  0  0  0  0  0  0  0  0  0  0  0
  137.6657   68.5138  219.7493 H   0  0  0  0  0  0  0  0  0  0  0  0
  136.6754   69.0392  221.9381 H   0  0  0  0  0  0  0  0  0  0  0  0
  138.4255   68.7325  222.1709 H   0  0  0  0  0  0  0  0  0  0  0  0
  137.0260   71.4201  221.9491 H   0  0  0  0  0  0  0  0  0  0  0  0
  137.0114   71.5550  224.0900 H   0  0  0  0  0  0  0  0  0  0  0  0
  137.4877   69.7857  224.1178 H   0  0  0  0  0  0  0  0  0  0  0  0
  139.5050   71.9770  224.0770 H   0  0  0  0  0  0  0  0  0  0  0  0
  138.8436   68.5086  224.9472 H   0  0  0  0  0  0  0  0  0  0  0  0
  139.8341   67.2977  226.8114 H   0  0  0  0  0  0  0  0  0  0  0  0
  141.5251   70.9208  228.3044 H   0  0  0  0  0  0  0  0  0  0  0  0
  140.5358   72.1408  226.4303 H   0  0  0  0  0  0  0  0  0  0  0  0
  137.0141   78.3832  222.5867 H   0  0  0  0  0  0  0  0  0  0  0  0
  137.9785   80.6023  223.1581 H   0  0  0  0  0  0  0  0  0  0  0  0
  139.9383   81.9988  223.6610 H   0  0  0  0  0  0  0  0  0  0  0  0
  143.8433   80.1818  223.6729 H   0  0  0  0  0  0  0  0  0  0  0  0
  142.8242   77.9982  223.0997 H   0  0  0  0  0  0  0  0  0  0  0  0
  1  2  2  0
  2  3  1  0
  3  4  1  0
  4  5  1  0
  5  6  2  0
  5  7  1  0
  7  8  1  0
  8  9  1  0
  9 10  1  0
 10 11  1  0
 11 12  1  0
 12 13  1  0
 13 14  1  0
 14 15  1  0
 15 16  2  0
 16 17  1  0
 17 18  2  0
 18 19  1  0
 18 20  1  0
 20 21  2  0
  2 22  1  0
 22 23  2  0
 23 24  1  0
 24 25  2  0
 25 26  1  0
 26 27  2  0
 27 28  1  0
 27 29  1  0
 29 30  2  0
 30 31  1  0
 31 32  2  0
 12  7  1  0
 21 15  1  0
 32 22  1  0
 31 25  1  0
  3 33  1  0
  4 34  1  0
  4 35  1  0
  8 36  1  0
  8 37  1  0
  9 38  1  0
  9 39  1  0
 10 40  1  0
 10 41  1  0
 11 42  1  0
 11 43  1  0
 12 44  1  6
 13 45  1  0
 13 46  1  0
 14 47  1  0
 16 48  1  0
 17 49  1  0
 20 50  1  0
 21 51  1  0
 23 52  1  0
 24 53  1  0
 26 54  1  0
 29 55  1  0
 30 56  1  0
M  END
>  <smiles>  (30) 
O=C(NCC(=O)N1CCCC[C@H]1CNc1ccc(Cl)cc1)c1ccc2cc(F)ccc2n1

>  <score_type>  (30) 
oracle

>  <origin>  (30) 
autodockgpu

>  <m_score__min__energy>  (30) 
-9.0600000000000005

>  <m_primary>  (30) 
energy

>  <rmsd>  (30) 
9.23721050235198

>  <m_score__min__rmsd>  (30) 
9.23721050235198

>  <meeko>  (30) 
{"free_energy": -7.91, "intermolecular_energy": -10.0, "internal_energy": -2.53, "cluster_size": 2, "cluster_id": 5, "rank_in_cluster": 1}

>  <energy>  (30) 
-7.91

>  <cluster_rmsd>  (30) 
0.96

>  <cluster>  (30) 
4

$$$$

     RDKit          3D

 56 59  0  0  0  0  0  0  0  0999 V2000
  140.0370   71.0560  221.3230 O   0  0  0  0  0  0  0  0  0  0  0  0
  139.8710   71.5970  222.4500 C   0  0  0  0  0  0  0  0  0  0  0  0
  139.7130   73.0050  222.6180 N   0  0  0  0  0  0  0  0  0  0  0  0
  139.7430   73.8660  221.4500 C   0  0  0  0  0  0  0  0  0  0  0  0
  140.9320   74.7370  221.4170 C   0  0  0  0  0  0  0  0  0  0  0  0
  141.1000   75.5660  222.3470 O   0  0  0  0  0  0  0  0  0  0  0  0
  141.8300   74.5870  220.3240 N   0  0  0  0  0  0  0  0  0  0  0  0
  141.7780   73.4560  219.4110 C   0  0  0  0  0  0  0  0  0  0  0  0
  143.0770   72.6660  219.4760 C   0  0  0  0  0  0  0  0  0  0  0  0
  144.2200   73.6210  219.3790 C   0  0  0  0  0  0  0  0  0  0  0  0
  143.7130   75.0210  218.9540 C   0  0  0  0  0  0  0  0  0  0  0  0
  142.8810   75.5860  220.0510 C   0  0  1  0  0  0  0  0  0  0  0  0
  142.2510   76.9010  219.7040 C   0  0  0  0  0  0  0  0  0  0  0  0
  142.0190   77.7520  220.8210 N   0  0  0  0  0  0  0  0  0  0  0  0
  141.7480   79.1330  220.8280 C   0  0  0  0  0  0  0  0  0  0  0  0
  141.5610   79.8140  222.0440 C   0  0  0  0  0  0  0  0  0  0  0  0
  141.2610   81.1480  222.0930 C   0  0  0  0  0  0  0  0  0  0  0  0
  141.1230   81.9040  220.9550 C   0  0  0  0  0  0  0  0  0  0  0  0
  140.7420   83.5940  221.0410 Cl  0  0  0  0  0  0  0  0  0  0  0  0
  141.3000   81.2630  219.7480 C   0  0  0  0  0  0  0  0  0  0  0  0
  141.6030   79.9180  219.7040 C   0  0  0  0  0  0  0  0  0  0  0  0
  139.8360   70.7500  223.6450 C   0  0  0  0  0  0  0  0  0  0  0  0
  139.2530   69.5000  223.6090 C   0  0  0  0  0  0  0  0  0  0  0  0
  139.2230   68.7010  224.7500 C   0  0  0  0  0  0  0  0  0  0  0  0
  139.7820   69.1520  225.9410 C   0  0  0  0  0  0  0  0  0  0  0  0
  139.7640   68.3710  227.0940 C   0  0  0  0  0  0  0  0  0  0  0  0
  140.3360   68.8660  228.2630 C   0  0  0  0  0  0  0  0  0  0  0  0
  140.3340   68.1270  229.4030 F   0  0  0  0  0  0  0  0  0  0  0  0
  140.9130   70.1150  228.2780 C   0  0  0  0  0  0  0  0  0  0  0  0
  140.9230   70.8810  227.1250 C   0  0  0  0  0  0  0  0  0  0  0  0
  140.3560   70.4080  225.9390 C   0  0  0  0  0  0  0  0  0  0  0  0
  140.3670   71.1550  224.8180 N   0  0  0  0  0  0  0  0  0  0  0  0
  139.5780   73.3750  223.5970 H   0  0  0  0  0  0  0  0  0  0  0  0
  139.7427   73.2362  220.5482 H   0  0  0  0  0  0  0  0  0  0  0  0
  138.8560   74.5152  221.4923 H   0  0  0  0  0  0  0  0  0  0  0  0
  140.9402   72.8009  219.6919 H   0  0  0  0  0  0  0  0  0  0  0  0
  141.6366   73.8292  218.3860 H   0  0  0  0  0  0  0  0  0  0  0  0
  143.1309   72.1190  220.4288 H   0  0  0  0  0  0  0  0  0  0  0  0
  143.1195   71.9434  218.6477 H   0  0  0  0  0  0  0  0  0  0  0  0
  144.7150   73.6958  220.3585 H   0  0  0  0  0  0  0  0  0  0  0  0
  144.9319   73.2532  218.6254 H   0  0  0  0  0  0  0  0  0  0  0  0
  144.5711   75.6823  218.7633 H   0  0  0  0  0  0  0  0  0  0  0  0
  143.1125   74.9371  218.0362 H   0  0  0  0  0  0  0  0  0  0  0  0
  143.5199   75.7858  220.9239 H   0  0  0  0  0  0  0  0  0  0  0  0
  142.9153   77.4268  219.0024 H   0  0  0  0  0  0  0  0  0  0  0  0
  141.2657   76.6738  219.2709 H   0  0  0  0  0  0  0  0  0  0  0  0
  142.0560   77.2840  221.7810 H   0  0  0  0  0  0  0  0  0  0  0  0
  141.6591   79.2559  222.9868 H   0  0  0  0  0  0  0  0  0  0  0  0
  141.1264   81.6291  223.0730 H   0  0  0  0  0  0  0  0  0  0  0  0
  141.1987   81.8294  218.8105 H   0  0  0  0  0  0  0  0  0  0  0  0
  141.7361   79.4464  218.7191 H   0  0  0  0  0  0  0  0  0  0  0  0
  138.8087   69.1316  222.6726 H   0  0  0  0  0  0  0  0  0  0  0  0
  138.7541   67.7068  224.7086 H   0  0  0  0  0  0  0  0  0  0  0  0
  139.3023   67.3727  227.0813 H   0  0  0  0  0  0  0  0  0  0  0  0
  141.3646   70.5034  229.2027 H   0  0  0  0  0  0  0  0  0  0  0  0
  141.3852   71.8790  227.1429 H   0  0  0  0  0  0  0  0  0  0  0  0
  1  2  2  0
  2  3  1  0
  3  4  1  0
  4  5  1  0
  5  6  2  0
  5  7  1  0
  7  8  1  0
  8  9  1  0
  9 10  1  0
 10 11  1  0
 11 12  1  0
 12 13  1  0
 13 14  1  0
 14 15  1  0
 15 16  2  0
 16 17  1  0
 17 18  2  0
 18 19  1  0
 18 20  1  0
 20 21  2  0
  2 22  1  0
 22 23  2  0
 23 24  1  0
 24 25  2  0
 25 26  1  0
 26 27  2  0
 27 28  1  0
 27 29  1  0
 29 30  2  0
 30 31  1  0
 31 32  2  0
 12  7  1  0
 21 15  1  0
 32 22  1  0
 31 25  1  0
  3 33  1  0
  4 34  1  0
  4 35  1  0
  8 36  1  0
  8 37  1  0
  9 38  1  0
  9 39  1  0
 10 40  1  0
 10 41  1  0
 11 42  1  0
 11 43  1  0
 12 44  1  1
 13 45  1  0
 13 46  1  0
 14 47  1  0
 16 48  1  0
 17 49  1  0
 20 50  1  0
 21 51  1  0
 23 52  1  0
 24 53  1  0
 26 54  1  0
 29 55  1  0
 30 56  1  0
M  END
>  <smiles>  (31) 
O=C(NCC(=O)N1CCCC[C@H]1CNc1ccc(Cl)cc1)c1ccc2cc(F)ccc2n1

>  <score_type>  (31) 
oracle

>  <origin>  (31) 
autodockgpu

>  <m_score__min__energy>  (31) 
-9.0600000000000005

>  <m_primary>  (31) 
energy

>  <rmsd>  (31) 
2.316429715544677

>  <m_score__min__rmsd>  (31) 
2.316429715544677

>  <meeko>  (31) 
{"free_energy": -8.51, "intermolecular_energy": -10.6, "internal_energy": -2.25, "cluster_size": 17, "cluster_id": 1, "rank_in_cluster": 7}

>  <energy>  (31) 
-7.9

>  <cluster_rmsd>  (31) 
1.19

>  <cluster>  (31) 
4

$$$$

     RDKit          3D

 56 59  0  0  0  0  0  0  0  0999 V2000
  141.1180   73.9530  221.0180 O   0  0  0  0  0  0  0  0  0  0  0  0
  140.2390   73.9470  221.9210 C   0  0  0  0  0  0  0  0  0  0  0  0
  139.5630   75.1270  222.3520 N   0  0  0  0  0  0  0  0  0  0  0  0
  139.8920   76.3980  221.7330 C   0  0  0  0  0  0  0  0  0  0  0  0
  139.3720   77.5510  222.4910 C   0  0  0  0  0  0  0  0  0  0  0  0
  138.2730   77.4340  223.0910 O   0  0  0  0  0  0  0  0  0  0  0  0
  140.1520   78.7410  222.5000 N   0  0  0  0  0  0  0  0  0  0  0  0
  141.3800   78.8840  221.7340 C   0  0  0  0  0  0  0  0  0  0  0  0
  142.5580   79.1250  222.6670 C   0  0  0  0  0  0  0  0  0  0  0  0
  142.1830   80.1940  223.6390 C   0  0  0  0  0  0  0  0  0  0  0  0
  140.8730   80.8880  223.1930 C   0  0  0  0  0  0  0  0  0  0  0  0
  139.7520   79.9150  223.2990 C   0  0  1  0  0  0  0  0  0  0  0  0
  138.4470   80.4510  222.7920 C   0  0  0  0  0  0  0  0  0  0  0  0
  137.3100   80.0220  223.5340 N   0  0  0  0  0  0  0  0  0  0  0  0
  136.7140   80.6340  224.6520 C   0  0  0  0  0  0  0  0  0  0  0  0
  137.4820   81.4290  225.5220 C   0  0  0  0  0  0  0  0  0  0  0  0
  136.9480   82.0120  226.6380 C   0  0  0  0  0  0  0  0  0  0  0  0
  135.6280   81.8550  226.9790 C   0  0  0  0  0  0  0  0  0  0  0  0
  134.9730   82.6040  228.4000 Cl  0  0  0  0  0  0  0  0  0  0  0  0
  134.8500   81.0800  226.1470 C   0  0  0  0  0  0  0  0  0  0  0  0
  135.3930   80.4950  225.0220 C   0  0  0  0  0  0  0  0  0  0  0  0
  139.8900   72.6770  222.5630 C   0  0  0  0  0  0  0  0  0  0  0  0
  138.9290   71.8510  222.0170 C   0  0  0  0  0  0  0  0  0  0  0  0
  138.5990   70.6450  222.6330 C   0  0  0  0  0  0  0  0  0  0  0  0
  139.2370   70.2580  223.8070 C   0  0  0  0  0  0  0  0  0  0  0  0
  138.9260   69.0570  224.4410 C   0  0  0  0  0  0  0  0  0  0  0  0
  139.5910   68.7120  225.6140 C   0  0  0  0  0  0  0  0  0  0  0  0
  139.3090   67.5470  226.2550 F   0  0  0  0  0  0  0  0  0  0  0  0
  140.5470   69.5490  226.1420 C   0  0  0  0  0  0  0  0  0  0  0  0
  140.8460   70.7400  225.5020 C   0  0  0  0  0  0  0  0  0  0  0  0
  140.1940   71.1110  224.3230 C   0  0  0  0  0  0  0  0  0  0  0  0
  140.4860   72.2690  223.7020 N   0  0  0  0  0  0  0  0  0  0  0  0
  138.8410   75.0330  223.1150 H   0  0  0  0  0  0  0  0  0  0  0  0
  140.9866   76.4847  221.6673 H   0  0  0  0  0  0  0  0  0  0  0  0
  139.4225   76.4149  220.7384 H   0  0  0  0  0  0  0  0  0  0  0  0
  141.5566   77.9648  221.1561 H   0  0  0  0  0  0  0  0  0  0  0  0
  141.2801   79.7427  221.0538 H   0  0  0  0  0  0  0  0  0  0  0  0
  142.7973   78.1983  223.2091 H   0  0  0  0  0  0  0  0  0  0  0  0
  143.4397   79.4358  222.0874 H   0  0  0  0  0  0  0  0  0  0  0  0
  142.0364   79.7460  224.6329 H   0  0  0  0  0  0  0  0  0  0  0  0
  142.9891   80.9414  223.6786 H   0  0  0  0  0  0  0  0  0  0  0  0
  140.6738   81.7531  223.8425 H   0  0  0  0  0  0  0  0  0  0  0  0
  140.9696   81.2336  222.1532 H   0  0  0  0  0  0  0  0  0  0  0  0
  139.5805   79.6747  224.3587 H   0  0  0  0  0  0  0  0  0  0  0  0
  138.4881   81.5496  222.8288 H   0  0  0  0  0  0  0  0  0  0  0  0
  138.3220   80.0621  221.7707 H   0  0  0  0  0  0  0  0  0  0  0  0
  136.8480   79.1180  223.2010 H   0  0  0  0  0  0  0  0  0  0  0  0
  138.5472   81.5870  225.2973 H   0  0  0  0  0  0  0  0  0  0  0  0
  137.5960   82.6251  227.2816 H   0  0  0  0  0  0  0  0  0  0  0  0
  133.7864   80.9264  226.3819 H   0  0  0  0  0  0  0  0  0  0  0  0
  134.7362   79.8842  224.3852 H   0  0  0  0  0  0  0  0  0  0  0  0
  138.4192   72.1466  221.0882 H   0  0  0  0  0  0  0  0  0  0  0  0
  137.8301   69.9959  222.1885 H   0  0  0  0  0  0  0  0  0  0  0  0
  138.1621   68.3877  224.0185 H   0  0  0  0  0  0  0  0  0  0  0  0
  141.0716   69.2732  227.0687 H   0  0  0  0  0  0  0  0  0  0  0  0
  141.6103   71.4059  225.9292 H   0  0  0  0  0  0  0  0  0  0  0  0
  1  2  2  0
  2  3  1  0
  3  4  1  0
  4  5  1  0
  5  6  2  0
  5  7  1  0
  7  8  1  0
  8  9  1  0
  9 10  1  0
 10 11  1  0
 11 12  1  0
 12 13  1  0
 13 14  1  0
 14 15  1  0
 15 16  2  0
 16 17  1  0
 17 18  2  0
 18 19  1  0
 18 20  1  0
 20 21  2  0
  2 22  1  0
 22 23  2  0
 23 24  1  0
 24 25  2  0
 25 26  1  0
 26 27  2  0
 27 28  1  0
 27 29  1  0
 29 30  2  0
 30 31  1  0
 31 32  2  0
 12  7  1  0
 21 15  1  0
 32 22  1  0
 31 25  1  0
  3 33  1  0
  4 34  1  0
  4 35  1  0
  8 36  1  0
  8 37  1  0
  9 38  1  0
  9 39  1  0
 10 40  1  0
 10 41  1  0
 11 42  1  0
 11 43  1  0
 12 44  1  1
 13 45  1  0
 13 46  1  0
 14 47  1  0
 16 48  1  0
 17 49  1  0
 20 50  1  0
 21 51  1  0
 23 52  1  0
 24 53  1  0
 26 54  1  0
 29 55  1  0
 30 56  1  0
M  END
>  <smiles>  (32) 
O=C(NCC(=O)N1CCCC[C@H]1CNc1ccc(Cl)cc1)c1ccc2cc(F)ccc2n1

>  <score_type>  (32) 
oracle

>  <origin>  (32) 
autodockgpu

>  <m_score__min__energy>  (32) 
-9.0600000000000005

>  <m_primary>  (32) 
energy

>  <rmsd>  (32) 
4.859828278985746

>  <m_score__min__rmsd>  (32) 
4.859828278985746

>  <meeko>  (32) 
{"free_energy": -8.27, "intermolecular_energy": -10.36, "internal_energy": -2.15, "cluster_size": 1, "cluster_id": 3, "rank_in_cluster": 1}

>  <energy>  (32) 
-7.91

>  <cluster_rmsd>  (32) 
0.0

>  <cluster>  (32) 
5

$$$$

     RDKit          3D

 56 59  0  0  0  0  0  0  0  0999 V2000
  138.6530   70.9120  221.2350 O   0  0  0  0  0  0  0  0  0  0  0  0
  139.0540   71.4750  222.2890 C   0  0  0  0  0  0  0  0  0  0  0  0
  139.2680   72.8830  222.3820 N   0  0  0  0  0  0  0  0  0  0  0  0
  139.0160   73.7160  221.2210 C   0  0  0  0  0  0  0  0  0  0  0  0
  139.7140   75.0130  221.2900 C   0  0  0  0  0  0  0  0  0  0  0  0
  140.3270   75.3130  222.3460 O   0  0  0  0  0  0  0  0  0  0  0  0
  139.6530   75.8570  220.1470 N   0  0  0  0  0  0  0  0  0  0  0  0
  138.6180   76.8630  219.9650 C   0  0  0  0  0  0  0  0  0  0  0  0
  137.7980   76.5560  218.7200 C   0  0  0  0  0  0  0  0  0  0  0  0
  138.7330   76.2690  217.5930 C   0  0  0  0  0  0  0  0  0  0  0  0
  140.1790   76.6650  217.9830 C   0  0  0  0  0  0  0  0  0  0  0  0
  140.6510   75.7580  219.0650 C   0  0  1  0  0  0  0  0  0  0  0  0
  142.0070   76.1170  219.5930 C   0  0  0  0  0  0  0  0  0  0  0  0
  141.9830   76.8880  220.7890 N   0  0  0  0  0  0  0  0  0  0  0  0
  141.8020   78.2760  220.9310 C   0  0  0  0  0  0  0  0  0  0  0  0
  141.7150   78.8540  222.2110 C   0  0  0  0  0  0  0  0  0  0  0  0
  141.5030   80.1940  222.3920 C   0  0  0  0  0  0  0  0  0  0  0  0
  141.3610   81.0560  221.3340 C   0  0  0  0  0  0  0  0  0  0  0  0
  141.0930   82.7510  221.5880 Cl  0  0  0  0  0  0  0  0  0  0  0  0
  141.4400   80.5190  220.0680 C   0  0  0  0  0  0  0  0  0  0  0  0
  141.6540   79.1680  219.8900 C   0  0  0  0  0  0  0  0  0  0  0  0
  139.3160   70.6560  223.4750 C   0  0  0  0  0  0  0  0  0  0  0  0
  138.9690   69.3210  223.5030 C   0  0  0  0  0  0  0  0  0  0  0  0
  139.2200   68.5480  224.6350 C   0  0  0  0  0  0  0  0  0  0  0  0
  139.8260   69.1130  225.7530 C   0  0  0  0  0  0  0  0  0  0  0  0
  140.0880   68.3610  226.8960 C   0  0  0  0  0  0  0  0  0  0  0  0
  140.6950   68.9700  227.9900 C   0  0  0  0  0  0  0  0  0  0  0  0
  140.9630   68.2620  229.1180 F   0  0  0  0  0  0  0  0  0  0  0  0
  141.0330   70.3030  227.9420 C   0  0  0  0  0  0  0  0  0  0  0  0
  140.7670   71.0390  226.8000 C   0  0  0  0  0  0  0  0  0  0  0  0
  140.1590   70.4520  225.6880 C   0  0  0  0  0  0  0  0  0  0  0  0
  139.9010   71.1700  224.5780 N   0  0  0  0  0  0  0  0  0  0  0  0
  139.6050   73.2720  223.3020 H   0  0  0  0  0  0  0  0  0  0  0  0
  139.3566   73.1803  220.3227 H   0  0  0  0  0  0  0  0  0  0  0  0
  137.9358   73.9210  221.1868 H   0  0  0  0  0  0  0  0  0  0  0  0
  137.9564   76.8665  220.8438 H   0  0  0  0  0  0  0  0  0  0  0  0
  139.0926   77.8484  219.8476 H   0  0  0  0  0  0  0  0  0  0  0  0
  137.1591   75.6796  218.9038 H   0  0  0  0  0  0  0  0  0  0  0  0
  137.1596   77.4159  218.4690 H   0  0  0  0  0  0  0  0  0  0  0  0
  138.7011   75.1946  217.3591 H   0  0  0  0  0  0  0  0  0  0  0  0
  138.4255   76.8542  216.7138 H   0  0  0  0  0  0  0  0  0  0  0  0
  140.8374   76.5690  217.1070 H   0  0  0  0  0  0  0  0  0  0  0  0
  140.1985   77.7071  218.3346 H   0  0  0  0  0  0  0  0  0  0  0  0
  140.7499   74.7380  218.6653 H   0  0  0  0  0  0  0  0  0  0  0  0
  142.5563   75.1855  219.7943 H   0  0  0  0  0  0  0  0  0  0  0  0
  142.4898   76.7398  218.8256 H   0  0  0  0  0  0  0  0  0  0  0  0
  142.1210   76.3450  221.6990 H   0  0  0  0  0  0  0  0  0  0  0  0
  141.8208   78.2079  223.0949 H   0  0  0  0  0  0  0  0  0  0  0  0
  141.4448   80.5916  223.4160 H   0  0  0  0  0  0  0  0  0  0  0  0
  141.3314   81.1737  219.1907 H   0  0  0  0  0  0  0  0  0  0  0  0
  141.7096   78.7812  218.8617 H   0  0  0  0  0  0  0  0  0  0  0  0
  138.4904   68.8631  222.6248 H   0  0  0  0  0  0  0  0  0  0  0  0
  138.9374   67.4850  224.6448 H   0  0  0  0  0  0  0  0  0  0  0  0
  139.8175   67.2954  226.9334 H   0  0  0  0  0  0  0  0  0  0  0  0
  141.5129   70.7822  228.8081 H   0  0  0  0  0  0  0  0  0  0  0  0
  141.0391   72.1043  226.7678 H   0  0  0  0  0  0  0  0  0  0  0  0
  1  2  2  0
  2  3  1  0
  3  4  1  0
  4  5  1  0
  5  6  2  0
  5  7  1  0
  7  8  1  0
  8  9  1  0
  9 10  1  0
 10 11  1  0
 11 12  1  0
 12 13  1  0
 13 14  1  0
 14 15  1  0
 15 16  2  0
 16 17  1  0
 17 18  2  0
 18 19  1  0
 18 20  1  0
 20 21  2  0
  2 22  1  0
 22 23  2  0
 23 24  1  0
 24 25  2  0
 25 26  1  0
 26 27  2  0
 27 28  1  0
 27 29  1  0
 29 30  2  0
 30 31  1  0
 31 32  2  0
 12  7  1  0
 21 15  1  0
 32 22  1  0
 31 25  1  0
  3 33  1  0
  4 34  1  0
  4 35  1  0
  8 36  1  0
  8 37  1  0
  9 38  1  0
  9 39  1  0
 10 40  1  0
 10 41  1  0
 11 42  1  0
 11 43  1  0
 12 44  1  6
 13 45  1  0
 13 46  1  0
 14 47  1  0
 16 48  1  0
 17 49  1  0
 20 50  1  0
 21 51  1  0
 23 52  1  0
 24 53  1  0
 26 54  1  0
 29 55  1  0
 30 56  1  0
M  END
>  <smiles>  (33) 
O=C(NCC(=O)N1CCCC[C@H]1CNc1ccc(Cl)cc1)c1ccc2cc(F)ccc2n1

>  <score_type>  (33) 
oracle

>  <origin>  (33) 
autodockgpu

>  <m_score__min__energy>  (33) 
-9.0600000000000005

>  <m_primary>  (33) 
energy

>  <rmsd>  (33) 
1.8980218165293725

>  <m_score__min__rmsd>  (33) 
1.8980218165293725

>  <meeko>  (33) 
{"free_energy": -7.66, "intermolecular_energy": -9.75, "internal_energy": -2.97, "cluster_size": 17, "cluster_id": 1, "rank_in_cluster": 12}

>  <energy>  (33) 
-7.83

>  <cluster_rmsd>  (33) 
1.38

>  <cluster>  (33) 
5

$$$$

     RDKit          3D

 56 59  0  0  0  0  0  0  0  0999 V2000
  141.2680   72.0570  221.3710 O   0  0  0  0  0  0  0  0  0  0  0  0
  140.4870   72.4360  222.2850 C   0  0  0  0  0  0  0  0  0  0  0  0
  139.8050   73.6890  222.2500 N   0  0  0  0  0  0  0  0  0  0  0  0
  140.0080   74.5760  221.1190 C   0  0  0  0  0  0  0  0  0  0  0  0
  139.4740   75.9290  221.3550 C   0  0  0  0  0  0  0  0  0  0  0  0
  138.2300   76.0780  221.4610 O   0  0  0  0  0  0  0  0  0  0  0  0
  140.4060   77.0000  221.4500 N   0  0  0  0  0  0  0  0  0  0  0  0
  140.8680   77.5320  222.7220 C   0  0  0  0  0  0  0  0  0  0  0  0
  140.4750   78.9960  222.8550 C   0  0  0  0  0  0  0  0  0  0  0  0
  140.8500   79.7050  221.5960 C   0  0  0  0  0  0  0  0  0  0  0  0
  141.7590   78.8040  220.7240 C   0  0  0  0  0  0  0  0  0  0  0  0
  140.9650   77.6400  220.2430 C   0  0  1  0  0  0  0  0  0  0  0  0
  141.7760   76.6440  219.4710 C   0  0  0  0  0  0  0  0  0  0  0  0
  142.6940   75.8970  220.2630 N   0  0  0  0  0  0  0  0  0  0  0  0
  143.3190   74.6750  219.9580 C   0  0  0  0  0  0  0  0  0  0  0  0
  144.5850   74.3710  220.4930 C   0  0  0  0  0  0  0  0  0  0  0  0
  145.2420   73.2090  220.1920 C   0  0  0  0  0  0  0  0  0  0  0  0
  144.7070   72.2690  219.3480 C   0  0  0  0  0  0  0  0  0  0  0  0
  145.5590   70.8030  218.9810 Cl  0  0  0  0  0  0  0  0  0  0  0  0
  143.4680   72.5390  218.8070 C   0  0  0  0  0  0  0  0  0  0  0  0
  142.8090   73.7120  219.1130 C   0  0  0  0  0  0  0  0  0  0  0  0
  140.2640   71.5600  223.4380 C   0  0  0  0  0  0  0  0  0  0  0  0
  139.6090   70.3550  223.2930 C   0  0  0  0  0  0  0  0  0  0  0  0
  139.3990   69.5260  224.3940 C   0  0  0  0  0  0  0  0  0  0  0  0
  139.8490   69.9040  225.6550 C   0  0  0  0  0  0  0  0  0  0  0  0
  139.6520   69.0930  226.7700 C   0  0  0  0  0  0  0  0  0  0  0  0
  140.1190   69.5140  228.0120 C   0  0  0  0  0  0  0  0  0  0  0  0
  139.9420   68.7450  229.1170 F   0  0  0  0  0  0  0  0  0  0  0  0
  140.7710   70.7200  228.1360 C   0  0  0  0  0  0  0  0  0  0  0  0
  140.9600   71.5160  227.0190 C   0  0  0  0  0  0  0  0  0  0  0  0
  140.5010   71.1180  225.7610 C   0  0  0  0  0  0  0  0  0  0  0  0
  140.6850   71.8940  224.6760 N   0  0  0  0  0  0  0  0  0  0  0  0
  139.1690   73.9290  223.0570 H   0  0  0  0  0  0  0  0  0  0  0  0
  141.0874   74.6531  220.9214 H   0  0  0  0  0  0  0  0  0  0  0  0
  139.4671   74.1500  220.2611 H   0  0  0  0  0  0  0  0  0  0  0  0
  140.4128   76.9579  223.5425 H   0  0  0  0  0  0  0  0  0  0  0  0
  141.9639   77.4497  222.7679 H   0  0  0  0  0  0  0  0  0  0  0  0
  139.3898   79.0754  223.0161 H   0  0  0  0  0  0  0  0  0  0  0  0
  140.9959   79.4491  223.7114 H   0  0  0  0  0  0  0  0  0  0  0  0
  139.9379   79.9533  221.0336 H   0  0  0  0  0  0  0  0  0  0  0  0
  141.3963   80.6249  221.8517 H   0  0  0  0  0  0  0  0  0  0  0  0
  142.1313   79.3783  219.8628 H   0  0  0  0  0  0  0  0  0  0  0  0
  142.6149   78.4515  221.3183 H   0  0  0  0  0  0  0  0  0  0  0  0
  140.1901   77.9924  219.5463 H   0  0  0  0  0  0  0  0  0  0  0  0
  141.0851   75.9383  218.9866 H   0  0  0  0  0  0  0  0  0  0  0  0
  142.3762   77.2176  218.7493 H   0  0  0  0  0  0  0  0  0  0  0  0
  142.9410   76.3180  221.2140 H   0  0  0  0  0  0  0  0  0  0  0  0
  145.0615   75.0907  221.1749 H   0  0  0  0  0  0  0  0  0  0  0  0
  146.2291   73.0229  220.6404 H   0  0  0  0  0  0  0  0  0  0  0  0
  143.0007   71.8130  218.1255 H   0  0  0  0  0  0  0  0  0  0  0  0
  141.8231   73.8885  218.6581 H   0  0  0  0  0  0  0  0  0  0  0  0
  139.2493   70.0455  222.3006 H   0  0  0  0  0  0  0  0  0  0  0  0
  138.8746   68.5677  224.2650 H   0  0  0  0  0  0  0  0  0  0  0  0
  139.1322   68.1287  226.6702 H   0  0  0  0  0  0  0  0  0  0  0  0
  141.1402   71.0499  229.1183 H   0  0  0  0  0  0  0  0  0  0  0  0
  141.4810   72.4791  227.1240 H   0  0  0  0  0  0  0  0  0  0  0  0
  1  2  2  0
  2  3  1  0
  3  4  1  0
  4  5  1  0
  5  6  2  0
  5  7  1  0
  7  8  1  0
  8  9  1  0
  9 10  1  0
 10 11  1  0
 11 12  1  0
 12 13  1  0
 13 14  1  0
 14 15  1  0
 15 16  2  0
 16 17  1  0
 17 18  2  0
 18 19  1  0
 18 20  1  0
 20 21  2  0
  2 22  1  0
 22 23  2  0
 23 24  1  0
 24 25  2  0
 25 26  1  0
 26 27  2  0
 27 28  1  0
 27 29  1  0
 29 30  2  0
 30 31  1  0
 31 32  2  0
 12  7  1  0
 21 15  1  0
 32 22  1  0
 31 25  1  0
  3 33  1  0
  4 34  1  0
  4 35  1  0
  8 36  1  0
  8 37  1  0
  9 38  1  0
  9 39  1  0
 10 40  1  0
 10 41  1  0
 11 42  1  0
 11 43  1  0
 12 44  1  6
 13 45  1  0
 13 46  1  0
 14 47  1  0
 16 48  1  0
 17 49  1  0
 20 50  1  0
 21 51  1  0
 23 52  1  0
 24 53  1  0
 26 54  1  0
 29 55  1  0
 30 56  1  0
M  END
>  <smiles>  (34) 
O=C(NCC(=O)N1CCCC[C@H]1CNc1ccc(Cl)cc1)c1ccc2cc(F)ccc2n1

>  <score_type>  (34) 
oracle

>  <origin>  (34) 
autodockgpu

>  <m_score__min__energy>  (34) 
-9.0600000000000005

>  <m_primary>  (34) 
energy

>  <rmsd>  (34) 
4.510133269505581

>  <m_score__min__rmsd>  (34) 
4.510133269505581

>  <meeko>  (34) 
{"free_energy": -8.96, "intermolecular_energy": -11.05, "internal_energy": -1.93, "cluster_size": 10, "cluster_id": 2, "rank_in_cluster": 1}

>  <energy>  (34) 
-7.72

>  <cluster_rmsd>  (34) 
0.0

>  <cluster>  (34) 
6

$$$$

     RDKit          3D

 56 59  0  0  0  0  0  0  0  0999 V2000
  141.3760   72.1010  221.7740 O   0  0  0  0  0  0  0  0  0  0  0  0
  140.3830   72.2520  222.5350 C   0  0  0  0  0  0  0  0  0  0  0  0
  139.4130   73.2810  222.3490 N   0  0  0  0  0  0  0  0  0  0  0  0
  139.5620   74.2030  221.2370 C   0  0  0  0  0  0  0  0  0  0  0  0
  140.8050   74.9910  221.3150 C   0  0  0  0  0  0  0  0  0  0  0  0
  140.9930   75.7260  222.3190 O   0  0  0  0  0  0  0  0  0  0  0  0
  141.7300   74.8740  220.2410 N   0  0  0  0  0  0  0  0  0  0  0  0
  141.6500   73.8160  219.2450 C   0  0  0  0  0  0  0  0  0  0  0  0
  142.9050   72.9560  219.2890 C   0  0  0  0  0  0  0  0  0  0  0  0
  144.0970   73.8530  219.2970 C   0  0  0  0  0  0  0  0  0  0  0  0
  143.6760   75.3050  218.9620 C   0  0  0  0  0  0  0  0  0  0  0  0
  142.8390   75.8330  220.0740 C   0  0  1  0  0  0  0  0  0  0  0  0
  142.2880   77.2010  219.8070 C   0  0  0  0  0  0  0  0  0  0  0  0
  142.0690   77.9820  220.9770 N   0  0  0  0  0  0  0  0  0  0  0  0
  141.7190   79.3420  221.0680 C   0  0  0  0  0  0  0  0  0  0  0  0
  141.4220   80.0790  219.9070 C   0  0  0  0  0  0  0  0  0  0  0  0
  141.1120   81.4100  219.9490 C   0  0  0  0  0  0  0  0  0  0  0  0
  141.0730   82.1100  221.1300 C   0  0  0  0  0  0  0  0  0  0  0  0
  140.6780   83.7990  221.1590 Cl  0  0  0  0  0  0  0  0  0  0  0  0
  141.3610   81.4150  222.2840 C   0  0  0  0  0  0  0  0  0  0  0  0
  141.6730   80.0720  222.2360 C   0  0  0  0  0  0  0  0  0  0  0  0
  140.2100   71.3360  223.6650 C   0  0  0  0  0  0  0  0  0  0  0  0
  139.5430   70.1380  223.5080 C   0  0  0  0  0  0  0  0  0  0  0  0
  139.3800   69.2710  224.5860 C   0  0  0  0  0  0  0  0  0  0  0  0
  139.8890   69.6030  225.8380 C   0  0  0  0  0  0  0  0  0  0  0  0
  139.7390   68.7520  226.9320 C   0  0  0  0  0  0  0  0  0  0  0  0
  140.2650   69.1270  228.1650 C   0  0  0  0  0  0  0  0  0  0  0  0
  140.1350   68.3190  229.2490 F   0  0  0  0  0  0  0  0  0  0  0  0
  140.9270   70.3260  228.3020 C   0  0  0  0  0  0  0  0  0  0  0  0
  141.0680   71.1620  227.2060 C   0  0  0  0  0  0  0  0  0  0  0  0
  140.5500   70.8100  225.9580 C   0  0  0  0  0  0  0  0  0  0  0  0
  140.6880   71.6240  224.8940 N   0  0  0  0  0  0  0  0  0  0  0  0
  138.6120   73.3370  223.0330 H   0  0  0  0  0  0  0  0  0  0  0  0
  139.5689   73.6265  220.3002 H   0  0  0  0  0  0  0  0  0  0  0  0
  138.7184   74.9080  221.2742 H   0  0  0  0  0  0  0  0  0  0  0  0
  140.7714   73.1874  219.4525 H   0  0  0  0  0  0  0  0  0  0  0  0
  141.5605   74.2692  218.2467 H   0  0  0  0  0  0  0  0  0  0  0  0
  142.8996   72.3389  220.1996 H   0  0  0  0  0  0  0  0  0  0  0  0
  142.9383   72.2948  218.4105 H   0  0  0  0  0  0  0  0  0  0  0  0
  144.5621   73.8303  220.2936 H   0  0  0  0  0  0  0  0  0  0  0  0
  144.8142   73.5035  218.5397 H   0  0  0  0  0  0  0  0  0  0  0  0
  144.5724   75.9317  218.8448 H   0  0  0  0  0  0  0  0  0  0  0  0
  143.1017   75.3196  218.0239 H   0  0  0  0  0  0  0  0  0  0  0  0
  143.4585   75.9352  220.9772 H   0  0  0  0  0  0  0  0  0  0  0  0
  142.9981   77.7387  219.1616 H   0  0  0  0  0  0  0  0  0  0  0  0
  141.3050   77.0584  219.3344 H   0  0  0  0  0  0  0  0  0  0  0  0
  142.1850   77.4720  221.9080 H   0  0  0  0  0  0  0  0  0  0  0  0
  141.4398   79.5675  218.9333 H   0  0  0  0  0  0  0  0  0  0  0  0
  140.8872   81.9357  219.0092 H   0  0  0  0  0  0  0  0  0  0  0  0
  141.3420   81.9357  223.2528 H   0  0  0  0  0  0  0  0  0  0  0  0
  141.8972   79.5559  223.1812 H   0  0  0  0  0  0  0  0  0  0  0  0
  139.1365   69.8654  222.5229 H   0  0  0  0  0  0  0  0  0  0  0  0
  138.8463   68.3192  224.4470 H   0  0  0  0  0  0  0  0  0  0  0  0
  139.2102   67.7937  226.8219 H   0  0  0  0  0  0  0  0  0  0  0  0
  141.3424   70.6193  229.2774 H   0  0  0  0  0  0  0  0  0  0  0  0
  141.5971   72.1195  227.3211 H   0  0  0  0  0  0  0  0  0  0  0  0
  1  2  2  0
  2  3  1  0
  3  4  1  0
  4  5  1  0
  5  6  2  0
  5  7  1  0
  7  8  1  0
  8  9  1  0
  9 10  1  0
 10 11  1  0
 11 12  1  0
 12 13  1  0
 13 14  1  0
 14 15  1  0
 15 16  2  0
 16 17  1  0
 17 18  2  0
 18 19  1  0
 18 20  1  0
 20 21  2  0
  2 22  1  0
 22 23  2  0
 23 24  1  0
 24 25  2  0
 25 26  1  0
 26 27  2  0
 27 28  1  0
 27 29  1  0
 29 30  2  0
 30 31  1  0
 31 32  2  0
 12  7  1  0
 21 15  1  0
 32 22  1  0
 31 25  1  0
  3 33  1  0
  4 34  1  0
  4 35  1  0
  8 36  1  0
  8 37  1  0
  9 38  1  0
  9 39  1  0
 10 40  1  0
 10 41  1  0
 11 42  1  0
 11 43  1  0
 12 44  1  1
 13 45  1  0
 13 46  1  0
 14 47  1  0
 16 48  1  0
 17 49  1  0
 20 50  1  0
 21 51  1  0
 23 52  1  0
 24 53  1  0
 26 54  1  0
 29 55  1  0
 30 56  1  0
M  END
>  <smiles>  (35) 
O=C(NCC(=O)N1CCCC[C@H]1CNc1ccc(Cl)cc1)c1ccc2cc(F)ccc2n1

>  <score_type>  (35) 
oracle

>  <origin>  (35) 
autodockgpu

>  <m_score__min__energy>  (35) 
-9.0600000000000005

>  <m_primary>  (35) 
energy

>  <rmsd>  (35) 
2.082184969031482

>  <m_score__min__rmsd>  (35) 
2.082184969031482

>  <meeko>  (35) 
{"free_energy": -8.8, "intermolecular_energy": -10.89, "internal_energy": -2.11, "cluster_size": 17, "cluster_id": 1, "rank_in_cluster": 4}

>  <energy>  (35) 
-7.62

>  <cluster_rmsd>  (35) 
0.9

>  <cluster>  (35) 
6

$$$$

     RDKit          3D

 56 59  0  0  0  0  0  0  0  0999 V2000
  140.6820   73.3790  222.3320 O   0  0  0  0  0  0  0  0  0  0  0  0
  139.7320   72.5750  222.5330 C   0  0  0  0  0  0  0  0  0  0  0  0
  138.5450   72.5650  221.7420 N   0  0  0  0  0  0  0  0  0  0  0  0
  138.4110   73.5170  220.6530 C   0  0  0  0  0  0  0  0  0  0  0  0
  138.6370   74.9080  221.0840 C   0  0  0  0  0  0  0  0  0  0  0  0
  138.6420   75.1670  222.3150 O   0  0  0  0  0  0  0  0  0  0  0  0
  138.8380   75.8880  220.0730 N   0  0  0  0  0  0  0  0  0  0  0  0
  137.9620   77.0370  219.9030 C   0  0  0  0  0  0  0  0  0  0  0  0
  137.3010   76.9970  218.5320 C   0  0  0  0  0  0  0  0  0  0  0  0
  138.3510   76.7300  217.5060 C   0  0  0  0  0  0  0  0  0  0  0  0
  139.7600   76.8800  218.1290 C   0  0  0  0  0  0  0  0  0  0  0  0
  139.9650   75.7920  219.1240 C   0  0  1  0  0  0  0  0  0  0  0  0
  141.2620   75.9010  219.8670 C   0  0  0  0  0  0  0  0  0  0  0  0
  141.1250   76.2910  221.2290 N   0  0  0  0  0  0  0  0  0  0  0  0
  141.4150   77.5370  221.8150 C   0  0  0  0  0  0  0  0  0  0  0  0
  141.3140   77.7080  223.2080 C   0  0  0  0  0  0  0  0  0  0  0  0
  141.5520   78.9120  223.8130 C   0  0  0  0  0  0  0  0  0  0  0  0
  141.9030   80.0280  223.0960 C   0  0  0  0  0  0  0  0  0  0  0  0
  142.2000   81.5450  223.8840 Cl  0  0  0  0  0  0  0  0  0  0  0  0
  142.0070   79.8920  221.7280 C   0  0  0  0  0  0  0  0  0  0  0  0
  141.7670   78.6760  221.1230 C   0  0  0  0  0  0  0  0  0  0  0  0
  139.8420   71.6050  223.6250 C   0  0  0  0  0  0  0  0  0  0  0  0
  139.4450   70.2950  223.4500 C   0  0  0  0  0  0  0  0  0  0  0  0
  139.5500   69.3780  224.4930 C   0  0  0  0  0  0  0  0  0  0  0  0
  140.0590   69.7700  225.7260 C   0  0  0  0  0  0  0  0  0  0  0  0
  140.1750   68.8710  226.7840 C   0  0  0  0  0  0  0  0  0  0  0  0
  140.6900   69.3110  228.0010 C   0  0  0  0  0  0  0  0  0  0  0  0
  140.8150   68.4570  229.0500 F   0  0  0  0  0  0  0  0  0  0  0  0
  141.0810   70.6210  228.1560 C   0  0  0  0  0  0  0  0  0  0  0  0
  140.9600   71.5040  227.0960 C   0  0  0  0  0  0  0  0  0  0  0  0
  140.4460   71.0890  225.8650 C   0  0  0  0  0  0  0  0  0  0  0  0
  140.3290   71.9490  224.8360 N   0  0  0  0  0  0  0  0  0  0  0  0
  137.7980   71.8590  221.9780 H   0  0  0  0  0  0  0  0  0  0  0  0
  139.1455   73.2661  219.8736 H   0  0  0  0  0  0  0  0  0  0  0  0
  137.3797   73.4487  220.2764 H   0  0  0  0  0  0  0  0  0  0  0  0
  137.1850   77.0197  220.6815 H   0  0  0  0  0  0  0  0  0  0  0  0
  138.5579   77.9578  219.9870 H   0  0  0  0  0  0  0  0  0  0  0  0
  136.5466   76.1969  218.5073 H   0  0  0  0  0  0  0  0  0  0  0  0
  136.8075   77.9579  218.3241 H   0  0  0  0  0  0  0  0  0  0  0  0
  138.2311   75.7063  217.1217 H   0  0  0  0  0  0  0  0  0  0  0  0
  138.2430   77.4550  216.6858 H   0  0  0  0  0  0  0  0  0  0  0  0
  140.5226   76.8071  217.3396 H   0  0  0  0  0  0  0  0  0  0  0  0
  139.8468   77.8588  218.6235 H   0  0  0  0  0  0  0  0  0  0  0  0
  140.0046   74.8252  218.6008 H   0  0  0  0  0  0  0  0  0  0  0  0
  141.7594   74.9203  219.8377 H   0  0  0  0  0  0  0  0  0  0  0  0
  141.8447   76.6906  219.3700 H   0  0  0  0  0  0  0  0  0  0  0  0
  140.7540   75.5420  221.8960 H   0  0  0  0  0  0  0  0  0  0  0  0
  141.0346   76.8456  223.8310 H   0  0  0  0  0  0  0  0  0  0  0  0
  141.4592   78.9875  224.9065 H   0  0  0  0  0  0  0  0  0  0  0  0
  142.2839   80.7612  221.1134 H   0  0  0  0  0  0  0  0  0  0  0  0
  141.8616   78.6116  220.0290 H   0  0  0  0  0  0  0  0  0  0  0  0
  139.0423   69.9723  222.4786 H   0  0  0  0  0  0  0  0  0  0  0  0
  139.2283   68.3372  224.3403 H   0  0  0  0  0  0  0  0  0  0  0  0
  139.8628   67.8236  226.6594 H   0  0  0  0  0  0  0  0  0  0  0  0
  141.4881   70.9656  229.1180 H   0  0  0  0  0  0  0  0  0  0  0  0
  141.2741   72.5502  227.2255 H   0  0  0  0  0  0  0  0  0  0  0  0
  1  2  2  0
  2  3  1  0
  3  4  1  0
  4  5  1  0
  5  6  2  0
  5  7  1  0
  7  8  1  0
  8  9  1  0
  9 10  1  0
 10 11  1  0
 11 12  1  0
 12 13  1  0
 13 14  1  0
 14 15  1  0
 15 16  2  0
 16 17  1  0
 17 18  2  0
 18 19  1  0
 18 20  1  0
 20 21  2  0
  2 22  1  0
 22 23  2  0
 23 24  1  0
 24 25  2  0
 25 26  1  0
 26 27  2  0
 27 28  1  0
 27 29  1  0
 29 30  2  0
 30 31  1  0
 31 32  2  0
 12  7  1  0
 21 15  1  0
 32 22  1  0
 31 25  1  0
  3 33  1  0
  4 34  1  0
  4 35  1  0
  8 36  1  0
  8 37  1  0
  9 38  1  0
  9 39  1  0
 10 40  1  0
 10 41  1  0
 11 42  1  0
 11 43  1  0
 12 44  1  6
 13 45  1  0
 13 46  1  0
 14 47  1  0
 16 48  1  0
 17 49  1  0
 20 50  1  0
 21 51  1  0
 23 52  1  0
 24 53  1  0
 26 54  1  0
 29 55  1  0
 30 56  1  0
M  END
>  <smiles>  (36) 
O=C(NCC(=O)N1CCCC[C@H]1CNc1ccc(Cl)cc1)c1ccc2cc(F)ccc2n1

>  <score_type>  (36) 
oracle

>  <origin>  (36) 
autodockgpu

>  <m_score__min__energy>  (36) 
-9.0600000000000005

>  <m_primary>  (36) 
energy

>  <rmsd>  (36) 
2.3504185613823814

>  <m_score__min__rmsd>  (36) 
2.3504185613823814

>  <meeko>  (36) 
{"free_energy": -7.55, "intermolecular_energy": -9.64, "internal_energy": -2.85, "cluster_size": 17, "cluster_id": 1, "rank_in_cluster": 15}

>  <energy>  (36) 
-7.61

>  <cluster_rmsd>  (36) 
0.89

>  <cluster>  (36) 
6

$$$$

     RDKit          3D

 56 59  0  0  0  0  0  0  0  0999 V2000
  140.5460   71.2310  221.3770 O   0  0  0  0  0  0  0  0  0  0  0  0
  140.0670   71.7110  222.4400 C   0  0  0  0  0  0  0  0  0  0  0  0
  139.5960   73.0540  222.5400 N   0  0  0  0  0  0  0  0  0  0  0  0
  139.6630   73.9170  221.3750 C   0  0  0  0  0  0  0  0  0  0  0  0
  140.8530   74.7870  221.3810 C   0  0  0  0  0  0  0  0  0  0  0  0
  141.0020   75.6010  222.3280 O   0  0  0  0  0  0  0  0  0  0  0  0
  141.7740   74.6540  220.3050 N   0  0  0  0  0  0  0  0  0  0  0  0
  141.7250   73.5510  219.3580 C   0  0  0  0  0  0  0  0  0  0  0  0
  143.0100   72.7380  219.4300 C   0  0  0  0  0  0  0  0  0  0  0  0
  144.1690   73.6760  219.3870 C   0  0  0  0  0  0  0  0  0  0  0  0
  143.6950   75.0960  218.9910 C   0  0  0  0  0  0  0  0  0  0  0  0
  142.8470   75.6430  220.0850 C   0  0  1  0  0  0  0  0  0  0  0  0
  142.2460   76.9780  219.7620 C   0  0  0  0  0  0  0  0  0  0  0  0
  142.0400   77.8160  220.8940 N   0  0  0  0  0  0  0  0  0  0  0  0
  141.7490   79.1920  220.9220 C   0  0  0  0  0  0  0  0  0  0  0  0
  141.5530   79.8530  222.1490 C   0  0  0  0  0  0  0  0  0  0  0  0
  141.2330   81.1810  222.2180 C   0  0  0  0  0  0  0  0  0  0  0  0
  141.0820   81.9510  221.0910 C   0  0  0  0  0  0  0  0  0  0  0  0
  140.6760   83.6340  221.2030 Cl  0  0  0  0  0  0  0  0  0  0  0  0
  141.2660   81.3320  219.8740 C   0  0  0  0  0  0  0  0  0  0  0  0
  141.5890   79.9920  219.8100 C   0  0  0  0  0  0  0  0  0  0  0  0
  139.9880   70.8600  223.6300 C   0  0  0  0  0  0  0  0  0  0  0  0
  139.3840   69.6210  223.5740 C   0  0  0  0  0  0  0  0  0  0  0  0
  139.3110   68.8180  224.7100 C   0  0  0  0  0  0  0  0  0  0  0  0
  139.8480   69.2540  225.9170 C   0  0  0  0  0  0  0  0  0  0  0  0
  139.7880   68.4690  227.0660 C   0  0  0  0  0  0  0  0  0  0  0  0
  140.3390   68.9490  228.2510 C   0  0  0  0  0  0  0  0  0  0  0  0
  140.2960   68.2060  229.3870 F   0  0  0  0  0  0  0  0  0  0  0  0
  140.9380   70.1880  228.2860 C   0  0  0  0  0  0  0  0  0  0  0  0
  140.9900   70.9580  227.1360 C   0  0  0  0  0  0  0  0  0  0  0  0
  140.4450   70.5000  225.9340 C   0  0  0  0  0  0  0  0  0  0  0  0
  140.4970   71.2510  224.8180 N   0  0  0  0  0  0  0  0  0  0  0  0
  139.2110   73.3750  223.4680 H   0  0  0  0  0  0  0  0  0  0  0  0
  139.6905   73.2888  220.4725 H   0  0  0  0  0  0  0  0  0  0  0  0
  138.7755   74.5667  221.3905 H   0  0  0  0  0  0  0  0  0  0  0  0
  140.8705   72.9020  219.6002 H   0  0  0  0  0  0  0  0  0  0  0  0
  141.6132   73.9559  218.3413 H   0  0  0  0  0  0  0  0  0  0  0  0
  143.0329   72.1632  220.3676 H   0  0  0  0  0  0  0  0  0  0  0  0
  143.0605   72.0387  218.5824 H   0  0  0  0  0  0  0  0  0  0  0  0
  144.6419   73.7146  220.3794 H   0  0  0  0  0  0  0  0  0  0  0  0
  144.8922   73.3181  218.6394 H   0  0  0  0  0  0  0  0  0  0  0  0
  144.5680   75.7479  218.8392 H   0  0  0  0  0  0  0  0  0  0  0  0
  143.1150   75.0488  218.0576 H   0  0  0  0  0  0  0  0  0  0  0  0
  143.4687   75.8070  220.9776 H   0  0  0  0  0  0  0  0  0  0  0  0
  142.9187   77.4993  219.0651 H   0  0  0  0  0  0  0  0  0  0  0  0
  141.2535   76.7810  219.3306 H   0  0  0  0  0  0  0  0  0  0  0  0
  142.1170   77.3410  221.8490 H   0  0  0  0  0  0  0  0  0  0  0  0
  141.6607   79.2827  223.0834 H   0  0  0  0  0  0  0  0  0  0  0  0
  141.0925   81.6458  223.2050 H   0  0  0  0  0  0  0  0  0  0  0  0
  141.1545   81.9110  218.9454 H   0  0  0  0  0  0  0  0  0  0  0  0
  141.7264   79.5370  218.8180 H   0  0  0  0  0  0  0  0  0  0  0  0
  138.9568   69.2644  222.6251 H   0  0  0  0  0  0  0  0  0  0  0  0
  138.8255   67.8326  224.6522 H   0  0  0  0  0  0  0  0  0  0  0  0
  139.3096   67.4789  227.0374 H   0  0  0  0  0  0  0  0  0  0  0  0
  141.3734   70.5648  229.2232 H   0  0  0  0  0  0  0  0  0  0  0  0
  141.4689   71.9477  227.1697 H   0  0  0  0  0  0  0  0  0  0  0  0
  1  2  2  0
  2  3  1  0
  3  4  1  0
  4  5  1  0
  5  6  2  0
  5  7  1  0
  7  8  1  0
  8  9  1  0
  9 10  1  0
 10 11  1  0
 11 12  1  0
 12 13  1  0
 13 14  1  0
 14 15  1  0
 15 16  2  0
 16 17  1  0
 17 18  2  0
 18 19  1  0
 18 20  1  0
 20 21  2  0
  2 22  1  0
 22 23  2  0
 23 24  1  0
 24 25  2  0
 25 26  1  0
 26 27  2  0
 27 28  1  0
 27 29  1  0
 29 30  2  0
 30 31  1  0
 31 32  2  0
 12  7  1  0
 21 15  1  0
 32 22  1  0
 31 25  1  0
  3 33  1  0
  4 34  1  0
  4 35  1  0
  8 36  1  0
  8 37  1  0
  9 38  1  0
  9 39  1  0
 10 40  1  0
 10 41  1  0
 11 42  1  0
 11 43  1  0
 12 44  1  1
 13 45  1  0
 13 46  1  0
 14 47  1  0
 16 48  1  0
 17 49  1  0
 20 50  1  0
 21 51  1  0
 23 52  1  0
 24 53  1  0
 26 54  1  0
 29 55  1  0
 30 56  1  0
M  END
>  <smiles>  (37) 
O=C(NCC(=O)N1CCCC[C@H]1CNc1ccc(Cl)cc1)c1ccc2cc(F)ccc2n1

>  <score_type>  (37) 
oracle

>  <origin>  (37) 
autodockgpu

>  <m_score__min__energy>  (37) 
-9.0600000000000005

>  <m_primary>  (37) 
energy

>  <rmsd>  (37) 
2.2826076894325253

>  <m_score__min__rmsd>  (37) 
2.2826076894325253

>  <meeko>  (37) 
{"free_energy": -8.65, "intermolecular_energy": -10.74, "internal_energy": -2.18, "cluster_size": 17, "cluster_id": 1, "rank_in_cluster": 5}

>  <energy>  (37) 
-7.46

>  <cluster_rmsd>  (37) 
0.97

>  <cluster>  (37) 
6

$$$$

     RDKit          3D

 56 59  0  0  0  0  0  0  0  0999 V2000
  139.8160   71.3230  220.9100 O   0  0  0  0  0  0  0  0  0  0  0  0
  139.6620   71.8980  222.0210 C   0  0  0  0  0  0  0  0  0  0  0  0
  139.3640   73.2890  222.1390 N   0  0  0  0  0  0  0  0  0  0  0  0
  139.2280   74.0890  220.9350 C   0  0  0  0  0  0  0  0  0  0  0  0
  140.3520   73.9040  220.0000 C   0  0  0  0  0  0  0  0  0  0  0  0
  140.2230   73.0860  219.0530 O   0  0  0  0  0  0  0  0  0  0  0  0
  141.5310   74.6690  220.2250 N   0  0  0  0  0  0  0  0  0  0  0  0
  141.5080   75.9870  220.8400 C   0  0  0  0  0  0  0  0  0  0  0  0
  142.0470   77.0290  219.8700 C   0  0  0  0  0  0  0  0  0  0  0  0
  143.3260   76.5230  219.2900 C   0  0  0  0  0  0  0  0  0  0  0  0
  143.8140   75.2800  220.0730 C   0  0  0  0  0  0  0  0  0  0  0  0
  142.8610   74.1600  219.8410 C   0  0  1  0  0  0  0  0  0  0  0  0
  143.1820   72.9310  220.6380 C   0  0  0  0  0  0  0  0  0  0  0  0
  142.7160   71.7180  220.0560 N   0  0  0  0  0  0  0  0  0  0  0  0
  143.4560   70.5710  219.7140 C   0  0  0  0  0  0  0  0  0  0  0  0
  142.8400   69.3070  219.6990 C   0  0  0  0  0  0  0  0  0  0  0  0
  143.5320   68.1630  219.4070 C   0  0  0  0  0  0  0  0  0  0  0  0
  144.8720   68.1800  219.1120 C   0  0  0  0  0  0  0  0  0  0  0  0
  145.7290   66.7180  218.7460 Cl  0  0  0  0  0  0  0  0  0  0  0  0
  145.5040   69.4050  219.1210 C   0  0  0  0  0  0  0  0  0  0  0  0
  144.8010   70.5560  219.4150 C   0  0  0  0  0  0  0  0  0  0  0  0
  139.7950   71.1140  223.2510 C   0  0  0  0  0  0  0  0  0  0  0  0
  139.4290   69.7840  223.2840 C   0  0  0  0  0  0  0  0  0  0  0  0
  139.5560   69.0440  224.4570 C   0  0  0  0  0  0  0  0  0  0  0  0
  140.0550   69.6370  225.6130 C   0  0  0  0  0  0  0  0  0  0  0  0
  140.1920   68.9170  226.7980 C   0  0  0  0  0  0  0  0  0  0  0  0
  140.6950   69.5540  227.9290 C   0  0  0  0  0  0  0  0  0  0  0  0
  140.8400   68.8780  229.0990 F   0  0  0  0  0  0  0  0  0  0  0  0
  141.0540   70.8820  227.8760 C   0  0  0  0  0  0  0  0  0  0  0  0
  140.9130   71.5850  226.6920 C   0  0  0  0  0  0  0  0  0  0  0  0
  140.4100   70.9700  225.5420 C   0  0  0  0  0  0  0  0  0  0  0  0
  140.2730   71.6560  224.3910 N   0  0  0  0  0  0  0  0  0  0  0  0
  139.2510   73.6910  223.1070 H   0  0  0  0  0  0  0  0  0  0  0  0
  138.2958   73.8031  220.4258 H   0  0  0  0  0  0  0  0  0  0  0  0
  139.2179   75.1465  221.2378 H   0  0  0  0  0  0  0  0  0  0  0  0
  140.4732   76.2436  221.1109 H   0  0  0  0  0  0  0  0  0  0  0  0
  142.1396   75.9741  221.7405 H   0  0  0  0  0  0  0  0  0  0  0  0
  141.3167   77.1989  219.0651 H   0  0  0  0  0  0  0  0  0  0  0  0
  142.2230   77.9781  220.3975 H   0  0  0  0  0  0  0  0  0  0  0  0
  143.1639   76.2485  218.2372 H   0  0  0  0  0  0  0  0  0  0  0  0
  144.0885   77.3128  219.3594 H   0  0  0  0  0  0  0  0  0  0  0  0
  144.8156   74.9916  219.7213 H   0  0  0  0  0  0  0  0  0  0  0  0
  143.8631   75.5115  221.1472 H   0  0  0  0  0  0  0  0  0  0  0  0
  142.9139   73.8509  218.7867 H   0  0  0  0  0  0  0  0  0  0  0  0
  144.2749   72.8648  220.7442 H   0  0  0  0  0  0  0  0  0  0  0  0
  142.6648   73.0369  221.6030 H   0  0  0  0  0  0  0  0  0  0  0  0
  141.6680   71.6700  219.8500 H   0  0  0  0  0  0  0  0  0  0  0  0
  141.7668   69.2354  219.9295 H   0  0  0  0  0  0  0  0  0  0  0  0
  142.9981   67.2012  219.4088 H   0  0  0  0  0  0  0  0  0  0  0  0
  146.5781   69.4659  218.8919 H   0  0  0  0  0  0  0  0  0  0  0  0
  145.3437   71.5128  219.4103 H   0  0  0  0  0  0  0  0  0  0  0  0
  139.0337   69.3043  222.3765 H   0  0  0  0  0  0  0  0  0  0  0  0
  139.2602   67.9846  224.4699 H   0  0  0  0  0  0  0  0  0  0  0  0
  139.9055   67.8558  226.8394 H   0  0  0  0  0  0  0  0  0  0  0  0
  141.4514   71.3826  228.7713 H   0  0  0  0  0  0  0  0  0  0  0  0
  141.2017   72.6458  226.6555 H   0  0  0  0  0  0  0  0  0  0  0  0
  1  2  2  0
  2  3  1  0
  3  4  1  0
  4  5  1  0
  5  6  2  0
  5  7  1  0
  7  8  1  0
  8  9  1  0
  9 10  1  0
 10 11  1  0
 11 12  1  0
 12 13  1  0
 13 14  1  0
 14 15  1  0
 15 16  2  0
 16 17  1  0
 17 18  2  0
 18 19  1  0
 18 20  1  0
 20 21  2  0
  2 22  1  0
 22 23  2  0
 23 24  1  0
 24 25  2  0
 25 26  1  0
 26 27  2  0
 27 28  1  0
 27 29  1  0
 29 30  2  0
 30 31  1  0
 31 32  2  0
 12  7  1  0
 21 15  1  0
 32 22  1  0
 31 25  1  0
  3 33  1  0
  4 34  1  0
  4 35  1  0
  8 36  1  0
  8 37  1  0
  9 38  1  0
  9 39  1  0
 10 40  1  0
 10 41  1  0
 11 42  1  0
 11 43  1  0
 12 44  1  6
 13 45  1  0
 13 46  1  0
 14 47  1  0
 16 48  1  0
 17 49  1  0
 20 50  1  0
 21 51  1  0
 23 52  1  0
 24 53  1  0
 26 54  1  0
 29 55  1  0
 30 56  1  0
M  END
>  <smiles>  (38) 
O=C(NCC(=O)N1CCCC[C@H]1CNc1ccc(Cl)cc1)c1ccc2cc(F)ccc2n1

>  <score_type>  (38) 
oracle

>  <origin>  (38) 
autodockgpu

>  <m_score__min__energy>  (38) 
-9.0600000000000005

>  <m_primary>  (38) 
energy

>  <rmsd>  (38) 
5.732331172902119

>  <m_score__min__rmsd>  (38) 
5.732331172902119

>  <meeko>  (38) 
{"free_energy": -7.61, "intermolecular_energy": -9.69, "internal_energy": -3.16, "cluster_size": 4, "cluster_id": 6, "rank_in_cluster": 3}

>  <energy>  (38) 
-7.51

>  <cluster_rmsd>  (38) 
0.0

>  <cluster>  (38) 
7

$$$$

     RDKit          3D

 56 59  0  0  0  0  0  0  0  0999 V2000
  140.3510   76.9390  218.8170 O   0  0  0  0  0  0  0  0  0  0  0  0
  141.5820   77.0360  219.0720 C   0  0  0  0  0  0  0  0  0  0  0  0
  142.2170   78.2800  219.3650 N   0  0  0  0  0  0  0  0  0  0  0  0
  141.4240   79.4960  219.3720 C   0  0  0  0  0  0  0  0  0  0  0  0
  140.3590   79.4740  220.3900 C   0  0  0  0  0  0  0  0  0  0  0  0
  139.1670   79.3300  220.0160 O   0  0  0  0  0  0  0  0  0  0  0  0
  140.7450   79.6180  221.7520 N   0  0  0  0  0  0  0  0  0  0  0  0
  140.7950   80.9070  222.4240 C   0  0  0  0  0  0  0  0  0  0  0  0
  142.2150   81.2080  222.8820 C   0  0  0  0  0  0  0  0  0  0  0  0
  142.7540   80.0060  223.5820 C   0  0  0  0  0  0  0  0  0  0  0  0
  141.6150   78.9950  223.8650 C   0  0  0  0  0  0  0  0  0  0  0  0
  141.1220   78.4500  222.5710 C   0  0  1  0  0  0  0  0  0  0  0  0
  139.9440   77.5350  222.7200 C   0  0  0  0  0  0  0  0  0  0  0  0
  139.6850   76.7240  221.5790 N   0  0  0  0  0  0  0  0  0  0  0  0
  139.8500   75.3340  221.4380 C   0  0  0  0  0  0  0  0  0  0  0  0
  138.7500   74.5170  221.1170 C   0  0  0  0  0  0  0  0  0  0  0  0
  138.8610   73.1580  221.0060 C   0  0  0  0  0  0  0  0  0  0  0  0
  140.0540   72.5080  221.2030 C   0  0  0  0  0  0  0  0  0  0  0  0
  140.1710   70.7830  221.0570 Cl  0  0  0  0  0  0  0  0  0  0  0  0
  141.1490   73.2820  221.5210 C   0  0  0  0  0  0  0  0  0  0  0  0
  141.0320   74.6520  221.6310 C   0  0  0  0  0  0  0  0  0  0  0  0
  142.4050   75.8240  219.0710 C   0  0  0  0  0  0  0  0  0  0  0  0
  142.1340   74.7870  218.2020 C   0  0  0  0  0  0  0  0  0  0  0  0
  142.9200   73.6370  218.2070 C   0  0  0  0  0  0  0  0  0  0  0  0
  143.9900   73.5180  219.0880 C   0  0  0  0  0  0  0  0  0  0  0  0
  144.7900   72.3780  219.1110 C   0  0  0  0  0  0  0  0  0  0  0  0
  145.8490   72.3060  220.0120 C   0  0  0  0  0  0  0  0  0  0  0  0
  146.6470   71.2070  220.0580 F   0  0  0  0  0  0  0  0  0  0  0  0
  146.1030   73.3510  220.8710 C   0  0  0  0  0  0  0  0  0  0  0  0
  145.2990   74.4780  220.8370 C   0  0  0  0  0  0  0  0  0  0  0  0
  144.2300   74.5770  219.9440 C   0  0  0  0  0  0  0  0  0  0  0  0
  143.4490   75.6730  219.9130 N   0  0  0  0  0  0  0  0  0  0  0  0
  143.2520   78.2720  219.5670 H   0  0  0  0  0  0  0  0  0  0  0  0
  142.0886   80.3484  219.5762 H   0  0  0  0  0  0  0  0  0  0  0  0
  140.9411   79.5836  218.3875 H   0  0  0  0  0  0  0  0  0  0  0  0
  140.4637   81.6922  221.7284 H   0  0  0  0  0  0  0  0  0  0  0  0
  140.1336   80.8790  223.3025 H   0  0  0  0  0  0  0  0  0  0  0  0
  142.8437   81.4423  222.0103 H   0  0  0  0  0  0  0  0  0  0  0  0
  142.2150   82.0714  223.5636 H   0  0  0  0  0  0  0  0  0  0  0  0
  143.5152   79.5275  222.9482 H   0  0  0  0  0  0  0  0  0  0  0  0
  143.2019   80.3180  224.5370 H   0  0  0  0  0  0  0  0  0  0  0  0
  141.9966   78.1742  224.4900 H   0  0  0  0  0  0  0  0  0  0  0  0
  140.7929   79.4983  224.3949 H   0  0  0  0  0  0  0  0  0  0  0  0
  141.9129   77.8402  222.1100 H   0  0  0  0  0  0  0  0  0  0  0  0
  140.1284   76.8728  223.5788 H   0  0  0  0  0  0  0  0  0  0  0  0
  139.0614   78.1770  222.8574 H   0  0  0  0  0  0  0  0  0  0  0  0
  139.3170   77.2360  220.7160 H   0  0  0  0  0  0  0  0  0  0  0  0
  137.7693   74.9863  220.9500 H   0  0  0  0  0  0  0  0  0  0  0  0
  137.9678   72.5686  220.7513 H   0  0  0  0  0  0  0  0  0  0  0  0
  142.1250   72.8030  221.6886 H   0  0  0  0  0  0  0  0  0  0  0  0
  141.9311   75.2318  221.8867 H   0  0  0  0  0  0  0  0  0  0  0  0
  141.2910   74.8691  217.5001 H   0  0  0  0  0  0  0  0  0  0  0  0
  142.6930   72.8173  217.5095 H   0  0  0  0  0  0  0  0  0  0  0  0
  144.5871   71.5430  218.4242 H   0  0  0  0  0  0  0  0  0  0  0  0
  146.9408   73.2912  221.5813 H   0  0  0  0  0  0  0  0  0  0  0  0
  145.5062   75.3102  221.5258 H   0  0  0  0  0  0  0  0  0  0  0  0
  1  2  2  0
  2  3  1  0
  3  4  1  0
  4  5  1  0
  5  6  2  0
  5  7  1  0
  7  8  1  0
  8  9  1  0
  9 10  1  0
 10 11  1  0
 11 12  1  0
 12 13  1  0
 13 14  1  0
 14 15  1  0
 15 16  2  0
 16 17  1  0
 17 18  2  0
 18 19  1  0
 18 20  1  0
 20 21  2  0
  2 22  1  0
 22 23  2  0
 23 24  1  0
 24 25  2  0
 25 26  1  0
 26 27  2  0
 27 28  1  0
 27 29  1  0
 29 30  2  0
 30 31  1  0
 31 32  2  0
 12  7  1  0
 21 15  1  0
 32 22  1  0
 31 25  1  0
  3 33  1  0
  4 34  1  0
  4 35  1  0
  8 36  1  0
  8 37  1  0
  9 38  1  0
  9 39  1  0
 10 40  1  0
 10 41  1  0
 11 42  1  0
 11 43  1  0
 12 44  1  6
 13 45  1  0
 13 46  1  0
 14 47  1  0
 16 48  1  0
 17 49  1  0
 20 50  1  0
 21 51  1  0
 23 52  1  0
 24 53  1  0
 26 54  1  0
 29 55  1  0
 30 56  1  0
M  END
>  <smiles>  (39) 
O=C(NCC(=O)N1CCCC[C@H]1CNc1ccc(Cl)cc1)c1ccc2cc(F)ccc2n1

>  <score_type>  (39) 
oracle

>  <origin>  (39) 
autodockgpu

>  <m_score__min__energy>  (39) 
-9.0600000000000005

>  <m_primary>  (39) 
energy

>  <rmsd>  (39) 
7.512285006572712

>  <m_score__min__rmsd>  (39) 
7.512285006572712

>  <meeko>  (39) 
{"free_energy": -6.34, "intermolecular_energy": -8.43, "internal_energy": -4.29, "cluster_size": 5, "cluster_id": 9, "rank_in_cluster": 4}

>  <energy>  (39) 
-7.47

>  <cluster_rmsd>  (39) 
0.0

>  <cluster>  (39) 
8

$$$$

     RDKit          3D

 56 59  0  0  0  0  0  0  0  0999 V2000
  139.1340   70.5080  221.4780 O   0  0  0  0  0  0  0  0  0  0  0  0
  139.3120   71.0870  222.5830 C   0  0  0  0  0  0  0  0  0  0  0  0
  139.3510   72.5070  222.7170 N   0  0  0  0  0  0  0  0  0  0  0  0
  139.1810   73.3350  221.5360 C   0  0  0  0  0  0  0  0  0  0  0  0
  140.1910   74.4050  221.4420 C   0  0  0  0  0  0  0  0  0  0  0  0
  139.9930   75.4790  222.0660 O   0  0  0  0  0  0  0  0  0  0  0  0
  141.3420   74.1580  220.6440 N   0  0  0  0  0  0  0  0  0  0  0  0
  141.5150   72.9420  219.8650 C   0  0  0  0  0  0  0  0  0  0  0  0
  142.7390   72.1770  220.3470 C   0  0  0  0  0  0  0  0  0  0  0  0
  143.8810   73.1310  220.4610 C   0  0  0  0  0  0  0  0  0  0  0  0
  143.5250   74.4760  219.7820 C   0  0  0  0  0  0  0  0  0  0  0  0
  142.4430   75.1380  220.5610 C   0  0  1  0  0  0  0  0  0  0  0  0
  141.9460   76.4050  219.9330 C   0  0  0  0  0  0  0  0  0  0  0  0
  142.2260   77.5800  220.6850 N   0  0  0  0  0  0  0  0  0  0  0  0
  141.3780   78.2810  221.5610 C   0  0  0  0  0  0  0  0  0  0  0  0
  140.0050   78.4030  221.2750 C   0  0  0  0  0  0  0  0  0  0  0  0
  139.1540   79.1070  222.0820 C   0  0  0  0  0  0  0  0  0  0  0  0
  139.5870   79.7390  223.2210 C   0  0  0  0  0  0  0  0  0  0  0  0
  138.4880   80.6250  224.2290 Cl  0  0  0  0  0  0  0  0  0  0  0  0
  140.9270   79.6380  223.5260 C   0  0  0  0  0  0  0  0  0  0  0  0
  141.7820   78.9270  222.7100 C   0  0  0  0  0  0  0  0  0  0  0  0
  139.4860   70.2760  223.7900 C   0  0  0  0  0  0  0  0  0  0  0  0
  139.0440   68.9690  223.8330 C   0  0  0  0  0  0  0  0  0  0  0  0
  139.2120   68.2020  224.9840 C   0  0  0  0  0  0  0  0  0  0  0  0
  139.8300   68.7440  226.1070 C   0  0  0  0  0  0  0  0  0  0  0  0
  140.0100   67.9980  227.2690 C   0  0  0  0  0  0  0  0  0  0  0  0
  140.6330   68.5840  228.3670 C   0  0  0  0  0  0  0  0  0  0  0  0
  140.8230   67.8810  229.5140 F   0  0  0  0  0  0  0  0  0  0  0  0
  141.0680   69.8880  228.3040 C   0  0  0  0  0  0  0  0  0  0  0  0
  140.8820   70.6190  227.1430 C   0  0  0  0  0  0  0  0  0  0  0  0
  140.2600   70.0550  226.0270 C   0  0  0  0  0  0  0  0  0  0  0  0
  140.0800   70.7670  224.8980 N   0  0  0  0  0  0  0  0  0  0  0  0
  139.5040   72.9100  223.6790 H   0  0  0  0  0  0  0  0  0  0  0  0
  139.2606   72.6964  220.6439 H   0  0  0  0  0  0  0  0  0  0  0  0
  138.1936   73.8148  221.6055 H   0  0  0  0  0  0  0  0  0  0  0  0
  140.6230   72.3083  219.9782 H   0  0  0  0  0  0  0  0  0  0  0  0
  141.6540   73.2107  218.8074 H   0  0  0  0  0  0  0  0  0  0  0  0
  142.5321   71.7273  221.3293 H   0  0  0  0  0  0  0  0  0  0  0  0
  142.9871   71.3766  219.6344 H   0  0  0  0  0  0  0  0  0  0  0  0
  144.1017   73.3080  221.5240 H   0  0  0  0  0  0  0  0  0  0  0  0
  144.7605   72.6988  219.9613 H   0  0  0  0  0  0  0  0  0  0  0  0
  144.4132   75.1245  219.7590 H   0  0  0  0  0  0  0  0  0  0  0  0
  143.1850   74.2948  218.7517 H   0  0  0  0  0  0  0  0  0  0  0  0
  142.8330   75.4309  221.5470 H   0  0  0  0  0  0  0  0  0  0  0  0
  142.4179   76.5078  218.9447 H   0  0  0  0  0  0  0  0  0  0  0  0
  140.8507   76.3203  219.8769 H   0  0  0  0  0  0  0  0  0  0  0  0
  143.2100   77.9840  220.5720 H   0  0  0  0  0  0  0  0  0  0  0  0
  139.6037   77.9166  220.3737 H   0  0  0  0  0  0  0  0  0  0  0  0
  138.0900   79.1686  221.8099 H   0  0  0  0  0  0  0  0  0  0  0  0
  141.3186   80.1292  224.4290 H   0  0  0  0  0  0  0  0  0  0  0  0
  142.8440   78.8724  222.9913 H   0  0  0  0  0  0  0  0  0  0  0  0
  138.5551   68.5293  222.9512 H   0  0  0  0  0  0  0  0  0  0  0  0
  138.8541   67.1621  225.0052 H   0  0  0  0  0  0  0  0  0  0  0  0
  139.6630   66.9553  227.3186 H   0  0  0  0  0  0  0  0  0  0  0  0
  141.5616   70.3479  229.1728 H   0  0  0  0  0  0  0  0  0  0  0  0
  141.2300   71.6616  227.0988 H   0  0  0  0  0  0  0  0  0  0  0  0
  1  2  2  0
  2  3  1  0
  3  4  1  0
  4  5  1  0
  5  6  2  0
  5  7  1  0
  7  8  1  0
  8  9  1  0
  9 10  1  0
 10 11  1  0
 11 12  1  0
 12 13  1  0
 13 14  1  0
 14 15  1  0
 15 16  2  0
 16 17  1  0
 17 18  2  0
 18 19  1  0
 18 20  1  0
 20 21  2  0
  2 22  1  0
 22 23  2  0
 23 24  1  0
 24 25  2  0
 25 26  1  0
 26 27  2  0
 27 28  1  0
 27 29  1  0
 29 30  2  0
 30 31  1  0
 31 32  2  0
 12  7  1  0
 21 15  1  0
 32 22  1  0
 31 25  1  0
  3 33  1  0
  4 34  1  0
  4 35  1  0
  8 36  1  0
  8 37  1  0
  9 38  1  0
  9 39  1  0
 10 40  1  0
 10 41  1  0
 11 42  1  0
 11 43  1  0
 12 44  1  1
 13 45  1  0
 13 46  1  0
 14 47  1  0
 16 48  1  0
 17 49  1  0
 20 50  1  0
 21 51  1  0
 23 52  1  0
 24 53  1  0
 26 54  1  0
 29 55  1  0
 30 56  1  0
M  END
>  <smiles>  (40) 
O=C(NCC(=O)N1CCCC[C@H]1CNc1ccc(Cl)cc1)c1ccc2cc(F)ccc2n1

>  <score_type>  (40) 
oracle

>  <origin>  (40) 
autodockgpu

>  <m_score__min__energy>  (40) 
-9.0600000000000005

>  <m_primary>  (40) 
energy

>  <rmsd>  (40) 
2.5180256409864263

>  <m_score__min__rmsd>  (40) 
2.5180256409864263

>  <meeko>  (40) 
{"free_energy": -8.88, "intermolecular_energy": -10.96, "internal_energy": -1.89, "cluster_size": 17, "cluster_id": 1, "rank_in_cluster": 3}

>  <energy>  (40) 
-7.26

>  <cluster_rmsd>  (40) 
0.0

>  <cluster>  (40) 
9

$$$$

     RDKit          3D

 56 59  0  0  0  0  0  0  0  0999 V2000
  140.7760   71.8540  221.0480 O   0  0  0  0  0  0  0  0  0  0  0  0
  140.3080   72.3640  222.1010 C   0  0  0  0  0  0  0  0  0  0  0  0
  139.9290   73.7370  222.1960 N   0  0  0  0  0  0  0  0  0  0  0  0
  140.0860   74.5960  221.0360 C   0  0  0  0  0  0  0  0  0  0  0  0
  141.0270   75.7050  221.2740 C   0  0  0  0  0  0  0  0  0  0  0  0
  140.9890   76.3040  222.3790 O   0  0  0  0  0  0  0  0  0  0  0  0
  141.9340   76.0370  220.2290 N   0  0  0  0  0  0  0  0  0  0  0  0
  142.1460   77.4030  219.7740 C   0  0  0  0  0  0  0  0  0  0  0  0
  141.7490   77.5380  218.3110 C   0  0  0  0  0  0  0  0  0  0  0  0
  142.3670   76.4160  217.5450 C   0  0  0  0  0  0  0  0  0  0  0  0
  143.4190   75.6880  218.4170 C   0  0  0  0  0  0  0  0  0  0  0  0
  142.7210   74.9990  219.5370 C   0  0  1  0  0  0  0  0  0  0  0  0
  143.6570   74.3430  220.5080 C   0  0  0  0  0  0  0  0  0  0  0  0
  143.3890   72.9650  220.7390 N   0  0  0  0  0  0  0  0  0  0  0  0
  144.0080   71.8440  220.1550 C   0  0  0  0  0  0  0  0  0  0  0  0
  143.3350   70.6100  220.0980 C   0  0  0  0  0  0  0  0  0  0  0  0
  143.9150   69.4880  219.5710 C   0  0  0  0  0  0  0  0  0  0  0  0
  145.1920   69.4990  219.0670 C   0  0  0  0  0  0  0  0  0  0  0  0
  145.9060   68.0640  218.4040 Cl  0  0  0  0  0  0  0  0  0  0  0  0
  145.8770   70.6940  219.1110 C   0  0  0  0  0  0  0  0  0  0  0  0
  145.2870   71.8220  219.6420 C   0  0  0  0  0  0  0  0  0  0  0  0
  140.1400   71.5190  223.2860 C   0  0  0  0  0  0  0  0  0  0  0  0
  139.5150   70.2920  223.1960 C   0  0  0  0  0  0  0  0  0  0  0  0
  139.3580   69.4930  224.3260 C   0  0  0  0  0  0  0  0  0  0  0  0
  139.8310   69.9220  225.5620 C   0  0  0  0  0  0  0  0  0  0  0  0
  139.6860   69.1410  226.7070 C   0  0  0  0  0  0  0  0  0  0  0  0
  140.1750   69.6130  227.9220 C   0  0  0  0  0  0  0  0  0  0  0  0
  140.0490   68.8730  229.0550 F   0  0  0  0  0  0  0  0  0  0  0  0
  140.7960   70.8390  227.9910 C   0  0  0  0  0  0  0  0  0  0  0  0
  140.9330   71.6050  226.8450 C   0  0  0  0  0  0  0  0  0  0  0  0
  140.4510   71.1550  225.6140 C   0  0  0  0  0  0  0  0  0  0  0  0
  140.5850   71.9020  224.5010 N   0  0  0  0  0  0  0  0  0  0  0  0
  139.5460   74.0830  223.1150 H   0  0  0  0  0  0  0  0  0  0  0  0
  140.4603   73.9904  220.1975 H   0  0  0  0  0  0  0  0  0  0  0  0
  139.1030   75.0360  220.8123 H   0  0  0  0  0  0  0  0  0  0  0  0
  141.5346   78.0870  220.3809 H   0  0  0  0  0  0  0  0  0  0  0  0
  143.2112   77.6555  219.8813 H   0  0  0  0  0  0  0  0  0  0  0  0
  140.6539   77.4912  218.2182 H   0  0  0  0  0  0  0  0  0  0  0  0
  142.0991   78.5022  217.9138 H   0  0  0  0  0  0  0  0  0  0  0  0
  141.5834   75.7027  217.2499 H   0  0  0  0  0  0  0  0  0  0  0  0
  142.8618   76.8222  216.6504 H   0  0  0  0  0  0  0  0  0  0  0  0
  143.9573   74.9483  217.8062 H   0  0  0  0  0  0  0  0  0  0  0  0
  144.1400   76.4157  218.8177 H   0  0  0  0  0  0  0  0  0  0  0  0
  142.0985   74.1877  219.1317 H   0  0  0  0  0  0  0  0  0  0  0  0
  144.6804   74.4339  220.1151 H   0  0  0  0  0  0  0  0  0  0  0  0
  143.5221   74.8562  221.4716 H   0  0  0  0  0  0  0  0  0  0  0  0
  142.6180   72.7500  221.4470 H   0  0  0  0  0  0  0  0  0  0  0  0
  142.3092   70.5448  220.4898 H   0  0  0  0  0  0  0  0  0  0  0  0
  143.3411   68.5498  219.5506 H   0  0  0  0  0  0  0  0  0  0  0  0
  146.9034   70.7487  218.7192 H   0  0  0  0  0  0  0  0  0  0  0  0
  145.8692   72.7552  219.6569 H   0  0  0  0  0  0  0  0  0  0  0  0
  139.1377   69.9421  222.2238 H   0  0  0  0  0  0  0  0  0  0  0  0
  138.8572   68.5173  224.2407 H   0  0  0  0  0  0  0  0  0  0  0  0
  139.1899   68.1608  226.6513 H   0  0  0  0  0  0  0  0  0  0  0  0
  141.1820   71.2092  228.9522 H   0  0  0  0  0  0  0  0  0  0  0  0
  141.4299   72.5845  226.9057 H   0  0  0  0  0  0  0  0  0  0  0  0
  1  2  2  0
  2  3  1  0
  3  4  1  0
  4  5  1  0
  5  6  2  0
  5  7  1  0
  7  8  1  0
  8  9  1  0
  9 10  1  0
 10 11  1  0
 11 12  1  0
 12 13  1  0
 13 14  1  0
 14 15  1  0
 15 16  2  0
 16 17  1  0
 17 18  2  0
 18 19  1  0
 18 20  1  0
 20 21  2  0
  2 22  1  0
 22 23  2  0
 23 24  1  0
 24 25  2  0
 25 26  1  0
 26 27  2  0
 27 28  1  0
 27 29  1  0
 29 30  2  0
 30 31  1  0
 31 32  2  0
 12  7  1  0
 21 15  1  0
 32 22  1  0
 31 25  1  0
  3 33  1  0
  4 34  1  0
  4 35  1  0
  8 36  1  0
  8 37  1  0
  9 38  1  0
  9 39  1  0
 10 40  1  0
 10 41  1  0
 11 42  1  0
 11 43  1  0
 12 44  1  6
 13 45  1  0
 13 46  1  0
 14 47  1  0
 16 48  1  0
 17 49  1  0
 20 50  1  0
 21 51  1  0
 23 52  1  0
 24 53  1  0
 26 54  1  0
 29 55  1  0
 30 56  1  0
M  END
>  <smiles>  (41) 
O=C(NCC(=O)N1CCCC[C@H]1CNc1ccc(Cl)cc1)c1ccc2cc(F)ccc2n1

>  <score_type>  (41) 
oracle

>  <origin>  (41) 
autodockgpu

>  <m_score__min__energy>  (41) 
-9.0600000000000005

>  <m_primary>  (41) 
energy

>  <rmsd>  (41) 
5.2341465714878685

>  <m_score__min__rmsd>  (41) 
5.2341465714878685

>  <meeko>  (41) 
{"free_energy": -8.04, "intermolecular_energy": -10.13, "internal_energy": -2.61, "cluster_size": 10, "cluster_id": 2, "rank_in_cluster": 5}

>  <energy>  (41) 
-7.16

>  <cluster_rmsd>  (41) 
0.42

>  <cluster>  (41) 
9

$$$$

     RDKit          3D

 56 59  0  0  0  0  0  0  0  0999 V2000
  139.9040   73.5020  222.6480 O   0  0  0  0  0  0  0  0  0  0  0  0
  139.7260   72.2720  222.4410 C   0  0  0  0  0  0  0  0  0  0  0  0
  139.4560   71.7340  221.1480 N   0  0  0  0  0  0  0  0  0  0  0  0
  139.3810   72.6310  220.0090 C   0  0  0  0  0  0  0  0  0  0  0  0
  138.0280   73.1780  219.8050 C   0  0  0  0  0  0  0  0  0  0  0  0
  137.4340   72.9350  218.7230 O   0  0  0  0  0  0  0  0  0  0  0  0
  137.4660   73.9580  220.8540 N   0  0  0  0  0  0  0  0  0  0  0  0
  136.7280   73.3710  221.9620 C   0  0  0  0  0  0  0  0  0  0  0  0
  135.2950   73.8850  221.9700 C   0  0  0  0  0  0  0  0  0  0  0  0
  135.3210   75.3700  221.8230 C   0  0  0  0  0  0  0  0  0  0  0  0
  136.7640   75.9010  222.0110 C   0  0  0  0  0  0  0  0  0  0  0  0
  137.6030   75.4260  220.8770 C   0  0  1  0  0  0  0  0  0  0  0  0
  139.0490   75.7980  221.0100 C   0  0  0  0  0  0  0  0  0  0  0  0
  139.4310   76.2010  222.3210 N   0  0  0  0  0  0  0  0  0  0  0  0
  140.0770   77.3860  222.7170 C   0  0  0  0  0  0  0  0  0  0  0  0
  139.3720   78.6030  222.7520 C   0  0  0  0  0  0  0  0  0  0  0  0
  139.9720   79.7830  223.0980 C   0  0  0  0  0  0  0  0  0  0  0  0
  141.3020   79.8510  223.4310 C   0  0  0  0  0  0  0  0  0  0  0  0
  142.0420   81.3590  223.8660 Cl  0  0  0  0  0  0  0  0  0  0  0  0
  142.0200   78.6750  223.4050 C   0  0  0  0  0  0  0  0  0  0  0  0
  141.4100   77.4880  223.0560 C   0  0  0  0  0  0  0  0  0  0  0  0
  139.7950   71.3450  223.5740 C   0  0  0  0  0  0  0  0  0  0  0  0
  139.3190   70.0550  223.4610 C   0  0  0  0  0  0  0  0  0  0  0  0
  139.3870   69.1780  224.5420 C   0  0  0  0  0  0  0  0  0  0  0  0
  139.9380   69.5920  225.7500 C   0  0  0  0  0  0  0  0  0  0  0  0
  140.0180   68.7340  226.8450 C   0  0  0  0  0  0  0  0  0  0  0  0
  140.5780   69.1940  228.0330 C   0  0  0  0  0  0  0  0  0  0  0  0
  140.6690   68.3800  229.1170 F   0  0  0  0  0  0  0  0  0  0  0  0
  141.0480   70.4840  228.1250 C   0  0  0  0  0  0  0  0  0  0  0  0
  140.9620   71.3260  227.0300 C   0  0  0  0  0  0  0  0  0  0  0  0
  140.4050   70.8900  225.8250 C   0  0  0  0  0  0  0  0  0  0  0  0
  140.3220   71.7110  224.7610 N   0  0  0  0  0  0  0  0  0  0  0  0
  139.3200   70.6910  221.0630 H   0  0  0  0  0  0  0  0  0  0  0  0
  140.0776   73.4665  220.1724 H   0  0  0  0  0  0  0  0  0  0  0  0
  139.6444   72.0519  219.1117 H   0  0  0  0  0  0  0  0  0  0  0  0
  136.7208   72.2763  221.8544 H   0  0  0  0  0  0  0  0  0  0  0  0
  137.2155   73.6522  222.9071 H   0  0  0  0  0  0  0  0  0  0  0  0
  134.7368   73.4395  221.1334 H   0  0  0  0  0  0  0  0  0  0  0  0
  134.8021   73.6094  222.9140 H   0  0  0  0  0  0  0  0  0  0  0  0
  134.9615   75.6422  220.8196 H   0  0  0  0  0  0  0  0  0  0  0  0
  134.6710   75.8180  222.5891 H   0  0  0  0  0  0  0  0  0  0  0  0
  136.7537   77.0008  222.0276 H   0  0  0  0  0  0  0  0  0  0  0  0
  137.1769   75.5311  222.9611 H   0  0  0  0  0  0  0  0  0  0  0  0
  137.2599   75.9030  219.9471 H   0  0  0  0  0  0  0  0  0  0  0  0
  139.6567   74.9260  220.7266 H   0  0  0  0  0  0  0  0  0  0  0  0
  139.2135   76.6647  220.3530 H   0  0  0  0  0  0  0  0  0  0  0  0
  139.1980   75.5160  223.1080 H   0  0  0  0  0  0  0  0  0  0  0  0
  138.3030   78.6060  222.4926 H   0  0  0  0  0  0  0  0  0  0  0  0
  139.3710   80.7042  223.1097 H   0  0  0  0  0  0  0  0  0  0  0  0
  143.0889   78.6829  223.6648 H   0  0  0  0  0  0  0  0  0  0  0  0
  142.0201   76.5727  223.0476 H   0  0  0  0  0  0  0  0  0  0  0  0
  138.8823   69.7160  222.5100 H   0  0  0  0  0  0  0  0  0  0  0  0
  139.0026   68.1525  224.4392 H   0  0  0  0  0  0  0  0  0  0  0  0
  139.6421   67.7029  226.7711 H   0  0  0  0  0  0  0  0  0  0  0  0
  141.4904   70.8446  229.0653 H   0  0  0  0  0  0  0  0  0  0  0  0
  141.3387   72.3564  227.1097 H   0  0  0  0  0  0  0  0  0  0  0  0
  1  2  2  0
  2  3  1  0
  3  4  1  0
  4  5  1  0
  5  6  2  0
  5  7  1  0
  7  8  1  0
  8  9  1  0
  9 10  1  0
 10 11  1  0
 11 12  1  0
 12 13  1  0
 13 14  1  0
 14 15  1  0
 15 16  2  0
 16 17  1  0
 17 18  2  0
 18 19  1  0
 18 20  1  0
 20 21  2  0
  2 22  1  0
 22 23  2  0
 23 24  1  0
 24 25  2  0
 25 26  1  0
 26 27  2  0
 27 28  1  0
 27 29  1  0
 29 30  2  0
 30 31  1  0
 31 32  2  0
 12  7  1  0
 21 15  1  0
 32 22  1  0
 31 25  1  0
  3 33  1  0
  4 34  1  0
  4 35  1  0
  8 36  1  0
  8 37  1  0
  9 38  1  0
  9 39  1  0
 10 40  1  0
 10 41  1  0
 11 42  1  0
 11 43  1  0
 12 44  1  6
 13 45  1  0
 13 46  1  0
 14 47  1  0
 16 48  1  0
 17 49  1  0
 20 50  1  0
 21 51  1  0
 23 52  1  0
 24 53  1  0
 26 54  1  0
 29 55  1  0
 30 56  1  0
M  END
>  <smiles>  (42) 
O=C(NCC(=O)N1CCCC[C@H]1CNc1ccc(Cl)cc1)c1ccc2cc(F)ccc2n1

>  <score_type>  (42) 
oracle

>  <origin>  (42) 
autodockgpu

>  <m_score__min__energy>  (42) 
-9.0600000000000005

>  <m_primary>  (42) 
energy

>  <rmsd>  (42) 
3.545606255482534

>  <m_score__min__rmsd>  (42) 
3.545606255482534

>  <meeko>  (42) 
{"free_energy": -7.9, "intermolecular_energy": -9.98, "internal_energy": -2.34, "cluster_size": 3, "cluster_id": 4, "rank_in_cluster": 3}

>  <energy>  (42) 
-6.53

>  <cluster_rmsd>  (42) 
0.86

>  <cluster>  (42) 
9

$$$$

     RDKit          3D

 56 59  0  0  0  0  0  0  0  0999 V2000
  137.4470   71.2150  221.2960 O   0  0  0  0  0  0  0  0  0  0  0  0
  138.0840   71.7880  222.2190 C   0  0  0  0  0  0  0  0  0  0  0  0
  138.3350   73.1930  222.2320 N   0  0  0  0  0  0  0  0  0  0  0  0
  137.8400   74.0110  221.1400 C   0  0  0  0  0  0  0  0  0  0  0  0
  138.8960   74.3730  220.1770 C   0  0  0  0  0  0  0  0  0  0  0  0
  138.7030   75.3490  219.4080 O   0  0  0  0  0  0  0  0  0  0  0  0
  140.0830   73.5900  220.1750 N   0  0  0  0  0  0  0  0  0  0  0  0
  140.2360   72.3930  219.3620 C   0  0  0  0  0  0  0  0  0  0  0  0
  140.4580   71.1770  220.2500 C   0  0  0  0  0  0  0  0  0  0  0  0
  141.5110   71.5090  221.2550 C   0  0  0  0  0  0  0  0  0  0  0  0
  142.2160   72.8340  220.8740 C   0  0  0  0  0  0  0  0  0  0  0  0
  141.2440   73.9530  221.0100 C   0  0  1  0  0  0  0  0  0  0  0  0
  141.7930   75.2750  220.5660 C   0  0  0  0  0  0  0  0  0  0  0  0
  140.9380   76.3820  220.8320 N   0  0  0  0  0  0  0  0  0  0  0  0
  141.2120   77.5380  221.5850 C   0  0  0  0  0  0  0  0  0  0  0  0
  141.7010   78.6970  220.9560 C   0  0  0  0  0  0  0  0  0  0  0  0
  142.0130   79.8300  221.6570 C   0  0  0  0  0  0  0  0  0  0  0  0
  141.8690   79.9030  223.0200 C   0  0  0  0  0  0  0  0  0  0  0  0
  142.2720   81.3500  223.8880 Cl  0  0  0  0  0  0  0  0  0  0  0  0
  141.3930   78.7820  223.6650 C   0  0  0  0  0  0  0  0  0  0  0  0
  141.0790   77.6430  222.9530 C   0  0  0  0  0  0  0  0  0  0  0  0
  138.5960   70.9860  223.3330 C   0  0  0  0  0  0  0  0  0  0  0  0
  138.3510   69.6290  223.3970 C   0  0  0  0  0  0  0  0  0  0  0  0
  138.8390   68.8710  224.4590 C   0  0  0  0  0  0  0  0  0  0  0  0
  139.5810   69.4730  225.4710 C   0  0  0  0  0  0  0  0  0  0  0  0
  140.0800   68.7370  226.5430 C   0  0  0  0  0  0  0  0  0  0  0  0
  140.8160   69.3830  227.5320 C   0  0  0  0  0  0  0  0  0  0  0  0
  141.3160   68.6910  228.5890 F   0  0  0  0  0  0  0  0  0  0  0  0
  141.0490   70.7370  227.4500 C   0  0  0  0  0  0  0  0  0  0  0  0
  140.5470   71.4570  226.3790 C   0  0  0  0  0  0  0  0  0  0  0  0
  139.8050   70.8330  225.3730 C   0  0  0  0  0  0  0  0  0  0  0  0
  139.3170   71.5350  224.3330 N   0  0  0  0  0  0  0  0  0  0  0  0
  138.8770   73.5920  223.0440 H   0  0  0  0  0  0  0  0  0  0  0  0
  137.0558   73.4518  220.6087 H   0  0  0  0  0  0  0  0  0  0  0  0
  137.4511   74.9442  221.5734 H   0  0  0  0  0  0  0  0  0  0  0  0
  139.3264   72.2431  218.7619 H   0  0  0  0  0  0  0  0  0  0  0  0
  141.1066   72.5177  218.7013 H   0  0  0  0  0  0  0  0  0  0  0  0
  139.5214   70.9184  220.7658 H   0  0  0  0  0  0  0  0  0  0  0  0
  140.7767   70.3187  219.6403 H   0  0  0  0  0  0  0  0  0  0  0  0
  141.0461   71.6168  222.2461 H   0  0  0  0  0  0  0  0  0  0  0  0
  142.2555   70.6995  221.2752 H   0  0  0  0  0  0  0  0  0  0  0  0
  143.0709   73.0037  221.5450 H   0  0  0  0  0  0  0  0  0  0  0  0
  142.5784   72.7788  219.8369 H   0  0  0  0  0  0  0  0  0  0  0  0
  140.9853   74.0818  222.0713 H   0  0  0  0  0  0  0  0  0  0  0  0
  142.7477   75.4440  221.0857 H   0  0  0  0  0  0  0  0  0  0  0  0
  141.9061   75.2189  219.4733 H   0  0  0  0  0  0  0  0  0  0  0  0
  139.9590   76.3300  220.4040 H   0  0  0  0  0  0  0  0  0  0  0  0
  141.8372   78.6925  219.8645 H   0  0  0  0  0  0  0  0  0  0  0  0
  142.3903   80.7080  221.1122 H   0  0  0  0  0  0  0  0  0  0  0  0
  141.2623   78.7956  224.7571 H   0  0  0  0  0  0  0  0  0  0  0  0
  140.7018   76.7709  223.5072 H   0  0  0  0  0  0  0  0  0  0  0  0
  137.7657   69.1423  222.6030 H   0  0  0  0  0  0  0  0  0  0  0  0
  138.6368   67.7905  224.4980 H   0  0  0  0  0  0  0  0  0  0  0  0
  139.8941   67.6547  226.6074 H   0  0  0  0  0  0  0  0  0  0  0  0
  141.6318   71.2453  228.2323 H   0  0  0  0  0  0  0  0  0  0  0  0
  140.7357   72.5390  226.3192 H   0  0  0  0  0  0  0  0  0  0  0  0
  1  2  2  0
  2  3  1  0
  3  4  1  0
  4  5  1  0
  5  6  2  0
  5  7  1  0
  7  8  1  0
  8  9  1  0
  9 10  1  0
 10 11  1  0
 11 12  1  0
 12 13  1  0
 13 14  1  0
 14 15  1  0
 15 16  2  0
 16 17  1  0
 17 18  2  0
 18 19  1  0
 18 20  1  0
 20 21  2  0
  2 22  1  0
 22 23  2  0
 23 24  1  0
 24 25  2  0
 25 26  1  0
 26 27  2  0
 27 28  1  0
 27 29  1  0
 29 30  2  0
 30 31  1  0
 31 32  2  0
 12  7  1  0
 21 15  1  0
 32 22  1  0
 31 25  1  0
  3 33  1  0
  4 34  1  0
  4 35  1  0
  8 36  1  0
  8 37  1  0
  9 38  1  0
  9 39  1  0
 10 40  1  0
 10 41  1  0
 11 42  1  0
 11 43  1  0
 12 44  1  1
 13 45  1  0
 13 46  1  0
 14 47  1  0
 16 48  1  0
 17 49  1  0
 20 50  1  0
 21 51  1  0
 23 52  1  0
 24 53  1  0
 26 54  1  0
 29 55  1  0
 30 56  1  0
M  END
>  <smiles>  (43) 
O=C(NCC(=O)N1CCCC[C@H]1CNc1ccc(Cl)cc1)c1ccc2cc(F)ccc2n1

>  <score_type>  (43) 
oracle

>  <origin>  (43) 
autodockgpu

>  <m_score__min__energy>  (43) 
-9.0600000000000005

>  <m_primary>  (43) 
energy

>  <rmsd>  (43) 
2.8073807831148883

>  <m_score__min__rmsd>  (43) 
2.8073807831148883

>  <meeko>  (43) 
{"free_energy": -7.45, "intermolecular_energy": -9.53, "internal_energy": -2.94, "cluster_size": 17, "cluster_id": 1, "rank_in_cluster": 16}

>  <energy>  (43) 
-6.34

>  <cluster_rmsd>  (43) 
0.87

>  <cluster>  (43) 
9

$$$$

     RDKit          3D

 56 59  0  0  0  0  0  0  0  0999 V2000
  141.4200   72.5650  221.9280 O   0  0  0  0  0  0  0  0  0  0  0  0
  140.3540   72.5560  222.6000 C   0  0  0  0  0  0  0  0  0  0  0  0
  139.2730   73.4530  222.3500 N   0  0  0  0  0  0  0  0  0  0  0  0
  139.3920   74.4250  221.2770 C   0  0  0  0  0  0  0  0  0  0  0  0
  139.9300   75.7170  221.7390 C   0  0  0  0  0  0  0  0  0  0  0  0
  141.0400   75.7340  222.3300 O   0  0  0  0  0  0  0  0  0  0  0  0
  139.1540   76.8830  221.4870 N   0  0  0  0  0  0  0  0  0  0  0  0
  138.8490   77.8640  222.5170 C   0  0  0  0  0  0  0  0  0  0  0  0
  137.3440   77.9510  222.7310 C   0  0  0  0  0  0  0  0  0  0  0  0
  136.6800   78.0690  221.4000 C   0  0  0  0  0  0  0  0  0  0  0  0
  137.7320   78.3600  220.3010 C   0  0  0  0  0  0  0  0  0  0  0  0
  138.6080   77.1670  220.1460 C   0  0  1  0  0  0  0  0  0  0  0  0
  139.7320   77.3750  219.1760 C   0  0  0  0  0  0  0  0  0  0  0  0
  140.4110   78.6170  219.3260 N   0  0  0  0  0  0  0  0  0  0  0  0
  140.9240   79.1970  220.5010 C   0  0  0  0  0  0  0  0  0  0  0  0
  140.5550   80.5040  220.8680 C   0  0  0  0  0  0  0  0  0  0  0  0
  141.0580   81.1160  221.9830 C   0  0  0  0  0  0  0  0  0  0  0  0
  141.9570   80.4920  222.8120 C   0  0  0  0  0  0  0  0  0  0  0  0
  142.5820   81.2890  224.2210 Cl  0  0  0  0  0  0  0  0  0  0  0  0
  142.3380   79.2110  222.4780 C   0  0  0  0  0  0  0  0  0  0  0  0
  141.8270   78.5970  221.3520 C   0  0  0  0  0  0  0  0  0  0  0  0
  140.2080   71.5860  223.6880 C   0  0  0  0  0  0  0  0  0  0  0  0
  139.5830   70.3740  223.4750 C   0  0  0  0  0  0  0  0  0  0  0  0
  139.4460   69.4560  224.5140 C   0  0  0  0  0  0  0  0  0  0  0  0
  139.9400   69.7490  225.7810 C   0  0  0  0  0  0  0  0  0  0  0  0
  139.8160   68.8470  226.8360 C   0  0  0  0  0  0  0  0  0  0  0  0
  140.3260   69.1850  228.0860 C   0  0  0  0  0  0  0  0  0  0  0  0
  140.2200   68.3270  229.1340 F   0  0  0  0  0  0  0  0  0  0  0  0
  140.9470   70.3990  228.2780 C   0  0  0  0  0  0  0  0  0  0  0  0
  141.0630   71.2850  227.2210 C   0  0  0  0  0  0  0  0  0  0  0  0
  140.5600   70.9720  225.9560 C   0  0  0  0  0  0  0  0  0  0  0  0
  140.6730   71.8350  224.9300 N   0  0  0  0  0  0  0  0  0  0  0  0
  138.4160   73.3790  222.9600 H   0  0  0  0  0  0  0  0  0  0  0  0
  140.0641   74.0188  220.5068 H   0  0  0  0  0  0  0  0  0  0  0  0
  138.3826   74.6076  220.8797 H   0  0  0  0  0  0  0  0  0  0  0  0
  139.3332   77.5650  223.4584 H   0  0  0  0  0  0  0  0  0  0  0  0
  139.2237   78.8478  222.1980 H   0  0  0  0  0  0  0  0  0  0  0  0
  136.9894   77.0442  223.2429 H   0  0  0  0  0  0  0  0  0  0  0  0
  137.1025   78.8273  223.3505 H   0  0  0  0  0  0  0  0  0  0  0  0
  136.1626   77.1266  221.1673 H   0  0  0  0  0  0  0  0  0  0  0  0
  135.9563   78.8968  221.4322 H   0  0  0  0  0  0  0  0  0  0  0  0
  137.2230   78.5709  219.3489 H   0  0  0  0  0  0  0  0  0  0  0  0
  138.3374   79.2331  220.5857 H   0  0  0  0  0  0  0  0  0  0  0  0
  138.0164   76.3340  219.7384 H   0  0  0  0  0  0  0  0  0  0  0  0
  140.4620   76.5640  219.3151 H   0  0  0  0  0  0  0  0  0  0  0  0
  139.2849   77.3790  218.1709 H   0  0  0  0  0  0  0  0  0  0  0  0
  140.5520   79.1850  218.4320 H   0  0  0  0  0  0  0  0  0  0  0  0
  139.8387   81.0515  220.2378 H   0  0  0  0  0  0  0  0  0  0  0  0
  140.7324   82.1390  222.2227 H   0  0  0  0  0  0  0  0  0  0  0  0
  143.0558   78.6725  223.1142 H   0  0  0  0  0  0  0  0  0  0  0  0
  142.1584   77.5737  221.1216 H   0  0  0  0  0  0  0  0  0  0  0  0
  139.1899   70.1309  222.4768 H   0  0  0  0  0  0  0  0  0  0  0  0
  138.9444   68.4942  224.3315 H   0  0  0  0  0  0  0  0  0  0  0  0
  139.3199   67.8774  226.6823 H   0  0  0  0  0  0  0  0  0  0  0  0
  141.3491   70.6635  229.2671 H   0  0  0  0  0  0  0  0  0  0  0  0
  141.5603   72.2532  227.3800 H   0  0  0  0  0  0  0  0  0  0  0  0
  1  2  2  0
  2  3  1  0
  3  4  1  0
  4  5  1  0
  5  6  2  0
  5  7  1  0
  7  8  1  0
  8  9  1  0
  9 10  1  0
 10 11  1  0
 11 12  1  0
 12 13  1  0
 13 14  1  0
 14 15  1  0
 15 16  2  0
 16 17  1  0
 17 18  2  0
 18 19  1  0
 18 20  1  0
 20 21  2  0
  2 22  1  0
 22 23  2  0
 23 24  1  0
 24 25  2  0
 25 26  1  0
 26 27  2  0
 27 28  1  0
 27 29  1  0
 29 30  2  0
 30 31  1  0
 31 32  2  0
 12  7  1  0
 21 15  1  0
 32 22  1  0
 31 25  1  0
  3 33  1  0
  4 34  1  0
  4 35  1  0
  8 36  1  0
  8 37  1  0
  9 38  1  0
  9 39  1  0
 10 40  1  0
 10 41  1  0
 11 42  1  0
 11 43  1  0
 12 44  1  6
 13 45  1  0
 13 46  1  0
 14 47  1  0
 16 48  1  0
 17 49  1  0
 20 50  1  0
 21 51  1  0
 23 52  1  0
 24 53  1  0
 26 54  1  0
 29 55  1  0
 30 56  1  0
M  END
>  <smiles>  (44) 
O=C(NCC(=O)N1CCCC[C@H]1CNc1ccc(Cl)cc1)c1ccc2cc(F)ccc2n1

>  <score_type>  (44) 
oracle

>  <origin>  (44) 
autodockgpu

>  <m_score__min__energy>  (44) 
-9.0600000000000005

>  <m_primary>  (44) 
energy

>  <rmsd>  (44) 
3.02277534643482

>  <m_score__min__rmsd>  (44) 
3.02277534643482

>  <meeko>  (44) 
{"free_energy": -8.2, "intermolecular_energy": -10.29, "internal_energy": -1.85, "cluster_size": 17, "cluster_id": 1, "rank_in_cluster": 9}

>  <energy>  (44) 
-6.27

>  <cluster_rmsd>  (44) 
0.91

>  <cluster>  (44) 
9

$$$$

     RDKit          3D

 56 59  0  0  0  0  0  0  0  0999 V2000
  139.9500   70.8790  221.3670 O   0  0  0  0  0  0  0  0  0  0  0  0
  139.4900   71.4910  222.3680 C   0  0  0  0  0  0  0  0  0  0  0  0
  138.5830   72.5870  222.2570 N   0  0  0  0  0  0  0  0  0  0  0  0
  138.1600   73.0260  220.9400 C   0  0  0  0  0  0  0  0  0  0  0  0
  139.2910   73.4410  220.0900 C   0  0  0  0  0  0  0  0  0  0  0  0
  139.6250   72.7040  219.1270 O   0  0  0  0  0  0  0  0  0  0  0  0
  139.9450   74.6620  220.4110 N   0  0  0  0  0  0  0  0  0  0  0  0
  140.4460   74.9610  221.7440 C   0  0  0  0  0  0  0  0  0  0  0  0
  139.7390   76.1840  222.3100 C   0  0  0  0  0  0  0  0  0  0  0  0
  139.7490   77.2600  221.2750 C   0  0  0  0  0  0  0  0  0  0  0  0
  140.7110   76.8850  220.1210 C   0  0  0  0  0  0  0  0  0  0  0  0
  140.1560   75.7110  219.3940 C   0  0  1  0  0  0  0  0  0  0  0  0
  141.0610   75.1960  218.3160 C   0  0  0  0  0  0  0  0  0  0  0  0
  141.7320   73.9850  218.6450 N   0  0  0  0  0  0  0  0  0  0  0  0
  142.8740   73.8080  219.4480 C   0  0  0  0  0  0  0  0  0  0  0  0
  143.7410   74.8870  219.6980 C   0  0  0  0  0  0  0  0  0  0  0  0
  144.8800   74.7480  220.4430 C   0  0  0  0  0  0  0  0  0  0  0  0
  145.2470   73.5450  220.9930 C   0  0  0  0  0  0  0  0  0  0  0  0
  146.6950   73.3930  221.9340 Cl  0  0  0  0  0  0  0  0  0  0  0  0
  144.4170   72.4690  220.7640 C   0  0  0  0  0  0  0  0  0  0  0  0
  143.2700   72.6140  220.0120 C   0  0  0  0  0  0  0  0  0  0  0  0
  139.9010   71.0680  223.7090 C   0  0  0  0  0  0  0  0  0  0  0  0
  140.6860   71.8840  224.4980 C   0  0  0  0  0  0  0  0  0  0  0  0
  141.0750   71.4760  225.7720 C   0  0  0  0  0  0  0  0  0  0  0  0
  140.6740   70.2390  226.2670 C   0  0  0  0  0  0  0  0  0  0  0  0
  141.0480   69.8090  227.5380 C   0  0  0  0  0  0  0  0  0  0  0  0
  140.6230   68.5630  227.9900 C   0  0  0  0  0  0  0  0  0  0  0  0
  140.9730   68.1160  229.2250 F   0  0  0  0  0  0  0  0  0  0  0  0
  139.8400   67.7640  227.1890 C   0  0  0  0  0  0  0  0  0  0  0  0
  139.4750   68.2040  225.9280 C   0  0  0  0  0  0  0  0  0  0  0  0
  139.8880   69.4500  225.4490 C   0  0  0  0  0  0  0  0  0  0  0  0
  139.5320   69.8760  224.2230 N   0  0  0  0  0  0  0  0  0  0  0  0
  138.2470   73.0440  223.1460 H   0  0  0  0  0  0  0  0  0  0  0  0
  137.6328   72.1972  220.4449 H   0  0  0  0  0  0  0  0  0  0  0  0
  137.5061   73.9003  221.0745 H   0  0  0  0  0  0  0  0  0  0  0  0
  140.2636   74.0989  222.4024 H   0  0  0  0  0  0  0  0  0  0  0  0
  141.5250   75.1664  221.6838 H   0  0  0  0  0  0  0  0  0  0  0  0
  138.7009   75.9264  222.5670 H   0  0  0  0  0  0  0  0  0  0  0  0
  140.2548   76.5303  223.2178 H   0  0  0  0  0  0  0  0  0  0  0  0
  138.7327   77.3872  220.8737 H   0  0  0  0  0  0  0  0  0  0  0  0
  140.0914   78.1980  221.7365 H   0  0  0  0  0  0  0  0  0  0  0  0
  140.8081   77.7353  219.4299 H   0  0  0  0  0  0  0  0  0  0  0  0
  141.7026   76.6373  220.5276 H   0  0  0  0  0  0  0  0  0  0  0  0
  139.2274   76.0065  218.8837 H   0  0  0  0  0  0  0  0  0  0  0  0
  140.4572   75.0212  217.4133 H   0  0  0  0  0  0  0  0  0  0  0  0
  141.8402   75.9581  218.1675 H   0  0  0  0  0  0  0  0  0  0  0  0
  141.3170   73.0920  218.2290 H   0  0  0  0  0  0  0  0  0  0  0  0
  143.4952   75.8747  219.2809 H   0  0  0  0  0  0  0  0  0  0  0  0
  145.5211   75.6268  220.6062 H   0  0  0  0  0  0  0  0  0  0  0  0
  144.6717   71.4852  221.1850 H   0  0  0  0  0  0  0  0  0  0  0  0
  142.6367   71.7287  219.8536 H   0  0  0  0  0  0  0  0  0  0  0  0
  141.0073   72.8649  224.1177 H   0  0  0  0  0  0  0  0  0  0  0  0
  141.7024   72.1352  226.3898 H   0  0  0  0  0  0  0  0  0  0  0  0
  141.6734   70.4482  228.1786 H   0  0  0  0  0  0  0  0  0  0  0  0
  139.5054   66.7799  227.5489 H   0  0  0  0  0  0  0  0  0  0  0  0
  138.8487   67.5612  225.2919 H   0  0  0  0  0  0  0  0  0  0  0  0
  1  2  2  0
  2  3  1  0
  3  4  1  0
  4  5  1  0
  5  6  2  0
  5  7  1  0
  7  8  1  0
  8  9  1  0
  9 10  1  0
 10 11  1  0
 11 12  1  0
 12 13  1  0
 13 14  1  0
 14 15  1  0
 15 16  2  0
 16 17  1  0
 17 18  2  0
 18 19  1  0
 18 20  1  0
 20 21  2  0
  2 22  1  0
 22 23  2  0
 23 24  1  0
 24 25  2  0
 25 26  1  0
 26 27  2  0
 27 28  1  0
 27 29  1  0
 29 30  2  0
 30 31  1  0
 31 32  2  0
 12  7  1  0
 21 15  1  0
 32 22  1  0
 31 25  1  0
  3 33  1  0
  4 34  1  0
  4 35  1  0
  8 36  1  0
  8 37  1  0
  9 38  1  0
  9 39  1  0
 10 40  1  0
 10 41  1  0
 11 42  1  0
 11 43  1  0
 12 44  1  6
 13 45  1  0
 13 46  1  0
 14 47  1  0
 16 48  1  0
 17 49  1  0
 20 50  1  0
 21 51  1  0
 23 52  1  0
 24 53  1  0
 26 54  1  0
 29 55  1  0
 30 56  1  0
M  END
>  <smiles>  (45) 
O=C(NCC(=O)N1CCCC[C@H]1CNc1ccc(Cl)cc1)c1ccc2cc(F)ccc2n1

>  <score_type>  (45) 
oracle

>  <origin>  (45) 
autodockgpu

>  <m_score__min__energy>  (45) 
-9.0600000000000005

>  <m_primary>  (45) 
energy

>  <rmsd>  (45) 
4.604465405333205

>  <m_score__min__rmsd>  (45) 
4.604465405333205

>  <meeko>  (45) 
{"free_energy": -7.7, "intermolecular_energy": -9.79, "internal_energy": -2.59, "cluster_size": 10, "cluster_id": 2, "rank_in_cluster": 9}

>  <energy>  (45) 
-7.17

>  <cluster_rmsd>  (45) 
0.0

>  <cluster>  (45) 
10

$$$$

     RDKit          3D

 56 59  0  0  0  0  0  0  0  0999 V2000
  139.7530   71.3050  220.9070 O   0  0  0  0  0  0  0  0  0  0  0  0
  139.6100   71.8840  222.0170 C   0  0  0  0  0  0  0  0  0  0  0  0
  139.3040   73.2730  222.1330 N   0  0  0  0  0  0  0  0  0  0  0  0
  139.1480   74.0670  220.9280 C   0  0  0  0  0  0  0  0  0  0  0  0
  140.2590   73.8830  219.9780 C   0  0  0  0  0  0  0  0  0  0  0  0
  140.0950   73.1150  218.9960 O   0  0  0  0  0  0  0  0  0  0  0  0
  141.4670   74.5930  220.2290 N   0  0  0  0  0  0  0  0  0  0  0  0
  141.4960   75.8890  220.8890 C   0  0  0  0  0  0  0  0  0  0  0  0
  142.0770   76.9420  219.9560 C   0  0  0  0  0  0  0  0  0  0  0  0
  143.3350   76.4060  219.3590 C   0  0  0  0  0  0  0  0  0  0  0  0
  143.7720   75.1180  220.0980 C   0  0  0  0  0  0  0  0  0  0  0  0
  142.7770   74.0450  219.8280 C   0  0  1  0  0  0  0  0  0  0  0  0
  143.0470   72.7770  220.5810 C   0  0  0  0  0  0  0  0  0  0  0  0
  142.5300   71.6060  219.9600 N   0  0  0  0  0  0  0  0  0  0  0  0
  143.1940   70.3980  219.6810 C   0  0  0  0  0  0  0  0  0  0  0  0
  142.4700   69.1950  219.5830 C   0  0  0  0  0  0  0  0  0  0  0  0
  143.0820   67.9940  219.3490 C   0  0  0  0  0  0  0  0  0  0  0  0
  144.4430   67.8890  219.1960 C   0  0  0  0  0  0  0  0  0  0  0  0
  145.1970   66.3560  218.9000 Cl  0  0  0  0  0  0  0  0  0  0  0  0
  145.1780   69.0510  219.2890 C   0  0  0  0  0  0  0  0  0  0  0  0
  144.5560   70.2600  219.5250 C   0  0  0  0  0  0  0  0  0  0  0  0
  139.7640   71.1060  223.2490 C   0  0  0  0  0  0  0  0  0  0  0  0
  139.4120   69.7720  223.2910 C   0  0  0  0  0  0  0  0  0  0  0  0
  139.5600   69.0380  224.4660 C   0  0  0  0  0  0  0  0  0  0  0  0
  140.0650   69.6400  225.6130 C   0  0  0  0  0  0  0  0  0  0  0  0
  140.2220   68.9270  226.8000 C   0  0  0  0  0  0  0  0  0  0  0  0
  140.7320   69.5730  227.9220 C   0  0  0  0  0  0  0  0  0  0  0  0
  140.8970   68.9030  229.0930 F   0  0  0  0  0  0  0  0  0  0  0  0
  141.0770   70.9030  227.8610 C   0  0  0  0  0  0  0  0  0  0  0  0
  140.9150   71.6010  226.6750 C   0  0  0  0  0  0  0  0  0  0  0  0
  140.4060   70.9770  225.5340 C   0  0  0  0  0  0  0  0  0  0  0  0
  140.2500   71.6560  224.3820 N   0  0  0  0  0  0  0  0  0  0  0  0
  139.2020   73.6790  223.1020 H   0  0  0  0  0  0  0  0  0  0  0  0
  138.2099   73.7751  220.4332 H   0  0  0  0  0  0  0  0  0  0  0  0
  139.1381   75.1256  221.2266 H   0  0  0  0  0  0  0  0  0  0  0  0
  140.4720   76.1770  221.1690 H   0  0  0  0  0  0  0  0  0  0  0  0
  142.1260   75.8196  221.7880 H   0  0  0  0  0  0  0  0  0  0  0  0
  141.3551   77.1688  219.1576 H   0  0  0  0  0  0  0  0  0  0  0  0
  142.2898   77.8645  220.5161 H   0  0  0  0  0  0  0  0  0  0  0  0
  143.1635   76.1751  218.2973 H   0  0  0  0  0  0  0  0  0  0  0  0
  144.1283   77.1618  219.4561 H   0  0  0  0  0  0  0  0  0  0  0  0
  144.7619   74.8028  219.7364 H   0  0  0  0  0  0  0  0  0  0  0  0
  143.8279   75.3102  221.1796 H   0  0  0  0  0  0  0  0  0  0  0  0
  142.8205   73.7702  218.7638 H   0  0  0  0  0  0  0  0  0  0  0  0
  144.1363   72.6613  220.6816 H   0  0  0  0  0  0  0  0  0  0  0  0
  142.5358   72.8714  221.5504 H   0  0  0  0  0  0  0  0  0  0  0  0
  141.5030   71.6470  219.6660 H   0  0  0  0  0  0  0  0  0  0  0  0
  141.3764   69.2213  219.6983 H   0  0  0  0  0  0  0  0  0  0  0  0
  142.4658   67.0853  219.2814 H   0  0  0  0  0  0  0  0  0  0  0  0
  146.2714   69.0144  219.1740 H   0  0  0  0  0  0  0  0  0  0  0  0
  145.1814   71.1624  219.5922 H   0  0  0  0  0  0  0  0  0  0  0  0
  139.0115   69.2846  222.3898 H   0  0  0  0  0  0  0  0  0  0  0  0
  139.2755   67.9756  224.4863 H   0  0  0  0  0  0  0  0  0  0  0  0
  139.9454   67.8635  226.8495 H   0  0  0  0  0  0  0  0  0  0  0  0
  141.4798   71.4105  228.7499 H   0  0  0  0  0  0  0  0  0  0  0  0
  141.1920   72.6647  226.6315 H   0  0  0  0  0  0  0  0  0  0  0  0
  1  2  2  0
  2  3  1  0
  3  4  1  0
  4  5  1  0
  5  6  2  0
  5  7  1  0
  7  8  1  0
  8  9  1  0
  9 10  1  0
 10 11  1  0
 11 12  1  0
 12 13  1  0
 13 14  1  0
 14 15  1  0
 15 16  2  0
 16 17  1  0
 17 18  2  0
 18 19  1  0
 18 20  1  0
 20 21  2  0
  2 22  1  0
 22 23  2  0
 23 24  1  0
 24 25  2  0
 25 26  1  0
 26 27  2  0
 27 28  1  0
 27 29  1  0
 29 30  2  0
 30 31  1  0
 31 32  2  0
 12  7  1  0
 21 15  1  0
 32 22  1  0
 31 25  1  0
  3 33  1  0
  4 34  1  0
  4 35  1  0
  8 36  1  0
  8 37  1  0
  9 38  1  0
  9 39  1  0
 10 40  1  0
 10 41  1  0
 11 42  1  0
 11 43  1  0
 12 44  1  6
 13 45  1  0
 13 46  1  0
 14 47  1  0
 16 48  1  0
 17 49  1  0
 20 50  1  0
 21 51  1  0
 23 52  1  0
 24 53  1  0
 26 54  1  0
 29 55  1  0
 30 56  1  0
M  END
>  <smiles>  (46) 
O=C(NCC(=O)N1CCCC[C@H]1CNc1ccc(Cl)cc1)c1ccc2cc(F)ccc2n1

>  <score_type>  (46) 
oracle

>  <origin>  (46) 
autodockgpu

>  <m_score__min__energy>  (46) 
-9.0600000000000005

>  <m_primary>  (46) 
energy

>  <rmsd>  (46) 
5.7885920836436195

>  <m_score__min__rmsd>  (46) 
5.7885920836436195

>  <meeko>  (46) 
{"free_energy": -7.46, "intermolecular_energy": -9.55, "internal_energy": -3.23, "cluster_size": 4, "cluster_id": 6, "rank_in_cluster": 4}

>  <energy>  (46) 
-7.16

>  <cluster_rmsd>  (46) 
1.59

>  <cluster>  (46) 
10

$$$$

     RDKit          3D

 56 59  0  0  0  0  0  0  0  0999 V2000
  140.3870   76.9680  218.8280 O   0  0  0  0  0  0  0  0  0  0  0  0
  141.6220   77.0590  219.0650 C   0  0  0  0  0  0  0  0  0  0  0  0
  142.2670   78.3000  219.3480 N   0  0  0  0  0  0  0  0  0  0  0  0
  141.4800   79.5200  219.3680 C   0  0  0  0  0  0  0  0  0  0  0  0
  140.3820   79.4710  220.3500 C   0  0  0  0  0  0  0  0  0  0  0  0
  139.2110   79.2660  219.9390 O   0  0  0  0  0  0  0  0  0  0  0  0
  140.7140   79.6610  221.7210 N   0  0  0  0  0  0  0  0  0  0  0  0
  140.7500   80.9730  222.3480 C   0  0  0  0  0  0  0  0  0  0  0  0
  142.1540   81.2760  222.8520 C   0  0  0  0  0  0  0  0  0  0  0  0
  142.6510   80.0950  223.6170 C   0  0  0  0  0  0  0  0  0  0  0  0
  141.4900   79.1070  223.8890 C   0  0  0  0  0  0  0  0  0  0  0  0
  141.0440   78.5190  222.5960 C   0  0  1  0  0  0  0  0  0  0  0  0
  139.8510   77.6220  222.7290 C   0  0  0  0  0  0  0  0  0  0  0  0
  139.6460   76.7530  221.6200 N   0  0  0  0  0  0  0  0  0  0  0  0
  139.7860   75.3540  221.5670 C   0  0  0  0  0  0  0  0  0  0  0  0
  138.6490   74.5270  221.5180 C   0  0  0  0  0  0  0  0  0  0  0  0
  138.7420   73.1620  221.5020 C   0  0  0  0  0  0  0  0  0  0  0  0
  139.9530   72.5160  221.5340 C   0  0  0  0  0  0  0  0  0  0  0  0
  140.0460   70.7840  221.5130 Cl  0  0  0  0  0  0  0  0  0  0  0  0
  141.0850   73.3000  221.5840 C   0  0  0  0  0  0  0  0  0  0  0  0
  140.9860   74.6760  221.6000 C   0  0  0  0  0  0  0  0  0  0  0  0
  142.4400   75.8440  219.0500 C   0  0  0  0  0  0  0  0  0  0  0  0
  142.1650   74.8180  218.1690 C   0  0  0  0  0  0  0  0  0  0  0  0
  142.9450   73.6640  218.1600 C   0  0  0  0  0  0  0  0  0  0  0  0
  144.0140   73.5310  219.0400 C   0  0  0  0  0  0  0  0  0  0  0  0
  144.8100   72.3870  219.0510 C   0  0  0  0  0  0  0  0  0  0  0  0
  145.8680   72.3000  219.9500 C   0  0  0  0  0  0  0  0  0  0  0  0
  146.6610   71.1970  219.9830 F   0  0  0  0  0  0  0  0  0  0  0  0
  146.1270   73.3340  220.8210 C   0  0  0  0  0  0  0  0  0  0  0  0
  145.3280   74.4650  220.8000 C   0  0  0  0  0  0  0  0  0  0  0  0
  144.2590   74.5780  219.9080 C   0  0  0  0  0  0  0  0  0  0  0  0
  143.4830   75.6790  219.8890 N   0  0  0  0  0  0  0  0  0  0  0  0
  143.3050   78.2880  219.5340 H   0  0  0  0  0  0  0  0  0  0  0  0
  142.1415   80.3617  219.6210 H   0  0  0  0  0  0  0  0  0  0  0  0
  141.0302   79.6423  218.3716 H   0  0  0  0  0  0  0  0  0  0  0  0
  140.4556   81.7357  221.6121 H   0  0  0  0  0  0  0  0  0  0  0  0
  140.0530   80.9836  223.1989 H   0  0  0  0  0  0  0  0  0  0  0  0
  142.8199   81.4715  221.9985 H   0  0  0  0  0  0  0  0  0  0  0  0
  142.1365   82.1638  223.5013 H   0  0  0  0  0  0  0  0  0  0  0  0
  143.4319   79.5861  223.0329 H   0  0  0  0  0  0  0  0  0  0  0  0
  143.0636   80.4372  224.5775 H   0  0  0  0  0  0  0  0  0  0  0  0
  141.8360   78.3061  224.5590 H   0  0  0  0  0  0  0  0  0  0  0  0
  140.6527   79.6380  224.3654 H   0  0  0  0  0  0  0  0  0  0  0  0
  141.8457   77.8844  222.1903 H   0  0  0  0  0  0  0  0  0  0  0  0
  139.9821   77.0054  223.6304 H   0  0  0  0  0  0  0  0  0  0  0  0
  138.9687   78.2766  222.7841 H   0  0  0  0  0  0  0  0  0  0  0  0
  139.3460   77.2220  220.7080 H   0  0  0  0  0  0  0  0  0  0  0  0
  137.6529   74.9929  221.4917 H   0  0  0  0  0  0  0  0  0  0  0  0
  137.8192   72.5646  221.4623 H   0  0  0  0  0  0  0  0  0  0  0  0
  142.0766   72.8245  221.6114 H   0  0  0  0  0  0  0  0  0  0  0  0
  141.9147   75.2640  221.6413 H   0  0  0  0  0  0  0  0  0  0  0  0
  141.3226   74.9123  217.4679 H   0  0  0  0  0  0  0  0  0  0  0  0
  142.7143   72.8534  217.4531 H   0  0  0  0  0  0  0  0  0  0  0  0
  144.6035   71.5605  218.3552 H   0  0  0  0  0  0  0  0  0  0  0  0
  146.9647   73.2623  221.5304 H   0  0  0  0  0  0  0  0  0  0  0  0
  145.5389   75.2887  221.4979 H   0  0  0  0  0  0  0  0  0  0  0  0
  1  2  2  0
  2  3  1  0
  3  4  1  0
  4  5  1  0
  5  6  2  0
  5  7  1  0
  7  8  1  0
  8  9  1  0
  9 10  1  0
 10 11  1  0
 11 12  1  0
 12 13  1  0
 13 14  1  0
 14 15  1  0
 15 16  2  0
 16 17  1  0
 17 18  2  0
 18 19  1  0
 18 20  1  0
 20 21  2  0
  2 22  1  0
 22 23  2  0
 23 24  1  0
 24 25  2  0
 25 26  1  0
 26 27  2  0
 27 28  1  0
 27 29  1  0
 29 30  2  0
 30 31  1  0
 31 32  2  0
 12  7  1  0
 21 15  1  0
 32 22  1  0
 31 25  1  0
  3 33  1  0
  4 34  1  0
  4 35  1  0
  8 36  1  0
  8 37  1  0
  9 38  1  0
  9 39  1  0
 10 40  1  0
 10 41  1  0
 11 42  1  0
 11 43  1  0
 12 44  1  6
 13 45  1  0
 13 46  1  0
 14 47  1  0
 16 48  1  0
 17 49  1  0
 20 50  1  0
 21 51  1  0
 23 52  1  0
 24 53  1  0
 26 54  1  0
 29 55  1  0
 30 56  1  0
M  END
>  <smiles>  (47) 
O=C(NCC(=O)N1CCCC[C@H]1CNc1ccc(Cl)cc1)c1ccc2cc(F)ccc2n1

>  <score_type>  (47) 
oracle

>  <origin>  (47) 
autodockgpu

>  <m_score__min__energy>  (47) 
-9.0600000000000005

>  <m_primary>  (47) 
energy

>  <rmsd>  (47) 
7.550678549869474

>  <m_score__min__rmsd>  (47) 
7.550678549869474

>  <meeko>  (47) 
{"free_energy": -6.53, "intermolecular_energy": -8.62, "internal_energy": -4.16, "cluster_size": 5, "cluster_id": 9, "rank_in_cluster": 3}

>  <energy>  (47) 
-7.13

>  <cluster_rmsd>  (47) 
0.0

>  <cluster>  (47) 
11

$$$$

     RDKit          3D

 56 59  0  0  0  0  0  0  0  0999 V2000
  140.3010   70.7470  221.6340 O   0  0  0  0  0  0  0  0  0  0  0  0
  140.1030   71.5440  222.5910 C   0  0  0  0  0  0  0  0  0  0  0  0
  139.7250   72.9060  222.3990 N   0  0  0  0  0  0  0  0  0  0  0  0
  139.5570   73.4120  221.0490 C   0  0  0  0  0  0  0  0  0  0  0  0
  140.7460   73.1890  220.2070 C   0  0  0  0  0  0  0  0  0  0  0  0
  140.7670   72.1920  219.4420 O   0  0  0  0  0  0  0  0  0  0  0  0
  141.8130   74.1250  220.3100 N   0  0  0  0  0  0  0  0  0  0  0  0
  141.6260   75.4820  220.7990 C   0  0  0  0  0  0  0  0  0  0  0  0
  141.9880   76.4870  219.7140 C   0  0  0  0  0  0  0  0  0  0  0  0
  143.3070   76.1030  219.1320 C   0  0  0  0  0  0  0  0  0  0  0  0
  143.9850   75.0210  220.0080 C   0  0  0  0  0  0  0  0  0  0  0  0
  143.1900   73.7650  219.9220 C   0  0  1  0  0  0  0  0  0  0  0  0
  143.7000   72.6750  220.8160 C   0  0  0  0  0  0  0  0  0  0  0  0
  143.2300   71.3740  220.4800 N   0  0  0  0  0  0  0  0  0  0  0  0
  143.9370   70.3190  219.8750 C   0  0  0  0  0  0  0  0  0  0  0  0
  145.2200   70.5360  219.3410 C   0  0  0  0  0  0  0  0  0  0  0  0
  145.9250   69.5460  218.7140 C   0  0  0  0  0  0  0  0  0  0  0  0
  145.4220   68.2770  218.5670 C   0  0  0  0  0  0  0  0  0  0  0  0
  146.3350   67.0370  217.7680 Cl  0  0  0  0  0  0  0  0  0  0  0  0
  144.1660   68.0340  219.0790 C   0  0  0  0  0  0  0  0  0  0  0  0
  143.4590   69.0360  219.7110 C   0  0  0  0  0  0  0  0  0  0  0  0
  140.2660   71.0590  223.9640 C   0  0  0  0  0  0  0  0  0  0  0  0
  140.7730   71.8830  224.9480 C   0  0  0  0  0  0  0  0  0  0  0  0
  140.9260   71.4160  226.2520 C   0  0  0  0  0  0  0  0  0  0  0  0
  140.5690   70.1120  226.5790 C   0  0  0  0  0  0  0  0  0  0  0  0
  140.7130   69.6220  227.8750 C   0  0  0  0  0  0  0  0  0  0  0  0
  140.3430   68.3090  228.1540 C   0  0  0  0  0  0  0  0  0  0  0  0
  140.4710   67.8040  229.4090 F   0  0  0  0  0  0  0  0  0  0  0  0
  139.8390   67.5040  227.1580 C   0  0  0  0  0  0  0  0  0  0  0  0
  139.7020   68.0040  225.8740 C   0  0  0  0  0  0  0  0  0  0  0  0
  140.0660   69.3170  225.5670 C   0  0  0  0  0  0  0  0  0  0  0  0
  139.9320   69.8010  224.3180 N   0  0  0  0  0  0  0  0  0  0  0  0
  139.5790   73.5050  223.2550 H   0  0  0  0  0  0  0  0  0  0  0  0
  138.6979   72.9037  220.5868 H   0  0  0  0  0  0  0  0  0  0  0  0
  139.3973   74.4981  221.1182 H   0  0  0  0  0  0  0  0  0  0  0  0
  140.5739   75.6223  221.0877 H   0  0  0  0  0  0  0  0  0  0  0  0
  142.2792   75.6429  221.6693 H   0  0  0  0  0  0  0  0  0  0  0  0
  141.2188   76.4770  218.9278 H   0  0  0  0  0  0  0  0  0  0  0  0
  142.0459   77.4986  220.1423 H   0  0  0  0  0  0  0  0  0  0  0  0
  143.1545   75.7058  218.1176 H   0  0  0  0  0  0  0  0  0  0  0  0
  143.9545   76.9914  219.0948 H   0  0  0  0  0  0  0  0  0  0  0  0
  145.0066   74.8374  219.6437 H   0  0  0  0  0  0  0  0  0  0  0  0
  144.0322   75.3621  221.0527 H   0  0  0  0  0  0  0  0  0  0  0  0
  143.2561   73.3633  218.9001 H   0  0  0  0  0  0  0  0  0  0  0  0
  144.7986   72.6695  220.7603 H   0  0  0  0  0  0  0  0  0  0  0  0
  143.3243   72.8945  221.8263 H   0  0  0  0  0  0  0  0  0  0  0  0
  142.2080   71.1710  220.7150 H   0  0  0  0  0  0  0  0  0  0  0  0
  145.6713   71.5351  219.4307 H   0  0  0  0  0  0  0  0  0  0  0  0
  146.9248   69.7732  218.3156 H   0  0  0  0  0  0  0  0  0  0  0  0
  143.7229   67.0318  218.9829 H   0  0  0  0  0  0  0  0  0  0  0  0
  142.4600   68.7986  220.1054 H   0  0  0  0  0  0  0  0  0  0  0  0
  141.0585   72.9162  224.7012 H   0  0  0  0  0  0  0  0  0  0  0  0
  141.3315   72.0826  227.0274 H   0  0  0  0  0  0  0  0  0  0  0  0
  141.1153   70.2664  228.6706 H   0  0  0  0  0  0  0  0  0  0  0  0
  139.5461   66.4674  227.3811 H   0  0  0  0  0  0  0  0  0  0  0  0
  139.2994   67.3557  225.0818 H   0  0  0  0  0  0  0  0  0  0  0  0
  1  2  2  0
  2  3  1  0
  3  4  1  0
  4  5  1  0
  5  6  2  0
  5  7  1  0
  7  8  1  0
  8  9  1  0
  9 10  1  0
 10 11  1  0
 11 12  1  0
 12 13  1  0
 13 14  1  0
 14 15  1  0
 15 16  2  0
 16 17  1  0
 17 18  2  0
 18 19  1  0
 18 20  1  0
 20 21  2  0
  2 22  1  0
 22 23  2  0
 23 24  1  0
 24 25  2  0
 25 26  1  0
 26 27  2  0
 27 28  1  0
 27 29  1  0
 29 30  2  0
 30 31  1  0
 31 32  2  0
 12  7  1  0
 21 15  1  0
 32 22  1  0
 31 25  1  0
  3 33  1  0
  4 34  1  0
  4 35  1  0
  8 36  1  0
  8 37  1  0
  9 38  1  0
  9 39  1  0
 10 40  1  0
 10 41  1  0
 11 42  1  0
 11 43  1  0
 12 44  1  6
 13 45  1  0
 13 46  1  0
 14 47  1  0
 16 48  1  0
 17 49  1  0
 20 50  1  0
 21 51  1  0
 23 52  1  0
 24 53  1  0
 26 54  1  0
 29 55  1  0
 30 56  1  0
M  END
>  <smiles>  (48) 
O=C(NCC(=O)N1CCCC[C@H]1CNc1ccc(Cl)cc1)c1ccc2cc(F)ccc2n1

>  <score_type>  (48) 
oracle

>  <origin>  (48) 
autodockgpu

>  <m_score__min__energy>  (48) 
-9.0600000000000005

>  <m_primary>  (48) 
energy

>  <rmsd>  (48) 
6.1873734364808515

>  <m_score__min__rmsd>  (48) 
6.1873734364808515

>  <meeko>  (48) 
{"free_energy": -7.72, "intermolecular_energy": -9.81, "internal_energy": -2.89, "cluster_size": 4, "cluster_id": 6, "rank_in_cluster": 1}

>  <energy>  (48) 
-6.99

>  <cluster_rmsd>  (48) 
0.3

>  <cluster>  (48) 
11

$$$$

     RDKit          3D

 56 59  0  0  0  0  0  0  0  0999 V2000
  141.4800   73.0550  221.6550 O   0  0  0  0  0  0  0  0  0  0  0  0
  140.4140   73.0160  222.3280 C   0  0  0  0  0  0  0  0  0  0  0  0
  139.3270   73.9140  222.1090 N   0  0  0  0  0  0  0  0  0  0  0  0
  139.4390   74.9220  221.0700 C   0  0  0  0  0  0  0  0  0  0  0  0
  140.5670   75.8450  221.2930 C   0  0  0  0  0  0  0  0  0  0  0  0
  141.1580   75.8200  222.4020 O   0  0  0  0  0  0  0  0  0  0  0  0
  140.9240   76.7190  220.2290 N   0  0  0  0  0  0  0  0  0  0  0  0
  140.3910   78.0670  220.1040 C   0  0  0  0  0  0  0  0  0  0  0  0
  139.6020   78.2030  218.8090 C   0  0  0  0  0  0  0  0  0  0  0  0
  140.4180   77.6420  217.6930 C   0  0  0  0  0  0  0  0  0  0  0  0
  141.8720   77.3930  218.1650 C   0  0  0  0  0  0  0  0  0  0  0  0
  141.8700   76.3000  219.1760 C   0  0  1  0  0  0  0  0  0  0  0  0
  143.2180   76.0450  219.7800 C   0  0  0  0  0  0  0  0  0  0  0  0
  143.3090   74.8290  220.5150 N   0  0  0  0  0  0  0  0  0  0  0  0
  143.9530   73.6330  220.1500 C   0  0  0  0  0  0  0  0  0  0  0  0
  145.3200   73.4480  220.4300 C   0  0  0  0  0  0  0  0  0  0  0  0
  145.9910   72.3150  220.0600 C   0  0  0  0  0  0  0  0  0  0  0  0
  145.3720   71.2880  219.3910 C   0  0  0  0  0  0  0  0  0  0  0  0
  146.2440   69.8610  218.9320 Cl  0  0  0  0  0  0  0  0  0  0  0  0
  144.0340   71.4420  219.1010 C   0  0  0  0  0  0  0  0  0  0  0  0
  143.3610   72.5860  219.4760 C   0  0  0  0  0  0  0  0  0  0  0  0
  140.2760   72.0090  223.3820 C   0  0  0  0  0  0  0  0  0  0  0  0
  139.6990   70.7840  223.1180 C   0  0  0  0  0  0  0  0  0  0  0  0
  139.5700   69.8300  224.1260 C   0  0  0  0  0  0  0  0  0  0  0  0
  140.0230   70.1010  225.4130 C   0  0  0  0  0  0  0  0  0  0  0  0
  139.9050   69.1640  226.4370 C   0  0  0  0  0  0  0  0  0  0  0  0
  140.3720   69.4810  227.7090 C   0  0  0  0  0  0  0  0  0  0  0  0
  140.2710   68.5870  228.7280 F   0  0  0  0  0  0  0  0  0  0  0  0
  140.9460   70.7080  227.9530 C   0  0  0  0  0  0  0  0  0  0  0  0
  141.0560   71.6300  226.9260 C   0  0  0  0  0  0  0  0  0  0  0  0
  140.5950   71.3380  225.6400 C   0  0  0  0  0  0  0  0  0  0  0  0
  140.7030   72.2360  224.6420 N   0  0  0  0  0  0  0  0  0  0  0  0
  138.4720   73.8130  222.7170 H   0  0  0  0  0  0  0  0  0  0  0  0
  139.5832   74.4169  220.1035 H   0  0  0  0  0  0  0  0  0  0  0  0
  138.5143   75.5176  221.0833 H   0  0  0  0  0  0  0  0  0  0  0  0
  139.7284   78.2762  220.9568 H   0  0  0  0  0  0  0  0  0  0  0  0
  141.2259   78.7832  220.0923 H   0  0  0  0  0  0  0  0  0  0  0  0
  138.6559   77.6480  218.8916 H   0  0  0  0  0  0  0  0  0  0  0  0
  139.3781   79.2624  218.6150 H   0  0  0  0  0  0  0  0  0  0  0  0
  139.9756   76.6908  217.3622 H   0  0  0  0  0  0  0  0  0  0  0  0
  140.4294   78.3610  216.8606 H   0  0  0  0  0  0  0  0  0  0  0  0
  142.4941   77.1006  217.3062 H   0  0  0  0  0  0  0  0  0  0  0  0
  142.2820   78.3117  218.6099 H   0  0  0  0  0  0  0  0  0  0  0  0
  141.5809   75.3567  218.6895 H   0  0  0  0  0  0  0  0  0  0  0  0
  143.9592   76.0132  218.9678 H   0  0  0  0  0  0  0  0  0  0  0  0
  143.4028   76.8603  220.4949 H   0  0  0  0  0  0  0  0  0  0  0  0
  142.8260   74.8210  221.4680 H   0  0  0  0  0  0  0  0  0  0  0  0
  145.8661   74.2399  220.9634 H   0  0  0  0  0  0  0  0  0  0  0  0
  147.0593   72.2237  220.3059 H   0  0  0  0  0  0  0  0  0  0  0  0
  143.4974   70.6451  218.5653 H   0  0  0  0  0  0  0  0  0  0  0  0
  142.2935   72.6675  219.2235 H   0  0  0  0  0  0  0  0  0  0  0  0
  139.3378   70.5583  222.1038 H   0  0  0  0  0  0  0  0  0  0  0  0
  139.1074   68.8574  223.9025 H   0  0  0  0  0  0  0  0  0  0  0  0
  139.4471   68.1830  226.2420 H   0  0  0  0  0  0  0  0  0  0  0  0
  141.3156   70.9549  228.9592 H   0  0  0  0  0  0  0  0  0  0  0  0
  141.5145   72.6097  227.1262 H   0  0  0  0  0  0  0  0  0  0  0  0
  1  2  2  0
  2  3  1  0
  3  4  1  0
  4  5  1  0
  5  6  2  0
  5  7  1  0
  7  8  1  0
  8  9  1  0
  9 10  1  0
 10 11  1  0
 11 12  1  0
 12 13  1  0
 13 14  1  0
 14 15  1  0
 15 16  2  0
 16 17  1  0
 17 18  2  0
 18 19  1  0
 18 20  1  0
 20 21  2  0
  2 22  1  0
 22 23  2  0
 23 24  1  0
 24 25  2  0
 25 26  1  0
 26 27  2  0
 27 28  1  0
 27 29  1  0
 29 30  2  0
 30 31  1  0
 31 32  2  0
 12  7  1  0
 21 15  1  0
 32 22  1  0
 31 25  1  0
  3 33  1  0
  4 34  1  0
  4 35  1  0
  8 36  1  0
  8 37  1  0
  9 38  1  0
  9 39  1  0
 10 40  1  0
 10 41  1  0
 11 42  1  0
 11 43  1  0
 12 44  1  6
 13 45  1  0
 13 46  1  0
 14 47  1  0
 16 48  1  0
 17 49  1  0
 20 50  1  0
 21 51  1  0
 23 52  1  0
 24 53  1  0
 26 54  1  0
 29 55  1  0
 30 56  1  0
M  END
>  <smiles>  (49) 
O=C(NCC(=O)N1CCCC[C@H]1CNc1ccc(Cl)cc1)c1ccc2cc(F)ccc2n1

>  <score_type>  (49) 
oracle

>  <origin>  (49) 
autodockgpu

>  <m_score__min__energy>  (49) 
-9.0600000000000005

>  <m_primary>  (49) 
energy

>  <rmsd>  (49) 
4.533367985951692

>  <m_score__min__rmsd>  (49) 
4.533367985951692

>  <meeko>  (49) 
{"free_energy": -7.94, "intermolecular_energy": -10.02, "internal_energy": -2.89, "cluster_size": 10, "cluster_id": 2, "rank_in_cluster": 6}

>  <energy>  (49) 
-7.07

>  <cluster_rmsd>  (49) 
0.0

>  <cluster>  (49) 
12

$$$$

     RDKit          3D

 56 59  0  0  0  0  0  0  0  0999 V2000
  138.2120   70.7540  221.6040 O   0  0  0  0  0  0  0  0  0  0  0  0
  138.8330   71.2780  222.5680 C   0  0  0  0  0  0  0  0  0  0  0  0
  139.2350   72.6470  222.5780 N   0  0  0  0  0  0  0  0  0  0  0  0
  138.9210   73.4860  221.4360 C   0  0  0  0  0  0  0  0  0  0  0  0
  139.7210   74.7240  221.4030 C   0  0  0  0  0  0  0  0  0  0  0  0
  140.5370   74.9410  222.3350 O   0  0  0  0  0  0  0  0  0  0  0  0
  139.5240   75.6090  220.3070 N   0  0  0  0  0  0  0  0  0  0  0  0
  138.5060   76.6490  220.3080 C   0  0  0  0  0  0  0  0  0  0  0  0
  137.5060   76.4070  219.1860 C   0  0  0  0  0  0  0  0  0  0  0  0
  138.2600   76.1340  217.9270 C   0  0  0  0  0  0  0  0  0  0  0  0
  139.7580   76.4770  218.1160 C   0  0  0  0  0  0  0  0  0  0  0  0
  140.3520   75.5200  219.0890 C   0  0  1  0  0  0  0  0  0  0  0  0
  141.7810   75.8240  219.4270 C   0  0  0  0  0  0  0  0  0  0  0  0
  141.9530   76.5640  220.6300 N   0  0  0  0  0  0  0  0  0  0  0  0
  141.8100   77.9490  220.8340 C   0  0  0  0  0  0  0  0  0  0  0  0
  141.5810   78.4580  222.1250 C   0  0  0  0  0  0  0  0  0  0  0  0
  141.4010   79.7930  222.3600 C   0  0  0  0  0  0  0  0  0  0  0  0
  141.4330   80.7200  221.3480 C   0  0  0  0  0  0  0  0  0  0  0  0
  141.2020   82.4090  221.6700 Cl  0  0  0  0  0  0  0  0  0  0  0  0
  141.6540   80.2510  220.0710 C   0  0  0  0  0  0  0  0  0  0  0  0
  141.8350   78.9030  219.8390 C   0  0  0  0  0  0  0  0  0  0  0  0
  139.1630   70.4530  223.7330 C   0  0  0  0  0  0  0  0  0  0  0  0
  138.8650   69.1060  223.7520 C   0  0  0  0  0  0  0  0  0  0  0  0
  139.1800   68.3270  224.8630 C   0  0  0  0  0  0  0  0  0  0  0  0
  139.8010   68.8970  225.9690 C   0  0  0  0  0  0  0  0  0  0  0  0
  140.1270   68.1390  227.0920 C   0  0  0  0  0  0  0  0  0  0  0  0
  140.7470   68.7550  228.1750 C   0  0  0  0  0  0  0  0  0  0  0  0
  141.0760   68.0410  229.2830 F   0  0  0  0  0  0  0  0  0  0  0  0
  141.0360   70.1000  228.1370 C   0  0  0  0  0  0  0  0  0  0  0  0
  140.7070   70.8410  227.0150 C   0  0  0  0  0  0  0  0  0  0  0  0
  140.0840   70.2490  225.9140 C   0  0  0  0  0  0  0  0  0  0  0  0
  139.7640   70.9720  224.8240 N   0  0  0  0  0  0  0  0  0  0  0  0
  139.7520   73.0050  223.4250 H   0  0  0  0  0  0  0  0  0  0  0  0
  139.1167   72.9158  220.5159 H   0  0  0  0  0  0  0  0  0  0  0  0
  137.8630   73.7759  221.5173 H   0  0  0  0  0  0  0  0  0  0  0  0
  137.9784   76.6400  221.2732 H   0  0  0  0  0  0  0  0  0  0  0  0
  138.9897   77.6248  220.1534 H   0  0  0  0  0  0  0  0  0  0  0  0
  136.8730   75.5422  219.4338 H   0  0  0  0  0  0  0  0  0  0  0  0
  136.8654   77.2917  219.0562 H   0  0  0  0  0  0  0  0  0  0  0  0
  138.1608   75.0696  217.6676 H   0  0  0  0  0  0  0  0  0  0  0  0
  137.8481   76.7572  217.1196 H   0  0  0  0  0  0  0  0  0  0  0  0
  140.2803   76.3949  217.1514 H   0  0  0  0  0  0  0  0  0  0  0  0
  139.8605   77.5049  218.4939 H   0  0  0  0  0  0  0  0  0  0  0  0
  140.3601   74.5126  218.6474 H   0  0  0  0  0  0  0  0  0  0  0  0
  142.3213   74.8712  219.5283 H   0  0  0  0  0  0  0  0  0  0  0  0
  142.1709   76.4518  218.6123 H   0  0  0  0  0  0  0  0  0  0  0  0
  142.2260   75.9960  221.4940 H   0  0  0  0  0  0  0  0  0  0  0  0
  141.5455   77.7591  222.9737 H   0  0  0  0  0  0  0  0  0  0  0  0
  141.2253   80.1343  223.3908 H   0  0  0  0  0  0  0  0  0  0  0  0
  141.6864   80.9580  219.2289 H   0  0  0  0  0  0  0  0  0  0  0  0
  142.0086   78.5717  218.8046 H   0  0  0  0  0  0  0  0  0  0  0  0
  138.3747   68.6435  222.8827 H   0  0  0  0  0  0  0  0  0  0  0  0
  138.9360   67.2544  224.8655 H   0  0  0  0  0  0  0  0  0  0  0  0
  139.8964   67.0639  227.1221 H   0  0  0  0  0  0  0  0  0  0  0  0
  141.5263   70.5841  228.9945 H   0  0  0  0  0  0  0  0  0  0  0  0
  140.9405   71.9157  226.9901 H   0  0  0  0  0  0  0  0  0  0  0  0
  1  2  2  0
  2  3  1  0
  3  4  1  0
  4  5  1  0
  5  6  2  0
  5  7  1  0
  7  8  1  0
  8  9  1  0
  9 10  1  0
 10 11  1  0
 11 12  1  0
 12 13  1  0
 13 14  1  0
 14 15  1  0
 15 16  2  0
 16 17  1  0
 17 18  2  0
 18 19  1  0
 18 20  1  0
 20 21  2  0
  2 22  1  0
 22 23  2  0
 23 24  1  0
 24 25  2  0
 25 26  1  0
 26 27  2  0
 27 28  1  0
 27 29  1  0
 29 30  2  0
 30 31  1  0
 31 32  2  0
 12  7  1  0
 21 15  1  0
 32 22  1  0
 31 25  1  0
  3 33  1  0
  4 34  1  0
  4 35  1  0
  8 36  1  0
  8 37  1  0
  9 38  1  0
  9 39  1  0
 10 40  1  0
 10 41  1  0
 11 42  1  0
 11 43  1  0
 12 44  1  6
 13 45  1  0
 13 46  1  0
 14 47  1  0
 16 48  1  0
 17 49  1  0
 20 50  1  0
 21 51  1  0
 23 52  1  0
 24 53  1  0
 26 54  1  0
 29 55  1  0
 30 56  1  0
M  END
>  <smiles>  (50) 
O=C(NCC(=O)N1CCCC[C@H]1CNc1ccc(Cl)cc1)c1ccc2cc(F)ccc2n1

>  <score_type>  (50) 
oracle

>  <origin>  (50) 
autodockgpu

>  <m_score__min__energy>  (50) 
-9.0600000000000005

>  <m_primary>  (50) 
energy

>  <rmsd>  (50) 
2.0667728470413276

>  <m_score__min__rmsd>  (50) 
2.0667728470413276

>  <meeko>  (50) 
{"free_energy": -7.66, "intermolecular_energy": -9.75, "internal_energy": -3.0, "cluster_size": 17, "cluster_id": 1, "rank_in_cluster": 13}

>  <energy>  (50) 
-6.96

>  <cluster_rmsd>  (50) 
0.0

>  <cluster>  (50) 
13

$$$$
