
     RDKit          3D

 53 56  0  0  0  0  0  0  0  0999 V2000
  138.7500   75.3010  221.6930 O   0  0  0  0  0  0  0  0  0  0  0  0
  139.9070   75.7940  221.7760 C   0  0  0  0  0  0  0  0  0  0  0  0
  141.0340   75.0440  221.3460 N   0  0  0  0  0  0  0  0  0  0  0  0
  140.8080   73.7140  220.8220 C   0  0  0  0  0  0  0  0  0  0  0  0
  142.0710   72.9450  220.9390 C   0  0  0  0  0  0  0  0  0  0  0  0
  142.1890   71.8960  221.6280 O   0  0  0  0  0  0  0  0  0  0  0  0
  143.1950   73.4350  220.2310 N   0  0  0  0  0  0  0  0  0  0  0  0
  143.9750   72.8280  219.1680 C   0  0  0  0  0  0  0  0  0  0  0  0
  145.4160   73.2790  219.4320 C   0  0  2  0  0  0  0  0  0  0  0  0
  146.1460   72.1820  219.8600 F   0  0  0  0  0  0  0  0  0  0  0  0
  145.2630   74.2960  220.5500 C   0  0  0  0  0  0  0  0  0  0  0  0
  143.8550   74.7670  220.4170 C   0  0  1  0  0  0  0  0  0  0  0  0
  143.4940   75.6580  219.3060 C   0  0  0  0  0  0  0  0  0  0  0  0
  142.3240   76.4460  219.4970 N   0  0  0  0  0  0  0  0  0  0  0  0
  141.3130   76.1220  218.4780 C   0  0  0  0  0  0  0  0  0  0  0  0
  140.4450   77.3670  218.3580 C   0  0  0  0  0  0  0  0  0  0  0  0
  141.4750   78.4550  218.4680 C   0  0  0  0  0  0  0  0  0  0  0  0
  142.5480   77.8700  219.3480 C   0  0  0  0  0  0  0  0  0  0  0  0
  140.1060   77.1340  222.3140 C   0  0  0  0  0  0  0  0  0  0  0  0
  139.0530   77.8920  222.7750 C   0  0  0  0  0  0  0  0  0  0  0  0
  139.2980   79.1580  223.2830 C   0  0  0  0  0  0  0  0  0  0  0  0
  140.5650   79.6420  223.3260 C   0  0  0  0  0  0  0  0  0  0  0  0
  140.7980   80.8980  223.8300 C   0  0  0  0  0  0  0  0  0  0  0  0
  142.1000   81.3410  223.8500 C   0  0  0  0  0  0  0  0  0  0  0  0
  143.1540   80.6080  223.4000 C   0  0  0  0  0  0  0  0  0  0  0  0
  142.9390   79.3550  222.8940 C   0  0  0  0  0  0  0  0  0  0  0  0
  141.6200   78.8850  222.8640 C   0  0  0  0  0  0  0  0  0  0  0  0
  141.3400   77.6740  222.3830 N   0  0  0  0  0  0  0  0  0  0  0  0
  142.0000   75.4630  221.4170 H   0  0  0  0  0  0  0  0  0  0  0  0
  140.0151   73.2166  221.3999 H   0  0  0  0  0  0  0  0  0  0  0  0
  140.4954   73.7703  219.7689 H   0  0  0  0  0  0  0  0  0  0  0  0
  143.8986   71.7314  219.2092 H   0  0  0  0  0  0  0  0  0  0  0  0
  143.6222   73.1292  218.1706 H   0  0  0  0  0  0  0  0  0  0  0  0
  145.9322   73.6974  218.5554 H   0  0  0  0  0  0  0  0  0  0  0  0
  145.4275   73.8266  221.5311 H   0  0  0  0  0  0  0  0  0  0  0  0
  145.9928   75.1161  220.4799 H   0  0  0  0  0  0  0  0  0  0  0  0
  143.5778   75.4093  221.2659 H   0  0  0  0  0  0  0  0  0  0  0  0
  144.3377   76.3429  219.1352 H   0  0  0  0  0  0  0  0  0  0  0  0
  143.2730   74.9979  218.4543 H   0  0  0  0  0  0  0  0  0  0  0  0
  141.7955   75.8953  217.5158 H   0  0  0  0  0  0  0  0  0  0  0  0
  140.7219   75.2369  218.7558 H   0  0  0  0  0  0  0  0  0  0  0  0
  139.9234   77.4026  217.3902 H   0  0  0  0  0  0  0  0  0  0  0  0
  139.6413   77.4299  219.1064 H   0  0  0  0  0  0  0  0  0  0  0  0
  141.8800   78.7087  217.4773 H   0  0  0  0  0  0  0  0  0  0  0  0
  141.0580   79.3861  218.8792 H   0  0  0  0  0  0  0  0  0  0  0  0
  143.5329   78.0407  218.8888 H   0  0  0  0  0  0  0  0  0  0  0  0
  142.5169   78.3525  220.3360 H   0  0  0  0  0  0  0  0  0  0  0  0
  138.0271   77.4965  222.7404 H   0  0  0  0  0  0  0  0  0  0  0  0
  138.4633   79.7720  223.6523 H   0  0  0  0  0  0  0  0  0  0  0  0
  139.9752   81.5255  224.2033 H   0  0  0  0  0  0  0  0  0  0  0  0
  142.3004   82.3448  224.2527 H   0  0  0  0  0  0  0  0  0  0  0  0
  144.1730   81.0201  223.4426 H   0  0  0  0  0  0  0  0  0  0  0  0
  143.7720   78.7391  222.5241 H   0  0  0  0  0  0  0  0  0  0  0  0
  1  2  2  0
  2  3  1  0
  3  4  1  0
  4  5  1  0
  5  6  2  0
  5  7  1  0
  7  8  1  0
  8  9  1  0
  9 10  1  0
  9 11  1  0
 11 12  1  0
 12 13  1  0
 13 14  1  0
 14 15  1  0
 15 16  1  0
 16 17  1  0
 17 18  1  0
  2 19  1  0
 19 20  2  0
 20 21  1  0
 21 22  2  0
 22 23  1  0
 23 24  2  0
 24 25  1  0
 25 26  2  0
 26 27  1  0
 27 28  2  0
 12  7  1  0
 18 14  1  0
 28 19  1  0
 27 22  1  0
  3 29  1  0
  4 30  1  0
  4 31  1  0
  8 32  1  0
  8 33  1  0
  9 34  1  6
 11 35  1  0
 11 36  1  0
 12 37  1  1
 13 38  1  0
 13 39  1  0
 15 40  1  0
 15 41  1  0
 16 42  1  0
 16 43  1  0
 17 44  1  0
 17 45  1  0
 18 46  1  0
 18 47  1  0
 20 48  1  0
 21 49  1  0
 23 50  1  0
 24 51  1  0
 25 52  1  0
 26 53  1  0
M  END
>  <smiles>  (1) 
O=C(NCC(=O)N1C[C@H](F)C[C@H]1CN1CCCC1)c1ccc2ccccc2n1

>  <score_type>  (1) 
oracle

>  <origin>  (1) 
autodockgpu

>  <m_score__min__energy>  (1) 
-8.3699999999999992

>  <m_primary>  (1) 
energy

>  <rmsd>  (1) 
7.192800549366268

>  <m_score__min__rmsd>  (1) 
7.192800549366268

>  <meeko>  (1) 
{"free_energy": -6.28, "intermolecular_energy": -8.07, "internal_energy": -3.12, "cluster_size": 6, "cluster_id": 6, "rank_in_cluster": 5}

>  <energy>  (1) 
-8.37

>  <cluster_rmsd>  (1) 
0.0

>  <cluster>  (1) 
1

$$$$

     RDKit          3D

 53 56  0  0  0  0  0  0  0  0999 V2000
  141.3490   72.5220  221.8990 O   0  0  0  0  0  0  0  0  0  0  0  0
  140.3060   72.5160  222.6090 C   0  0  0  0  0  0  0  0  0  0  0  0
  139.2520   73.4260  222.3340 N   0  0  0  0  0  0  0  0  0  0  0  0
  139.4170   74.3480  221.2310 C   0  0  0  0  0  0  0  0  0  0  0  0
  139.9860   75.6120  221.7590 C   0  0  0  0  0  0  0  0  0  0  0  0
  141.1920   75.7450  222.1030 O   0  0  0  0  0  0  0  0  0  0  0  0
  139.1090   76.7160  221.8790 N   0  0  0  0  0  0  0  0  0  0  0  0
  137.6720   76.7600  222.0790 C   0  0  0  0  0  0  0  0  0  0  0  0
  137.1980   77.9690  221.2650 C   0  0  2  0  0  0  0  0  0  0  0  0
  136.4890   77.5070  220.1680 F   0  0  0  0  0  0  0  0  0  0  0  0
  138.4980   78.6260  220.8310 C   0  0  0  0  0  0  0  0  0  0  0  0
  139.4890   78.1650  221.8430 C   0  0  1  0  0  0  0  0  0  0  0  0
  139.4460   78.7220  223.2020 C   0  0  0  0  0  0  0  0  0  0  0  0
  140.6720   79.2480  223.6980 N   0  0  0  0  0  0  0  0  0  0  0  0
  140.7560   80.6940  223.4360 C   0  0  0  0  0  0  0  0  0  0  0  0
  142.2440   81.0120  223.3970 C   0  0  0  0  0  0  0  0  0  0  0  0
  142.7840   79.8090  222.6790 C   0  0  0  0  0  0  0  0  0  0  0  0
  141.8470   78.6930  223.0580 C   0  0  0  0  0  0  0  0  0  0  0  0
  140.1700   71.5800  223.7180 C   0  0  0  0  0  0  0  0  0  0  0  0
  139.5790   70.3470  223.5560 C   0  0  0  0  0  0  0  0  0  0  0  0
  139.4810   69.4930  224.6420 C   0  0  0  0  0  0  0  0  0  0  0  0
  139.9650   69.8700  225.8530 C   0  0  0  0  0  0  0  0  0  0  0  0
  139.8630   69.0160  226.9240 C   0  0  0  0  0  0  0  0  0  0  0  0
  140.3690   69.4480  228.1290 C   0  0  0  0  0  0  0  0  0  0  0  0
  140.9570   70.6610  228.3090 C   0  0  0  0  0  0  0  0  0  0  0  0
  141.0660   71.5240  227.2520 C   0  0  0  0  0  0  0  0  0  0  0  0
  140.5570   71.1040  226.0170 C   0  0  0  0  0  0  0  0  0  0  0  0
  140.6300   71.8950  224.9470 N   0  0  0  0  0  0  0  0  0  0  0  0
  138.3810   73.4140  222.9310 H   0  0  0  0  0  0  0  0  0  0  0  0
  140.1001   73.9162  220.4848 H   0  0  0  0  0  0  0  0  0  0  0  0
  138.4461   74.5416  220.7515 H   0  0  0  0  0  0  0  0  0  0  0  0
  137.2014   75.8366  221.7104 H   0  0  0  0  0  0  0  0  0  0  0  0
  137.4041   76.8457  223.1424 H   0  0  0  0  0  0  0  0  0  0  0  0
  136.5426   78.6617  221.8133 H   0  0  0  0  0  0  0  0  0  0  0  0
  138.7860   78.2948  219.8224 H   0  0  0  0  0  0  0  0  0  0  0  0
  138.4226   79.7222  220.7805 H   0  0  0  0  0  0  0  0  0  0  0  0
  140.5072   78.4640  221.5536 H   0  0  0  0  0  0  0  0  0  0  0  0
  138.7034   79.5335  223.2101 H   0  0  0  0  0  0  0  0  0  0  0  0
  139.1961   77.8779  223.8616 H   0  0  0  0  0  0  0  0  0  0  0  0
  140.2848   80.9386  222.4726 H   0  0  0  0  0  0  0  0  0  0  0  0
  140.2325   81.2802  224.2056 H   0  0  0  0  0  0  0  0  0  0  0  0
  142.4433   81.9378  222.8374 H   0  0  0  0  0  0  0  0  0  0  0  0
  142.6934   81.1853  224.3860 H   0  0  0  0  0  0  0  0  0  0  0  0
  142.7773   79.9699  221.5909 H   0  0  0  0  0  0  0  0  0  0  0  0
  143.8269   79.5912  222.9527 H   0  0  0  0  0  0  0  0  0  0  0  0
  141.5471   78.1426  222.1540 H   0  0  0  0  0  0  0  0  0  0  0  0
  142.3543   78.0071  223.7524 H   0  0  0  0  0  0  0  0  0  0  0  0
  139.1884   70.0431  222.5736 H   0  0  0  0  0  0  0  0  0  0  0  0
  139.0096   68.5063  224.5229 H   0  0  0  0  0  0  0  0  0  0  0  0
  139.3952   68.0256  226.8227 H   0  0  0  0  0  0  0  0  0  0  0  0
  140.2935   68.7741  228.9952 H   0  0  0  0  0  0  0  0  0  0  0  0
  141.3429   70.9471  229.2986 H   0  0  0  0  0  0  0  0  0  0  0  0
  141.5363   72.5115  227.3686 H   0  0  0  0  0  0  0  0  0  0  0  0
  1  2  2  0
  2  3  1  0
  3  4  1  0
  4  5  1  0
  5  6  2  0
  5  7  1  0
  7  8  1  0
  8  9  1  0
  9 10  1  0
  9 11  1  0
 11 12  1  0
 12 13  1  0
 13 14  1  0
 14 15  1  0
 15 16  1  0
 16 17  1  0
 17 18  1  0
  2 19  1  0
 19 20  2  0
 20 21  1  0
 21 22  2  0
 22 23  1  0
 23 24  2  0
 24 25  1  0
 25 26  2  0
 26 27  1  0
 27 28  2  0
 12  7  1  0
 18 14  1  0
 28 19  1  0
 27 22  1  0
  3 29  1  0
  4 30  1  0
  4 31  1  0
  8 32  1  0
  8 33  1  0
  9 34  1  1
 11 35  1  0
 11 36  1  0
 12 37  1  6
 13 38  1  0
 13 39  1  0
 15 40  1  0
 15 41  1  0
 16 42  1  0
 16 43  1  0
 17 44  1  0
 17 45  1  0
 18 46  1  0
 18 47  1  0
 20 48  1  0
 21 49  1  0
 23 50  1  0
 24 51  1  0
 25 52  1  0
 26 53  1  0
M  END
>  <smiles>  (2) 
O=C(NCC(=O)N1C[C@H](F)C[C@H]1CN1CCCC1)c1ccc2ccccc2n1

>  <score_type>  (2) 
oracle

>  <origin>  (2) 
autodockgpu

>  <m_score__min__energy>  (2) 
-8.3699999999999992

>  <m_primary>  (2) 
energy

>  <rmsd>  (2) 
2.766708671821885

>  <m_score__min__rmsd>  (2) 
2.766708671821885

>  <meeko>  (2) 
{"free_energy": -8.28, "intermolecular_energy": -10.07, "internal_energy": -1.34, "cluster_size": 29, "cluster_id": 1, "rank_in_cluster": 9}

>  <energy>  (2) 
-8.35

>  <cluster_rmsd>  (2) 
1.65

>  <cluster>  (2) 
1

$$$$

     RDKit          3D

 53 56  0  0  0  0  0  0  0  0999 V2000
  138.9030   72.7810  222.0990 O   0  0  0  0  0  0  0  0  0  0  0  0
  139.9900   72.3070  222.5280 C   0  0  0  0  0  0  0  0  0  0  0  0
  141.2100   72.6150  221.8700 N   0  0  0  0  0  0  0  0  0  0  0  0
  141.1590   73.4740  220.7060 C   0  0  0  0  0  0  0  0  0  0  0  0
  140.9160   74.8640  221.1620 C   0  0  0  0  0  0  0  0  0  0  0  0
  140.5740   75.1630  222.3380 O   0  0  0  0  0  0  0  0  0  0  0  0
  141.0810   75.8960  220.2080 N   0  0  0  0  0  0  0  0  0  0  0  0
  140.2510   76.2760  219.0790 C   0  0  0  0  0  0  0  0  0  0  0  0
  141.2420   76.7180  217.9950 C   0  0  2  0  0  0  0  0  0  0  0  0
  141.2400   75.7680  216.9870 F   0  0  0  0  0  0  0  0  0  0  0  0
  142.5740   76.7290  218.7260 C   0  0  0  0  0  0  0  0  0  0  0  0
  142.1970   76.8950  220.1580 C   0  0  1  0  0  0  0  0  0  0  0  0
  141.7160   78.2000  220.6320 C   0  0  0  0  0  0  0  0  0  0  0  0
  141.7010   78.3820  222.0430 N   0  0  0  0  0  0  0  0  0  0  0  0
  140.3430   78.7120  222.5070 C   0  0  0  0  0  0  0  0  0  0  0  0
  140.5350   79.4790  223.8080 C   0  0  0  0  0  0  0  0  0  0  0  0
  141.7370   80.3180  223.4800 C   0  0  0  0  0  0  0  0  0  0  0  0
  142.5200   79.4870  222.4980 C   0  0  0  0  0  0  0  0  0  0  0  0
  140.0100   71.4400  223.7000 C   0  0  0  0  0  0  0  0  0  0  0  0
  139.5510   70.1440  223.6470 C   0  0  0  0  0  0  0  0  0  0  0  0
  139.5990   69.3590  224.7890 C   0  0  0  0  0  0  0  0  0  0  0  0
  140.0960   69.8680  225.9460 C   0  0  0  0  0  0  0  0  0  0  0  0
  140.1390   69.0830  227.0710 C   0  0  0  0  0  0  0  0  0  0  0  0
  140.6510   69.6480  228.2170 C   0  0  0  0  0  0  0  0  0  0  0  0
  141.1090   70.9260  228.2890 C   0  0  0  0  0  0  0  0  0  0  0  0
  141.0720   71.7210  227.1760 C   0  0  0  0  0  0  0  0  0  0  0  0
  140.5550   71.1660  225.9990 C   0  0  0  0  0  0  0  0  0  0  0  0
  140.4900   71.8860  224.8790 N   0  0  0  0  0  0  0  0  0  0  0  0
  142.1170   72.2160  222.2350 H   0  0  0  0  0  0  0  0  0  0  0  0
  142.1146   73.4224  220.1637 H   0  0  0  0  0  0  0  0  0  0  0  0
  140.3524   73.1503  220.0318 H   0  0  0  0  0  0  0  0  0  0  0  0
  139.6535   75.4201  218.7320 H   0  0  0  0  0  0  0  0  0  0  0  0
  139.5369   77.0716  219.3379 H   0  0  0  0  0  0  0  0  0  0  0  0
  141.0119   77.6893  217.5328 H   0  0  0  0  0  0  0  0  0  0  0  0
  143.1133   75.7829  218.5706 H   0  0  0  0  0  0  0  0  0  0  0  0
  143.2462   77.5236  218.3700 H   0  0  0  0  0  0  0  0  0  0  0  0
  143.0766   76.7767  220.8079 H   0  0  0  0  0  0  0  0  0  0  0  0
  142.3647   78.9757  220.1991 H   0  0  0  0  0  0  0  0  0  0  0  0
  140.6653   78.2637  220.3126 H   0  0  0  0  0  0  0  0  0  0  0  0
  139.8241   79.3367  221.7651 H   0  0  0  0  0  0  0  0  0  0  0  0
  139.7296   77.8103  222.6507 H   0  0  0  0  0  0  0  0  0  0  0  0
  139.6595   80.1031  224.0405 H   0  0  0  0  0  0  0  0  0  0  0  0
  140.6602   78.8392  224.6940 H   0  0  0  0  0  0  0  0  0  0  0  0
  141.4327   81.2726  223.0259 H   0  0  0  0  0  0  0  0  0  0  0  0
  142.3250   80.5741  224.3737 H   0  0  0  0  0  0  0  0  0  0  0  0
  142.8077   80.1093  221.6378 H   0  0  0  0  0  0  0  0  0  0  0  0
  143.4254   79.0970  222.9860 H   0  0  0  0  0  0  0  0  0  0  0  0
  139.1500   69.7347  222.7080 H   0  0  0  0  0  0  0  0  0  0  0  0
  139.2338   68.3219  224.7578 H   0  0  0  0  0  0  0  0  0  0  0  0
  139.7787   68.0438  227.0574 H   0  0  0  0  0  0  0  0  0  0  0  0
  140.6919   69.0303  229.1263 H   0  0  0  0  0  0  0  0  0  0  0  0
  141.5069   71.3186  229.2364 H   0  0  0  0  0  0  0  0  0  0  0  0
  141.4354   72.7589  227.2048 H   0  0  0  0  0  0  0  0  0  0  0  0
  1  2  2  0
  2  3  1  0
  3  4  1  0
  4  5  1  0
  5  6  2  0
  5  7  1  0
  7  8  1  0
  8  9  1  0
  9 10  1  0
  9 11  1  0
 11 12  1  0
 12 13  1  0
 13 14  1  0
 14 15  1  0
 15 16  1  0
 16 17  1  0
 17 18  1  0
  2 19  1  0
 19 20  2  0
 20 21  1  0
 21 22  2  0
 22 23  1  0
 23 24  2  0
 24 25  1  0
 25 26  2  0
 26 27  1  0
 27 28  2  0
 12  7  1  0
 18 14  1  0
 28 19  1  0
 27 22  1  0
  3 29  1  0
  4 30  1  0
  4 31  1  0
  8 32  1  0
  8 33  1  0
  9 34  1  6
 11 35  1  0
 11 36  1  0
 12 37  1  1
 13 38  1  0
 13 39  1  0
 15 40  1  0
 15 41  1  0
 16 42  1  0
 16 43  1  0
 17 44  1  0
 17 45  1  0
 18 46  1  0
 18 47  1  0
 20 48  1  0
 21 49  1  0
 23 50  1  0
 24 51  1  0
 25 52  1  0
 26 53  1  0
M  END
>  <smiles>  (3) 
O=C(NCC(=O)N1C[C@H](F)C[C@H]1CN1CCCC1)c1ccc2ccccc2n1

>  <score_type>  (3) 
oracle

>  <origin>  (3) 
autodockgpu

>  <m_score__min__energy>  (3) 
-8.3699999999999992

>  <m_primary>  (3) 
energy

>  <rmsd>  (3) 
2.073982907709741

>  <m_score__min__rmsd>  (3) 
2.073982907709741

>  <meeko>  (3) 
{"free_energy": -7.62, "intermolecular_energy": -9.41, "internal_energy": -1.32, "cluster_size": 29, "cluster_id": 1, "rank_in_cluster": 28}

>  <energy>  (3) 
-8.31

>  <cluster_rmsd>  (3) 
0.1

>  <cluster>  (3) 
1

$$$$

     RDKit          3D

 53 56  0  0  0  0  0  0  0  0999 V2000
  140.7410   71.5290  221.3290 O   0  0  0  0  0  0  0  0  0  0  0  0
  140.3010   72.0960  222.3660 C   0  0  0  0  0  0  0  0  0  0  0  0
  139.9360   73.4680  222.3270 N   0  0  0  0  0  0  0  0  0  0  0  0
  140.0890   74.1790  221.0760 C   0  0  0  0  0  0  0  0  0  0  0  0
  140.3110   75.6140  221.3790 C   0  0  0  0  0  0  0  0  0  0  0  0
  140.0280   76.1460  222.4870 O   0  0  0  0  0  0  0  0  0  0  0  0
  140.8720   76.4130  220.3550 N   0  0  0  0  0  0  0  0  0  0  0  0
  140.6290   76.4140  218.9230 C   0  0  0  0  0  0  0  0  0  0  0  0
  141.9930   76.7200  218.2940 C   0  0  2  0  0  0  0  0  0  0  0  0
  142.4540   75.5720  217.6700 F   0  0  0  0  0  0  0  0  0  0  0  0
  142.8580   77.0680  219.4930 C   0  0  0  0  0  0  0  0  0  0  0  0
  141.8800   77.5080  220.5270 C   0  0  1  0  0  0  0  0  0  0  0  0
  141.2210   78.8140  220.3890 C   0  0  0  0  0  0  0  0  0  0  0  0
  141.2870   79.6660  221.5270 N   0  0  0  0  0  0  0  0  0  0  0  0
  142.5000   79.3840  222.3130 C   0  0  0  0  0  0  0  0  0  0  0  0
  142.1750   79.8300  223.7320 C   0  0  0  0  0  0  0  0  0  0  0  0
  140.7460   79.3860  223.8600 C   0  0  0  0  0  0  0  0  0  0  0  0
  140.1960   79.4800  222.4610 C   0  0  0  0  0  0  0  0  0  0  0  0
  140.1630   71.3560  223.6140 C   0  0  0  0  0  0  0  0  0  0  0  0
  139.5730   70.1130  223.6560 C   0  0  0  0  0  0  0  0  0  0  0  0
  139.4730   69.4490  224.8690 C   0  0  0  0  0  0  0  0  0  0  0  0
  139.9540   70.0220  226.0020 C   0  0  0  0  0  0  0  0  0  0  0  0
  139.8500   69.3570  227.1980 C   0  0  0  0  0  0  0  0  0  0  0  0
  140.3530   69.9820  228.3160 C   0  0  0  0  0  0  0  0  0  0  0  0
  140.9390   71.2090  228.2950 C   0  0  0  0  0  0  0  0  0  0  0  0
  141.0500   71.8850  227.1110 C   0  0  0  0  0  0  0  0  0  0  0  0
  140.5440   71.2660  225.9600 C   0  0  0  0  0  0  0  0  0  0  0  0
  140.6190   71.8700  224.7750 N   0  0  0  0  0  0  0  0  0  0  0  0
  139.5670   73.9360  223.1980 H   0  0  0  0  0  0  0  0  0  0  0  0
  140.9515   73.7779  220.5235 H   0  0  0  0  0  0  0  0  0  0  0  0
  139.1867   74.0576  220.4587 H   0  0  0  0  0  0  0  0  0  0  0  0
  140.2613   75.4316  218.5918 H   0  0  0  0  0  0  0  0  0  0  0  0
  139.8638   77.1489  218.6324 H   0  0  0  0  0  0  0  0  0  0  0  0
  141.9805   77.5223  217.5416 H   0  0  0  0  0  0  0  0  0  0  0  0
  143.4216   76.1883  219.8371 H   0  0  0  0  0  0  0  0  0  0  0  0
  143.6083   77.8392  219.2643 H   0  0  0  0  0  0  0  0  0  0  0  0
  142.3790   77.6555  221.4962 H   0  0  0  0  0  0  0  0  0  0  0  0
  141.6905   79.3412  219.5454 H   0  0  0  0  0  0  0  0  0  0  0  0
  140.1531   78.5949  220.2423 H   0  0  0  0  0  0  0  0  0  0  0  0
  142.7315   78.3089  222.2910 H   0  0  0  0  0  0  0  0  0  0  0  0
  143.3793   79.9084  221.9106 H   0  0  0  0  0  0  0  0  0  0  0  0
  142.8198   79.3292  224.4691 H   0  0  0  0  0  0  0  0  0  0  0  0
  142.3311   80.9036  223.9137 H   0  0  0  0  0  0  0  0  0  0  0  0
  140.6918   78.3517  224.2306 H   0  0  0  0  0  0  0  0  0  0  0  0
  140.1791   80.0006  224.5748 H   0  0  0  0  0  0  0  0  0  0  0  0
  139.6567   78.5532  222.2156 H   0  0  0  0  0  0  0  0  0  0  0  0
  139.5054   80.3336  222.3942 H   0  0  0  0  0  0  0  0  0  0  0  0
  139.1847   69.6511  222.7363 H   0  0  0  0  0  0  0  0  0  0  0  0
  139.0028   68.4555  224.9135 H   0  0  0  0  0  0  0  0  0  0  0  0
  139.3828   68.3631  227.2605 H   0  0  0  0  0  0  0  0  0  0  0  0
  140.2768   69.4597  229.2811 H   0  0  0  0  0  0  0  0  0  0  0  0
  141.3215   71.6553  229.2248 H   0  0  0  0  0  0  0  0  0  0  0  0
  141.5195   72.8787  227.0640 H   0  0  0  0  0  0  0  0  0  0  0  0
  1  2  2  0
  2  3  1  0
  3  4  1  0
  4  5  1  0
  5  6  2  0
  5  7  1  0
  7  8  1  0
  8  9  1  0
  9 10  1  0
  9 11  1  0
 11 12  1  0
 12 13  1  0
 13 14  1  0
 14 15  1  0
 15 16  1  0
 16 17  1  0
 17 18  1  0
  2 19  1  0
 19 20  2  0
 20 21  1  0
 21 22  2  0
 22 23  1  0
 23 24  2  0
 24 25  1  0
 25 26  2  0
 26 27  1  0
 27 28  2  0
 12  7  1  0
 18 14  1  0
 28 19  1  0
 27 22  1  0
  3 29  1  0
  4 30  1  0
  4 31  1  0
  8 32  1  0
  8 33  1  0
  9 34  1  6
 11 35  1  0
 11 36  1  0
 12 37  1  1
 13 38  1  0
 13 39  1  0
 15 40  1  0
 15 41  1  0
 16 42  1  0
 16 43  1  0
 17 44  1  0
 17 45  1  0
 18 46  1  0
 18 47  1  0
 20 48  1  0
 21 49  1  0
 23 50  1  0
 24 51  1  0
 25 52  1  0
 26 53  1  0
M  END
>  <smiles>  (4) 
O=C(NCC(=O)N1C[C@H](F)C[C@H]1CN1CCCC1)c1ccc2ccccc2n1

>  <score_type>  (4) 
oracle

>  <origin>  (4) 
autodockgpu

>  <m_score__min__energy>  (4) 
-8.3699999999999992

>  <m_primary>  (4) 
energy

>  <rmsd>  (4) 
2.1669147754468874

>  <m_score__min__rmsd>  (4) 
2.1669147754468874

>  <meeko>  (4) 
{"free_energy": -8.07, "intermolecular_energy": -9.86, "internal_energy": -1.88, "cluster_size": 29, "cluster_id": 1, "rank_in_cluster": 20}

>  <energy>  (4) 
-8.3

>  <cluster_rmsd>  (4) 
0.17

>  <cluster>  (4) 
1

$$$$

     RDKit          3D

 53 56  0  0  0  0  0  0  0  0999 V2000
  140.6300   75.3100  220.8310 O   0  0  0  0  0  0  0  0  0  0  0  0
  139.8860   75.7230  221.7620 C   0  0  0  0  0  0  0  0  0  0  0  0
  138.8850   74.8730  222.3040 N   0  0  0  0  0  0  0  0  0  0  0  0
  138.7500   73.5410  221.7540 C   0  0  0  0  0  0  0  0  0  0  0  0
  139.7550   72.6650  222.4030 C   0  0  0  0  0  0  0  0  0  0  0  0
  140.9670   72.9820  222.5510 O   0  0  0  0  0  0  0  0  0  0  0  0
  139.3100   71.4070  222.8740 N   0  0  0  0  0  0  0  0  0  0  0  0
  138.8750   70.2290  222.1440 C   0  0  0  0  0  0  0  0  0  0  0  0
  137.7490   69.6320  222.9970 C   0  0  2  0  0  0  0  0  0  0  0  0
  136.5490   69.8250  222.3330 F   0  0  0  0  0  0  0  0  0  0  0  0
  137.8010   70.4600  224.2700 C   0  0  0  0  0  0  0  0  0  0  0  0
  139.1980   70.9770  224.3050 C   0  0  1  0  0  0  0  0  0  0  0  0
  140.3000   70.0620  224.6350 C   0  0  0  0  0  0  0  0  0  0  0  0
  141.0050   70.3470  225.8370 N   0  0  0  0  0  0  0  0  0  0  0  0
  140.3320   69.7260  226.9890 C   0  0  0  0  0  0  0  0  0  0  0  0
  140.7360   70.5640  228.1940 C   0  0  0  0  0  0  0  0  0  0  0  0
  140.7040   71.9490  227.6130 C   0  0  0  0  0  0  0  0  0  0  0  0
  141.0600   71.7570  226.1630 C   0  0  0  0  0  0  0  0  0  0  0  0
  140.0400   77.0720  222.2920 C   0  0  0  0  0  0  0  0  0  0  0  0
  138.9570   77.8120  222.7100 C   0  0  0  0  0  0  0  0  0  0  0  0
  139.1610   79.0880  223.2130 C   0  0  0  0  0  0  0  0  0  0  0  0
  140.4170   79.5980  223.2920 C   0  0  0  0  0  0  0  0  0  0  0  0
  140.6080   80.8630  223.7910 C   0  0  0  0  0  0  0  0  0  0  0  0
  141.9000   81.3320  223.8490 C   0  0  0  0  0  0  0  0  0  0  0  0
  142.9820   80.6150  223.4420 C   0  0  0  0  0  0  0  0  0  0  0  0
  142.8080   79.3540  222.9410 C   0  0  0  0  0  0  0  0  0  0  0  0
  141.5000   78.8570  222.8740 C   0  0  0  0  0  0  0  0  0  0  0  0
  141.2610   77.6360  222.3960 N   0  0  0  0  0  0  0  0  0  0  0  0
  138.2660   75.2240  223.0840 H   0  0  0  0  0  0  0  0  0  0  0  0
  137.7384   73.1573  221.9528 H   0  0  0  0  0  0  0  0  0  0  0  0
  138.9118   73.5621  220.6662 H   0  0  0  0  0  0  0  0  0  0  0  0
  138.5005   70.5070  221.1478 H   0  0  0  0  0  0  0  0  0  0  0  0
  139.6958   69.5149  221.9819 H   0  0  0  0  0  0  0  0  0  0  0  0
  137.8473   68.5546  223.1956 H   0  0  0  0  0  0  0  0  0  0  0  0
  137.0782   71.2882  224.2279 H   0  0  0  0  0  0  0  0  0  0  0  0
  137.5421   69.8768  225.1660 H   0  0  0  0  0  0  0  0  0  0  0  0
  139.3196   71.7107  225.1155 H   0  0  0  0  0  0  0  0  0  0  0  0
  139.8819   69.0483  224.7217 H   0  0  0  0  0  0  0  0  0  0  0  0
  141.0349   70.1764  223.8245 H   0  0  0  0  0  0  0  0  0  0  0  0
  139.2405   69.7471  226.8542 H   0  0  0  0  0  0  0  0  0  0  0  0
  140.6188   68.6710  227.1101 H   0  0  0  0  0  0  0  0  0  0  0  0
  140.0162   70.4566  229.0188 H   0  0  0  0  0  0  0  0  0  0  0  0
  141.7038   70.2824  228.6346 H   0  0  0  0  0  0  0  0  0  0  0  0
  139.7009   72.3893  227.7122 H   0  0  0  0  0  0  0  0  0  0  0  0
  141.3945   72.6343  228.1264 H   0  0  0  0  0  0  0  0  0  0  0  0
  140.3452   72.3074  225.5336 H   0  0  0  0  0  0  0  0  0  0  0  0
  142.0760   72.1370  225.9806 H   0  0  0  0  0  0  0  0  0  0  0  0
  137.9409   77.3956  222.6457 H   0  0  0  0  0  0  0  0  0  0  0  0
  138.3030   79.6888  223.5489 H   0  0  0  0  0  0  0  0  0  0  0  0
  139.7612   81.4772  224.1310 H   0  0  0  0  0  0  0  0  0  0  0  0
  142.0675   82.3437  224.2469 H   0  0  0  0  0  0  0  0  0  0  0  0
  143.9911   81.0467  223.5153 H   0  0  0  0  0  0  0  0  0  0  0  0
  143.6643   78.7520  222.6029 H   0  0  0  0  0  0  0  0  0  0  0  0
  1  2  2  0
  2  3  1  0
  3  4  1  0
  4  5  1  0
  5  6  2  0
  5  7  1  0
  7  8  1  0
  8  9  1  0
  9 10  1  0
  9 11  1  0
 11 12  1  0
 12 13  1  0
 13 14  1  0
 14 15  1  0
 15 16  1  0
 16 17  1  0
 17 18  1  0
  2 19  1  0
 19 20  2  0
 20 21  1  0
 21 22  2  0
 22 23  1  0
 23 24  2  0
 24 25  1  0
 25 26  2  0
 26 27  1  0
 27 28  2  0
 12  7  1  0
 18 14  1  0
 28 19  1  0
 27 22  1  0
  3 29  1  0
  4 30  1  0
  4 31  1  0
  8 32  1  0
  8 33  1  0
  9 34  1  1
 11 35  1  0
 11 36  1  0
 12 37  1  1
 13 38  1  0
 13 39  1  0
 15 40  1  0
 15 41  1  0
 16 42  1  0
 16 43  1  0
 17 44  1  0
 17 45  1  0
 18 46  1  0
 18 47  1  0
 20 48  1  0
 21 49  1  0
 23 50  1  0
 24 51  1  0
 25 52  1  0
 26 53  1  0
M  END
>  <smiles>  (5) 
O=C(NCC(=O)N1C[C@H](F)C[C@H]1CN1CCCC1)c1ccc2ccccc2n1

>  <score_type>  (5) 
oracle

>  <origin>  (5) 
autodockgpu

>  <m_score__min__energy>  (5) 
-8.3699999999999992

>  <m_primary>  (5) 
energy

>  <rmsd>  (5) 
8.913421235284925

>  <m_score__min__rmsd>  (5) 
8.913421235284925

>  <meeko>  (5) 
{"free_energy": -8.35, "intermolecular_energy": -10.14, "internal_energy": -1.29, "cluster_size": 3, "cluster_id": 2, "rank_in_cluster": 1}

>  <energy>  (5) 
-8.3

>  <cluster_rmsd>  (5) 
0.14

>  <cluster>  (5) 
1

$$$$

     RDKit          3D

 53 56  0  0  0  0  0  0  0  0999 V2000
  141.3910   71.7580  221.5290 O   0  0  0  0  0  0  0  0  0  0  0  0
  140.6610   72.2320  222.4420 C   0  0  0  0  0  0  0  0  0  0  0  0
  140.1600   73.5570  222.3370 N   0  0  0  0  0  0  0  0  0  0  0  0
  140.5140   74.3290  221.1660 C   0  0  0  0  0  0  0  0  0  0  0  0
  140.1350   75.7430  221.4070 C   0  0  0  0  0  0  0  0  0  0  0  0
  139.5210   76.1360  222.4360 O   0  0  0  0  0  0  0  0  0  0  0  0
  140.4900   76.6870  220.4140 N   0  0  0  0  0  0  0  0  0  0  0  0
  139.9880   76.8660  219.0640 C   0  0  0  0  0  0  0  0  0  0  0  0
  141.2110   77.2970  218.2440 C   0  0  2  0  0  0  0  0  0  0  0  0
  141.5590   76.2560  217.3990 F   0  0  0  0  0  0  0  0  0  0  0  0
  142.2790   77.5140  219.3020 C   0  0  0  0  0  0  0  0  0  0  0  0
  141.5030   77.7830  220.5460 C   0  0  1  0  0  0  0  0  0  0  0  0
  140.8190   79.0730  220.7060 C   0  0  0  0  0  0  0  0  0  0  0  0
  140.9820   79.7110  221.9680 N   0  0  0  0  0  0  0  0  0  0  0  0
  142.3770   80.1420  222.1510 C   0  0  0  0  0  0  0  0  0  0  0  0
  142.5890   80.2010  223.6580 C   0  0  0  0  0  0  0  0  0  0  0  0
  141.8230   78.9890  224.1090 C   0  0  0  0  0  0  0  0  0  0  0  0
  140.7170   78.8450  223.0990 C   0  0  0  0  0  0  0  0  0  0  0  0
  140.3250   71.4330  223.6140 C   0  0  0  0  0  0  0  0  0  0  0  0
  139.6080   70.2630  223.5090 C   0  0  0  0  0  0  0  0  0  0  0  0
  139.3210   69.5380  224.6550 C   0  0  0  0  0  0  0  0  0  0  0  0
  139.7460   69.9790  225.8670 C   0  0  0  0  0  0  0  0  0  0  0  0
  139.4560   69.2530  226.9950 C   0  0  0  0  0  0  0  0  0  0  0  0
  139.9100   69.7450  228.1980 C   0  0  0  0  0  0  0  0  0  0  0  0
  140.6210   70.8990  228.3210 C   0  0  0  0  0  0  0  0  0  0  0  0
  140.9160   71.6340  227.2060 C   0  0  0  0  0  0  0  0  0  0  0  0
  140.4640   71.1500  225.9720 C   0  0  0  0  0  0  0  0  0  0  0  0
  140.7170   71.8170  224.8460 N   0  0  0  0  0  0  0  0  0  0  0  0
  139.5480   73.9470  223.1040 H   0  0  0  0  0  0  0  0  0  0  0  0
  141.5974   74.2596  220.9885 H   0  0  0  0  0  0  0  0  0  0  0  0
  139.9858   73.9407  220.2827 H   0  0  0  0  0  0  0  0  0  0  0  0
  139.5744   75.9233  218.6764 H   0  0  0  0  0  0  0  0  0  0  0  0
  139.1759   77.6065  219.0182 H   0  0  0  0  0  0  0  0  0  0  0  0
  141.0532   78.1896  217.6209 H   0  0  0  0  0  0  0  0  0  0  0  0
  142.9038   76.6160  219.4171 H   0  0  0  0  0  0  0  0  0  0  0  0
  142.9682   78.3325  219.0470 H   0  0  0  0  0  0  0  0  0  0  0  0
  142.1701   77.8192  221.4199 H   0  0  0  0  0  0  0  0  0  0  0  0
  141.2005   79.7550  219.9318 H   0  0  0  0  0  0  0  0  0  0  0  0
  139.7447   78.8528  220.6204 H   0  0  0  0  0  0  0  0  0  0  0  0
  143.0666   79.4173  221.6936 H   0  0  0  0  0  0  0  0  0  0  0  0
  142.5705   81.1135  221.6728 H   0  0  0  0  0  0  0  0  0  0  0  0
  143.6550   80.1239  223.9183 H   0  0  0  0  0  0  0  0  0  0  0  0
  142.2598   81.1417  224.1234 H   0  0  0  0  0  0  0  0  0  0  0  0
  142.4687   78.0984  224.1082 H   0  0  0  0  0  0  0  0  0  0  0  0
  141.4412   79.0935  225.1353 H   0  0  0  0  0  0  0  0  0  0  0  0
  140.6657   77.8006  222.7574 H   0  0  0  0  0  0  0  0  0  0  0  0
  139.7591   79.1265  223.5606 H   0  0  0  0  0  0  0  0  0  0  0  0
  139.2663   69.9069  222.5259 H   0  0  0  0  0  0  0  0  0  0  0  0
  138.7471   68.6024  224.5824 H   0  0  0  0  0  0  0  0  0  0  0  0
  138.8836   68.3153  226.9401 H   0  0  0  0  0  0  0  0  0  0  0  0
  139.6856   69.1735  229.1107 H   0  0  0  0  0  0  0  0  0  0  0  0
  140.9566   71.2387  229.3119 H   0  0  0  0  0  0  0  0  0  0  0  0
  141.4875   72.5713  227.2759 H   0  0  0  0  0  0  0  0  0  0  0  0
  1  2  2  0
  2  3  1  0
  3  4  1  0
  4  5  1  0
  5  6  2  0
  5  7  1  0
  7  8  1  0
  8  9  1  0
  9 10  1  0
  9 11  1  0
 11 12  1  0
 12 13  1  0
 13 14  1  0
 14 15  1  0
 15 16  1  0
 16 17  1  0
 17 18  1  0
  2 19  1  0
 19 20  2  0
 20 21  1  0
 21 22  2  0
 22 23  1  0
 23 24  2  0
 24 25  1  0
 25 26  2  0
 26 27  1  0
 27 28  2  0
 12  7  1  0
 18 14  1  0
 28 19  1  0
 27 22  1  0
  3 29  1  0
  4 30  1  0
  4 31  1  0
  8 32  1  0
  8 33  1  0
  9 34  1  6
 11 35  1  0
 11 36  1  0
 12 37  1  1
 13 38  1  0
 13 39  1  0
 15 40  1  0
 15 41  1  0
 16 42  1  0
 16 43  1  0
 17 44  1  0
 17 45  1  0
 18 46  1  0
 18 47  1  0
 20 48  1  0
 21 49  1  0
 23 50  1  0
 24 51  1  0
 25 52  1  0
 26 53  1  0
M  END
>  <smiles>  (6) 
O=C(NCC(=O)N1C[C@H](F)C[C@H]1CN1CCCC1)c1ccc2ccccc2n1

>  <score_type>  (6) 
oracle

>  <origin>  (6) 
autodockgpu

>  <m_score__min__energy>  (6) 
-8.3699999999999992

>  <m_primary>  (6) 
energy

>  <rmsd>  (6) 
2.3386645550544896

>  <m_score__min__rmsd>  (6) 
2.3386645550544896

>  <meeko>  (6) 
{"free_energy": -8.0, "intermolecular_energy": -9.79, "internal_energy": -1.86, "cluster_size": 29, "cluster_id": 1, "rank_in_cluster": 21}

>  <energy>  (6) 
-8.3

>  <cluster_rmsd>  (6) 
0.3

>  <cluster>  (6) 
1

$$$$

     RDKit          3D

 53 56  0  0  0  0  0  0  0  0999 V2000
  141.3810   71.9180  221.5650 O   0  0  0  0  0  0  0  0  0  0  0  0
  140.6000   72.3370  222.4620 C   0  0  0  0  0  0  0  0  0  0  0  0
  140.0020   73.6200  222.3430 N   0  0  0  0  0  0  0  0  0  0  0  0
  140.3200   74.4160  221.1770 C   0  0  0  0  0  0  0  0  0  0  0  0
  139.7710   75.7790  221.3780 C   0  0  0  0  0  0  0  0  0  0  0  0
  139.0590   76.1060  222.3660 O   0  0  0  0  0  0  0  0  0  0  0  0
  140.0720   76.7500  220.3940 N   0  0  0  0  0  0  0  0  0  0  0  0
  139.2030   77.4470  219.4620 C   0  0  0  0  0  0  0  0  0  0  0  0
  140.0370   77.5960  218.1850 C   0  0  2  0  0  0  0  0  0  0  0  0
  139.5060   76.7600  217.2160 F   0  0  0  0  0  0  0  0  0  0  0  0
  141.4150   77.1220  218.6120 C   0  0  0  0  0  0  0  0  0  0  0  0
  141.4230   77.3220  220.0880 C   0  0  1  0  0  0  0  0  0  0  0  0
  141.5190   78.6830  220.6330 C   0  0  0  0  0  0  0  0  0  0  0  0
  142.1730   78.8050  221.8900 N   0  0  0  0  0  0  0  0  0  0  0  0
  141.2800   78.3750  222.9790 C   0  0  0  0  0  0  0  0  0  0  0  0
  141.7740   79.1060  224.2200 C   0  0  0  0  0  0  0  0  0  0  0  0
  142.1190   80.4520  223.6500 C   0  0  0  0  0  0  0  0  0  0  0  0
  142.5350   80.1660  222.2320 C   0  0  0  0  0  0  0  0  0  0  0  0
  140.3020   71.5160  223.6280 C   0  0  0  0  0  0  0  0  0  0  0  0
  139.5940   70.3410  223.5230 C   0  0  0  0  0  0  0  0  0  0  0  0
  139.3440   69.5950  224.6650 C   0  0  0  0  0  0  0  0  0  0  0  0
  139.7960   70.0210  225.8720 C   0  0  0  0  0  0  0  0  0  0  0  0
  139.5420   69.2750  226.9960 C   0  0  0  0  0  0  0  0  0  0  0  0
  140.0220   69.7520  228.1940 C   0  0  0  0  0  0  0  0  0  0  0  0
  140.7240   70.9110  228.3180 C   0  0  0  0  0  0  0  0  0  0  0  0
  140.9840   71.6660  227.2070 C   0  0  0  0  0  0  0  0  0  0  0  0
  140.5040   71.1980  225.9770 C   0  0  0  0  0  0  0  0  0  0  0  0
  140.7220   71.8850  224.8560 N   0  0  0  0  0  0  0  0  0  0  0  0
  139.3480   73.9640  223.0970 H   0  0  0  0  0  0  0  0  0  0  0  0
  141.4113   74.4699  221.0501 H   0  0  0  0  0  0  0  0  0  0  0  0
  139.8816   73.9605  220.2768 H   0  0  0  0  0  0  0  0  0  0  0  0
  138.2947   76.8586  219.2651 H   0  0  0  0  0  0  0  0  0  0  0  0
  138.8676   78.4184  219.8544 H   0  0  0  0  0  0  0  0  0  0  0  0
  140.0571   78.6136  217.7678 H   0  0  0  0  0  0  0  0  0  0  0  0
  141.5589   76.0609  218.3603 H   0  0  0  0  0  0  0  0  0  0  0  0
  142.2258   77.6668  218.1063 H   0  0  0  0  0  0  0  0  0  0  0  0
  142.3266   76.8813  220.5345 H   0  0  0  0  0  0  0  0  0  0  0  0
  142.0687   79.2989  219.9061 H   0  0  0  0  0  0  0  0  0  0  0  0
  140.4823   79.0083  220.8045 H   0  0  0  0  0  0  0  0  0  0  0  0
  140.2396   78.6544  222.7565 H   0  0  0  0  0  0  0  0  0  0  0  0
  141.2959   77.2834  223.1139 H   0  0  0  0  0  0  0  0  0  0  0  0
  140.9856   79.1819  224.9834 H   0  0  0  0  0  0  0  0  0  0  0  0
  142.6084   78.6072  224.7348 H   0  0  0  0  0  0  0  0  0  0  0  0
  141.2446   81.1190  223.6715 H   0  0  0  0  0  0  0  0  0  0  0  0
  142.9092   80.9588  224.2234 H   0  0  0  0  0  0  0  0  0  0  0  0
  142.0244   80.8636  221.5518 H   0  0  0  0  0  0  0  0  0  0  0  0
  143.6235   80.2923  222.1355 H   0  0  0  0  0  0  0  0  0  0  0  0
  139.2301   69.9970  222.5436 H   0  0  0  0  0  0  0  0  0  0  0  0
  138.7775   68.6549  224.5925 H   0  0  0  0  0  0  0  0  0  0  0  0
  138.9769   68.3329  226.9411 H   0  0  0  0  0  0  0  0  0  0  0  0
  139.8273   69.1633  229.1026 H   0  0  0  0  0  0  0  0  0  0  0  0
  141.0804   71.2390  229.3056 H   0  0  0  0  0  0  0  0  0  0  0  0
  141.5497   72.6068  227.2771 H   0  0  0  0  0  0  0  0  0  0  0  0
  1  2  2  0
  2  3  1  0
  3  4  1  0
  4  5  1  0
  5  6  2  0
  5  7  1  0
  7  8  1  0
  8  9  1  0
  9 10  1  0
  9 11  1  0
 11 12  1  0
 12 13  1  0
 13 14  1  0
 14 15  1  0
 15 16  1  0
 16 17  1  0
 17 18  1  0
  2 19  1  0
 19 20  2  0
 20 21  1  0
 21 22  2  0
 22 23  1  0
 23 24  2  0
 24 25  1  0
 25 26  2  0
 26 27  1  0
 27 28  2  0
 12  7  1  0
 18 14  1  0
 28 19  1  0
 27 22  1  0
  3 29  1  0
  4 30  1  0
  4 31  1  0
  8 32  1  0
  8 33  1  0
  9 34  1  6
 11 35  1  0
 11 36  1  0
 12 37  1  1
 13 38  1  0
 13 39  1  0
 15 40  1  0
 15 41  1  0
 16 42  1  0
 16 43  1  0
 17 44  1  0
 17 45  1  0
 18 46  1  0
 18 47  1  0
 20 48  1  0
 21 49  1  0
 23 50  1  0
 24 51  1  0
 25 52  1  0
 26 53  1  0
M  END
>  <smiles>  (7) 
O=C(NCC(=O)N1C[C@H](F)C[C@H]1CN1CCCC1)c1ccc2ccccc2n1

>  <score_type>  (7) 
oracle

>  <origin>  (7) 
autodockgpu

>  <m_score__min__energy>  (7) 
-8.3699999999999992

>  <m_primary>  (7) 
energy

>  <rmsd>  (7) 
2.023007813742494

>  <m_score__min__rmsd>  (7) 
2.023007813742494

>  <meeko>  (7) 
{"free_energy": -7.76, "intermolecular_energy": -9.55, "internal_energy": -1.81, "cluster_size": 29, "cluster_id": 1, "rank_in_cluster": 26}

>  <energy>  (7) 
-8.29

>  <cluster_rmsd>  (7) 
0.33

>  <cluster>  (7) 
1

$$$$

     RDKit          3D

 53 56  0  0  0  0  0  0  0  0999 V2000
  141.0790   71.8380  221.5420 O   0  0  0  0  0  0  0  0  0  0  0  0
  140.2910   72.1890  222.4630 C   0  0  0  0  0  0  0  0  0  0  0  0
  139.4960   73.3560  222.3130 N   0  0  0  0  0  0  0  0  0  0  0  0
  139.6250   74.1170  221.0890 C   0  0  0  0  0  0  0  0  0  0  0  0
  140.7360   75.0850  221.2560 C   0  0  0  0  0  0  0  0  0  0  0  0
  141.9550   74.7630  221.2170 O   0  0  0  0  0  0  0  0  0  0  0  0
  140.3870   76.4400  221.4700 N   0  0  0  0  0  0  0  0  0  0  0  0
  139.6330   77.0590  222.5450 C   0  0  0  0  0  0  0  0  0  0  0  0
  138.8360   78.1820  221.8700 C   0  0  2  0  0  0  0  0  0  0  0  0
  137.4980   77.8240  221.8620 F   0  0  0  0  0  0  0  0  0  0  0  0
  139.3980   78.2060  220.4590 C   0  0  0  0  0  0  0  0  0  0  0  0
  140.7540   77.6040  220.6020 C   0  0  1  0  0  0  0  0  0  0  0  0
  141.8250   78.3810  221.2400 C   0  0  0  0  0  0  0  0  0  0  0  0
  141.4060   79.3650  222.1790 N   0  0  0  0  0  0  0  0  0  0  0  0
  141.6560   80.7170  221.6550 C   0  0  0  0  0  0  0  0  0  0  0  0
  141.7890   81.6090  222.8820 C   0  0  0  0  0  0  0  0  0  0  0  0
  142.5550   80.7130  223.8140 C   0  0  0  0  0  0  0  0  0  0  0  0
  142.1280   79.3210  223.4340 C   0  0  0  0  0  0  0  0  0  0  0  0
  140.1860   71.4070  223.6880 C   0  0  0  0  0  0  0  0  0  0  0  0
  139.6120   70.1560  223.7000 C   0  0  0  0  0  0  0  0  0  0  0  0
  139.5430   69.4520  224.8920 C   0  0  0  0  0  0  0  0  0  0  0  0
  140.0410   69.9920  226.0340 C   0  0  0  0  0  0  0  0  0  0  0  0
  139.9680   69.2860  227.2090 C   0  0  0  0  0  0  0  0  0  0  0  0
  140.4860   69.8810  228.3370 C   0  0  0  0  0  0  0  0  0  0  0  0
  141.0580   71.1150  228.3450 C   0  0  0  0  0  0  0  0  0  0  0  0
  141.1370   71.8310  227.1820 C   0  0  0  0  0  0  0  0  0  0  0  0
  140.6150   71.2440  226.0220 C   0  0  0  0  0  0  0  0  0  0  0  0
  140.6600   71.8880  224.8560 N   0  0  0  0  0  0  0  0  0  0  0  0
  138.8370   73.6440  223.0860 H   0  0  0  0  0  0  0  0  0  0  0  0
  139.8454   73.4390  220.2513 H   0  0  0  0  0  0  0  0  0  0  0  0
  138.6873   74.6505  220.8744 H   0  0  0  0  0  0  0  0  0  0  0  0
  138.9549   76.3297  223.0123 H   0  0  0  0  0  0  0  0  0  0  0  0
  140.2860   77.4371  223.3454 H   0  0  0  0  0  0  0  0  0  0  0  0
  138.9126   79.1606  222.3664 H   0  0  0  0  0  0  0  0  0  0  0  0
  138.7739   77.6074  219.7791 H   0  0  0  0  0  0  0  0  0  0  0  0
  139.4269   79.2191  220.0315 H   0  0  0  0  0  0  0  0  0  0  0  0
  141.2114   77.4368  219.6157 H   0  0  0  0  0  0  0  0  0  0  0  0
  142.4865   77.6755  221.7641 H   0  0  0  0  0  0  0  0  0  0  0  0
  142.3144   78.9363  220.4262 H   0  0  0  0  0  0  0  0  0  0  0  0
  142.5835   80.7351  221.0639 H   0  0  0  0  0  0  0  0  0  0  0  0
  140.8467   81.0539  220.9905 H   0  0  0  0  0  0  0  0  0  0  0  0
  142.3502   82.5271  222.6538 H   0  0  0  0  0  0  0  0  0  0  0  0
  140.8303   81.9661  223.2861 H   0  0  0  0  0  0  0  0  0  0  0  0
  143.6384   80.8397  223.6723 H   0  0  0  0  0  0  0  0  0  0  0  0
  142.3528   80.9385  224.8715 H   0  0  0  0  0  0  0  0  0  0  0  0
  143.0164   78.6818  223.3241 H   0  0  0  0  0  0  0  0  0  0  0  0
  141.4761   78.9095  224.2187 H   0  0  0  0  0  0  0  0  0  0  0  0
  139.2121   69.7194  222.7730 H   0  0  0  0  0  0  0  0  0  0  0  0
  139.0834   68.4528  224.9129 H   0  0  0  0  0  0  0  0  0  0  0  0
  139.5138   68.2849  227.2476 H   0  0  0  0  0  0  0  0  0  0  0  0
  140.4344   69.3270  229.2859 H   0  0  0  0  0  0  0  0  0  0  0  0
  141.4548   71.5348  229.2811 H   0  0  0  0  0  0  0  0  0  0  0  0
  141.5938   72.8314  227.1585 H   0  0  0  0  0  0  0  0  0  0  0  0
  1  2  2  0
  2  3  1  0
  3  4  1  0
  4  5  1  0
  5  6  2  0
  5  7  1  0
  7  8  1  0
  8  9  1  0
  9 10  1  0
  9 11  1  0
 11 12  1  0
 12 13  1  0
 13 14  1  0
 14 15  1  0
 15 16  1  0
 16 17  1  0
 17 18  1  0
  2 19  1  0
 19 20  2  0
 20 21  1  0
 21 22  2  0
 22 23  1  0
 23 24  2  0
 24 25  1  0
 25 26  2  0
 26 27  1  0
 27 28  2  0
 12  7  1  0
 18 14  1  0
 28 19  1  0
 27 22  1  0
  3 29  1  0
  4 30  1  0
  4 31  1  0
  8 32  1  0
  8 33  1  0
  9 34  1  1
 11 35  1  0
 11 36  1  0
 12 37  1  6
 13 38  1  0
 13 39  1  0
 15 40  1  0
 15 41  1  0
 16 42  1  0
 16 43  1  0
 17 44  1  0
 17 45  1  0
 18 46  1  0
 18 47  1  0
 20 48  1  0
 21 49  1  0
 23 50  1  0
 24 51  1  0
 25 52  1  0
 26 53  1  0
M  END
>  <smiles>  (8) 
O=C(NCC(=O)N1C[C@H](F)C[C@H]1CN1CCCC1)c1ccc2ccccc2n1

>  <score_type>  (8) 
oracle

>  <origin>  (8) 
autodockgpu

>  <m_score__min__energy>  (8) 
-8.3699999999999992

>  <m_primary>  (8) 
energy

>  <rmsd>  (8) 
2.757914187898109

>  <m_score__min__rmsd>  (8) 
2.757914187898109

>  <meeko>  (8) 
{"free_energy": -8.35, "intermolecular_energy": -10.14, "internal_energy": -1.21, "cluster_size": 29, "cluster_id": 1, "rank_in_cluster": 2}

>  <energy>  (8) 
-8.29

>  <cluster_rmsd>  (8) 
1.58

>  <cluster>  (8) 
1

$$$$

     RDKit          3D

 53 56  0  0  0  0  0  0  0  0999 V2000
  140.7250   71.3460  221.2970 O   0  0  0  0  0  0  0  0  0  0  0  0
  140.2350   71.9530  222.2890 C   0  0  0  0  0  0  0  0  0  0  0  0
  139.7830   73.2920  222.1520 N   0  0  0  0  0  0  0  0  0  0  0  0
  139.9070   73.9250  220.8560 C   0  0  0  0  0  0  0  0  0  0  0  0
  139.6590   75.3780  221.0200 C   0  0  0  0  0  0  0  0  0  0  0  0
  138.7650   75.8530  221.7720 O   0  0  0  0  0  0  0  0  0  0  0  0
  140.4820   76.2630  220.2840 N   0  0  0  0  0  0  0  0  0  0  0  0
  140.6070   76.4590  218.8500 C   0  0  0  0  0  0  0  0  0  0  0  0
  142.0930   76.7550  218.6220 C   0  0  2  0  0  0  0  0  0  0  0  0
  142.6620   75.6680  217.9780 F   0  0  0  0  0  0  0  0  0  0  0  0
  142.6400   76.8950  220.0320 C   0  0  0  0  0  0  0  0  0  0  0  0
  141.4470   77.2620  220.8450 C   0  0  1  0  0  0  0  0  0  0  0  0
  140.8820   78.6140  220.7310 C   0  0  0  0  0  0  0  0  0  0  0  0
  140.9110   79.4010  221.9160 N   0  0  0  0  0  0  0  0  0  0  0  0
  142.2080   80.0830  222.0510 C   0  0  0  0  0  0  0  0  0  0  0  0
  142.3790   80.3390  223.5420 C   0  0  0  0  0  0  0  0  0  0  0  0
  141.8240   79.0690  224.1230 C   0  0  0  0  0  0  0  0  0  0  0  0
  140.7770   78.6290  223.1350 C   0  0  0  0  0  0  0  0  0  0  0  0
  140.1270   71.2920  223.5830 C   0  0  0  0  0  0  0  0  0  0  0  0
  139.5210   70.0640  223.7200 C   0  0  0  0  0  0  0  0  0  0  0  0
  139.4520   69.4770  224.9740 C   0  0  0  0  0  0  0  0  0  0  0  0
  139.9780   70.1100  226.0540 C   0  0  0  0  0  0  0  0  0  0  0  0
  139.9040   69.5200  227.2920 C   0  0  0  0  0  0  0  0  0  0  0  0
  140.4530   70.2040  228.3530 C   0  0  0  0  0  0  0  0  0  0  0  0
  141.0560   71.4180  228.2370 C   0  0  0  0  0  0  0  0  0  0  0  0
  141.1370   72.0190  227.0110 C   0  0  0  0  0  0  0  0  0  0  0  0
  140.5850   71.3390  225.9170 C   0  0  0  0  0  0  0  0  0  0  0  0
  140.6290   71.8690  224.6950 N   0  0  0  0  0  0  0  0  0  0  0  0
  139.3720   73.7940  222.9850 H   0  0  0  0  0  0  0  0  0  0  0  0
  140.9200   73.7634  220.4588 H   0  0  0  0  0  0  0  0  0  0  0  0
  139.1788   73.4939  220.1532 H   0  0  0  0  0  0  0  0  0  0  0  0
  140.3053   75.5510  218.3073 H   0  0  0  0  0  0  0  0  0  0  0  0
  139.9616   77.2714  218.4847 H   0  0  0  0  0  0  0  0  0  0  0  0
  142.2930   77.6446  218.0067 H   0  0  0  0  0  0  0  0  0  0  0  0
  143.0733   75.9456  220.3796 H   0  0  0  0  0  0  0  0  0  0  0  0
  143.4462   77.6401  220.1019 H   0  0  0  0  0  0  0  0  0  0  0  0
  141.6918   77.2549  221.9174 H   0  0  0  0  0  0  0  0  0  0  0  0
  141.4474   79.1514  219.9555 H   0  0  0  0  0  0  0  0  0  0  0  0
  139.8174   78.4729  220.4930 H   0  0  0  0  0  0  0  0  0  0  0  0
  143.0199   79.4431  221.6751 H   0  0  0  0  0  0  0  0  0  0  0  0
  142.2409   81.0165  221.4700 H   0  0  0  0  0  0  0  0  0  0  0  0
  143.4375   80.4752  223.8086 H   0  0  0  0  0  0  0  0  0  0  0  0
  141.8849   81.2534  223.9022 H   0  0  0  0  0  0  0  0  0  0  0  0
  142.6125   78.3080  224.2188 H   0  0  0  0  0  0  0  0  0  0  0  0
  141.4116   79.2157  225.1322 H   0  0  0  0  0  0  0  0  0  0  0  0
  140.9111   77.5607  222.9095 H   0  0  0  0  0  0  0  0  0  0  0  0
  139.7767   78.7896  223.5636 H   0  0  0  0  0  0  0  0  0  0  0  0
  139.0957   69.5534  222.8434 H   0  0  0  0  0  0  0  0  0  0  0  0
  138.9698   68.4957  225.0944 H   0  0  0  0  0  0  0  0  0  0  0  0
  139.4249   68.5395  227.4303 H   0  0  0  0  0  0  0  0  0  0  0  0
  140.4012   69.7432  229.3505 H   0  0  0  0  0  0  0  0  0  0  0  0
  141.4762   71.9137  229.1245 H   0  0  0  0  0  0  0  0  0  0  0  0
  141.6180   73.0006  226.8882 H   0  0  0  0  0  0  0  0  0  0  0  0
  1  2  2  0
  2  3  1  0
  3  4  1  0
  4  5  1  0
  5  6  2  0
  5  7  1  0
  7  8  1  0
  8  9  1  0
  9 10  1  0
  9 11  1  0
 11 12  1  0
 12 13  1  0
 13 14  1  0
 14 15  1  0
 15 16  1  0
 16 17  1  0
 17 18  1  0
  2 19  1  0
 19 20  2  0
 20 21  1  0
 21 22  2  0
 22 23  1  0
 23 24  2  0
 24 25  1  0
 25 26  2  0
 26 27  1  0
 27 28  2  0
 12  7  1  0
 18 14  1  0
 28 19  1  0
 27 22  1  0
  3 29  1  0
  4 30  1  0
  4 31  1  0
  8 32  1  0
  8 33  1  0
  9 34  1  6
 11 35  1  0
 11 36  1  0
 12 37  1  1
 13 38  1  0
 13 39  1  0
 15 40  1  0
 15 41  1  0
 16 42  1  0
 16 43  1  0
 17 44  1  0
 17 45  1  0
 18 46  1  0
 18 47  1  0
 20 48  1  0
 21 49  1  0
 23 50  1  0
 24 51  1  0
 25 52  1  0
 26 53  1  0
M  END
>  <smiles>  (9) 
O=C(NCC(=O)N1C[C@H](F)C[C@H]1CN1CCCC1)c1ccc2ccccc2n1

>  <score_type>  (9) 
oracle

>  <origin>  (9) 
autodockgpu

>  <m_score__min__energy>  (9) 
-8.3699999999999992

>  <m_primary>  (9) 
energy

>  <rmsd>  (9) 
2.343415810421074

>  <m_score__min__rmsd>  (9) 
2.343415810421074

>  <meeko>  (9) 
{"free_energy": -7.97, "intermolecular_energy": -9.76, "internal_energy": -1.64, "cluster_size": 29, "cluster_id": 1, "rank_in_cluster": 23}

>  <energy>  (9) 
-8.28

>  <cluster_rmsd>  (9) 
1.94

>  <cluster>  (9) 
1

$$$$

     RDKit          3D

 53 56  0  0  0  0  0  0  0  0999 V2000
  141.0450   71.6480  221.4220 O   0  0  0  0  0  0  0  0  0  0  0  0
  140.4670   72.1720  222.4130 C   0  0  0  0  0  0  0  0  0  0  0  0
  140.0220   73.5190  222.3470 N   0  0  0  0  0  0  0  0  0  0  0  0
  140.2560   74.2550  221.1240 C   0  0  0  0  0  0  0  0  0  0  0  0
  140.2310   75.7050  221.4390 C   0  0  0  0  0  0  0  0  0  0  0  0
  139.8040   76.1750  222.5290 O   0  0  0  0  0  0  0  0  0  0  0  0
  140.7150   76.5920  220.4490 N   0  0  0  0  0  0  0  0  0  0  0  0
  140.2300   76.8600  219.1070 C   0  0  0  0  0  0  0  0  0  0  0  0
  141.4930   77.1030  218.2730 C   0  0  2  0  0  0  0  0  0  0  0  0
  141.6640   76.0290  217.4150 F   0  0  0  0  0  0  0  0  0  0  0  0
  142.5960   77.1420  219.3170 C   0  0  0  0  0  0  0  0  0  0  0  0
  141.8880   77.5150  220.5740 C   0  0  1  0  0  0  0  0  0  0  0  0
  141.4140   78.8950  220.7540 C   0  0  0  0  0  0  0  0  0  0  0  0
  141.3290   79.3520  222.0990 N   0  0  0  0  0  0  0  0  0  0  0  0
  141.0310   80.7930  222.1350 C   0  0  0  0  0  0  0  0  0  0  0  0
  141.5750   81.2860  223.4690 C   0  0  0  0  0  0  0  0  0  0  0  0
  142.8520   80.5020  223.5730 C   0  0  0  0  0  0  0  0  0  0  0  0
  142.5660   79.2180  222.8410 C   0  0  0  0  0  0  0  0  0  0  0  0
  140.2500   71.4080  223.6350 C   0  0  0  0  0  0  0  0  0  0  0  0
  139.6010   70.1940  223.6230 C   0  0  0  0  0  0  0  0  0  0  0  0
  139.4270   69.5050  224.8130 C   0  0  0  0  0  0  0  0  0  0  0  0
  139.8950   70.0250  225.9770 C   0  0  0  0  0  0  0  0  0  0  0  0
  139.7170   69.3350  227.1510 C   0  0  0  0  0  0  0  0  0  0  0  0
  140.2090   69.9060  228.3020 C   0  0  0  0  0  0  0  0  0  0  0  0
  140.8530   71.1040  228.3340 C   0  0  0  0  0  0  0  0  0  0  0  0
  141.0370   71.8040  227.1730 C   0  0  0  0  0  0  0  0  0  0  0  0
  140.5440   71.2400  225.9900 C   0  0  0  0  0  0  0  0  0  0  0  0
  140.6890   71.8690  224.8240 N   0  0  0  0  0  0  0  0  0  0  0  0
  139.5370   73.9510  223.1790 H   0  0  0  0  0  0  0  0  0  0  0  0
  141.2369   73.9819  220.7077 H   0  0  0  0  0  0  0  0  0  0  0  0
  139.4787   74.0152  220.3835 H   0  0  0  0  0  0  0  0  0  0  0  0
  139.6696   75.9969  218.7184 H   0  0  0  0  0  0  0  0  0  0  0  0
  139.5431   77.7187  219.0785 H   0  0  0  0  0  0  0  0  0  0  0  0
  141.4673   78.0150  217.6585 H   0  0  0  0  0  0  0  0  0  0  0  0
  143.0761   76.1572  219.4159 H   0  0  0  0  0  0  0  0  0  0  0  0
  143.3998   77.8469  219.0582 H   0  0  0  0  0  0  0  0  0  0  0  0
  142.5648   77.4376  221.4377 H   0  0  0  0  0  0  0  0  0  0  0  0
  142.1032   79.5613  220.2145 H   0  0  0  0  0  0  0  0  0  0  0  0
  140.3837   78.9087  220.3690 H   0  0  0  0  0  0  0  0  0  0  0  0
  141.5294   81.3099  221.3016 H   0  0  0  0  0  0  0  0  0  0  0  0
  139.9535   80.9902  222.0350 H   0  0  0  0  0  0  0  0  0  0  0  0
  141.7675   82.3689  223.4501 H   0  0  0  0  0  0  0  0  0  0  0  0
  140.8882   81.1434  224.3163 H   0  0  0  0  0  0  0  0  0  0  0  0
  143.6816   81.0449  223.0964 H   0  0  0  0  0  0  0  0  0  0  0  0
  143.1539   80.3304  224.6167 H   0  0  0  0  0  0  0  0  0  0  0  0
  143.3897   79.0011  222.1450 H   0  0  0  0  0  0  0  0  0  0  0  0
  142.4726   78.3953  223.5652 H   0  0  0  0  0  0  0  0  0  0  0  0
  139.2242   69.7749  222.6783 H   0  0  0  0  0  0  0  0  0  0  0  0
  138.9087   68.5348  224.8146 H   0  0  0  0  0  0  0  0  0  0  0  0
  139.2011   68.3636  227.1703 H   0  0  0  0  0  0  0  0  0  0  0  0
  140.0741   69.3635  229.2494 H   0  0  0  0  0  0  0  0  0  0  0  0
  141.2236   71.5075  229.2879 H   0  0  0  0  0  0  0  0  0  0  0  0
  141.5537   72.7751  227.1690 H   0  0  0  0  0  0  0  0  0  0  0  0
  1  2  2  0
  2  3  1  0
  3  4  1  0
  4  5  1  0
  5  6  2  0
  5  7  1  0
  7  8  1  0
  8  9  1  0
  9 10  1  0
  9 11  1  0
 11 12  1  0
 12 13  1  0
 13 14  1  0
 14 15  1  0
 15 16  1  0
 16 17  1  0
 17 18  1  0
  2 19  1  0
 19 20  2  0
 20 21  1  0
 21 22  2  0
 22 23  1  0
 23 24  2  0
 24 25  1  0
 25 26  2  0
 26 27  1  0
 27 28  2  0
 12  7  1  0
 18 14  1  0
 28 19  1  0
 27 22  1  0
  3 29  1  0
  4 30  1  0
  4 31  1  0
  8 32  1  0
  8 33  1  0
  9 34  1  6
 11 35  1  0
 11 36  1  0
 12 37  1  1
 13 38  1  0
 13 39  1  0
 15 40  1  0
 15 41  1  0
 16 42  1  0
 16 43  1  0
 17 44  1  0
 17 45  1  0
 18 46  1  0
 18 47  1  0
 20 48  1  0
 21 49  1  0
 23 50  1  0
 24 51  1  0
 25 52  1  0
 26 53  1  0
M  END
>  <smiles>  (10) 
O=C(NCC(=O)N1C[C@H](F)C[C@H]1CN1CCCC1)c1ccc2ccccc2n1

>  <score_type>  (10) 
oracle

>  <origin>  (10) 
autodockgpu

>  <m_score__min__energy>  (10) 
-8.3699999999999992

>  <m_primary>  (10) 
energy

>  <rmsd>  (10) 
2.1942339665159993

>  <m_score__min__rmsd>  (10) 
2.1942339665159993

>  <meeko>  (10) 
{"free_energy": -8.24, "intermolecular_energy": -10.03, "internal_energy": -1.71, "cluster_size": 29, "cluster_id": 1, "rank_in_cluster": 16}

>  <energy>  (10) 
-8.27

>  <cluster_rmsd>  (10) 
0.43

>  <cluster>  (10) 
1

$$$$

     RDKit          3D

 53 56  0  0  0  0  0  0  0  0999 V2000
  141.0530   71.5000  221.4220 O   0  0  0  0  0  0  0  0  0  0  0  0
  140.4790   72.0450  222.4040 C   0  0  0  0  0  0  0  0  0  0  0  0
  140.0400   73.3930  222.3140 N   0  0  0  0  0  0  0  0  0  0  0  0
  140.2760   74.1060  221.0760 C   0  0  0  0  0  0  0  0  0  0  0  0
  140.3140   75.5580  221.3740 C   0  0  0  0  0  0  0  0  0  0  0  0
  139.9210   76.0590  222.4630 O   0  0  0  0  0  0  0  0  0  0  0  0
  140.8220   76.4120  220.3660 N   0  0  0  0  0  0  0  0  0  0  0  0
  140.5140   76.4840  218.9490 C   0  0  0  0  0  0  0  0  0  0  0  0
  141.8460   76.8320  218.2750 C   0  0  2  0  0  0  0  0  0  0  0  0
  142.2840   75.7210  217.5730 F   0  0  0  0  0  0  0  0  0  0  0  0
  142.7630   77.1270  219.4490 C   0  0  0  0  0  0  0  0  0  0  0  0
  141.8300   77.5060  220.5470 C   0  0  1  0  0  0  0  0  0  0  0  0
  141.1580   78.8120  220.5060 C   0  0  0  0  0  0  0  0  0  0  0  0
  141.1450   79.5420  221.7270 N   0  0  0  0  0  0  0  0  0  0  0  0
  142.4550   80.1690  221.9670 C   0  0  0  0  0  0  0  0  0  0  0  0
  142.5470   80.3500  223.4760 C   0  0  0  0  0  0  0  0  0  0  0  0
  141.9160   79.0760  223.9640 C   0  0  0  0  0  0  0  0  0  0  0  0
  140.9140   78.7210  222.8980 C   0  0  0  0  0  0  0  0  0  0  0  0
  140.2600   71.3050  223.6400 C   0  0  0  0  0  0  0  0  0  0  0  0
  139.6040   70.0960  223.6520 C   0  0  0  0  0  0  0  0  0  0  0  0
  139.4280   69.4300  224.8550 C   0  0  0  0  0  0  0  0  0  0  0  0
  139.9020   69.9680  226.0080 C   0  0  0  0  0  0  0  0  0  0  0  0
  139.7230   69.3010  227.1950 C   0  0  0  0  0  0  0  0  0  0  0  0
  140.2210   69.8900  228.3340 C   0  0  0  0  0  0  0  0  0  0  0  0
  140.8730   71.0840  228.3420 C   0  0  0  0  0  0  0  0  0  0  0  0
  141.0580   71.7620  227.1680 C   0  0  0  0  0  0  0  0  0  0  0  0
  140.5590   71.1790  225.9970 C   0  0  0  0  0  0  0  0  0  0  0  0
  140.7050   71.7860  224.8200 N   0  0  0  0  0  0  0  0  0  0  0  0
  139.5590   73.8440  223.1380 H   0  0  0  0  0  0  0  0  0  0  0  0
  141.2363   73.7902  220.6423 H   0  0  0  0  0  0  0  0  0  0  0  0
  139.4743   73.8883  220.3549 H   0  0  0  0  0  0  0  0  0  0  0  0
  140.1367   75.5170  218.5850 H   0  0  0  0  0  0  0  0  0  0  0  0
  139.7325   77.2269  218.7316 H   0  0  0  0  0  0  0  0  0  0  0  0
  141.7947   77.6710  217.5654 H   0  0  0  0  0  0  0  0  0  0  0  0
  143.3475   76.2362  219.7223 H   0  0  0  0  0  0  0  0  0  0  0  0
  143.4973   77.9150  219.2258 H   0  0  0  0  0  0  0  0  0  0  0  0
  142.3715   77.6087  221.4990 H   0  0  0  0  0  0  0  0  0  0  0  0
  141.6657   79.4288  219.7498 H   0  0  0  0  0  0  0  0  0  0  0  0
  140.1039   78.5976  220.2758 H   0  0  0  0  0  0  0  0  0  0  0  0
  143.2651   79.5174  221.6076 H   0  0  0  0  0  0  0  0  0  0  0  0
  142.5541   81.1260  221.4337 H   0  0  0  0  0  0  0  0  0  0  0  0
  143.5921   80.4349  223.8085 H   0  0  0  0  0  0  0  0  0  0  0  0
  142.0638   81.2645  223.8505 H   0  0  0  0  0  0  0  0  0  0  0  0
  142.6710   78.2828  224.0679 H   0  0  0  0  0  0  0  0  0  0  0  0
  141.4510   79.1914  224.9542 H   0  0  0  0  0  0  0  0  0  0  0  0
  141.0242   77.6599  222.6297 H   0  0  0  0  0  0  0  0  0  0  0  0
  139.8966   78.8992  223.2764 H   0  0  0  0  0  0  0  0  0  0  0  0
  139.2227   69.6618  222.7160 H   0  0  0  0  0  0  0  0  0  0  0  0
  138.9031   68.4635  224.8755 H   0  0  0  0  0  0  0  0  0  0  0  0
  139.2016   68.3332  227.2335 H   0  0  0  0  0  0  0  0  0  0  0  0
  140.0844   69.3664  229.2917 H   0  0  0  0  0  0  0  0  0  0  0  0
  141.2495   71.5021  229.2872 H   0  0  0  0  0  0  0  0  0  0  0  0
  141.5799   72.7301  227.1451 H   0  0  0  0  0  0  0  0  0  0  0  0
  1  2  2  0
  2  3  1  0
  3  4  1  0
  4  5  1  0
  5  6  2  0
  5  7  1  0
  7  8  1  0
  8  9  1  0
  9 10  1  0
  9 11  1  0
 11 12  1  0
 12 13  1  0
 13 14  1  0
 14 15  1  0
 15 16  1  0
 16 17  1  0
 17 18  1  0
  2 19  1  0
 19 20  2  0
 20 21  1  0
 21 22  2  0
 22 23  1  0
 23 24  2  0
 24 25  1  0
 25 26  2  0
 26 27  1  0
 27 28  2  0
 12  7  1  0
 18 14  1  0
 28 19  1  0
 27 22  1  0
  3 29  1  0
  4 30  1  0
  4 31  1  0
  8 32  1  0
  8 33  1  0
  9 34  1  6
 11 35  1  0
 11 36  1  0
 12 37  1  1
 13 38  1  0
 13 39  1  0
 15 40  1  0
 15 41  1  0
 16 42  1  0
 16 43  1  0
 17 44  1  0
 17 45  1  0
 18 46  1  0
 18 47  1  0
 20 48  1  0
 21 49  1  0
 23 50  1  0
 24 51  1  0
 25 52  1  0
 26 53  1  0
M  END
>  <smiles>  (11) 
O=C(NCC(=O)N1C[C@H](F)C[C@H]1CN1CCCC1)c1ccc2ccccc2n1

>  <score_type>  (11) 
oracle

>  <origin>  (11) 
autodockgpu

>  <m_score__min__energy>  (11) 
-8.3699999999999992

>  <m_primary>  (11) 
energy

>  <rmsd>  (11) 
2.2989186559182473

>  <m_score__min__rmsd>  (11) 
2.2989186559182473

>  <meeko>  (11) 
{"free_energy": -8.29, "intermolecular_energy": -10.08, "internal_energy": -1.79, "cluster_size": 29, "cluster_id": 1, "rank_in_cluster": 7}

>  <energy>  (11) 
-8.27

>  <cluster_rmsd>  (11) 
0.32

>  <cluster>  (11) 
1

$$$$

     RDKit          3D

 53 56  0  0  0  0  0  0  0  0999 V2000
  140.7790   71.4590  221.3380 O   0  0  0  0  0  0  0  0  0  0  0  0
  140.3280   72.0270  222.3690 C   0  0  0  0  0  0  0  0  0  0  0  0
  139.9330   73.3900  222.3170 N   0  0  0  0  0  0  0  0  0  0  0  0
  140.0710   74.0920  221.0590 C   0  0  0  0  0  0  0  0  0  0  0  0
  140.1670   75.5450  221.3430 C   0  0  0  0  0  0  0  0  0  0  0  0
  139.7270   76.0810  222.3960 O   0  0  0  0  0  0  0  0  0  0  0  0
  140.7880   76.3560  220.3640 N   0  0  0  0  0  0  0  0  0  0  0  0
  140.5950   76.4110  218.9260 C   0  0  0  0  0  0  0  0  0  0  0  0
  141.9890   76.6900  218.3530 C   0  0  2  0  0  0  0  0  0  0  0  0
  142.4320   75.5470  217.7070 F   0  0  0  0  0  0  0  0  0  0  0  0
  142.8240   76.9690  219.5910 C   0  0  0  0  0  0  0  0  0  0  0  0
  141.8260   77.4090  220.6060 C   0  0  1  0  0  0  0  0  0  0  0  0
  141.2160   78.7410  220.4900 C   0  0  0  0  0  0  0  0  0  0  0  0
  141.1460   79.4990  221.6920 N   0  0  0  0  0  0  0  0  0  0  0  0
  142.4400   80.1430  221.9720 C   0  0  0  0  0  0  0  0  0  0  0  0
  142.4670   80.3590  223.4790 C   0  0  0  0  0  0  0  0  0  0  0  0
  141.8270   79.0910  223.9680 C   0  0  0  0  0  0  0  0  0  0  0  0
  140.8730   78.7020  222.8700 C   0  0  0  0  0  0  0  0  0  0  0  0
  140.2060   71.2960  223.6250 C   0  0  0  0  0  0  0  0  0  0  0  0
  139.6440   70.0410  223.6790 C   0  0  0  0  0  0  0  0  0  0  0  0
  139.5580   69.3880  224.8990 C   0  0  0  0  0  0  0  0  0  0  0  0
  140.0270   69.9820  226.0260 C   0  0  0  0  0  0  0  0  0  0  0  0
  139.9370   69.3270  227.2290 C   0  0  0  0  0  0  0  0  0  0  0  0
  140.4260   69.9750  228.3410 C   0  0  0  0  0  0  0  0  0  0  0  0
  140.9850   71.2140  228.3070 C   0  0  0  0  0  0  0  0  0  0  0  0
  141.0800   71.8810  227.1160 C   0  0  0  0  0  0  0  0  0  0  0  0
  140.5890   71.2390  225.9720 C   0  0  0  0  0  0  0  0  0  0  0  0
  140.6500   71.8320  224.7800 N   0  0  0  0  0  0  0  0  0  0  0  0
  139.5540   73.8590  223.1830 H   0  0  0  0  0  0  0  0  0  0  0  0
  140.9811   73.7533  220.5422 H   0  0  0  0  0  0  0  0  0  0  0  0
  139.2027   73.8888  220.4150 H   0  0  0  0  0  0  0  0  0  0  0  0
  140.2066   75.4528  218.5504 H   0  0  0  0  0  0  0  0  0  0  0  0
  139.8652   77.1807  218.6346 H   0  0  0  0  0  0  0  0  0  0  0  0
  142.0292   77.5162  217.6279 H   0  0  0  0  0  0  0  0  0  0  0  0
  143.3458   76.0597  219.9240 H   0  0  0  0  0  0  0  0  0  0  0  0
  143.6073   77.7206  219.4133 H   0  0  0  0  0  0  0  0  0  0  0  0
  142.2963   77.5075  221.5955 H   0  0  0  0  0  0  0  0  0  0  0  0
  141.8035   79.3185  219.7611 H   0  0  0  0  0  0  0  0  0  0  0  0
  140.1731   78.5656  220.1874 H   0  0  0  0  0  0  0  0  0  0  0  0
  143.2696   79.4906  221.6619 H   0  0  0  0  0  0  0  0  0  0  0  0
  142.5539   81.0884  221.4213 H   0  0  0  0  0  0  0  0  0  0  0  0
  143.4964   80.4611  223.8531 H   0  0  0  0  0  0  0  0  0  0  0  0
  141.9612   81.2772  223.8122 H   0  0  0  0  0  0  0  0  0  0  0  0
  142.5838   78.3075  224.1211 H   0  0  0  0  0  0  0  0  0  0  0  0
  141.3197   79.2246  224.9348 H   0  0  0  0  0  0  0  0  0  0  0  0
  141.0036   77.6363  222.6306 H   0  0  0  0  0  0  0  0  0  0  0  0
  139.8391   78.8780  223.2016 H   0  0  0  0  0  0  0  0  0  0  0  0
  139.2670   69.5610  222.7639 H   0  0  0  0  0  0  0  0  0  0  0  0
  139.1084   68.3856  224.9539 H   0  0  0  0  0  0  0  0  0  0  0  0
  139.4917   68.3238  227.3017 H   0  0  0  0  0  0  0  0  0  0  0  0
  140.3608   69.4615  229.3116 H   0  0  0  0  0  0  0  0  0  0  0  0
  141.3588   71.6776  229.2318 H   0  0  0  0  0  0  0  0  0  0  0  0
  141.5258   72.8850  227.0590 H   0  0  0  0  0  0  0  0  0  0  0  0
  1  2  2  0
  2  3  1  0
  3  4  1  0
  4  5  1  0
  5  6  2  0
  5  7  1  0
  7  8  1  0
  8  9  1  0
  9 10  1  0
  9 11  1  0
 11 12  1  0
 12 13  1  0
 13 14  1  0
 14 15  1  0
 15 16  1  0
 16 17  1  0
 17 18  1  0
  2 19  1  0
 19 20  2  0
 20 21  1  0
 21 22  2  0
 22 23  1  0
 23 24  2  0
 24 25  1  0
 25 26  2  0
 26 27  1  0
 27 28  2  0
 12  7  1  0
 18 14  1  0
 28 19  1  0
 27 22  1  0
  3 29  1  0
  4 30  1  0
  4 31  1  0
  8 32  1  0
  8 33  1  0
  9 34  1  6
 11 35  1  0
 11 36  1  0
 12 37  1  1
 13 38  1  0
 13 39  1  0
 15 40  1  0
 15 41  1  0
 16 42  1  0
 16 43  1  0
 17 44  1  0
 17 45  1  0
 18 46  1  0
 18 47  1  0
 20 48  1  0
 21 49  1  0
 23 50  1  0
 24 51  1  0
 25 52  1  0
 26 53  1  0
M  END
>  <smiles>  (12) 
O=C(NCC(=O)N1C[C@H](F)C[C@H]1CN1CCCC1)c1ccc2ccccc2n1

>  <score_type>  (12) 
oracle

>  <origin>  (12) 
autodockgpu

>  <m_score__min__energy>  (12) 
-8.3699999999999992

>  <m_primary>  (12) 
energy

>  <rmsd>  (12) 
2.285292401155367

>  <m_score__min__rmsd>  (12) 
2.285292401155367

>  <meeko>  (12) 
{"free_energy": -8.3, "intermolecular_energy": -10.09, "internal_energy": -1.8, "cluster_size": 29, "cluster_id": 1, "rank_in_cluster": 6}

>  <energy>  (12) 
-8.27

>  <cluster_rmsd>  (12) 
0.48

>  <cluster>  (12) 
1

$$$$

     RDKit          3D

 53 56  0  0  0  0  0  0  0  0999 V2000
  140.6810   71.4340  221.3340 O   0  0  0  0  0  0  0  0  0  0  0  0
  140.2610   71.9980  222.3810 C   0  0  0  0  0  0  0  0  0  0  0  0
  139.8970   73.3710  222.3520 N   0  0  0  0  0  0  0  0  0  0  0  0
  140.0280   74.0850  221.1010 C   0  0  0  0  0  0  0  0  0  0  0  0
  140.1690   75.5310  221.4010 C   0  0  0  0  0  0  0  0  0  0  0  0
  139.7690   76.0640  222.4720 O   0  0  0  0  0  0  0  0  0  0  0  0
  140.7870   76.3400  220.4170 N   0  0  0  0  0  0  0  0  0  0  0  0
  140.5950   76.3840  218.9790 C   0  0  0  0  0  0  0  0  0  0  0  0
  141.9880   76.6670  218.4050 C   0  0  2  0  0  0  0  0  0  0  0  0
  142.4400   75.5230  217.7680 F   0  0  0  0  0  0  0  0  0  0  0  0
  142.8200   76.9610  219.6420 C   0  0  0  0  0  0  0  0  0  0  0  0
  141.8170   77.4010  220.6530 C   0  0  1  0  0  0  0  0  0  0  0  0
  141.1990   78.7290  220.5260 C   0  0  0  0  0  0  0  0  0  0  0  0
  141.1300   79.4990  221.7210 N   0  0  0  0  0  0  0  0  0  0  0  0
  142.4280   80.1370  221.9980 C   0  0  0  0  0  0  0  0  0  0  0  0
  142.4530   80.3670  223.5030 C   0  0  0  0  0  0  0  0  0  0  0  0
  141.8030   79.1080  224.0030 C   0  0  0  0  0  0  0  0  0  0  0  0
  140.8500   78.7150  222.9060 C   0  0  0  0  0  0  0  0  0  0  0  0
  140.1440   71.2550  223.6290 C   0  0  0  0  0  0  0  0  0  0  0  0
  139.5830   69.9990  223.6730 C   0  0  0  0  0  0  0  0  0  0  0  0
  139.5030   69.3340  224.8860 C   0  0  0  0  0  0  0  0  0  0  0  0
  139.9760   69.9160  226.0170 C   0  0  0  0  0  0  0  0  0  0  0  0
  139.8920   69.2490  227.2140 C   0  0  0  0  0  0  0  0  0  0  0  0
  140.3860   69.8850  228.3300 C   0  0  0  0  0  0  0  0  0  0  0  0
  140.9450   71.1250  228.3060 C   0  0  0  0  0  0  0  0  0  0  0  0
  141.0350   71.8040  227.1220 C   0  0  0  0  0  0  0  0  0  0  0  0
  140.5380   71.1740  225.9730 C   0  0  0  0  0  0  0  0  0  0  0  0
  140.5940   71.7790  224.7880 N   0  0  0  0  0  0  0  0  0  0  0  0
  139.5450   73.8380  223.2310 H   0  0  0  0  0  0  0  0  0  0  0  0
  140.9178   73.7289  220.5612 H   0  0  0  0  0  0  0  0  0  0  0  0
  139.1415   73.9135  220.4728 H   0  0  0  0  0  0  0  0  0  0  0  0
  140.2123   75.4211  218.6098 H   0  0  0  0  0  0  0  0  0  0  0  0
  139.8611   77.1476  218.6818 H   0  0  0  0  0  0  0  0  0  0  0  0
  142.0230   77.4875  217.6732 H   0  0  0  0  0  0  0  0  0  0  0  0
  143.3481   76.0580  219.9821 H   0  0  0  0  0  0  0  0  0  0  0  0
  143.5981   77.7169  219.4598 H   0  0  0  0  0  0  0  0  0  0  0  0
  142.2842   77.5089  221.6430 H   0  0  0  0  0  0  0  0  0  0  0  0
  141.7803   79.3022  219.7887 H   0  0  0  0  0  0  0  0  0  0  0  0
  140.1558   78.5449  220.2297 H   0  0  0  0  0  0  0  0  0  0  0  0
  143.2538   79.4761  221.6960 H   0  0  0  0  0  0  0  0  0  0  0  0
  142.5495   81.0764  221.4387 H   0  0  0  0  0  0  0  0  0  0  0  0
  143.4822   80.4655  223.8784 H   0  0  0  0  0  0  0  0  0  0  0  0
  141.9526   81.2918  223.8262 H   0  0  0  0  0  0  0  0  0  0  0  0
  142.5540   78.3210  224.1662 H   0  0  0  0  0  0  0  0  0  0  0  0
  141.2939   79.2543  224.9670 H   0  0  0  0  0  0  0  0  0  0  0  0
  140.9749   77.6464  222.6769 H   0  0  0  0  0  0  0  0  0  0  0  0
  139.8165   78.9008  223.2335 H   0  0  0  0  0  0  0  0  0  0  0  0
  139.2021   69.5280  222.7548 H   0  0  0  0  0  0  0  0  0  0  0  0
  139.0545   68.3307  224.9324 H   0  0  0  0  0  0  0  0  0  0  0  0
  139.4471   68.2451  227.2786 H   0  0  0  0  0  0  0  0  0  0  0  0
  140.3255   69.3614  229.2955 H   0  0  0  0  0  0  0  0  0  0  0  0
  141.3227   71.5792  229.2339 H   0  0  0  0  0  0  0  0  0  0  0  0
  141.4813   72.8082  227.0734 H   0  0  0  0  0  0  0  0  0  0  0  0
  1  2  2  0
  2  3  1  0
  3  4  1  0
  4  5  1  0
  5  6  2  0
  5  7  1  0
  7  8  1  0
  8  9  1  0
  9 10  1  0
  9 11  1  0
 11 12  1  0
 12 13  1  0
 13 14  1  0
 14 15  1  0
 15 16  1  0
 16 17  1  0
 17 18  1  0
  2 19  1  0
 19 20  2  0
 20 21  1  0
 21 22  2  0
 22 23  1  0
 23 24  2  0
 24 25  1  0
 25 26  2  0
 26 27  1  0
 27 28  2  0
 12  7  1  0
 18 14  1  0
 28 19  1  0
 27 22  1  0
  3 29  1  0
  4 30  1  0
  4 31  1  0
  8 32  1  0
  8 33  1  0
  9 34  1  6
 11 35  1  0
 11 36  1  0
 12 37  1  1
 13 38  1  0
 13 39  1  0
 15 40  1  0
 15 41  1  0
 16 42  1  0
 16 43  1  0
 17 44  1  0
 17 45  1  0
 18 46  1  0
 18 47  1  0
 20 48  1  0
 21 49  1  0
 23 50  1  0
 24 51  1  0
 25 52  1  0
 26 53  1  0
M  END
>  <smiles>  (13) 
O=C(NCC(=O)N1C[C@H](F)C[C@H]1CN1CCCC1)c1ccc2ccccc2n1

>  <score_type>  (13) 
oracle

>  <origin>  (13) 
autodockgpu

>  <m_score__min__energy>  (13) 
-8.3699999999999992

>  <m_primary>  (13) 
energy

>  <rmsd>  (13) 
2.2710616971773496

>  <m_score__min__rmsd>  (13) 
2.2710616971773496

>  <meeko>  (13) 
{"free_energy": -8.27, "intermolecular_energy": -10.06, "internal_energy": -1.81, "cluster_size": 29, "cluster_id": 1, "rank_in_cluster": 11}

>  <energy>  (13) 
-8.26

>  <cluster_rmsd>  (13) 
1.69

>  <cluster>  (13) 
1

$$$$

     RDKit          3D

 53 56  0  0  0  0  0  0  0  0999 V2000
  140.6640   71.4190  221.3060 O   0  0  0  0  0  0  0  0  0  0  0  0
  140.2600   71.9970  222.3520 C   0  0  0  0  0  0  0  0  0  0  0  0
  139.9010   73.3700  222.3130 N   0  0  0  0  0  0  0  0  0  0  0  0
  140.0170   74.0700  221.0510 C   0  0  0  0  0  0  0  0  0  0  0  0
  140.3360   75.4910  221.3330 C   0  0  0  0  0  0  0  0  0  0  0  0
  140.0920   76.0560  222.4330 O   0  0  0  0  0  0  0  0  0  0  0  0
  140.9450   76.2360  220.2950 N   0  0  0  0  0  0  0  0  0  0  0  0
  140.7240   76.2060  218.8600 C   0  0  0  0  0  0  0  0  0  0  0  0
  142.1090   76.4360  218.2450 C   0  0  2  0  0  0  0  0  0  0  0  0
  142.5300   75.2520  217.6610 F   0  0  0  0  0  0  0  0  0  0  0  0
  142.9700   76.7820  219.4470 C   0  0  0  0  0  0  0  0  0  0  0  0
  141.9950   77.2910  220.4520 C   0  0  1  0  0  0  0  0  0  0  0  0
  141.3950   78.6200  220.2670 C   0  0  0  0  0  0  0  0  0  0  0  0
  141.1200   79.3490  221.4580 N   0  0  0  0  0  0  0  0  0  0  0  0
  141.9600   80.5570  221.5280 C   0  0  0  0  0  0  0  0  0  0  0  0
  142.0740   80.8850  223.0100 C   0  0  0  0  0  0  0  0  0  0  0  0
  142.2030   79.5130  223.6060 C   0  0  0  0  0  0  0  0  0  0  0  0
  141.4270   78.6220  222.6730 C   0  0  0  0  0  0  0  0  0  0  0  0
  140.1590   71.2690  223.6100 C   0  0  0  0  0  0  0  0  0  0  0  0
  139.6020   70.0120  223.6750 C   0  0  0  0  0  0  0  0  0  0  0  0
  139.5370   69.3610  224.8970 C   0  0  0  0  0  0  0  0  0  0  0  0
  140.0200   69.9590  226.0170 C   0  0  0  0  0  0  0  0  0  0  0  0
  139.9490   69.3050  227.2220 C   0  0  0  0  0  0  0  0  0  0  0  0
  140.4520   69.9570  228.3250 C   0  0  0  0  0  0  0  0  0  0  0  0
  141.0070   71.1980  228.2810 C   0  0  0  0  0  0  0  0  0  0  0  0
  141.0830   71.8630  227.0870 C   0  0  0  0  0  0  0  0  0  0  0  0
  140.5770   71.2170  225.9520 C   0  0  0  0  0  0  0  0  0  0  0  0
  140.6190   71.8080  224.7580 N   0  0  0  0  0  0  0  0  0  0  0  0
  139.5620   73.8480  223.1910 H   0  0  0  0  0  0  0  0  0  0  0  0
  140.8209   73.6209  220.4493 H   0  0  0  0  0  0  0  0  0  0  0  0
  139.0735   73.9979  220.4900 H   0  0  0  0  0  0  0  0  0  0  0  0
  140.3198   75.2309  218.5506 H   0  0  0  0  0  0  0  0  0  0  0  0
  139.9953   76.9638  218.5365 H   0  0  0  0  0  0  0  0  0  0  0  0
  142.1419   77.2161  217.4702 H   0  0  0  0  0  0  0  0  0  0  0  0
  143.4915   75.8901  219.8246 H   0  0  0  0  0  0  0  0  0  0  0  0
  143.7554   77.5145  219.2093 H   0  0  0  0  0  0  0  0  0  0  0  0
  142.4844   77.4440  221.4252 H   0  0  0  0  0  0  0  0  0  0  0  0
  142.0862   79.2198  219.6567 H   0  0  0  0  0  0  0  0  0  0  0  0
  140.4178   78.4423  219.7944 H   0  0  0  0  0  0  0  0  0  0  0  0
  142.9539   80.3599  221.0999 H   0  0  0  0  0  0  0  0  0  0  0  0
  141.5258   81.3908  220.9568 H   0  0  0  0  0  0  0  0  0  0  0  0
  142.9617   81.5000  223.2192 H   0  0  0  0  0  0  0  0  0  0  0  0
  141.2326   81.4715  223.4075 H   0  0  0  0  0  0  0  0  0  0  0  0
  143.2583   79.2056  223.6492 H   0  0  0  0  0  0  0  0  0  0  0  0
  141.8250   79.4681  224.6380 H   0  0  0  0  0  0  0  0  0  0  0  0
  142.0289   77.7346  222.4276 H   0  0  0  0  0  0  0  0  0  0  0  0
  140.4919   78.3067  223.1589 H   0  0  0  0  0  0  0  0  0  0  0  0
  139.2125   69.5291  222.7667 H   0  0  0  0  0  0  0  0  0  0  0  0
  139.0928   68.3567  224.9600 H   0  0  0  0  0  0  0  0  0  0  0  0
  139.5080   68.3005  227.3028 H   0  0  0  0  0  0  0  0  0  0  0  0
  140.4023   69.4452  229.2974 H   0  0  0  0  0  0  0  0  0  0  0  0
  141.3925   71.6645  229.1996 H   0  0  0  0  0  0  0  0  0  0  0  0
  141.5253   72.8680  227.0213 H   0  0  0  0  0  0  0  0  0  0  0  0
  1  2  2  0
  2  3  1  0
  3  4  1  0
  4  5  1  0
  5  6  2  0
  5  7  1  0
  7  8  1  0
  8  9  1  0
  9 10  1  0
  9 11  1  0
 11 12  1  0
 12 13  1  0
 13 14  1  0
 14 15  1  0
 15 16  1  0
 16 17  1  0
 17 18  1  0
  2 19  1  0
 19 20  2  0
 20 21  1  0
 21 22  2  0
 22 23  1  0
 23 24  2  0
 24 25  1  0
 25 26  2  0
 26 27  1  0
 27 28  2  0
 12  7  1  0
 18 14  1  0
 28 19  1  0
 27 22  1  0
  3 29  1  0
  4 30  1  0
  4 31  1  0
  8 32  1  0
  8 33  1  0
  9 34  1  6
 11 35  1  0
 11 36  1  0
 12 37  1  1
 13 38  1  0
 13 39  1  0
 15 40  1  0
 15 41  1  0
 16 42  1  0
 16 43  1  0
 17 44  1  0
 17 45  1  0
 18 46  1  0
 18 47  1  0
 20 48  1  0
 21 49  1  0
 23 50  1  0
 24 51  1  0
 25 52  1  0
 26 53  1  0
M  END
>  <smiles>  (14) 
O=C(NCC(=O)N1C[C@H](F)C[C@H]1CN1CCCC1)c1ccc2ccccc2n1

>  <score_type>  (14) 
oracle

>  <origin>  (14) 
autodockgpu

>  <m_score__min__energy>  (14) 
-8.3699999999999992

>  <m_primary>  (14) 
energy

>  <rmsd>  (14) 
2.2142426986421566

>  <m_score__min__rmsd>  (14) 
2.2142426986421566

>  <meeko>  (14) 
{"free_energy": -8.3, "intermolecular_energy": -10.09, "internal_energy": -1.75, "cluster_size": 29, "cluster_id": 1, "rank_in_cluster": 5}

>  <energy>  (14) 
-8.25

>  <cluster_rmsd>  (14) 
0.43

>  <cluster>  (14) 
1

$$$$

     RDKit          3D

 53 56  0  0  0  0  0  0  0  0999 V2000
  140.7840   71.4610  221.3580 O   0  0  0  0  0  0  0  0  0  0  0  0
  140.3350   72.0230  222.3940 C   0  0  0  0  0  0  0  0  0  0  0  0
  139.9480   73.3890  222.3520 N   0  0  0  0  0  0  0  0  0  0  0  0
  140.0890   74.1000  221.1000 C   0  0  0  0  0  0  0  0  0  0  0  0
  140.2570   75.5430  221.3980 C   0  0  0  0  0  0  0  0  0  0  0  0
  139.9320   76.0720  222.4960 O   0  0  0  0  0  0  0  0  0  0  0  0
  140.8140   76.3550  220.3810 N   0  0  0  0  0  0  0  0  0  0  0  0
  140.5500   76.3880  218.9540 C   0  0  0  0  0  0  0  0  0  0  0  0
  141.9090   76.6870  218.3100 C   0  0  2  0  0  0  0  0  0  0  0  0
  142.3440   75.5450  217.6570 F   0  0  0  0  0  0  0  0  0  0  0  0
  142.7970   76.9980  219.5030 C   0  0  0  0  0  0  0  0  0  0  0  0
  141.8410   77.4310  220.5600 C   0  0  1  0  0  0  0  0  0  0  0  0
  141.1990   78.7490  220.4580 C   0  0  0  0  0  0  0  0  0  0  0  0
  141.0560   79.4660  221.6790 N   0  0  0  0  0  0  0  0  0  0  0  0
  142.0680   80.5300  221.7740 C   0  0  0  0  0  0  0  0  0  0  0  0
  142.2520   80.7820  223.2640 C   0  0  0  0  0  0  0  0  0  0  0  0
  142.1820   79.3840  223.8090 C   0  0  0  0  0  0  0  0  0  0  0  0
  141.2670   78.6560  222.8610 C   0  0  0  0  0  0  0  0  0  0  0  0
  140.2090   71.2840  223.6430 C   0  0  0  0  0  0  0  0  0  0  0  0
  139.6280   70.0370  223.6900 C   0  0  0  0  0  0  0  0  0  0  0  0
  139.5390   69.3750  224.9050 C   0  0  0  0  0  0  0  0  0  0  0  0
  140.0240   69.9510  226.0340 C   0  0  0  0  0  0  0  0  0  0  0  0
  139.9310   69.2870  227.2320 C   0  0  0  0  0  0  0  0  0  0  0  0
  140.4370   69.9170  228.3460 C   0  0  0  0  0  0  0  0  0  0  0  0
  141.0150   71.1480  228.3200 C   0  0  0  0  0  0  0  0  0  0  0  0
  141.1140   71.8240  227.1340 C   0  0  0  0  0  0  0  0  0  0  0  0
  140.6050   71.2000  225.9880 C   0  0  0  0  0  0  0  0  0  0  0  0
  140.6690   71.8020  224.8010 N   0  0  0  0  0  0  0  0  0  0  0  0
  139.5710   73.8530  223.2220 H   0  0  0  0  0  0  0  0  0  0  0  0
  140.9709   73.7273  220.5583 H   0  0  0  0  0  0  0  0  0  0  0  0
  139.1978   73.9444  220.4743 H   0  0  0  0  0  0  0  0  0  0  0  0
  140.1631   75.4178  218.6092 H   0  0  0  0  0  0  0  0  0  0  0  0
  139.7914   77.1395  218.6898 H   0  0  0  0  0  0  0  0  0  0  0  0
  141.8969   77.5042  217.5737 H   0  0  0  0  0  0  0  0  0  0  0  0
  143.3525   76.1034  219.8208 H   0  0  0  0  0  0  0  0  0  0  0  0
  143.5553   77.7627  219.2787 H   0  0  0  0  0  0  0  0  0  0  0  0
  142.3567   77.5512  221.5242 H   0  0  0  0  0  0  0  0  0  0  0  0
  141.8007   79.3651  219.7736 H   0  0  0  0  0  0  0  0  0  0  0  0
  140.1755   78.5554  220.1044 H   0  0  0  0  0  0  0  0  0  0  0  0
  143.0146   80.2023  221.3194 H   0  0  0  0  0  0  0  0  0  0  0  0
  141.7556   81.4401  221.2410 H   0  0  0  0  0  0  0  0  0  0  0  0
  143.2251   81.2489  223.4764 H   0  0  0  0  0  0  0  0  0  0  0  0
  141.5146   81.4728  223.6988 H   0  0  0  0  0  0  0  0  0  0  0  0
  143.1795   78.9204  223.8198 H   0  0  0  0  0  0  0  0  0  0  0  0
  141.8173   79.3570  224.8464 H   0  0  0  0  0  0  0  0  0  0  0  0
  141.7242   77.6980  222.5726 H   0  0  0  0  0  0  0  0  0  0  0  0
  140.3020   78.4670  223.3540 H   0  0  0  0  0  0  0  0  0  0  0  0
  139.2384   69.5706  222.7732 H   0  0  0  0  0  0  0  0  0  0  0  0
  139.0737   68.3795  224.9540 H   0  0  0  0  0  0  0  0  0  0  0  0
  139.4701   68.2905  227.2988 H   0  0  0  0  0  0  0  0  0  0  0  0
  140.3702   69.3955  229.3122 H   0  0  0  0  0  0  0  0  0  0  0  0
  141.4007   71.5977  229.2469 H   0  0  0  0  0  0  0  0  0  0  0  0
  141.5764   72.8208  227.0827 H   0  0  0  0  0  0  0  0  0  0  0  0
  1  2  2  0
  2  3  1  0
  3  4  1  0
  4  5  1  0
  5  6  2  0
  5  7  1  0
  7  8  1  0
  8  9  1  0
  9 10  1  0
  9 11  1  0
 11 12  1  0
 12 13  1  0
 13 14  1  0
 14 15  1  0
 15 16  1  0
 16 17  1  0
 17 18  1  0
  2 19  1  0
 19 20  2  0
 20 21  1  0
 21 22  2  0
 22 23  1  0
 23 24  2  0
 24 25  1  0
 25 26  2  0
 26 27  1  0
 27 28  2  0
 12  7  1  0
 18 14  1  0
 28 19  1  0
 27 22  1  0
  3 29  1  0
  4 30  1  0
  4 31  1  0
  8 32  1  0
  8 33  1  0
  9 34  1  6
 11 35  1  0
 11 36  1  0
 12 37  1  1
 13 38  1  0
 13 39  1  0
 15 40  1  0
 15 41  1  0
 16 42  1  0
 16 43  1  0
 17 44  1  0
 17 45  1  0
 18 46  1  0
 18 47  1  0
 20 48  1  0
 21 49  1  0
 23 50  1  0
 24 51  1  0
 25 52  1  0
 26 53  1  0
M  END
>  <smiles>  (15) 
O=C(NCC(=O)N1C[C@H](F)C[C@H]1CN1CCCC1)c1ccc2ccccc2n1

>  <score_type>  (15) 
oracle

>  <origin>  (15) 
autodockgpu

>  <m_score__min__energy>  (15) 
-8.3699999999999992

>  <m_primary>  (15) 
energy

>  <rmsd>  (15) 
2.2448399950974354

>  <m_score__min__rmsd>  (15) 
2.2448399950974354

>  <meeko>  (15) 
{"free_energy": -8.3, "intermolecular_energy": -10.09, "internal_energy": -1.78, "cluster_size": 29, "cluster_id": 1, "rank_in_cluster": 4}

>  <energy>  (15) 
-8.25

>  <cluster_rmsd>  (15) 
0.44

>  <cluster>  (15) 
1

$$$$

     RDKit          3D

 53 56  0  0  0  0  0  0  0  0999 V2000
  138.6470   75.4240  221.9450 O   0  0  0  0  0  0  0  0  0  0  0  0
  139.8010   75.9310  221.8960 C   0  0  0  0  0  0  0  0  0  0  0  0
  140.8830   75.1870  221.3550 N   0  0  0  0  0  0  0  0  0  0  0  0
  140.6180   73.8480  220.8750 C   0  0  0  0  0  0  0  0  0  0  0  0
  141.8210   73.0160  221.1220 C   0  0  0  0  0  0  0  0  0  0  0  0
  141.8610   72.0780  221.9640 O   0  0  0  0  0  0  0  0  0  0  0  0
  142.9770   73.3080  220.3600 N   0  0  0  0  0  0  0  0  0  0  0  0
  143.6680   72.5180  219.3570 C   0  0  0  0  0  0  0  0  0  0  0  0
  145.1540   72.8330  219.5630 C   0  0  2  0  0  0  0  0  0  0  0  0
  145.7690   71.7110  220.0930 F   0  0  0  0  0  0  0  0  0  0  0  0
  145.1310   73.9660  220.5750 C   0  0  0  0  0  0  0  0  0  0  0  0
  143.7800   74.5710  220.4060 C   0  0  1  0  0  0  0  0  0  0  0  0
  143.4960   75.3830  219.2140 C   0  0  0  0  0  0  0  0  0  0  0  0
  142.3300   76.1950  219.2790 N   0  0  0  0  0  0  0  0  0  0  0  0
  141.8120   76.4620  217.9270 C   0  0  0  0  0  0  0  0  0  0  0  0
  141.0350   77.7660  218.0410 C   0  0  0  0  0  0  0  0  0  0  0  0
  141.9130   78.5500  218.9740 C   0  0  0  0  0  0  0  0  0  0  0  0
  142.5630   77.5080  219.8450 C   0  0  0  0  0  0  0  0  0  0  0  0
  140.0410   77.2800  222.3920 C   0  0  0  0  0  0  0  0  0  0  0  0
  139.0070   78.1020  222.7780 C   0  0  0  0  0  0  0  0  0  0  0  0
  139.2910   79.3750  223.2500 C   0  0  0  0  0  0  0  0  0  0  0  0
  140.5780   79.8020  223.3300 C   0  0  0  0  0  0  0  0  0  0  0  0
  140.8480   81.0640  223.7970 C   0  0  0  0  0  0  0  0  0  0  0  0
  142.1690   81.4470  223.8570 C   0  0  0  0  0  0  0  0  0  0  0  0
  143.2040   80.6480  223.4810 C   0  0  0  0  0  0  0  0  0  0  0  0
  142.9500   79.3890  223.0120 C   0  0  0  0  0  0  0  0  0  0  0  0
  141.6130   78.9790  222.9430 C   0  0  0  0  0  0  0  0  0  0  0  0
  141.2960   77.7640  222.4950 N   0  0  0  0  0  0  0  0  0  0  0  0
  141.8470   75.6170  221.3150 H   0  0  0  0  0  0  0  0  0  0  0  0
  139.7566   73.4244  221.4121 H   0  0  0  0  0  0  0  0  0  0  0  0
  140.3880   73.8704  219.7996 H   0  0  0  0  0  0  0  0  0  0  0  0
  143.4750   71.4457  219.5082 H   0  0  0  0  0  0  0  0  0  0  0  0
  143.3313   72.7565  218.3373 H   0  0  0  0  0  0  0  0  0  0  0  0
  145.6965   73.1039  218.6452 H   0  0  0  0  0  0  0  0  0  0  0  0
  145.2620   73.5806  221.5969 H   0  0  0  0  0  0  0  0  0  0  0  0
  145.9429   74.6913  220.4179 H   0  0  0  0  0  0  0  0  0  0  0  0
  143.5895   75.3202  221.1886 H   0  0  0  0  0  0  0  0  0  0  0  0
  144.3583   76.0444  219.0435 H   0  0  0  0  0  0  0  0  0  0  0  0
  143.3137   74.6648  218.4010 H   0  0  0  0  0  0  0  0  0  0  0  0
  142.6408   76.5693  217.2117 H   0  0  0  0  0  0  0  0  0  0  0  0
  141.1791   75.6397  217.5621 H   0  0  0  0  0  0  0  0  0  0  0  0
  140.9384   78.2640  217.0650 H   0  0  0  0  0  0  0  0  0  0  0  0
  139.9995   77.6446  218.3917 H   0  0  0  0  0  0  0  0  0  0  0  0
  142.6712   79.1148  218.4118 H   0  0  0  0  0  0  0  0  0  0  0  0
  141.3465   79.2897  219.5587 H   0  0  0  0  0  0  0  0  0  0  0  0
  143.6452   77.6977  219.8989 H   0  0  0  0  0  0  0  0  0  0  0  0
  142.1330   77.5540  220.8564 H   0  0  0  0  0  0  0  0  0  0  0  0
  137.9659   77.7530  222.7129 H   0  0  0  0  0  0  0  0  0  0  0  0
  138.4719   80.0404  223.5603 H   0  0  0  0  0  0  0  0  0  0  0  0
  140.0410   81.7425  224.1109 H   0  0  0  0  0  0  0  0  0  0  0  0
  142.4007   82.4556  224.2299 H   0  0  0  0  0  0  0  0  0  0  0  0
  144.2392   81.0128  223.5539 H   0  0  0  0  0  0  0  0  0  0  0  0
  143.7671   78.7219  222.7000 H   0  0  0  0  0  0  0  0  0  0  0  0
  1  2  2  0
  2  3  1  0
  3  4  1  0
  4  5  1  0
  5  6  2  0
  5  7  1  0
  7  8  1  0
  8  9  1  0
  9 10  1  0
  9 11  1  0
 11 12  1  0
 12 13  1  0
 13 14  1  0
 14 15  1  0
 15 16  1  0
 16 17  1  0
 17 18  1  0
  2 19  1  0
 19 20  2  0
 20 21  1  0
 21 22  2  0
 22 23  1  0
 23 24  2  0
 24 25  1  0
 25 26  2  0
 26 27  1  0
 27 28  2  0
 12  7  1  0
 18 14  1  0
 28 19  1  0
 27 22  1  0
  3 29  1  0
  4 30  1  0
  4 31  1  0
  8 32  1  0
  8 33  1  0
  9 34  1  6
 11 35  1  0
 11 36  1  0
 12 37  1  1
 13 38  1  0
 13 39  1  0
 15 40  1  0
 15 41  1  0
 16 42  1  0
 16 43  1  0
 17 44  1  0
 17 45  1  0
 18 46  1  0
 18 47  1  0
 20 48  1  0
 21 49  1  0
 23 50  1  0
 24 51  1  0
 25 52  1  0
 26 53  1  0
M  END
>  <smiles>  (16) 
O=C(NCC(=O)N1C[C@H](F)C[C@H]1CN1CCCC1)c1ccc2ccccc2n1

>  <score_type>  (16) 
oracle

>  <origin>  (16) 
autodockgpu

>  <m_score__min__energy>  (16) 
-8.3699999999999992

>  <m_primary>  (16) 
energy

>  <rmsd>  (16) 
7.262922255980322

>  <m_score__min__rmsd>  (16) 
7.262922255980322

>  <meeko>  (16) 
{"free_energy": -6.34, "intermolecular_energy": -8.13, "internal_energy": -3.07, "cluster_size": 6, "cluster_id": 6, "rank_in_cluster": 3}

>  <energy>  (16) 
-8.24

>  <cluster_rmsd>  (16) 
0.5

>  <cluster>  (16) 
1

$$$$

     RDKit          3D

 53 56  0  0  0  0  0  0  0  0999 V2000
  141.2930   71.5040  221.4670 O   0  0  0  0  0  0  0  0  0  0  0  0
  140.6560   72.0450  222.4110 C   0  0  0  0  0  0  0  0  0  0  0  0
  140.2580   73.4050  222.3150 N   0  0  0  0  0  0  0  0  0  0  0  0
  140.6080   74.1340  221.1150 C   0  0  0  0  0  0  0  0  0  0  0  0
  140.6100   75.5830  221.4330 C   0  0  0  0  0  0  0  0  0  0  0  0
  139.9330   76.0940  222.3670 O   0  0  0  0  0  0  0  0  0  0  0  0
  141.4200   76.4210  220.6310 N   0  0  0  0  0  0  0  0  0  0  0  0
  141.7530   77.8270  220.7760 C   0  0  0  0  0  0  0  0  0  0  0  0
  141.8180   78.3660  219.3420 C   0  0  2  0  0  0  0  0  0  0  0  0
  140.7300   79.1990  219.1390 F   0  0  0  0  0  0  0  0  0  0  0  0
  141.7020   77.1100  218.4940 C   0  0  0  0  0  0  0  0  0  0  0  0
  142.1710   76.0220  219.3980 C   0  0  1  0  0  0  0  0  0  0  0  0
  143.6030   75.9060  219.7060 C   0  0  0  0  0  0  0  0  0  0  0  0
  144.1840   74.6260  219.4870 N   0  0  0  0  0  0  0  0  0  0  0  0
  143.1480   73.6440  219.1290 C   0  0  0  0  0  0  0  0  0  0  0  0
  143.7150   72.2900  219.5360 C   0  0  0  0  0  0  0  0  0  0  0  0
  144.3960   72.6340  220.8300 C   0  0  0  0  0  0  0  0  0  0  0  0
  144.8260   74.0670  220.6600 C   0  0  0  0  0  0  0  0  0  0  0  0
  140.3220   71.2880  223.6110 C   0  0  0  0  0  0  0  0  0  0  0  0
  139.6340   70.0980  223.5460 C   0  0  0  0  0  0  0  0  0  0  0  0
  139.3470   69.4140  224.7170 C   0  0  0  0  0  0  0  0  0  0  0  0
  139.7450   69.9150  225.9150 C   0  0  0  0  0  0  0  0  0  0  0  0
  139.4560   69.2310  227.0690 C   0  0  0  0  0  0  0  0  0  0  0  0
  139.8810   69.7830  228.2560 C   0  0  0  0  0  0  0  0  0  0  0  0
  140.5630   70.9570  228.3400 C   0  0  0  0  0  0  0  0  0  0  0  0
  140.8570   71.6520  227.1990 C   0  0  0  0  0  0  0  0  0  0  0  0
  140.4340   71.1070  225.9800 C   0  0  0  0  0  0  0  0  0  0  0  0
  140.6870   71.7320  224.8310 N   0  0  0  0  0  0  0  0  0  0  0  0
  139.7230   73.8520  223.1080 H   0  0  0  0  0  0  0  0  0  0  0  0
  141.6071   73.8273  220.7718 H   0  0  0  0  0  0  0  0  0  0  0  0
  139.8803   73.9224  220.3177 H   0  0  0  0  0  0  0  0  0  0  0  0
  140.9763   78.3515  221.3519 H   0  0  0  0  0  0  0  0  0  0  0  0
  142.6988   77.9752  221.3177 H   0  0  0  0  0  0  0  0  0  0  0  0
  142.7247   78.9442  219.1106 H   0  0  0  0  0  0  0  0  0  0  0  0
  140.6596   76.9407  218.1860 H   0  0  0  0  0  0  0  0  0  0  0  0
  142.2869   77.1705  217.5644 H   0  0  0  0  0  0  0  0  0  0  0  0
  142.0008   75.0364  218.9401 H   0  0  0  0  0  0  0  0  0  0  0  0
  144.1422   76.6324  219.0802 H   0  0  0  0  0  0  0  0  0  0  0  0
  143.6910   76.0919  220.7866 H   0  0  0  0  0  0  0  0  0  0  0  0
  142.2163   73.8510  219.6759 H   0  0  0  0  0  0  0  0  0  0  0  0
  142.9042   73.6795  218.0570 H   0  0  0  0  0  0  0  0  0  0  0  0
  142.9172   71.5477  219.6856 H   0  0  0  0  0  0  0  0  0  0  0  0
  144.3774   71.8345  218.7852 H   0  0  0  0  0  0  0  0  0  0  0  0
  143.6985   72.5349  221.6748 H   0  0  0  0  0  0  0  0  0  0  0  0
  145.2425   71.9662  221.0478 H   0  0  0  0  0  0  0  0  0  0  0  0
  144.5344   74.6456  221.5489 H   0  0  0  0  0  0  0  0  0  0  0  0
  145.9183   74.1109  220.5373 H   0  0  0  0  0  0  0  0  0  0  0  0
  139.3149   69.6934  222.5742 H   0  0  0  0  0  0  0  0  0  0  0  0
  138.7955   68.4631  224.6759 H   0  0  0  0  0  0  0  0  0  0  0  0
  138.9061   68.2786  227.0463 H   0  0  0  0  0  0  0  0  0  0  0  0
  139.6567   69.2448  229.1888 H   0  0  0  0  0  0  0  0  0  0  0  0
  140.8764   71.3454  229.3202 H   0  0  0  0  0  0  0  0  0  0  0  0
  141.4058   72.6045  227.2375 H   0  0  0  0  0  0  0  0  0  0  0  0
  1  2  2  0
  2  3  1  0
  3  4  1  0
  4  5  1  0
  5  6  2  0
  5  7  1  0
  7  8  1  0
  8  9  1  0
  9 10  1  0
  9 11  1  0
 11 12  1  0
 12 13  1  0
 13 14  1  0
 14 15  1  0
 15 16  1  0
 16 17  1  0
 17 18  1  0
  2 19  1  0
 19 20  2  0
 20 21  1  0
 21 22  2  0
 22 23  1  0
 23 24  2  0
 24 25  1  0
 25 26  2  0
 26 27  1  0
 27 28  2  0
 12  7  1  0
 18 14  1  0
 28 19  1  0
 27 22  1  0
  3 29  1  0
  4 30  1  0
  4 31  1  0
  8 32  1  0
  8 33  1  0
  9 34  1  1
 11 35  1  0
 11 36  1  0
 12 37  1  6
 13 38  1  0
 13 39  1  0
 15 40  1  0
 15 41  1  0
 16 42  1  0
 16 43  1  0
 17 44  1  0
 17 45  1  0
 18 46  1  0
 18 47  1  0
 20 48  1  0
 21 49  1  0
 23 50  1  0
 24 51  1  0
 25 52  1  0
 26 53  1  0
M  END
>  <smiles>  (17) 
O=C(NCC(=O)N1C[C@H](F)C[C@H]1CN1CCCC1)c1ccc2ccccc2n1

>  <score_type>  (17) 
oracle

>  <origin>  (17) 
autodockgpu

>  <m_score__min__energy>  (17) 
-8.3699999999999992

>  <m_primary>  (17) 
energy

>  <rmsd>  (17) 
4.10404543219348

>  <m_score__min__rmsd>  (17) 
4.10404543219348

>  <meeko>  (17) 
{"free_energy": -7.52, "intermolecular_energy": -9.31, "internal_energy": -2.12, "cluster_size": 9, "cluster_id": 4, "rank_in_cluster": 7}

>  <energy>  (17) 
-8.17

>  <cluster_rmsd>  (17) 
1.09

>  <cluster>  (17) 
1

$$$$

     RDKit          3D

 53 56  0  0  0  0  0  0  0  0999 V2000
  141.1490   71.6710  221.3900 O   0  0  0  0  0  0  0  0  0  0  0  0
  140.5330   72.1810  222.3650 C   0  0  0  0  0  0  0  0  0  0  0  0
  140.0950   73.5310  222.3040 N   0  0  0  0  0  0  0  0  0  0  0  0
  140.3810   74.2870  221.1030 C   0  0  0  0  0  0  0  0  0  0  0  0
  140.7580   75.6660  221.4980 C   0  0  0  0  0  0  0  0  0  0  0  0
  140.5520   76.1450  222.6470 O   0  0  0  0  0  0  0  0  0  0  0  0
  141.3810   76.4730  220.5170 N   0  0  0  0  0  0  0  0  0  0  0  0
  141.6390   77.9020  220.4990 C   0  0  0  0  0  0  0  0  0  0  0  0
  141.4500   78.3170  219.0350 C   0  0  2  0  0  0  0  0  0  0  0  0
  140.2910   79.0710  218.9400 F   0  0  0  0  0  0  0  0  0  0  0  0
  141.2900   76.9880  218.3150 C   0  0  0  0  0  0  0  0  0  0  0  0
  141.9610   76.0090  219.2160 C   0  0  1  0  0  0  0  0  0  0  0  0
  143.4280   75.9960  219.3050 C   0  0  0  0  0  0  0  0  0  0  0  0
  144.0440   74.7150  219.2360 N   0  0  0  0  0  0  0  0  0  0  0  0
  143.0240   73.6590  219.1240 C   0  0  0  0  0  0  0  0  0  0  0  0
  143.6800   72.4030  219.6830 C   0  0  0  0  0  0  0  0  0  0  0  0
  144.4490   72.9660  220.8450 C   0  0  0  0  0  0  0  0  0  0  0  0
  144.8020   74.3660  220.4200 C   0  0  0  0  0  0  0  0  0  0  0  0
  140.2650   71.3980  223.5640 C   0  0  0  0  0  0  0  0  0  0  0  0
  139.6060   70.1910  223.5070 C   0  0  0  0  0  0  0  0  0  0  0  0
  139.3820   69.4830  224.6780 C   0  0  0  0  0  0  0  0  0  0  0  0
  139.8110   69.9780  225.8670 C   0  0  0  0  0  0  0  0  0  0  0  0
  139.5840   69.2690  227.0210 C   0  0  0  0  0  0  0  0  0  0  0  0
  140.0390   69.8160  228.1990 C   0  0  0  0  0  0  0  0  0  0  0  0
  140.6920   71.0060  228.2760 C   0  0  0  0  0  0  0  0  0  0  0  0
  140.9250   71.7250  227.1350 C   0  0  0  0  0  0  0  0  0  0  0  0
  140.4700   71.1860  225.9250 C   0  0  0  0  0  0  0  0  0  0  0  0
  140.6640   71.8350  224.7770 N   0  0  0  0  0  0  0  0  0  0  0  0
  139.5790   73.9520  223.1230 H   0  0  0  0  0  0  0  0  0  0  0  0
  141.2118   73.8166  220.5566 H   0  0  0  0  0  0  0  0  0  0  0  0
  139.4961   74.3089  220.4499 H   0  0  0  0  0  0  0  0  0  0  0  0
  140.9259   78.4325  221.1471 H   0  0  0  0  0  0  0  0  0  0  0  0
  142.6441   78.1467  220.8730 H   0  0  0  0  0  0  0  0  0  0  0  0
  142.2714   78.9203  218.6209 H   0  0  0  0  0  0  0  0  0  0  0  0
  140.2265   76.7375  218.1876 H   0  0  0  0  0  0  0  0  0  0  0  0
  141.7222   76.9989  217.3035 H   0  0  0  0  0  0  0  0  0  0  0  0
  141.7884   74.9800  218.8676 H   0  0  0  0  0  0  0  0  0  0  0  0
  143.8212   76.6040  218.4769 H   0  0  0  0  0  0  0  0  0  0  0  0
  143.6689   76.3885  220.3040 H   0  0  0  0  0  0  0  0  0  0  0  0
  142.1320   73.9215  219.7116 H   0  0  0  0  0  0  0  0  0  0  0  0
  142.6918   73.5194  218.0847 H   0  0  0  0  0  0  0  0  0  0  0  0
  142.9297   71.6698  220.0138 H   0  0  0  0  0  0  0  0  0  0  0  0
  144.2980   71.8554  218.9562 H   0  0  0  0  0  0  0  0  0  0  0  0
  143.8274   72.9801  221.7524 H   0  0  0  0  0  0  0  0  0  0  0  0
  145.3382   72.3659  221.0885 H   0  0  0  0  0  0  0  0  0  0  0  0
  144.5592   75.0680  221.2313 H   0  0  0  0  0  0  0  0  0  0  0  0
  145.8778   74.4221  220.1973 H   0  0  0  0  0  0  0  0  0  0  0  0
  139.2604   69.7919  222.5420 H   0  0  0  0  0  0  0  0  0  0  0  0
  138.8554   68.5179  224.6434 H   0  0  0  0  0  0  0  0  0  0  0  0
  139.0594   68.3023  227.0044 H   0  0  0  0  0  0  0  0  0  0  0  0
  139.8644   69.2588  229.1312 H   0  0  0  0  0  0  0  0  0  0  0  0
  141.0312   71.3888  229.2499 H   0  0  0  0  0  0  0  0  0  0  0  0
  141.4504   72.6909  227.1671 H   0  0  0  0  0  0  0  0  0  0  0  0
  1  2  2  0
  2  3  1  0
  3  4  1  0
  4  5  1  0
  5  6  2  0
  5  7  1  0
  7  8  1  0
  8  9  1  0
  9 10  1  0
  9 11  1  0
 11 12  1  0
 12 13  1  0
 13 14  1  0
 14 15  1  0
 15 16  1  0
 16 17  1  0
 17 18  1  0
  2 19  1  0
 19 20  2  0
 20 21  1  0
 21 22  2  0
 22 23  1  0
 23 24  2  0
 24 25  1  0
 25 26  2  0
 26 27  1  0
 27 28  2  0
 12  7  1  0
 18 14  1  0
 28 19  1  0
 27 22  1  0
  3 29  1  0
  4 30  1  0
  4 31  1  0
  8 32  1  0
  8 33  1  0
  9 34  1  6
 11 35  1  0
 11 36  1  0
 12 37  1  6
 13 38  1  0
 13 39  1  0
 15 40  1  0
 15 41  1  0
 16 42  1  0
 16 43  1  0
 17 44  1  0
 17 45  1  0
 18 46  1  0
 18 47  1  0
 20 48  1  0
 21 49  1  0
 23 50  1  0
 24 51  1  0
 25 52  1  0
 26 53  1  0
M  END
>  <smiles>  (18) 
O=C(NCC(=O)N1C[C@H](F)C[C@H]1CN1CCCC1)c1ccc2ccccc2n1

>  <score_type>  (18) 
oracle

>  <origin>  (18) 
autodockgpu

>  <m_score__min__energy>  (18) 
-8.3699999999999992

>  <m_primary>  (18) 
energy

>  <rmsd>  (18) 
3.970785419947139

>  <m_score__min__rmsd>  (18) 
3.970785419947139

>  <meeko>  (18) 
{"free_energy": -7.4, "intermolecular_energy": -9.19, "internal_energy": -2.08, "cluster_size": 9, "cluster_id": 4, "rank_in_cluster": 9}

>  <energy>  (18) 
-8.12

>  <cluster_rmsd>  (18) 
0.4

>  <cluster>  (18) 
1

$$$$

     RDKit          3D

 53 56  0  0  0  0  0  0  0  0999 V2000
  141.0740   71.6120  221.4480 O   0  0  0  0  0  0  0  0  0  0  0  0
  140.4500   72.1230  222.4170 C   0  0  0  0  0  0  0  0  0  0  0  0
  139.9560   73.4510  222.3260 N   0  0  0  0  0  0  0  0  0  0  0  0
  140.1950   74.1850  221.1020 C   0  0  0  0  0  0  0  0  0  0  0  0
  140.1330   75.6350  221.4070 C   0  0  0  0  0  0  0  0  0  0  0  0
  139.6460   76.1050  222.4720 O   0  0  0  0  0  0  0  0  0  0  0  0
  140.6530   76.5240  220.4370 N   0  0  0  0  0  0  0  0  0  0  0  0
  140.3400   76.6650  219.0250 C   0  0  0  0  0  0  0  0  0  0  0  0
  141.6760   77.0190  218.3610 C   0  0  2  0  0  0  0  0  0  0  0  0
  142.0900   75.9320  217.6080 F   0  0  0  0  0  0  0  0  0  0  0  0
  142.6040   77.2420  219.5420 C   0  0  0  0  0  0  0  0  0  0  0  0
  141.6830   77.5890  220.6610 C   0  0  1  0  0  0  0  0  0  0  0  0
  141.0360   78.9080  220.6830 C   0  0  0  0  0  0  0  0  0  0  0  0
  141.0930   79.6090  221.9190 N   0  0  0  0  0  0  0  0  0  0  0  0
  142.4580   80.1030  222.1690 C   0  0  0  0  0  0  0  0  0  0  0  0
  142.5680   80.2400  223.6810 C   0  0  0  0  0  0  0  0  0  0  0  0
  141.8200   79.0210  224.1420 C   0  0  0  0  0  0  0  0  0  0  0  0
  140.7870   78.7870  223.0720 C   0  0  0  0  0  0  0  0  0  0  0  0
  140.2280   71.3620  223.6400 C   0  0  0  0  0  0  0  0  0  0  0  0
  139.5770   70.1490  223.6290 C   0  0  0  0  0  0  0  0  0  0  0  0
  139.3990   69.4640  224.8210 C   0  0  0  0  0  0  0  0  0  0  0  0
  139.8640   69.9850  225.9850 C   0  0  0  0  0  0  0  0  0  0  0  0
  139.6820   69.2990  227.1600 C   0  0  0  0  0  0  0  0  0  0  0  0
  140.1720   69.8720  228.3110 C   0  0  0  0  0  0  0  0  0  0  0  0
  140.8180   71.0690  228.3420 C   0  0  0  0  0  0  0  0  0  0  0  0
  141.0060   71.7660  227.1800 C   0  0  0  0  0  0  0  0  0  0  0  0
  140.5150   71.1990  225.9960 C   0  0  0  0  0  0  0  0  0  0  0  0
  140.6650   71.8260  224.8300 N   0  0  0  0  0  0  0  0  0  0  0  0
  139.4320   73.8730  223.1400 H   0  0  0  0  0  0  0  0  0  0  0  0
  141.1887   73.9310  220.7043 H   0  0  0  0  0  0  0  0  0  0  0  0
  139.4360   73.9238  220.3499 H   0  0  0  0  0  0  0  0  0  0  0  0
  139.9438   75.7222  218.6199 H   0  0  0  0  0  0  0  0  0  0  0  0
  139.5710   77.4306  218.8446 H   0  0  0  0  0  0  0  0  0  0  0  0
  141.6372   77.8907  217.6912 H   0  0  0  0  0  0  0  0  0  0  0  0
  143.1719   76.3283  219.7715 H   0  0  0  0  0  0  0  0  0  0  0  0
  143.3532   78.0245  219.3510 H   0  0  0  0  0  0  0  0  0  0  0  0
  142.2313   77.6384  221.6134 H   0  0  0  0  0  0  0  0  0  0  0  0
  141.5203   79.5334  219.9186 H   0  0  0  0  0  0  0  0  0  0  0  0
  139.9684   78.7181  220.4983 H   0  0  0  0  0  0  0  0  0  0  0  0
  143.2019   79.3855  221.7925 H   0  0  0  0  0  0  0  0  0  0  0  0
  142.6475   81.0579  221.6570 H   0  0  0  0  0  0  0  0  0  0  0  0
  143.6167   80.2181  224.0121 H   0  0  0  0  0  0  0  0  0  0  0  0
  142.1737   81.1873  224.0775 H   0  0  0  0  0  0  0  0  0  0  0  0
  142.4966   78.1577  224.2250 H   0  0  0  0  0  0  0  0  0  0  0  0
  141.3696   79.1572  225.1363 H   0  0  0  0  0  0  0  0  0  0  0  0
  140.7956   77.7267  222.7793 H   0  0  0  0  0  0  0  0  0  0  0  0
  139.7917   79.0521  223.4582 H   0  0  0  0  0  0  0  0  0  0  0  0
  139.2021   69.7279  222.6845 H   0  0  0  0  0  0  0  0  0  0  0  0
  138.8790   68.4947  224.8236 H   0  0  0  0  0  0  0  0  0  0  0  0
  139.1644   68.3286  227.1806 H   0  0  0  0  0  0  0  0  0  0  0  0
  140.0337   69.3320  229.2593 H   0  0  0  0  0  0  0  0  0  0  0  0
  141.1870   71.4740  229.2959 H   0  0  0  0  0  0  0  0  0  0  0  0
  141.5238   72.7365  227.1750 H   0  0  0  0  0  0  0  0  0  0  0  0
  1  2  2  0
  2  3  1  0
  3  4  1  0
  4  5  1  0
  5  6  2  0
  5  7  1  0
  7  8  1  0
  8  9  1  0
  9 10  1  0
  9 11  1  0
 11 12  1  0
 12 13  1  0
 13 14  1  0
 14 15  1  0
 15 16  1  0
 16 17  1  0
 17 18  1  0
  2 19  1  0
 19 20  2  0
 20 21  1  0
 21 22  2  0
 22 23  1  0
 23 24  2  0
 24 25  1  0
 25 26  2  0
 26 27  1  0
 27 28  2  0
 12  7  1  0
 18 14  1  0
 28 19  1  0
 27 22  1  0
  3 29  1  0
  4 30  1  0
  4 31  1  0
  8 32  1  0
  8 33  1  0
  9 34  1  6
 11 35  1  0
 11 36  1  0
 12 37  1  1
 13 38  1  0
 13 39  1  0
 15 40  1  0
 15 41  1  0
 16 42  1  0
 16 43  1  0
 17 44  1  0
 17 45  1  0
 18 46  1  0
 18 47  1  0
 20 48  1  0
 21 49  1  0
 23 50  1  0
 24 51  1  0
 25 52  1  0
 26 53  1  0
M  END
>  <smiles>  (19) 
O=C(NCC(=O)N1C[C@H](F)C[C@H]1CN1CCCC1)c1ccc2ccccc2n1

>  <score_type>  (19) 
oracle

>  <origin>  (19) 
autodockgpu

>  <m_score__min__energy>  (19) 
-8.3699999999999992

>  <m_primary>  (19) 
energy

>  <rmsd>  (19) 
2.3184529862050223

>  <m_score__min__rmsd>  (19) 
2.3184529862050223

>  <meeko>  (19) 
{"free_energy": -8.25, "intermolecular_energy": -10.04, "internal_energy": -1.81, "cluster_size": 29, "cluster_id": 1, "rank_in_cluster": 14}

>  <energy>  (19) 
-8.07

>  <cluster_rmsd>  (19) 
0.38

>  <cluster>  (19) 
1

$$$$

     RDKit          3D

 53 56  0  0  0  0  0  0  0  0999 V2000
  138.9190   75.0590  221.8890 O   0  0  0  0  0  0  0  0  0  0  0  0
  140.0460   75.6020  222.0450 C   0  0  0  0  0  0  0  0  0  0  0  0
  141.2330   74.8450  221.8600 N   0  0  0  0  0  0  0  0  0  0  0  0
  141.1020   73.4500  221.4970 C   0  0  0  0  0  0  0  0  0  0  0  0
  141.4430   73.3080  220.0600 C   0  0  0  0  0  0  0  0  0  0  0  0
  140.6260   72.9090  219.1850 O   0  0  0  0  0  0  0  0  0  0  0  0
  142.7610   73.6430  219.6700 N   0  0  0  0  0  0  0  0  0  0  0  0
  143.7920   72.8330  219.0450 C   0  0  0  0  0  0  0  0  0  0  0  0
  145.1060   73.3220  219.6670 C   0  0  2  0  0  0  0  0  0  0  0  0
  145.5890   72.3290  220.5030 F   0  0  0  0  0  0  0  0  0  0  0  0
  144.6790   74.5410  220.4660 C   0  0  0  0  0  0  0  0  0  0  0  0
  143.4190   74.9820  219.8040 C   0  0  1  0  0  0  0  0  0  0  0  0
  143.4840   75.6360  218.4900 C   0  0  0  0  0  0  0  0  0  0  0  0
  142.5710   76.7080  218.2840 N   0  0  0  0  0  0  0  0  0  0  0  0
  142.4990   77.5610  219.4810 C   0  0  0  0  0  0  0  0  0  0  0  0
  141.1300   78.2250  219.4230 C   0  0  0  0  0  0  0  0  0  0  0  0
  140.2770   77.0970  218.9170 C   0  0  0  0  0  0  0  0  0  0  0  0
  141.2060   76.2790  218.0590 C   0  0  0  0  0  0  0  0  0  0  0  0
  140.1480   77.0080  222.4170 C   0  0  0  0  0  0  0  0  0  0  0  0
  139.0300   77.7830  222.6260 C   0  0  0  0  0  0  0  0  0  0  0  0
  139.1830   79.1130  222.9850 C   0  0  0  0  0  0  0  0  0  0  0  0
  140.4250   79.6430  223.1290 C   0  0  0  0  0  0  0  0  0  0  0  0
  140.5660   80.9610  223.4840 C   0  0  0  0  0  0  0  0  0  0  0  0
  141.8460   81.4480  223.6160 C   0  0  0  0  0  0  0  0  0  0  0  0
  142.9630   80.6980  223.4130 C   0  0  0  0  0  0  0  0  0  0  0  0
  142.8390   79.3830  223.0580 C   0  0  0  0  0  0  0  0  0  0  0  0
  141.5440   78.8670  222.9190 C   0  0  0  0  0  0  0  0  0  0  0  0
  141.3530   77.5940  222.5740 N   0  0  0  0  0  0  0  0  0  0  0  0
  142.1740   75.3050  221.9900 H   0  0  0  0  0  0  0  0  0  0  0  0
  141.7887   72.8417  222.1040 H   0  0  0  0  0  0  0  0  0  0  0  0
  140.0727   73.1066  221.6778 H   0  0  0  0  0  0  0  0  0  0  0  0
  143.6329   71.7668  219.2640 H   0  0  0  0  0  0  0  0  0  0  0  0
  143.7897   72.9312  217.9494 H   0  0  0  0  0  0  0  0  0  0  0  0
  145.8979   73.5560  218.9403 H   0  0  0  0  0  0  0  0  0  0  0  0
  144.4959   74.2749  221.5175 H   0  0  0  0  0  0  0  0  0  0  0  0
  145.4474   75.3280  220.4812 H   0  0  0  0  0  0  0  0  0  0  0  0
  142.9350   75.7819  220.3836 H   0  0  0  0  0  0  0  0  0  0  0  0
  144.5024   76.0308  218.3599 H   0  0  0  0  0  0  0  0  0  0  0  0
  143.2058   74.8631  217.7584 H   0  0  0  0  0  0  0  0  0  0  0  0
  142.5935   76.9531  220.3929 H   0  0  0  0  0  0  0  0  0  0  0  0
  143.3120   78.3016  219.5049 H   0  0  0  0  0  0  0  0  0  0  0  0
  140.8034   78.5619  220.4179 H   0  0  0  0  0  0  0  0  0  0  0  0
  141.0948   79.1309  218.8001 H   0  0  0  0  0  0  0  0  0  0  0  0
  139.8900   76.4965  219.7534 H   0  0  0  0  0  0  0  0  0  0  0  0
  139.3980   77.4538  218.3602 H   0  0  0  0  0  0  0  0  0  0  0  0
  141.1074   75.2154  218.3220 H   0  0  0  0  0  0  0  0  0  0  0  0
  140.9466   76.4192  216.9993 H   0  0  0  0  0  0  0  0  0  0  0  0
  138.0250   77.3512  222.5093 H   0  0  0  0  0  0  0  0  0  0  0  0
  138.2958   79.7410  223.1538 H   0  0  0  0  0  0  0  0  0  0  0  0
  139.6897   81.6032  223.6563 H   0  0  0  0  0  0  0  0  0  0  0  0
  141.9735   82.5026  223.9016 H   0  0  0  0  0  0  0  0  0  0  0  0
  143.9600   81.1467  223.5337 H   0  0  0  0  0  0  0  0  0  0  0  0
  143.7245   78.7530  222.8877 H   0  0  0  0  0  0  0  0  0  0  0  0
  1  2  2  0
  2  3  1  0
  3  4  1  0
  4  5  1  0
  5  6  2  0
  5  7  1  0
  7  8  1  0
  8  9  1  0
  9 10  1  0
  9 11  1  0
 11 12  1  0
 12 13  1  0
 13 14  1  0
 14 15  1  0
 15 16  1  0
 16 17  1  0
 17 18  1  0
  2 19  1  0
 19 20  2  0
 20 21  1  0
 21 22  2  0
 22 23  1  0
 23 24  2  0
 24 25  1  0
 25 26  2  0
 26 27  1  0
 27 28  2  0
 12  7  1  0
 18 14  1  0
 28 19  1  0
 27 22  1  0
  3 29  1  0
  4 30  1  0
  4 31  1  0
  8 32  1  0
  8 33  1  0
  9 34  1  6
 11 35  1  0
 11 36  1  0
 12 37  1  1
 13 38  1  0
 13 39  1  0
 15 40  1  0
 15 41  1  0
 16 42  1  0
 16 43  1  0
 17 44  1  0
 17 45  1  0
 18 46  1  0
 18 47  1  0
 20 48  1  0
 21 49  1  0
 23 50  1  0
 24 51  1  0
 25 52  1  0
 26 53  1  0
M  END
>  <smiles>  (20) 
O=C(NCC(=O)N1C[C@H](F)C[C@H]1CN1CCCC1)c1ccc2ccccc2n1

>  <score_type>  (20) 
oracle

>  <origin>  (20) 
autodockgpu

>  <m_score__min__energy>  (20) 
-8.3699999999999992

>  <m_primary>  (20) 
energy

>  <rmsd>  (20) 
7.17350699790752

>  <m_score__min__rmsd>  (20) 
7.17350699790752

>  <meeko>  (20) 
{"free_energy": -6.09, "intermolecular_energy": -7.87, "internal_energy": -2.92, "cluster_size": 6, "cluster_id": 6, "rank_in_cluster": 6}

>  <energy>  (20) 
-8.07

>  <cluster_rmsd>  (20) 
0.5

>  <cluster>  (20) 
1

$$$$

     RDKit          3D

 53 56  0  0  0  0  0  0  0  0999 V2000
  140.7910   71.5870  221.3350 O   0  0  0  0  0  0  0  0  0  0  0  0
  140.3240   72.1290  222.3740 C   0  0  0  0  0  0  0  0  0  0  0  0
  139.9240   73.4920  222.3470 N   0  0  0  0  0  0  0  0  0  0  0  0
  140.0730   74.2220  221.1070 C   0  0  0  0  0  0  0  0  0  0  0  0
  140.1530   75.6690  221.4230 C   0  0  0  0  0  0  0  0  0  0  0  0
  139.7750   76.1660  222.5190 O   0  0  0  0  0  0  0  0  0  0  0  0
  140.6830   76.5210  220.4260 N   0  0  0  0  0  0  0  0  0  0  0  0
  140.2630   76.7410  219.0540 C   0  0  0  0  0  0  0  0  0  0  0  0
  141.5650   76.9580  218.2750 C   0  0  2  0  0  0  0  0  0  0  0  0
  141.7790   75.8550  217.4640 F   0  0  0  0  0  0  0  0  0  0  0  0
  142.6160   77.0370  219.3690 C   0  0  0  0  0  0  0  0  0  0  0  0
  141.8470   77.4530  220.5760 C   0  0  1  0  0  0  0  0  0  0  0  0
  141.3640   78.8360  220.6840 C   0  0  0  0  0  0  0  0  0  0  0  0
  142.1120   79.6900  221.5410 N   0  0  0  0  0  0  0  0  0  0  0  0
  142.2200   79.1040  222.8870 C   0  0  0  0  0  0  0  0  0  0  0  0
  142.4340   80.2820  223.8270 C   0  0  0  0  0  0  0  0  0  0  0  0
  141.5130   81.3070  223.2280 C   0  0  0  0  0  0  0  0  0  0  0  0
  141.4980   80.9850  221.7570 C   0  0  0  0  0  0  0  0  0  0  0  0
  140.1920   71.3710  223.6110 C   0  0  0  0  0  0  0  0  0  0  0  0
  139.6100   70.1240  223.6360 C   0  0  0  0  0  0  0  0  0  0  0  0
  139.5150   69.4430  224.8400 C   0  0  0  0  0  0  0  0  0  0  0  0
  139.9930   70.0020  225.9810 C   0  0  0  0  0  0  0  0  0  0  0  0
  139.8940   69.3190  227.1670 C   0  0  0  0  0  0  0  0  0  0  0  0
  140.3930   69.9320  228.2940 C   0  0  0  0  0  0  0  0  0  0  0  0
  140.9720   71.1630  228.2890 C   0  0  0  0  0  0  0  0  0  0  0  0
  141.0770   71.8570  227.1150 C   0  0  0  0  0  0  0  0  0  0  0  0
  140.5750   71.2510  225.9560 C   0  0  0  0  0  0  0  0  0  0  0  0
  140.6450   71.8720  224.7790 N   0  0  0  0  0  0  0  0  0  0  0  0
  139.5330   73.9400  223.2190 H   0  0  0  0  0  0  0  0  0  0  0  0
  140.9928   73.9019  220.5955 H   0  0  0  0  0  0  0  0  0  0  0  0
  139.2150   74.0258  220.4472 H   0  0  0  0  0  0  0  0  0  0  0  0
  139.7228   75.8636  218.6689 H   0  0  0  0  0  0  0  0  0  0  0  0
  139.5772   77.5961  218.9621 H   0  0  0  0  0  0  0  0  0  0  0  0
  141.5682   77.8480  217.6286 H   0  0  0  0  0  0  0  0  0  0  0  0
  143.0915   76.0576  219.5263 H   0  0  0  0  0  0  0  0  0  0  0  0
  143.4311   77.7340  219.1245 H   0  0  0  0  0  0  0  0  0  0  0  0
  142.4802   77.4095  221.4744 H   0  0  0  0  0  0  0  0  0  0  0  0
  141.3749   79.2765  219.6761 H   0  0  0  0  0  0  0  0  0  0  0  0
  140.3621   78.7673  221.1328 H   0  0  0  0  0  0  0  0  0  0  0  0
  141.2961   78.5669  223.1478 H   0  0  0  0  0  0  0  0  0  0  0  0
  143.0424   78.3763  222.9506 H   0  0  0  0  0  0  0  0  0  0  0  0
  142.1430   80.0326  224.8581 H   0  0  0  0  0  0  0  0  0  0  0  0
  143.4810   80.6095  223.9081 H   0  0  0  0  0  0  0  0  0  0  0  0
  140.5033   81.2198  223.6556 H   0  0  0  0  0  0  0  0  0  0  0  0
  141.8454   82.3363  223.4279 H   0  0  0  0  0  0  0  0  0  0  0  0
  140.4589   80.9631  221.3968 H   0  0  0  0  0  0  0  0  0  0  0  0
  142.0599   81.7542  221.2069 H   0  0  0  0  0  0  0  0  0  0  0  0
  139.2242   69.6723  222.7102 H   0  0  0  0  0  0  0  0  0  0  0  0
  139.0507   68.4463  224.8707 H   0  0  0  0  0  0  0  0  0  0  0  0
  139.4340   68.3210  227.2153 H   0  0  0  0  0  0  0  0  0  0  0  0
  140.3195   69.3966  229.2521 H   0  0  0  0  0  0  0  0  0  0  0  0
  141.3538   71.5981  229.2244 H   0  0  0  0  0  0  0  0  0  0  0  0
  141.5389   72.8548  227.0821 H   0  0  0  0  0  0  0  0  0  0  0  0
  1  2  2  0
  2  3  1  0
  3  4  1  0
  4  5  1  0
  5  6  2  0
  5  7  1  0
  7  8  1  0
  8  9  1  0
  9 10  1  0
  9 11  1  0
 11 12  1  0
 12 13  1  0
 13 14  1  0
 14 15  1  0
 15 16  1  0
 16 17  1  0
 17 18  1  0
  2 19  1  0
 19 20  2  0
 20 21  1  0
 21 22  2  0
 22 23  1  0
 23 24  2  0
 24 25  1  0
 25 26  2  0
 26 27  1  0
 27 28  2  0
 12  7  1  0
 18 14  1  0
 28 19  1  0
 27 22  1  0
  3 29  1  0
  4 30  1  0
  4 31  1  0
  8 32  1  0
  8 33  1  0
  9 34  1  6
 11 35  1  0
 11 36  1  0
 12 37  1  1
 13 38  1  0
 13 39  1  0
 15 40  1  0
 15 41  1  0
 16 42  1  0
 16 43  1  0
 17 44  1  0
 17 45  1  0
 18 46  1  0
 18 47  1  0
 20 48  1  0
 21 49  1  0
 23 50  1  0
 24 51  1  0
 25 52  1  0
 26 53  1  0
M  END
>  <smiles>  (21) 
O=C(NCC(=O)N1C[C@H](F)C[C@H]1CN1CCCC1)c1ccc2ccccc2n1

>  <score_type>  (21) 
oracle

>  <origin>  (21) 
autodockgpu

>  <m_score__min__energy>  (21) 
-8.3699999999999992

>  <m_primary>  (21) 
energy

>  <rmsd>  (21) 
1.87787469999034

>  <m_score__min__rmsd>  (21) 
1.87787469999034

>  <meeko>  (21) 
{"free_energy": -8.25, "intermolecular_energy": -10.04, "internal_energy": -1.7, "cluster_size": 29, "cluster_id": 1, "rank_in_cluster": 15}

>  <energy>  (21) 
-8.0

>  <cluster_rmsd>  (21) 
0.63

>  <cluster>  (21) 
1

$$$$

     RDKit          3D

 53 56  0  0  0  0  0  0  0  0999 V2000
  141.0730   71.5390  221.4020 O   0  0  0  0  0  0  0  0  0  0  0  0
  140.5030   72.0930  222.3810 C   0  0  0  0  0  0  0  0  0  0  0  0
  140.0750   73.4440  222.2840 N   0  0  0  0  0  0  0  0  0  0  0  0
  140.3170   74.1490  221.0440 C   0  0  0  0  0  0  0  0  0  0  0  0
  140.5900   75.5720  221.3610 C   0  0  0  0  0  0  0  0  0  0  0  0
  140.0950   76.1740  222.3530 O   0  0  0  0  0  0  0  0  0  0  0  0
  141.4550   76.2750  220.4900 N   0  0  0  0  0  0  0  0  0  0  0  0
  141.7860   77.6870  220.4300 C   0  0  0  0  0  0  0  0  0  0  0  0
  141.9470   77.9900  218.9350 C   0  0  2  0  0  0  0  0  0  0  0  0
  140.8790   78.7750  218.5320 F   0  0  0  0  0  0  0  0  0  0  0  0
  141.8790   76.6150  218.2930 C   0  0  0  0  0  0  0  0  0  0  0  0
  142.2830   75.6870  219.3880 C   0  0  1  0  0  0  0  0  0  0  0  0
  143.6910   75.6290  219.8030 C   0  0  0  0  0  0  0  0  0  0  0  0
  144.3120   74.3520  219.7150 N   0  0  0  0  0  0  0  0  0  0  0  0
  143.4430   73.3140  220.2940 C   0  0  0  0  0  0  0  0  0  0  0  0
  144.3800   72.1960  220.7280 C   0  0  0  0  0  0  0  0  0  0  0  0
  145.5410   72.9790  221.2710 C   0  0  0  0  0  0  0  0  0  0  0  0
  145.5480   74.2500  220.4640 C   0  0  0  0  0  0  0  0  0  0  0  0
  140.2780   71.3600  223.6200 C   0  0  0  0  0  0  0  0  0  0  0  0
  139.6560   70.1330  223.6310 C   0  0  0  0  0  0  0  0  0  0  0  0
  139.4730   69.4750  224.8380 C   0  0  0  0  0  0  0  0  0  0  0  0
  139.9060   70.0380  225.9950 C   0  0  0  0  0  0  0  0  0  0  0  0
  139.7190   69.3790  227.1840 C   0  0  0  0  0  0  0  0  0  0  0  0
  140.1760   69.9940  228.3280 C   0  0  0  0  0  0  0  0  0  0  0  0
  140.7940   71.2060  228.3370 C   0  0  0  0  0  0  0  0  0  0  0  0
  140.9860   71.8760  227.1590 C   0  0  0  0  0  0  0  0  0  0  0  0
  140.5290   71.2670  225.9840 C   0  0  0  0  0  0  0  0  0  0  0  0
  140.6840   71.8650  224.8030 N   0  0  0  0  0  0  0  0  0  0  0  0
  139.5970   73.9010  223.1070 H   0  0  0  0  0  0  0  0  0  0  0  0
  141.1846   73.7097  220.5299 H   0  0  0  0  0  0  0  0  0  0  0  0
  139.4389   74.0697  220.3862 H   0  0  0  0  0  0  0  0  0  0  0  0
  140.9767   78.2932  220.8630 H   0  0  0  0  0  0  0  0  0  0  0  0
  142.6954   77.9243  221.0015 H   0  0  0  0  0  0  0  0  0  0  0  0
  142.8703   78.5276  218.6731 H   0  0  0  0  0  0  0  0  0  0  0  0
  140.8577   76.3937  217.9494 H   0  0  0  0  0  0  0  0  0  0  0  0
  142.5229   76.5292  217.4053 H   0  0  0  0  0  0  0  0  0  0  0  0
  142.1381   74.6399  219.0836 H   0  0  0  0  0  0  0  0  0  0  0  0
  144.2587   76.3245  219.1674 H   0  0  0  0  0  0  0  0  0  0  0  0
  143.6978   75.8906  220.8714 H   0  0  0  0  0  0  0  0  0  0  0  0
  142.8925   73.7120  221.1592 H   0  0  0  0  0  0  0  0  0  0  0  0
  142.6922   72.9605  219.5720 H   0  0  0  0  0  0  0  0  0  0  0  0
  143.9218   71.5650  221.5038 H   0  0  0  0  0  0  0  0  0  0  0  0
  144.6466   71.4942  219.9240 H   0  0  0  0  0  0  0  0  0  0  0  0
  145.3971   73.1975  222.3394 H   0  0  0  0  0  0  0  0  0  0  0  0
  146.4902   72.4285  221.1931 H   0  0  0  0  0  0  0  0  0  0  0  0
  145.6398   75.1131  221.1397 H   0  0  0  0  0  0  0  0  0  0  0  0
  146.3994   74.2381  219.7676 H   0  0  0  0  0  0  0  0  0  0  0  0
  139.3073   69.6784  222.6920 H   0  0  0  0  0  0  0  0  0  0  0  0
  138.9756   68.4941  224.8580 H   0  0  0  0  0  0  0  0  0  0  0  0
  139.2233   68.3977  227.2217 H   0  0  0  0  0  0  0  0  0  0  0  0
  140.0335   69.4766  229.2882 H   0  0  0  0  0  0  0  0  0  0  0  0
  141.1374   71.6449  229.2854 H   0  0  0  0  0  0  0  0  0  0  0  0
  141.4816   72.8578  227.1362 H   0  0  0  0  0  0  0  0  0  0  0  0
  1  2  2  0
  2  3  1  0
  3  4  1  0
  4  5  1  0
  5  6  2  0
  5  7  1  0
  7  8  1  0
  8  9  1  0
  9 10  1  0
  9 11  1  0
 11 12  1  0
 12 13  1  0
 13 14  1  0
 14 15  1  0
 15 16  1  0
 16 17  1  0
 17 18  1  0
  2 19  1  0
 19 20  2  0
 20 21  1  0
 21 22  2  0
 22 23  1  0
 23 24  2  0
 24 25  1  0
 25 26  2  0
 26 27  1  0
 27 28  2  0
 12  7  1  0
 18 14  1  0
 28 19  1  0
 27 22  1  0
  3 29  1  0
  4 30  1  0
  4 31  1  0
  8 32  1  0
  8 33  1  0
  9 34  1  1
 11 35  1  0
 11 36  1  0
 12 37  1  6
 13 38  1  0
 13 39  1  0
 15 40  1  0
 15 41  1  0
 16 42  1  0
 16 43  1  0
 17 44  1  0
 17 45  1  0
 18 46  1  0
 18 47  1  0
 20 48  1  0
 21 49  1  0
 23 50  1  0
 24 51  1  0
 25 52  1  0
 26 53  1  0
M  END
>  <smiles>  (22) 
O=C(NCC(=O)N1C[C@H](F)C[C@H]1CN1CCCC1)c1ccc2ccccc2n1

>  <score_type>  (22) 
oracle

>  <origin>  (22) 
autodockgpu

>  <m_score__min__energy>  (22) 
-8.3699999999999992

>  <m_primary>  (22) 
energy

>  <rmsd>  (22) 
4.095749091144435

>  <m_score__min__rmsd>  (22) 
4.095749091144435

>  <meeko>  (22) 
{"free_energy": -8.0, "intermolecular_energy": -9.79, "internal_energy": -1.94, "cluster_size": 9, "cluster_id": 4, "rank_in_cluster": 1}

>  <energy>  (22) 
-8.0

>  <cluster_rmsd>  (22) 
0.51

>  <cluster>  (22) 
1

$$$$

     RDKit          3D

 53 56  0  0  0  0  0  0  0  0999 V2000
  140.9760   71.5910  221.4210 O   0  0  0  0  0  0  0  0  0  0  0  0
  140.3610   72.1030  222.3960 C   0  0  0  0  0  0  0  0  0  0  0  0
  139.8110   73.4080  222.2860 N   0  0  0  0  0  0  0  0  0  0  0  0
  139.9830   74.1170  221.0360 C   0  0  0  0  0  0  0  0  0  0  0  0
  140.2910   75.5360  221.3430 C   0  0  0  0  0  0  0  0  0  0  0  0
  140.0330   76.0830  222.4500 O   0  0  0  0  0  0  0  0  0  0  0  0
  140.9060   76.3000  220.3230 N   0  0  0  0  0  0  0  0  0  0  0  0
  140.6790   76.3120  218.8890 C   0  0  0  0  0  0  0  0  0  0  0  0
  142.0650   76.5400  218.2740 C   0  0  2  0  0  0  0  0  0  0  0  0
  142.4670   75.3660  217.6560 F   0  0  0  0  0  0  0  0  0  0  0  0
  142.9360   76.8410  219.4820 C   0  0  0  0  0  0  0  0  0  0  0  0
  141.9720   77.3360  220.5050 C   0  0  1  0  0  0  0  0  0  0  0  0
  141.3900   78.6770  220.3590 C   0  0  0  0  0  0  0  0  0  0  0  0
  141.0880   79.3600  221.5700 N   0  0  0  0  0  0  0  0  0  0  0  0
  141.8610   80.6090  221.6640 C   0  0  0  0  0  0  0  0  0  0  0  0
  141.9730   80.9050  223.1540 C   0  0  0  0  0  0  0  0  0  0  0  0
  142.1840   79.5270  223.7120 C   0  0  0  0  0  0  0  0  0  0  0  0
  141.4470   78.6190  222.7630 C   0  0  0  0  0  0  0  0  0  0  0  0
  140.2080   71.3680  223.6450 C   0  0  0  0  0  0  0  0  0  0  0  0
  139.5950   70.1360  223.6880 C   0  0  0  0  0  0  0  0  0  0  0  0
  139.4810   69.4770  224.9020 C   0  0  0  0  0  0  0  0  0  0  0  0
  139.9730   70.0410  226.0350 C   0  0  0  0  0  0  0  0  0  0  0  0
  139.8550   69.3800  227.2320 C   0  0  0  0  0  0  0  0  0  0  0  0
  140.3700   69.9970  228.3490 C   0  0  0  0  0  0  0  0  0  0  0  0
  140.9800   71.2130  228.3260 C   0  0  0  0  0  0  0  0  0  0  0  0
  141.1030   71.8850  227.1410 C   0  0  0  0  0  0  0  0  0  0  0  0
  140.5870   71.2740  225.9920 C   0  0  0  0  0  0  0  0  0  0  0  0
  140.6740   71.8750  224.8050 N   0  0  0  0  0  0  0  0  0  0  0  0
  139.2960   73.8300  223.1050 H   0  0  0  0  0  0  0  0  0  0  0  0
  140.8120   73.6713  220.4667 H   0  0  0  0  0  0  0  0  0  0  0  0
  139.0651   74.0505  220.4334 H   0  0  0  0  0  0  0  0  0  0  0  0
  140.2604   75.3512  218.5551 H   0  0  0  0  0  0  0  0  0  0  0  0
  139.9594   77.0881  218.5894 H   0  0  0  0  0  0  0  0  0  0  0  0
  142.1058   77.3406  217.5207 H   0  0  0  0  0  0  0  0  0  0  0  0
  143.4463   75.9319  219.8327 H   0  0  0  0  0  0  0  0  0  0  0  0
  143.7307   77.5687  219.2610 H   0  0  0  0  0  0  0  0  0  0  0  0
  142.4674   77.4554  221.4799 H   0  0  0  0  0  0  0  0  0  0  0  0
  142.1036   79.2941  219.7933 H   0  0  0  0  0  0  0  0  0  0  0  0
  140.4246   78.5283  219.8531 H   0  0  0  0  0  0  0  0  0  0  0  0
  142.8596   80.4777  221.2217 H   0  0  0  0  0  0  0  0  0  0  0  0
  141.3757   81.4321  221.1190 H   0  0  0  0  0  0  0  0  0  0  0  0
  142.8277   81.5626  223.3709 H   0  0  0  0  0  0  0  0  0  0  0  0
  141.1051   81.4337  223.5750 H   0  0  0  0  0  0  0  0  0  0  0  0
  143.2550   79.2772  223.7364 H   0  0  0  0  0  0  0  0  0  0  0  0
  141.8211   79.4344  224.7463 H   0  0  0  0  0  0  0  0  0  0  0  0
  142.0933   77.7722  222.4887 H   0  0  0  0  0  0  0  0  0  0  0  0
  140.5357   78.2406  223.2491 H   0  0  0  0  0  0  0  0  0  0  0  0
  139.1998   69.6795  222.7685 H   0  0  0  0  0  0  0  0  0  0  0  0
  138.9902   68.4936  224.9478 H   0  0  0  0  0  0  0  0  0  0  0  0
  139.3679   68.3958  227.2959 H   0  0  0  0  0  0  0  0  0  0  0  0
  140.2836   69.4779  229.3149 H   0  0  0  0  0  0  0  0  0  0  0  0
  141.3719   71.6530  229.2549 H   0  0  0  0  0  0  0  0  0  0  0  0
  141.5899   72.8702  227.0926 H   0  0  0  0  0  0  0  0  0  0  0  0
  1  2  2  0
  2  3  1  0
  3  4  1  0
  4  5  1  0
  5  6  2  0
  5  7  1  0
  7  8  1  0
  8  9  1  0
  9 10  1  0
  9 11  1  0
 11 12  1  0
 12 13  1  0
 13 14  1  0
 14 15  1  0
 15 16  1  0
 16 17  1  0
 17 18  1  0
  2 19  1  0
 19 20  2  0
 20 21  1  0
 21 22  2  0
 22 23  1  0
 23 24  2  0
 24 25  1  0
 25 26  2  0
 26 27  1  0
 27 28  2  0
 12  7  1  0
 18 14  1  0
 28 19  1  0
 27 22  1  0
  3 29  1  0
  4 30  1  0
  4 31  1  0
  8 32  1  0
  8 33  1  0
  9 34  1  6
 11 35  1  0
 11 36  1  0
 12 37  1  1
 13 38  1  0
 13 39  1  0
 15 40  1  0
 15 41  1  0
 16 42  1  0
 16 43  1  0
 17 44  1  0
 17 45  1  0
 18 46  1  0
 18 47  1  0
 20 48  1  0
 21 49  1  0
 23 50  1  0
 24 51  1  0
 25 52  1  0
 26 53  1  0
M  END
>  <smiles>  (23) 
O=C(NCC(=O)N1C[C@H](F)C[C@H]1CN1CCCC1)c1ccc2ccccc2n1

>  <score_type>  (23) 
oracle

>  <origin>  (23) 
autodockgpu

>  <m_score__min__energy>  (23) 
-8.3699999999999992

>  <m_primary>  (23) 
energy

>  <rmsd>  (23) 
2.242665837697514

>  <m_score__min__rmsd>  (23) 
2.242665837697514

>  <meeko>  (23) 
{"free_energy": -8.37, "intermolecular_energy": -10.16, "internal_energy": -1.63, "cluster_size": 29, "cluster_id": 1, "rank_in_cluster": 1}

>  <energy>  (23) 
-7.97

>  <cluster_rmsd>  (23) 
0.51

>  <cluster>  (23) 
1

$$$$

     RDKit          3D

 53 56  0  0  0  0  0  0  0  0999 V2000
  140.8220   71.6010  221.3620 O   0  0  0  0  0  0  0  0  0  0  0  0
  140.3050   72.1210  222.3890 C   0  0  0  0  0  0  0  0  0  0  0  0
  139.8220   73.4550  222.3440 N   0  0  0  0  0  0  0  0  0  0  0  0
  139.9460   74.1850  221.1010 C   0  0  0  0  0  0  0  0  0  0  0  0
  139.9990   75.6340  221.4130 C   0  0  0  0  0  0  0  0  0  0  0  0
  139.4910   76.1450  222.4480 O   0  0  0  0  0  0  0  0  0  0  0  0
  140.6590   76.4720  220.4840 N   0  0  0  0  0  0  0  0  0  0  0  0
  140.4010   76.7030  219.0730 C   0  0  0  0  0  0  0  0  0  0  0  0
  141.7870   76.8860  218.4450 C   0  0  2  0  0  0  0  0  0  0  0  0
  142.0610   75.7770  217.6600 F   0  0  0  0  0  0  0  0  0  0  0  0
  142.7110   76.9380  219.6490 C   0  0  0  0  0  0  0  0  0  0  0  0
  141.8230   77.3730  220.7640 C   0  0  1  0  0  0  0  0  0  0  0  0
  141.3670   78.7690  220.8220 C   0  0  0  0  0  0  0  0  0  0  0  0
  142.1730   79.6550  221.5890 N   0  0  0  0  0  0  0  0  0  0  0  0
  142.2450   79.2050  222.9890 C   0  0  0  0  0  0  0  0  0  0  0  0
  142.5400   80.4570  223.8030 C   0  0  0  0  0  0  0  0  0  0  0  0
  141.6880   81.4740  223.0970 C   0  0  0  0  0  0  0  0  0  0  0  0
  141.6480   81.0030  221.6670 C   0  0  0  0  0  0  0  0  0  0  0  0
  140.1990   71.3640  223.6300 C   0  0  0  0  0  0  0  0  0  0  0  0
  139.6480   70.1030  223.6630 C   0  0  0  0  0  0  0  0  0  0  0  0
  139.5770   69.4240  224.8690 C   0  0  0  0  0  0  0  0  0  0  0  0
  140.0480   70.0000  226.0050 C   0  0  0  0  0  0  0  0  0  0  0  0
  139.9730   69.3200  227.1950 C   0  0  0  0  0  0  0  0  0  0  0  0
  140.4640   69.9490  228.3160 C   0  0  0  0  0  0  0  0  0  0  0  0
  141.0120   71.1940  228.3030 C   0  0  0  0  0  0  0  0  0  0  0  0
  141.0930   71.8850  227.1260 C   0  0  0  0  0  0  0  0  0  0  0  0
  140.5990   71.2630  225.9720 C   0  0  0  0  0  0  0  0  0  0  0  0
  140.6470   71.8800  224.7930 N   0  0  0  0  0  0  0  0  0  0  0  0
  139.3890   73.8840  223.2060 H   0  0  0  0  0  0  0  0  0  0  0  0
  140.8679   73.8825  220.5828 H   0  0  0  0  0  0  0  0  0  0  0  0
  139.0868   73.9698  220.4487 H   0  0  0  0  0  0  0  0  0  0  0  0
  139.8848   75.8399  218.6273 H   0  0  0  0  0  0  0  0  0  0  0  0
  139.7523   77.5758  218.9075 H   0  0  0  0  0  0  0  0  0  0  0  0
  141.8857   77.7756  217.8056 H   0  0  0  0  0  0  0  0  0  0  0  0
  143.1412   75.9468  219.8552 H   0  0  0  0  0  0  0  0  0  0  0  0
  143.5656   77.6141  219.4989 H   0  0  0  0  0  0  0  0  0  0  0  0
  142.3512   77.3121  221.7270 H   0  0  0  0  0  0  0  0  0  0  0  0
  141.3290   79.1541  219.7923 H   0  0  0  0  0  0  0  0  0  0  0  0
  140.3905   78.7421  221.3277 H   0  0  0  0  0  0  0  0  0  0  0  0
  141.2879   78.7608  223.2999 H   0  0  0  0  0  0  0  0  0  0  0  0
  143.0168   78.4342  223.1311 H   0  0  0  0  0  0  0  0  0  0  0  0
  142.2356   80.3357  224.8531 H   0  0  0  0  0  0  0  0  0  0  0  0
  143.6068   80.7203  223.8543 H   0  0  0  0  0  0  0  0  0  0  0  0
  140.6757   81.4992  223.5268 H   0  0  0  0  0  0  0  0  0  0  0  0
  142.0889   82.4940  223.1909 H   0  0  0  0  0  0  0  0  0  0  0  0
  140.6089   81.0135  221.3062 H   0  0  0  0  0  0  0  0  0  0  0  0
  142.2590   81.6717  221.0429 H   0  0  0  0  0  0  0  0  0  0  0  0
  139.2677   69.6388  222.7411 H   0  0  0  0  0  0  0  0  0  0  0  0
  139.1381   68.4161  224.9062 H   0  0  0  0  0  0  0  0  0  0  0  0
  139.5373   68.3115  227.2503 H   0  0  0  0  0  0  0  0  0  0  0  0
  140.4104   69.4153  229.2763 H   0  0  0  0  0  0  0  0  0  0  0  0
  141.3879   71.6424  229.2344 H   0  0  0  0  0  0  0  0  0  0  0  0
  141.5305   72.8935  227.0866 H   0  0  0  0  0  0  0  0  0  0  0  0
  1  2  2  0
  2  3  1  0
  3  4  1  0
  4  5  1  0
  5  6  2  0
  5  7  1  0
  7  8  1  0
  8  9  1  0
  9 10  1  0
  9 11  1  0
 11 12  1  0
 12 13  1  0
 13 14  1  0
 14 15  1  0
 15 16  1  0
 16 17  1  0
 17 18  1  0
  2 19  1  0
 19 20  2  0
 20 21  1  0
 21 22  2  0
 22 23  1  0
 23 24  2  0
 24 25  1  0
 25 26  2  0
 26 27  1  0
 27 28  2  0
 12  7  1  0
 18 14  1  0
 28 19  1  0
 27 22  1  0
  3 29  1  0
  4 30  1  0
  4 31  1  0
  8 32  1  0
  8 33  1  0
  9 34  1  6
 11 35  1  0
 11 36  1  0
 12 37  1  1
 13 38  1  0
 13 39  1  0
 15 40  1  0
 15 41  1  0
 16 42  1  0
 16 43  1  0
 17 44  1  0
 17 45  1  0
 18 46  1  0
 18 47  1  0
 20 48  1  0
 21 49  1  0
 23 50  1  0
 24 51  1  0
 25 52  1  0
 26 53  1  0
M  END
>  <smiles>  (24) 
O=C(NCC(=O)N1C[C@H](F)C[C@H]1CN1CCCC1)c1ccc2ccccc2n1

>  <score_type>  (24) 
oracle

>  <origin>  (24) 
autodockgpu

>  <m_score__min__energy>  (24) 
-8.3699999999999992

>  <m_primary>  (24) 
energy

>  <rmsd>  (24) 
1.898744434875754

>  <m_score__min__rmsd>  (24) 
1.898744434875754

>  <meeko>  (24) 
{"free_energy": -8.27, "intermolecular_energy": -10.06, "internal_energy": -1.63, "cluster_size": 29, "cluster_id": 1, "rank_in_cluster": 10}

>  <energy>  (24) 
-7.96

>  <cluster_rmsd>  (24) 
1.01

>  <cluster>  (24) 
1

$$$$

     RDKit          3D

 53 56  0  0  0  0  0  0  0  0999 V2000
  140.9700   71.7020  221.3750 O   0  0  0  0  0  0  0  0  0  0  0  0
  140.3540   72.1900  222.3610 C   0  0  0  0  0  0  0  0  0  0  0  0
  139.7810   73.4860  222.2710 N   0  0  0  0  0  0  0  0  0  0  0  0
  139.9320   74.2140  221.0290 C   0  0  0  0  0  0  0  0  0  0  0  0
  140.7230   75.4390  221.2990 C   0  0  0  0  0  0  0  0  0  0  0  0
  141.1250   75.7720  222.4470 O   0  0  0  0  0  0  0  0  0  0  0  0
  141.0330   76.2670  220.1940 N   0  0  0  0  0  0  0  0  0  0  0  0
  140.6070   76.1850  218.8080 C   0  0  0  0  0  0  0  0  0  0  0  0
  141.8240   76.6440  217.9960 C   0  0  2  0  0  0  0  0  0  0  0  0
  142.3490   75.5440  217.3370 F   0  0  0  0  0  0  0  0  0  0  0  0
  142.7840   77.1450  219.0610 C   0  0  0  0  0  0  0  0  0  0  0  0
  141.8980   77.4900  220.2090 C   0  0  1  0  0  0  0  0  0  0  0  0
  141.0570   78.6930  220.1370 C   0  0  0  0  0  0  0  0  0  0  0  0
  140.9500   79.4490  221.3380 N   0  0  0  0  0  0  0  0  0  0  0  0
  142.1970   80.1890  221.5940 C   0  0  0  0  0  0  0  0  0  0  0  0
  142.2330   80.4130  223.0990 C   0  0  0  0  0  0  0  0  0  0  0  0
  141.6970   79.1030  223.6040 C   0  0  0  0  0  0  0  0  0  0  0  0
  140.7570   78.6400  222.5230 C   0  0  0  0  0  0  0  0  0  0  0  0
  140.2230   71.4370  223.6010 C   0  0  0  0  0  0  0  0  0  0  0  0
  139.6310   70.1940  223.6330 C   0  0  0  0  0  0  0  0  0  0  0  0
  139.5380   69.5170  224.8390 C   0  0  0  0  0  0  0  0  0  0  0  0
  140.0280   70.0760  225.9750 C   0  0  0  0  0  0  0  0  0  0  0  0
  139.9300   69.3980  227.1650 C   0  0  0  0  0  0  0  0  0  0  0  0
  140.4420   70.0100  228.2860 C   0  0  0  0  0  0  0  0  0  0  0  0
  141.0300   71.2360  228.2750 C   0  0  0  0  0  0  0  0  0  0  0  0
  141.1340   71.9260  227.0980 C   0  0  0  0  0  0  0  0  0  0  0  0
  140.6200   71.3200  225.9440 C   0  0  0  0  0  0  0  0  0  0  0  0
  140.6880   71.9370  224.7640 N   0  0  0  0  0  0  0  0  0  0  0  0
  139.2650   73.8890  223.0990 H   0  0  0  0  0  0  0  0  0  0  0  0
  140.4565   73.5877  220.2924 H   0  0  0  0  0  0  0  0  0  0  0  0
  138.9446   74.4824  220.6252 H   0  0  0  0  0  0  0  0  0  0  0  0
  140.3344   75.1518  218.5470 H   0  0  0  0  0  0  0  0  0  0  0  0
  139.7187   76.8026  218.6096 H   0  0  0  0  0  0  0  0  0  0  0  0
  141.6059   77.4105  217.2378 H   0  0  0  0  0  0  0  0  0  0  0  0
  143.5010   76.3596  219.3423 H   0  0  0  0  0  0  0  0  0  0  0  0
  143.3879   77.9988  218.7198 H   0  0  0  0  0  0  0  0  0  0  0  0
  142.4945   77.7363  221.0998 H   0  0  0  0  0  0  0  0  0  0  0  0
  141.4752   79.3507  219.3608 H   0  0  0  0  0  0  0  0  0  0  0  0
  140.0404   78.3332  219.9200 H   0  0  0  0  0  0  0  0  0  0  0  0
  143.0676   79.5989  221.2719 H   0  0  0  0  0  0  0  0  0  0  0  0
  142.2308   81.1378  221.0385 H   0  0  0  0  0  0  0  0  0  0  0  0
  143.2581   80.5929  223.4550 H   0  0  0  0  0  0  0  0  0  0  0  0
  141.6658   81.2926  223.4374 H   0  0  0  0  0  0  0  0  0  0  0  0
  142.5121   78.3784  223.7473 H   0  0  0  0  0  0  0  0  0  0  0  0
  141.1975   79.2028  224.5789 H   0  0  0  0  0  0  0  0  0  0  0  0
  140.9624   77.5859  222.2850 H   0  0  0  0  0  0  0  0  0  0  0  0
  139.7186   78.7411  222.8714 H   0  0  0  0  0  0  0  0  0  0  0  0
  139.2359   69.7429  222.7108 H   0  0  0  0  0  0  0  0  0  0  0  0
  139.0659   68.5241  224.8757 H   0  0  0  0  0  0  0  0  0  0  0  0
  139.4606   68.4047  227.2200 H   0  0  0  0  0  0  0  0  0  0  0  0
  140.3716   69.4771  229.2457 H   0  0  0  0  0  0  0  0  0  0  0  0
  141.4199   71.6707  229.2072 H   0  0  0  0  0  0  0  0  0  0  0  0
  141.6038   72.9199  227.0592 H   0  0  0  0  0  0  0  0  0  0  0  0
  1  2  2  0
  2  3  1  0
  3  4  1  0
  4  5  1  0
  5  6  2  0
  5  7  1  0
  7  8  1  0
  8  9  1  0
  9 10  1  0
  9 11  1  0
 11 12  1  0
 12 13  1  0
 13 14  1  0
 14 15  1  0
 15 16  1  0
 16 17  1  0
 17 18  1  0
  2 19  1  0
 19 20  2  0
 20 21  1  0
 21 22  2  0
 22 23  1  0
 23 24  2  0
 24 25  1  0
 25 26  2  0
 26 27  1  0
 27 28  2  0
 12  7  1  0
 18 14  1  0
 28 19  1  0
 27 22  1  0
  3 29  1  0
  4 30  1  0
  4 31  1  0
  8 32  1  0
  8 33  1  0
  9 34  1  6
 11 35  1  0
 11 36  1  0
 12 37  1  1
 13 38  1  0
 13 39  1  0
 15 40  1  0
 15 41  1  0
 16 42  1  0
 16 43  1  0
 17 44  1  0
 17 45  1  0
 18 46  1  0
 18 47  1  0
 20 48  1  0
 21 49  1  0
 23 50  1  0
 24 51  1  0
 25 52  1  0
 26 53  1  0
M  END
>  <smiles>  (25) 
O=C(NCC(=O)N1C[C@H](F)C[C@H]1CN1CCCC1)c1ccc2ccccc2n1

>  <score_type>  (25) 
oracle

>  <origin>  (25) 
autodockgpu

>  <m_score__min__energy>  (25) 
-8.3699999999999992

>  <m_primary>  (25) 
energy

>  <rmsd>  (25) 
2.1630351278310957

>  <m_score__min__rmsd>  (25) 
2.1630351278310957

>  <meeko>  (25) 
{"free_energy": -8.07, "intermolecular_energy": -9.86, "internal_energy": -1.53, "cluster_size": 29, "cluster_id": 1, "rank_in_cluster": 19}

>  <energy>  (25) 
-7.84

>  <cluster_rmsd>  (25) 
0.87

>  <cluster>  (25) 
1

$$$$

     RDKit          3D

 53 56  0  0  0  0  0  0  0  0999 V2000
  138.3120   70.7680  221.7550 O   0  0  0  0  0  0  0  0  0  0  0  0
  138.9020   71.4140  222.6630 C   0  0  0  0  0  0  0  0  0  0  0  0
  139.1430   72.8050  222.5070 N   0  0  0  0  0  0  0  0  0  0  0  0
  138.6970   73.4410  221.2860 C   0  0  0  0  0  0  0  0  0  0  0  0
  139.6420   74.5370  220.9590 C   0  0  0  0  0  0  0  0  0  0  0  0
  140.6250   74.4020  220.1800 O   0  0  0  0  0  0  0  0  0  0  0  0
  139.4120   75.7940  221.5660 N   0  0  0  0  0  0  0  0  0  0  0  0
  138.5580   76.1580  222.6830 C   0  0  0  0  0  0  0  0  0  0  0  0
  138.0140   77.5460  222.3250 C   0  0  2  0  0  0  0  0  0  0  0  0
  136.6650   77.4240  222.0320 F   0  0  0  0  0  0  0  0  0  0  0  0
  138.8050   77.9200  221.0840 C   0  0  0  0  0  0  0  0  0  0  0  0
  140.0440   77.0980  221.1860 C   0  0  1  0  0  0  0  0  0  0  0  0
  141.0700   77.4570  222.1750 C   0  0  0  0  0  0  0  0  0  0  0  0
  141.0550   78.8070  222.6240 N   0  0  0  0  0  0  0  0  0  0  0  0
  141.8010   79.6690  221.6920 C   0  0  0  0  0  0  0  0  0  0  0  0
  142.2610   80.8600  222.5220 C   0  0  0  0  0  0  0  0  0  0  0  0
  142.6280   80.1910  223.8170 C   0  0  0  0  0  0  0  0  0  0  0  0
  141.7050   79.0050  223.9030 C   0  0  0  0  0  0  0  0  0  0  0  0
  139.3450   70.7460  223.8810 C   0  0  0  0  0  0  0  0  0  0  0  0
  139.2530   69.3810  224.0300 C   0  0  0  0  0  0  0  0  0  0  0  0
  139.6950   68.7950  225.2060 C   0  0  0  0  0  0  0  0  0  0  0  0
  140.2150   69.5630  226.1980 C   0  0  0  0  0  0  0  0  0  0  0  0
  140.6490   68.9730  227.3590 C   0  0  0  0  0  0  0  0  0  0  0  0
  141.1660   69.7970  228.3320 C   0  0  0  0  0  0  0  0  0  0  0  0
  141.2660   71.1480  228.2030 C   0  0  0  0  0  0  0  0  0  0  0  0
  140.8360   71.7510  227.0530 C   0  0  0  0  0  0  0  0  0  0  0  0
  140.3060   70.9300  226.0490 C   0  0  0  0  0  0  0  0  0  0  0  0
  139.8690   71.4520  224.9030 N   0  0  0  0  0  0  0  0  0  0  0  0
  139.6350   73.3400  223.2720 H   0  0  0  0  0  0  0  0  0  0  0  0
  138.6825   72.7060  220.4677 H   0  0  0  0  0  0  0  0  0  0  0  0
  137.6816   73.8430  221.4174 H   0  0  0  0  0  0  0  0  0  0  0  0
  137.7354   75.4361  222.7930 H   0  0  0  0  0  0  0  0  0  0  0  0
  139.1029   76.1597  223.6386 H   0  0  0  0  0  0  0  0  0  0  0  0
  138.1121   78.2961  223.1235 H   0  0  0  0  0  0  0  0  0  0  0  0
  138.2434   77.6695  220.1719 H   0  0  0  0  0  0  0  0  0  0  0  0
  139.0154   78.9981  221.0245 H   0  0  0  0  0  0  0  0  0  0  0  0
  140.6398   77.1781  220.2648 H   0  0  0  0  0  0  0  0  0  0  0  0
  140.9335   76.8083  223.0528 H   0  0  0  0  0  0  0  0  0  0  0  0
  142.0352   77.3239  221.6643 H   0  0  0  0  0  0  0  0  0  0  0  0
  142.6667   79.1305  221.2790 H   0  0  0  0  0  0  0  0  0  0  0  0
  141.1813   79.9806  220.8382 H   0  0  0  0  0  0  0  0  0  0  0  0
  143.1292   81.3579  222.0656 H   0  0  0  0  0  0  0  0  0  0  0  0
  141.5090   81.6564  222.6232 H   0  0  0  0  0  0  0  0  0  0  0  0
  143.6787   79.8658  223.8026 H   0  0  0  0  0  0  0  0  0  0  0  0
  142.5247   80.8650  224.6801 H   0  0  0  0  0  0  0  0  0  0  0  0
  142.2847   78.1070  224.1629 H   0  0  0  0  0  0  0  0  0  0  0  0
  140.9448   79.1866  224.6770 H   0  0  0  0  0  0  0  0  0  0  0  0
  138.8330   68.7612  223.2241 H   0  0  0  0  0  0  0  0  0  0  0  0
  139.6244   67.7050  225.3360 H   0  0  0  0  0  0  0  0  0  0  0  0
  140.5859   67.8846  227.5056 H   0  0  0  0  0  0  0  0  0  0  0  0
  141.5185   69.3377  229.2673 H   0  0  0  0  0  0  0  0  0  0  0  0
  141.6902   71.7517  229.0189 H   0  0  0  0  0  0  0  0  0  0  0  0
  140.9038   72.8410  226.9212 H   0  0  0  0  0  0  0  0  0  0  0  0
  1  2  2  0
  2  3  1  0
  3  4  1  0
  4  5  1  0
  5  6  2  0
  5  7  1  0
  7  8  1  0
  8  9  1  0
  9 10  1  0
  9 11  1  0
 11 12  1  0
 12 13  1  0
 13 14  1  0
 14 15  1  0
 15 16  1  0
 16 17  1  0
 17 18  1  0
  2 19  1  0
 19 20  2  0
 20 21  1  0
 21 22  2  0
 22 23  1  0
 23 24  2  0
 24 25  1  0
 25 26  2  0
 26 27  1  0
 27 28  2  0
 12  7  1  0
 18 14  1  0
 28 19  1  0
 27 22  1  0
  3 29  1  0
  4 30  1  0
  4 31  1  0
  8 32  1  0
  8 33  1  0
  9 34  1  1
 11 35  1  0
 11 36  1  0
 12 37  1  6
 13 38  1  0
 13 39  1  0
 15 40  1  0
 15 41  1  0
 16 42  1  0
 16 43  1  0
 17 44  1  0
 17 45  1  0
 18 46  1  0
 18 47  1  0
 20 48  1  0
 21 49  1  0
 23 50  1  0
 24 51  1  0
 25 52  1  0
 26 53  1  0
M  END
>  <smiles>  (26) 
O=C(NCC(=O)N1C[C@H](F)C[C@H]1CN1CCCC1)c1ccc2ccccc2n1

>  <score_type>  (26) 
oracle

>  <origin>  (26) 
autodockgpu

>  <m_score__min__energy>  (26) 
-8.3699999999999992

>  <m_primary>  (26) 
energy

>  <rmsd>  (26) 
2.8088856785143035

>  <m_score__min__rmsd>  (26) 
2.8088856785143035

>  <meeko>  (26) 
{"free_energy": -7.65, "intermolecular_energy": -9.44, "internal_energy": -1.52, "cluster_size": 2, "cluster_id": 3, "rank_in_cluster": 2}

>  <energy>  (26) 
-7.76

>  <cluster_rmsd>  (26) 
0.95

>  <cluster>  (26) 
1

$$$$

     RDKit          3D

 53 56  0  0  0  0  0  0  0  0999 V2000
  141.1490   72.6410  221.9760 O   0  0  0  0  0  0  0  0  0  0  0  0
  140.0870   72.5660  222.6510 C   0  0  0  0  0  0  0  0  0  0  0  0
  138.9910   73.4180  222.3520 N   0  0  0  0  0  0  0  0  0  0  0  0
  139.1390   74.3630  221.2660 C   0  0  0  0  0  0  0  0  0  0  0  0
  139.9830   75.4880  221.7370 C   0  0  0  0  0  0  0  0  0  0  0  0
  141.0970   75.3340  222.3090 O   0  0  0  0  0  0  0  0  0  0  0  0
  139.4930   76.7980  221.5250 N   0  0  0  0  0  0  0  0  0  0  0  0
  138.1900   77.2550  221.0750 C   0  0  0  0  0  0  0  0  0  0  0  0
  138.4820   78.4860  220.2090 C   0  0  2  0  0  0  0  0  0  0  0  0
  138.2260   78.1600  218.8870 F   0  0  0  0  0  0  0  0  0  0  0  0
  139.9660   78.7210  220.4300 C   0  0  0  0  0  0  0  0  0  0  0  0
  140.2400   78.0780  221.7460 C   0  0  1  0  0  0  0  0  0  0  0  0
  139.7660   78.7230  222.9780 C   0  0  0  0  0  0  0  0  0  0  0  0
  140.7550   79.3940  223.7490 N   0  0  0  0  0  0  0  0  0  0  0  0
  140.7310   80.8400  223.4720 C   0  0  0  0  0  0  0  0  0  0  0  0
  142.1310   81.3390  223.7980 C   0  0  0  0  0  0  0  0  0  0  0  0
  142.9740   80.2110  223.2750 C   0  0  0  0  0  0  0  0  0  0  0  0
  142.1120   78.9880  223.4410 C   0  0  0  0  0  0  0  0  0  0  0  0
  139.9680   71.6090  223.7440 C   0  0  0  0  0  0  0  0  0  0  0  0
  139.3150   70.4070  223.5850 C   0  0  0  0  0  0  0  0  0  0  0  0
  139.2370   69.5300  224.6560 C   0  0  0  0  0  0  0  0  0  0  0  0
  139.8010   69.8550  225.8470 C   0  0  0  0  0  0  0  0  0  0  0  0
  139.7180   68.9800  226.9020 C   0  0  0  0  0  0  0  0  0  0  0  0
  140.3060   69.3590  228.0870 C   0  0  0  0  0  0  0  0  0  0  0  0
  140.9560   70.5400  228.2630 C   0  0  0  0  0  0  0  0  0  0  0  0
  141.0470   71.4240  227.2220 C   0  0  0  0  0  0  0  0  0  0  0  0
  140.4550   71.0580  226.0070 C   0  0  0  0  0  0  0  0  0  0  0  0
  140.5060   71.8720  224.9530 N   0  0  0  0  0  0  0  0  0  0  0  0
  138.1040   73.3500  222.9200 H   0  0  0  0  0  0  0  0  0  0  0  0
  139.6206   73.8709  220.4082 H   0  0  0  0  0  0  0  0  0  0  0  0
  138.1529   74.7357  220.9519 H   0  0  0  0  0  0  0  0  0  0  0  0
  137.6894   76.4749  220.4827 H   0  0  0  0  0  0  0  0  0  0  0  0
  137.5200   77.4890  221.9154 H   0  0  0  0  0  0  0  0  0  0  0  0
  137.8781   79.3723  220.4536 H   0  0  0  0  0  0  0  0  0  0  0  0
  140.5596   78.2493  219.6331 H   0  0  0  0  0  0  0  0  0  0  0  0
  140.2326   79.7881  220.4162 H   0  0  0  0  0  0  0  0  0  0  0  0
  141.3203   78.0605  221.9525 H   0  0  0  0  0  0  0  0  0  0  0  0
  138.9991   79.4604  222.6986 H   0  0  0  0  0  0  0  0  0  0  0  0
  139.3941   77.9079  223.6161 H   0  0  0  0  0  0  0  0  0  0  0  0
  140.4935   81.0250  222.4140 H   0  0  0  0  0  0  0  0  0  0  0  0
  139.9642   81.3572  224.0674 H   0  0  0  0  0  0  0  0  0  0  0  0
  142.3535   82.2826  223.2783 H   0  0  0  0  0  0  0  0  0  0  0  0
  142.2921   81.5663  224.8621 H   0  0  0  0  0  0  0  0  0  0  0  0
  143.2228   80.3704  222.2154 H   0  0  0  0  0  0  0  0  0  0  0  0
  143.9322   80.1229  223.8080 H   0  0  0  0  0  0  0  0  0  0  0  0
  142.1180   78.4053  222.5080 H   0  0  0  0  0  0  0  0  0  0  0  0
  142.5057   78.3694  224.2610 H   0  0  0  0  0  0  0  0  0  0  0  0
  138.8600   70.1454  222.6183 H   0  0  0  0  0  0  0  0  0  0  0  0
  138.7165   68.5679  224.5401 H   0  0  0  0  0  0  0  0  0  0  0  0
  139.2016   68.0137  226.8037 H   0  0  0  0  0  0  0  0  0  0  0  0
  140.2467   68.6672  228.9402 H   0  0  0  0  0  0  0  0  0  0  0  0
  141.4063   70.7838  229.2366 H   0  0  0  0  0  0  0  0  0  0  0  0
  141.5663   72.3870  227.3357 H   0  0  0  0  0  0  0  0  0  0  0  0
  1  2  2  0
  2  3  1  0
  3  4  1  0
  4  5  1  0
  5  6  2  0
  5  7  1  0
  7  8  1  0
  8  9  1  0
  9 10  1  0
  9 11  1  0
 11 12  1  0
 12 13  1  0
 13 14  1  0
 14 15  1  0
 15 16  1  0
 16 17  1  0
 17 18  1  0
  2 19  1  0
 19 20  2  0
 20 21  1  0
 21 22  2  0
 22 23  1  0
 23 24  2  0
 24 25  1  0
 25 26  2  0
 26 27  1  0
 27 28  2  0
 12  7  1  0
 18 14  1  0
 28 19  1  0
 27 22  1  0
  3 29  1  0
  4 30  1  0
  4 31  1  0
  8 32  1  0
  8 33  1  0
  9 34  1  1
 11 35  1  0
 11 36  1  0
 12 37  1  1
 13 38  1  0
 13 39  1  0
 15 40  1  0
 15 41  1  0
 16 42  1  0
 16 43  1  0
 17 44  1  0
 17 45  1  0
 18 46  1  0
 18 47  1  0
 20 48  1  0
 21 49  1  0
 23 50  1  0
 24 51  1  0
 25 52  1  0
 26 53  1  0
M  END
>  <smiles>  (27) 
O=C(NCC(=O)N1C[C@H](F)C[C@H]1CN1CCCC1)c1ccc2ccccc2n1

>  <score_type>  (27) 
oracle

>  <origin>  (27) 
autodockgpu

>  <m_score__min__energy>  (27) 
-8.3699999999999992

>  <m_primary>  (27) 
energy

>  <rmsd>  (27) 
2.494337327996896

>  <m_score__min__rmsd>  (27) 
2.494337327996896

>  <meeko>  (27) 
{"free_energy": -8.29, "intermolecular_energy": -10.08, "internal_energy": -1.25, "cluster_size": 29, "cluster_id": 1, "rank_in_cluster": 8}

>  <energy>  (27) 
-7.7

>  <cluster_rmsd>  (27) 
1.44

>  <cluster>  (27) 
1

$$$$

     RDKit          3D

 53 56  0  0  0  0  0  0  0  0999 V2000
  138.8170   71.1440  221.4140 O   0  0  0  0  0  0  0  0  0  0  0  0
  139.1730   71.5960  222.5370 C   0  0  0  0  0  0  0  0  0  0  0  0
  139.3840   72.9900  222.7090 N   0  0  0  0  0  0  0  0  0  0  0  0
  139.1820   73.8560  221.5670 C   0  0  0  0  0  0  0  0  0  0  0  0
  140.2480   74.8880  221.5700 C   0  0  0  0  0  0  0  0  0  0  0  0
  141.4320   74.6690  221.9460 O   0  0  0  0  0  0  0  0  0  0  0  0
  139.8950   76.1840  221.1250 N   0  0  0  0  0  0  0  0  0  0  0  0
  138.8300   76.6180  220.2390 C   0  0  0  0  0  0  0  0  0  0  0  0
  139.4300   77.7840  219.4450 C   0  0  2  0  0  0  0  0  0  0  0  0
  139.6180   77.3700  218.1360 F   0  0  0  0  0  0  0  0  0  0  0  0
  140.7630   78.0240  220.1330 C   0  0  0  0  0  0  0  0  0  0  0  0
  140.5650   77.4700  221.5020 C   0  0  1  0  0  0  0  0  0  0  0  0
  139.7270   78.2020  222.4630 C   0  0  0  0  0  0  0  0  0  0  0  0
  140.4180   79.0630  223.3610 N   0  0  0  0  0  0  0  0  0  0  0  0
  140.4110   80.4460  222.8560 C   0  0  0  0  0  0  0  0  0  0  0  0
  141.6320   81.1090  223.4780 C   0  0  0  0  0  0  0  0  0  0  0  0
  142.6400   79.9980  223.4040 C   0  0  0  0  0  0  0  0  0  0  0  0
  141.8210   78.7390  223.5170 C   0  0  0  0  0  0  0  0  0  0  0  0
  139.3740   70.6990  223.6680 C   0  0  0  0  0  0  0  0  0  0  0  0
  138.9850   69.3800  223.6220 C   0  0  0  0  0  0  0  0  0  0  0  0
  139.2060   68.5680  224.7240 C   0  0  0  0  0  0  0  0  0  0  0  0
  139.8020   69.0720  225.8350 C   0  0  0  0  0  0  0  0  0  0  0  0
  140.0160   68.2600  226.9210 C   0  0  0  0  0  0  0  0  0  0  0  0
  140.6230   68.8220  228.0210 C   0  0  0  0  0  0  0  0  0  0  0  0
  141.0150   70.1230  228.0850 C   0  0  0  0  0  0  0  0  0  0  0  0
  140.8070   70.9450  227.0110 C   0  0  0  0  0  0  0  0  0  0  0  0
  140.1910   70.3930  225.8810 C   0  0  0  0  0  0  0  0  0  0  0  0
  139.9590   71.1390  224.8010 N   0  0  0  0  0  0  0  0  0  0  0  0
  139.6800   73.3620  223.6510 H   0  0  0  0  0  0  0  0  0  0  0  0
  139.2370   73.2672  220.6395 H   0  0  0  0  0  0  0  0  0  0  0  0
  138.1926   74.3333  221.6239 H   0  0  0  0  0  0  0  0  0  0  0  0
  138.5316   75.8026  219.5637 H   0  0  0  0  0  0  0  0  0  0  0  0
  137.9260   76.9141  220.7913 H   0  0  0  0  0  0  0  0  0  0  0  0
  138.8056   78.6892  219.4187 H   0  0  0  0  0  0  0  0  0  0  0  0
  141.5738   77.4954  219.6104 H   0  0  0  0  0  0  0  0  0  0  0  0
  141.0501   79.0858  220.1426 H   0  0  0  0  0  0  0  0  0  0  0  0
  141.5147   77.4578  222.0570 H   0  0  0  0  0  0  0  0  0  0  0  0
  139.0141   78.8139  221.8908 H   0  0  0  0  0  0  0  0  0  0  0  0
  139.2547   77.4331  223.0921 H   0  0  0  0  0  0  0  0  0  0  0  0
  140.4850   80.4555  221.7585 H   0  0  0  0  0  0  0  0  0  0  0  0
  139.4814   80.9726  223.1177 H   0  0  0  0  0  0  0  0  0  0  0  0
  141.9548   81.9850  222.8962 H   0  0  0  0  0  0  0  0  0  0  0  0
  141.4649   81.4987  224.4930 H   0  0  0  0  0  0  0  0  0  0  0  0
  143.1802   80.0260  222.4462 H   0  0  0  0  0  0  0  0  0  0  0  0
  143.4040   80.0726  224.1919 H   0  0  0  0  0  0  0  0  0  0  0  0
  142.1242   78.0320  222.7307 H   0  0  0  0  0  0  0  0  0  0  0  0
  141.9851   78.2808  224.5035 H   0  0  0  0  0  0  0  0  0  0  0  0
  138.5036   68.9738  222.7202 H   0  0  0  0  0  0  0  0  0  0  0  0
  138.8976   67.5124  224.6981 H   0  0  0  0  0  0  0  0  0  0  0  0
  139.7143   67.2022  226.9124 H   0  0  0  0  0  0  0  0  0  0  0  0
  140.8013   68.1828  228.8983 H   0  0  0  0  0  0  0  0  0  0  0  0
  141.4962   70.5119  228.9945 H   0  0  0  0  0  0  0  0  0  0  0  0
  141.1127   72.0014  227.0344 H   0  0  0  0  0  0  0  0  0  0  0  0
  1  2  2  0
  2  3  1  0
  3  4  1  0
  4  5  1  0
  5  6  2  0
  5  7  1  0
  7  8  1  0
  8  9  1  0
  9 10  1  0
  9 11  1  0
 11 12  1  0
 12 13  1  0
 13 14  1  0
 14 15  1  0
 15 16  1  0
 16 17  1  0
 17 18  1  0
  2 19  1  0
 19 20  2  0
 20 21  1  0
 21 22  2  0
 22 23  1  0
 23 24  2  0
 24 25  1  0
 25 26  2  0
 26 27  1  0
 27 28  2  0
 12  7  1  0
 18 14  1  0
 28 19  1  0
 27 22  1  0
  3 29  1  0
  4 30  1  0
  4 31  1  0
  8 32  1  0
  8 33  1  0
  9 34  1  6
 11 35  1  0
 11 36  1  0
 12 37  1  1
 13 38  1  0
 13 39  1  0
 15 40  1  0
 15 41  1  0
 16 42  1  0
 16 43  1  0
 17 44  1  0
 17 45  1  0
 18 46  1  0
 18 47  1  0
 20 48  1  0
 21 49  1  0
 23 50  1  0
 24 51  1  0
 25 52  1  0
 26 53  1  0
M  END
>  <smiles>  (28) 
O=C(NCC(=O)N1C[C@H](F)C[C@H]1CN1CCCC1)c1ccc2ccccc2n1

>  <score_type>  (28) 
oracle

>  <origin>  (28) 
autodockgpu

>  <m_score__min__energy>  (28) 
-8.3699999999999992

>  <m_primary>  (28) 
energy

>  <rmsd>  (28) 
2.0688881127024255

>  <m_score__min__rmsd>  (28) 
2.0688881127024255

>  <meeko>  (28) 
{"free_energy": -7.7, "intermolecular_energy": -9.48, "internal_energy": -1.61, "cluster_size": 29, "cluster_id": 1, "rank_in_cluster": 27}

>  <energy>  (28) 
-7.62

>  <cluster_rmsd>  (28) 
1.13

>  <cluster>  (28) 
1

$$$$

     RDKit          3D

 53 56  0  0  0  0  0  0  0  0999 V2000
  140.9310   71.5630  221.3720 O   0  0  0  0  0  0  0  0  0  0  0  0
  140.4140   72.1050  222.3870 C   0  0  0  0  0  0  0  0  0  0  0  0
  139.9960   73.4610  222.3340 N   0  0  0  0  0  0  0  0  0  0  0  0
  140.1860   74.1860  221.0960 C   0  0  0  0  0  0  0  0  0  0  0  0
  140.6720   75.5490  221.4220 C   0  0  0  0  0  0  0  0  0  0  0  0
  140.4210   76.1390  222.5080 O   0  0  0  0  0  0  0  0  0  0  0  0
  141.4590   76.2070  220.4470 N   0  0  0  0  0  0  0  0  0  0  0  0
  141.9170   77.5830  220.3790 C   0  0  0  0  0  0  0  0  0  0  0  0
  141.8730   77.9380  218.8880 C   0  0  2  0  0  0  0  0  0  0  0  0
  140.8410   78.8390  218.6830 F   0  0  0  0  0  0  0  0  0  0  0  0
  141.5700   76.6070  218.2220 C   0  0  0  0  0  0  0  0  0  0  0  0
  142.0420   75.5960  219.2100 C   0  0  1  0  0  0  0  0  0  0  0  0
  143.4850   75.3850  219.3940 C   0  0  0  0  0  0  0  0  0  0  0  0
  143.8550   74.5230  220.4640 N   0  0  0  0  0  0  0  0  0  0  0  0
  145.3180   74.3660  220.5160 C   0  0  0  0  0  0  0  0  0  0  0  0
  145.5570   73.0260  221.1980 C   0  0  0  0  0  0  0  0  0  0  0  0
  144.4590   72.1930  220.6010 C   0  0  0  0  0  0  0  0  0  0  0  0
  143.3490   73.1730  220.3290 C   0  0  0  0  0  0  0  0  0  0  0  0
  140.2410   71.3530  223.6230 C   0  0  0  0  0  0  0  0  0  0  0  0
  139.6340   70.1170  223.6370 C   0  0  0  0  0  0  0  0  0  0  0  0
  139.5000   69.4410  224.8400 C   0  0  0  0  0  0  0  0  0  0  0  0
  139.9650   69.9940  225.9900 C   0  0  0  0  0  0  0  0  0  0  0  0
  139.8270   69.3170  227.1760 C   0  0  0  0  0  0  0  0  0  0  0  0
  140.3150   69.9220  228.3110 C   0  0  0  0  0  0  0  0  0  0  0  0
  140.9170   71.1420  228.3160 C   0  0  0  0  0  0  0  0  0  0  0  0
  141.0610   71.8300  227.1430 C   0  0  0  0  0  0  0  0  0  0  0  0
  140.5720   71.2310  225.9750 C   0  0  0  0  0  0  0  0  0  0  0  0
  140.6790   71.8470  224.7990 N   0  0  0  0  0  0  0  0  0  0  0  0
  139.5630   73.9090  223.1860 H   0  0  0  0  0  0  0  0  0  0  0  0
  140.9276   73.6666  220.4713 H   0  0  0  0  0  0  0  0  0  0  0  0
  139.2370   74.2451  220.5429 H   0  0  0  0  0  0  0  0  0  0  0  0
  141.2500   78.2421  220.9540 H   0  0  0  0  0  0  0  0  0  0  0  0
  142.9234   77.7069  220.8055 H   0  0  0  0  0  0  0  0  0  0  0  0
  142.7938   78.3979  218.5000 H   0  0  0  0  0  0  0  0  0  0  0  0
  140.4912   76.4989  218.0364 H   0  0  0  0  0  0  0  0  0  0  0  0
  142.0582   76.5023  217.2418 H   0  0  0  0  0  0  0  0  0  0  0  0
  141.7457   74.5829  218.9004 H   0  0  0  0  0  0  0  0  0  0  0  0
  143.8846   74.9571  218.4627 H   0  0  0  0  0  0  0  0  0  0  0  0
  143.9003   76.3713  219.6487 H   0  0  0  0  0  0  0  0  0  0  0  0
  145.7409   74.3618  219.5006 H   0  0  0  0  0  0  0  0  0  0  0  0
  145.7990   75.1929  221.0590 H   0  0  0  0  0  0  0  0  0  0  0  0
  146.5495   72.6203  220.9523 H   0  0  0  0  0  0  0  0  0  0  0  0
  145.5424   73.0705  222.2970 H   0  0  0  0  0  0  0  0  0  0  0  0
  144.7952   71.7173  219.6679 H   0  0  0  0  0  0  0  0  0  0  0  0
  144.1430   71.3770  221.2675 H   0  0  0  0  0  0  0  0  0  0  0  0
  142.9699   73.0237  219.3072 H   0  0  0  0  0  0  0  0  0  0  0  0
  142.5330   73.0129  221.0491 H   0  0  0  0  0  0  0  0  0  0  0  0
  139.2595   69.6709  222.7038 H   0  0  0  0  0  0  0  0  0  0  0  0
  139.0156   68.4537  224.8631 H   0  0  0  0  0  0  0  0  0  0  0  0
  139.3449   68.3291  227.2173 H   0  0  0  0  0  0  0  0  0  0  0  0
  140.2127   69.3895  229.2681 H   0  0  0  0  0  0  0  0  0  0  0  0
  141.2860   71.5727  229.2585 H   0  0  0  0  0  0  0  0  0  0  0  0
  141.5435   72.8182  227.1176 H   0  0  0  0  0  0  0  0  0  0  0  0
  1  2  2  0
  2  3  1  0
  3  4  1  0
  4  5  1  0
  5  6  2  0
  5  7  1  0
  7  8  1  0
  8  9  1  0
  9 10  1  0
  9 11  1  0
 11 12  1  0
 12 13  1  0
 13 14  1  0
 14 15  1  0
 15 16  1  0
 16 17  1  0
 17 18  1  0
  2 19  1  0
 19 20  2  0
 20 21  1  0
 21 22  2  0
 22 23  1  0
 23 24  2  0
 24 25  1  0
 25 26  2  0
 26 27  1  0
 27 28  2  0
 12  7  1  0
 18 14  1  0
 28 19  1  0
 27 22  1  0
  3 29  1  0
  4 30  1  0
  4 31  1  0
  8 32  1  0
  8 33  1  0
  9 34  1  6
 11 35  1  0
 11 36  1  0
 12 37  1  6
 13 38  1  0
 13 39  1  0
 15 40  1  0
 15 41  1  0
 16 42  1  0
 16 43  1  0
 17 44  1  0
 17 45  1  0
 18 46  1  0
 18 47  1  0
 20 48  1  0
 21 49  1  0
 23 50  1  0
 24 51  1  0
 25 52  1  0
 26 53  1  0
M  END
>  <smiles>  (29) 
O=C(NCC(=O)N1C[C@H](F)C[C@H]1CN1CCCC1)c1ccc2ccccc2n1

>  <score_type>  (29) 
oracle

>  <origin>  (29) 
autodockgpu

>  <m_score__min__energy>  (29) 
-8.3699999999999992

>  <m_primary>  (29) 
energy

>  <rmsd>  (29) 
4.203934658027519

>  <m_score__min__rmsd>  (29) 
4.203934658027519

>  <meeko>  (29) 
{"free_energy": -7.95, "intermolecular_energy": -9.74, "internal_energy": -2.0, "cluster_size": 9, "cluster_id": 4, "rank_in_cluster": 4}

>  <energy>  (29) 
-7.53

>  <cluster_rmsd>  (29) 
1.64

>  <cluster>  (29) 
1

$$$$

     RDKit          3D

 53 56  0  0  0  0  0  0  0  0999 V2000
  141.3560   71.8810  221.5990 O   0  0  0  0  0  0  0  0  0  0  0  0
  140.4360   72.1890  222.4050 C   0  0  0  0  0  0  0  0  0  0  0  0
  139.5830   73.2900  222.1260 N   0  0  0  0  0  0  0  0  0  0  0  0
  139.8080   74.0340  220.9050 C   0  0  0  0  0  0  0  0  0  0  0  0
  140.7590   75.1340  221.1970 C   0  0  0  0  0  0  0  0  0  0  0  0
  141.9980   75.0640  220.9740 O   0  0  0  0  0  0  0  0  0  0  0  0
  140.2260   76.3190  221.7590 N   0  0  0  0  0  0  0  0  0  0  0  0
  138.9420   76.5660  222.3920 C   0  0  0  0  0  0  0  0  0  0  0  0
  138.5650   77.9910  221.9720 C   0  0  2  0  0  0  0  0  0  0  0  0
  137.5050   77.9180  221.0830 F   0  0  0  0  0  0  0  0  0  0  0  0
  139.8190   78.4920  221.2770 C   0  0  0  0  0  0  0  0  0  0  0  0
  140.9080   77.6500  221.8490 C   0  0  1  0  0  0  0  0  0  0  0  0
  141.3550   77.8850  223.2280 C   0  0  0  0  0  0  0  0  0  0  0  0
  141.9450   79.1550  223.4820 N   0  0  0  0  0  0  0  0  0  0  0  0
  140.9120   80.1430  223.8350 C   0  0  0  0  0  0  0  0  0  0  0  0
  141.5030   81.4960  223.4640 C   0  0  0  0  0  0  0  0  0  0  0  0
  142.2080   81.1670  222.1800 C   0  0  0  0  0  0  0  0  0  0  0  0
  142.6180   79.7260  222.3330 C   0  0  0  0  0  0  0  0  0  0  0  0
  140.2370   71.4250  223.6300 C   0  0  0  0  0  0  0  0  0  0  0  0
  139.5590   70.2280  223.6330 C   0  0  0  0  0  0  0  0  0  0  0  0
  139.4030   69.5380  224.8260 C   0  0  0  0  0  0  0  0  0  0  0  0
  139.9180   70.0410  225.9770 C   0  0  0  0  0  0  0  0  0  0  0  0
  139.7580   69.3510  227.1530 C   0  0  0  0  0  0  0  0  0  0  0  0
  140.2980   69.9050  228.2910 C   0  0  0  0  0  0  0  0  0  0  0  0
  140.9720   71.0870  228.3080 C   0  0  0  0  0  0  0  0  0  0  0  0
  141.1390   71.7870  227.1450 C   0  0  0  0  0  0  0  0  0  0  0  0
  140.5970   71.2400  225.9750 C   0  0  0  0  0  0  0  0  0  0  0  0
  140.7230   71.8710  224.8080 N   0  0  0  0  0  0  0  0  0  0  0  0
  138.8140   73.5410  222.8040 H   0  0  0  0  0  0  0  0  0  0  0  0
  140.2323   73.3697  220.1377 H   0  0  0  0  0  0  0  0  0  0  0  0
  138.8582   74.4441  220.5312 H   0  0  0  0  0  0  0  0  0  0  0  0
  138.1902   75.8458  222.0369 H   0  0  0  0  0  0  0  0  0  0  0  0
  138.9903   76.4548  223.4853 H   0  0  0  0  0  0  0  0  0  0  0  0
  138.2573   78.6460  222.8004 H   0  0  0  0  0  0  0  0  0  0  0  0
  139.7460   78.3506  220.1886 H   0  0  0  0  0  0  0  0  0  0  0  0
  139.9888   79.5676  221.4327 H   0  0  0  0  0  0  0  0  0  0  0  0
  141.8547   77.8256  221.3171 H   0  0  0  0  0  0  0  0  0  0  0  0
  140.4811   77.7813  223.8879 H   0  0  0  0  0  0  0  0  0  0  0  0
  142.1479   77.1457  223.4141 H   0  0  0  0  0  0  0  0  0  0  0  0
  139.9901   79.9563  223.2648 H   0  0  0  0  0  0  0  0  0  0  0  0
  140.6443   80.0919  224.9007 H   0  0  0  0  0  0  0  0  0  0  0  0
  140.7171   82.2502  223.3101 H   0  0  0  0  0  0  0  0  0  0  0  0
  142.1541   81.9304  224.2369 H   0  0  0  0  0  0  0  0  0  0  0  0
  141.5305   81.2894  221.3221 H   0  0  0  0  0  0  0  0  0  0  0  0
  143.0668   81.8285  221.9931 H   0  0  0  0  0  0  0  0  0  0  0  0
  142.3384   79.1665  221.4281 H   0  0  0  0  0  0  0  0  0  0  0  0
  143.7069   79.6665  222.4771 H   0  0  0  0  0  0  0  0  0  0  0  0
  139.1447   69.8221  222.6984 H   0  0  0  0  0  0  0  0  0  0  0  0
  138.8608   68.5810  224.8396 H   0  0  0  0  0  0  0  0  0  0  0  0
  139.2191   68.3926  227.1844 H   0  0  0  0  0  0  0  0  0  0  0  0
  140.1781   69.3620  229.2401 H   0  0  0  0  0  0  0  0  0  0  0  0
  141.3803   71.4773  229.2519 H   0  0  0  0  0  0  0  0  0  0  0  0
  141.6794   72.7450  227.1290 H   0  0  0  0  0  0  0  0  0  0  0  0
  1  2  2  0
  2  3  1  0
  3  4  1  0
  4  5  1  0
  5  6  2  0
  5  7  1  0
  7  8  1  0
  8  9  1  0
  9 10  1  0
  9 11  1  0
 11 12  1  0
 12 13  1  0
 13 14  1  0
 14 15  1  0
 15 16  1  0
 16 17  1  0
 17 18  1  0
  2 19  1  0
 19 20  2  0
 20 21  1  0
 21 22  2  0
 22 23  1  0
 23 24  2  0
 24 25  1  0
 25 26  2  0
 26 27  1  0
 27 28  2  0
 12  7  1  0
 18 14  1  0
 28 19  1  0
 27 22  1  0
  3 29  1  0
  4 30  1  0
  4 31  1  0
  8 32  1  0
  8 33  1  0
  9 34  1  1
 11 35  1  0
 11 36  1  0
 12 37  1  6
 13 38  1  0
 13 39  1  0
 15 40  1  0
 15 41  1  0
 16 42  1  0
 16 43  1  0
 17 44  1  0
 17 45  1  0
 18 46  1  0
 18 47  1  0
 20 48  1  0
 21 49  1  0
 23 50  1  0
 24 51  1  0
 25 52  1  0
 26 53  1  0
M  END
>  <smiles>  (30) 
O=C(NCC(=O)N1C[C@H](F)C[C@H]1CN1CCCC1)c1ccc2ccccc2n1

>  <score_type>  (30) 
oracle

>  <origin>  (30) 
autodockgpu

>  <m_score__min__energy>  (30) 
-8.3699999999999992

>  <m_primary>  (30) 
energy

>  <rmsd>  (30) 
2.582201834235128

>  <m_score__min__rmsd>  (30) 
2.582201834235128

>  <meeko>  (30) 
{"free_energy": -8.26, "intermolecular_energy": -10.05, "internal_energy": -1.3, "cluster_size": 29, "cluster_id": 1, "rank_in_cluster": 13}

>  <energy>  (30) 
-8.35

>  <cluster_rmsd>  (30) 
0.0

>  <cluster>  (30) 
2

$$$$

     RDKit          3D

 53 56  0  0  0  0  0  0  0  0999 V2000
  141.3230   72.7610  221.9490 O   0  0  0  0  0  0  0  0  0  0  0  0
  140.2530   72.6430  222.6050 C   0  0  0  0  0  0  0  0  0  0  0  0
  139.1490   73.4920  222.3250 N   0  0  0  0  0  0  0  0  0  0  0  0
  139.2980   74.4820  221.2800 C   0  0  0  0  0  0  0  0  0  0  0  0
  139.8840   75.7060  221.8780 C   0  0  0  0  0  0  0  0  0  0  0  0
  141.0750   75.7820  222.2870 O   0  0  0  0  0  0  0  0  0  0  0  0
  139.0450   76.8400  221.9860 N   0  0  0  0  0  0  0  0  0  0  0  0
  137.6040   76.9330  222.1420 C   0  0  0  0  0  0  0  0  0  0  0  0
  137.2010   78.1710  221.3320 C   0  0  2  0  0  0  0  0  0  0  0  0
  136.5110   77.7500  220.2060 F   0  0  0  0  0  0  0  0  0  0  0  0
  138.5360   78.7850  220.9490 C   0  0  0  0  0  0  0  0  0  0  0  0
  139.4770   78.2740  221.9850 C   0  0  1  0  0  0  0  0  0  0  0  0
  139.4100   78.8130  223.3500 C   0  0  0  0  0  0  0  0  0  0  0  0
  140.6180   79.3690  223.8590 N   0  0  0  0  0  0  0  0  0  0  0  0
  140.7440   80.7800  223.4600 C   0  0  0  0  0  0  0  0  0  0  0  0
  142.2380   81.0730  223.4730 C   0  0  0  0  0  0  0  0  0  0  0  0
  142.7920   79.7950  222.9090 C   0  0  0  0  0  0  0  0  0  0  0  0
  141.8150   78.7360  223.3440 C   0  0  0  0  0  0  0  0  0  0  0  0
  140.1330   71.6410  223.6560 C   0  0  0  0  0  0  0  0  0  0  0  0
  139.5540   70.4140  223.4230 C   0  0  0  0  0  0  0  0  0  0  0  0
  139.4720   69.4940  224.4570 C   0  0  0  0  0  0  0  0  0  0  0  0
  139.9600   69.8030  225.6860 C   0  0  0  0  0  0  0  0  0  0  0  0
  139.8730   68.8850  226.7030 C   0  0  0  0  0  0  0  0  0  0  0  0
  140.3820   69.2490  227.9290 C   0  0  0  0  0  0  0  0  0  0  0  0
  140.9580   70.4560  228.1790 C   0  0  0  0  0  0  0  0  0  0  0  0
  141.0500   71.3820  227.1760 C   0  0  0  0  0  0  0  0  0  0  0  0
  140.5390   71.0310  225.9200 C   0  0  0  0  0  0  0  0  0  0  0  0
  140.5970   71.8860  224.8990 N   0  0  0  0  0  0  0  0  0  0  0  0
  138.2550   73.3870  222.8770 H   0  0  0  0  0  0  0  0  0  0  0  0
  139.9644   74.0962  220.4944 H   0  0  0  0  0  0  0  0  0  0  0  0
  138.3196   74.7102  220.8320 H   0  0  0  0  0  0  0  0  0  0  0  0
  137.1124   76.0329  221.7443 H   0  0  0  0  0  0  0  0  0  0  0  0
  137.3051   77.0123  223.1976 H   0  0  0  0  0  0  0  0  0  0  0  0
  136.5547   78.8801  221.8701 H   0  0  0  0  0  0  0  0  0  0  0  0
  138.8438   78.4571  219.9451 H   0  0  0  0  0  0  0  0  0  0  0  0
  138.5021   79.8839  220.9123 H   0  0  0  0  0  0  0  0  0  0  0  0
  140.5142   78.5400  221.7331 H   0  0  0  0  0  0  0  0  0  0  0  0
  138.6438   79.6022  223.3635 H   0  0  0  0  0  0  0  0  0  0  0  0
  139.1812   77.9543  223.9983 H   0  0  0  0  0  0  0  0  0  0  0  0
  140.3307   80.9332  222.4522 H   0  0  0  0  0  0  0  0  0  0  0  0
  140.1908   81.4472  224.1373 H   0  0  0  0  0  0  0  0  0  0  0  0
  142.4851   81.9351  222.8360 H   0  0  0  0  0  0  0  0  0  0  0  0
  142.6368   81.3394  224.4629 H   0  0  0  0  0  0  0  0  0  0  0  0
  142.8470   79.8460  221.8116 H   0  0  0  0  0  0  0  0  0  0  0  0
  143.8140   79.5910  223.2610 H   0  0  0  0  0  0  0  0  0  0  0  0
  141.5539   78.1018  222.4840 H   0  0  0  0  0  0  0  0  0  0  0  0
  142.2705   78.1161  224.1303 H   0  0  0  0  0  0  0  0  0  0  0  0
  139.1603   70.1659  222.4263 H   0  0  0  0  0  0  0  0  0  0  0  0
  139.0104   68.5111  224.2814 H   0  0  0  0  0  0  0  0  0  0  0  0
  139.4147   67.8977  226.5444 H   0  0  0  0  0  0  0  0  0  0  0  0
  140.3196   68.5231  228.7531 H   0  0  0  0  0  0  0  0  0  0  0  0
  141.3474   70.6860  229.1817 H   0  0  0  0  0  0  0  0  0  0  0  0
  141.5087   72.3666  227.3497 H   0  0  0  0  0  0  0  0  0  0  0  0
  1  2  2  0
  2  3  1  0
  3  4  1  0
  4  5  1  0
  5  6  2  0
  5  7  1  0
  7  8  1  0
  8  9  1  0
  9 10  1  0
  9 11  1  0
 11 12  1  0
 12 13  1  0
 13 14  1  0
 14 15  1  0
 15 16  1  0
 16 17  1  0
 17 18  1  0
  2 19  1  0
 19 20  2  0
 20 21  1  0
 21 22  2  0
 22 23  1  0
 23 24  2  0
 24 25  1  0
 25 26  2  0
 26 27  1  0
 27 28  2  0
 12  7  1  0
 18 14  1  0
 28 19  1  0
 27 22  1  0
  3 29  1  0
  4 30  1  0
  4 31  1  0
  8 32  1  0
  8 33  1  0
  9 34  1  1
 11 35  1  0
 11 36  1  0
 12 37  1  6
 13 38  1  0
 13 39  1  0
 15 40  1  0
 15 41  1  0
 16 42  1  0
 16 43  1  0
 17 44  1  0
 17 45  1  0
 18 46  1  0
 18 47  1  0
 20 48  1  0
 21 49  1  0
 23 50  1  0
 24 51  1  0
 25 52  1  0
 26 53  1  0
M  END
>  <smiles>  (31) 
O=C(NCC(=O)N1C[C@H](F)C[C@H]1CN1CCCC1)c1ccc2ccccc2n1

>  <score_type>  (31) 
oracle

>  <origin>  (31) 
autodockgpu

>  <m_score__min__energy>  (31) 
-8.3699999999999992

>  <m_primary>  (31) 
energy

>  <rmsd>  (31) 
2.850389760775116

>  <m_score__min__rmsd>  (31) 
2.850389760775116

>  <meeko>  (31) 
{"free_energy": -8.31, "intermolecular_energy": -10.1, "internal_energy": -1.34, "cluster_size": 2, "cluster_id": 3, "rank_in_cluster": 1}

>  <energy>  (31) 
-8.32

>  <cluster_rmsd>  (31) 
0.48

>  <cluster>  (31) 
2

$$$$

     RDKit          3D

 53 56  0  0  0  0  0  0  0  0999 V2000
  139.9640   74.2470  222.3400 O   0  0  0  0  0  0  0  0  0  0  0  0
  140.2560   75.2240  221.5980 C   0  0  0  0  0  0  0  0  0  0  0  0
  140.6720   75.0000  220.2580 N   0  0  0  0  0  0  0  0  0  0  0  0
  140.7520   73.6340  219.7880 C   0  0  0  0  0  0  0  0  0  0  0  0
  141.9660   73.0100  220.3670 C   0  0  0  0  0  0  0  0  0  0  0  0
  141.9360   72.0990  221.2380 O   0  0  0  0  0  0  0  0  0  0  0  0
  143.2190   73.4800  219.9040 N   0  0  0  0  0  0  0  0  0  0  0  0
  144.2650   72.7970  219.1640 C   0  0  0  0  0  0  0  0  0  0  0  0
  145.5750   73.3700  219.7170 C   0  0  2  0  0  0  0  0  0  0  0  0
  146.2030   72.3840  220.4610 F   0  0  0  0  0  0  0  0  0  0  0  0
  145.1070   74.5060  220.6110 C   0  0  0  0  0  0  0  0  0  0  0  0
  143.7680   74.8640  220.0650 C   0  0  1  0  0  0  0  0  0  0  0  0
  143.6770   75.5850  218.7880 C   0  0  0  0  0  0  0  0  0  0  0  0
  142.5490   76.4370  218.6340 N   0  0  0  0  0  0  0  0  0  0  0  0
  142.6090   77.1450  217.3440 C   0  0  0  0  0  0  0  0  0  0  0  0
  141.7950   78.4160  217.5410 C   0  0  0  0  0  0  0  0  0  0  0  0
  142.1850   78.8010  218.9390 C   0  0  0  0  0  0  0  0  0  0  0  0
  142.4730   77.4920  219.6240 C   0  0  0  0  0  0  0  0  0  0  0  0
  140.1730   76.5890  222.1010 C   0  0  0  0  0  0  0  0  0  0  0  0
  138.9630   77.1930  222.3550 C   0  0  0  0  0  0  0  0  0  0  0  0
  138.9410   78.4920  222.8390 C   0  0  0  0  0  0  0  0  0  0  0  0
  140.1030   79.1580  223.0600 C   0  0  0  0  0  0  0  0  0  0  0  0
  140.0700   80.4440  223.5390 C   0  0  0  0  0  0  0  0  0  0  0  0
  141.2760   81.0740  223.7440 C   0  0  0  0  0  0  0  0  0  0  0  0
  142.4820   80.4940  223.4990 C   0  0  0  0  0  0  0  0  0  0  0  0
  142.5310   79.2130  223.0200 C   0  0  0  0  0  0  0  0  0  0  0  0
  141.3140   78.5540  222.8040 C   0  0  0  0  0  0  0  0  0  0  0  0
  141.2910   77.3050  222.3390 N   0  0  0  0  0  0  0  0  0  0  0  0
  140.9140   75.8220  219.6410 H   0  0  0  0  0  0  0  0  0  0  0  0
  139.8591   73.0777  220.1093 H   0  0  0  0  0  0  0  0  0  0  0  0
  140.8046   73.6149  218.6894 H   0  0  0  0  0  0  0  0  0  0  0  0
  144.2145   71.7115  219.3345 H   0  0  0  0  0  0  0  0  0  0  0  0
  144.1716   72.9481  218.0784 H   0  0  0  0  0  0  0  0  0  0  0  0
  146.2867   73.7089  218.9498 H   0  0  0  0  0  0  0  0  0  0  0  0
  145.0271   74.1736  221.6565 H   0  0  0  0  0  0  0  0  0  0  0  0
  145.8043   75.3567  220.6156 H   0  0  0  0  0  0  0  0  0  0  0  0
  143.2625   75.5882  220.7208 H   0  0  0  0  0  0  0  0  0  0  0  0
  144.5818   76.2019  218.6842 H   0  0  0  0  0  0  0  0  0  0  0  0
  143.5713   74.8092  218.0154 H   0  0  0  0  0  0  0  0  0  0  0  0
  143.6502   77.3908  217.0882 H   0  0  0  0  0  0  0  0  0  0  0  0
  142.2142   76.5302  216.5217 H   0  0  0  0  0  0  0  0  0  0  0  0
  142.0788   79.1925  216.8154 H   0  0  0  0  0  0  0  0  0  0  0  0
  140.7126   78.2851  217.3950 H   0  0  0  0  0  0  0  0  0  0  0  0
  143.0798   79.4407  218.9308 H   0  0  0  0  0  0  0  0  0  0  0  0
  141.3983   79.3759  219.4494 H   0  0  0  0  0  0  0  0  0  0  0  0
  143.4308   77.5615  220.1604 H   0  0  0  0  0  0  0  0  0  0  0  0
  141.6684   77.2670  220.3395 H   0  0  0  0  0  0  0  0  0  0  0  0
  138.0228   76.6508  222.1759 H   0  0  0  0  0  0  0  0  0  0  0  0
  137.9791   78.9844  223.0445 H   0  0  0  0  0  0  0  0  0  0  0  0
  139.1170   80.9509  223.7506 H   0  0  0  0  0  0  0  0  0  0  0  0
  141.2643   82.1049  224.1277 H   0  0  0  0  0  0  0  0  0  0  0  0
  143.4120   81.0513  223.6848 H   0  0  0  0  0  0  0  0  0  0  0  0
  143.4914   78.7187  222.8121 H   0  0  0  0  0  0  0  0  0  0  0  0
  1  2  2  0
  2  3  1  0
  3  4  1  0
  4  5  1  0
  5  6  2  0
  5  7  1  0
  7  8  1  0
  8  9  1  0
  9 10  1  0
  9 11  1  0
 11 12  1  0
 12 13  1  0
 13 14  1  0
 14 15  1  0
 15 16  1  0
 16 17  1  0
 17 18  1  0
  2 19  1  0
 19 20  2  0
 20 21  1  0
 21 22  2  0
 22 23  1  0
 23 24  2  0
 24 25  1  0
 25 26  2  0
 26 27  1  0
 27 28  2  0
 12  7  1  0
 18 14  1  0
 28 19  1  0
 27 22  1  0
  3 29  1  0
  4 30  1  0
  4 31  1  0
  8 32  1  0
  8 33  1  0
  9 34  1  6
 11 35  1  0
 11 36  1  0
 12 37  1  1
 13 38  1  0
 13 39  1  0
 15 40  1  0
 15 41  1  0
 16 42  1  0
 16 43  1  0
 17 44  1  0
 17 45  1  0
 18 46  1  0
 18 47  1  0
 20 48  1  0
 21 49  1  0
 23 50  1  0
 24 51  1  0
 25 52  1  0
 26 53  1  0
M  END
>  <smiles>  (32) 
O=C(NCC(=O)N1C[C@H](F)C[C@H]1CN1CCCC1)c1ccc2ccccc2n1

>  <score_type>  (32) 
oracle

>  <origin>  (32) 
autodockgpu

>  <m_score__min__energy>  (32) 
-8.3699999999999992

>  <m_primary>  (32) 
energy

>  <rmsd>  (32) 
7.029871842270954

>  <m_score__min__rmsd>  (32) 
7.029871842270954

>  <meeko>  (32) 
{"free_energy": -6.62, "intermolecular_energy": -8.41, "internal_energy": -2.9, "cluster_size": 6, "cluster_id": 6, "rank_in_cluster": 1}

>  <energy>  (32) 
-7.71

>  <cluster_rmsd>  (32) 
0.99

>  <cluster>  (32) 
2

$$$$

     RDKit          3D

 53 56  0  0  0  0  0  0  0  0999 V2000
  140.4390   71.3650  221.3390 O   0  0  0  0  0  0  0  0  0  0  0  0
  140.1320   71.9270  222.4250 C   0  0  0  0  0  0  0  0  0  0  0  0
  139.8320   73.3150  222.4490 N   0  0  0  0  0  0  0  0  0  0  0  0
  139.8960   74.0480  221.2030 C   0  0  0  0  0  0  0  0  0  0  0  0
  140.2010   75.4670  221.5110 C   0  0  0  0  0  0  0  0  0  0  0  0
  139.9520   76.0090  222.6220 O   0  0  0  0  0  0  0  0  0  0  0  0
  140.8010   76.2370  220.4870 N   0  0  0  0  0  0  0  0  0  0  0  0
  140.6070   76.2060  219.0480 C   0  0  0  0  0  0  0  0  0  0  0  0
  141.9940   76.4870  218.4580 C   0  0  2  0  0  0  0  0  0  0  0  0
  142.4660   75.3210  217.8780 F   0  0  0  0  0  0  0  0  0  0  0  0
  142.8210   76.8580  219.6770 C   0  0  0  0  0  0  0  0  0  0  0  0
  141.8110   77.3280  220.6670 C   0  0  1  0  0  0  0  0  0  0  0  0
  141.1680   78.6360  220.4760 C   0  0  0  0  0  0  0  0  0  0  0  0
  141.1370   79.4860  221.6170 N   0  0  0  0  0  0  0  0  0  0  0  0
  142.5000   79.9000  221.9880 C   0  0  0  0  0  0  0  0  0  0  0  0
  142.4340   80.2240  223.4740 C   0  0  0  0  0  0  0  0  0  0  0  0
  141.5230   79.1380  223.9720 C   0  0  0  0  0  0  0  0  0  0  0  0
  140.6140   78.8470  222.8080 C   0  0  0  0  0  0  0  0  0  0  0  0
  140.0810   71.1650  223.6670 C   0  0  0  0  0  0  0  0  0  0  0  0
  139.5920   69.8790  223.7060 C   0  0  0  0  0  0  0  0  0  0  0  0
  139.5720   69.1960  224.9120 C   0  0  0  0  0  0  0  0  0  0  0  0
  140.0330   69.7920  226.0410 C   0  0  0  0  0  0  0  0  0  0  0  0
  140.0090   69.1080  227.2310 C   0  0  0  0  0  0  0  0  0  0  0  0
  140.4870   69.7590  228.3460 C   0  0  0  0  0  0  0  0  0  0  0  0
  140.9750   71.0290  228.3270 C   0  0  0  0  0  0  0  0  0  0  0  0
  141.0040   71.7240  227.1490 C   0  0  0  0  0  0  0  0  0  0  0  0
  140.5220   71.0800  226.0020 C   0  0  0  0  0  0  0  0  0  0  0  0
  140.5220   71.7010  224.8230 N   0  0  0  0  0  0  0  0  0  0  0  0
  139.5740   73.7790  223.3610 H   0  0  0  0  0  0  0  0  0  0  0  0
  140.6872   73.6278  220.5647 H   0  0  0  0  0  0  0  0  0  0  0  0
  138.9362   73.9741  220.6707 H   0  0  0  0  0  0  0  0  0  0  0  0
  140.2427   75.2188  218.7276 H   0  0  0  0  0  0  0  0  0  0  0  0
  139.8583   76.9397  218.7147 H   0  0  0  0  0  0  0  0  0  0  0  0
  142.0135   77.2708  217.6865 H   0  0  0  0  0  0  0  0  0  0  0  0
  143.3669   75.9833  220.0603 H   0  0  0  0  0  0  0  0  0  0  0  0
  143.5839   77.6190  219.4560 H   0  0  0  0  0  0  0  0  0  0  0  0
  142.2774   77.4935  221.6494 H   0  0  0  0  0  0  0  0  0  0  0  0
  141.7091   79.1640  219.6770 H   0  0  0  0  0  0  0  0  0  0  0  0
  140.1163   78.4187  220.2381 H   0  0  0  0  0  0  0  0  0  0  0  0
  143.2138   79.0836  221.8035 H   0  0  0  0  0  0  0  0  0  0  0  0
  142.8409   80.7623  221.3962 H   0  0  0  0  0  0  0  0  0  0  0  0
  143.4268   80.1637  223.9438 H   0  0  0  0  0  0  0  0  0  0  0  0
  142.0848   81.2428  223.6978 H   0  0  0  0  0  0  0  0  0  0  0  0
  142.0996   78.2430  224.2486 H   0  0  0  0  0  0  0  0  0  0  0  0
  140.9672   79.4379  224.8726 H   0  0  0  0  0  0  0  0  0  0  0  0
  140.5598   77.7601  222.6475 H   0  0  0  0  0  0  0  0  0  0  0  0
  139.6075   79.2360  223.0217 H   0  0  0  0  0  0  0  0  0  0  0  0
  139.2207   69.3980  222.7891 H   0  0  0  0  0  0  0  0  0  0  0  0
  139.1816   68.1685  224.9542 H   0  0  0  0  0  0  0  0  0  0  0  0
  139.6229   68.0798  227.2913 H   0  0  0  0  0  0  0  0  0  0  0  0
  140.4736   69.2223  229.3061 H   0  0  0  0  0  0  0  0  0  0  0  0
  141.3439   71.4940  229.2531 H   0  0  0  0  0  0  0  0  0  0  0  0
  141.3921   72.7523  227.1040 H   0  0  0  0  0  0  0  0  0  0  0  0
  1  2  2  0
  2  3  1  0
  3  4  1  0
  4  5  1  0
  5  6  2  0
  5  7  1  0
  7  8  1  0
  8  9  1  0
  9 10  1  0
  9 11  1  0
 11 12  1  0
 12 13  1  0
 13 14  1  0
 14 15  1  0
 15 16  1  0
 16 17  1  0
 17 18  1  0
  2 19  1  0
 19 20  2  0
 20 21  1  0
 21 22  2  0
 22 23  1  0
 23 24  2  0
 24 25  1  0
 25 26  2  0
 26 27  1  0
 27 28  2  0
 12  7  1  0
 18 14  1  0
 28 19  1  0
 27 22  1  0
  3 29  1  0
  4 30  1  0
  4 31  1  0
  8 32  1  0
  8 33  1  0
  9 34  1  6
 11 35  1  0
 11 36  1  0
 12 37  1  1
 13 38  1  0
 13 39  1  0
 15 40  1  0
 15 41  1  0
 16 42  1  0
 16 43  1  0
 17 44  1  0
 17 45  1  0
 18 46  1  0
 18 47  1  0
 20 48  1  0
 21 49  1  0
 23 50  1  0
 24 51  1  0
 25 52  1  0
 26 53  1  0
M  END
>  <smiles>  (33) 
O=C(NCC(=O)N1C[C@H](F)C[C@H]1CN1CCCC1)c1ccc2ccccc2n1

>  <score_type>  (33) 
oracle

>  <origin>  (33) 
autodockgpu

>  <m_score__min__energy>  (33) 
-8.3699999999999992

>  <m_primary>  (33) 
energy

>  <rmsd>  (33) 
2.2072356720109836

>  <m_score__min__rmsd>  (33) 
2.2072356720109836

>  <meeko>  (33) 
{"free_energy": -8.12, "intermolecular_energy": -9.91, "internal_energy": -1.84, "cluster_size": 29, "cluster_id": 1, "rank_in_cluster": 18}

>  <energy>  (33) 
-8.31

>  <cluster_rmsd>  (33) 
0.0

>  <cluster>  (33) 
3

$$$$

     RDKit          3D

 53 56  0  0  0  0  0  0  0  0999 V2000
  141.1240   71.7100  221.4090 O   0  0  0  0  0  0  0  0  0  0  0  0
  140.5100   72.2150  222.3880 C   0  0  0  0  0  0  0  0  0  0  0  0
  140.0280   73.5490  222.3150 N   0  0  0  0  0  0  0  0  0  0  0  0
  140.2670   74.2950  221.0990 C   0  0  0  0  0  0  0  0  0  0  0  0
  140.7290   75.6550  221.4680 C   0  0  0  0  0  0  0  0  0  0  0  0
  140.4500   76.2140  222.5640 O   0  0  0  0  0  0  0  0  0  0  0  0
  141.5250   76.3480  220.5240 N   0  0  0  0  0  0  0  0  0  0  0  0
  141.8280   77.7630  220.4070 C   0  0  0  0  0  0  0  0  0  0  0  0
  141.8860   78.0280  218.8980 C   0  0  2  0  0  0  0  0  0  0  0  0
  140.7820   78.7870  218.5450 F   0  0  0  0  0  0  0  0  0  0  0  0
  141.8000   76.6360  218.2970 C   0  0  0  0  0  0  0  0  0  0  0  0
  142.2880   75.7430  219.3860 C   0  0  1  0  0  0  0  0  0  0  0  0
  143.7210   75.7160  219.7090 C   0  0  0  0  0  0  0  0  0  0  0  0
  144.3540   74.4450  219.6210 N   0  0  0  0  0  0  0  0  0  0  0  0
  143.4220   73.3760  220.0160 C   0  0  0  0  0  0  0  0  0  0  0  0
  144.3020   72.2290  220.4940 C   0  0  0  0  0  0  0  0  0  0  0  0
  145.3790   72.9720  221.2310 C   0  0  0  0  0  0  0  0  0  0  0  0
  145.4850   74.2910  220.5140 C   0  0  0  0  0  0  0  0  0  0  0  0
  140.2880   71.4420  223.6040 C   0  0  0  0  0  0  0  0  0  0  0  0
  139.6410   70.2270  223.5800 C   0  0  0  0  0  0  0  0  0  0  0  0
  139.4620   69.5300  224.7650 C   0  0  0  0  0  0  0  0  0  0  0  0
  139.9230   70.0420  225.9350 C   0  0  0  0  0  0  0  0  0  0  0  0
  139.7410   69.3440  227.1030 C   0  0  0  0  0  0  0  0  0  0  0  0
  140.2270   69.9080  228.2600 C   0  0  0  0  0  0  0  0  0  0  0  0
  140.8690   71.1070  228.3030 C   0  0  0  0  0  0  0  0  0  0  0  0
  141.0570   71.8150  227.1480 C   0  0  0  0  0  0  0  0  0  0  0  0
  140.5710   71.2580  225.9590 C   0  0  0  0  0  0  0  0  0  0  0  0
  140.7210   71.8960  224.7980 N   0  0  0  0  0  0  0  0  0  0  0  0
  139.5130   73.9660  223.1370 H   0  0  0  0  0  0  0  0  0  0  0  0
  141.0387   73.7904  220.4991 H   0  0  0  0  0  0  0  0  0  0  0  0
  139.3427   74.3575  220.5058 H   0  0  0  0  0  0  0  0  0  0  0  0
  141.0387   78.3684  220.8766 H   0  0  0  0  0  0  0  0  0  0  0  0
  142.7685   78.0292  220.9116 H   0  0  0  0  0  0  0  0  0  0  0  0
  142.7813   78.5721  218.5628 H   0  0  0  0  0  0  0  0  0  0  0  0
  140.7627   76.3907  218.0254 H   0  0  0  0  0  0  0  0  0  0  0  0
  142.3877   76.5367  217.3724 H   0  0  0  0  0  0  0  0  0  0  0  0
  142.1394   74.6863  219.1188 H   0  0  0  0  0  0  0  0  0  0  0  0
  144.2356   76.3975  219.0157 H   0  0  0  0  0  0  0  0  0  0  0  0
  143.7935   76.0121  220.7659 H   0  0  0  0  0  0  0  0  0  0  0  0
  142.7635   73.7198  220.8273 H   0  0  0  0  0  0  0  0  0  0  0  0
  142.7707   73.0725  219.1831 H   0  0  0  0  0  0  0  0  0  0  0  0
  143.7514   71.5504  221.1621 H   0  0  0  0  0  0  0  0  0  0  0  0
  144.6736   71.5799  219.6874 H   0  0  0  0  0  0  0  0  0  0  0  0
  145.0968   73.1231  222.2834 H   0  0  0  0  0  0  0  0  0  0  0  0
  146.3327   72.4240  221.2420 H   0  0  0  0  0  0  0  0  0  0  0  0
  145.4865   75.1093  221.2491 H   0  0  0  0  0  0  0  0  0  0  0  0
  146.4187   74.3198  219.9332 H   0  0  0  0  0  0  0  0  0  0  0  0
  139.2700   69.8136  222.6306 H   0  0  0  0  0  0  0  0  0  0  0  0
  138.9449   68.5592  224.7573 H   0  0  0  0  0  0  0  0  0  0  0  0
  139.2267   68.3717  227.1135 H   0  0  0  0  0  0  0  0  0  0  0  0
  140.0889   69.3589  229.2031 H   0  0  0  0  0  0  0  0  0  0  0  0
  141.2347   71.5046  229.2612 H   0  0  0  0  0  0  0  0  0  0  0  0
  141.5716   72.7872  227.1531 H   0  0  0  0  0  0  0  0  0  0  0  0
  1  2  2  0
  2  3  1  0
  3  4  1  0
  4  5  1  0
  5  6  2  0
  5  7  1  0
  7  8  1  0
  8  9  1  0
  9 10  1  0
  9 11  1  0
 11 12  1  0
 12 13  1  0
 13 14  1  0
 14 15  1  0
 15 16  1  0
 16 17  1  0
 17 18  1  0
  2 19  1  0
 19 20  2  0
 20 21  1  0
 21 22  2  0
 22 23  1  0
 23 24  2  0
 24 25  1  0
 25 26  2  0
 26 27  1  0
 27 28  2  0
 12  7  1  0
 18 14  1  0
 28 19  1  0
 27 22  1  0
  3 29  1  0
  4 30  1  0
  4 31  1  0
  8 32  1  0
  8 33  1  0
  9 34  1  1
 11 35  1  0
 11 36  1  0
 12 37  1  6
 13 38  1  0
 13 39  1  0
 15 40  1  0
 15 41  1  0
 16 42  1  0
 16 43  1  0
 17 44  1  0
 17 45  1  0
 18 46  1  0
 18 47  1  0
 20 48  1  0
 21 49  1  0
 23 50  1  0
 24 51  1  0
 25 52  1  0
 26 53  1  0
M  END
>  <smiles>  (34) 
O=C(NCC(=O)N1C[C@H](F)C[C@H]1CN1CCCC1)c1ccc2ccccc2n1

>  <score_type>  (34) 
oracle

>  <origin>  (34) 
autodockgpu

>  <m_score__min__energy>  (34) 
-8.3699999999999992

>  <m_primary>  (34) 
energy

>  <rmsd>  (34) 
4.085222476636255

>  <m_score__min__rmsd>  (34) 
4.085222476636255

>  <meeko>  (34) 
{"free_energy": -7.96, "intermolecular_energy": -9.75, "internal_energy": -1.92, "cluster_size": 9, "cluster_id": 4, "rank_in_cluster": 2}

>  <energy>  (34) 
-7.65

>  <cluster_rmsd>  (34) 
1.34

>  <cluster>  (34) 
3

$$$$

     RDKit          3D

 53 56  0  0  0  0  0  0  0  0999 V2000
  141.1670   71.6250  221.4200 O   0  0  0  0  0  0  0  0  0  0  0  0
  140.5430   72.1400  222.3880 C   0  0  0  0  0  0  0  0  0  0  0  0
  140.0870   73.4830  222.3090 N   0  0  0  0  0  0  0  0  0  0  0  0
  140.3630   74.2260  221.0980 C   0  0  0  0  0  0  0  0  0  0  0  0
  140.7340   75.6120  221.4760 C   0  0  0  0  0  0  0  0  0  0  0  0
  140.3840   76.1590  222.5570 O   0  0  0  0  0  0  0  0  0  0  0  0
  141.5220   76.3450  220.5570 N   0  0  0  0  0  0  0  0  0  0  0  0
  141.8390   77.7610  220.5090 C   0  0  0  0  0  0  0  0  0  0  0  0
  141.8770   78.1040  219.0150 C   0  0  2  0  0  0  0  0  0  0  0  0
  140.7760   78.8920  218.7200 F   0  0  0  0  0  0  0  0  0  0  0  0
  141.7660   76.7460  218.3440 C   0  0  0  0  0  0  0  0  0  0  0  0
  142.2620   75.7930  219.3770 C   0  0  1  0  0  0  0  0  0  0  0  0
  143.6990   75.7340  219.6760 C   0  0  0  0  0  0  0  0  0  0  0  0
  144.3100   74.4570  219.5420 N   0  0  0  0  0  0  0  0  0  0  0  0
  143.3570   73.4860  218.9800 C   0  0  0  0  0  0  0  0  0  0  0  0
  143.8390   72.1220  219.4560 C   0  0  0  0  0  0  0  0  0  0  0  0
  144.2720   72.4380  220.8600 C   0  0  0  0  0  0  0  0  0  0  0  0
  144.7260   73.8720  220.8010 C   0  0  0  0  0  0  0  0  0  0  0  0
  140.2850   71.3690  223.5980 C   0  0  0  0  0  0  0  0  0  0  0  0
  139.6330   70.1570  223.5570 C   0  0  0  0  0  0  0  0  0  0  0  0
  139.4190   69.4620  224.7370 C   0  0  0  0  0  0  0  0  0  0  0  0
  139.8500   69.9730  225.9180 C   0  0  0  0  0  0  0  0  0  0  0  0
  139.6320   69.2760  227.0810 C   0  0  0  0  0  0  0  0  0  0  0  0
  140.0870   69.8400  228.2510 C   0  0  0  0  0  0  0  0  0  0  0  0
  140.7330   71.0350  228.3120 C   0  0  0  0  0  0  0  0  0  0  0  0
  140.9570   71.7420  227.1620 C   0  0  0  0  0  0  0  0  0  0  0  0
  140.5010   71.1860  225.9590 C   0  0  0  0  0  0  0  0  0  0  0  0
  140.6860   71.8220  224.8030 N   0  0  0  0  0  0  0  0  0  0  0  0
  139.5650   73.9070  223.1220 H   0  0  0  0  0  0  0  0  0  0  0  0
  141.1940   73.7540  220.5533 H   0  0  0  0  0  0  0  0  0  0  0  0
  139.4754   74.2351  220.4484 H   0  0  0  0  0  0  0  0  0  0  0  0
  141.0638   78.3492  221.0219 H   0  0  0  0  0  0  0  0  0  0  0  0
  142.7900   77.9907  221.0118 H   0  0  0  0  0  0  0  0  0  0  0  0
  142.7731   78.6554  218.6940 H   0  0  0  0  0  0  0  0  0  0  0  0
  140.7218   76.5255  218.0775 H   0  0  0  0  0  0  0  0  0  0  0  0
  142.3372   76.6890  217.4057 H   0  0  0  0  0  0  0  0  0  0  0  0
  142.0992   74.7533  219.0568 H   0  0  0  0  0  0  0  0  0  0  0  0
  144.2137   76.4269  218.9941 H   0  0  0  0  0  0  0  0  0  0  0  0
  143.7925   75.9982  220.7397 H   0  0  0  0  0  0  0  0  0  0  0  0
  142.3408   73.6857  219.3508 H   0  0  0  0  0  0  0  0  0  0  0  0
  143.3143   73.5439  217.8824 H   0  0  0  0  0  0  0  0  0  0  0  0
  143.0269   71.3802  219.4421 H   0  0  0  0  0  0  0  0  0  0  0  0
  144.6272   71.6784  218.8299 H   0  0  0  0  0  0  0  0  0  0  0  0
  143.4317   72.3248  221.5608 H   0  0  0  0  0  0  0  0  0  0  0  0
  145.0644   71.7628  221.2152 H   0  0  0  0  0  0  0  0  0  0  0  0
  144.2765   74.4338  221.6331 H   0  0  0  0  0  0  0  0  0  0  0  0
  145.8223   73.9140  220.8813 H   0  0  0  0  0  0  0  0  0  0  0  0
  139.2857   69.7447  222.5982 H   0  0  0  0  0  0  0  0  0  0  0  0
  138.8982   68.4933  224.7161 H   0  0  0  0  0  0  0  0  0  0  0  0
  139.1143   68.3055  227.0775 H   0  0  0  0  0  0  0  0  0  0  0  0
  139.9185   69.2929  229.1903 H   0  0  0  0  0  0  0  0  0  0  0  0
  141.0735   71.4310  229.2801 H   0  0  0  0  0  0  0  0  0  0  0  0
  141.4762   72.7116  227.1811 H   0  0  0  0  0  0  0  0  0  0  0  0
  1  2  2  0
  2  3  1  0
  3  4  1  0
  4  5  1  0
  5  6  2  0
  5  7  1  0
  7  8  1  0
  8  9  1  0
  9 10  1  0
  9 11  1  0
 11 12  1  0
 12 13  1  0
 13 14  1  0
 14 15  1  0
 15 16  1  0
 16 17  1  0
 17 18  1  0
  2 19  1  0
 19 20  2  0
 20 21  1  0
 21 22  2  0
 22 23  1  0
 23 24  2  0
 24 25  1  0
 25 26  2  0
 26 27  1  0
 27 28  2  0
 12  7  1  0
 18 14  1  0
 28 19  1  0
 27 22  1  0
  3 29  1  0
  4 30  1  0
  4 31  1  0
  8 32  1  0
  8 33  1  0
  9 34  1  1
 11 35  1  0
 11 36  1  0
 12 37  1  6
 13 38  1  0
 13 39  1  0
 15 40  1  0
 15 41  1  0
 16 42  1  0
 16 43  1  0
 17 44  1  0
 17 45  1  0
 18 46  1  0
 18 47  1  0
 20 48  1  0
 21 49  1  0
 23 50  1  0
 24 51  1  0
 25 52  1  0
 26 53  1  0
M  END
>  <smiles>  (35) 
O=C(NCC(=O)N1C[C@H](F)C[C@H]1CN1CCCC1)c1ccc2ccccc2n1

>  <score_type>  (35) 
oracle

>  <origin>  (35) 
autodockgpu

>  <m_score__min__energy>  (35) 
-8.3699999999999992

>  <m_primary>  (35) 
energy

>  <rmsd>  (35) 
4.139443803841243

>  <m_score__min__rmsd>  (35) 
4.139443803841243

>  <meeko>  (35) 
{"free_energy": -7.56, "intermolecular_energy": -9.35, "internal_energy": -2.09, "cluster_size": 9, "cluster_id": 4, "rank_in_cluster": 6}

>  <energy>  (35) 
-8.0

>  <cluster_rmsd>  (35) 
0.0

>  <cluster>  (35) 
4

$$$$

     RDKit          3D

 53 56  0  0  0  0  0  0  0  0999 V2000
  141.4700   72.3070  221.7240 O   0  0  0  0  0  0  0  0  0  0  0  0
  140.5160   72.4990  222.5260 C   0  0  0  0  0  0  0  0  0  0  0  0
  139.6560   73.6150  222.3550 N   0  0  0  0  0  0  0  0  0  0  0  0
  139.9130   74.5110  221.2480 C   0  0  0  0  0  0  0  0  0  0  0  0
  139.1600   75.7680  221.4790 C   0  0  0  0  0  0  0  0  0  0  0  0
  138.0180   75.8100  222.0150 O   0  0  0  0  0  0  0  0  0  0  0  0
  139.7720   76.9750  221.0680 N   0  0  0  0  0  0  0  0  0  0  0  0
  139.6620   77.7090  219.8190 C   0  0  0  0  0  0  0  0  0  0  0  0
  141.0620   78.2860  219.5790 C   0  0  2  0  0  0  0  0  0  0  0  0
  141.6340   77.6150  218.5100 F   0  0  0  0  0  0  0  0  0  0  0  0
  141.7960   77.9690  220.8700 C   0  0  0  0  0  0  0  0  0  0  0  0
  140.7060   77.8230  221.8760 C   0  0  1  0  0  0  0  0  0  0  0  0
  140.0000   79.0200  222.3540 C   0  0  0  0  0  0  0  0  0  0  0  0
  140.6570   79.7640  223.3740 N   0  0  0  0  0  0  0  0  0  0  0  0
  140.9450   81.1310  222.9110 C   0  0  0  0  0  0  0  0  0  0  0  0
  142.1340   81.5970  223.7400 C   0  0  0  0  0  0  0  0  0  0  0  0
  142.9580   80.3430  223.8020 C   0  0  0  0  0  0  0  0  0  0  0  0
  141.9490   79.2260  223.7490 C   0  0  0  0  0  0  0  0  0  0  0  0
  140.2850   71.5830  223.6360 C   0  0  0  0  0  0  0  0  0  0  0  0
  139.6430   70.3780  223.4570 C   0  0  0  0  0  0  0  0  0  0  0  0
  139.4540   69.5420  224.5460 C   0  0  0  0  0  0  0  0  0  0  0  0
  139.9000   69.9090  225.7740 C   0  0  0  0  0  0  0  0  0  0  0  0
  139.7080   69.0730  226.8470 C   0  0  0  0  0  0  0  0  0  0  0  0
  140.1790   69.4940  228.0700 C   0  0  0  0  0  0  0  0  0  0  0  0
  140.8150   70.6800  228.2660 C   0  0  0  0  0  0  0  0  0  0  0  0
  141.0130   71.5240  227.2080 C   0  0  0  0  0  0  0  0  0  0  0  0
  140.5420   71.1150  225.9540 C   0  0  0  0  0  0  0  0  0  0  0  0
  140.7020   71.8900  224.8810 N   0  0  0  0  0  0  0  0  0  0  0  0
  138.8580   73.7700  223.0280 H   0  0  0  0  0  0  0  0  0  0  0  0
  140.9896   74.7285  221.1882 H   0  0  0  0  0  0  0  0  0  0  0  0
  139.5930   74.0467  220.3036 H   0  0  0  0  0  0  0  0  0  0  0  0
  139.3744   77.0358  218.9980 H   0  0  0  0  0  0  0  0  0  0  0  0
  138.8920   78.4932  219.8648 H   0  0  0  0  0  0  0  0  0  0  0  0
  141.0791   79.3602  219.3427 H   0  0  0  0  0  0  0  0  0  0  0  0
  142.3687   77.0347  220.7752 H   0  0  0  0  0  0  0  0  0  0  0  0
  142.5254   78.7452  221.1447 H   0  0  0  0  0  0  0  0  0  0  0  0
  141.1060   77.4510  222.8308 H   0  0  0  0  0  0  0  0  0  0  0  0
  139.8493   79.6884  221.4935 H   0  0  0  0  0  0  0  0  0  0  0  0
  139.0669   78.6539  222.8071 H   0  0  0  0  0  0  0  0  0  0  0  0
  141.1992   81.1292  221.8408 H   0  0  0  0  0  0  0  0  0  0  0  0
  140.0766   81.7952  223.0321 H   0  0  0  0  0  0  0  0  0  0  0  0
  142.6782   82.4123  223.2410 H   0  0  0  0  0  0  0  0  0  0  0  0
  141.8641   82.0082  224.7239 H   0  0  0  0  0  0  0  0  0  0  0  0
  143.6456   80.2868  222.9453 H   0  0  0  0  0  0  0  0  0  0  0  0
  143.5845   80.2983  224.7050 H   0  0  0  0  0  0  0  0  0  0  0  0
  142.2659   78.4798  223.0056 H   0  0  0  0  0  0  0  0  0  0  0  0
  141.8762   78.7486  224.7373 H   0  0  0  0  0  0  0  0  0  0  0  0
  139.2840   70.0821  222.4602 H   0  0  0  0  0  0  0  0  0  0  0  0
  138.9408   68.5779  224.4146 H   0  0  0  0  0  0  0  0  0  0  0  0
  139.1979   68.1051  226.7333 H   0  0  0  0  0  0  0  0  0  0  0  0
  140.0327   68.8339  228.9377 H   0  0  0  0  0  0  0  0  0  0  0  0
  141.1682   70.9590  229.2697 H   0  0  0  0  0  0  0  0  0  0  0  0
  141.5239   72.4895  227.3374 H   0  0  0  0  0  0  0  0  0  0  0  0
  1  2  2  0
  2  3  1  0
  3  4  1  0
  4  5  1  0
  5  6  2  0
  5  7  1  0
  7  8  1  0
  8  9  1  0
  9 10  1  0
  9 11  1  0
 11 12  1  0
 12 13  1  0
 13 14  1  0
 14 15  1  0
 15 16  1  0
 16 17  1  0
 17 18  1  0
  2 19  1  0
 19 20  2  0
 20 21  1  0
 21 22  2  0
 22 23  1  0
 23 24  2  0
 24 25  1  0
 25 26  2  0
 26 27  1  0
 27 28  2  0
 12  7  1  0
 18 14  1  0
 28 19  1  0
 27 22  1  0
  3 29  1  0
  4 30  1  0
  4 31  1  0
  8 32  1  0
  8 33  1  0
  9 34  1  6
 11 35  1  0
 11 36  1  0
 12 37  1  1
 13 38  1  0
 13 39  1  0
 15 40  1  0
 15 41  1  0
 16 42  1  0
 16 43  1  0
 17 44  1  0
 17 45  1  0
 18 46  1  0
 18 47  1  0
 20 48  1  0
 21 49  1  0
 23 50  1  0
 24 51  1  0
 25 52  1  0
 26 53  1  0
M  END
>  <smiles>  (36) 
O=C(NCC(=O)N1C[C@H](F)C[C@H]1CN1CCCC1)c1ccc2ccccc2n1

>  <score_type>  (36) 
oracle

>  <origin>  (36) 
autodockgpu

>  <m_score__min__energy>  (36) 
-8.3699999999999992

>  <m_primary>  (36) 
energy

>  <rmsd>  (36) 
2.569977634288783

>  <m_score__min__rmsd>  (36) 
2.569977634288783

>  <meeko>  (36) 
{"free_energy": -8.17, "intermolecular_energy": -9.96, "internal_energy": -1.49, "cluster_size": 29, "cluster_id": 1, "rank_in_cluster": 17}

>  <energy>  (36) 
-7.96

>  <cluster_rmsd>  (36) 
0.15

>  <cluster>  (36) 
4

$$$$

     RDKit          3D

 53 56  0  0  0  0  0  0  0  0999 V2000
  140.6030   75.3860  220.7580 O   0  0  0  0  0  0  0  0  0  0  0  0
  139.8920   75.7660  221.7280 C   0  0  0  0  0  0  0  0  0  0  0  0
  138.9380   74.8840  222.3010 N   0  0  0  0  0  0  0  0  0  0  0  0
  138.8110   73.5570  221.7360 C   0  0  0  0  0  0  0  0  0  0  0  0
  139.8480   72.6890  222.3470 C   0  0  0  0  0  0  0  0  0  0  0  0
  141.0610   73.0170  222.4510 O   0  0  0  0  0  0  0  0  0  0  0  0
  139.4310   71.4260  222.8320 N   0  0  0  0  0  0  0  0  0  0  0  0
  139.4250   70.1260  222.1860 C   0  0  0  0  0  0  0  0  0  0  0  0
  138.1610   69.4340  222.7100 C   0  0  2  0  0  0  0  0  0  0  0  0
  137.2460   69.3530  221.6720 F   0  0  0  0  0  0  0  0  0  0  0  0
  137.6700   70.3800  223.7910 C   0  0  0  0  0  0  0  0  0  0  0  0
  138.8930   71.1280  224.1970 C   0  0  1  0  0  0  0  0  0  0  0  0
  139.9220   70.4500  224.9980 C   0  0  0  0  0  0  0  0  0  0  0  0
  139.8310   70.6290  226.4070 N   0  0  0  0  0  0  0  0  0  0  0  0
  140.8210   71.6170  226.8660 C   0  0  0  0  0  0  0  0  0  0  0  0
  141.0840   71.2780  228.3260 C   0  0  0  0  0  0  0  0  0  0  0  0
  141.0800   69.7770  228.2850 C   0  0  0  0  0  0  0  0  0  0  0  0
  140.1300   69.4340  227.1690 C   0  0  0  0  0  0  0  0  0  0  0  0
  140.0370   77.1100  222.2720 C   0  0  0  0  0  0  0  0  0  0  0  0
  138.9510   77.8340  222.7100 C   0  0  0  0  0  0  0  0  0  0  0  0
  139.1450   79.1060  223.2250 C   0  0  0  0  0  0  0  0  0  0  0  0
  140.3960   79.6290  223.2980 C   0  0  0  0  0  0  0  0  0  0  0  0
  140.5780   80.8900  223.8090 C   0  0  0  0  0  0  0  0  0  0  0  0
  141.8660   81.3730  223.8590 C   0  0  0  0  0  0  0  0  0  0  0  0
  142.9510   80.6730  223.4320 C   0  0  0  0  0  0  0  0  0  0  0  0
  142.7860   79.4160  222.9190 C   0  0  0  0  0  0  0  0  0  0  0  0
  141.4830   78.9050  222.8590 C   0  0  0  0  0  0  0  0  0  0  0  0
  141.2520   77.6880  222.3700 N   0  0  0  0  0  0  0  0  0  0  0  0
  138.3470   75.2070  223.1130 H   0  0  0  0  0  0  0  0  0  0  0  0
  137.8116   73.1534  221.9556 H   0  0  0  0  0  0  0  0  0  0  0  0
  138.9440   73.5955  220.6447 H   0  0  0  0  0  0  0  0  0  0  0  0
  139.3810   70.2369  221.0925 H   0  0  0  0  0  0  0  0  0  0  0  0
  140.3355   69.5491  222.4055 H   0  0  0  0  0  0  0  0  0  0  0  0
  138.3208   68.4141  223.0900 H   0  0  0  0  0  0  0  0  0  0  0  0
  136.9063   71.0650  223.3940 H   0  0  0  0  0  0  0  0  0  0  0  0
  137.1969   69.8527  224.6325 H   0  0  0  0  0  0  0  0  0  0  0  0
  138.6368   71.9486  224.8833 H   0  0  0  0  0  0  0  0  0  0  0  0
  139.8548   69.3719  224.7902 H   0  0  0  0  0  0  0  0  0  0  0  0
  140.8783   70.9055  224.7012 H   0  0  0  0  0  0  0  0  0  0  0  0
  141.7476   71.5346  226.2789 H   0  0  0  0  0  0  0  0  0  0  0  0
  140.4565   72.6477  226.7448 H   0  0  0  0  0  0  0  0  0  0  0  0
  142.0559   71.6691  228.6614 H   0  0  0  0  0  0  0  0  0  0  0  0
  140.3557   71.7114  229.0273 H   0  0  0  0  0  0  0  0  0  0  0  0
  142.0875   69.3910  228.0706 H   0  0  0  0  0  0  0  0  0  0  0  0
  140.7766   69.3328  229.2445 H   0  0  0  0  0  0  0  0  0  0  0  0
  140.5932   68.6849  226.5100 H   0  0  0  0  0  0  0  0  0  0  0  0
  139.2000   69.0251  227.5909 H   0  0  0  0  0  0  0  0  0  0  0  0
  137.9390   77.4070  222.6518 H   0  0  0  0  0  0  0  0  0  0  0  0
  138.2835   79.6933  223.5755 H   0  0  0  0  0  0  0  0  0  0  0  0
  139.7280   81.4909  224.1646 H   0  0  0  0  0  0  0  0  0  0  0  0
  142.0267   82.3817  224.2672 H   0  0  0  0  0  0  0  0  0  0  0  0
  143.9559   81.1154  223.4989 H   0  0  0  0  0  0  0  0  0  0  0  0
  143.6456   78.8273  222.5662 H   0  0  0  0  0  0  0  0  0  0  0  0
  1  2  2  0
  2  3  1  0
  3  4  1  0
  4  5  1  0
  5  6  2  0
  5  7  1  0
  7  8  1  0
  8  9  1  0
  9 10  1  0
  9 11  1  0
 11 12  1  0
 12 13  1  0
 13 14  1  0
 14 15  1  0
 15 16  1  0
 16 17  1  0
 17 18  1  0
  2 19  1  0
 19 20  2  0
 20 21  1  0
 21 22  2  0
 22 23  1  0
 23 24  2  0
 24 25  1  0
 25 26  2  0
 26 27  1  0
 27 28  2  0
 12  7  1  0
 18 14  1  0
 28 19  1  0
 27 22  1  0
  3 29  1  0
  4 30  1  0
  4 31  1  0
  8 32  1  0
  8 33  1  0
  9 34  1  1
 11 35  1  0
 11 36  1  0
 12 37  1  1
 13 38  1  0
 13 39  1  0
 15 40  1  0
 15 41  1  0
 16 42  1  0
 16 43  1  0
 17 44  1  0
 17 45  1  0
 18 46  1  0
 18 47  1  0
 20 48  1  0
 21 49  1  0
 23 50  1  0
 24 51  1  0
 25 52  1  0
 26 53  1  0
M  END
>  <smiles>  (37) 
O=C(NCC(=O)N1C[C@H](F)C[C@H]1CN1CCCC1)c1ccc2ccccc2n1

>  <score_type>  (37) 
oracle

>  <origin>  (37) 
autodockgpu

>  <m_score__min__energy>  (37) 
-8.3699999999999992

>  <m_primary>  (37) 
energy

>  <rmsd>  (37) 
9.17013301508122

>  <m_score__min__rmsd>  (37) 
9.17013301508122

>  <meeko>  (37) 
{"free_energy": -8.32, "intermolecular_energy": -10.11, "internal_energy": -1.15, "cluster_size": 3, "cluster_id": 2, "rank_in_cluster": 2}

>  <energy>  (37) 
-7.95

>  <cluster_rmsd>  (37) 
0.37

>  <cluster>  (37) 
4

$$$$

     RDKit          3D

 53 56  0  0  0  0  0  0  0  0999 V2000
  138.9290   75.0430  221.8980 O   0  0  0  0  0  0  0  0  0  0  0  0
  140.0530   75.5980  222.0360 C   0  0  0  0  0  0  0  0  0  0  0  0
  141.2450   74.8560  221.8220 N   0  0  0  0  0  0  0  0  0  0  0  0
  141.1240   73.4630  221.4480 C   0  0  0  0  0  0  0  0  0  0  0  0
  141.4740   73.3320  220.0130 C   0  0  0  0  0  0  0  0  0  0  0  0
  140.6710   72.9190  219.1320 O   0  0  0  0  0  0  0  0  0  0  0  0
  142.7880   73.6940  219.6320 N   0  0  0  0  0  0  0  0  0  0  0  0
  143.7970   72.9460  218.9030 C   0  0  0  0  0  0  0  0  0  0  0  0
  145.1280   73.3550  219.5430 C   0  0  2  0  0  0  0  0  0  0  0  0
  145.6180   72.2750  220.2600 F   0  0  0  0  0  0  0  0  0  0  0  0
  144.7330   74.4870  220.4750 C   0  0  0  0  0  0  0  0  0  0  0  0
  143.4640   75.0060  219.8910 C   0  0  1  0  0  0  0  0  0  0  0  0
  143.5080   75.7940  218.6520 C   0  0  0  0  0  0  0  0  0  0  0  0
  143.2880   77.1930  218.7970 N   0  0  0  0  0  0  0  0  0  0  0  0
  142.1920   77.4470  219.7460 C   0  0  0  0  0  0  0  0  0  0  0  0
  141.6320   78.8090  219.3620 C   0  0  0  0  0  0  0  0  0  0  0  0
  141.6920   78.7400  217.8620 C   0  0  0  0  0  0  0  0  0  0  0  0
  142.8700   77.8480  217.5740 C   0  0  0  0  0  0  0  0  0  0  0  0
  140.1450   77.0010  222.4190 C   0  0  0  0  0  0  0  0  0  0  0  0
  139.0220   77.7620  222.6530 C   0  0  0  0  0  0  0  0  0  0  0  0
  139.1660   79.0900  223.0210 C   0  0  0  0  0  0  0  0  0  0  0  0
  140.4040   79.6320  223.1500 C   0  0  0  0  0  0  0  0  0  0  0  0
  140.5360   80.9490  223.5140 C   0  0  0  0  0  0  0  0  0  0  0  0
  141.8130   81.4490  223.6300 C   0  0  0  0  0  0  0  0  0  0  0  0
  142.9350   80.7140  223.4040 C   0  0  0  0  0  0  0  0  0  0  0  0
  142.8200   79.4000  223.0390 C   0  0  0  0  0  0  0  0  0  0  0  0
  141.5280   78.8710  222.9150 C   0  0  0  0  0  0  0  0  0  0  0  0
  141.3450   77.5990  222.5630 N   0  0  0  0  0  0  0  0  0  0  0  0
  142.1820   75.3270  221.9380 H   0  0  0  0  0  0  0  0  0  0  0  0
  141.8104   72.8543  222.0550 H   0  0  0  0  0  0  0  0  0  0  0  0
  140.0953   73.1133  221.6198 H   0  0  0  0  0  0  0  0  0  0  0  0
  143.6311   71.8641  219.0121 H   0  0  0  0  0  0  0  0  0  0  0  0
  143.7727   73.1595  217.8242 H   0  0  0  0  0  0  0  0  0  0  0  0
  145.9062   73.6570  218.8266 H   0  0  0  0  0  0  0  0  0  0  0  0
  144.5697   74.1137  221.4968 H   0  0  0  0  0  0  0  0  0  0  0  0
  145.5105   75.2609  220.5557 H   0  0  0  0  0  0  0  0  0  0  0  0
  143.0015   75.7448  220.5620 H   0  0  0  0  0  0  0  0  0  0  0  0
  144.5004   75.6541  218.1986 H   0  0  0  0  0  0  0  0  0  0  0  0
  142.6763   75.4242  218.0342 H   0  0  0  0  0  0  0  0  0  0  0  0
  141.4164   76.6723  219.6544 H   0  0  0  0  0  0  0  0  0  0  0  0
  142.5413   77.4277  220.7889 H   0  0  0  0  0  0  0  0  0  0  0  0
  140.5989   78.9346  219.7183 H   0  0  0  0  0  0  0  0  0  0  0  0
  142.1785   79.6593  219.7960 H   0  0  0  0  0  0  0  0  0  0  0  0
  140.7667   78.3060  217.4552 H   0  0  0  0  0  0  0  0  0  0  0  0
  141.7960   79.7332  217.4008 H   0  0  0  0  0  0  0  0  0  0  0  0
  142.5829   77.0894  216.8310 H   0  0  0  0  0  0  0  0  0  0  0  0
  143.7000   78.4518  217.1783 H   0  0  0  0  0  0  0  0  0  0  0  0
  138.0201   77.3201  222.5488 H   0  0  0  0  0  0  0  0  0  0  0  0
  138.2748   79.7068  223.2091 H   0  0  0  0  0  0  0  0  0  0  0  0
  139.6556   81.5800  223.7055 H   0  0  0  0  0  0  0  0  0  0  0  0
  141.9331   82.5027  223.9220 H   0  0  0  0  0  0  0  0  0  0  0  0
  143.9286   81.1729  223.5139 H   0  0  0  0  0  0  0  0  0  0  0  0
  143.7096   78.7813  222.8498 H   0  0  0  0  0  0  0  0  0  0  0  0
  1  2  2  0
  2  3  1  0
  3  4  1  0
  4  5  1  0
  5  6  2  0
  5  7  1  0
  7  8  1  0
  8  9  1  0
  9 10  1  0
  9 11  1  0
 11 12  1  0
 12 13  1  0
 13 14  1  0
 14 15  1  0
 15 16  1  0
 16 17  1  0
 17 18  1  0
  2 19  1  0
 19 20  2  0
 20 21  1  0
 21 22  2  0
 22 23  1  0
 23 24  2  0
 24 25  1  0
 25 26  2  0
 26 27  1  0
 27 28  2  0
 12  7  1  0
 18 14  1  0
 28 19  1  0
 27 22  1  0
  3 29  1  0
  4 30  1  0
  4 31  1  0
  8 32  1  0
  8 33  1  0
  9 34  1  6
 11 35  1  0
 11 36  1  0
 12 37  1  1
 13 38  1  0
 13 39  1  0
 15 40  1  0
 15 41  1  0
 16 42  1  0
 16 43  1  0
 17 44  1  0
 17 45  1  0
 18 46  1  0
 18 47  1  0
 20 48  1  0
 21 49  1  0
 23 50  1  0
 24 51  1  0
 25 52  1  0
 26 53  1  0
M  END
>  <smiles>  (38) 
O=C(NCC(=O)N1C[C@H](F)C[C@H]1CN1CCCC1)c1ccc2ccccc2n1

>  <score_type>  (38) 
oracle

>  <origin>  (38) 
autodockgpu

>  <m_score__min__energy>  (38) 
-8.3699999999999992

>  <m_primary>  (38) 
energy

>  <rmsd>  (38) 
7.102887927106941

>  <m_score__min__rmsd>  (38) 
7.102887927106941

>  <meeko>  (38) 
{"free_energy": -6.6, "intermolecular_energy": -8.39, "internal_energy": -2.47, "cluster_size": 6, "cluster_id": 6, "rank_in_cluster": 2}

>  <energy>  (38) 
-7.95

>  <cluster_rmsd>  (38) 
0.25

>  <cluster>  (38) 
4

$$$$

     RDKit          3D

 53 56  0  0  0  0  0  0  0  0999 V2000
  140.1740   71.2950  221.3000 O   0  0  0  0  0  0  0  0  0  0  0  0
  139.9710   71.8810  222.3980 C   0  0  0  0  0  0  0  0  0  0  0  0
  139.7600   73.2850  222.4270 N   0  0  0  0  0  0  0  0  0  0  0  0
  139.7900   74.0050  221.1720 C   0  0  0  0  0  0  0  0  0  0  0  0
  140.0460   75.4380  221.4610 C   0  0  0  0  0  0  0  0  0  0  0  0
  139.8260   75.9740  222.5820 O   0  0  0  0  0  0  0  0  0  0  0  0
  140.5630   76.2290  220.4080 N   0  0  0  0  0  0  0  0  0  0  0  0
  140.0290   76.5010  219.0850 C   0  0  0  0  0  0  0  0  0  0  0  0
  141.2590   76.5720  218.1730 C   0  0  2  0  0  0  0  0  0  0  0  0
  141.2600   75.4550  217.3530 F   0  0  0  0  0  0  0  0  0  0  0  0
  142.4210   76.5260  219.1510 C   0  0  0  0  0  0  0  0  0  0  0  0
  141.8350   77.0210  220.4280 C   0  0  1  0  0  0  0  0  0  0  0  0
  141.5260   78.4500  220.5760 C   0  0  0  0  0  0  0  0  0  0  0  0
  142.1860   79.1220  221.6420 N   0  0  0  0  0  0  0  0  0  0  0  0
  141.5660   78.7760  222.9320 C   0  0  0  0  0  0  0  0  0  0  0  0
  141.8700   79.9480  223.8550 C   0  0  0  0  0  0  0  0  0  0  0  0
  141.7050   81.1100  222.9180 C   0  0  0  0  0  0  0  0  0  0  0  0
  142.0940   80.5660  221.5700 C   0  0  0  0  0  0  0  0  0  0  0  0
  139.9520   71.1310  223.6480 C   0  0  0  0  0  0  0  0  0  0  0  0
  139.5120   69.8280  223.7020 C   0  0  0  0  0  0  0  0  0  0  0  0
  139.5210   69.1590  224.9150 C   0  0  0  0  0  0  0  0  0  0  0  0
  139.9610   69.7840  226.0370 C   0  0  0  0  0  0  0  0  0  0  0  0
  139.9650   69.1120  227.2340 C   0  0  0  0  0  0  0  0  0  0  0  0
  140.4200   69.7930  228.3410 C   0  0  0  0  0  0  0  0  0  0  0  0
  140.8580   71.0800  228.3070 C   0  0  0  0  0  0  0  0  0  0  0  0
  140.8590   71.7640  227.1220 C   0  0  0  0  0  0  0  0  0  0  0  0
  140.4000   71.0890  225.9830 C   0  0  0  0  0  0  0  0  0  0  0  0
  140.3740   71.6960  224.7980 N   0  0  0  0  0  0  0  0  0  0  0  0
  139.5890   73.7710  223.3490 H   0  0  0  0  0  0  0  0  0  0  0  0
  140.5917   73.6056  220.5335 H   0  0  0  0  0  0  0  0  0  0  0  0
  138.8301   73.8906  220.6472 H   0  0  0  0  0  0  0  0  0  0  0  0
  139.3557   75.6921  218.7651 H   0  0  0  0  0  0  0  0  0  0  0  0
  139.4384   77.4286  219.0584 H   0  0  0  0  0  0  0  0  0  0  0  0
  141.2961   77.4588  217.5232 H   0  0  0  0  0  0  0  0  0  0  0  0
  142.7960   75.4982  219.2650 H   0  0  0  0  0  0  0  0  0  0  0  0
  143.2799   77.1270  218.8176 H   0  0  0  0  0  0  0  0  0  0  0  0
  142.5502   76.9011  221.2551 H   0  0  0  0  0  0  0  0  0  0  0  0
  141.8026   78.9534  219.6379 H   0  0  0  0  0  0  0  0  0  0  0  0
  140.4529   78.4991  220.8127 H   0  0  0  0  0  0  0  0  0  0  0  0
  140.4795   78.6501  222.8152 H   0  0  0  0  0  0  0  0  0  0  0  0
  141.9565   77.8287  223.3321 H   0  0  0  0  0  0  0  0  0  0  0  0
  141.1555   79.9991  224.6898 H   0  0  0  0  0  0  0  0  0  0  0  0
  142.8562   79.8962  224.3395 H   0  0  0  0  0  0  0  0  0  0  0  0
  140.6615   81.4580  222.9103 H   0  0  0  0  0  0  0  0  0  0  0  0
  142.3178   81.9748  223.2125 H   0  0  0  0  0  0  0  0  0  0  0  0
  141.3338   80.8487  220.8269 H   0  0  0  0  0  0  0  0  0  0  0  0
  143.0682   80.9818  221.2732 H   0  0  0  0  0  0  0  0  0  0  0  0
  139.1569   69.3231  222.7915 H   0  0  0  0  0  0  0  0  0  0  0  0
  139.1704   68.1178  224.9693 H   0  0  0  0  0  0  0  0  0  0  0  0
  139.6184   68.0705  227.3060 H   0  0  0  0  0  0  0  0  0  0  0  0
  140.4297   69.2665  229.3068 H   0  0  0  0  0  0  0  0  0  0  0  0
  141.2097   71.5687  229.2276 H   0  0  0  0  0  0  0  0  0  0  0  0
  141.2074   72.8058  227.0655 H   0  0  0  0  0  0  0  0  0  0  0  0
  1  2  2  0
  2  3  1  0
  3  4  1  0
  4  5  1  0
  5  6  2  0
  5  7  1  0
  7  8  1  0
  8  9  1  0
  9 10  1  0
  9 11  1  0
 11 12  1  0
 12 13  1  0
 13 14  1  0
 14 15  1  0
 15 16  1  0
 16 17  1  0
 17 18  1  0
  2 19  1  0
 19 20  2  0
 20 21  1  0
 21 22  2  0
 22 23  1  0
 23 24  2  0
 24 25  1  0
 25 26  2  0
 26 27  1  0
 27 28  2  0
 12  7  1  0
 18 14  1  0
 28 19  1  0
 27 22  1  0
  3 29  1  0
  4 30  1  0
  4 31  1  0
  8 32  1  0
  8 33  1  0
  9 34  1  6
 11 35  1  0
 11 36  1  0
 12 37  1  1
 13 38  1  0
 13 39  1  0
 15 40  1  0
 15 41  1  0
 16 42  1  0
 16 43  1  0
 17 44  1  0
 17 45  1  0
 18 46  1  0
 18 47  1  0
 20 48  1  0
 21 49  1  0
 23 50  1  0
 24 51  1  0
 25 52  1  0
 26 53  1  0
M  END
>  <smiles>  (39) 
O=C(NCC(=O)N1C[C@H](F)C[C@H]1CN1CCCC1)c1ccc2ccccc2n1

>  <score_type>  (39) 
oracle

>  <origin>  (39) 
autodockgpu

>  <m_score__min__energy>  (39) 
-8.3699999999999992

>  <m_primary>  (39) 
energy

>  <rmsd>  (39) 
1.651023025516905

>  <m_score__min__rmsd>  (39) 
1.651023025516905

>  <meeko>  (39) 
{"free_energy": -8.0, "intermolecular_energy": -9.79, "internal_energy": -1.8, "cluster_size": 29, "cluster_id": 1, "rank_in_cluster": 22}

>  <energy>  (39) 
-7.74

>  <cluster_rmsd>  (39) 
0.53

>  <cluster>  (39) 
4

$$$$

     RDKit          3D

 53 56  0  0  0  0  0  0  0  0999 V2000
  138.2480   70.9160  221.8380 O   0  0  0  0  0  0  0  0  0  0  0  0
  138.9270   71.3140  222.8230 C   0  0  0  0  0  0  0  0  0  0  0  0
  139.4300   72.6420  222.8510 N   0  0  0  0  0  0  0  0  0  0  0  0
  139.1440   73.5030  221.7240 C   0  0  0  0  0  0  0  0  0  0  0  0
  140.1950   74.5480  221.6570 C   0  0  0  0  0  0  0  0  0  0  0  0
  141.4090   74.3360  221.9270 O   0  0  0  0  0  0  0  0  0  0  0  0
  139.7920   75.8480  221.2680 N   0  0  0  0  0  0  0  0  0  0  0  0
  138.4690   76.3840  221.0050 C   0  0  0  0  0  0  0  0  0  0  0  0
  138.6680   77.3720  219.8490 C   0  0  2  0  0  0  0  0  0  0  0  0
  138.0880   76.8360  218.7110 F   0  0  0  0  0  0  0  0  0  0  0  0
  140.1780   77.4390  219.7060 C   0  0  0  0  0  0  0  0  0  0  0  0
  140.6850   77.0300  221.0460 C   0  0  1  0  0  0  0  0  0  0  0  0
  140.5660   77.9600  222.1780 C   0  0  0  0  0  0  0  0  0  0  0  0
  141.5390   78.9960  222.2360 N   0  0  0  0  0  0  0  0  0  0  0  0
  142.1610   79.0460  223.5700 C   0  0  0  0  0  0  0  0  0  0  0  0
  142.6540   80.4770  223.7340 C   0  0  0  0  0  0  0  0  0  0  0  0
  141.5330   81.2480  223.0980 C   0  0  0  0  0  0  0  0  0  0  0  0
  140.9910   80.3230  222.0410 C   0  0  0  0  0  0  0  0  0  0  0  0
  139.2050   70.4220  223.9420 C   0  0  0  0  0  0  0  0  0  0  0  0
  138.8800   69.0850  223.8980 C   0  0  0  0  0  0  0  0  0  0  0  0
  139.1730   68.2800  224.9880 C   0  0  0  0  0  0  0  0  0  0  0  0
  139.7740   68.8070  226.0850 C   0  0  0  0  0  0  0  0  0  0  0  0
  140.0590   68.0010  227.1590 C   0  0  0  0  0  0  0  0  0  0  0  0
  140.6680   68.5850  228.2450 C   0  0  0  0  0  0  0  0  0  0  0  0
  140.9970   69.9040  228.3070 C   0  0  0  0  0  0  0  0  0  0  0  0
  140.7180   70.7210  227.2460 C   0  0  0  0  0  0  0  0  0  0  0  0
  140.0980   70.1450  226.1290 C   0  0  0  0  0  0  0  0  0  0  0  0
  139.7990   70.8840  225.0610 N   0  0  0  0  0  0  0  0  0  0  0  0
  139.9960   72.9700  223.6800 H   0  0  0  0  0  0  0  0  0  0  0  0
  139.1463   72.9132  220.7955 H   0  0  0  0  0  0  0  0  0  0  0  0
  138.1545   73.9682  221.8442 H   0  0  0  0  0  0  0  0  0  0  0  0
  137.7766   75.5806  220.7130 H   0  0  0  0  0  0  0  0  0  0  0  0
  138.0329   76.8662  221.8923 H   0  0  0  0  0  0  0  0  0  0  0  0
  138.2199   78.3634  220.0117 H   0  0  0  0  0  0  0  0  0  0  0  0
  140.5282   76.7457  218.9271 H   0  0  0  0  0  0  0  0  0  0  0  0
  140.5312   78.4366  219.4059 H   0  0  0  0  0  0  0  0  0  0  0  0
  141.7775   76.9031  221.0256 H   0  0  0  0  0  0  0  0  0  0  0  0
  139.5739   78.4321  222.1235 H   0  0  0  0  0  0  0  0  0  0  0  0
  140.7246   77.3518  223.0808 H   0  0  0  0  0  0  0  0  0  0  0  0
  141.4227   78.8019  224.3481 H   0  0  0  0  0  0  0  0  0  0  0  0
  142.9800   78.3180  223.6666 H   0  0  0  0  0  0  0  0  0  0  0  0
  142.7746   80.7425  224.7946 H   0  0  0  0  0  0  0  0  0  0  0  0
  143.6417   80.6674  223.2888 H   0  0  0  0  0  0  0  0  0  0  0  0
  140.7568   81.4883  223.8395 H   0  0  0  0  0  0  0  0  0  0  0  0
  141.8701   82.2082  222.6804 H   0  0  0  0  0  0  0  0  0  0  0  0
  139.8944   80.2819  222.1165 H   0  0  0  0  0  0  0  0  0  0  0  0
  141.2754   80.6954  221.0458 H   0  0  0  0  0  0  0  0  0  0  0  0
  138.3932   68.6601  223.0078 H   0  0  0  0  0  0  0  0  0  0  0  0
  138.9175   67.2104  224.9638 H   0  0  0  0  0  0  0  0  0  0  0  0
  139.8100   66.9296  227.1513 H   0  0  0  0  0  0  0  0  0  0  0  0
  140.9023   67.9502  229.1123 H   0  0  0  0  0  0  0  0  0  0  0  0
  141.4845   70.3109  229.2052 H   0  0  0  0  0  0  0  0  0  0  0  0
  140.9711   71.7912  227.2687 H   0  0  0  0  0  0  0  0  0  0  0  0
  1  2  2  0
  2  3  1  0
  3  4  1  0
  4  5  1  0
  5  6  2  0
  5  7  1  0
  7  8  1  0
  8  9  1  0
  9 10  1  0
  9 11  1  0
 11 12  1  0
 12 13  1  0
 13 14  1  0
 14 15  1  0
 15 16  1  0
 16 17  1  0
 17 18  1  0
  2 19  1  0
 19 20  2  0
 20 21  1  0
 21 22  2  0
 22 23  1  0
 23 24  2  0
 24 25  1  0
 25 26  2  0
 26 27  1  0
 27 28  2  0
 12  7  1  0
 18 14  1  0
 28 19  1  0
 27 22  1  0
  3 29  1  0
  4 30  1  0
  4 31  1  0
  8 32  1  0
  8 33  1  0
  9 34  1  1
 11 35  1  0
 11 36  1  0
 12 37  1  6
 13 38  1  0
 13 39  1  0
 15 40  1  0
 15 41  1  0
 16 42  1  0
 16 43  1  0
 17 44  1  0
 17 45  1  0
 18 46  1  0
 18 47  1  0
 20 48  1  0
 21 49  1  0
 23 50  1  0
 24 51  1  0
 25 52  1  0
 26 53  1  0
M  END
>  <smiles>  (40) 
O=C(NCC(=O)N1C[C@H](F)C[C@H]1CN1CCCC1)c1ccc2ccccc2n1

>  <score_type>  (40) 
oracle

>  <origin>  (40) 
autodockgpu

>  <m_score__min__energy>  (40) 
-8.3699999999999992

>  <m_primary>  (40) 
energy

>  <rmsd>  (40) 
1.9126113150976374

>  <m_score__min__rmsd>  (40) 
1.9126113150976374

>  <meeko>  (40) 
{"free_energy": -7.53, "intermolecular_energy": -9.32, "internal_energy": -1.56, "cluster_size": 29, "cluster_id": 1, "rank_in_cluster": 29}

>  <energy>  (40) 
-7.56

>  <cluster_rmsd>  (40) 
0.43

>  <cluster>  (40) 
4

$$$$

     RDKit          3D

 53 56  0  0  0  0  0  0  0  0999 V2000
  140.8870   71.6170  221.3360 O   0  0  0  0  0  0  0  0  0  0  0  0
  140.3980   72.1490  222.3690 C   0  0  0  0  0  0  0  0  0  0  0  0
  139.9750   73.5040  222.3410 N   0  0  0  0  0  0  0  0  0  0  0  0
  140.1280   74.2400  221.1040 C   0  0  0  0  0  0  0  0  0  0  0  0
  140.0950   75.6900  221.4170 C   0  0  0  0  0  0  0  0  0  0  0  0
  139.6000   76.1650  222.4750 O   0  0  0  0  0  0  0  0  0  0  0  0
  140.6530   76.5720  220.4610 N   0  0  0  0  0  0  0  0  0  0  0  0
  140.2630   76.8400  219.0880 C   0  0  0  0  0  0  0  0  0  0  0  0
  141.5830   77.0730  218.3440 C   0  0  2  0  0  0  0  0  0  0  0  0
  141.8050   75.9960  217.5010 F   0  0  0  0  0  0  0  0  0  0  0  0
  142.6110   77.1070  219.4610 C   0  0  0  0  0  0  0  0  0  0  0  0
  141.8200   77.4880  220.6650 C   0  0  1  0  0  0  0  0  0  0  0  0
  141.3450   78.8710  220.8100 C   0  0  0  0  0  0  0  0  0  0  0  0
  142.1730   79.7360  221.5790 N   0  0  0  0  0  0  0  0  0  0  0  0
  142.2440   79.2740  222.9750 C   0  0  0  0  0  0  0  0  0  0  0  0
  142.5690   80.5150  223.7950 C   0  0  0  0  0  0  0  0  0  0  0  0
  141.7340   81.5530  223.1010 C   0  0  0  0  0  0  0  0  0  0  0  0
  141.6760   81.0930  221.6690 C   0  0  0  0  0  0  0  0  0  0  0  0
  140.2620   71.3850  223.6030 C   0  0  0  0  0  0  0  0  0  0  0  0
  139.6960   70.1300  223.6170 C   0  0  0  0  0  0  0  0  0  0  0  0
  139.5970   69.4440  224.8180 C   0  0  0  0  0  0  0  0  0  0  0  0
  140.0550   70.0060  225.9660 C   0  0  0  0  0  0  0  0  0  0  0  0
  139.9520   69.3180  227.1490 C   0  0  0  0  0  0  0  0  0  0  0  0
  140.4310   69.9340  228.2830 C   0  0  0  0  0  0  0  0  0  0  0  0
  140.9930   71.1720  228.2890 C   0  0  0  0  0  0  0  0  0  0  0  0
  141.1030   71.8710  227.1180 C   0  0  0  0  0  0  0  0  0  0  0  0
  140.6210   71.2620  225.9510 C   0  0  0  0  0  0  0  0  0  0  0  0
  140.6960   71.8870  224.7770 N   0  0  0  0  0  0  0  0  0  0  0  0
  139.5650   73.9430  223.2090 H   0  0  0  0  0  0  0  0  0  0  0  0
  141.0890   73.9827  220.6346 H   0  0  0  0  0  0  0  0  0  0  0  0
  139.3156   73.9841  220.4080 H   0  0  0  0  0  0  0  0  0  0  0  0
  139.7253   75.9796  218.6630 H   0  0  0  0  0  0  0  0  0  0  0  0
  139.5847   77.7024  219.0100 H   0  0  0  0  0  0  0  0  0  0  0  0
  141.6069   77.9843  217.7284 H   0  0  0  0  0  0  0  0  0  0  0  0
  143.0762   76.1192  219.5949 H   0  0  0  0  0  0  0  0  0  0  0  0
  143.4359   77.8055  219.2570 H   0  0  0  0  0  0  0  0  0  0  0  0
  142.4345   77.4087  221.5739 H   0  0  0  0  0  0  0  0  0  0  0  0
  141.2512   79.3023  219.8025 H   0  0  0  0  0  0  0  0  0  0  0  0
  140.3947   78.8028  221.3598 H   0  0  0  0  0  0  0  0  0  0  0  0
  141.2800   78.8469  223.2886 H   0  0  0  0  0  0  0  0  0  0  0  0
  143.0003   78.4863  223.1075 H   0  0  0  0  0  0  0  0  0  0  0  0
  142.2685   80.3932  224.8461 H   0  0  0  0  0  0  0  0  0  0  0  0
  143.6412   80.7564  223.8413 H   0  0  0  0  0  0  0  0  0  0  0  0
  140.7250   81.5957  223.5370 H   0  0  0  0  0  0  0  0  0  0  0  0
  142.1561   82.5640  223.1992 H   0  0  0  0  0  0  0  0  0  0  0  0
  140.6352   81.1269  221.3146 H   0  0  0  0  0  0  0  0  0  0  0  0
  142.2965   81.7536  221.0456 H   0  0  0  0  0  0  0  0  0  0  0  0
  139.3263   69.6764  222.6856 H   0  0  0  0  0  0  0  0  0  0  0  0
  139.1459   68.4410  224.8407 H   0  0  0  0  0  0  0  0  0  0  0  0
  139.5044   68.3140  227.1894 H   0  0  0  0  0  0  0  0  0  0  0  0
  140.3548   69.3941  229.2384 H   0  0  0  0  0  0  0  0  0  0  0  0
  141.3573   71.6093  229.2303 H   0  0  0  0  0  0  0  0  0  0  0  0
  141.5533   72.8743  227.0932 H   0  0  0  0  0  0  0  0  0  0  0  0
  1  2  2  0
  2  3  1  0
  3  4  1  0
  4  5  1  0
  5  6  2  0
  5  7  1  0
  7  8  1  0
  8  9  1  0
  9 10  1  0
  9 11  1  0
 11 12  1  0
 12 13  1  0
 13 14  1  0
 14 15  1  0
 15 16  1  0
 16 17  1  0
 17 18  1  0
  2 19  1  0
 19 20  2  0
 20 21  1  0
 21 22  2  0
 22 23  1  0
 23 24  2  0
 24 25  1  0
 25 26  2  0
 26 27  1  0
 27 28  2  0
 12  7  1  0
 18 14  1  0
 28 19  1  0
 27 22  1  0
  3 29  1  0
  4 30  1  0
  4 31  1  0
  8 32  1  0
  8 33  1  0
  9 34  1  6
 11 35  1  0
 11 36  1  0
 12 37  1  1
 13 38  1  0
 13 39  1  0
 15 40  1  0
 15 41  1  0
 16 42  1  0
 16 43  1  0
 17 44  1  0
 17 45  1  0
 18 46  1  0
 18 47  1  0
 20 48  1  0
 21 49  1  0
 23 50  1  0
 24 51  1  0
 25 52  1  0
 26 53  1  0
M  END
>  <smiles>  (41) 
O=C(NCC(=O)N1C[C@H](F)C[C@H]1CN1CCCC1)c1ccc2ccccc2n1

>  <score_type>  (41) 
oracle

>  <origin>  (41) 
autodockgpu

>  <m_score__min__energy>  (41) 
-8.3699999999999992

>  <m_primary>  (41) 
energy

>  <rmsd>  (41) 
1.9069215337534666

>  <m_score__min__rmsd>  (41) 
1.9069215337534666

>  <meeko>  (41) 
{"free_energy": -8.27, "intermolecular_energy": -10.06, "internal_energy": -1.69, "cluster_size": 29, "cluster_id": 1, "rank_in_cluster": 12}

>  <energy>  (41) 
-7.52

>  <cluster_rmsd>  (41) 
0.48

>  <cluster>  (41) 
4

$$$$

     RDKit          3D

 53 56  0  0  0  0  0  0  0  0999 V2000
  140.7310   71.4540  221.3360 O   0  0  0  0  0  0  0  0  0  0  0  0
  140.2880   72.0310  222.3660 C   0  0  0  0  0  0  0  0  0  0  0  0
  139.9110   73.4000  222.3090 N   0  0  0  0  0  0  0  0  0  0  0  0
  140.0570   74.0950  221.0480 C   0  0  0  0  0  0  0  0  0  0  0  0
  140.3460   75.5220  221.3330 C   0  0  0  0  0  0  0  0  0  0  0  0
  140.0830   76.0820  222.4320 O   0  0  0  0  0  0  0  0  0  0  0  0
  140.9500   76.2780  220.3000 N   0  0  0  0  0  0  0  0  0  0  0  0
  140.7040   76.2820  218.8690 C   0  0  0  0  0  0  0  0  0  0  0  0
  142.0830   76.5030  218.2350 C   0  0  2  0  0  0  0  0  0  0  0  0
  142.4740   75.3250  217.6200 F   0  0  0  0  0  0  0  0  0  0  0  0
  142.9690   76.8100  219.4290 C   0  0  0  0  0  0  0  0  0  0  0  0
  142.0200   77.3140  220.4610 C   0  0  1  0  0  0  0  0  0  0  0  0
  141.4380   78.6550  220.3140 C   0  0  0  0  0  0  0  0  0  0  0  0
  141.1160   79.3300  221.5250 N   0  0  0  0  0  0  0  0  0  0  0  0
  141.8420   80.6080  221.6120 C   0  0  0  0  0  0  0  0  0  0  0  0
  141.9490   80.9120  223.1000 C   0  0  0  0  0  0  0  0  0  0  0  0
  142.2130   79.5450  223.6620 C   0  0  0  0  0  0  0  0  0  0  0  0
  141.5070   78.6070  222.7180 C   0  0  0  0  0  0  0  0  0  0  0  0
  140.1580   71.3070  223.6240 C   0  0  0  0  0  0  0  0  0  0  0  0
  139.5780   70.0600  223.6840 C   0  0  0  0  0  0  0  0  0  0  0  0
  139.4860   69.4130  224.9060 C   0  0  0  0  0  0  0  0  0  0  0  0
  139.9650   70.0040  226.0300 C   0  0  0  0  0  0  0  0  0  0  0  0
  139.8680   69.3550  227.2360 C   0  0  0  0  0  0  0  0  0  0  0  0
  140.3680   69.9990  228.3440 C   0  0  0  0  0  0  0  0  0  0  0  0
  140.9450   71.2300  228.3050 C   0  0  0  0  0  0  0  0  0  0  0  0
  141.0480   71.8910  227.1110 C   0  0  0  0  0  0  0  0  0  0  0  0
  140.5450   71.2530  225.9710 C   0  0  0  0  0  0  0  0  0  0  0  0
  140.6130   71.8410  224.7770 N   0  0  0  0  0  0  0  0  0  0  0  0
  139.5400   73.8770  223.1740 H   0  0  0  0  0  0  0  0  0  0  0  0
  140.8862   73.6549  220.4747 H   0  0  0  0  0  0  0  0  0  0  0  0
  139.1334   74.0061  220.4573 H   0  0  0  0  0  0  0  0  0  0  0  0
  140.2788   75.3202  218.5462 H   0  0  0  0  0  0  0  0  0  0  0  0
  139.9822   77.0578  218.5740 H   0  0  0  0  0  0  0  0  0  0  0  0
  142.1164   77.2985  217.4761 H   0  0  0  0  0  0  0  0  0  0  0  0
  143.4817   75.9020  219.7793 H   0  0  0  0  0  0  0  0  0  0  0  0
  143.7621   77.5347  219.1928 H   0  0  0  0  0  0  0  0  0  0  0  0
  142.5286   77.4399  221.4282 H   0  0  0  0  0  0  0  0  0  0  0  0
  142.1593   79.2767  219.7633 H   0  0  0  0  0  0  0  0  0  0  0  0
  140.4809   78.5081  219.7920 H   0  0  0  0  0  0  0  0  0  0  0  0
  142.8429   80.5132  221.1657 H   0  0  0  0  0  0  0  0  0  0  0  0
  141.3238   81.4107  221.0668 H   0  0  0  0  0  0  0  0  0  0  0  0
  142.7797   81.6014  223.3113 H   0  0  0  0  0  0  0  0  0  0  0  0
  141.0636   81.4093  223.5227 H   0  0  0  0  0  0  0  0  0  0  0  0
  143.2926   79.3352  223.6837 H   0  0  0  0  0  0  0  0  0  0  0  0
  141.8573   79.4425  224.6978 H   0  0  0  0  0  0  0  0  0  0  0  0
  142.1837   77.7844  222.4435 H   0  0  0  0  0  0  0  0  0  0  0  0
  140.6124   78.1961  223.2087 H   0  0  0  0  0  0  0  0  0  0  0  0
  139.1917   69.5822  222.7716 H   0  0  0  0  0  0  0  0  0  0  0  0
  139.0231   68.4169  224.9653 H   0  0  0  0  0  0  0  0  0  0  0  0
  139.4083   68.3587  227.3132 H   0  0  0  0  0  0  0  0  0  0  0  0
  140.2971   69.4896  229.3164 H   0  0  0  0  0  0  0  0  0  0  0  0
  141.3266   71.6916  229.2276 H   0  0  0  0  0  0  0  0  0  0  0  0
  141.5094   72.8876  227.0494 H   0  0  0  0  0  0  0  0  0  0  0  0
  1  2  2  0
  2  3  1  0
  3  4  1  0
  4  5  1  0
  5  6  2  0
  5  7  1  0
  7  8  1  0
  8  9  1  0
  9 10  1  0
  9 11  1  0
 11 12  1  0
 12 13  1  0
 13 14  1  0
 14 15  1  0
 15 16  1  0
 16 17  1  0
 17 18  1  0
  2 19  1  0
 19 20  2  0
 20 21  1  0
 21 22  2  0
 22 23  1  0
 23 24  2  0
 24 25  1  0
 25 26  2  0
 26 27  1  0
 27 28  2  0
 12  7  1  0
 18 14  1  0
 28 19  1  0
 27 22  1  0
  3 29  1  0
  4 30  1  0
  4 31  1  0
  8 32  1  0
  8 33  1  0
  9 34  1  6
 11 35  1  0
 11 36  1  0
 12 37  1  1
 13 38  1  0
 13 39  1  0
 15 40  1  0
 15 41  1  0
 16 42  1  0
 16 43  1  0
 17 44  1  0
 17 45  1  0
 18 46  1  0
 18 47  1  0
 20 48  1  0
 21 49  1  0
 23 50  1  0
 24 51  1  0
 25 52  1  0
 26 53  1  0
M  END
>  <smiles>  (42) 
O=C(NCC(=O)N1C[C@H](F)C[C@H]1CN1CCCC1)c1ccc2ccccc2n1

>  <score_type>  (42) 
oracle

>  <origin>  (42) 
autodockgpu

>  <m_score__min__energy>  (42) 
-8.3699999999999992

>  <m_primary>  (42) 
energy

>  <rmsd>  (42) 
2.2309444791242052

>  <m_score__min__rmsd>  (42) 
2.2309444791242052

>  <meeko>  (42) 
{"free_energy": -8.31, "intermolecular_energy": -10.1, "internal_energy": -1.74, "cluster_size": 29, "cluster_id": 1, "rank_in_cluster": 3}

>  <energy>  (42) 
-7.47

>  <cluster_rmsd>  (42) 
1.07

>  <cluster>  (42) 
4

$$$$

     RDKit          3D

 53 56  0  0  0  0  0  0  0  0999 V2000
  140.8410   71.3390  221.3260 O   0  0  0  0  0  0  0  0  0  0  0  0
  140.3710   71.9400  222.3310 C   0  0  0  0  0  0  0  0  0  0  0  0
  140.0170   73.3120  222.2380 N   0  0  0  0  0  0  0  0  0  0  0  0
  140.2160   73.9840  220.9720 C   0  0  0  0  0  0  0  0  0  0  0  0
  140.7760   75.3310  221.2410 C   0  0  0  0  0  0  0  0  0  0  0  0
  140.6100   75.9520  222.3250 O   0  0  0  0  0  0  0  0  0  0  0  0
  141.5340   75.9340  220.2090 N   0  0  0  0  0  0  0  0  0  0  0  0
  142.2160   77.2160  220.1690 C   0  0  0  0  0  0  0  0  0  0  0  0
  142.0440   77.7070  218.7270 C   0  0  2  0  0  0  0  0  0  0  0  0
  141.1690   78.7810  218.7320 F   0  0  0  0  0  0  0  0  0  0  0  0
  141.4260   76.5100  218.0240 C   0  0  0  0  0  0  0  0  0  0  0  0
  141.8350   75.3490  218.8630 C   0  0  1  0  0  0  0  0  0  0  0  0
  143.2290   74.8860  218.8250 C   0  0  0  0  0  0  0  0  0  0  0  0
  143.6220   74.0110  219.8760 N   0  0  0  0  0  0  0  0  0  0  0  0
  144.8450   74.5060  220.5290 C   0  0  0  0  0  0  0  0  0  0  0  0
  145.5070   73.2760  221.1340 C   0  0  0  0  0  0  0  0  0  0  0  0
  145.2610   72.2520  220.0620 C   0  0  0  0  0  0  0  0  0  0  0  0
  143.9630   72.6760  219.4280 C   0  0  0  0  0  0  0  0  0  0  0  0
  140.1880   71.2390  223.5960 C   0  0  0  0  0  0  0  0  0  0  0  0
  139.5560   70.0180  223.6600 C   0  0  0  0  0  0  0  0  0  0  0  0
  139.4130   69.3920  224.8890 C   0  0  0  0  0  0  0  0  0  0  0  0
  139.8950   69.9790  226.0140 C   0  0  0  0  0  0  0  0  0  0  0  0
  139.7480   69.3510  227.2260 C   0  0  0  0  0  0  0  0  0  0  0  0
  140.2540   69.9890  228.3360 C   0  0  0  0  0  0  0  0  0  0  0  0
  140.8810   71.1950  228.2910 C   0  0  0  0  0  0  0  0  0  0  0  0
  141.0340   71.8350  227.0920 C   0  0  0  0  0  0  0  0  0  0  0  0
  140.5270   71.2020  225.9500 C   0  0  0  0  0  0  0  0  0  0  0  0
  140.6420   71.7700  224.7500 N   0  0  0  0  0  0  0  0  0  0  0  0
  139.6230   73.8090  223.0820 H   0  0  0  0  0  0  0  0  0  0  0  0
  140.9173   73.4071  220.3512 H   0  0  0  0  0  0  0  0  0  0  0  0
  139.2595   74.0720  220.4359 H   0  0  0  0  0  0  0  0  0  0  0  0
  141.7558   77.9219  220.8761 H   0  0  0  0  0  0  0  0  0  0  0  0
  143.2748   77.1319  220.4552 H   0  0  0  0  0  0  0  0  0  0  0  0
  142.9738   78.0411  218.2435 H   0  0  0  0  0  0  0  0  0  0  0  0
  140.3303   76.6001  217.9885 H   0  0  0  0  0  0  0  0  0  0  0  0
  141.7570   76.4150  216.9793 H   0  0  0  0  0  0  0  0  0  0  0  0
  141.3271   74.4315  218.5310 H   0  0  0  0  0  0  0  0  0  0  0  0
  143.3831   74.3587  217.8720 H   0  0  0  0  0  0  0  0  0  0  0  0
  143.8460   75.7890  218.9430 H   0  0  0  0  0  0  0  0  0  0  0  0
  145.5109   74.9778  219.7915 H   0  0  0  0  0  0  0  0  0  0  0  0
  144.6221   75.2670  221.2914 H   0  0  0  0  0  0  0  0  0  0  0  0
  146.5827   73.4371  221.2977 H   0  0  0  0  0  0  0  0  0  0  0  0
  145.1168   72.9951  222.1234 H   0  0  0  0  0  0  0  0  0  0  0  0
  146.0756   72.2592  219.3228 H   0  0  0  0  0  0  0  0  0  0  0  0
  145.2166   71.2286  220.4628 H   0  0  0  0  0  0  0  0  0  0  0  0
  144.0710   72.6727  218.3333 H   0  0  0  0  0  0  0  0  0  0  0  0
  143.1660   71.9760  219.7191 H   0  0  0  0  0  0  0  0  0  0  0  0
  139.1686   69.5439  222.7461 H   0  0  0  0  0  0  0  0  0  0  0  0
  138.9076   68.4171  224.9525 H   0  0  0  0  0  0  0  0  0  0  0  0
  139.2454   68.3759  227.3070 H   0  0  0  0  0  0  0  0  0  0  0  0
  140.1452   69.4961  229.3133 H   0  0  0  0  0  0  0  0  0  0  0  0
  141.2634   71.6537  229.2148 H   0  0  0  0  0  0  0  0  0  0  0  0
  141.5368   72.8112  227.0269 H   0  0  0  0  0  0  0  0  0  0  0  0
  1  2  2  0
  2  3  1  0
  3  4  1  0
  4  5  1  0
  5  6  2  0
  5  7  1  0
  7  8  1  0
  8  9  1  0
  9 10  1  0
  9 11  1  0
 11 12  1  0
 12 13  1  0
 13 14  1  0
 14 15  1  0
 15 16  1  0
 16 17  1  0
 17 18  1  0
  2 19  1  0
 19 20  2  0
 20 21  1  0
 21 22  2  0
 22 23  1  0
 23 24  2  0
 24 25  1  0
 25 26  2  0
 26 27  1  0
 27 28  2  0
 12  7  1  0
 18 14  1  0
 28 19  1  0
 27 22  1  0
  3 29  1  0
  4 30  1  0
  4 31  1  0
  8 32  1  0
  8 33  1  0
  9 34  1  6
 11 35  1  0
 11 36  1  0
 12 37  1  6
 13 38  1  0
 13 39  1  0
 15 40  1  0
 15 41  1  0
 16 42  1  0
 16 43  1  0
 17 44  1  0
 17 45  1  0
 18 46  1  0
 18 47  1  0
 20 48  1  0
 21 49  1  0
 23 50  1  0
 24 51  1  0
 25 52  1  0
 26 53  1  0
M  END
>  <smiles>  (43) 
O=C(NCC(=O)N1C[C@H](F)C[C@H]1CN1CCCC1)c1ccc2ccccc2n1

>  <score_type>  (43) 
oracle

>  <origin>  (43) 
autodockgpu

>  <m_score__min__energy>  (43) 
-8.3699999999999992

>  <m_primary>  (43) 
energy

>  <rmsd>  (43) 
4.248568415066178

>  <m_score__min__rmsd>  (43) 
4.248568415066178

>  <meeko>  (43) 
{"free_energy": -7.74, "intermolecular_energy": -9.53, "internal_energy": -1.94, "cluster_size": 9, "cluster_id": 4, "rank_in_cluster": 5}

>  <energy>  (43) 
-7.4

>  <cluster_rmsd>  (43) 
0.51

>  <cluster>  (43) 
4

$$$$

     RDKit          3D

 53 56  0  0  0  0  0  0  0  0999 V2000
  139.6850   71.0780  221.3510 O   0  0  0  0  0  0  0  0  0  0  0  0
  139.6890   71.6730  222.4630 C   0  0  0  0  0  0  0  0  0  0  0  0
  139.5740   73.0880  222.5140 N   0  0  0  0  0  0  0  0  0  0  0  0
  139.4600   73.8080  221.2640 C   0  0  0  0  0  0  0  0  0  0  0  0
  138.9670   75.1760  221.5570 C   0  0  0  0  0  0  0  0  0  0  0  0
  137.9200   75.4150  222.2180 O   0  0  0  0  0  0  0  0  0  0  0  0
  139.7280   76.2600  221.0570 N   0  0  0  0  0  0  0  0  0  0  0  0
  139.5310   77.0840  219.8780 C   0  0  0  0  0  0  0  0  0  0  0  0
  140.9450   77.3800  219.3650 C   0  0  2  0  0  0  0  0  0  0  0  0
  141.1370   76.6820  218.1840 F   0  0  0  0  0  0  0  0  0  0  0  0
  141.8360   76.8330  220.4670 C   0  0  0  0  0  0  0  0  0  0  0  0
  140.9620   76.8430  221.6740 C   0  0  1  0  0  0  0  0  0  0  0  0
  140.6360   78.1230  222.3180 C   0  0  0  0  0  0  0  0  0  0  0  0
  141.7110   79.0460  222.4470 N   0  0  0  0  0  0  0  0  0  0  0  0
  141.9330   79.3860  223.8620 C   0  0  0  0  0  0  0  0  0  0  0  0
  142.5900   80.7600  223.8500 C   0  0  0  0  0  0  0  0  0  0  0  0
  141.8370   81.4360  222.7400 C   0  0  0  0  0  0  0  0  0  0  0  0
  141.4680   80.3200  221.8000 C   0  0  0  0  0  0  0  0  0  0  0  0
  139.8120   70.9220  223.7060 C   0  0  0  0  0  0  0  0  0  0  0  0
  139.4740   69.5900  223.7810 C   0  0  0  0  0  0  0  0  0  0  0  0
  139.6170   68.9210  224.9870 C   0  0  0  0  0  0  0  0  0  0  0  0
  140.0860   69.5760  226.0800 C   0  0  0  0  0  0  0  0  0  0  0  0
  140.2230   68.9050  227.2700 C   0  0  0  0  0  0  0  0  0  0  0  0
  140.7020   69.6160  228.3470 C   0  0  0  0  0  0  0  0  0  0  0  0
  141.0400   70.9320  228.2910 C   0  0  0  0  0  0  0  0  0  0  0  0
  140.9080   71.6150  227.1130 C   0  0  0  0  0  0  0  0  0  0  0  0
  140.4230   70.9100  226.0040 C   0  0  0  0  0  0  0  0  0  0  0  0
  140.2700   71.5150  224.8270 N   0  0  0  0  0  0  0  0  0  0  0  0
  139.5770   73.5800  223.4470 H   0  0  0  0  0  0  0  0  0  0  0  0
  140.4443   73.8640  220.7761 H   0  0  0  0  0  0  0  0  0  0  0  0
  138.7613   73.2897  220.5908 H   0  0  0  0  0  0  0  0  0  0  0  0
  138.9493   76.5408  219.1187 H   0  0  0  0  0  0  0  0  0  0  0  0
  138.9706   78.0033  220.1034 H   0  0  0  0  0  0  0  0  0  0  0  0
  141.1431   78.4418  219.1566 H   0  0  0  0  0  0  0  0  0  0  0  0
  142.1663   75.8105  220.2316 H   0  0  0  0  0  0  0  0  0  0  0  0
  142.7534   77.4245  220.6031 H   0  0  0  0  0  0  0  0  0  0  0  0
  141.4549   76.3332  222.5149 H   0  0  0  0  0  0  0  0  0  0  0  0
  139.8459   78.6068  221.7251 H   0  0  0  0  0  0  0  0  0  0  0  0
  140.3356   77.8708  223.3457 H   0  0  0  0  0  0  0  0  0  0  0  0
  140.9764   79.4216  224.4038 H   0  0  0  0  0  0  0  0  0  0  0  0
  142.5597   78.6375  224.3689 H   0  0  0  0  0  0  0  0  0  0  0  0
  142.4497   81.2819  224.8081 H   0  0  0  0  0  0  0  0  0  0  0  0
  143.6803   80.7370  223.7062 H   0  0  0  0  0  0  0  0  0  0  0  0
  140.9349   81.9318  223.1279 H   0  0  0  0  0  0  0  0  0  0  0  0
  142.4325   82.2183  222.2468 H   0  0  0  0  0  0  0  0  0  0  0  0
  140.4034   80.4000  221.5352 H   0  0  0  0  0  0  0  0  0  0  0  0
  142.0781   80.3911  220.8875 H   0  0  0  0  0  0  0  0  0  0  0  0
  139.0945   69.0619  222.8938 H   0  0  0  0  0  0  0  0  0  0  0  0
  139.3497   67.8564  225.0585 H   0  0  0  0  0  0  0  0  0  0  0  0
  139.9602   67.8406  227.3593 H   0  0  0  0  0  0  0  0  0  0  0  0
  140.8178   69.0904  229.3063 H   0  0  0  0  0  0  0  0  0  0  0  0
  141.4175   71.4446  229.1881 H   0  0  0  0  0  0  0  0  0  0  0  0
  141.1733   72.6800  227.0393 H   0  0  0  0  0  0  0  0  0  0  0  0
  1  2  2  0
  2  3  1  0
  3  4  1  0
  4  5  1  0
  5  6  2  0
  5  7  1  0
  7  8  1  0
  8  9  1  0
  9 10  1  0
  9 11  1  0
 11 12  1  0
 12 13  1  0
 13 14  1  0
 14 15  1  0
 15 16  1  0
 16 17  1  0
 17 18  1  0
  2 19  1  0
 19 20  2  0
 20 21  1  0
 21 22  2  0
 22 23  1  0
 23 24  2  0
 24 25  1  0
 25 26  2  0
 26 27  1  0
 27 28  2  0
 12  7  1  0
 18 14  1  0
 28 19  1  0
 27 22  1  0
  3 29  1  0
  4 30  1  0
  4 31  1  0
  8 32  1  0
  8 33  1  0
  9 34  1  6
 11 35  1  0
 11 36  1  0
 12 37  1  1
 13 38  1  0
 13 39  1  0
 15 40  1  0
 15 41  1  0
 16 42  1  0
 16 43  1  0
 17 44  1  0
 17 45  1  0
 18 46  1  0
 18 47  1  0
 20 48  1  0
 21 49  1  0
 23 50  1  0
 24 51  1  0
 25 52  1  0
 26 53  1  0
M  END
>  <smiles>  (44) 
O=C(NCC(=O)N1C[C@H](F)C[C@H]1CN1CCCC1)c1ccc2ccccc2n1

>  <score_type>  (44) 
oracle

>  <origin>  (44) 
autodockgpu

>  <m_score__min__energy>  (44) 
-8.3699999999999992

>  <m_primary>  (44) 
energy

>  <rmsd>  (44) 
1.9446032814682872

>  <m_score__min__rmsd>  (44) 
1.9446032814682872

>  <meeko>  (44) 
{"free_energy": -7.96, "intermolecular_energy": -9.75, "internal_energy": -1.48, "cluster_size": 29, "cluster_id": 1, "rank_in_cluster": 24}

>  <energy>  (44) 
-6.87

>  <cluster_rmsd>  (44) 
0.0

>  <cluster>  (44) 
5

$$$$

     RDKit          3D

 53 56  0  0  0  0  0  0  0  0999 V2000
  137.2860   76.1010  222.4540 O   0  0  0  0  0  0  0  0  0  0  0  0
  138.5350   76.2750  222.4710 C   0  0  0  0  0  0  0  0  0  0  0  0
  139.4100   75.1820  222.2380 N   0  0  0  0  0  0  0  0  0  0  0  0
  138.8250   73.8810  221.9880 C   0  0  0  0  0  0  0  0  0  0  0  0
  139.8050   72.8430  222.3910 C   0  0  0  0  0  0  0  0  0  0  0  0
  141.0550   73.0130  222.3600 O   0  0  0  0  0  0  0  0  0  0  0  0
  139.2890   71.6010  222.8310 N   0  0  0  0  0  0  0  0  0  0  0  0
  138.7840   70.4710  222.0720 C   0  0  0  0  0  0  0  0  0  0  0  0
  137.6290   69.9180  222.9150 C   0  0  2  0  0  0  0  0  0  0  0  0
  136.4390   70.1970  222.2630 F   0  0  0  0  0  0  0  0  0  0  0  0
  137.7340   70.7060  224.2090 C   0  0  0  0  0  0  0  0  0  0  0  0
  139.1590   71.1400  224.2500 C   0  0  1  0  0  0  0  0  0  0  0  0
  140.2060   70.1540  224.5490 C   0  0  0  0  0  0  0  0  0  0  0  0
  140.8160   70.2640  225.8300 N   0  0  0  0  0  0  0  0  0  0  0  0
  139.8910   69.8090  226.8820 C   0  0  0  0  0  0  0  0  0  0  0  0
  140.3340   70.5260  228.1490 C   0  0  0  0  0  0  0  0  0  0  0  0
  140.6840   71.8840  227.6110 C   0  0  0  0  0  0  0  0  0  0  0  0
  141.1510   71.6230  226.2040 C   0  0  0  0  0  0  0  0  0  0  0  0
  139.0960   77.5950  222.7320 C   0  0  0  0  0  0  0  0  0  0  0  0
  138.2930   78.6970  222.9190 C   0  0  0  0  0  0  0  0  0  0  0  0
  138.8790   79.9280  223.1700 C   0  0  0  0  0  0  0  0  0  0  0  0
  140.2300   80.0420  223.2320 C   0  0  0  0  0  0  0  0  0  0  0  0
  140.8000   81.2660  223.4800 C   0  0  0  0  0  0  0  0  0  0  0  0
  142.1740   81.3260  223.5310 C   0  0  0  0  0  0  0  0  0  0  0  0
  142.9840   80.2480  223.3490 C   0  0  0  0  0  0  0  0  0  0  0  0
  142.4310   79.0220  223.0990 C   0  0  0  0  0  0  0  0  0  0  0  0
  141.0340   78.9390  223.0430 C   0  0  0  0  0  0  0  0  0  0  0  0
  140.4310   77.7750  222.8040 N   0  0  0  0  0  0  0  0  0  0  0  0
  140.4540   75.3340  222.2520 H   0  0  0  0  0  0  0  0  0  0  0  0
  137.9021   73.7692  222.5761 H   0  0  0  0  0  0  0  0  0  0  0  0
  138.5791   73.7754  220.9211 H   0  0  0  0  0  0  0  0  0  0  0  0
  138.4223   70.7972  221.0857 H   0  0  0  0  0  0  0  0  0  0  0  0
  139.5612   69.7152  221.8858 H   0  0  0  0  0  0  0  0  0  0  0  0
  137.6657   68.8317  223.0843 H   0  0  0  0  0  0  0  0  0  0  0  0
  137.0604   71.5755  224.1934 H   0  0  0  0  0  0  0  0  0  0  0  0
  137.4452   70.1145  225.0904 H   0  0  0  0  0  0  0  0  0  0  0  0
  139.3273   71.8433  225.0788 H   0  0  0  0  0  0  0  0  0  0  0  0
  139.7570   69.1526  224.4744 H   0  0  0  0  0  0  0  0  0  0  0  0
  141.0083   70.3416  223.8202 H   0  0  0  0  0  0  0  0  0  0  0  0
  138.8559   70.0810  226.6280 H   0  0  0  0  0  0  0  0  0  0  0  0
  139.9143   68.7158  227.0018 H   0  0  0  0  0  0  0  0  0  0  0  0
  139.5191   70.5824  228.8857 H   0  0  0  0  0  0  0  0  0  0  0  0
  141.1556   70.0281  228.6848 H   0  0  0  0  0  0  0  0  0  0  0  0
  139.8024   72.5418  227.6123 H   0  0  0  0  0  0  0  0  0  0  0  0
  141.4487   72.3902  228.2184 H   0  0  0  0  0  0  0  0  0  0  0  0
  140.6563   72.3253  225.5169 H   0  0  0  0  0  0  0  0  0  0  0  0
  142.2407   71.7618  226.1469 H   0  0  0  0  0  0  0  0  0  0  0  0
  137.1982   78.6020  222.8699 H   0  0  0  0  0  0  0  0  0  0  0  0
  138.2467   80.8156  223.3195 H   0  0  0  0  0  0  0  0  0  0  0  0
  140.1827   82.1637  223.6320 H   0  0  0  0  0  0  0  0  0  0  0  0
  142.6439   82.3005  223.7302 H   0  0  0  0  0  0  0  0  0  0  0  0
  144.0768   80.3616  223.4026 H   0  0  0  0  0  0  0  0  0  0  0  0
  143.0610   78.1331  222.9474 H   0  0  0  0  0  0  0  0  0  0  0  0
  1  2  2  0
  2  3  1  0
  3  4  1  0
  4  5  1  0
  5  6  2  0
  5  7  1  0
  7  8  1  0
  8  9  1  0
  9 10  1  0
  9 11  1  0
 11 12  1  0
 12 13  1  0
 13 14  1  0
 14 15  1  0
 15 16  1  0
 16 17  1  0
 17 18  1  0
  2 19  1  0
 19 20  2  0
 20 21  1  0
 21 22  2  0
 22 23  1  0
 23 24  2  0
 24 25  1  0
 25 26  2  0
 26 27  1  0
 27 28  2  0
 12  7  1  0
 18 14  1  0
 28 19  1  0
 27 22  1  0
  3 29  1  0
  4 30  1  0
  4 31  1  0
  8 32  1  0
  8 33  1  0
  9 34  1  1
 11 35  1  0
 11 36  1  0
 12 37  1  1
 13 38  1  0
 13 39  1  0
 15 40  1  0
 15 41  1  0
 16 42  1  0
 16 43  1  0
 17 44  1  0
 17 45  1  0
 18 46  1  0
 18 47  1  0
 20 48  1  0
 21 49  1  0
 23 50  1  0
 24 51  1  0
 25 52  1  0
 26 53  1  0
M  END
>  <smiles>  (45) 
O=C(NCC(=O)N1C[C@H](F)C[C@H]1CN1CCCC1)c1ccc2ccccc2n1

>  <score_type>  (45) 
oracle

>  <origin>  (45) 
autodockgpu

>  <m_score__min__energy>  (45) 
-8.3699999999999992

>  <m_primary>  (45) 
energy

>  <rmsd>  (45) 
9.017458449933978

>  <m_score__min__rmsd>  (45) 
9.017458449933978

>  <meeko>  (45) 
{"free_energy": -7.71, "intermolecular_energy": -9.5, "internal_energy": -1.93, "cluster_size": 3, "cluster_id": 2, "rank_in_cluster": 3}

>  <energy>  (45) 
-6.62

>  <cluster_rmsd>  (45) 
0.0

>  <cluster>  (45) 
6

$$$$

     RDKit          3D

 53 56  0  0  0  0  0  0  0  0999 V2000
  139.9060   73.7760  222.3420 O   0  0  0  0  0  0  0  0  0  0  0  0
  140.2290   74.7280  221.5810 C   0  0  0  0  0  0  0  0  0  0  0  0
  140.7860   74.4600  220.3020 N   0  0  0  0  0  0  0  0  0  0  0  0
  140.9690   73.0780  219.9140 C   0  0  0  0  0  0  0  0  0  0  0  0
  141.9870   73.0260  218.8370 C   0  0  0  0  0  0  0  0  0  0  0  0
  141.7740   72.5300  217.6970 O   0  0  0  0  0  0  0  0  0  0  0  0
  143.2630   73.5660  219.1250 N   0  0  0  0  0  0  0  0  0  0  0  0
  144.5290   73.4140  218.4310 C   0  0  0  0  0  0  0  0  0  0  0  0
  145.5850   73.3870  219.5410 C   0  0  2  0  0  0  0  0  0  0  0  0
  146.0950   72.1020  219.6290 F   0  0  0  0  0  0  0  0  0  0  0  0
  144.7900   73.7400  220.7860 C   0  0  0  0  0  0  0  0  0  0  0  0
  143.6090   74.4810  220.2600 C   0  0  1  0  0  0  0  0  0  0  0  0
  143.7810   75.8510  219.7580 C   0  0  0  0  0  0  0  0  0  0  0  0
  142.6780   76.3950  219.0430 N   0  0  0  0  0  0  0  0  0  0  0  0
  143.0540   76.6750  217.6480 C   0  0  0  0  0  0  0  0  0  0  0  0
  142.1070   77.7740  217.1860 C   0  0  0  0  0  0  0  0  0  0  0  0
  142.0290   78.6310  218.4180 C   0  0  0  0  0  0  0  0  0  0  0  0
  142.2170   77.6680  219.5590 C   0  0  0  0  0  0  0  0  0  0  0  0
  140.0400   76.1110  222.0000 C   0  0  0  0  0  0  0  0  0  0  0  0
  138.7850   76.6650  222.1180 C   0  0  0  0  0  0  0  0  0  0  0  0
  138.6610   77.9830  222.5280 C   0  0  0  0  0  0  0  0  0  0  0  0
  139.7670   78.7180  222.8100 C   0  0  0  0  0  0  0  0  0  0  0  0
  139.6330   80.0230  223.2140 C   0  0  0  0  0  0  0  0  0  0  0  0
  140.7860   80.7230  223.4870 C   0  0  0  0  0  0  0  0  0  0  0  0
  142.0340   80.1930  223.3770 C   0  0  0  0  0  0  0  0  0  0  0  0
  142.1850   78.8940  222.9740 C   0  0  0  0  0  0  0  0  0  0  0  0
  141.0230   78.1640  222.6910 C   0  0  0  0  0  0  0  0  0  0  0  0
  141.0980   76.8940  222.2940 N   0  0  0  0  0  0  0  0  0  0  0  0
  141.0530   75.2610  219.6690 H   0  0  0  0  0  0  0  0  0  0  0  0
  141.3126   72.4915  220.7789 H   0  0  0  0  0  0  0  0  0  0  0  0
  140.0180   72.6564  219.5564 H   0  0  0  0  0  0  0  0  0  0  0  0
  144.5460   72.4755  217.8575 H   0  0  0  0  0  0  0  0  0  0  0  0
  144.7064   74.2253  217.7097 H   0  0  0  0  0  0  0  0  0  0  0  0
  146.4339   74.0681  219.3813 H   0  0  0  0  0  0  0  0  0  0  0  0
  144.4755   72.8312  221.3201 H   0  0  0  0  0  0  0  0  0  0  0  0
  145.3733   74.3300  221.5083 H   0  0  0  0  0  0  0  0  0  0  0  0
  142.8798   74.6695  221.0617 H   0  0  0  0  0  0  0  0  0  0  0  0
  143.9778   76.5038  220.6212 H   0  0  0  0  0  0  0  0  0  0  0  0
  144.6083   75.8007  219.0347 H   0  0  0  0  0  0  0  0  0  0  0  0
  144.0977   77.0179  217.5923 H   0  0  0  0  0  0  0  0  0  0  0  0
  142.9781   75.7777  217.0162 H   0  0  0  0  0  0  0  0  0  0  0  0
  142.5220   78.3313  216.3332 H   0  0  0  0  0  0  0  0  0  0  0  0
  141.1330   77.4090  216.8282 H   0  0  0  0  0  0  0  0  0  0  0  0
  142.8251   79.3901  218.4147 H   0  0  0  0  0  0  0  0  0  0  0  0
  141.0783   79.1801  218.4862 H   0  0  0  0  0  0  0  0  0  0  0  0
  142.9621   78.0712  220.2606 H   0  0  0  0  0  0  0  0  0  0  0  0
  141.2600   77.5274  220.0828 H   0  0  0  0  0  0  0  0  0  0  0  0
  137.8901   76.0677  221.8892 H   0  0  0  0  0  0  0  0  0  0  0  0
  137.6629   78.4352  222.6253 H   0  0  0  0  0  0  0  0  0  0  0  0
  138.6427   80.4910  223.3156 H   0  0  0  0  0  0  0  0  0  0  0  0
  140.6932   81.7697  223.8124 H   0  0  0  0  0  0  0  0  0  0  0  0
  142.9173   80.8055  223.6108 H   0  0  0  0  0  0  0  0  0  0  0  0
  143.1819   78.4396  222.8758 H   0  0  0  0  0  0  0  0  0  0  0  0
  1  2  2  0
  2  3  1  0
  3  4  1  0
  4  5  1  0
  5  6  2  0
  5  7  1  0
  7  8  1  0
  8  9  1  0
  9 10  1  0
  9 11  1  0
 11 12  1  0
 12 13  1  0
 13 14  1  0
 14 15  1  0
 15 16  1  0
 16 17  1  0
 17 18  1  0
  2 19  1  0
 19 20  2  0
 20 21  1  0
 21 22  2  0
 22 23  1  0
 23 24  2  0
 24 25  1  0
 25 26  2  0
 26 27  1  0
 27 28  2  0
 12  7  1  0
 18 14  1  0
 28 19  1  0
 27 22  1  0
  3 29  1  0
  4 30  1  0
  4 31  1  0
  8 32  1  0
  8 33  1  0
  9 34  1  6
 11 35  1  0
 11 36  1  0
 12 37  1  1
 13 38  1  0
 13 39  1  0
 15 40  1  0
 15 41  1  0
 16 42  1  0
 16 43  1  0
 17 44  1  0
 17 45  1  0
 18 46  1  0
 18 47  1  0
 20 48  1  0
 21 49  1  0
 23 50  1  0
 24 51  1  0
 25 52  1  0
 26 53  1  0
M  END
>  <smiles>  (46) 
O=C(NCC(=O)N1C[C@H](F)C[C@H]1CN1CCCC1)c1ccc2ccccc2n1

>  <score_type>  (46) 
oracle

>  <origin>  (46) 
autodockgpu

>  <m_score__min__energy>  (46) 
-8.3699999999999992

>  <m_primary>  (46) 
energy

>  <rmsd>  (46) 
6.903922221865394

>  <m_score__min__rmsd>  (46) 
6.903922221865394

>  <meeko>  (46) 
{"free_energy": -6.33, "intermolecular_energy": -8.12, "internal_energy": -2.97, "cluster_size": 6, "cluster_id": 6, "rank_in_cluster": 4}

>  <energy>  (46) 
-6.6

>  <cluster_rmsd>  (46) 
0.99

>  <cluster>  (46) 
6

$$$$

     RDKit          3D

 53 56  0  0  0  0  0  0  0  0999 V2000
  138.6250   72.1990  222.0910 O   0  0  0  0  0  0  0  0  0  0  0  0
  139.7340   71.9040  222.6130 C   0  0  0  0  0  0  0  0  0  0  0  0
  140.9410   72.3880  222.0410 N   0  0  0  0  0  0  0  0  0  0  0  0
  140.8510   73.2140  220.8560 C   0  0  0  0  0  0  0  0  0  0  0  0
  140.4920   74.5910  221.2740 C   0  0  0  0  0  0  0  0  0  0  0  0
  139.5670   74.8550  222.0890 O   0  0  0  0  0  0  0  0  0  0  0  0
  141.2410   75.6530  220.7140 N   0  0  0  0  0  0  0  0  0  0  0  0
  141.4460   77.0120  221.1850 C   0  0  0  0  0  0  0  0  0  0  0  0
  141.4910   77.8660  219.9130 C   0  0  2  0  0  0  0  0  0  0  0  0
  140.3380   78.6320  219.8600 F   0  0  0  0  0  0  0  0  0  0  0  0
  141.5030   76.8320  218.8000 C   0  0  0  0  0  0  0  0  0  0  0  0
  142.0490   75.6090  219.4530 C   0  0  1  0  0  0  0  0  0  0  0  0
  143.4790   75.5420  219.7820 C   0  0  0  0  0  0  0  0  0  0  0  0
  143.9120   74.3540  220.4340 N   0  0  0  0  0  0  0  0  0  0  0  0
  145.3210   74.4750  220.8440 C   0  0  0  0  0  0  0  0  0  0  0  0
  145.8450   73.0470  220.9200 C   0  0  0  0  0  0  0  0  0  0  0  0
  145.1750   72.4250  219.7280 C   0  0  0  0  0  0  0  0  0  0  0  0
  143.8790   73.1780  219.5880 C   0  0  0  0  0  0  0  0  0  0  0  0
  139.7950   71.0640  223.8030 C   0  0  0  0  0  0  0  0  0  0  0  0
  139.3490   69.7620  223.7920 C   0  0  0  0  0  0  0  0  0  0  0  0
  139.4350   69.0060  224.9510 C   0  0  0  0  0  0  0  0  0  0  0  0
  139.9570   69.5460  226.0820 C   0  0  0  0  0  0  0  0  0  0  0  0
  140.0380   68.7890  227.2240 C   0  0  0  0  0  0  0  0  0  0  0  0
  140.5740   69.3850  228.3420 C   0  0  0  0  0  0  0  0  0  0  0  0
  141.0200   70.6700  228.3720 C   0  0  0  0  0  0  0  0  0  0  0  0
  140.9450   71.4380  227.2420 C   0  0  0  0  0  0  0  0  0  0  0  0
  140.4030   70.8500  226.0920 C   0  0  0  0  0  0  0  0  0  0  0  0
  140.3000   71.5420  224.9580 N   0  0  0  0  0  0  0  0  0  0  0  0
  141.8670   72.1390  222.4840 H   0  0  0  0  0  0  0  0  0  0  0  0
  141.8199   73.2241  220.3353 H   0  0  0  0  0  0  0  0  0  0  0  0
  140.0873   72.8143  220.1726 H   0  0  0  0  0  0  0  0  0  0  0  0
  140.6151   77.3266  221.8335 H   0  0  0  0  0  0  0  0  0  0  0  0
  142.3642   77.1097  221.7828 H   0  0  0  0  0  0  0  0  0  0  0  0
  142.3478   78.5533  219.8538 H   0  0  0  0  0  0  0  0  0  0  0  0
  140.4859   76.6526  218.4214 H   0  0  0  0  0  0  0  0  0  0  0  0
  142.0979   77.1506  217.9313 H   0  0  0  0  0  0  0  0  0  0  0  0
  141.9760   74.7435  218.7781 H   0  0  0  0  0  0  0  0  0  0  0  0
  144.0454   75.6370  218.8438 H   0  0  0  0  0  0  0  0  0  0  0  0
  143.6578   76.3569  220.4989 H   0  0  0  0  0  0  0  0  0  0  0  0
  145.8893   75.0543  220.1015 H   0  0  0  0  0  0  0  0  0  0  0  0
  145.4234   74.9997  221.8054 H   0  0  0  0  0  0  0  0  0  0  0  0
  146.9407   73.0145  220.8288 H   0  0  0  0  0  0  0  0  0  0  0  0
  145.6331   72.5390  221.8724 H   0  0  0  0  0  0  0  0  0  0  0  0
  145.7942   72.5460  218.8269 H   0  0  0  0  0  0  0  0  0  0  0  0
  145.0187   71.3434  219.8533 H   0  0  0  0  0  0  0  0  0  0  0  0
  143.7434   73.4835  218.5400 H   0  0  0  0  0  0  0  0  0  0  0  0
  143.0431   72.5304  219.8913 H   0  0  0  0  0  0  0  0  0  0  0  0
  138.9289   69.3259  222.8737 H   0  0  0  0  0  0  0  0  0  0  0  0
  139.0791   67.9652  224.9542 H   0  0  0  0  0  0  0  0  0  0  0  0
  139.6880   67.7464  227.2445 H   0  0  0  0  0  0  0  0  0  0  0  0
  140.6461   68.7890  229.2637 H   0  0  0  0  0  0  0  0  0  0  0  0
  141.4384   71.0890  229.2990 H   0  0  0  0  0  0  0  0  0  0  0  0
  141.2977   72.4799  227.2369 H   0  0  0  0  0  0  0  0  0  0  0  0
  1  2  2  0
  2  3  1  0
  3  4  1  0
  4  5  1  0
  5  6  2  0
  5  7  1  0
  7  8  1  0
  8  9  1  0
  9 10  1  0
  9 11  1  0
 11 12  1  0
 12 13  1  0
 13 14  1  0
 14 15  1  0
 15 16  1  0
 16 17  1  0
 17 18  1  0
  2 19  1  0
 19 20  2  0
 20 21  1  0
 21 22  2  0
 22 23  1  0
 23 24  2  0
 24 25  1  0
 25 26  2  0
 26 27  1  0
 27 28  2  0
 12  7  1  0
 18 14  1  0
 28 19  1  0
 27 22  1  0
  3 29  1  0
  4 30  1  0
  4 31  1  0
  8 32  1  0
  8 33  1  0
  9 34  1  1
 11 35  1  0
 11 36  1  0
 12 37  1  6
 13 38  1  0
 13 39  1  0
 15 40  1  0
 15 41  1  0
 16 42  1  0
 16 43  1  0
 17 44  1  0
 17 45  1  0
 18 46  1  0
 18 47  1  0
 20 48  1  0
 21 49  1  0
 23 50  1  0
 24 51  1  0
 25 52  1  0
 26 53  1  0
M  END
>  <smiles>  (47) 
O=C(NCC(=O)N1C[C@H](F)C[C@H]1CN1CCCC1)c1ccc2ccccc2n1

>  <score_type>  (47) 
oracle

>  <origin>  (47) 
autodockgpu

>  <m_score__min__energy>  (47) 
-8.3699999999999992

>  <m_primary>  (47) 
energy

>  <rmsd>  (47) 
4.203216596739116

>  <m_score__min__rmsd>  (47) 
4.203216596739116

>  <meeko>  (47) 
{"free_energy": -7.47, "intermolecular_energy": -9.26, "internal_energy": -1.46, "cluster_size": 9, "cluster_id": 4, "rank_in_cluster": 8}

>  <energy>  (47) 
-6.34

>  <cluster_rmsd>  (47) 
0.88

>  <cluster>  (47) 
6

$$$$

     RDKit          3D

 53 56  0  0  0  0  0  0  0  0999 V2000
  141.2810   71.6020  221.4910 O   0  0  0  0  0  0  0  0  0  0  0  0
  140.6090   72.1130  222.4270 C   0  0  0  0  0  0  0  0  0  0  0  0
  140.1180   73.4400  222.3090 N   0  0  0  0  0  0  0  0  0  0  0  0
  140.4150   74.1720  221.0970 C   0  0  0  0  0  0  0  0  0  0  0  0
  140.5220   75.6130  221.4360 C   0  0  0  0  0  0  0  0  0  0  0  0
  139.8870   76.1570  222.3790 O   0  0  0  0  0  0  0  0  0  0  0  0
  141.3890   76.4020  220.6430 N   0  0  0  0  0  0  0  0  0  0  0  0
  141.8270   77.7760  220.8100 C   0  0  0  0  0  0  0  0  0  0  0  0
  141.9250   78.3330  219.3840 C   0  0  2  0  0  0  0  0  0  0  0  0
  140.9010   79.2490  219.2020 F   0  0  0  0  0  0  0  0  0  0  0  0
  141.7120   77.1040  218.5160 C   0  0  0  0  0  0  0  0  0  0  0  0
  142.1020   75.9690  219.3990 C   0  0  1  0  0  0  0  0  0  0  0  0
  143.5230   75.7400  219.6960 C   0  0  0  0  0  0  0  0  0  0  0  0
  143.8140   74.6120  220.5120 N   0  0  0  0  0  0  0  0  0  0  0  0
  145.2590   74.5270  220.7790 C   0  0  0  0  0  0  0  0  0  0  0  0
  145.5320   73.0570  221.0660 C   0  0  0  0  0  0  0  0  0  0  0  0
  144.6350   72.3900  220.0630 C   0  0  0  0  0  0  0  0  0  0  0  0
  143.4820   73.3430  219.8960 C   0  0  0  0  0  0  0  0  0  0  0  0
  140.3300   71.3540  223.6400 C   0  0  0  0  0  0  0  0  0  0  0  0
  139.6510   70.1570  223.6030 C   0  0  0  0  0  0  0  0  0  0  0  0
  139.4170   69.4730  224.7860 C   0  0  0  0  0  0  0  0  0  0  0  0
  139.8570   69.9790  225.9660 C   0  0  0  0  0  0  0  0  0  0  0  0
  139.6200   69.2940  227.1320 C   0  0  0  0  0  0  0  0  0  0  0  0
  140.0860   69.8520  228.3000 C   0  0  0  0  0  0  0  0  0  0  0  0
  140.7590   71.0320  228.3560 C   0  0  0  0  0  0  0  0  0  0  0  0
  141.0020   71.7280  227.2040 C   0  0  0  0  0  0  0  0  0  0  0  0
  140.5360   71.1770  226.0030 C   0  0  0  0  0  0  0  0  0  0  0  0
  140.7390   71.8040  224.8440 N   0  0  0  0  0  0  0  0  0  0  0  0
  139.5540   73.8620  223.0960 H   0  0  0  0  0  0  0  0  0  0  0  0
  141.3662   73.8183  220.6727 H   0  0  0  0  0  0  0  0  0  0  0  0
  139.6177   74.0158  220.3554 H   0  0  0  0  0  0  0  0  0  0  0  0
  141.0946   78.3471  221.3994 H   0  0  0  0  0  0  0  0  0  0  0  0
  142.7837   77.8439  221.3486 H   0  0  0  0  0  0  0  0  0  0  0  0
  142.8712   78.8457  219.1562 H   0  0  0  0  0  0  0  0  0  0  0  0
  140.6587   77.0183  218.2109 H   0  0  0  0  0  0  0  0  0  0  0  0
  142.2960   77.1365  217.5844 H   0  0  0  0  0  0  0  0  0  0  0  0
  141.8557   75.0069  218.9260 H   0  0  0  0  0  0  0  0  0  0  0  0
  144.0502   75.6088  218.7395 H   0  0  0  0  0  0  0  0  0  0  0  0
  143.8511   76.6170  220.2732 H   0  0  0  0  0  0  0  0  0  0  0  0
  145.8326   74.8607  219.9018 H   0  0  0  0  0  0  0  0  0  0  0  0
  145.5579   75.1701  221.6199 H   0  0  0  0  0  0  0  0  0  0  0  0
  146.5882   72.8024  220.8937 H   0  0  0  0  0  0  0  0  0  0  0  0
  145.3432   72.7587  222.1078 H   0  0  0  0  0  0  0  0  0  0  0  0
  145.1605   72.2443  219.1077 H   0  0  0  0  0  0  0  0  0  0  0  0
  144.3087   71.3923  220.3920 H   0  0  0  0  0  0  0  0  0  0  0  0
  143.2841   73.4956  218.8248 H   0  0  0  0  0  0  0  0  0  0  0  0
  142.5860   72.9240  220.3772 H   0  0  0  0  0  0  0  0  0  0  0  0
  139.2979   69.7476  222.6450 H   0  0  0  0  0  0  0  0  0  0  0  0
  138.8730   68.5171  224.7682 H   0  0  0  0  0  0  0  0  0  0  0  0
  139.0787   68.3364  227.1323 H   0  0  0  0  0  0  0  0  0  0  0  0
  139.9038   69.3131  229.2415 H   0  0  0  0  0  0  0  0  0  0  0  0
  141.1063   71.4249  229.3229 H   0  0  0  0  0  0  0  0  0  0  0  0
  141.5435   72.6854  227.2198 H   0  0  0  0  0  0  0  0  0  0  0  0
  1  2  2  0
  2  3  1  0
  3  4  1  0
  4  5  1  0
  5  6  2  0
  5  7  1  0
  7  8  1  0
  8  9  1  0
  9 10  1  0
  9 11  1  0
 11 12  1  0
 12 13  1  0
 13 14  1  0
 14 15  1  0
 15 16  1  0
 16 17  1  0
 17 18  1  0
  2 19  1  0
 19 20  2  0
 20 21  1  0
 21 22  2  0
 22 23  1  0
 23 24  2  0
 24 25  1  0
 25 26  2  0
 26 27  1  0
 27 28  2  0
 12  7  1  0
 18 14  1  0
 28 19  1  0
 27 22  1  0
  3 29  1  0
  4 30  1  0
  4 31  1  0
  8 32  1  0
  8 33  1  0
  9 34  1  1
 11 35  1  0
 11 36  1  0
 12 37  1  6
 13 38  1  0
 13 39  1  0
 15 40  1  0
 15 41  1  0
 16 42  1  0
 16 43  1  0
 17 44  1  0
 17 45  1  0
 18 46  1  0
 18 47  1  0
 20 48  1  0
 21 49  1  0
 23 50  1  0
 24 51  1  0
 25 52  1  0
 26 53  1  0
M  END
>  <smiles>  (48) 
O=C(NCC(=O)N1C[C@H](F)C[C@H]1CN1CCCC1)c1ccc2ccccc2n1

>  <score_type>  (48) 
oracle

>  <origin>  (48) 
autodockgpu

>  <m_score__min__energy>  (48) 
-8.3699999999999992

>  <m_primary>  (48) 
energy

>  <rmsd>  (48) 
4.178793002399239

>  <m_score__min__rmsd>  (48) 
4.178793002399239

>  <meeko>  (48) 
{"free_energy": -7.95, "intermolecular_energy": -9.74, "internal_energy": -1.97, "cluster_size": 9, "cluster_id": 4, "rank_in_cluster": 3}

>  <energy>  (48) 
-6.33

>  <cluster_rmsd>  (48) 
0.95

>  <cluster>  (48) 
6

$$$$

     RDKit          3D

 53 56  0  0  0  0  0  0  0  0999 V2000
  141.3090   71.8410  221.5280 O   0  0  0  0  0  0  0  0  0  0  0  0
  140.5660   72.2800  222.4470 C   0  0  0  0  0  0  0  0  0  0  0  0
  139.9870   73.5730  222.3380 N   0  0  0  0  0  0  0  0  0  0  0  0
  140.2820   74.3550  221.1560 C   0  0  0  0  0  0  0  0  0  0  0  0
  139.8540   75.7530  221.4030 C   0  0  0  0  0  0  0  0  0  0  0  0
  139.2470   76.1250  222.4440 O   0  0  0  0  0  0  0  0  0  0  0  0
  140.1530   76.7080  220.4020 N   0  0  0  0  0  0  0  0  0  0  0  0
  139.2900   77.3480  219.4250 C   0  0  0  0  0  0  0  0  0  0  0  0
  140.1580   77.4930  218.1700 C   0  0  2  0  0  0  0  0  0  0  0  0
  139.6880   76.6110  217.2090 F   0  0  0  0  0  0  0  0  0  0  0  0
  141.5380   77.0800  218.6520 C   0  0  0  0  0  0  0  0  0  0  0  0
  141.4910   77.3200  220.1220 C   0  0  1  0  0  0  0  0  0  0  0  0
  141.5220   78.6980  220.6310 C   0  0  0  0  0  0  0  0  0  0  0  0
  142.1560   78.8810  221.8920 N   0  0  0  0  0  0  0  0  0  0  0  0
  141.2870   78.4020  222.9800 C   0  0  0  0  0  0  0  0  0  0  0  0
  141.7180   79.1810  224.2150 C   0  0  0  0  0  0  0  0  0  0  0  0
  141.9720   80.5420  223.6300 C   0  0  0  0  0  0  0  0  0  0  0  0
  142.4170   80.2680  222.2180 C   0  0  0  0  0  0  0  0  0  0  0  0
  140.2910   71.4730  223.6290 C   0  0  0  0  0  0  0  0  0  0  0  0
  139.6050   70.2820  223.5480 C   0  0  0  0  0  0  0  0  0  0  0  0
  139.3770   69.5510  224.7020 C   0  0  0  0  0  0  0  0  0  0  0  0
  139.8280   70.0050  225.9000 C   0  0  0  0  0  0  0  0  0  0  0  0
  139.5960   69.2730  227.0380 C   0  0  0  0  0  0  0  0  0  0  0  0
  140.0730   69.7800  228.2250 C   0  0  0  0  0  0  0  0  0  0  0  0
  140.7530   70.9540  228.3250 C   0  0  0  0  0  0  0  0  0  0  0  0
  140.9910   71.6960  227.2000 C   0  0  0  0  0  0  0  0  0  0  0  0
  140.5140   71.1970  225.9810 C   0  0  0  0  0  0  0  0  0  0  0  0
  140.7110   71.8700  224.8480 N   0  0  0  0  0  0  0  0  0  0  0  0
  139.3640   73.9340  223.1100 H   0  0  0  0  0  0  0  0  0  0  0  0
  141.3626   74.3275  220.9521 H   0  0  0  0  0  0  0  0  0  0  0  0
  139.7481   73.9435  220.2867 H   0  0  0  0  0  0  0  0  0  0  0  0
  138.4096   76.7222  219.2169 H   0  0  0  0  0  0  0  0  0  0  0  0
  138.9086   78.3168  219.7799 H   0  0  0  0  0  0  0  0  0  0  0  0
  140.1548   78.4992  217.7255 H   0  0  0  0  0  0  0  0  0  0  0  0
  141.7270   76.0184  218.4346 H   0  0  0  0  0  0  0  0  0  0  0  0
  142.3453   77.6392  218.1565 H   0  0  0  0  0  0  0  0  0  0  0  0
  142.3945   76.9243  220.6089 H   0  0  0  0  0  0  0  0  0  0  0  0
  142.0533   79.3177  219.8936 H   0  0  0  0  0  0  0  0  0  0  0  0
  140.4704   78.9830  220.7825 H   0  0  0  0  0  0  0  0  0  0  0  0
  140.2313   78.6042  222.7465 H   0  0  0  0  0  0  0  0  0  0  0  0
  141.3791   77.3160  223.1288 H   0  0  0  0  0  0  0  0  0  0  0  0
  140.9200   79.2103  224.9716 H   0  0  0  0  0  0  0  0  0  0  0  0
  142.5813   78.7487  224.7421 H   0  0  0  0  0  0  0  0  0  0  0  0
  141.0529   81.1463  223.6377 H   0  0  0  0  0  0  0  0  0  0  0  0
  142.7205   81.1101  224.2018 H   0  0  0  0  0  0  0  0  0  0  0  0
  141.8624   80.9184  221.5256 H   0  0  0  0  0  0  0  0  0  0  0  0
  143.4943   80.4706  222.1264 H   0  0  0  0  0  0  0  0  0  0  0  0
  139.2418   69.9149  222.5768 H   0  0  0  0  0  0  0  0  0  0  0  0
  138.8285   68.5990  224.6481 H   0  0  0  0  0  0  0  0  0  0  0  0
  139.0502   68.3186  227.0024 H   0  0  0  0  0  0  0  0  0  0  0  0
  139.8944   69.2036  229.1447 H   0  0  0  0  0  0  0  0  0  0  0  0
  141.1096   71.3049  229.3047 H   0  0  0  0  0  0  0  0  0  0  0  0
  141.5370   72.6496  227.2511 H   0  0  0  0  0  0  0  0  0  0  0  0
  1  2  2  0
  2  3  1  0
  3  4  1  0
  4  5  1  0
  5  6  2  0
  5  7  1  0
  7  8  1  0
  8  9  1  0
  9 10  1  0
  9 11  1  0
 11 12  1  0
 12 13  1  0
 13 14  1  0
 14 15  1  0
 15 16  1  0
 16 17  1  0
 17 18  1  0
  2 19  1  0
 19 20  2  0
 20 21  1  0
 21 22  2  0
 22 23  1  0
 23 24  2  0
 24 25  1  0
 25 26  2  0
 26 27  1  0
 27 28  2  0
 12  7  1  0
 18 14  1  0
 28 19  1  0
 27 22  1  0
  3 29  1  0
  4 30  1  0
  4 31  1  0
  8 32  1  0
  8 33  1  0
  9 34  1  6
 11 35  1  0
 11 36  1  0
 12 37  1  1
 13 38  1  0
 13 39  1  0
 15 40  1  0
 15 41  1  0
 16 42  1  0
 16 43  1  0
 17 44  1  0
 17 45  1  0
 18 46  1  0
 18 47  1  0
 20 48  1  0
 21 49  1  0
 23 50  1  0
 24 51  1  0
 25 52  1  0
 26 53  1  0
M  END
>  <smiles>  (49) 
O=C(NCC(=O)N1C[C@H](F)C[C@H]1CN1CCCC1)c1ccc2ccccc2n1

>  <score_type>  (49) 
oracle

>  <origin>  (49) 
autodockgpu

>  <m_score__min__energy>  (49) 
-8.3699999999999992

>  <m_primary>  (49) 
energy

>  <rmsd>  (49) 
1.974650394453562

>  <m_score__min__rmsd>  (49) 
1.974650394453562

>  <meeko>  (49) 
{"free_energy": -7.84, "intermolecular_energy": -9.63, "internal_energy": -1.8, "cluster_size": 29, "cluster_id": 1, "rank_in_cluster": 25}

>  <energy>  (49) 
-6.28

>  <cluster_rmsd>  (49) 
0.94

>  <cluster>  (49) 
6

$$$$

     RDKit          3D

 53 56  0  0  0  0  0  0  0  0999 V2000
  135.8870   71.3390  222.4670 O   0  0  0  0  0  0  0  0  0  0  0  0
  135.9410   72.4350  223.0890 C   0  0  0  0  0  0  0  0  0  0  0  0
  136.9210   73.4020  222.7430 N   0  0  0  0  0  0  0  0  0  0  0  0
  137.8420   73.0880  221.6720 C   0  0  0  0  0  0  0  0  0  0  0  0
  139.1380   72.6880  222.2730 C   0  0  0  0  0  0  0  0  0  0  0  0
  140.1450   73.4450  222.3270 O   0  0  0  0  0  0  0  0  0  0  0  0
  139.2280   71.3810  222.8080 N   0  0  0  0  0  0  0  0  0  0  0  0
  139.6940   70.1460  222.2020 C   0  0  0  0  0  0  0  0  0  0  0  0
  138.7860   69.0570  222.7830 C   0  0  2  0  0  0  0  0  0  0  0  0
  137.9500   68.6020  221.7760 F   0  0  0  0  0  0  0  0  0  0  0  0
  137.9960   69.7950  223.8500 C   0  0  0  0  0  0  0  0  0  0  0  0
  138.8610   70.9580  224.1970 C   0  0  1  0  0  0  0  0  0  0  0  0
  140.0810   70.7410  224.9870 C   0  0  0  0  0  0  0  0  0  0  0  0
  139.9600   70.9570  226.3880 N   0  0  0  0  0  0  0  0  0  0  0  0
  141.0050   71.8820  226.8590 C   0  0  0  0  0  0  0  0  0  0  0  0
  141.1980   71.5570  228.3340 C   0  0  0  0  0  0  0  0  0  0  0  0
  141.0870   70.0590  228.3220 C   0  0  0  0  0  0  0  0  0  0  0  0
  140.1490   69.7610  227.1830 C   0  0  0  0  0  0  0  0  0  0  0  0
  135.0040   72.7220  224.1670 C   0  0  0  0  0  0  0  0  0  0  0  0
  134.2260   71.7360  224.7310 C   0  0  0  0  0  0  0  0  0  0  0  0
  133.3560   72.0620  225.7590 C   0  0  0  0  0  0  0  0  0  0  0  0
  133.2740   73.3430  226.2040 C   0  0  0  0  0  0  0  0  0  0  0  0
  132.4090   73.6560  227.2230 C   0  0  0  0  0  0  0  0  0  0  0  0
  132.3640   74.9680  227.6350 C   0  0  0  0  0  0  0  0  0  0  0  0
  133.1250   75.9560  227.0910 C   0  0  0  0  0  0  0  0  0  0  0  0
  133.9910   75.6600  226.0740 C   0  0  0  0  0  0  0  0  0  0  0  0
  134.0520   74.3300  225.6390 C   0  0  0  0  0  0  0  0  0  0  0  0
  134.8740   73.9740  224.6530 N   0  0  0  0  0  0  0  0  0  0  0  0
  136.9590   74.3180  223.2660 H   0  0  0  0  0  0  0  0  0  0  0  0
  137.4413   72.2607  221.0677 H   0  0  0  0  0  0  0  0  0  0  0  0
  137.9805   73.9649  221.0225 H   0  0  0  0  0  0  0  0  0  0  0  0
  139.5945   70.1900  221.1074 H   0  0  0  0  0  0  0  0  0  0  0  0
  140.7568   69.9559  222.4124 H   0  0  0  0  0  0  0  0  0  0  0  0
  139.3194   68.1846  223.1884 H   0  0  0  0  0  0  0  0  0  0  0  0
  137.0262   70.1326  223.4555 H   0  0  0  0  0  0  0  0  0  0  0  0
  137.7660   69.1630  224.7204 H   0  0  0  0  0  0  0  0  0  0  0  0
  138.3296   71.6512  224.8657 H   0  0  0  0  0  0  0  0  0  0  0  0
  140.4018   69.7002  224.8328 H   0  0  0  0  0  0  0  0  0  0  0  0
  140.8035   71.4903  224.6313 H   0  0  0  0  0  0  0  0  0  0  0  0
  141.9407   71.7204  226.3037 H   0  0  0  0  0  0  0  0  0  0  0  0
  140.7200   72.9333  226.7057 H   0  0  0  0  0  0  0  0  0  0  0  0
  142.1848   71.8849  228.6929 H   0  0  0  0  0  0  0  0  0  0  0  0
  140.4818   72.0565  229.0029 H   0  0  0  0  0  0  0  0  0  0  0  0
  142.0701   69.5974  228.1473 H   0  0  0  0  0  0  0  0  0  0  0  0
  140.7234   69.6583  229.2797 H   0  0  0  0  0  0  0  0  0  0  0  0
  140.5767   68.9664  226.5540 H   0  0  0  0  0  0  0  0  0  0  0  0
  139.1795   69.4297  227.5833 H   0  0  0  0  0  0  0  0  0  0  0  0
  134.2944   70.6995  224.3690 H   0  0  0  0  0  0  0  0  0  0  0  0
  132.7300   71.2815  226.2161 H   0  0  0  0  0  0  0  0  0  0  0  0
  131.7765   72.8878  227.6919 H   0  0  0  0  0  0  0  0  0  0  0  0
  131.6741   75.2330  228.4498 H   0  0  0  0  0  0  0  0  0  0  0  0
  133.0445   76.9867  227.4667 H   0  0  0  0  0  0  0  0  0  0  0  0
  134.6171   76.4389  225.6143 H   0  0  0  0  0  0  0  0  0  0  0  0
  1  2  2  0
  2  3  1  0
  3  4  1  0
  4  5  1  0
  5  6  2  0
  5  7  1  0
  7  8  1  0
  8  9  1  0
  9 10  1  0
  9 11  1  0
 11 12  1  0
 12 13  1  0
 13 14  1  0
 14 15  1  0
 15 16  1  0
 16 17  1  0
 17 18  1  0
  2 19  1  0
 19 20  2  0
 20 21  1  0
 21 22  2  0
 22 23  1  0
 23 24  2  0
 24 25  1  0
 25 26  2  0
 26 27  1  0
 27 28  2  0
 12  7  1  0
 18 14  1  0
 28 19  1  0
 27 22  1  0
  3 29  1  0
  4 30  1  0
  4 31  1  0
  8 32  1  0
  8 33  1  0
  9 34  1  1
 11 35  1  0
 11 36  1  0
 12 37  1  1
 13 38  1  0
 13 39  1  0
 15 40  1  0
 15 41  1  0
 16 42  1  0
 16 43  1  0
 17 44  1  0
 17 45  1  0
 18 46  1  0
 18 47  1  0
 20 48  1  0
 21 49  1  0
 23 50  1  0
 24 51  1  0
 25 52  1  0
 26 53  1  0
M  END
>  <smiles>  (50) 
O=C(NCC(=O)N1C[C@H](F)C[C@H]1CN1CCCC1)c1ccc2ccccc2n1

>  <score_type>  (50) 
oracle

>  <origin>  (50) 
autodockgpu

>  <m_score__min__energy>  (50) 
-8.3699999999999992

>  <m_primary>  (50) 
energy

>  <rmsd>  (50) 
8.181535532621384

>  <m_score__min__rmsd>  (50) 
8.181535532621384

>  <meeko>  (50) 
{"free_energy": -6.87, "intermolecular_energy": -8.66, "internal_energy": -1.88, "cluster_size": 1, "cluster_id": 5, "rank_in_cluster": 1}

>  <energy>  (50) 
-6.09

>  <cluster_rmsd>  (50) 
1.14

>  <cluster>  (50) 
6

$$$$
