
     RDKit          3D

 44 46  0  0  0  0  0  0  0  0999 V2000
  139.2310   68.3960  225.8410 C   0  0  0  0  0  0  0  0  0  0  0  0
  139.8670   69.7000  226.1460 C   0  0  0  0  0  0  0  0  0  0  0  0
  140.1030   69.9590  227.5010 C   0  0  0  0  0  0  0  0  0  0  0  0
  140.7000   71.1620  227.8900 C   0  0  0  0  0  0  0  0  0  0  0  0
  141.0450   72.0740  226.9160 C   0  0  0  0  0  0  0  0  0  0  0  0
  140.8090   71.8180  225.5620 C   0  0  0  0  0  0  0  0  0  0  0  0
  140.2170   70.6230  225.1850 C   0  0  0  0  0  0  0  0  0  0  0  0
  139.9430   70.2960  223.7630 C   0  0  0  0  0  0  0  0  0  0  0  0
  139.1290   71.3370  223.1520 N   0  0  0  0  0  0  0  0  0  0  0  0
  139.7140   72.3500  222.3490 C   0  0  0  0  0  0  0  0  0  0  0  0
  140.9550   72.3970  222.1270 O   0  0  0  0  0  0  0  0  0  0  0  0
  138.7670   73.3660  221.7750 C   0  0  0  0  0  0  0  0  0  0  0  0
  138.9530   74.6730  222.3780 N   0  0  0  0  0  0  0  0  0  0  0  0
  139.9140   75.5280  221.7330 C   0  0  0  0  0  0  0  0  0  0  0  0
  140.4910   75.0580  220.7170 O   0  0  0  0  0  0  0  0  0  0  0  0
  140.1780   76.8630  222.2580 C   0  0  0  0  0  0  0  0  0  0  0  0
  139.0980   77.5820  222.7360 C   0  0  0  0  0  0  0  0  0  0  0  0
  139.3000   78.8590  223.2470 C   0  0  0  0  0  0  0  0  0  0  0  0
  140.5850   79.3650  223.2580 C   0  0  0  0  0  0  0  0  0  0  0  0
  140.7600   80.6240  223.7650 C   0  0  0  0  0  0  0  0  0  0  0  0
  142.0500   81.1520  223.7850 C   0  0  0  0  0  0  0  0  0  0  0  0
  142.2520   82.3860  224.2780 F   0  0  0  0  0  0  0  0  0  0  0  0
  143.0950   80.3940  223.2960 C   0  0  0  0  0  0  0  0  0  0  0  0
  142.9320   79.1240  222.7820 C   0  0  0  0  0  0  0  0  0  0  0  0
  141.6380   78.6100  222.7690 C   0  0  0  0  0  0  0  0  0  0  0  0
  141.4210   77.3740  222.2780 N   0  0  0  0  0  0  0  0  0  0  0  0
  138.9802   67.8817  226.7805 H   0  0  0  0  0  0  0  0  0  0  0  0
  138.3132   68.5631  225.2581 H   0  0  0  0  0  0  0  0  0  0  0  0
  139.9277   67.7757  225.2581 H   0  0  0  0  0  0  0  0  0  0  0  0
  139.8186   69.2157  228.2604 H   0  0  0  0  0  0  0  0  0  0  0  0
  140.8905   71.3762  228.9520 H   0  0  0  0  0  0  0  0  0  0  0  0
  141.5161   73.0235  227.2102 H   0  0  0  0  0  0  0  0  0  0  0  0
  141.0914   72.5602  224.8009 H   0  0  0  0  0  0  0  0  0  0  0  0
  140.8958   70.2147  223.2194 H   0  0  0  0  0  0  0  0  0  0  0  0
  139.3983   69.3416  223.7143 H   0  0  0  0  0  0  0  0  0  0  0  0
  138.0800   71.3230  223.3210 H   0  0  0  0  0  0  0  0  0  0  0  0
  138.9421   73.4448  220.6919 H   0  0  0  0  0  0  0  0  0  0  0  0
  137.7394   73.0343  221.9847 H   0  0  0  0  0  0  0  0  0  0  0  0
  138.4290   74.9780  223.2250 H   0  0  0  0  0  0  0  0  0  0  0  0
  138.0878   77.1474  222.7121 H   0  0  0  0  0  0  0  0  0  0  0  0
  138.4574   79.4516  223.6329 H   0  0  0  0  0  0  0  0  0  0  0  0
  139.9062   81.2034  224.1463 H   0  0  0  0  0  0  0  0  0  0  0  0
  144.1074   80.8236  223.3172 H   0  0  0  0  0  0  0  0  0  0  0  0
  143.7852   78.5442  222.4000 H   0  0  0  0  0  0  0  0  0  0  0  0
  1  2  1  0
  2  3  2  0
  3  4  1  0
  4  5  2  0
  5  6  1  0
  6  7  2  0
  7  8  1  0
  8  9  1  0
  9 10  1  0
 10 11  2  0
 10 12  1  0
 12 13  1  0
 13 14  1  0
 14 15  2  0
 14 16  1  0
 16 17  2  0
 17 18  1  0
 18 19  2  0
 19 20  1  0
 20 21  2  0
 21 22  1  0
 21 23  1  0
 23 24  2  0
 24 25  1  0
 25 26  2  0
  7  2  1  0
 26 16  1  0
 25 19  1  0
  1 27  1  0
  1 28  1  0
  1 29  1  0
  3 30  1  0
  4 31  1  0
  5 32  1  0
  6 33  1  0
  8 34  1  0
  8 35  1  0
  9 36  1  0
 12 37  1  0
 12 38  1  0
 13 39  1  0
 17 40  1  0
 18 41  1  0
 20 42  1  0
 23 43  1  0
 24 44  1  0
M  END
>  <smiles>  (1) 
Cc1ccccc1CNC(=O)CNC(=O)c1ccc2cc(F)ccc2n1

>  <score_type>  (1) 
oracle

>  <origin>  (1) 
autodockgpu

>  <m_score__min__energy>  (1) 
-8.6199999999999992

>  <m_primary>  (1) 
energy

>  <rmsd>  (1) 
8.508514911636425

>  <m_score__min__rmsd>  (1) 
8.508514911636425

>  <meeko>  (1) 
{"free_energy": -8.22, "intermolecular_energy": -9.71, "internal_energy": -0.87, "cluster_size": 23, "cluster_id": 2, "rank_in_cluster": 16}

>  <energy>  (1) 
-8.62

>  <cluster_rmsd>  (1) 
0.0

>  <cluster>  (1) 
1

$$$$

     RDKit          3D

 44 46  0  0  0  0  0  0  0  0999 V2000
  139.5760   68.4690  226.6400 C   0  0  0  0  0  0  0  0  0  0  0  0
  140.1960   69.8040  226.8150 C   0  0  0  0  0  0  0  0  0  0  0  0
  140.4920   70.1710  228.1330 C   0  0  0  0  0  0  0  0  0  0  0  0
  141.0790   71.4110  228.3990 C   0  0  0  0  0  0  0  0  0  0  0  0
  141.3550   72.2530  227.3430 C   0  0  0  0  0  0  0  0  0  0  0  0
  141.0600   71.8890  226.0270 C   0  0  0  0  0  0  0  0  0  0  0  0
  140.4780   70.6580  225.7700 C   0  0  0  0  0  0  0  0  0  0  0  0
  140.1430   70.2170  224.3920 C   0  0  0  0  0  0  0  0  0  0  0  0
  139.3030   71.2090  223.7350 N   0  0  0  0  0  0  0  0  0  0  0  0
  139.7690   71.9340  222.6070 C   0  0  0  0  0  0  0  0  0  0  0  0
  140.9210   71.7560  222.1240 O   0  0  0  0  0  0  0  0  0  0  0  0
  138.8070   72.9270  222.0180 C   0  0  0  0  0  0  0  0  0  0  0  0
  139.2260   74.2930  222.2720 N   0  0  0  0  0  0  0  0  0  0  0  0
  140.1870   74.8340  221.3480 C   0  0  0  0  0  0  0  0  0  0  0  0
  140.5640   74.0710  220.4190 O   0  0  0  0  0  0  0  0  0  0  0  0
  140.6750   76.1990  221.5120 C   0  0  0  0  0  0  0  0  0  0  0  0
  141.5850   76.6630  220.5800 C   0  0  0  0  0  0  0  0  0  0  0  0
  142.0800   77.9570  220.6930 C   0  0  0  0  0  0  0  0  0  0  0  0
  141.6380   78.7370  221.7430 C   0  0  0  0  0  0  0  0  0  0  0  0
  142.1380   80.0080  221.8350 C   0  0  0  0  0  0  0  0  0  0  0  0
  141.7040   80.8110  222.8890 C   0  0  0  0  0  0  0  0  0  0  0  0
  142.1780   82.0640  223.0040 F   0  0  0  0  0  0  0  0  0  0  0  0
  140.7950   80.3020  223.7930 C   0  0  0  0  0  0  0  0  0  0  0  0
  140.2830   79.0230  223.7120 C   0  0  0  0  0  0  0  0  0  0  0  0
  140.7260   78.2330  222.6540 C   0  0  0  0  0  0  0  0  0  0  0  0
  140.2580   76.9750  222.5270 N   0  0  0  0  0  0  0  0  0  0  0  0
  139.3711   68.0277  227.6265 H   0  0  0  0  0  0  0  0  0  0  0  0
  138.6338   68.5726  226.0818 H   0  0  0  0  0  0  0  0  0  0  0  0
  140.2630   67.8160  226.0818 H   0  0  0  0  0  0  0  0  0  0  0  0
  140.2624   69.4829  228.9599 H   0  0  0  0  0  0  0  0  0  0  0  0
  141.3162   71.7093  229.4309 H   0  0  0  0  0  0  0  0  0  0  0  0
  141.8170   73.2315  227.5407 H   0  0  0  0  0  0  0  0  0  0  0  0
  141.2885   72.5761  225.1989 H   0  0  0  0  0  0  0  0  0  0  0  0
  141.0714   70.0887  223.8161 H   0  0  0  0  0  0  0  0  0  0  0  0
  139.5974   69.2633  224.4438 H   0  0  0  0  0  0  0  0  0  0  0  0
  138.3280   71.3800  224.1190 H   0  0  0  0  0  0  0  0  0  0  0  0
  138.7502   72.7674  220.9311 H   0  0  0  0  0  0  0  0  0  0  0  0
  137.8248   72.7754  222.4895 H   0  0  0  0  0  0  0  0  0  0  0  0
  138.8580   74.8520  223.0710 H   0  0  0  0  0  0  0  0  0  0  0  0
  141.9146   76.0133  219.7558 H   0  0  0  0  0  0  0  0  0  0  0  0
  142.8051   78.3494  219.9648 H   0  0  0  0  0  0  0  0  0  0  0  0
  142.8621   80.3853  221.0979 H   0  0  0  0  0  0  0  0  0  0  0  0
  140.4618   80.9473  224.6192 H   0  0  0  0  0  0  0  0  0  0  0  0
  139.5588   78.6451  224.4487 H   0  0  0  0  0  0  0  0  0  0  0  0
  1  2  1  0
  2  3  2  0
  3  4  1  0
  4  5  2  0
  5  6  1  0
  6  7  2  0
  7  8  1  0
  8  9  1  0
  9 10  1  0
 10 11  2  0
 10 12  1  0
 12 13  1  0
 13 14  1  0
 14 15  2  0
 14 16  1  0
 16 17  2  0
 17 18  1  0
 18 19  2  0
 19 20  1  0
 20 21  2  0
 21 22  1  0
 21 23  1  0
 23 24  2  0
 24 25  1  0
 25 26  2  0
  7  2  1  0
 26 16  1  0
 25 19  1  0
  1 27  1  0
  1 28  1  0
  1 29  1  0
  3 30  1  0
  4 31  1  0
  5 32  1  0
  6 33  1  0
  8 34  1  0
  8 35  1  0
  9 36  1  0
 12 37  1  0
 12 38  1  0
 13 39  1  0
 17 40  1  0
 18 41  1  0
 20 42  1  0
 23 43  1  0
 24 44  1  0
M  END
>  <smiles>  (2) 
Cc1ccccc1CNC(=O)CNC(=O)c1ccc2cc(F)ccc2n1

>  <score_type>  (2) 
oracle

>  <origin>  (2) 
autodockgpu

>  <m_score__min__energy>  (2) 
-8.6199999999999992

>  <m_primary>  (2) 
energy

>  <rmsd>  (2) 
8.550019308218031

>  <m_score__min__rmsd>  (2) 
8.550019308218031

>  <meeko>  (2) 
{"free_energy": -8.55, "intermolecular_energy": -10.04, "internal_energy": -1.08, "cluster_size": 23, "cluster_id": 2, "rank_in_cluster": 6}

>  <energy>  (2) 
-8.59

>  <cluster_rmsd>  (2) 
0.7

>  <cluster>  (2) 
1

$$$$

     RDKit          3D

 44 46  0  0  0  0  0  0  0  0999 V2000
  138.8430   80.4490  223.9190 C   0  0  0  0  0  0  0  0  0  0  0  0
  140.2060   80.0390  223.5080 C   0  0  0  0  0  0  0  0  0  0  0  0
  141.2340   80.9320  223.8310 C   0  0  0  0  0  0  0  0  0  0  0  0
  142.5550   80.6340  223.4860 C   0  0  0  0  0  0  0  0  0  0  0  0
  142.8160   79.4510  222.8270 C   0  0  0  0  0  0  0  0  0  0  0  0
  141.7910   78.5580  222.5020 C   0  0  0  0  0  0  0  0  0  0  0  0
  140.4840   78.8610  222.8470 C   0  0  0  0  0  0  0  0  0  0  0  0
  139.3540   77.9510  222.5290 C   0  0  0  0  0  0  0  0  0  0  0  0
  139.8420   76.5970  222.3140 N   0  0  0  0  0  0  0  0  0  0  0  0
  139.3420   75.7960  221.2530 C   0  0  0  0  0  0  0  0  0  0  0  0
  138.4600   76.2150  220.4550 O   0  0  0  0  0  0  0  0  0  0  0  0
  139.9280   74.4160  221.1360 C   0  0  0  0  0  0  0  0  0  0  0  0
  139.6850   73.6280  222.3300 N   0  0  0  0  0  0  0  0  0  0  0  0
  140.4170   72.3930  222.4230 C   0  0  0  0  0  0  0  0  0  0  0  0
  141.1890   72.1250  221.4650 O   0  0  0  0  0  0  0  0  0  0  0  0
  140.2470   71.5240  223.5830 C   0  0  0  0  0  0  0  0  0  0  0  0
  139.6050   70.3160  223.3810 C   0  0  0  0  0  0  0  0  0  0  0  0
  139.4200   69.4530  224.4550 C   0  0  0  0  0  0  0  0  0  0  0  0
  139.8890   69.8410  225.6950 C   0  0  0  0  0  0  0  0  0  0  0  0
  139.6950   68.9750  226.7380 C   0  0  0  0  0  0  0  0  0  0  0  0
  140.1620   69.3490  227.9980 C   0  0  0  0  0  0  0  0  0  0  0  0
  139.9870   68.5190  229.0410 F   0  0  0  0  0  0  0  0  0  0  0  0
  140.7960   70.5650  228.1470 C   0  0  0  0  0  0  0  0  0  0  0  0
  140.9980   71.4460  227.1040 C   0  0  0  0  0  0  0  0  0  0  0  0
  140.5270   71.0590  225.8520 C   0  0  0  0  0  0  0  0  0  0  0  0
  140.6970   71.8820  224.7980 N   0  0  0  0  0  0  0  0  0  0  0  0
  138.7812   80.4676  225.0171 H   0  0  0  0  0  0  0  0  0  0  0  0
  138.6266   81.4520  223.5225 H   0  0  0  0  0  0  0  0  0  0  0  0
  138.1092   79.7318  223.5225 H   0  0  0  0  0  0  0  0  0  0  0  0
  141.0019   81.8697  224.3571 H   0  0  0  0  0  0  0  0  0  0  0  0
  143.3703   81.3291  223.7351 H   0  0  0  0  0  0  0  0  0  0  0  0
  143.8522   79.2051  222.5515 H   0  0  0  0  0  0  0  0  0  0  0  0
  142.0208   77.6200  221.9753 H   0  0  0  0  0  0  0  0  0  0  0  0
  138.6410   77.9512  223.3666 H   0  0  0  0  0  0  0  0  0  0  0  0
  138.8580   78.3027  221.6123 H   0  0  0  0  0  0  0  0  0  0  0  0
  140.5860   76.2170  222.9700 H   0  0  0  0  0  0  0  0  0  0  0  0
  139.4725   73.9069  220.2738 H   0  0  0  0  0  0  0  0  0  0  0  0
  141.0157   74.5147  221.0051 H   0  0  0  0  0  0  0  0  0  0  0  0
  139.0230   73.9310  223.0760 H   0  0  0  0  0  0  0  0  0  0  0  0
  139.2438   70.0404  222.3792 H   0  0  0  0  0  0  0  0  0  0  0  0
  138.9132   68.4860  224.3209 H   0  0  0  0  0  0  0  0  0  0  0  0
  139.1855   68.0120  226.5864 H   0  0  0  0  0  0  0  0  0  0  0  0
  141.1586   70.8465  229.1467 H   0  0  0  0  0  0  0  0  0  0  0  0
  141.5074   72.4092  227.2547 H   0  0  0  0  0  0  0  0  0  0  0  0
  1  2  1  0
  2  3  2  0
  3  4  1  0
  4  5  2  0
  5  6  1  0
  6  7  2  0
  7  8  1  0
  8  9  1  0
  9 10  1  0
 10 11  2  0
 10 12  1  0
 12 13  1  0
 13 14  1  0
 14 15  2  0
 14 16  1  0
 16 17  2  0
 17 18  1  0
 18 19  2  0
 19 20  1  0
 20 21  2  0
 21 22  1  0
 21 23  1  0
 23 24  2  0
 24 25  1  0
 25 26  2  0
  7  2  1  0
 26 16  1  0
 25 19  1  0
  1 27  1  0
  1 28  1  0
  1 29  1  0
  3 30  1  0
  4 31  1  0
  5 32  1  0
  6 33  1  0
  8 34  1  0
  8 35  1  0
  9 36  1  0
 12 37  1  0
 12 38  1  0
 13 39  1  0
 17 40  1  0
 18 41  1  0
 20 42  1  0
 23 43  1  0
 24 44  1  0
M  END
>  <smiles>  (3) 
Cc1ccccc1CNC(=O)CNC(=O)c1ccc2cc(F)ccc2n1

>  <score_type>  (3) 
oracle

>  <origin>  (3) 
autodockgpu

>  <m_score__min__energy>  (3) 
-8.6199999999999992

>  <m_primary>  (3) 
energy

>  <rmsd>  (3) 
3.121914522180128

>  <m_score__min__rmsd>  (3) 
3.121914522180128

>  <meeko>  (3) 
{"free_energy": -8.53, "intermolecular_energy": -10.03, "internal_energy": -0.8, "cluster_size": 15, "cluster_id": 1, "rank_in_cluster": 4}

>  <energy>  (3) 
-8.57

>  <cluster_rmsd>  (3) 
0.93

>  <cluster>  (3) 
1

$$$$

     RDKit          3D

 44 46  0  0  0  0  0  0  0  0999 V2000
  141.8030   80.3790  220.0270 C   0  0  0  0  0  0  0  0  0  0  0  0
  141.7540   79.9280  221.4380 C   0  0  0  0  0  0  0  0  0  0  0  0
  142.6950   80.5090  222.2960 C   0  0  0  0  0  0  0  0  0  0  0  0
  142.7270   80.1490  223.6460 C   0  0  0  0  0  0  0  0  0  0  0  0
  141.8200   79.2190  224.1050 C   0  0  0  0  0  0  0  0  0  0  0  0
  140.8800   78.6370  223.2500 C   0  0  0  0  0  0  0  0  0  0  0  0
  140.8540   78.9990  221.9120 C   0  0  0  0  0  0  0  0  0  0  0  0
  139.8780   78.4140  220.9580 C   0  0  0  0  0  0  0  0  0  0  0  0
  140.1530   76.9990  220.7560 N   0  0  0  0  0  0  0  0  0  0  0  0
  139.4740   76.0050  221.5080 C   0  0  0  0  0  0  0  0  0  0  0  0
  138.6090   76.2960  222.3780 O   0  0  0  0  0  0  0  0  0  0  0  0
  139.8470   74.5800  221.2050 C   0  0  0  0  0  0  0  0  0  0  0  0
  139.5750   73.7050  222.3300 N   0  0  0  0  0  0  0  0  0  0  0  0
  140.4510   72.5710  222.4660 C   0  0  0  0  0  0  0  0  0  0  0  0
  141.3580   72.4560  221.6000 O   0  0  0  0  0  0  0  0  0  0  0  0
  140.2650   71.6270  223.5620 C   0  0  0  0  0  0  0  0  0  0  0  0
  139.6060   70.4460  223.2770 C   0  0  0  0  0  0  0  0  0  0  0  0
  139.4050   69.5140  224.2880 C   0  0  0  0  0  0  0  0  0  0  0  0
  139.8780   69.8070  225.5520 C   0  0  0  0  0  0  0  0  0  0  0  0
  139.6690   68.8750  226.5330 C   0  0  0  0  0  0  0  0  0  0  0  0
  140.1390   69.1530  227.8160 C   0  0  0  0  0  0  0  0  0  0  0  0
  139.9490   68.2560  228.7990 F   0  0  0  0  0  0  0  0  0  0  0  0
  140.7910   70.3460  228.0490 C   0  0  0  0  0  0  0  0  0  0  0  0
  141.0080   71.2940  227.0700 C   0  0  0  0  0  0  0  0  0  0  0  0
  140.5340   71.0020  225.7940 C   0  0  0  0  0  0  0  0  0  0  0  0
  140.7180   71.8930  224.7990 N   0  0  0  0  0  0  0  0  0  0  0  0
  141.9217   81.4721  219.9954 H   0  0  0  0  0  0  0  0  0  0  0  0
  142.6547   79.9028  219.5192 H   0  0  0  0  0  0  0  0  0  0  0  0
  140.8689   80.0968  219.5192 H   0  0  0  0  0  0  0  0  0  0  0  0
  143.4098   81.2494  221.9075 H   0  0  0  0  0  0  0  0  0  0  0  0
  143.4622   80.5995  224.3290 H   0  0  0  0  0  0  0  0  0  0  0  0
  141.8360   78.9287  225.1659 H   0  0  0  0  0  0  0  0  0  0  0  0
  140.1649   77.8959  223.6365 H   0  0  0  0  0  0  0  0  0  0  0  0
  138.8614   78.5319  221.3613 H   0  0  0  0  0  0  0  0  0  0  0  0
  139.9644   78.9359  219.9936 H   0  0  0  0  0  0  0  0  0  0  0  0
  140.8780   76.7240  220.0290 H   0  0  0  0  0  0  0  0  0  0  0  0
  139.2659   74.2360  220.3367 H   0  0  0  0  0  0  0  0  0  0  0  0
  140.9262   74.5445  220.9951 H   0  0  0  0  0  0  0  0  0  0  0  0
  138.7970   73.8800  223.0000 H   0  0  0  0  0  0  0  0  0  0  0  0
  139.2435   70.2454  222.2580 H   0  0  0  0  0  0  0  0  0  0  0  0
  138.8825   68.5672  224.0867 H   0  0  0  0  0  0  0  0  0  0  0  0
  139.1447   67.9329  226.3150 H   0  0  0  0  0  0  0  0  0  0  0  0
  141.1562   70.5520  229.0660 H   0  0  0  0  0  0  0  0  0  0  0  0
  141.5313   72.2367  227.2877 H   0  0  0  0  0  0  0  0  0  0  0  0
  1  2  1  0
  2  3  2  0
  3  4  1  0
  4  5  2  0
  5  6  1  0
  6  7  2  0
  7  8  1  0
  8  9  1  0
  9 10  1  0
 10 11  2  0
 10 12  1  0
 12 13  1  0
 13 14  1  0
 14 15  2  0
 14 16  1  0
 16 17  2  0
 17 18  1  0
 18 19  2  0
 19 20  1  0
 20 21  2  0
 21 22  1  0
 21 23  1  0
 23 24  2  0
 24 25  1  0
 25 26  2  0
  7  2  1  0
 26 16  1  0
 25 19  1  0
  1 27  1  0
  1 28  1  0
  1 29  1  0
  3 30  1  0
  4 31  1  0
  5 32  1  0
  6 33  1  0
  8 34  1  0
  8 35  1  0
  9 36  1  0
 12 37  1  0
 12 38  1  0
 13 39  1  0
 17 40  1  0
 18 41  1  0
 20 42  1  0
 23 43  1  0
 24 44  1  0
M  END
>  <smiles>  (4) 
Cc1ccccc1CNC(=O)CNC(=O)c1ccc2cc(F)ccc2n1

>  <score_type>  (4) 
oracle

>  <origin>  (4) 
autodockgpu

>  <m_score__min__energy>  (4) 
-8.6199999999999992

>  <m_primary>  (4) 
energy

>  <rmsd>  (4) 
3.0307367581050944

>  <m_score__min__rmsd>  (4) 
3.0307367581050944

>  <meeko>  (4) 
{"free_energy": -8.32, "intermolecular_energy": -9.81, "internal_energy": -1.1, "cluster_size": 15, "cluster_id": 1, "rank_in_cluster": 9}

>  <energy>  (4) 
-8.53

>  <cluster_rmsd>  (4) 
0.58

>  <cluster>  (4) 
1

$$$$

     RDKit          3D

 44 46  0  0  0  0  0  0  0  0999 V2000
  139.3680   68.4540  226.2480 C   0  0  0  0  0  0  0  0  0  0  0  0
  140.0070   69.7570  226.5470 C   0  0  0  0  0  0  0  0  0  0  0  0
  140.3210   69.9880  227.8920 C   0  0  0  0  0  0  0  0  0  0  0  0
  140.9270   71.1880  228.2730 C   0  0  0  0  0  0  0  0  0  0  0  0
  141.2040   72.1270  227.3030 C   0  0  0  0  0  0  0  0  0  0  0  0
  140.8910   71.9000  225.9600 C   0  0  0  0  0  0  0  0  0  0  0  0
  140.2910   70.7070  225.5890 C   0  0  0  0  0  0  0  0  0  0  0  0
  139.9360   70.4090  224.1780 C   0  0  0  0  0  0  0  0  0  0  0  0
  139.2260   71.5350  223.5880 N   0  0  0  0  0  0  0  0  0  0  0  0
  139.7090   72.1740  222.4150 C   0  0  0  0  0  0  0  0  0  0  0  0
  140.7650   71.8020  221.8350 O   0  0  0  0  0  0  0  0  0  0  0  0
  138.8850   73.3220  221.9040 C   0  0  0  0  0  0  0  0  0  0  0  0
  139.5000   74.6010  222.2080 N   0  0  0  0  0  0  0  0  0  0  0  0
  138.6010   75.7190  222.3100 C   0  0  0  0  0  0  0  0  0  0  0  0
  137.3790   75.4750  222.1250 O   0  0  0  0  0  0  0  0  0  0  0  0
  139.1150   77.0500  222.6110 C   0  0  0  0  0  0  0  0  0  0  0  0
  138.1900   78.0630  222.7860 C   0  0  0  0  0  0  0  0  0  0  0  0
  138.6310   79.3490  223.0750 C   0  0  0  0  0  0  0  0  0  0  0  0
  139.9910   79.5670  223.1790 C   0  0  0  0  0  0  0  0  0  0  0  0
  140.4030   80.8410  223.4640 C   0  0  0  0  0  0  0  0  0  0  0  0
  141.7730   81.0810  223.5730 C   0  0  0  0  0  0  0  0  0  0  0  0
  142.2060   82.3220  223.8540 F   0  0  0  0  0  0  0  0  0  0  0  0
  142.6550   80.0360  223.3900 C   0  0  0  0  0  0  0  0  0  0  0  0
  142.2530   78.7480  223.1020 C   0  0  0  0  0  0  0  0  0  0  0  0
  140.8830   78.5240  222.9970 C   0  0  0  0  0  0  0  0  0  0  0  0
  140.4350   77.2840  222.7170 N   0  0  0  0  0  0  0  0  0  0  0  0
  139.1177   67.9437  227.1898 H   0  0  0  0  0  0  0  0  0  0  0  0
  138.4495   68.6210  225.6661 H   0  0  0  0  0  0  0  0  0  0  0  0
  140.0623   67.8300  225.6661 H   0  0  0  0  0  0  0  0  0  0  0  0
  140.0904   69.2241  228.6492 H   0  0  0  0  0  0  0  0  0  0  0  0
  141.1781   71.3795  229.3267 H   0  0  0  0  0  0  0  0  0  0  0  0
  141.6814   73.0750  227.5919 H   0  0  0  0  0  0  0  0  0  0  0  0
  141.1195   72.6636  225.2019 H   0  0  0  0  0  0  0  0  0  0  0  0
  140.8553   70.2188  223.6047 H   0  0  0  0  0  0  0  0  0  0  0  0
  139.2859   69.5220  224.1518 H   0  0  0  0  0  0  0  0  0  0  0  0
  138.3330   71.8700  224.0540 H   0  0  0  0  0  0  0  0  0  0  0  0
  138.7795   73.2274  220.8132 H   0  0  0  0  0  0  0  0  0  0  0  0
  137.9035   73.2870  222.3993 H   0  0  0  0  0  0  0  0  0  0  0  0
  140.5280   74.7090  222.3450 H   0  0  0  0  0  0  0  0  0  0  0  0
  137.1140   77.8527  222.6972 H   0  0  0  0  0  0  0  0  0  0  0  0
  137.9153   80.1721  223.2173 H   0  0  0  0  0  0  0  0  0  0  0  0
  139.6741   81.6530  223.6032 H   0  0  0  0  0  0  0  0  0  0  0  0
  143.7323   80.2399  223.4781 H   0  0  0  0  0  0  0  0  0  0  0  0
  142.9813   77.9356  222.9618 H   0  0  0  0  0  0  0  0  0  0  0  0
  1  2  1  0
  2  3  2  0
  3  4  1  0
  4  5  2  0
  5  6  1  0
  6  7  2  0
  7  8  1  0
  8  9  1  0
  9 10  1  0
 10 11  2  0
 10 12  1  0
 12 13  1  0
 13 14  1  0
 14 15  2  0
 14 16  1  0
 16 17  2  0
 17 18  1  0
 18 19  2  0
 19 20  1  0
 20 21  2  0
 21 22  1  0
 21 23  1  0
 23 24  2  0
 24 25  1  0
 25 26  2  0
  7  2  1  0
 26 16  1  0
 25 19  1  0
  1 27  1  0
  1 28  1  0
  1 29  1  0
  3 30  1  0
  4 31  1  0
  5 32  1  0
  6 33  1  0
  8 34  1  0
  8 35  1  0
  9 36  1  0
 12 37  1  0
 12 38  1  0
 13 39  1  0
 17 40  1  0
 18 41  1  0
 20 42  1  0
 23 43  1  0
 24 44  1  0
M  END
>  <smiles>  (5) 
Cc1ccccc1CNC(=O)CNC(=O)c1ccc2cc(F)ccc2n1

>  <score_type>  (5) 
oracle

>  <origin>  (5) 
autodockgpu

>  <m_score__min__energy>  (5) 
-8.6199999999999992

>  <m_primary>  (5) 
energy

>  <rmsd>  (5) 
8.647482495914547

>  <m_score__min__rmsd>  (5) 
8.647482495914547

>  <meeko>  (5) 
{"free_energy": -8.27, "intermolecular_energy": -9.77, "internal_energy": -1.08, "cluster_size": 23, "cluster_id": 2, "rank_in_cluster": 15}

>  <energy>  (5) 
-8.5

>  <cluster_rmsd>  (5) 
0.28

>  <cluster>  (5) 
1

$$$$

     RDKit          3D

 44 46  0  0  0  0  0  0  0  0999 V2000
  141.0740   71.8990  227.7420 C   0  0  0  0  0  0  0  0  0  0  0  0
  140.7950   70.5020  227.3340 C   0  0  0  0  0  0  0  0  0  0  0  0
  140.7390   69.5630  228.3710 C   0  0  0  0  0  0  0  0  0  0  0  0
  140.4800   68.2200  228.0870 C   0  0  0  0  0  0  0  0  0  0  0  0
  140.2830   67.8470  226.7750 C   0  0  0  0  0  0  0  0  0  0  0  0
  140.3390   68.7810  225.7370 C   0  0  0  0  0  0  0  0  0  0  0  0
  140.5960   70.1120  226.0270 C   0  0  0  0  0  0  0  0  0  0  0  0
  140.6660   71.1490  224.9660 C   0  0  0  0  0  0  0  0  0  0  0  0
  139.4060   71.2160  224.2400 N   0  0  0  0  0  0  0  0  0  0  0  0
  139.2950   71.9440  223.0260 C   0  0  0  0  0  0  0  0  0  0  0  0
  140.2730   72.5620  222.5230 O   0  0  0  0  0  0  0  0  0  0  0  0
  137.9420   71.9340  222.3730 C   0  0  0  0  0  0  0  0  0  0  0  0
  136.9650   72.6700  223.1540 N   0  0  0  0  0  0  0  0  0  0  0  0
  136.1910   71.8900  224.0820 C   0  0  0  0  0  0  0  0  0  0  0  0
  136.4390   70.6560  224.1220 O   0  0  0  0  0  0  0  0  0  0  0  0
  135.1800   72.5310  224.9170 C   0  0  0  0  0  0  0  0  0  0  0  0
  134.3020   71.7060  225.5950 C   0  0  0  0  0  0  0  0  0  0  0  0
  133.3210   72.2700  226.4030 C   0  0  0  0  0  0  0  0  0  0  0  0
  133.2630   73.6460  226.4980 C   0  0  0  0  0  0  0  0  0  0  0  0
  132.2890   74.1800  227.2990 C   0  0  0  0  0  0  0  0  0  0  0  0
  132.2140   75.5680  227.4080 C   0  0  0  0  0  0  0  0  0  0  0  0
  131.2690   76.1200  228.1890 F   0  0  0  0  0  0  0  0  0  0  0  0
  133.1150   76.3470  226.7120 C   0  0  0  0  0  0  0  0  0  0  0  0
  134.1010   75.8220  225.9010 C   0  0  0  0  0  0  0  0  0  0  0  0
  134.1630   74.4350  225.8020 C   0  0  0  0  0  0  0  0  0  0  0  0
  135.1070   73.8690  225.0240 N   0  0  0  0  0  0  0  0  0  0  0  0
  141.0871   71.9647  228.8400 H   0  0  0  0  0  0  0  0  0  0  0  0
  142.0518   72.2088  227.3445 H   0  0  0  0  0  0  0  0  0  0  0  0
  140.2903   72.5606  227.3445 H   0  0  0  0  0  0  0  0  0  0  0  0
  140.8992   69.8833  229.4111 H   0  0  0  0  0  0  0  0  0  0  0  0
  140.4342   67.4748  228.8948 H   0  0  0  0  0  0  0  0  0  0  0  0
  140.0774   66.7922  226.5400 H   0  0  0  0  0  0  0  0  0  0  0  0
  140.1802   68.4620  224.6963 H   0  0  0  0  0  0  0  0  0  0  0  0
  140.8714   72.1264  225.4271 H   0  0  0  0  0  0  0  0  0  0  0  0
  141.4703   70.8872  224.2627 H   0  0  0  0  0  0  0  0  0  0  0  0
  138.5650   70.7050  224.6400 H   0  0  0  0  0  0  0  0  0  0  0  0
  138.0230   72.3946  221.3774 H   0  0  0  0  0  0  0  0  0  0  0  0
  137.6049   70.8897  222.2972 H   0  0  0  0  0  0  0  0  0  0  0  0
  136.8280   73.6980  223.0530 H   0  0  0  0  0  0  0  0  0  0  0  0
  134.3788   70.6131  225.4961 H   0  0  0  0  0  0  0  0  0  0  0  0
  132.6094   71.6361  226.9524 H   0  0  0  0  0  0  0  0  0  0  0  0
  131.5851   73.5317  227.8415 H   0  0  0  0  0  0  0  0  0  0  0  0
  133.0443   77.4405  226.8080 H   0  0  0  0  0  0  0  0  0  0  0  0
  134.8051   76.4697  225.3581 H   0  0  0  0  0  0  0  0  0  0  0  0
  1  2  1  0
  2  3  2  0
  3  4  1  0
  4  5  2  0
  5  6  1  0
  6  7  2  0
  7  8  1  0
  8  9  1  0
  9 10  1  0
 10 11  2  0
 10 12  1  0
 12 13  1  0
 13 14  1  0
 14 15  2  0
 14 16  1  0
 16 17  2  0
 17 18  1  0
 18 19  2  0
 19 20  1  0
 20 21  2  0
 21 22  1  0
 21 23  1  0
 23 24  2  0
 24 25  1  0
 25 26  2  0
  7  2  1  0
 26 16  1  0
 25 19  1  0
  1 27  1  0
  1 28  1  0
  1 29  1  0
  3 30  1  0
  4 31  1  0
  5 32  1  0
  6 33  1  0
  8 34  1  0
  8 35  1  0
  9 36  1  0
 12 37  1  0
 12 38  1  0
 13 39  1  0
 17 40  1  0
 18 41  1  0
 20 42  1  0
 23 43  1  0
 24 44  1  0
M  END
>  <smiles>  (6) 
Cc1ccccc1CNC(=O)CNC(=O)c1ccc2cc(F)ccc2n1

>  <score_type>  (6) 
oracle

>  <origin>  (6) 
autodockgpu

>  <m_score__min__energy>  (6) 
-8.6199999999999992

>  <m_primary>  (6) 
energy

>  <rmsd>  (6) 
7.976758909882627

>  <m_score__min__rmsd>  (6) 
7.976758909882627

>  <meeko>  (6) 
{"free_energy": -7.66, "intermolecular_energy": -9.15, "internal_energy": -1.79, "cluster_size": 8, "cluster_id": 3, "rank_in_cluster": 5}

>  <energy>  (6) 
-8.38

>  <cluster_rmsd>  (6) 
1.24

>  <cluster>  (6) 
1

$$$$

     RDKit          3D

 44 46  0  0  0  0  0  0  0  0999 V2000
  139.2430   68.6580  225.2830 C   0  0  0  0  0  0  0  0  0  0  0  0
  139.7620   69.7670  226.1180 C   0  0  0  0  0  0  0  0  0  0  0  0
  139.5190   69.6610  227.4920 C   0  0  0  0  0  0  0  0  0  0  0  0
  139.9700   70.6570  228.3630 C   0  0  0  0  0  0  0  0  0  0  0  0
  140.6520   71.7340  227.8390 C   0  0  0  0  0  0  0  0  0  0  0  0
  140.8960   71.8430  226.4670 C   0  0  0  0  0  0  0  0  0  0  0  0
  140.4460   70.8520  225.6100 C   0  0  0  0  0  0  0  0  0  0  0  0
  140.6750   70.9130  224.1440 C   0  0  0  0  0  0  0  0  0  0  0  0
  139.4200   71.1490  223.4450 N   0  0  0  0  0  0  0  0  0  0  0  0
  139.2660   72.2500  222.5630 C   0  0  0  0  0  0  0  0  0  0  0  0
  140.2000   73.0700  222.3440 O   0  0  0  0  0  0  0  0  0  0  0  0
  137.9230   72.3830  221.9020 C   0  0  0  0  0  0  0  0  0  0  0  0
  136.9530   73.0100  222.7810 N   0  0  0  0  0  0  0  0  0  0  0  0
  136.2190   72.1180  223.6380 C   0  0  0  0  0  0  0  0  0  0  0  0
  136.4910   70.8920  223.5380 O   0  0  0  0  0  0  0  0  0  0  0  0
  135.2180   72.6430  224.5610 C   0  0  0  0  0  0  0  0  0  0  0  0
  134.3550   71.7350  225.1460 C   0  0  0  0  0  0  0  0  0  0  0  0
  133.3850   72.1880  226.0320 C   0  0  0  0  0  0  0  0  0  0  0  0
  133.3200   73.5410  226.2970 C   0  0  0  0  0  0  0  0  0  0  0  0
  132.3570   73.9640  227.1730 C   0  0  0  0  0  0  0  0  0  0  0  0
  132.2760   75.3280  227.4530 C   0  0  0  0  0  0  0  0  0  0  0  0
  131.3400   75.7720  228.3100 F   0  0  0  0  0  0  0  0  0  0  0  0
  133.1610   76.1940  226.8440 C   0  0  0  0  0  0  0  0  0  0  0  0
  134.1360   75.7800  225.9590 C   0  0  0  0  0  0  0  0  0  0  0  0
  134.2050   74.4160  225.6900 C   0  0  0  0  0  0  0  0  0  0  0  0
  135.1390   73.9570  224.8330 N   0  0  0  0  0  0  0  0  0  0  0  0
  138.8669   67.8544  225.9332 H   0  0  0  0  0  0  0  0  0  0  0  0
  138.4250   69.0289  224.6480 H   0  0  0  0  0  0  0  0  0  0  0  0
  140.0519   68.2675  224.6480 H   0  0  0  0  0  0  0  0  0  0  0  0
  138.9721   68.7924  227.8874 H   0  0  0  0  0  0  0  0  0  0  0  0
  139.7844   70.5827  229.4447 H   0  0  0  0  0  0  0  0  0  0  0  0
  141.0117   72.5241  228.5145 H   0  0  0  0  0  0  0  0  0  0  0  0
  141.4425   72.7111  226.0699 H   0  0  0  0  0  0  0  0  0  0  0  0
  141.3745   71.7318  223.9199 H   0  0  0  0  0  0  0  0  0  0  0  0
  141.0965   69.9541  223.8079 H   0  0  0  0  0  0  0  0  0  0  0  0
  138.6160   70.4750  223.6100 H   0  0  0  0  0  0  0  0  0  0  0  0
  138.0310   72.9959  220.9950 H   0  0  0  0  0  0  0  0  0  0  0  0
  137.5606   71.3743  221.6546 H   0  0  0  0  0  0  0  0  0  0  0  0
  136.7940   74.0390  222.7950 H   0  0  0  0  0  0  0  0  0  0  0  0
  134.4355   70.6632  224.9121 H   0  0  0  0  0  0  0  0  0  0  0  0
  132.6863   71.4858  226.5102 H   0  0  0  0  0  0  0  0  0  0  0  0
  131.6664   73.2483  227.6429 H   0  0  0  0  0  0  0  0  0  0  0  0
  133.0858   77.2668  227.0751 H   0  0  0  0  0  0  0  0  0  0  0  0
  134.8266   76.4950  225.4880 H   0  0  0  0  0  0  0  0  0  0  0  0
  1  2  1  0
  2  3  2  0
  3  4  1  0
  4  5  2  0
  5  6  1  0
  6  7  2  0
  7  8  1  0
  8  9  1  0
  9 10  1  0
 10 11  2  0
 10 12  1  0
 12 13  1  0
 13 14  1  0
 14 15  2  0
 14 16  1  0
 16 17  2  0
 17 18  1  0
 18 19  2  0
 19 20  1  0
 20 21  2  0
 21 22  1  0
 21 23  1  0
 23 24  2  0
 24 25  1  0
 25 26  2  0
  7  2  1  0
 26 16  1  0
 25 19  1  0
  1 27  1  0
  1 28  1  0
  1 29  1  0
  3 30  1  0
  4 31  1  0
  5 32  1  0
  6 33  1  0
  8 34  1  0
  8 35  1  0
  9 36  1  0
 12 37  1  0
 12 38  1  0
 13 39  1  0
 17 40  1  0
 18 41  1  0
 20 42  1  0
 23 43  1  0
 24 44  1  0
M  END
>  <smiles>  (7) 
Cc1ccccc1CNC(=O)CNC(=O)c1ccc2cc(F)ccc2n1

>  <score_type>  (7) 
oracle

>  <origin>  (7) 
autodockgpu

>  <m_score__min__energy>  (7) 
-8.6199999999999992

>  <m_primary>  (7) 
energy

>  <rmsd>  (7) 
7.419781058626318

>  <m_score__min__rmsd>  (7) 
7.419781058626318

>  <meeko>  (7) 
{"free_energy": -7.38, "intermolecular_energy": -8.87, "internal_energy": -1.98, "cluster_size": 8, "cluster_id": 3, "rank_in_cluster": 7}

>  <energy>  (7) 
-8.37

>  <cluster_rmsd>  (7) 
1.74

>  <cluster>  (7) 
1

$$$$

     RDKit          3D

 44 46  0  0  0  0  0  0  0  0999 V2000
  141.7480   80.4740  220.0610 C   0  0  0  0  0  0  0  0  0  0  0  0
  141.7050   79.9560  221.4490 C   0  0  0  0  0  0  0  0  0  0  0  0
  142.6560   80.4890  222.3280 C   0  0  0  0  0  0  0  0  0  0  0  0
  142.6960   80.0640  223.6580 C   0  0  0  0  0  0  0  0  0  0  0  0
  141.7850   79.1180  224.0780 C   0  0  0  0  0  0  0  0  0  0  0  0
  140.8350   78.5840  223.2030 C   0  0  0  0  0  0  0  0  0  0  0  0
  140.8020   79.0110  221.8850 C   0  0  0  0  0  0  0  0  0  0  0  0
  139.8160   78.4800  220.9100 C   0  0  0  0  0  0  0  0  0  0  0  0
  140.0410   77.0590  220.6860 N   0  0  0  0  0  0  0  0  0  0  0  0
  139.5320   76.0840  221.5830 C   0  0  0  0  0  0  0  0  0  0  0  0
  138.8660   76.3980  222.6080 O   0  0  0  0  0  0  0  0  0  0  0  0
  139.8310   74.6520  221.2400 C   0  0  0  0  0  0  0  0  0  0  0  0
  139.5760   73.7680  222.3630 N   0  0  0  0  0  0  0  0  0  0  0  0
  140.4110   72.5980  222.4390 C   0  0  0  0  0  0  0  0  0  0  0  0
  141.2720   72.4630  221.5300 O   0  0  0  0  0  0  0  0  0  0  0  0
  140.2380   71.6420  223.5280 C   0  0  0  0  0  0  0  0  0  0  0  0
  139.6000   70.4520  223.2310 C   0  0  0  0  0  0  0  0  0  0  0  0
  139.4110   69.5090  224.2350 C   0  0  0  0  0  0  0  0  0  0  0  0
  139.8750   69.8010  225.5020 C   0  0  0  0  0  0  0  0  0  0  0  0
  139.6790   68.8580  226.4750 C   0  0  0  0  0  0  0  0  0  0  0  0
  140.1400   69.1350  227.7620 C   0  0  0  0  0  0  0  0  0  0  0  0
  139.9620   68.2260  228.7370 F   0  0  0  0  0  0  0  0  0  0  0  0
  140.7710   70.3370  228.0070 C   0  0  0  0  0  0  0  0  0  0  0  0
  140.9750   71.2960  227.0350 C   0  0  0  0  0  0  0  0  0  0  0  0
  140.5090   71.0050  225.7560 C   0  0  0  0  0  0  0  0  0  0  0  0
  140.6820   71.9070  224.7680 N   0  0  0  0  0  0  0  0  0  0  0  0
  141.8390   81.5700  220.0813 H   0  0  0  0  0  0  0  0  0  0  0  0
  142.6135   80.0439  219.5358 H   0  0  0  0  0  0  0  0  0  0  0  0
  140.8234   80.1925  219.5358 H   0  0  0  0  0  0  0  0  0  0  0  0
  143.3724   81.2433  221.9706 H   0  0  0  0  0  0  0  0  0  0  0  0
  143.4394   80.4758  224.3564 H   0  0  0  0  0  0  0  0  0  0  0  0
  141.8064   78.7765  225.1234 H   0  0  0  0  0  0  0  0  0  0  0  0
  140.1179   77.8294  223.5583 H   0  0  0  0  0  0  0  0  0  0  0  0
  138.7999   78.6287  221.3042 H   0  0  0  0  0  0  0  0  0  0  0  0
  139.9325   79.0152  219.9561 H   0  0  0  0  0  0  0  0  0  0  0  0
  140.5980   76.7640  219.8310 H   0  0  0  0  0  0  0  0  0  0  0  0
  139.1961   74.3475  220.3949 H   0  0  0  0  0  0  0  0  0  0  0  0
  140.8968   74.5766  220.9785 H   0  0  0  0  0  0  0  0  0  0  0  0
  138.8370   73.9610  223.0710 H   0  0  0  0  0  0  0  0  0  0  0  0
  139.2450   70.2530  222.2091 H   0  0  0  0  0  0  0  0  0  0  0  0
  138.9049   68.5551  224.0253 H   0  0  0  0  0  0  0  0  0  0  0  0
  139.1721   67.9085  226.2482 H   0  0  0  0  0  0  0  0  0  0  0  0
  141.1292   70.5414  229.0268 H   0  0  0  0  0  0  0  0  0  0  0  0
  141.4821   72.2457  227.2607 H   0  0  0  0  0  0  0  0  0  0  0  0
  1  2  1  0
  2  3  2  0
  3  4  1  0
  4  5  2  0
  5  6  1  0
  6  7  2  0
  7  8  1  0
  8  9  1  0
  9 10  1  0
 10 11  2  0
 10 12  1  0
 12 13  1  0
 13 14  1  0
 14 15  2  0
 14 16  1  0
 16 17  2  0
 17 18  1  0
 18 19  2  0
 19 20  1  0
 20 21  2  0
 21 22  1  0
 21 23  1  0
 23 24  2  0
 24 25  1  0
 25 26  2  0
  7  2  1  0
 26 16  1  0
 25 19  1  0
  1 27  1  0
  1 28  1  0
  1 29  1  0
  3 30  1  0
  4 31  1  0
  5 32  1  0
  6 33  1  0
  8 34  1  0
  8 35  1  0
  9 36  1  0
 12 37  1  0
 12 38  1  0
 13 39  1  0
 17 40  1  0
 18 41  1  0
 20 42  1  0
 23 43  1  0
 24 44  1  0
M  END
>  <smiles>  (8) 
Cc1ccccc1CNC(=O)CNC(=O)c1ccc2cc(F)ccc2n1

>  <score_type>  (8) 
oracle

>  <origin>  (8) 
autodockgpu

>  <m_score__min__energy>  (8) 
-8.6199999999999992

>  <m_primary>  (8) 
energy

>  <rmsd>  (8) 
3.016645709699722

>  <m_score__min__rmsd>  (8) 
3.016645709699722

>  <meeko>  (8) 
{"free_energy": -8.29, "intermolecular_energy": -9.78, "internal_energy": -1.1, "cluster_size": 15, "cluster_id": 1, "rank_in_cluster": 12}

>  <energy>  (8) 
-8.35

>  <cluster_rmsd>  (8) 
1.47

>  <cluster>  (8) 
1

$$$$

     RDKit          3D

 44 46  0  0  0  0  0  0  0  0999 V2000
  141.1760   72.2500  227.2830 C   0  0  0  0  0  0  0  0  0  0  0  0
  140.6510   70.8690  227.1710 C   0  0  0  0  0  0  0  0  0  0  0  0
  140.1250   70.3200  228.3470 C   0  0  0  0  0  0  0  0  0  0  0  0
  139.6050   69.0220  228.3410 C   0  0  0  0  0  0  0  0  0  0  0  0
  139.6230   68.3070  227.1630 C   0  0  0  0  0  0  0  0  0  0  0  0
  140.1480   68.8530  225.9890 C   0  0  0  0  0  0  0  0  0  0  0  0
  140.6620   70.1400  226.0010 C   0  0  0  0  0  0  0  0  0  0  0  0
  141.2320   70.7720  224.7840 C   0  0  0  0  0  0  0  0  0  0  0  0
  140.2310   71.6040  224.1320 N   0  0  0  0  0  0  0  0  0  0  0  0
  140.3390   71.9400  222.7560 C   0  0  0  0  0  0  0  0  0  0  0  0
  141.2970   71.5390  222.0410 O   0  0  0  0  0  0  0  0  0  0  0  0
  139.2410   72.8030  222.2000 C   0  0  0  0  0  0  0  0  0  0  0  0
  139.5390   74.2150  222.3560 N   0  0  0  0  0  0  0  0  0  0  0  0
  140.5140   74.7520  221.4440 C   0  0  0  0  0  0  0  0  0  0  0  0
  141.0050   73.9470  220.6090 O   0  0  0  0  0  0  0  0  0  0  0  0
  140.8870   76.1600  221.5140 C   0  0  0  0  0  0  0  0  0  0  0  0
  141.4680   76.7190  220.3900 C   0  0  0  0  0  0  0  0  0  0  0  0
  141.8410   78.0580  220.4080 C   0  0  0  0  0  0  0  0  0  0  0  0
  141.6140   78.7860  221.5590 C   0  0  0  0  0  0  0  0  0  0  0  0
  141.9890   80.1020  221.5540 C   0  0  0  0  0  0  0  0  0  0  0  0
  141.7690   80.8540  222.7080 C   0  0  0  0  0  0  0  0  0  0  0  0
  142.1260   82.1490  222.7320 F   0  0  0  0  0  0  0  0  0  0  0  0
  141.1850   80.2500  223.8030 C   0  0  0  0  0  0  0  0  0  0  0  0
  140.8020   78.9240  223.8210 C   0  0  0  0  0  0  0  0  0  0  0  0
  141.0290   78.1870  222.6620 C   0  0  0  0  0  0  0  0  0  0  0  0
  140.6750   76.8870  222.6250 N   0  0  0  0  0  0  0  0  0  0  0  0
  141.2781   72.5185  228.3448 H   0  0  0  0  0  0  0  0  0  0  0  0
  142.1594   72.3092  226.7937 H   0  0  0  0  0  0  0  0  0  0  0  0
  140.4803   72.9475  226.7937 H   0  0  0  0  0  0  0  0  0  0  0  0
  140.1209   70.9099  229.2755 H   0  0  0  0  0  0  0  0  0  0  0  0
  139.1896   68.5802  229.2587 H   0  0  0  0  0  0  0  0  0  0  0  0
  139.2156   67.2853  227.1467 H   0  0  0  0  0  0  0  0  0  0  0  0
  140.1533   68.2643  225.0598 H   0  0  0  0  0  0  0  0  0  0  0  0
  142.0930   71.3950  225.0677 H   0  0  0  0  0  0  0  0  0  0  0  0
  141.5516   69.9834  224.0869 H   0  0  0  0  0  0  0  0  0  0  0  0
  139.4120   71.9560  224.7090 H   0  0  0  0  0  0  0  0  0  0  0  0
  139.1194   72.5802  221.1297 H   0  0  0  0  0  0  0  0  0  0  0  0
  138.3170   72.5835  222.7550 H   0  0  0  0  0  0  0  0  0  0  0  0
  139.0810   74.8070  223.0800 H   0  0  0  0  0  0  0  0  0  0  0  0
  141.6335   76.1092  219.4896 H   0  0  0  0  0  0  0  0  0  0  0  0
  142.3054   78.5258  219.5274 H   0  0  0  0  0  0  0  0  0  0  0  0
  142.4513   80.5544  220.6643 H   0  0  0  0  0  0  0  0  0  0  0  0
  141.0164   80.8552  224.7059 H   0  0  0  0  0  0  0  0  0  0  0  0
  140.3389   78.4707  224.7099 H   0  0  0  0  0  0  0  0  0  0  0  0
  1  2  1  0
  2  3  2  0
  3  4  1  0
  4  5  2  0
  5  6  1  0
  6  7  2  0
  7  8  1  0
  8  9  1  0
  9 10  1  0
 10 11  2  0
 10 12  1  0
 12 13  1  0
 13 14  1  0
 14 15  2  0
 14 16  1  0
 16 17  2  0
 17 18  1  0
 18 19  2  0
 19 20  1  0
 20 21  2  0
 21 22  1  0
 21 23  1  0
 23 24  2  0
 24 25  1  0
 25 26  2  0
  7  2  1  0
 26 16  1  0
 25 19  1  0
  1 27  1  0
  1 28  1  0
  1 29  1  0
  3 30  1  0
  4 31  1  0
  5 32  1  0
  6 33  1  0
  8 34  1  0
  8 35  1  0
  9 36  1  0
 12 37  1  0
 12 38  1  0
 13 39  1  0
 17 40  1  0
 18 41  1  0
 20 42  1  0
 23 43  1  0
 24 44  1  0
M  END
>  <smiles>  (9) 
Cc1ccccc1CNC(=O)CNC(=O)c1ccc2cc(F)ccc2n1

>  <score_type>  (9) 
oracle

>  <origin>  (9) 
autodockgpu

>  <m_score__min__energy>  (9) 
-8.6199999999999992

>  <m_primary>  (9) 
energy

>  <rmsd>  (9) 
9.020407400571374

>  <m_score__min__rmsd>  (9) 
9.020407400571374

>  <meeko>  (9) 
{"free_energy": -8.48, "intermolecular_energy": -9.97, "internal_energy": -0.99, "cluster_size": 23, "cluster_id": 2, "rank_in_cluster": 12}

>  <energy>  (9) 
-8.32

>  <cluster_rmsd>  (9) 
1.56

>  <cluster>  (9) 
1

$$$$

     RDKit          3D

 44 46  0  0  0  0  0  0  0  0999 V2000
  139.9560   68.3410  227.8160 C   0  0  0  0  0  0  0  0  0  0  0  0
  140.3570   69.6840  227.3350 C   0  0  0  0  0  0  0  0  0  0  0  0
  140.7260   70.6010  228.3260 C   0  0  0  0  0  0  0  0  0  0  0  0
  141.1200   71.8940  227.9720 C   0  0  0  0  0  0  0  0  0  0  0  0
  141.1380   72.2380  226.6370 C   0  0  0  0  0  0  0  0  0  0  0  0
  140.7700   71.3250  225.6450 C   0  0  0  0  0  0  0  0  0  0  0  0
  140.3790   70.0440  226.0040 C   0  0  0  0  0  0  0  0  0  0  0  0
  139.9780   69.0310  224.9950 C   0  0  0  0  0  0  0  0  0  0  0  0
  139.4030   69.6820  223.8270 N   0  0  0  0  0  0  0  0  0  0  0  0
  138.1450   70.3360  223.8960 C   0  0  0  0  0  0  0  0  0  0  0  0
  137.4710   70.3840  224.9610 O   0  0  0  0  0  0  0  0  0  0  0  0
  137.6610   70.9710  222.6220 C   0  0  0  0  0  0  0  0  0  0  0  0
  138.1380   72.3350  222.4880 N   0  0  0  0  0  0  0  0  0  0  0  0
  139.4610   72.4830  221.9440 C   0  0  0  0  0  0  0  0  0  0  0  0
  140.0670   71.4210  221.6410 O   0  0  0  0  0  0  0  0  0  0  0  0
  140.0380   73.8120  221.7680 C   0  0  0  0  0  0  0  0  0  0  0  0
  141.1950   73.9060  221.0170 C   0  0  0  0  0  0  0  0  0  0  0  0
  141.7830   75.1510  220.8200 C   0  0  0  0  0  0  0  0  0  0  0  0
  141.1800   76.2560  221.3880 C   0  0  0  0  0  0  0  0  0  0  0  0
  141.7760   77.4710  221.1820 C   0  0  0  0  0  0  0  0  0  0  0  0
  141.1830   78.5990  221.7480 C   0  0  0  0  0  0  0  0  0  0  0  0
  141.7450   79.8060  221.5610 F   0  0  0  0  0  0  0  0  0  0  0  0
  140.0280   78.4520  222.4880 C   0  0  0  0  0  0  0  0  0  0  0  0
  139.4180   77.2330  222.7040 C   0  0  0  0  0  0  0  0  0  0  0  0
  140.0210   76.1160  222.1330 C   0  0  0  0  0  0  0  0  0  0  0  0
  139.4680   74.9000  222.3120 N   0  0  0  0  0  0  0  0  0  0  0  0
  139.9531   68.3313  228.9159 H   0  0  0  0  0  0  0  0  0  0  0  0
  138.9480   68.1044  227.4445 H   0  0  0  0  0  0  0  0  0  0  0  0
  140.6692   67.5904  227.4445 H   0  0  0  0  0  0  0  0  0  0  0  0
  140.7058   70.3034  229.3848 H   0  0  0  0  0  0  0  0  0  0  0  0
  141.4100   72.6229  228.7431 H   0  0  0  0  0  0  0  0  0  0  0  0
  141.4486   73.2525  226.3466 H   0  0  0  0  0  0  0  0  0  0  0  0
  140.7904   71.6208  224.5857 H   0  0  0  0  0  0  0  0  0  0  0  0
  140.8626   68.4530  224.6896 H   0  0  0  0  0  0  0  0  0  0  0  0
  139.2258   68.3622  225.4386 H   0  0  0  0  0  0  0  0  0  0  0  0
  139.9480   69.6580  222.9150 H   0  0  0  0  0  0  0  0  0  0  0  0
  138.0251   70.3804  221.7684 H   0  0  0  0  0  0  0  0  0  0  0  0
  136.5615   70.9927  222.6455 H   0  0  0  0  0  0  0  0  0  0  0  0
  137.5640   73.1580  222.7680 H   0  0  0  0  0  0  0  0  0  0  0  0
  141.6467   73.0037  220.5790 H   0  0  0  0  0  0  0  0  0  0  0  0
  142.7041   75.2528  220.2274 H   0  0  0  0  0  0  0  0  0  0  0  0
  142.6971   77.5552  220.5866 H   0  0  0  0  0  0  0  0  0  0  0  0
  139.5707   79.3507  222.9276 H   0  0  0  0  0  0  0  0  0  0  0  0
  138.4974   77.1481  223.3001 H   0  0  0  0  0  0  0  0  0  0  0  0
  1  2  1  0
  2  3  2  0
  3  4  1  0
  4  5  2  0
  5  6  1  0
  6  7  2  0
  7  8  1  0
  8  9  1  0
  9 10  1  0
 10 11  2  0
 10 12  1  0
 12 13  1  0
 13 14  1  0
 14 15  2  0
 14 16  1  0
 16 17  2  0
 17 18  1  0
 18 19  2  0
 19 20  1  0
 20 21  2  0
 21 22  1  0
 21 23  1  0
 23 24  2  0
 24 25  1  0
 25 26  2  0
  7  2  1  0
 26 16  1  0
 25 19  1  0
  1 27  1  0
  1 28  1  0
  1 29  1  0
  3 30  1  0
  4 31  1  0
  5 32  1  0
  6 33  1  0
  8 34  1  0
  8 35  1  0
  9 36  1  0
 12 37  1  0
 12 38  1  0
 13 39  1  0
 17 40  1  0
 18 41  1  0
 20 42  1  0
 23 43  1  0
 24 44  1  0
M  END
>  <smiles>  (10) 
Cc1ccccc1CNC(=O)CNC(=O)c1ccc2cc(F)ccc2n1

>  <score_type>  (10) 
oracle

>  <origin>  (10) 
autodockgpu

>  <m_score__min__energy>  (10) 
-8.6199999999999992

>  <m_primary>  (10) 
energy

>  <rmsd>  (10) 
7.84838739904885

>  <m_score__min__rmsd>  (10) 
7.84838739904885

>  <meeko>  (10) 
{"free_energy": -7.39, "intermolecular_energy": -8.88, "internal_energy": -2.06, "cluster_size": 23, "cluster_id": 2, "rank_in_cluster": 23}

>  <energy>  (10) 
-8.32

>  <cluster_rmsd>  (10) 
1.58

>  <cluster>  (10) 
1

$$$$

     RDKit          3D

 44 46  0  0  0  0  0  0  0  0999 V2000
  138.1680   80.2030  223.8220 C   0  0  0  0  0  0  0  0  0  0  0  0
  139.5300   79.7030  223.5150 C   0  0  0  0  0  0  0  0  0  0  0  0
  140.5790   80.5930  223.7770 C   0  0  0  0  0  0  0  0  0  0  0  0
  141.8990   80.2130  223.5210 C   0  0  0  0  0  0  0  0  0  0  0  0
  142.1380   78.9540  223.0120 C   0  0  0  0  0  0  0  0  0  0  0  0
  141.0930   78.0650  222.7500 C   0  0  0  0  0  0  0  0  0  0  0  0
  139.7860   78.4490  223.0050 C   0  0  0  0  0  0  0  0  0  0  0  0
  138.6360   77.5460  222.7480 C   0  0  0  0  0  0  0  0  0  0  0  0
  139.1030   76.1900  222.4980 N   0  0  0  0  0  0  0  0  0  0  0  0
  139.4330   75.7560  221.1870 C   0  0  0  0  0  0  0  0  0  0  0  0
  139.3370   76.5170  220.1850 O   0  0  0  0  0  0  0  0  0  0  0  0
  139.9050   74.3350  221.0620 C   0  0  0  0  0  0  0  0  0  0  0  0
  139.7030   73.5930  222.2920 N   0  0  0  0  0  0  0  0  0  0  0  0
  140.3510   72.3100  222.3620 C   0  0  0  0  0  0  0  0  0  0  0  0
  141.0210   71.9650  221.3530 O   0  0  0  0  0  0  0  0  0  0  0  0
  140.2130   71.4810  223.5540 C   0  0  0  0  0  0  0  0  0  0  0  0
  139.5740   70.2640  223.4100 C   0  0  0  0  0  0  0  0  0  0  0  0
  139.4190   69.4380  224.5180 C   0  0  0  0  0  0  0  0  0  0  0  0
  139.9140   69.8710  225.7320 C   0  0  0  0  0  0  0  0  0  0  0  0
  139.7500   69.0420  226.8090 C   0  0  0  0  0  0  0  0  0  0  0  0
  140.2440   69.4620  228.0440 C   0  0  0  0  0  0  0  0  0  0  0  0
  140.0980   68.6680  229.1190 F   0  0  0  0  0  0  0  0  0  0  0  0
  140.8740   70.6860  228.1350 C   0  0  0  0  0  0  0  0  0  0  0  0
  141.0460   71.5310  227.0570 C   0  0  0  0  0  0  0  0  0  0  0  0
  140.5480   71.0980  225.8320 C   0  0  0  0  0  0  0  0  0  0  0  0
  140.6890   71.8840  224.7450 N   0  0  0  0  0  0  0  0  0  0  0  0
  138.0328   80.2526  224.9125 H   0  0  0  0  0  0  0  0  0  0  0  0
  138.0400   81.2067  223.3906 H   0  0  0  0  0  0  0  0  0  0  0  0
  137.4210   79.5205  223.3906 H   0  0  0  0  0  0  0  0  0  0  0  0
  140.3637   81.5918  224.1845 H   0  0  0  0  0  0  0  0  0  0  0  0
  142.7308   80.9043  223.7215 H   0  0  0  0  0  0  0  0  0  0  0  0
  143.1733   78.6432  222.8080 H   0  0  0  0  0  0  0  0  0  0  0  0
  141.3063   77.0654  222.3434 H   0  0  0  0  0  0  0  0  0  0  0  0
  137.9725   77.5451  223.6253 H   0  0  0  0  0  0  0  0  0  0  0  0
  138.0906   77.9050  221.8627 H   0  0  0  0  0  0  0  0  0  0  0  0
  139.1950   75.5270  223.3230 H   0  0  0  0  0  0  0  0  0  0  0  0
  139.3452   73.8432  220.2528 H   0  0  0  0  0  0  0  0  0  0  0  0
  140.9829   74.3494  220.8430 H   0  0  0  0  0  0  0  0  0  0  0  0
  139.1270   73.9600  223.0790 H   0  0  0  0  0  0  0  0  0  0  0  0
  139.1913   69.9514  222.4273 H   0  0  0  0  0  0  0  0  0  0  0  0
  138.9148   68.4644  224.4295 H   0  0  0  0  0  0  0  0  0  0  0  0
  139.2428   68.0717  226.7034 H   0  0  0  0  0  0  0  0  0  0  0  0
  141.2583   71.0044  229.1152 H   0  0  0  0  0  0  0  0  0  0  0  0
  141.5532   72.5015  227.1616 H   0  0  0  0  0  0  0  0  0  0  0  0
  1  2  1  0
  2  3  2  0
  3  4  1  0
  4  5  2  0
  5  6  1  0
  6  7  2  0
  7  8  1  0
  8  9  1  0
  9 10  1  0
 10 11  2  0
 10 12  1  0
 12 13  1  0
 13 14  1  0
 14 15  2  0
 14 16  1  0
 16 17  2  0
 17 18  1  0
 18 19  2  0
 19 20  1  0
 20 21  2  0
 21 22  1  0
 21 23  1  0
 23 24  2  0
 24 25  1  0
 25 26  2  0
  7  2  1  0
 26 16  1  0
 25 19  1  0
  1 27  1  0
  1 28  1  0
  1 29  1  0
  3 30  1  0
  4 31  1  0
  5 32  1  0
  6 33  1  0
  8 34  1  0
  8 35  1  0
  9 36  1  0
 12 37  1  0
 12 38  1  0
 13 39  1  0
 17 40  1  0
 18 41  1  0
 20 42  1  0
 23 43  1  0
 24 44  1  0
M  END
>  <smiles>  (11) 
Cc1ccccc1CNC(=O)CNC(=O)c1ccc2cc(F)ccc2n1

>  <score_type>  (11) 
oracle

>  <origin>  (11) 
autodockgpu

>  <m_score__min__energy>  (11) 
-8.6199999999999992

>  <m_primary>  (11) 
energy

>  <rmsd>  (11) 
3.054245543884309

>  <m_score__min__rmsd>  (11) 
3.054245543884309

>  <meeko>  (11) 
{"free_energy": -8.62, "intermolecular_energy": -10.11, "internal_energy": -0.87, "cluster_size": 15, "cluster_id": 1, "rank_in_cluster": 1}

>  <energy>  (11) 
-8.31

>  <cluster_rmsd>  (11) 
1.57

>  <cluster>  (11) 
1

$$$$

     RDKit          3D

 44 46  0  0  0  0  0  0  0  0999 V2000
  139.6210   68.4140  226.7910 C   0  0  0  0  0  0  0  0  0  0  0  0
  140.1720   69.7870  226.8690 C   0  0  0  0  0  0  0  0  0  0  0  0
  140.4920   70.2440  228.1530 C   0  0  0  0  0  0  0  0  0  0  0  0
  141.0190   71.5260  228.3290 C   0  0  0  0  0  0  0  0  0  0  0  0
  141.2130   72.3200  227.2190 C   0  0  0  0  0  0  0  0  0  0  0  0
  140.8940   71.8670  225.9360 C   0  0  0  0  0  0  0  0  0  0  0  0
  140.3720   70.5940  225.7690 C   0  0  0  0  0  0  0  0  0  0  0  0
  140.0150   70.0590  224.4310 C   0  0  0  0  0  0  0  0  0  0  0  0
  139.2180   71.0290  223.6940 N   0  0  0  0  0  0  0  0  0  0  0  0
  139.8280   71.9730  222.8260 C   0  0  0  0  0  0  0  0  0  0  0  0
  141.0770   72.0150  222.6520 O   0  0  0  0  0  0  0  0  0  0  0  0
  138.8970   72.9200  222.1230 C   0  0  0  0  0  0  0  0  0  0  0  0
  139.2830   74.3030  222.3310 N   0  0  0  0  0  0  0  0  0  0  0  0
  140.2810   74.8160  221.4300 C   0  0  0  0  0  0  0  0  0  0  0  0
  140.7150   74.0160  220.5590 O   0  0  0  0  0  0  0  0  0  0  0  0
  140.7410   76.1950  221.5520 C   0  0  0  0  0  0  0  0  0  0  0  0
  141.5560   76.6830  220.5470 C   0  0  0  0  0  0  0  0  0  0  0  0
  142.0200   77.9910  220.6180 C   0  0  0  0  0  0  0  0  0  0  0  0
  141.6440   78.7610  221.7010 C   0  0  0  0  0  0  0  0  0  0  0  0
  142.1130   80.0470  221.7500 C   0  0  0  0  0  0  0  0  0  0  0  0
  141.7440   80.8400  222.8370 C   0  0  0  0  0  0  0  0  0  0  0  0
  142.1890   82.1060  222.9110 F   0  0  0  0  0  0  0  0  0  0  0  0
  140.9290   80.3060  223.8140 C   0  0  0  0  0  0  0  0  0  0  0  0
  140.4500   79.0120  223.7760 C   0  0  0  0  0  0  0  0  0  0  0  0
  140.8260   78.2330  222.6850 C   0  0  0  0  0  0  0  0  0  0  0  0
  140.3870   76.9610  222.5980 N   0  0  0  0  0  0  0  0  0  0  0  0
  139.4643   68.0235  227.8073 H   0  0  0  0  0  0  0  0  0  0  0  0
  138.6613   68.4340  226.2539 H   0  0  0  0  0  0  0  0  0  0  0  0
  140.3283   67.7650  226.2539 H   0  0  0  0  0  0  0  0  0  0  0  0
  140.3283   69.5930  229.0244 H   0  0  0  0  0  0  0  0  0  0  0  0
  141.2741   71.8944  229.3336 H   0  0  0  0  0  0  0  0  0  0  0  0
  141.6274   73.3310  227.3457 H   0  0  0  0  0  0  0  0  0  0  0  0
  141.0563   72.5171  225.0636 H   0  0  0  0  0  0  0  0  0  0  0  0
  140.9358   69.8441  223.8688 H   0  0  0  0  0  0  0  0  0  0  0  0
  139.4277   69.1378  224.5596 H   0  0  0  0  0  0  0  0  0  0  0  0
  138.1640   71.0180  223.8200 H   0  0  0  0  0  0  0  0  0  0  0  0
  138.9146   72.7030  221.0448 H   0  0  0  0  0  0  0  0  0  0  0  0
  137.8873   72.7792  222.5362 H   0  0  0  0  0  0  0  0  0  0  0  0
  138.8670   74.8930  223.0830 H   0  0  0  0  0  0  0  0  0  0  0  0
  141.8347   76.0411  219.6983 H   0  0  0  0  0  0  0  0  0  0  0  0
  142.6701   78.4024  219.8318 H   0  0  0  0  0  0  0  0  0  0  0  0
  142.7620   80.4432  220.9551 H   0  0  0  0  0  0  0  0  0  0  0  0
  140.6470   80.9430  224.6653 H   0  0  0  0  0  0  0  0  0  0  0  0
  139.8014   78.6148  224.5707 H   0  0  0  0  0  0  0  0  0  0  0  0
  1  2  1  0
  2  3  2  0
  3  4  1  0
  4  5  2  0
  5  6  1  0
  6  7  2  0
  7  8  1  0
  8  9  1  0
  9 10  1  0
 10 11  2  0
 10 12  1  0
 12 13  1  0
 13 14  1  0
 14 15  2  0
 14 16  1  0
 16 17  2  0
 17 18  1  0
 18 19  2  0
 19 20  1  0
 20 21  2  0
 21 22  1  0
 21 23  1  0
 23 24  2  0
 24 25  1  0
 25 26  2  0
  7  2  1  0
 26 16  1  0
 25 19  1  0
  1 27  1  0
  1 28  1  0
  1 29  1  0
  3 30  1  0
  4 31  1  0
  5 32  1  0
  6 33  1  0
  8 34  1  0
  8 35  1  0
  9 36  1  0
 12 37  1  0
 12 38  1  0
 13 39  1  0
 17 40  1  0
 18 41  1  0
 20 42  1  0
 23 43  1  0
 24 44  1  0
M  END
>  <smiles>  (12) 
Cc1ccccc1CNC(=O)CNC(=O)c1ccc2cc(F)ccc2n1

>  <score_type>  (12) 
oracle

>  <origin>  (12) 
autodockgpu

>  <m_score__min__energy>  (12) 
-8.6199999999999992

>  <m_primary>  (12) 
energy

>  <rmsd>  (12) 
8.561451072515835

>  <m_score__min__rmsd>  (12) 
8.561451072515835

>  <meeko>  (12) 
{"free_energy": -8.61, "intermolecular_energy": -10.1, "internal_energy": -1.09, "cluster_size": 23, "cluster_id": 2, "rank_in_cluster": 3}

>  <energy>  (12) 
-8.29

>  <cluster_rmsd>  (12) 
1.58

>  <cluster>  (12) 
1

$$$$

     RDKit          3D

 44 46  0  0  0  0  0  0  0  0999 V2000
  139.5610   68.4860  226.8180 C   0  0  0  0  0  0  0  0  0  0  0  0
  140.1650   69.8380  226.8900 C   0  0  0  0  0  0  0  0  0  0  0  0
  140.4910   70.2910  228.1740 C   0  0  0  0  0  0  0  0  0  0  0  0
  141.0670   71.5530  228.3450 C   0  0  0  0  0  0  0  0  0  0  0  0
  141.3030   72.3300  227.2310 C   0  0  0  0  0  0  0  0  0  0  0  0
  140.9780   71.8800  225.9480 C   0  0  0  0  0  0  0  0  0  0  0  0
  140.4070   70.6270  225.7860 C   0  0  0  0  0  0  0  0  0  0  0  0
  140.0410   70.0950  224.4490 C   0  0  0  0  0  0  0  0  0  0  0  0
  139.2360   71.0660  223.7220 N   0  0  0  0  0  0  0  0  0  0  0  0
  139.8270   71.9670  222.7980 C   0  0  0  0  0  0  0  0  0  0  0  0
  141.0670   71.9690  222.5630 O   0  0  0  0  0  0  0  0  0  0  0  0
  138.8880   72.9180  222.1120 C   0  0  0  0  0  0  0  0  0  0  0  0
  139.2780   74.3000  222.3220 N   0  0  0  0  0  0  0  0  0  0  0  0
  140.2710   74.8140  221.4160 C   0  0  0  0  0  0  0  0  0  0  0  0
  140.6970   74.0170  220.5400 O   0  0  0  0  0  0  0  0  0  0  0  0
  140.7350   76.1920  221.5400 C   0  0  0  0  0  0  0  0  0  0  0  0
  141.5700   76.6710  220.5480 C   0  0  0  0  0  0  0  0  0  0  0  0
  142.0390   77.9780  220.6210 C   0  0  0  0  0  0  0  0  0  0  0  0
  141.6460   78.7550  221.6930 C   0  0  0  0  0  0  0  0  0  0  0  0
  142.1190   80.0380  221.7450 C   0  0  0  0  0  0  0  0  0  0  0  0
  141.7330   80.8390  222.8200 C   0  0  0  0  0  0  0  0  0  0  0  0
  142.1820   82.1040  222.8960 F   0  0  0  0  0  0  0  0  0  0  0  0
  140.8970   80.3140  223.7840 C   0  0  0  0  0  0  0  0  0  0  0  0
  140.4140   79.0220  223.7430 C   0  0  0  0  0  0  0  0  0  0  0  0
  140.8070   78.2350  222.6640 C   0  0  0  0  0  0  0  0  0  0  0  0
  140.3640   76.9650  222.5750 N   0  0  0  0  0  0  0  0  0  0  0  0
  139.3911   68.1056  227.8361 H   0  0  0  0  0  0  0  0  0  0  0  0
  138.6019   68.5410  226.2823 H   0  0  0  0  0  0  0  0  0  0  0  0
  140.2419   67.8083  226.2823 H   0  0  0  0  0  0  0  0  0  0  0  0
  140.2938   69.6535  229.0485 H   0  0  0  0  0  0  0  0  0  0  0  0
  141.3270   71.9191  229.3492 H   0  0  0  0  0  0  0  0  0  0  0  0
  141.7564   73.3246  227.3542 H   0  0  0  0  0  0  0  0  0  0  0  0
  141.1741   72.5161  225.0723 H   0  0  0  0  0  0  0  0  0  0  0  0
  140.9578   69.8842  223.8789 H   0  0  0  0  0  0  0  0  0  0  0  0
  139.4573   69.1717  224.5788 H   0  0  0  0  0  0  0  0  0  0  0  0
  138.1880   71.0870  223.8990 H   0  0  0  0  0  0  0  0  0  0  0  0
  138.8915   72.7064  221.0326 H   0  0  0  0  0  0  0  0  0  0  0  0
  137.8836   72.7760  222.5375 H   0  0  0  0  0  0  0  0  0  0  0  0
  138.8690   74.8880  223.0790 H   0  0  0  0  0  0  0  0  0  0  0  0
  141.8611   76.0235  219.7077 H   0  0  0  0  0  0  0  0  0  0  0  0
  142.7057   78.3825  219.8452 H   0  0  0  0  0  0  0  0  0  0  0  0
  142.7852   80.4270  220.9608 H   0  0  0  0  0  0  0  0  0  0  0  0
  140.6011   80.9567  224.6263 H   0  0  0  0  0  0  0  0  0  0  0  0
  139.7487   78.6317  224.5272 H   0  0  0  0  0  0  0  0  0  0  0  0
  1  2  1  0
  2  3  2  0
  3  4  1  0
  4  5  2  0
  5  6  1  0
  6  7  2  0
  7  8  1  0
  8  9  1  0
  9 10  1  0
 10 11  2  0
 10 12  1  0
 12 13  1  0
 13 14  1  0
 14 15  2  0
 14 16  1  0
 16 17  2  0
 17 18  1  0
 18 19  2  0
 19 20  1  0
 20 21  2  0
 21 22  1  0
 21 23  1  0
 23 24  2  0
 24 25  1  0
 25 26  2  0
  7  2  1  0
 26 16  1  0
 25 19  1  0
  1 27  1  0
  1 28  1  0
  1 29  1  0
  3 30  1  0
  4 31  1  0
  5 32  1  0
  6 33  1  0
  8 34  1  0
  8 35  1  0
  9 36  1  0
 12 37  1  0
 12 38  1  0
 13 39  1  0
 17 40  1  0
 18 41  1  0
 20 42  1  0
 23 43  1  0
 24 44  1  0
M  END
>  <smiles>  (13) 
Cc1ccccc1CNC(=O)CNC(=O)c1ccc2cc(F)ccc2n1

>  <score_type>  (13) 
oracle

>  <origin>  (13) 
autodockgpu

>  <m_score__min__energy>  (13) 
-8.6199999999999992

>  <m_primary>  (13) 
energy

>  <rmsd>  (13) 
8.563165770782668

>  <m_score__min__rmsd>  (13) 
8.563165770782668

>  <meeko>  (13) 
{"free_energy": -8.59, "intermolecular_energy": -10.09, "internal_energy": -1.09, "cluster_size": 23, "cluster_id": 2, "rank_in_cluster": 4}

>  <energy>  (13) 
-8.27

>  <cluster_rmsd>  (13) 
1.61

>  <cluster>  (13) 
1

$$$$

     RDKit          3D

 44 46  0  0  0  0  0  0  0  0999 V2000
  139.8710   68.2200  227.4370 C   0  0  0  0  0  0  0  0  0  0  0  0
  140.2810   69.6220  227.1880 C   0  0  0  0  0  0  0  0  0  0  0  0
  140.6320   70.3650  228.3220 C   0  0  0  0  0  0  0  0  0  0  0  0
  141.0330   71.6970  228.1900 C   0  0  0  0  0  0  0  0  0  0  0  0
  141.0740   72.2540  226.9290 C   0  0  0  0  0  0  0  0  0  0  0  0
  140.7240   71.5150  225.7960 C   0  0  0  0  0  0  0  0  0  0  0  0
  140.3270   70.1950  225.9350 C   0  0  0  0  0  0  0  0  0  0  0  0
  139.9440   69.3610  224.7670 C   0  0  0  0  0  0  0  0  0  0  0  0
  139.1920   70.1530  223.8050 N   0  0  0  0  0  0  0  0  0  0  0  0
  137.7760   70.2340  223.8680 C   0  0  0  0  0  0  0  0  0  0  0  0
  137.1080   69.6300  224.7520 O   0  0  0  0  0  0  0  0  0  0  0  0
  137.1170   71.0860  222.8190 C   0  0  0  0  0  0  0  0  0  0  0  0
  137.6670   72.4280  222.7960 N   0  0  0  0  0  0  0  0  0  0  0  0
  138.8460   72.6060  221.9900 C   0  0  0  0  0  0  0  0  0  0  0  0
  139.2770   71.5850  221.3920 O   0  0  0  0  0  0  0  0  0  0  0  0
  139.4810   73.9170  221.8970 C   0  0  0  0  0  0  0  0  0  0  0  0
  140.7390   73.9730  221.3260 C   0  0  0  0  0  0  0  0  0  0  0  0
  141.3850   75.1980  221.2140 C   0  0  0  0  0  0  0  0  0  0  0  0
  140.7370   76.3240  221.6830 C   0  0  0  0  0  0  0  0  0  0  0  0
  141.3920   77.5210  221.5630 C   0  0  0  0  0  0  0  0  0  0  0  0
  140.7540   78.6690  222.0310 C   0  0  0  0  0  0  0  0  0  0  0  0
  141.3730   79.8580  221.9250 F   0  0  0  0  0  0  0  0  0  0  0  0
  139.4990   78.5610  222.5930 C   0  0  0  0  0  0  0  0  0  0  0  0
  138.8280   77.3610  222.7190 C   0  0  0  0  0  0  0  0  0  0  0  0
  139.4770   76.2230  222.2480 C   0  0  0  0  0  0  0  0  0  0  0  0
  138.8680   75.0250  222.3470 N   0  0  0  0  0  0  0  0  0  0  0  0
  139.8185   68.0403  228.5210 H   0  0  0  0  0  0  0  0  0  0  0  0
  138.8831   68.0415  226.9874 H   0  0  0  0  0  0  0  0  0  0  0  0
  140.6071   67.5373  226.9874 H   0  0  0  0  0  0  0  0  0  0  0  0
  140.5920   69.8995  229.3178 H   0  0  0  0  0  0  0  0  0  0  0  0
  141.3105   72.2895  229.0743 H   0  0  0  0  0  0  0  0  0  0  0  0
  141.3887   73.3016  226.8128 H   0  0  0  0  0  0  0  0  0  0  0  0
  140.7634   71.9787  224.7993 H   0  0  0  0  0  0  0  0  0  0  0  0
  140.8532   68.9723  224.2851 H   0  0  0  0  0  0  0  0  0  0  0  0
  139.3151   68.5277  225.1135 H   0  0  0  0  0  0  0  0  0  0  0  0
  139.7270   70.6740  223.0500 H   0  0  0  0  0  0  0  0  0  0  0  0
  137.2699   70.6209  221.8340 H   0  0  0  0  0  0  0  0  0  0  0  0
  136.0458   71.1580  223.0583 H   0  0  0  0  0  0  0  0  0  0  0  0
  137.2410   73.2170  223.3260 H   0  0  0  0  0  0  0  0  0  0  0  0
  141.2245   73.0550  220.9633 H   0  0  0  0  0  0  0  0  0  0  0  0
  142.3861   75.2692  220.7637 H   0  0  0  0  0  0  0  0  0  0  0  0
  142.3930   77.5750  221.1102 H   0  0  0  0  0  0  0  0  0  0  0  0
  139.0089   79.4754  222.9586 H   0  0  0  0  0  0  0  0  0  0  0  0
  137.8265   77.3066  223.1708 H   0  0  0  0  0  0  0  0  0  0  0  0
  1  2  1  0
  2  3  2  0
  3  4  1  0
  4  5  2  0
  5  6  1  0
  6  7  2  0
  7  8  1  0
  8  9  1  0
  9 10  1  0
 10 11  2  0
 10 12  1  0
 12 13  1  0
 13 14  1  0
 14 15  2  0
 14 16  1  0
 16 17  2  0
 17 18  1  0
 18 19  2  0
 19 20  1  0
 20 21  2  0
 21 22  1  0
 21 23  1  0
 23 24  2  0
 24 25  1  0
 25 26  2  0
  7  2  1  0
 26 16  1  0
 25 19  1  0
  1 27  1  0
  1 28  1  0
  1 29  1  0
  3 30  1  0
  4 31  1  0
  5 32  1  0
  6 33  1  0
  8 34  1  0
  8 35  1  0
  9 36  1  0
 12 37  1  0
 12 38  1  0
 13 39  1  0
 17 40  1  0
 18 41  1  0
 20 42  1  0
 23 43  1  0
 24 44  1  0
M  END
>  <smiles>  (14) 
Cc1ccccc1CNC(=O)CNC(=O)c1ccc2cc(F)ccc2n1

>  <score_type>  (14) 
oracle

>  <origin>  (14) 
autodockgpu

>  <m_score__min__energy>  (14) 
-8.6199999999999992

>  <m_primary>  (14) 
energy

>  <rmsd>  (14) 
7.801112454003152

>  <m_score__min__rmsd>  (14) 
7.801112454003152

>  <meeko>  (14) 
{"free_energy": -7.43, "intermolecular_energy": -8.93, "internal_energy": -2.02, "cluster_size": 23, "cluster_id": 2, "rank_in_cluster": 22}

>  <energy>  (14) 
-7.95

>  <cluster_rmsd>  (14) 
1.55

>  <cluster>  (14) 
1

$$$$

     RDKit          3D

 44 46  0  0  0  0  0  0  0  0999 V2000
  139.3440   69.0360  224.9650 C   0  0  0  0  0  0  0  0  0  0  0  0
  139.8640   69.9740  225.9870 C   0  0  0  0  0  0  0  0  0  0  0  0
  139.5740   69.6480  227.3170 C   0  0  0  0  0  0  0  0  0  0  0  0
  140.0220   70.4710  228.3540 C   0  0  0  0  0  0  0  0  0  0  0  0
  140.7490   71.5990  228.0360 C   0  0  0  0  0  0  0  0  0  0  0  0
  141.0400   71.9270  226.7090 C   0  0  0  0  0  0  0  0  0  0  0  0
  140.5920   71.1060  225.6870 C   0  0  0  0  0  0  0  0  0  0  0  0
  140.8710   71.4030  224.2590 C   0  0  0  0  0  0  0  0  0  0  0  0
  139.6370   71.7350  223.5610 N   0  0  0  0  0  0  0  0  0  0  0  0
  139.6360   72.6220  222.4530 C   0  0  0  0  0  0  0  0  0  0  0  0
  140.6930   73.1600  222.0230 O   0  0  0  0  0  0  0  0  0  0  0  0
  138.2990   72.8840  221.8190 C   0  0  0  0  0  0  0  0  0  0  0  0
  137.2450   72.9820  222.8120 N   0  0  0  0  0  0  0  0  0  0  0  0
  136.6590   71.7350  223.2260 C   0  0  0  0  0  0  0  0  0  0  0  0
  137.1180   70.6930  222.6880 O   0  0  0  0  0  0  0  0  0  0  0  0
  135.5910   71.7200  224.2200 C   0  0  0  0  0  0  0  0  0  0  0  0
  135.1700   70.4860  224.6800 C   0  0  0  0  0  0  0  0  0  0  0  0
  134.1550   70.4190  225.6270 C   0  0  0  0  0  0  0  0  0  0  0  0
  133.6010   71.6020  226.0770 C   0  0  0  0  0  0  0  0  0  0  0  0
  132.6030   71.5130  227.0100 C   0  0  0  0  0  0  0  0  0  0  0  0
  132.0320   72.6960  227.4770 C   0  0  0  0  0  0  0  0  0  0  0  0
  131.0500   72.6390  228.3940 F   0  0  0  0  0  0  0  0  0  0  0  0
  132.4880   73.9030  226.9880 C   0  0  0  0  0  0  0  0  0  0  0  0
  133.4930   74.0060  226.0470 C   0  0  0  0  0  0  0  0  0  0  0  0
  134.0540   72.8170  225.5910 C   0  0  0  0  0  0  0  0  0  0  0  0
  135.0390   72.8590  224.6720 N   0  0  0  0  0  0  0  0  0  0  0  0
  138.8684   68.1781  225.4628 H   0  0  0  0  0  0  0  0  0  0  0  0
  138.6032   69.5522  224.3366 H   0  0  0  0  0  0  0  0  0  0  0  0
  140.1742   68.6812  224.3366 H   0  0  0  0  0  0  0  0  0  0  0  0
  138.9927   68.7428  227.5464 H   0  0  0  0  0  0  0  0  0  0  0  0
  139.7993   70.2241  229.4025 H   0  0  0  0  0  0  0  0  0  0  0  0
  141.1073   72.2542  228.8437 H   0  0  0  0  0  0  0  0  0  0  0  0
  141.6213   72.8317  226.4774 H   0  0  0  0  0  0  0  0  0  0  0  0
  141.5647   72.2542  224.1943 H   0  0  0  0  0  0  0  0  0  0  0  0
  141.3193   70.5148  223.7899 H   0  0  0  0  0  0  0  0  0  0  0  0
  138.7310   71.2970  223.9010 H   0  0  0  0  0  0  0  0  0  0  0  0
  138.3493   73.8288  221.2579 H   0  0  0  0  0  0  0  0  0  0  0  0
  138.0646   72.0417  221.1515 H   0  0  0  0  0  0  0  0  0  0  0  0
  136.9280   73.8940  223.2030 H   0  0  0  0  0  0  0  0  0  0  0  0
  135.6348   69.5645  224.2994 H   0  0  0  0  0  0  0  0  0  0  0  0
  133.8020   69.4495  226.0083 H   0  0  0  0  0  0  0  0  0  0  0  0
  132.2612   70.5354  227.3808 H   0  0  0  0  0  0  0  0  0  0  0  0
  132.0285   74.8281  227.3663 H   0  0  0  0  0  0  0  0  0  0  0  0
  133.8346   74.9831  225.6748 H   0  0  0  0  0  0  0  0  0  0  0  0
  1  2  1  0
  2  3  2  0
  3  4  1  0
  4  5  2  0
  5  6  1  0
  6  7  2  0
  7  8  1  0
  8  9  1  0
  9 10  1  0
 10 11  2  0
 10 12  1  0
 12 13  1  0
 13 14  1  0
 14 15  2  0
 14 16  1  0
 16 17  2  0
 17 18  1  0
 18 19  2  0
 19 20  1  0
 20 21  2  0
 21 22  1  0
 21 23  1  0
 23 24  2  0
 24 25  1  0
 25 26  2  0
  7  2  1  0
 26 16  1  0
 25 19  1  0
  1 27  1  0
  1 28  1  0
  1 29  1  0
  3 30  1  0
  4 31  1  0
  5 32  1  0
  6 33  1  0
  8 34  1  0
  8 35  1  0
  9 36  1  0
 12 37  1  0
 12 38  1  0
 13 39  1  0
 17 40  1  0
 18 41  1  0
 20 42  1  0
 23 43  1  0
 24 44  1  0
M  END
>  <smiles>  (15) 
Cc1ccccc1CNC(=O)CNC(=O)c1ccc2cc(F)ccc2n1

>  <score_type>  (15) 
oracle

>  <origin>  (15) 
autodockgpu

>  <m_score__min__energy>  (15) 
-8.6199999999999992

>  <m_primary>  (15) 
energy

>  <rmsd>  (15) 
6.939936233931041

>  <m_score__min__rmsd>  (15) 
6.939936233931041

>  <meeko>  (15) 
{"free_energy": -7.15, "intermolecular_energy": -8.64, "internal_energy": -2.05, "cluster_size": 4, "cluster_id": 4, "rank_in_cluster": 4}

>  <energy>  (15) 
-7.73

>  <cluster_rmsd>  (15) 
1.63

>  <cluster>  (15) 
1

$$$$

     RDKit          3D

 44 46  0  0  0  0  0  0  0  0999 V2000
  140.2680   68.1990  227.6120 C   0  0  0  0  0  0  0  0  0  0  0  0
  140.5600   69.6120  227.2760 C   0  0  0  0  0  0  0  0  0  0  0  0
  140.9970   70.4140  228.3370 C   0  0  0  0  0  0  0  0  0  0  0  0
  141.2980   71.7610  228.1190 C   0  0  0  0  0  0  0  0  0  0  0  0
  141.1560   72.2730  226.8470 C   0  0  0  0  0  0  0  0  0  0  0  0
  140.7190   71.4760  225.7860 C   0  0  0  0  0  0  0  0  0  0  0  0
  140.4220   70.1410  226.0100 C   0  0  0  0  0  0  0  0  0  0  0  0
  139.9550   69.2450  224.9220 C   0  0  0  0  0  0  0  0  0  0  0  0
  139.2520   70.0120  223.9030 N   0  0  0  0  0  0  0  0  0  0  0  0
  137.8460   70.2020  223.9670 C   0  0  0  0  0  0  0  0  0  0  0  0
  137.1460   69.7220  224.9000 O   0  0  0  0  0  0  0  0  0  0  0  0
  137.2400   71.0140  222.8570 C   0  0  0  0  0  0  0  0  0  0  0  0
  137.7700   72.3640  222.8290 N   0  0  0  0  0  0  0  0  0  0  0  0
  138.9470   72.5570  222.0240 C   0  0  0  0  0  0  0  0  0  0  0  0
  139.3930   71.5400  221.4300 O   0  0  0  0  0  0  0  0  0  0  0  0
  139.5620   73.8770  221.9270 C   0  0  0  0  0  0  0  0  0  0  0  0
  140.8220   73.9490  221.3620 C   0  0  0  0  0  0  0  0  0  0  0  0
  141.4490   75.1840  221.2470 C   0  0  0  0  0  0  0  0  0  0  0  0
  140.7820   76.3020  221.7060 C   0  0  0  0  0  0  0  0  0  0  0  0
  141.4190   77.5080  221.5830 C   0  0  0  0  0  0  0  0  0  0  0  0
  140.7610   78.6490  222.0420 C   0  0  0  0  0  0  0  0  0  0  0  0
  141.3620   79.8470  221.9330 F   0  0  0  0  0  0  0  0  0  0  0  0
  139.5050   78.5240  222.5970 C   0  0  0  0  0  0  0  0  0  0  0  0
  138.8520   77.3150  222.7280 C   0  0  0  0  0  0  0  0  0  0  0  0
  139.5210   76.1850  222.2650 C   0  0  0  0  0  0  0  0  0  0  0  0
  138.9300   74.9780  222.3680 N   0  0  0  0  0  0  0  0  0  0  0  0
  140.2433   68.0796  228.7052 H   0  0  0  0  0  0  0  0  0  0  0  0
  139.2924   67.9159  227.1901 H   0  0  0  0  0  0  0  0  0  0  0  0
  141.0515   67.5523  227.1901 H   0  0  0  0  0  0  0  0  0  0  0  0
  141.1035   69.9833  229.3435 H   0  0  0  0  0  0  0  0  0  0  0  0
  141.6414   72.4000  228.9459 H   0  0  0  0  0  0  0  0  0  0  0  0
  141.3918   73.3316  226.6634 H   0  0  0  0  0  0  0  0  0  0  0  0
  140.6113   71.9055  224.7790 H   0  0  0  0  0  0  0  0  0  0  0  0
  140.8223   68.7451  224.4661 H   0  0  0  0  0  0  0  0  0  0  0  0
  139.2681   68.4968  225.3444 H   0  0  0  0  0  0  0  0  0  0  0  0
  139.8160   70.4290  223.1050 H   0  0  0  0  0  0  0  0  0  0  0  0
  137.4596   70.5248  221.8965 H   0  0  0  0  0  0  0  0  0  0  0  0
  136.1553   71.0749  223.0294 H   0  0  0  0  0  0  0  0  0  0  0  0
  137.3310   73.1490  223.3570 H   0  0  0  0  0  0  0  0  0  0  0  0
  141.3237   73.0368  221.0067 H   0  0  0  0  0  0  0  0  0  0  0  0
  142.4512   75.2684  220.8016 H   0  0  0  0  0  0  0  0  0  0  0  0
  142.4213   77.5750  221.1348 H   0  0  0  0  0  0  0  0  0  0  0  0
  138.9982   79.4330  222.9531 H   0  0  0  0  0  0  0  0  0  0  0  0
  137.8501   77.2474  223.1771 H   0  0  0  0  0  0  0  0  0  0  0  0
  1  2  1  0
  2  3  2  0
  3  4  1  0
  4  5  2  0
  5  6  1  0
  6  7  2  0
  7  8  1  0
  8  9  1  0
  9 10  1  0
 10 11  2  0
 10 12  1  0
 12 13  1  0
 13 14  1  0
 14 15  2  0
 14 16  1  0
 16 17  2  0
 17 18  1  0
 18 19  2  0
 19 20  1  0
 20 21  2  0
 21 22  1  0
 21 23  1  0
 23 24  2  0
 24 25  1  0
 25 26  2  0
  7  2  1  0
 26 16  1  0
 25 19  1  0
  1 27  1  0
  1 28  1  0
  1 29  1  0
  3 30  1  0
  4 31  1  0
  5 32  1  0
  6 33  1  0
  8 34  1  0
  8 35  1  0
  9 36  1  0
 12 37  1  0
 12 38  1  0
 13 39  1  0
 17 40  1  0
 18 41  1  0
 20 42  1  0
 23 43  1  0
 24 44  1  0
M  END
>  <smiles>  (16) 
Cc1ccccc1CNC(=O)CNC(=O)c1ccc2cc(F)ccc2n1

>  <score_type>  (16) 
oracle

>  <origin>  (16) 
autodockgpu

>  <m_score__min__energy>  (16) 
-8.6199999999999992

>  <m_primary>  (16) 
energy

>  <rmsd>  (16) 
7.813765789033675

>  <m_score__min__rmsd>  (16) 
7.813765789033675

>  <meeko>  (16) 
{"free_energy": -7.48, "intermolecular_energy": -8.97, "internal_energy": -2.03, "cluster_size": 23, "cluster_id": 2, "rank_in_cluster": 20}

>  <energy>  (16) 
-8.62

>  <cluster_rmsd>  (16) 
0.0

>  <cluster>  (16) 
2

$$$$

     RDKit          3D

 44 46  0  0  0  0  0  0  0  0999 V2000
  141.7660   80.2020  220.0280 C   0  0  0  0  0  0  0  0  0  0  0  0
  141.7340   79.8440  221.4660 C   0  0  0  0  0  0  0  0  0  0  0  0
  142.6390   80.5300  222.2850 C   0  0  0  0  0  0  0  0  0  0  0  0
  142.6830   80.2630  223.6560 C   0  0  0  0  0  0  0  0  0  0  0  0
  141.8240   79.3180  224.1750 C   0  0  0  0  0  0  0  0  0  0  0  0
  140.9210   78.6310  223.3590 C   0  0  0  0  0  0  0  0  0  0  0  0
  140.8820   78.9010  222.0010 C   0  0  0  0  0  0  0  0  0  0  0  0
  139.9430   78.2040  221.0860 C   0  0  0  0  0  0  0  0  0  0  0  0
  140.3000   76.7970  220.9710 N   0  0  0  0  0  0  0  0  0  0  0  0
  139.3800   75.7750  221.3240 C   0  0  0  0  0  0  0  0  0  0  0  0
  138.2200   76.0330  221.7480 O   0  0  0  0  0  0  0  0  0  0  0  0
  139.8680   74.3630  221.1600 C   0  0  0  0  0  0  0  0  0  0  0  0
  139.5930   73.5610  222.3370 N   0  0  0  0  0  0  0  0  0  0  0  0
  140.4690   72.4390  222.5470 C   0  0  0  0  0  0  0  0  0  0  0  0
  141.3780   72.2690  221.6920 O   0  0  0  0  0  0  0  0  0  0  0  0
  140.2800   71.5660  223.7010 C   0  0  0  0  0  0  0  0  0  0  0  0
  139.6070   70.3760  223.4930 C   0  0  0  0  0  0  0  0  0  0  0  0
  139.4030   69.5100  224.5610 C   0  0  0  0  0  0  0  0  0  0  0  0
  139.8860   69.8770  225.8020 C   0  0  0  0  0  0  0  0  0  0  0  0
  139.6740   69.0100  226.8400 C   0  0  0  0  0  0  0  0  0  0  0  0
  140.1540   69.3620  228.1000 C   0  0  0  0  0  0  0  0  0  0  0  0
  139.9610   68.5290  229.1380 F   0  0  0  0  0  0  0  0  0  0  0  0
  140.8200   70.5600  228.2560 C   0  0  0  0  0  0  0  0  0  0  0  0
  141.0400   71.4440  227.2190 C   0  0  0  0  0  0  0  0  0  0  0  0
  140.5550   71.0780  225.9660 C   0  0  0  0  0  0  0  0  0  0  0  0
  140.7430   71.9030  224.9170 N   0  0  0  0  0  0  0  0  0  0  0  0
  141.8635   81.2927  219.9238 H   0  0  0  0  0  0  0  0  0  0  0  0
  142.6237   79.7095  219.5465 H   0  0  0  0  0  0  0  0  0  0  0  0
  140.8345   79.8695  219.5465 H   0  0  0  0  0  0  0  0  0  0  0  0
  143.3158   81.2796  221.8490 H   0  0  0  0  0  0  0  0  0  0  0  0
  143.3896   80.7967  224.3086 H   0  0  0  0  0  0  0  0  0  0  0  0
  141.8498   79.1003  225.2529 H   0  0  0  0  0  0  0  0  0  0  0  0
  140.2448   77.8797  223.7929 H   0  0  0  0  0  0  0  0  0  0  0  0
  138.9205   78.2876  221.4828 H   0  0  0  0  0  0  0  0  0  0  0  0
  140.0006   78.6701  220.0913 H   0  0  0  0  0  0  0  0  0  0  0  0
  141.2700   76.5490  220.6160 H   0  0  0  0  0  0  0  0  0  0  0  0
  139.3637   73.9097  220.2938 H   0  0  0  0  0  0  0  0  0  0  0  0
  140.9575   74.3915  221.0109 H   0  0  0  0  0  0  0  0  0  0  0  0
  138.8130   73.7780  222.9930 H   0  0  0  0  0  0  0  0  0  0  0  0
  139.2361   70.1168  222.4904 H   0  0  0  0  0  0  0  0  0  0  0  0
  138.8709   68.5574  224.4216 H   0  0  0  0  0  0  0  0  0  0  0  0
  139.1394   68.0614  226.6837 H   0  0  0  0  0  0  0  0  0  0  0  0
  141.1942   70.8238  229.2562 H   0  0  0  0  0  0  0  0  0  0  0  0
  141.5735   72.3932  227.3751 H   0  0  0  0  0  0  0  0  0  0  0  0
  1  2  1  0
  2  3  2  0
  3  4  1  0
  4  5  2  0
  5  6  1  0
  6  7  2  0
  7  8  1  0
  8  9  1  0
  9 10  1  0
 10 11  2  0
 10 12  1  0
 12 13  1  0
 13 14  1  0
 14 15  2  0
 14 16  1  0
 16 17  2  0
 17 18  1  0
 18 19  2  0
 19 20  1  0
 20 21  2  0
 21 22  1  0
 21 23  1  0
 23 24  2  0
 24 25  1  0
 25 26  2  0
  7  2  1  0
 26 16  1  0
 25 19  1  0
  1 27  1  0
  1 28  1  0
  1 29  1  0
  3 30  1  0
  4 31  1  0
  5 32  1  0
  6 33  1  0
  8 34  1  0
  8 35  1  0
  9 36  1  0
 12 37  1  0
 12 38  1  0
 13 39  1  0
 17 40  1  0
 18 41  1  0
 20 42  1  0
 23 43  1  0
 24 44  1  0
M  END
>  <smiles>  (17) 
Cc1ccccc1CNC(=O)CNC(=O)c1ccc2cc(F)ccc2n1

>  <score_type>  (17) 
oracle

>  <origin>  (17) 
autodockgpu

>  <m_score__min__energy>  (17) 
-8.6199999999999992

>  <m_primary>  (17) 
energy

>  <rmsd>  (17) 
3.0381223428878803

>  <m_score__min__rmsd>  (17) 
3.0381223428878803

>  <meeko>  (17) 
{"free_energy": -8.35, "intermolecular_energy": -9.84, "internal_energy": -0.96, "cluster_size": 15, "cluster_id": 1, "rank_in_cluster": 8}

>  <energy>  (17) 
-8.61

>  <cluster_rmsd>  (17) 
0.07

>  <cluster>  (17) 
2

$$$$

     RDKit          3D

 44 46  0  0  0  0  0  0  0  0999 V2000
  141.0550   71.9540  227.5860 C   0  0  0  0  0  0  0  0  0  0  0  0
  140.7320   70.5470  227.2510 C   0  0  0  0  0  0  0  0  0  0  0  0
  140.6020   69.6760  228.3390 C   0  0  0  0  0  0  0  0  0  0  0  0
  140.2980   68.3290  228.1250 C   0  0  0  0  0  0  0  0  0  0  0  0
  140.1320   67.8860  226.8300 C   0  0  0  0  0  0  0  0  0  0  0  0
  140.2620   68.7530  225.7420 C   0  0  0  0  0  0  0  0  0  0  0  0
  140.5630   70.0880  225.9620 C   0  0  0  0  0  0  0  0  0  0  0  0
  140.7130   71.0560  224.8460 C   0  0  0  0  0  0  0  0  0  0  0  0
  139.4640   71.1710  224.1070 N   0  0  0  0  0  0  0  0  0  0  0  0
  139.3640   72.0020  222.9590 C   0  0  0  0  0  0  0  0  0  0  0  0
  140.3420   72.6730  222.5290 O   0  0  0  0  0  0  0  0  0  0  0  0
  138.0220   72.0340  222.2840 C   0  0  0  0  0  0  0  0  0  0  0  0
  137.0380   72.7440  223.0800 N   0  0  0  0  0  0  0  0  0  0  0  0
  136.2550   71.9330  223.9740 C   0  0  0  0  0  0  0  0  0  0  0  0
  136.5010   70.6980  223.9720 O   0  0  0  0  0  0  0  0  0  0  0  0
  135.2370   72.5460  224.8200 C   0  0  0  0  0  0  0  0  0  0  0  0
  134.3230   71.7030  225.4250 C   0  0  0  0  0  0  0  0  0  0  0  0
  133.3340   72.2400  226.2410 C   0  0  0  0  0  0  0  0  0  0  0  0
  133.3030   73.6090  226.4180 C   0  0  0  0  0  0  0  0  0  0  0  0
  132.3210   74.1160  227.2250 C   0  0  0  0  0  0  0  0  0  0  0  0
  132.2730   75.4970  227.4160 C   0  0  0  0  0  0  0  0  0  0  0  0
  131.3190   76.0220  228.2050 F   0  0  0  0  0  0  0  0  0  0  0  0
  133.2080   76.2950  226.7900 C   0  0  0  0  0  0  0  0  0  0  0  0
  134.2030   75.7970  225.9740 C   0  0  0  0  0  0  0  0  0  0  0  0
  134.2380   74.4170  225.7930 C   0  0  0  0  0  0  0  0  0  0  0  0
  135.1890   73.8770  225.0050 N   0  0  0  0  0  0  0  0  0  0  0  0
  141.0825   72.0736  228.6791 H   0  0  0  0  0  0  0  0  0  0  0  0
  142.0365   72.2154  227.1638 H   0  0  0  0  0  0  0  0  0  0  0  0
  140.2858   72.6173  227.1638 H   0  0  0  0  0  0  0  0  0  0  0  0
  140.7393   70.0522  229.3635 H   0  0  0  0  0  0  0  0  0  0  0  0
  140.1932   67.6360  228.9728 H   0  0  0  0  0  0  0  0  0  0  0  0
  139.8922   66.8277  226.6495 H   0  0  0  0  0  0  0  0  0  0  0  0
  140.1262   68.3782  224.7168 H   0  0  0  0  0  0  0  0  0  0  0  0
  140.9857   72.0406  225.2536 H   0  0  0  0  0  0  0  0  0  0  0  0
  141.5003   70.6992  224.1656 H   0  0  0  0  0  0  0  0  0  0  0  0
  138.6230   70.6170  224.4450 H   0  0  0  0  0  0  0  0  0  0  0  0
  138.1241   72.5373  221.3112 H   0  0  0  0  0  0  0  0  0  0  0  0
  137.6771   70.9972  222.1569 H   0  0  0  0  0  0  0  0  0  0  0  0
  136.9030   73.7750  223.0140 H   0  0  0  0  0  0  0  0  0  0  0  0
  134.3781   70.6166  225.2619 H   0  0  0  0  0  0  0  0  0  0  0  0
  132.5949   71.5908  226.7332 H   0  0  0  0  0  0  0  0  0  0  0  0
  131.5895   73.4527  227.7098 H   0  0  0  0  0  0  0  0  0  0  0  0
  133.1579   77.3823  226.9492 H   0  0  0  0  0  0  0  0  0  0  0  0
  134.9348   76.4597  225.4889 H   0  0  0  0  0  0  0  0  0  0  0  0
  1  2  1  0
  2  3  2  0
  3  4  1  0
  4  5  2  0
  5  6  1  0
  6  7  2  0
  7  8  1  0
  8  9  1  0
  9 10  1  0
 10 11  2  0
 10 12  1  0
 12 13  1  0
 13 14  1  0
 14 15  2  0
 14 16  1  0
 16 17  2  0
 17 18  1  0
 18 19  2  0
 19 20  1  0
 20 21  2  0
 21 22  1  0
 21 23  1  0
 23 24  2  0
 24 25  1  0
 25 26  2  0
  7  2  1  0
 26 16  1  0
 25 19  1  0
  1 27  1  0
  1 28  1  0
  1 29  1  0
  3 30  1  0
  4 31  1  0
  5 32  1  0
  6 33  1  0
  8 34  1  0
  8 35  1  0
  9 36  1  0
 12 37  1  0
 12 38  1  0
 13 39  1  0
 17 40  1  0
 18 41  1  0
 20 42  1  0
 23 43  1  0
 24 44  1  0
M  END
>  <smiles>  (18) 
Cc1ccccc1CNC(=O)CNC(=O)c1ccc2cc(F)ccc2n1

>  <score_type>  (18) 
oracle

>  <origin>  (18) 
autodockgpu

>  <m_score__min__energy>  (18) 
-8.6199999999999992

>  <m_primary>  (18) 
energy

>  <rmsd>  (18) 
7.920280494320265

>  <m_score__min__rmsd>  (18) 
7.920280494320265

>  <meeko>  (18) 
{"free_energy": -7.71, "intermolecular_energy": -9.2, "internal_energy": -1.8, "cluster_size": 4, "cluster_id": 4, "rank_in_cluster": 1}

>  <energy>  (18) 
-8.61

>  <cluster_rmsd>  (18) 
0.07

>  <cluster>  (18) 
2

$$$$

     RDKit          3D

 44 46  0  0  0  0  0  0  0  0999 V2000
  141.4020   80.8310  223.2120 C   0  0  0  0  0  0  0  0  0  0  0  0
  141.5390   80.2450  221.8570 C   0  0  0  0  0  0  0  0  0  0  0  0
  141.8190   81.1510  220.8270 C   0  0  0  0  0  0  0  0  0  0  0  0
  141.9670   80.6940  219.5140 C   0  0  0  0  0  0  0  0  0  0  0  0
  141.8310   79.3450  219.2640 C   0  0  0  0  0  0  0  0  0  0  0  0
  141.5500   78.4390  220.2900 C   0  0  0  0  0  0  0  0  0  0  0  0
  141.4050   78.9000  221.5890 C   0  0  0  0  0  0  0  0  0  0  0  0
  141.1080   77.9840  222.7210 C   0  0  0  0  0  0  0  0  0  0  0  0
  141.0060   76.6120  222.2460 N   0  0  0  0  0  0  0  0  0  0  0  0
  139.7770   76.0920  221.7610 C   0  0  0  0  0  0  0  0  0  0  0  0
  138.7250   76.7870  221.7180 O   0  0  0  0  0  0  0  0  0  0  0  0
  139.8020   74.6620  221.2990 C   0  0  0  0  0  0  0  0  0  0  0  0
  139.5400   73.7420  222.3900 N   0  0  0  0  0  0  0  0  0  0  0  0
  140.4650   72.6480  222.5210 C   0  0  0  0  0  0  0  0  0  0  0  0
  141.4010   72.6010  221.6790 O   0  0  0  0  0  0  0  0  0  0  0  0
  140.2940   71.6630  223.5840 C   0  0  0  0  0  0  0  0  0  0  0  0
  139.6850   70.4680  223.2500 C   0  0  0  0  0  0  0  0  0  0  0  0
  139.4990   69.4980  224.2280 C   0  0  0  0  0  0  0  0  0  0  0  0
  139.9350   69.7700  225.5100 C   0  0  0  0  0  0  0  0  0  0  0  0
  139.7420   68.8010  226.4570 C   0  0  0  0  0  0  0  0  0  0  0  0
  140.1760   69.0570  227.7580 C   0  0  0  0  0  0  0  0  0  0  0  0
  140.0000   68.1230  228.7090 F   0  0  0  0  0  0  0  0  0  0  0  0
  140.7780   70.2660  228.0410 C   0  0  0  0  0  0  0  0  0  0  0  0
  140.9780   71.2510  227.0950 C   0  0  0  0  0  0  0  0  0  0  0  0
  140.5410   70.9810  225.8020 C   0  0  0  0  0  0  0  0  0  0  0  0
  140.7110   71.9080  224.8380 N   0  0  0  0  0  0  0  0  0  0  0  0
  141.5839   80.0530  223.9681 H   0  0  0  0  0  0  0  0  0  0  0  0
  142.1348   81.6419  223.3366 H   0  0  0  0  0  0  0  0  0  0  0  0
  140.3857   81.2329  223.3366 H   0  0  0  0  0  0  0  0  0  0  0  0
  141.9226   82.2230  221.0509 H   0  0  0  0  0  0  0  0  0  0  0  0
  142.1875   81.3966  218.6969 H   0  0  0  0  0  0  0  0  0  0  0  0
  141.9461   78.9740  218.2349 H   0  0  0  0  0  0  0  0  0  0  0  0
  141.4446   77.3668  220.0681 H   0  0  0  0  0  0  0  0  0  0  0  0
  141.9159   78.0517  223.4644 H   0  0  0  0  0  0  0  0  0  0  0  0
  140.1511   78.2771  223.1774 H   0  0  0  0  0  0  0  0  0  0  0  0
  141.8760   76.0020  222.2700 H   0  0  0  0  0  0  0  0  0  0  0  0
  139.0338   74.5241  220.5239 H   0  0  0  0  0  0  0  0  0  0  0  0
  140.8050   74.4469  220.9018 H   0  0  0  0  0  0  0  0  0  0  0  0
  138.7350   73.8600  223.0410 H   0  0  0  0  0  0  0  0  0  0  0  0
  139.3501   70.2860  222.2181 H   0  0  0  0  0  0  0  0  0  0  0  0
  139.0172   68.5389  223.9873 H   0  0  0  0  0  0  0  0  0  0  0  0
  139.2583   67.8472  226.1996 H   0  0  0  0  0  0  0  0  0  0  0  0
  141.1150   70.4540  229.0711 H   0  0  0  0  0  0  0  0  0  0  0  0
  141.4607   72.2056  227.3516 H   0  0  0  0  0  0  0  0  0  0  0  0
  1  2  1  0
  2  3  2  0
  3  4  1  0
  4  5  2  0
  5  6  1  0
  6  7  2  0
  7  8  1  0
  8  9  1  0
  9 10  1  0
 10 11  2  0
 10 12  1  0
 12 13  1  0
 13 14  1  0
 14 15  2  0
 14 16  1  0
 16 17  2  0
 17 18  1  0
 18 19  2  0
 19 20  1  0
 20 21  2  0
 21 22  1  0
 21 23  1  0
 23 24  2  0
 24 25  1  0
 25 26  2  0
  7  2  1  0
 26 16  1  0
 25 19  1  0
  1 27  1  0
  1 28  1  0
  1 29  1  0
  3 30  1  0
  4 31  1  0
  5 32  1  0
  6 33  1  0
  8 34  1  0
  8 35  1  0
  9 36  1  0
 12 37  1  0
 12 38  1  0
 13 39  1  0
 17 40  1  0
 18 41  1  0
 20 42  1  0
 23 43  1  0
 24 44  1  0
M  END
>  <smiles>  (19) 
Cc1ccccc1CNC(=O)CNC(=O)c1ccc2cc(F)ccc2n1

>  <score_type>  (19) 
oracle

>  <origin>  (19) 
autodockgpu

>  <m_score__min__energy>  (19) 
-8.6199999999999992

>  <m_primary>  (19) 
energy

>  <rmsd>  (19) 
2.88792724565829

>  <m_score__min__rmsd>  (19) 
2.88792724565829

>  <meeko>  (19) 
{"free_energy": -8.37, "intermolecular_energy": -9.86, "internal_energy": -0.88, "cluster_size": 15, "cluster_id": 1, "rank_in_cluster": 7}

>  <energy>  (19) 
-8.59

>  <cluster_rmsd>  (19) 
0.06

>  <cluster>  (19) 
2

$$$$

     RDKit          3D

 44 46  0  0  0  0  0  0  0  0999 V2000
  141.0430   72.2230  227.5850 C   0  0  0  0  0  0  0  0  0  0  0  0
  140.6060   70.8400  227.2830 C   0  0  0  0  0  0  0  0  0  0  0  0
  140.0370   70.1340  228.3500 C   0  0  0  0  0  0  0  0  0  0  0  0
  139.5930   68.8220  228.1640 C   0  0  0  0  0  0  0  0  0  0  0  0
  139.7290   68.2480  226.9190 C   0  0  0  0  0  0  0  0  0  0  0  0
  140.2980   68.9490  225.8520 C   0  0  0  0  0  0  0  0  0  0  0  0
  140.7360   70.2500  226.0440 C   0  0  0  0  0  0  0  0  0  0  0  0
  141.3480   71.0450  224.9490 C   0  0  0  0  0  0  0  0  0  0  0  0
  140.3250   71.8030  224.2430 N   0  0  0  0  0  0  0  0  0  0  0  0
  140.4230   72.0470  222.8470 C   0  0  0  0  0  0  0  0  0  0  0  0
  141.3920   71.6230  222.1590 O   0  0  0  0  0  0  0  0  0  0  0  0
  139.3030   72.8410  222.2360 C   0  0  0  0  0  0  0  0  0  0  0  0
  139.5360   74.2690  222.3470 N   0  0  0  0  0  0  0  0  0  0  0  0
  140.6220   74.7880  221.5580 C   0  0  0  0  0  0  0  0  0  0  0  0
  141.2540   73.9540  220.8570 O   0  0  0  0  0  0  0  0  0  0  0  0
  140.9430   76.2110  221.5960 C   0  0  0  0  0  0  0  0  0  0  0  0
  141.4810   76.7700  220.4510 C   0  0  0  0  0  0  0  0  0  0  0  0
  141.8030   78.1220  220.4380 C   0  0  0  0  0  0  0  0  0  0  0  0
  141.5700   78.8620  221.5810 C   0  0  0  0  0  0  0  0  0  0  0  0
  141.8950   80.1910  221.5450 C   0  0  0  0  0  0  0  0  0  0  0  0
  141.6670   80.9550  222.6900 C   0  0  0  0  0  0  0  0  0  0  0  0
  141.9750   82.2630  222.6830 F   0  0  0  0  0  0  0  0  0  0  0  0
  141.1270   80.3500  223.8060 C   0  0  0  0  0  0  0  0  0  0  0  0
  140.7960   79.0110  223.8550 C   0  0  0  0  0  0  0  0  0  0  0  0
  141.0290   78.2610  222.7050 C   0  0  0  0  0  0  0  0  0  0  0  0
  140.7230   76.9480  222.6970 N   0  0  0  0  0  0  0  0  0  0  0  0
  141.0875   72.3637  228.6751 H   0  0  0  0  0  0  0  0  0  0  0  0
  142.0394   72.3955  227.1521 H   0  0  0  0  0  0  0  0  0  0  0  0
  140.3266   72.9367  227.1521 H   0  0  0  0  0  0  0  0  0  0  0  0
  139.9394   70.6126  229.3356 H   0  0  0  0  0  0  0  0  0  0  0  0
  139.1438   68.2587  228.9952 H   0  0  0  0  0  0  0  0  0  0  0  0
  139.3824   67.2160  226.7613 H   0  0  0  0  0  0  0  0  0  0  0  0
  140.3976   68.4713  224.8662 H   0  0  0  0  0  0  0  0  0  0  0  0
  142.0864   71.7406  225.3744 H   0  0  0  0  0  0  0  0  0  0  0  0
  141.8392   70.3610  224.2413 H   0  0  0  0  0  0  0  0  0  0  0  0
  139.4970   72.1730  224.7960 H   0  0  0  0  0  0  0  0  0  0  0  0
  139.2165   72.5754  221.1721 H   0  0  0  0  0  0  0  0  0  0  0  0
  138.3765   72.6011  222.7782 H   0  0  0  0  0  0  0  0  0  0  0  0
  138.9590   74.8850  222.9580 H   0  0  0  0  0  0  0  0  0  0  0  0
  141.6525   76.1501  219.5586 H   0  0  0  0  0  0  0  0  0  0  0  0
  142.2324   78.5909  219.5404 H   0  0  0  0  0  0  0  0  0  0  0  0
  142.3238   80.6440  220.6390 H   0  0  0  0  0  0  0  0  0  0  0  0
  140.9516   80.9651  224.7009 H   0  0  0  0  0  0  0  0  0  0  0  0
  140.3678   78.5571  224.7609 H   0  0  0  0  0  0  0  0  0  0  0  0
  1  2  1  0
  2  3  2  0
  3  4  1  0
  4  5  2  0
  5  6  1  0
  6  7  2  0
  7  8  1  0
  8  9  1  0
  9 10  1  0
 10 11  2  0
 10 12  1  0
 12 13  1  0
 13 14  1  0
 14 15  2  0
 14 16  1  0
 16 17  2  0
 17 18  1  0
 18 19  2  0
 19 20  1  0
 20 21  2  0
 21 22  1  0
 21 23  1  0
 23 24  2  0
 24 25  1  0
 25 26  2  0
  7  2  1  0
 26 16  1  0
 25 19  1  0
  1 27  1  0
  1 28  1  0
  1 29  1  0
  3 30  1  0
  4 31  1  0
  5 32  1  0
  6 33  1  0
  8 34  1  0
  8 35  1  0
  9 36  1  0
 12 37  1  0
 12 38  1  0
 13 39  1  0
 17 40  1  0
 18 41  1  0
 20 42  1  0
 23 43  1  0
 24 44  1  0
M  END
>  <smiles>  (20) 
Cc1ccccc1CNC(=O)CNC(=O)c1ccc2cc(F)ccc2n1

>  <score_type>  (20) 
oracle

>  <origin>  (20) 
autodockgpu

>  <m_score__min__energy>  (20) 
-8.6199999999999992

>  <m_primary>  (20) 
energy

>  <rmsd>  (20) 
9.036503811365947

>  <m_score__min__rmsd>  (20) 
9.036503811365947

>  <meeko>  (20) 
{"free_energy": -8.53, "intermolecular_energy": -10.02, "internal_energy": -0.92, "cluster_size": 23, "cluster_id": 2, "rank_in_cluster": 8}

>  <energy>  (20) 
-8.55

>  <cluster_rmsd>  (20) 
0.21

>  <cluster>  (20) 
2

$$$$

     RDKit          3D

 44 46  0  0  0  0  0  0  0  0999 V2000
  141.2380   72.1850  227.2080 C   0  0  0  0  0  0  0  0  0  0  0  0
  140.7660   70.7940  227.0130 C   0  0  0  0  0  0  0  0  0  0  0  0
  140.5850   70.0430  228.1810 C   0  0  0  0  0  0  0  0  0  0  0  0
  140.1420   68.7200  228.1010 C   0  0  0  0  0  0  0  0  0  0  0  0
  139.8890   68.1810  226.8570 C   0  0  0  0  0  0  0  0  0  0  0  0
  140.0690   68.9280  225.6900 C   0  0  0  0  0  0  0  0  0  0  0  0
  140.5100   70.2390  225.7780 C   0  0  0  0  0  0  0  0  0  0  0  0
  140.7180   71.0820  224.5720 C   0  0  0  0  0  0  0  0  0  0  0  0
  139.4620   71.2640  223.8600 N   0  0  0  0  0  0  0  0  0  0  0  0
  139.3360   72.2330  222.8300 C   0  0  0  0  0  0  0  0  0  0  0  0
  140.2960   72.9750  222.4850 O   0  0  0  0  0  0  0  0  0  0  0  0
  137.9880   72.3230  222.1700 C   0  0  0  0  0  0  0  0  0  0  0  0
  137.0220   72.9980  223.0170 N   0  0  0  0  0  0  0  0  0  0  0  0
  136.2530   72.1500  223.8880 C   0  0  0  0  0  0  0  0  0  0  0  0
  136.4960   70.9150  223.8270 O   0  0  0  0  0  0  0  0  0  0  0  0
  135.2530   72.7260  224.7800 C   0  0  0  0  0  0  0  0  0  0  0  0
  134.3800   71.8530  225.4020 C   0  0  0  0  0  0  0  0  0  0  0  0
  133.4090   72.3550  226.2620 C   0  0  0  0  0  0  0  0  0  0  0  0
  133.3550   73.7200  226.4630 C   0  0  0  0  0  0  0  0  0  0  0  0
  132.3920   74.1920  227.3140 C   0  0  0  0  0  0  0  0  0  0  0  0
  132.3210   75.5680  227.5300 C   0  0  0  0  0  0  0  0  0  0  0  0
  131.3860   76.0590  228.3610 F   0  0  0  0  0  0  0  0  0  0  0  0
  133.2160   76.3970  226.8850 C   0  0  0  0  0  0  0  0  0  0  0  0
  134.1920   75.9340  226.0250 C   0  0  0  0  0  0  0  0  0  0  0  0
  134.2500   74.5580  225.8200 C   0  0  0  0  0  0  0  0  0  0  0  0
  135.1840   74.0520  224.9900 N   0  0  0  0  0  0  0  0  0  0  0  0
  141.3109   72.4000  228.2843 H   0  0  0  0  0  0  0  0  0  0  0  0
  142.2272   72.3052  226.7422 H   0  0  0  0  0  0  0  0  0  0  0  0
  140.5262   72.8824  226.7422 H   0  0  0  0  0  0  0  0  0  0  0  0
  140.7917   70.4949  229.1624 H   0  0  0  0  0  0  0  0  0  0  0  0
  139.9980   68.1205  229.0120 H   0  0  0  0  0  0  0  0  0  0  0  0
  139.5382   67.1412  226.7819 H   0  0  0  0  0  0  0  0  0  0  0  0
  139.8620   68.4784  224.7076 H   0  0  0  0  0  0  0  0  0  0  0  0
  141.1069   72.0642  224.8786 H   0  0  0  0  0  0  0  0  0  0  0  0
  141.4375   70.5828  223.9063 H   0  0  0  0  0  0  0  0  0  0  0  0
  138.6350   70.6540  224.1280 H   0  0  0  0  0  0  0  0  0  0  0  0
  138.0885   72.8818  221.2278 H   0  0  0  0  0  0  0  0  0  0  0  0
  137.6272   71.3006  221.9841 H   0  0  0  0  0  0  0  0  0  0  0  0
  136.8880   74.0320  222.9990 H   0  0  0  0  0  0  0  0  0  0  0  0
  134.4527   70.7709  225.2184 H   0  0  0  0  0  0  0  0  0  0  0  0
  132.7021   71.6818  226.7691 H   0  0  0  0  0  0  0  0  0  0  0  0
  131.6934   73.5048  227.8137 H   0  0  0  0  0  0  0  0  0  0  0  0
  133.1486   77.4801  227.0648 H   0  0  0  0  0  0  0  0  0  0  0  0
  134.8913   76.6203  225.5250 H   0  0  0  0  0  0  0  0  0  0  0  0
  1  2  1  0
  2  3  2  0
  3  4  1  0
  4  5  2  0
  5  6  1  0
  6  7  2  0
  7  8  1  0
  8  9  1  0
  9 10  1  0
 10 11  2  0
 10 12  1  0
 12 13  1  0
 13 14  1  0
 14 15  2  0
 14 16  1  0
 16 17  2  0
 17 18  1  0
 18 19  2  0
 19 20  1  0
 20 21  2  0
 21 22  1  0
 21 23  1  0
 23 24  2  0
 24 25  1  0
 25 26  2  0
  7  2  1  0
 26 16  1  0
 25 19  1  0
  1 27  1  0
  1 28  1  0
  1 29  1  0
  3 30  1  0
  4 31  1  0
  5 32  1  0
  6 33  1  0
  8 34  1  0
  8 35  1  0
  9 36  1  0
 12 37  1  0
 12 38  1  0
 13 39  1  0
 17 40  1  0
 18 41  1  0
 20 42  1  0
 23 43  1  0
 24 44  1  0
M  END
>  <smiles>  (21) 
Cc1ccccc1CNC(=O)CNC(=O)c1ccc2cc(F)ccc2n1

>  <score_type>  (21) 
oracle

>  <origin>  (21) 
autodockgpu

>  <m_score__min__energy>  (21) 
-8.6199999999999992

>  <m_primary>  (21) 
energy

>  <rmsd>  (21) 
7.839286940840025

>  <m_score__min__rmsd>  (21) 
7.839286940840025

>  <meeko>  (21) 
{"free_energy": -7.62, "intermolecular_energy": -9.11, "internal_energy": -1.84, "cluster_size": 4, "cluster_id": 4, "rank_in_cluster": 3}

>  <energy>  (21) 
-8.55

>  <cluster_rmsd>  (21) 
0.17

>  <cluster>  (21) 
2

$$$$

     RDKit          3D

 44 46  0  0  0  0  0  0  0  0999 V2000
  139.6120   68.4320  226.7620 C   0  0  0  0  0  0  0  0  0  0  0  0
  140.1970   69.7900  226.8480 C   0  0  0  0  0  0  0  0  0  0  0  0
  140.5000   70.2420  228.1380 C   0  0  0  0  0  0  0  0  0  0  0  0
  141.0570   71.5110  228.3230 C   0  0  0  0  0  0  0  0  0  0  0  0
  141.2970   72.2950  227.2160 C   0  0  0  0  0  0  0  0  0  0  0  0
  140.9950   71.8470  225.9270 C   0  0  0  0  0  0  0  0  0  0  0  0
  140.4430   70.5880  225.7520 C   0  0  0  0  0  0  0  0  0  0  0  0
  140.1030   70.0580  224.4070 C   0  0  0  0  0  0  0  0  0  0  0  0
  139.2720   71.0100  223.6840 N   0  0  0  0  0  0  0  0  0  0  0  0
  139.8500   72.0110  222.8590 C   0  0  0  0  0  0  0  0  0  0  0  0
  141.0990   72.1220  222.7140 O   0  0  0  0  0  0  0  0  0  0  0  0
  138.8860   72.9320  222.1660 C   0  0  0  0  0  0  0  0  0  0  0  0
  139.2520   74.3250  222.3450 N   0  0  0  0  0  0  0  0  0  0  0  0
  140.2940   74.8130  221.4810 C   0  0  0  0  0  0  0  0  0  0  0  0
  140.7780   73.9860  220.6620 O   0  0  0  0  0  0  0  0  0  0  0  0
  140.7400   76.1990  221.5780 C   0  0  0  0  0  0  0  0  0  0  0  0
  141.4880   76.6990  220.5280 C   0  0  0  0  0  0  0  0  0  0  0  0
  141.9350   78.0150  220.5740 C   0  0  0  0  0  0  0  0  0  0  0  0
  141.6110   78.7780  221.6790 C   0  0  0  0  0  0  0  0  0  0  0  0
  142.0620   80.0700  221.7030 C   0  0  0  0  0  0  0  0  0  0  0  0
  141.7450   80.8570  222.8100 C   0  0  0  0  0  0  0  0  0  0  0  0
  142.1740   82.1300  222.8600 F   0  0  0  0  0  0  0  0  0  0  0  0
  140.9950   80.3110  223.8310 C   0  0  0  0  0  0  0  0  0  0  0  0
  140.5340   79.0100  223.8190 C   0  0  0  0  0  0  0  0  0  0  0  0
  140.8590   78.2370  222.7080 C   0  0  0  0  0  0  0  0  0  0  0  0
  140.4350   76.9590  222.6440 N   0  0  0  0  0  0  0  0  0  0  0  0
  139.4434   68.0405  227.7760 H   0  0  0  0  0  0  0  0  0  0  0  0
  138.6542   68.4788  226.2230 H   0  0  0  0  0  0  0  0  0  0  0  0
  140.3040   67.7681  226.2230 H   0  0  0  0  0  0  0  0  0  0  0  0
  140.2996   69.5980  229.0070 H   0  0  0  0  0  0  0  0  0  0  0  0
  141.2987   71.8760  229.3321 H   0  0  0  0  0  0  0  0  0  0  0  0
  141.7357   73.2949  227.3494 H   0  0  0  0  0  0  0  0  0  0  0  0
  141.1942   72.4898  225.0569 H   0  0  0  0  0  0  0  0  0  0  0  0
  141.0299   69.8824  223.8412 H   0  0  0  0  0  0  0  0  0  0  0  0
  139.5484   69.1152  224.5236 H   0  0  0  0  0  0  0  0  0  0  0  0
  138.2170   70.9410  223.7860 H   0  0  0  0  0  0  0  0  0  0  0  0
  138.8814   72.6999  221.0908 H   0  0  0  0  0  0  0  0  0  0  0  0
  137.8895   72.7798  222.6062 H   0  0  0  0  0  0  0  0  0  0  0  0
  138.7950   74.9370  223.0530 H   0  0  0  0  0  0  0  0  0  0  0  0
  141.7273   76.0615  219.6641 H   0  0  0  0  0  0  0  0  0  0  0  0
  142.5312   78.4375  219.7517 H   0  0  0  0  0  0  0  0  0  0  0  0
  142.6578   80.4763  220.8724 H   0  0  0  0  0  0  0  0  0  0  0  0
  140.7523   80.9437  224.6975 H   0  0  0  0  0  0  0  0  0  0  0  0
  139.9375   78.6030  224.6488 H   0  0  0  0  0  0  0  0  0  0  0  0
  1  2  1  0
  2  3  2  0
  3  4  1  0
  4  5  2  0
  5  6  1  0
  6  7  2  0
  7  8  1  0
  8  9  1  0
  9 10  1  0
 10 11  2  0
 10 12  1  0
 12 13  1  0
 13 14  1  0
 14 15  2  0
 14 16  1  0
 16 17  2  0
 17 18  1  0
 18 19  2  0
 19 20  1  0
 20 21  2  0
 21 22  1  0
 21 23  1  0
 23 24  2  0
 24 25  1  0
 25 26  2  0
  7  2  1  0
 26 16  1  0
 25 19  1  0
  1 27  1  0
  1 28  1  0
  1 29  1  0
  3 30  1  0
  4 31  1  0
  5 32  1  0
  6 33  1  0
  8 34  1  0
  8 35  1  0
  9 36  1  0
 12 37  1  0
 12 38  1  0
 13 39  1  0
 17 40  1  0
 18 41  1  0
 20 42  1  0
 23 43  1  0
 24 44  1  0
M  END
>  <smiles>  (22) 
Cc1ccccc1CNC(=O)CNC(=O)c1ccc2cc(F)ccc2n1

>  <score_type>  (22) 
oracle

>  <origin>  (22) 
autodockgpu

>  <m_score__min__energy>  (22) 
-8.6199999999999992

>  <m_primary>  (22) 
energy

>  <rmsd>  (22) 
8.566679862393569

>  <m_score__min__rmsd>  (22) 
8.566679862393569

>  <meeko>  (22) 
{"free_energy": -8.61, "intermolecular_energy": -10.11, "internal_energy": -1.06, "cluster_size": 23, "cluster_id": 2, "rank_in_cluster": 2}

>  <energy>  (22) 
-8.55

>  <cluster_rmsd>  (22) 
0.37

>  <cluster>  (22) 
2

$$$$

     RDKit          3D

 44 46  0  0  0  0  0  0  0  0999 V2000
  139.5350   68.5300  226.3940 C   0  0  0  0  0  0  0  0  0  0  0  0
  140.1760   69.8360  226.6740 C   0  0  0  0  0  0  0  0  0  0  0  0
  140.4450   70.1070  228.0210 C   0  0  0  0  0  0  0  0  0  0  0  0
  141.0500   71.3120  228.3860 C   0  0  0  0  0  0  0  0  0  0  0  0
  141.3710   72.2170  227.3970 C   0  0  0  0  0  0  0  0  0  0  0  0
  141.1040   71.9500  226.0520 C   0  0  0  0  0  0  0  0  0  0  0  0
  140.5040   70.7520  225.6980 C   0  0  0  0  0  0  0  0  0  0  0  0
  140.1960   70.4130  224.2850 C   0  0  0  0  0  0  0  0  0  0  0  0
  139.3400   71.4320  223.6960 N   0  0  0  0  0  0  0  0  0  0  0  0
  139.5840   71.9300  222.3890 C   0  0  0  0  0  0  0  0  0  0  0  0
  140.5440   71.5180  221.6820 O   0  0  0  0  0  0  0  0  0  0  0  0
  138.6290   72.9800  221.8940 C   0  0  0  0  0  0  0  0  0  0  0  0
  139.0950   74.3180  222.2040 N   0  0  0  0  0  0  0  0  0  0  0  0
  140.0350   74.8840  221.2720 C   0  0  0  0  0  0  0  0  0  0  0  0
  140.3530   74.1630  220.2890 O   0  0  0  0  0  0  0  0  0  0  0  0
  140.5680   76.2240  221.4890 C   0  0  0  0  0  0  0  0  0  0  0  0
  141.5550   76.6610  220.6250 C   0  0  0  0  0  0  0  0  0  0  0  0
  142.0950   77.9320  220.7910 C   0  0  0  0  0  0  0  0  0  0  0  0
  141.6180   78.7160  221.8230 C   0  0  0  0  0  0  0  0  0  0  0  0
  142.1640   79.9630  221.9680 C   0  0  0  0  0  0  0  0  0  0  0  0
  141.6950   80.7700  223.0040 C   0  0  0  0  0  0  0  0  0  0  0  0
  142.2120   82.0000  223.1700 F   0  0  0  0  0  0  0  0  0  0  0  0
  140.7080   80.2870  223.8390 C   0  0  0  0  0  0  0  0  0  0  0  0
  140.1500   79.0320  223.7040 C   0  0  0  0  0  0  0  0  0  0  0  0
  140.6280   78.2390  222.6650 C   0  0  0  0  0  0  0  0  0  0  0  0
  140.1180   77.0030  222.4870 N   0  0  0  0  0  0  0  0  0  0  0  0
  139.2900   68.0308  227.3431 H   0  0  0  0  0  0  0  0  0  0  0  0
  138.6133   68.6905  225.8155 H   0  0  0  0  0  0  0  0  0  0  0  0
  140.2258   67.8990  225.8155 H   0  0  0  0  0  0  0  0  0  0  0  0
  140.1795   69.3699  228.7931 H   0  0  0  0  0  0  0  0  0  0  0  0
  141.2659   71.5343  229.4415 H   0  0  0  0  0  0  0  0  0  0  0  0
  141.8474   73.1694  227.6726 H   0  0  0  0  0  0  0  0  0  0  0  0
  141.3684   72.6862  225.2786 H   0  0  0  0  0  0  0  0  0  0  0  0
  141.1340   70.3525  223.7136 H   0  0  0  0  0  0  0  0  0  0  0  0
  139.6733   69.4456  224.2550 H   0  0  0  0  0  0  0  0  0  0  0  0
  138.5230   71.7990  224.2670 H   0  0  0  0  0  0  0  0  0  0  0  0
  138.5258   72.8823  220.8032 H   0  0  0  0  0  0  0  0  0  0  0  0
  137.6623   72.8286  222.3966 H   0  0  0  0  0  0  0  0  0  0  0  0
  138.7750   74.8420  223.0460 H   0  0  0  0  0  0  0  0  0  0  0  0
  141.9101   76.0091  219.8133 H   0  0  0  0  0  0  0  0  0  0  0  0
  142.8817   78.3031  220.1177 H   0  0  0  0  0  0  0  0  0  0  0  0
  142.9507   80.3185  221.2863 H   0  0  0  0  0  0  0  0  0  0  0  0
  140.3483   80.9344  224.6524 H   0  0  0  0  0  0  0  0  0  0  0  0
  139.3640   78.6751  224.3858 H   0  0  0  0  0  0  0  0  0  0  0  0
  1  2  1  0
  2  3  2  0
  3  4  1  0
  4  5  2  0
  5  6  1  0
  6  7  2  0
  7  8  1  0
  8  9  1  0
  9 10  1  0
 10 11  2  0
 10 12  1  0
 12 13  1  0
 13 14  1  0
 14 15  2  0
 14 16  1  0
 16 17  2  0
 17 18  1  0
 18 19  2  0
 19 20  1  0
 20 21  2  0
 21 22  1  0
 21 23  1  0
 23 24  2  0
 24 25  1  0
 25 26  2  0
  7  2  1  0
 26 16  1  0
 25 19  1  0
  1 27  1  0
  1 28  1  0
  1 29  1  0
  3 30  1  0
  4 31  1  0
  5 32  1  0
  6 33  1  0
  8 34  1  0
  8 35  1  0
  9 36  1  0
 12 37  1  0
 12 38  1  0
 13 39  1  0
 17 40  1  0
 18 41  1  0
 20 42  1  0
 23 43  1  0
 24 44  1  0
M  END
>  <smiles>  (23) 
Cc1ccccc1CNC(=O)CNC(=O)c1ccc2cc(F)ccc2n1

>  <score_type>  (23) 
oracle

>  <origin>  (23) 
autodockgpu

>  <m_score__min__energy>  (23) 
-8.6199999999999992

>  <m_primary>  (23) 
energy

>  <rmsd>  (23) 
8.503897421755106

>  <m_score__min__rmsd>  (23) 
8.503897421755106

>  <meeko>  (23) 
{"free_energy": -8.55, "intermolecular_energy": -10.04, "internal_energy": -1.05, "cluster_size": 23, "cluster_id": 2, "rank_in_cluster": 7}

>  <energy>  (23) 
-8.53

>  <cluster_rmsd>  (23) 
1.11

>  <cluster>  (23) 
2

$$$$

     RDKit          3D

 44 46  0  0  0  0  0  0  0  0999 V2000
  141.5480   80.0030  223.3980 C   0  0  0  0  0  0  0  0  0  0  0  0
  141.6190   79.4550  222.0230 C   0  0  0  0  0  0  0  0  0  0  0  0
  141.9280   80.3770  221.0150 C   0  0  0  0  0  0  0  0  0  0  0  0
  142.0180   79.9560  219.6860 C   0  0  0  0  0  0  0  0  0  0  0  0
  141.8000   78.6260  219.3970 C   0  0  0  0  0  0  0  0  0  0  0  0
  141.4910   77.7040  220.4000 C   0  0  0  0  0  0  0  0  0  0  0  0
  141.4020   78.1290  221.7170 C   0  0  0  0  0  0  0  0  0  0  0  0
  141.0790   77.1960  222.8250 C   0  0  0  0  0  0  0  0  0  0  0  0
  140.6810   75.9000  222.2950 N   0  0  0  0  0  0  0  0  0  0  0  0
  139.3810   75.6910  221.7630 C   0  0  0  0  0  0  0  0  0  0  0  0
  138.5170   76.6090  221.7250 O   0  0  0  0  0  0  0  0  0  0  0  0
  139.0950   74.3100  221.2450 C   0  0  0  0  0  0  0  0  0  0  0  0
  138.9630   73.3490  222.3250 N   0  0  0  0  0  0  0  0  0  0  0  0
  140.1680   72.6550  222.6950 C   0  0  0  0  0  0  0  0  0  0  0  0
  141.2070   72.9510  222.0470 O   0  0  0  0  0  0  0  0  0  0  0  0
  140.1470   71.6680  223.7680 C   0  0  0  0  0  0  0  0  0  0  0  0
  139.6020   70.4300  223.4810 C   0  0  0  0  0  0  0  0  0  0  0  0
  139.5600   69.4550  224.4710 C   0  0  0  0  0  0  0  0  0  0  0  0
  140.0690   69.7650  225.7160 C   0  0  0  0  0  0  0  0  0  0  0  0
  140.0170   68.7900  226.6760 C   0  0  0  0  0  0  0  0  0  0  0  0
  140.5270   69.0840  227.9410 C   0  0  0  0  0  0  0  0  0  0  0  0
  140.4900   68.1450  228.9030 F   0  0  0  0  0  0  0  0  0  0  0  0
  141.0600   70.3340  228.1770 C   0  0  0  0  0  0  0  0  0  0  0  0
  141.1180   71.3260  227.2190 C   0  0  0  0  0  0  0  0  0  0  0  0
  140.6060   71.0170  225.9620 C   0  0  0  0  0  0  0  0  0  0  0  0
  140.6380   71.9490  224.9870 N   0  0  0  0  0  0  0  0  0  0  0  0
  141.6541   79.1843  224.1249 H   0  0  0  0  0  0  0  0  0  0  0  0
  142.3593   80.7312  223.5449 H   0  0  0  0  0  0  0  0  0  0  0  0
  140.5779   80.5003  223.5449 H   0  0  0  0  0  0  0  0  0  0  0  0
  142.0999   81.4332  221.2699 H   0  0  0  0  0  0  0  0  0  0  0  0
  142.2581   80.6718  218.8860 H   0  0  0  0  0  0  0  0  0  0  0  0
  141.8709   78.2832  218.3542 H   0  0  0  0  0  0  0  0  0  0  0  0
  141.3193   76.6474  220.1466 H   0  0  0  0  0  0  0  0  0  0  0  0
  141.9659   77.0700  223.4634 H   0  0  0  0  0  0  0  0  0  0  0  0
  140.2476   77.6127  223.4125 H   0  0  0  0  0  0  0  0  0  0  0  0
  141.3880   75.1070  222.3130 H   0  0  0  0  0  0  0  0  0  0  0  0
  138.1573   74.3317  220.6704 H   0  0  0  0  0  0  0  0  0  0  0  0
  139.9384   73.9998  220.6107 H   0  0  0  0  0  0  0  0  0  0  0  0
  138.0560   73.1690  222.8060 H   0  0  0  0  0  0  0  0  0  0  0  0
  139.2048   70.2183  222.4773 H   0  0  0  0  0  0  0  0  0  0  0  0
  139.1322   68.4622  224.2675 H   0  0  0  0  0  0  0  0  0  0  0  0
  139.5852   67.8025  226.4560 H   0  0  0  0  0  0  0  0  0  0  0  0
  141.4588   70.5513  229.1789 H   0  0  0  0  0  0  0  0  0  0  0  0
  141.5485   72.3142  227.4385 H   0  0  0  0  0  0  0  0  0  0  0  0
  1  2  1  0
  2  3  2  0
  3  4  1  0
  4  5  2  0
  5  6  1  0
  6  7  2  0
  7  8  1  0
  8  9  1  0
  9 10  1  0
 10 11  2  0
 10 12  1  0
 12 13  1  0
 13 14  1  0
 14 15  2  0
 14 16  1  0
 16 17  2  0
 17 18  1  0
 18 19  2  0
 19 20  1  0
 20 21  2  0
 21 22  1  0
 21 23  1  0
 23 24  2  0
 24 25  1  0
 25 26  2  0
  7  2  1  0
 26 16  1  0
 25 19  1  0
  1 27  1  0
  1 28  1  0
  1 29  1  0
  3 30  1  0
  4 31  1  0
  5 32  1  0
  6 33  1  0
  8 34  1  0
  8 35  1  0
  9 36  1  0
 12 37  1  0
 12 38  1  0
 13 39  1  0
 17 40  1  0
 18 41  1  0
 20 42  1  0
 23 43  1  0
 24 44  1  0
M  END
>  <smiles>  (24) 
Cc1ccccc1CNC(=O)CNC(=O)c1ccc2cc(F)ccc2n1

>  <score_type>  (24) 
oracle

>  <origin>  (24) 
autodockgpu

>  <m_score__min__energy>  (24) 
-8.6199999999999992

>  <m_primary>  (24) 
energy

>  <rmsd>  (24) 
2.663778030974901

>  <m_score__min__rmsd>  (24) 
2.663778030974901

>  <meeko>  (24) 
{"free_energy": -7.73, "intermolecular_energy": -9.22, "internal_energy": -1.56, "cluster_size": 15, "cluster_id": 1, "rank_in_cluster": 15}

>  <energy>  (24) 
-8.53

>  <cluster_rmsd>  (24) 
0.35

>  <cluster>  (24) 
2

$$$$

     RDKit          3D

 44 46  0  0  0  0  0  0  0  0999 V2000
  140.6530   71.4990  224.2630 C   0  0  0  0  0  0  0  0  0  0  0  0
  140.4770   70.9000  225.6070 C   0  0  0  0  0  0  0  0  0  0  0  0
  141.0640   71.6010  226.6680 C   0  0  0  0  0  0  0  0  0  0  0  0
  140.9520   71.1170  227.9740 C   0  0  0  0  0  0  0  0  0  0  0  0
  140.2570   69.9460  228.1880 C   0  0  0  0  0  0  0  0  0  0  0  0
  139.6710   69.2440  227.1310 C   0  0  0  0  0  0  0  0  0  0  0  0
  139.7860   69.7300  225.8390 C   0  0  0  0  0  0  0  0  0  0  0  0
  139.1840   69.0280  224.6770 C   0  0  0  0  0  0  0  0  0  0  0  0
  137.7320   69.0280  224.7840 N   0  0  0  0  0  0  0  0  0  0  0  0
  136.9810   70.2160  224.5870 C   0  0  0  0  0  0  0  0  0  0  0  0
  137.5290   71.3190  224.3130 O   0  0  0  0  0  0  0  0  0  0  0  0
  135.4900   70.0840  224.7240 C   0  0  0  0  0  0  0  0  0  0  0  0
  134.8680   71.3520  225.0580 N   0  0  0  0  0  0  0  0  0  0  0  0
  134.0340   71.3490  226.2300 C   0  0  0  0  0  0  0  0  0  0  0  0
  133.9290   70.2530  226.8420 O   0  0  0  0  0  0  0  0  0  0  0  0
  133.3600   72.5710  226.6560 C   0  0  0  0  0  0  0  0  0  0  0  0
  132.1190   72.4370  227.2510 C   0  0  0  0  0  0  0  0  0  0  0  0
  131.4380   73.5730  227.6730 C   0  0  0  0  0  0  0  0  0  0  0  0
  132.0340   74.8030  227.4810 C   0  0  0  0  0  0  0  0  0  0  0  0
  131.3450   75.9080  227.9050 C   0  0  0  0  0  0  0  0  0  0  0  0
  131.9310   77.1600  227.7200 C   0  0  0  0  0  0  0  0  0  0  0  0
  131.2780   78.2620  228.1270 F   0  0  0  0  0  0  0  0  0  0  0  0
  133.1720   77.2400  227.1220 C   0  0  0  0  0  0  0  0  0  0  0  0
  133.8770   76.1350  226.6900 C   0  0  0  0  0  0  0  0  0  0  0  0
  133.2790   74.8920  226.8820 C   0  0  0  0  0  0  0  0  0  0  0  0
  133.9230   73.7790  226.4790 N   0  0  0  0  0  0  0  0  0  0  0  0
  140.9617   72.5496  224.3674 H   0  0  0  0  0  0  0  0  0  0  0  0
  141.4257   70.9428  223.7120 H   0  0  0  0  0  0  0  0  0  0  0  0
  139.7023   71.4492  223.7120 H   0  0  0  0  0  0  0  0  0  0  0  0
  141.6138   72.5336  226.4729 H   0  0  0  0  0  0  0  0  0  0  0  0
  141.4093   71.6596  228.8145 H   0  0  0  0  0  0  0  0  0  0  0  0
  140.1616   69.5559  229.2121 H   0  0  0  0  0  0  0  0  0  0  0  0
  139.1216   68.3108  227.3240 H   0  0  0  0  0  0  0  0  0  0  0  0
  139.4796   69.5411  223.7500 H   0  0  0  0  0  0  0  0  0  0  0  0
  139.5419   67.9880  224.6624 H   0  0  0  0  0  0  0  0  0  0  0  0
  137.2420   68.1140  225.0140 H   0  0  0  0  0  0  0  0  0  0  0  0
  135.0749   69.7231  223.7714 H   0  0  0  0  0  0  0  0  0  0  0  0
  135.2816   69.3745  225.5383 H   0  0  0  0  0  0  0  0  0  0  0  0
  135.0130   72.2140  224.4900 H   0  0  0  0  0  0  0  0  0  0  0  0
  131.6746   71.4403  227.3892 H   0  0  0  0  0  0  0  0  0  0  0  0
  130.4490   73.4936  228.1480 H   0  0  0  0  0  0  0  0  0  0  0  0
  130.3568   75.8108  228.3783 H   0  0  0  0  0  0  0  0  0  0  0  0
  133.6218   78.2341  226.9826 H   0  0  0  0  0  0  0  0  0  0  0  0
  134.8650   76.2315  226.2162 H   0  0  0  0  0  0  0  0  0  0  0  0
  1  2  1  0
  2  3  2  0
  3  4  1  0
  4  5  2  0
  5  6  1  0
  6  7  2  0
  7  8  1  0
  8  9  1  0
  9 10  1  0
 10 11  2  0
 10 12  1  0
 12 13  1  0
 13 14  1  0
 14 15  2  0
 14 16  1  0
 16 17  2  0
 17 18  1  0
 18 19  2  0
 19 20  1  0
 20 21  2  0
 21 22  1  0
 21 23  1  0
 23 24  2  0
 24 25  1  0
 25 26  2  0
  7  2  1  0
 26 16  1  0
 25 19  1  0
  1 27  1  0
  1 28  1  0
  1 29  1  0
  3 30  1  0
  4 31  1  0
  5 32  1  0
  6 33  1  0
  8 34  1  0
  8 35  1  0
  9 36  1  0
 12 37  1  0
 12 38  1  0
 13 39  1  0
 17 40  1  0
 18 41  1  0
 20 42  1  0
 23 43  1  0
 24 44  1  0
M  END
>  <smiles>  (25) 
Cc1ccccc1CNC(=O)CNC(=O)c1ccc2cc(F)ccc2n1

>  <score_type>  (25) 
oracle

>  <origin>  (25) 
autodockgpu

>  <m_score__min__energy>  (25) 
-8.6199999999999992

>  <m_primary>  (25) 
energy

>  <rmsd>  (25) 
9.184403202865658

>  <m_score__min__rmsd>  (25) 
9.184403202865658

>  <meeko>  (25) 
{"free_energy": -7.82, "intermolecular_energy": -9.31, "internal_energy": -1.23, "cluster_size": 8, "cluster_id": 3, "rank_in_cluster": 4}

>  <energy>  (25) 
-8.5

>  <cluster_rmsd>  (25) 
1.05

>  <cluster>  (25) 
2

$$$$

     RDKit          3D

 44 46  0  0  0  0  0  0  0  0999 V2000
  141.7970   80.5730  219.9850 C   0  0  0  0  0  0  0  0  0  0  0  0
  141.7460   79.9850  221.3440 C   0  0  0  0  0  0  0  0  0  0  0  0
  142.5910   80.5720  222.2940 C   0  0  0  0  0  0  0  0  0  0  0  0
  142.6140   80.0880  223.6040 C   0  0  0  0  0  0  0  0  0  0  0  0
  141.7930   79.0310  223.9340 C   0  0  0  0  0  0  0  0  0  0  0  0
  140.9490   78.4430  222.9880 C   0  0  0  0  0  0  0  0  0  0  0  0
  140.9320   78.9280  221.6900 C   0  0  0  0  0  0  0  0  0  0  0  0
  140.0560   78.3440  220.6430 C   0  0  0  0  0  0  0  0  0  0  0  0
  140.3030   76.9150  220.5160 N   0  0  0  0  0  0  0  0  0  0  0  0
  139.7220   75.9870  221.4210 C   0  0  0  0  0  0  0  0  0  0  0  0
  138.9730   76.3520  222.3670 O   0  0  0  0  0  0  0  0  0  0  0  0
  140.0530   74.5400  221.1830 C   0  0  0  0  0  0  0  0  0  0  0  0
  139.8150   73.7350  222.3670 N   0  0  0  0  0  0  0  0  0  0  0  0
  140.4430   72.4410  222.3780 C   0  0  0  0  0  0  0  0  0  0  0  0
  141.1300   72.1410  221.3660 O   0  0  0  0  0  0  0  0  0  0  0  0
  140.2680   71.5500  223.5200 C   0  0  0  0  0  0  0  0  0  0  0  0
  139.6410   70.3390  223.2900 C   0  0  0  0  0  0  0  0  0  0  0  0
  139.4520   69.4560  224.3460 C   0  0  0  0  0  0  0  0  0  0  0  0
  139.9020   69.8260  225.5980 C   0  0  0  0  0  0  0  0  0  0  0  0
  139.7050   68.9410  226.6230 C   0  0  0  0  0  0  0  0  0  0  0  0
  140.1530   69.2970  227.8950 C   0  0  0  0  0  0  0  0  0  0  0  0
  139.9730   68.4470  228.9210 F   0  0  0  0  0  0  0  0  0  0  0  0
  140.7730   70.5170  228.0730 C   0  0  0  0  0  0  0  0  0  0  0  0
  140.9780   71.4180  227.0480 C   0  0  0  0  0  0  0  0  0  0  0  0
  140.5250   71.0480  225.7840 C   0  0  0  0  0  0  0  0  0  0  0  0
  140.6990   71.8910  224.7470 N   0  0  0  0  0  0  0  0  0  0  0  0
  141.8918   81.6662  220.0618 H   0  0  0  0  0  0  0  0  0  0  0  0
  142.6633   80.1671  219.4421 H   0  0  0  0  0  0  0  0  0  0  0  0
  140.8737   80.3223  219.4421 H   0  0  0  0  0  0  0  0  0  0  0  0
  143.2372   81.4150  222.0083 H   0  0  0  0  0  0  0  0  0  0  0  0
  143.2745   80.5415  224.3577 H   0  0  0  0  0  0  0  0  0  0  0  0
  141.8024   78.6424  224.9630 H   0  0  0  0  0  0  0  0  0  0  0  0
  140.3019   77.6001  223.2721 H   0  0  0  0  0  0  0  0  0  0  0  0
  139.0035   78.5072  220.9181 H   0  0  0  0  0  0  0  0  0  0  0  0
  140.2744   78.8314  219.6814 H   0  0  0  0  0  0  0  0  0  0  0  0
  140.9300   76.5780  219.7280 H   0  0  0  0  0  0  0  0  0  0  0  0
  139.4266   74.1610  220.3620 H   0  0  0  0  0  0  0  0  0  0  0  0
  141.1207   74.4691  220.9280 H   0  0  0  0  0  0  0  0  0  0  0  0
  139.2270   74.0670  223.1610 H   0  0  0  0  0  0  0  0  0  0  0  0
  139.2948   70.0770  222.2793 H   0  0  0  0  0  0  0  0  0  0  0  0
  138.9564   68.4867  224.1887 H   0  0  0  0  0  0  0  0  0  0  0  0
  139.2072   67.9757  226.4486 H   0  0  0  0  0  0  0  0  0  0  0  0
  141.1209   70.7845  229.0817 H   0  0  0  0  0  0  0  0  0  0  0  0
  141.4760   72.3834  227.2212 H   0  0  0  0  0  0  0  0  0  0  0  0
  1  2  1  0
  2  3  2  0
  3  4  1  0
  4  5  2  0
  5  6  1  0
  6  7  2  0
  7  8  1  0
  8  9  1  0
  9 10  1  0
 10 11  2  0
 10 12  1  0
 12 13  1  0
 13 14  1  0
 14 15  2  0
 14 16  1  0
 16 17  2  0
 17 18  1  0
 18 19  2  0
 19 20  1  0
 20 21  2  0
 21 22  1  0
 21 23  1  0
 23 24  2  0
 24 25  1  0
 25 26  2  0
  7  2  1  0
 26 16  1  0
 25 19  1  0
  1 27  1  0
  1 28  1  0
  1 29  1  0
  3 30  1  0
  4 31  1  0
  5 32  1  0
  6 33  1  0
  8 34  1  0
  8 35  1  0
  9 36  1  0
 12 37  1  0
 12 38  1  0
 13 39  1  0
 17 40  1  0
 18 41  1  0
 20 42  1  0
 23 43  1  0
 24 44  1  0
M  END
>  <smiles>  (26) 
Cc1ccccc1CNC(=O)CNC(=O)c1ccc2cc(F)ccc2n1

>  <score_type>  (26) 
oracle

>  <origin>  (26) 
autodockgpu

>  <m_score__min__energy>  (26) 
-8.6199999999999992

>  <m_primary>  (26) 
energy

>  <rmsd>  (26) 
2.9211000980811814

>  <m_score__min__rmsd>  (26) 
2.9211000980811814

>  <meeko>  (26) 
{"free_energy": -8.27, "intermolecular_energy": -9.76, "internal_energy": -1.13, "cluster_size": 15, "cluster_id": 1, "rank_in_cluster": 13}

>  <energy>  (26) 
-8.48

>  <cluster_rmsd>  (26) 
1.11

>  <cluster>  (26) 
2

$$$$

     RDKit          3D

 44 46  0  0  0  0  0  0  0  0999 V2000
  139.0080   80.3800  223.5400 C   0  0  0  0  0  0  0  0  0  0  0  0
  140.4350   80.1430  223.2170 C   0  0  0  0  0  0  0  0  0  0  0  0
  141.3510   81.0000  223.8390 C   0  0  0  0  0  0  0  0  0  0  0  0
  142.7200   80.8550  223.5980 C   0  0  0  0  0  0  0  0  0  0  0  0
  143.1390   79.8580  222.7430 C   0  0  0  0  0  0  0  0  0  0  0  0
  142.2270   79.0020  222.1210 C   0  0  0  0  0  0  0  0  0  0  0  0
  140.8710   79.1520  222.3650 C   0  0  0  0  0  0  0  0  0  0  0  0
  139.8550   78.2710  221.7330 C   0  0  0  0  0  0  0  0  0  0  0  0
  140.3640   76.9120  221.6220 N   0  0  0  0  0  0  0  0  0  0  0  0
  139.5190   75.8410  221.2280 C   0  0  0  0  0  0  0  0  0  0  0  0
  138.2990   76.0140  220.9580 O   0  0  0  0  0  0  0  0  0  0  0  0
  140.1640   74.4860  221.1500 C   0  0  0  0  0  0  0  0  0  0  0  0
  139.9030   73.6990  222.3410 N   0  0  0  0  0  0  0  0  0  0  0  0
  140.5620   72.4220  222.4020 C   0  0  0  0  0  0  0  0  0  0  0  0
  141.2930   72.1200  221.4220 O   0  0  0  0  0  0  0  0  0  0  0  0
  140.3680   71.5500  223.5560 C   0  0  0  0  0  0  0  0  0  0  0  0
  139.7280   70.3430  223.3380 C   0  0  0  0  0  0  0  0  0  0  0  0
  139.5200   69.4780  224.4060 C   0  0  0  0  0  0  0  0  0  0  0  0
  139.9660   69.8610  225.6560 C   0  0  0  0  0  0  0  0  0  0  0  0
  139.7500   68.9940  226.6930 C   0  0  0  0  0  0  0  0  0  0  0  0
  140.1930   69.3630  227.9620 C   0  0  0  0  0  0  0  0  0  0  0  0
  139.9960   68.5310  228.9990 F   0  0  0  0  0  0  0  0  0  0  0  0
  140.8260   70.5780  228.1270 C   0  0  0  0  0  0  0  0  0  0  0  0
  141.0500   71.4610  227.0910 C   0  0  0  0  0  0  0  0  0  0  0  0
  140.6020   71.0790  225.8290 C   0  0  0  0  0  0  0  0  0  0  0  0
  140.7940   71.9040  224.7800 N   0  0  0  0  0  0  0  0  0  0  0  0
  138.8779   80.4016  224.6321 H   0  0  0  0  0  0  0  0  0  0  0  0
  138.6906   81.3432  223.1138 H   0  0  0  0  0  0  0  0  0  0  0  0
  138.3963   79.5711  223.1138 H   0  0  0  0  0  0  0  0  0  0  0  0
  140.9929   81.7880  224.5179 H   0  0  0  0  0  0  0  0  0  0  0  0
  143.4485   81.5229  224.0808 H   0  0  0  0  0  0  0  0  0  0  0  0
  144.2142   79.7339  222.5464 H   0  0  0  0  0  0  0  0  0  0  0  0
  142.5830   78.2136  221.4416 H   0  0  0  0  0  0  0  0  0  0  0  0
  138.9437   78.2680  222.3490 H   0  0  0  0  0  0  0  0  0  0  0  0
  139.6279   78.6515  220.7262 H   0  0  0  0  0  0  0  0  0  0  0  0
  141.3880   76.7360  221.8430 H   0  0  0  0  0  0  0  0  0  0  0  0
  139.7660   73.9514  220.2749 H   0  0  0  0  0  0  0  0  0  0  0  0
  141.2514   74.6278  221.0637 H   0  0  0  0  0  0  0  0  0  0  0  0
  139.2790   74.0320  223.1060 H   0  0  0  0  0  0  0  0  0  0  0  0
  139.3868   70.0703  222.3285 H   0  0  0  0  0  0  0  0  0  0  0  0
  139.0130   68.5128  224.2595 H   0  0  0  0  0  0  0  0  0  0  0  0
  139.2409   68.0327  226.5294 H   0  0  0  0  0  0  0  0  0  0  0  0
  141.1690   70.8562  229.1344 H   0  0  0  0  0  0  0  0  0  0  0  0
  141.5590   72.4224  227.2543 H   0  0  0  0  0  0  0  0  0  0  0  0
  1  2  1  0
  2  3  2  0
  3  4  1  0
  4  5  2  0
  5  6  1  0
  6  7  2  0
  7  8  1  0
  8  9  1  0
  9 10  1  0
 10 11  2  0
 10 12  1  0
 12 13  1  0
 13 14  1  0
 14 15  2  0
 14 16  1  0
 16 17  2  0
 17 18  1  0
 18 19  2  0
 19 20  1  0
 20 21  2  0
 21 22  1  0
 21 23  1  0
 23 24  2  0
 24 25  1  0
 25 26  2  0
  7  2  1  0
 26 16  1  0
 25 19  1  0
  1 27  1  0
  1 28  1  0
  1 29  1  0
  3 30  1  0
  4 31  1  0
  5 32  1  0
  6 33  1  0
  8 34  1  0
  8 35  1  0
  9 36  1  0
 12 37  1  0
 12 38  1  0
 13 39  1  0
 17 40  1  0
 18 41  1  0
 20 42  1  0
 23 43  1  0
 24 44  1  0
M  END
>  <smiles>  (27) 
Cc1ccccc1CNC(=O)CNC(=O)c1ccc2cc(F)ccc2n1

>  <score_type>  (27) 
oracle

>  <origin>  (27) 
autodockgpu

>  <m_score__min__energy>  (27) 
-8.6199999999999992

>  <m_primary>  (27) 
energy

>  <rmsd>  (27) 
3.105335683679888

>  <m_score__min__rmsd>  (27) 
3.105335683679888

>  <meeko>  (27) 
{"free_energy": -8.57, "intermolecular_energy": -10.07, "internal_energy": -0.78, "cluster_size": 15, "cluster_id": 1, "rank_in_cluster": 3}

>  <energy>  (27) 
-8.48

>  <cluster_rmsd>  (27) 
1.04

>  <cluster>  (27) 
2

$$$$

     RDKit          3D

 44 46  0  0  0  0  0  0  0  0999 V2000
  142.5890   79.3980  222.7400 C   0  0  0  0  0  0  0  0  0  0  0  0
  141.1090   79.3340  222.7660 C   0  0  0  0  0  0  0  0  0  0  0  0
  140.4880   80.0020  223.8280 C   0  0  0  0  0  0  0  0  0  0  0  0
  139.0950   80.0000  223.9390 C   0  0  0  0  0  0  0  0  0  0  0  0
  138.3570   79.3300  222.9860 C   0  0  0  0  0  0  0  0  0  0  0  0
  138.9740   78.6620  221.9250 C   0  0  0  0  0  0  0  0  0  0  0  0
  140.3560   78.6680  221.8220 C   0  0  0  0  0  0  0  0  0  0  0  0
  141.0670   77.9760  220.7170 C   0  0  0  0  0  0  0  0  0  0  0  0
  140.4850   76.6620  220.4880 N   0  0  0  0  0  0  0  0  0  0  0  0
  140.3930   75.7060  221.5340 C   0  0  0  0  0  0  0  0  0  0  0  0
  140.8070   75.9480  222.7010 O   0  0  0  0  0  0  0  0  0  0  0  0
  139.7710   74.3870  221.1700 C   0  0  0  0  0  0  0  0  0  0  0  0
  139.5090   73.5770  222.3440 N   0  0  0  0  0  0  0  0  0  0  0  0
  140.3730   72.4410  222.5260 C   0  0  0  0  0  0  0  0  0  0  0  0
  141.2640   72.2680  221.6520 O   0  0  0  0  0  0  0  0  0  0  0  0
  140.1960   71.5590  223.6740 C   0  0  0  0  0  0  0  0  0  0  0  0
  139.4960   70.3840  223.4690 C   0  0  0  0  0  0  0  0  0  0  0  0
  139.3010   69.5100  224.5320 C   0  0  0  0  0  0  0  0  0  0  0  0
  139.8200   69.8530  225.7650 C   0  0  0  0  0  0  0  0  0  0  0  0
  139.6160   68.9780  226.7980 C   0  0  0  0  0  0  0  0  0  0  0  0
  140.1310   69.3080  228.0510 C   0  0  0  0  0  0  0  0  0  0  0  0
  139.9470   68.4670  229.0840 F   0  0  0  0  0  0  0  0  0  0  0  0
  140.8230   70.4920  228.2040 C   0  0  0  0  0  0  0  0  0  0  0  0
  141.0350   71.3830  227.1710 C   0  0  0  0  0  0  0  0  0  0  0  0
  140.5140   71.0400  225.9270 C   0  0  0  0  0  0  0  0  0  0  0  0
  140.6930   71.8740  224.8820 N   0  0  0  0  0  0  0  0  0  0  0  0
  142.9735   79.4146  223.7705 H   0  0  0  0  0  0  0  0  0  0  0  0
  142.9850   78.5161  222.2151 H   0  0  0  0  0  0  0  0  0  0  0  0
  142.9074   80.3108  222.2151 H   0  0  0  0  0  0  0  0  0  0  0  0
  141.0977   80.5294  224.5765 H   0  0  0  0  0  0  0  0  0  0  0  0
  138.5974   80.5221  224.7695 H   0  0  0  0  0  0  0  0  0  0  0  0
  137.2597   79.3212  223.0626 H   0  0  0  0  0  0  0  0  0  0  0  0
  138.3660   78.1342  221.1755 H   0  0  0  0  0  0  0  0  0  0  0  0
  140.9820   78.5757  219.7988 H   0  0  0  0  0  0  0  0  0  0  0  0
  142.1254   77.8561  220.9916 H   0  0  0  0  0  0  0  0  0  0  0  0
  140.1270   76.4300  219.5150 H   0  0  0  0  0  0  0  0  0  0  0  0
  138.8220   74.5727  220.6456 H   0  0  0  0  0  0  0  0  0  0  0  0
  140.4760   73.8408  220.5261 H   0  0  0  0  0  0  0  0  0  0  0  0
  138.7440   73.7970  223.0170 H   0  0  0  0  0  0  0  0  0  0  0  0
  139.0968   70.1431  222.4727 H   0  0  0  0  0  0  0  0  0  0  0  0
  138.7475   68.5693  224.3947 H   0  0  0  0  0  0  0  0  0  0  0  0
  139.0612   68.0407  226.6438 H   0  0  0  0  0  0  0  0  0  0  0  0
  141.2254   70.7379  229.1978 H   0  0  0  0  0  0  0  0  0  0  0  0
  141.5899   72.3204  227.3241 H   0  0  0  0  0  0  0  0  0  0  0  0
  1  2  1  0
  2  3  2  0
  3  4  1  0
  4  5  2  0
  5  6  1  0
  6  7  2  0
  7  8  1  0
  8  9  1  0
  9 10  1  0
 10 11  2  0
 10 12  1  0
 12 13  1  0
 13 14  1  0
 14 15  2  0
 14 16  1  0
 16 17  2  0
 17 18  1  0
 18 19  2  0
 19 20  1  0
 20 21  2  0
 21 22  1  0
 21 23  1  0
 23 24  2  0
 24 25  1  0
 25 26  2  0
  7  2  1  0
 26 16  1  0
 25 19  1  0
  1 27  1  0
  1 28  1  0
  1 29  1  0
  3 30  1  0
  4 31  1  0
  5 32  1  0
  6 33  1  0
  8 34  1  0
  8 35  1  0
  9 36  1  0
 12 37  1  0
 12 38  1  0
 13 39  1  0
 17 40  1  0
 18 41  1  0
 20 42  1  0
 23 43  1  0
 24 44  1  0
M  END
>  <smiles>  (28) 
Cc1ccccc1CNC(=O)CNC(=O)c1ccc2cc(F)ccc2n1

>  <score_type>  (28) 
oracle

>  <origin>  (28) 
autodockgpu

>  <m_score__min__energy>  (28) 
-8.6199999999999992

>  <m_primary>  (28) 
energy

>  <rmsd>  (28) 
2.912636659232721

>  <m_score__min__rmsd>  (28) 
2.912636659232721

>  <meeko>  (28) 
{"free_energy": -7.95, "intermolecular_energy": -9.44, "internal_energy": -0.97, "cluster_size": 15, "cluster_id": 1, "rank_in_cluster": 14}

>  <energy>  (28) 
-8.4

>  <cluster_rmsd>  (28) 
0.57

>  <cluster>  (28) 
2

$$$$

     RDKit          3D

 44 46  0  0  0  0  0  0  0  0999 V2000
  140.2300   68.2930  227.8680 C   0  0  0  0  0  0  0  0  0  0  0  0
  140.5800   69.6450  227.3720 C   0  0  0  0  0  0  0  0  0  0  0  0
  141.0490   70.5450  228.3360 C   0  0  0  0  0  0  0  0  0  0  0  0
  141.4060   71.8440  227.9660 C   0  0  0  0  0  0  0  0  0  0  0  0
  141.2860   72.2120  226.6430 C   0  0  0  0  0  0  0  0  0  0  0  0
  140.8170   71.3160  225.6780 C   0  0  0  0  0  0  0  0  0  0  0  0
  140.4650   70.0290  226.0530 C   0  0  0  0  0  0  0  0  0  0  0  0
  139.9620   69.0330  225.0730 C   0  0  0  0  0  0  0  0  0  0  0  0
  139.3720   69.7080  223.9260 N   0  0  0  0  0  0  0  0  0  0  0  0
  138.0370   70.1920  223.9650 C   0  0  0  0  0  0  0  0  0  0  0  0
  137.3070   70.0630  224.9860 O   0  0  0  0  0  0  0  0  0  0  0  0
  137.5450   70.8710  222.7180 C   0  0  0  0  0  0  0  0  0  0  0  0
  137.9990   72.2470  222.6430 N   0  0  0  0  0  0  0  0  0  0  0  0
  139.2760   72.4500  222.0130 C   0  0  0  0  0  0  0  0  0  0  0  0
  139.8660   71.4190  221.5940 O   0  0  0  0  0  0  0  0  0  0  0  0
  139.8260   73.7960  221.8850 C   0  0  0  0  0  0  0  0  0  0  0  0
  141.0600   73.9210  221.2740 C   0  0  0  0  0  0  0  0  0  0  0  0
  141.6260   75.1820  221.1280 C   0  0  0  0  0  0  0  0  0  0  0  0
  140.9260   76.2720  221.6050 C   0  0  0  0  0  0  0  0  0  0  0  0
  141.5020   77.5050  221.4510 C   0  0  0  0  0  0  0  0  0  0  0  0
  140.8100   78.6180  221.9260 C   0  0  0  0  0  0  0  0  0  0  0  0
  141.3510   79.8410  221.7880 F   0  0  0  0  0  0  0  0  0  0  0  0
  139.5810   78.4410  222.5280 C   0  0  0  0  0  0  0  0  0  0  0  0
  138.9890   77.2040  222.6900 C   0  0  0  0  0  0  0  0  0  0  0  0
  139.6920   76.1020  222.2100 C   0  0  0  0  0  0  0  0  0  0  0  0
  139.1610   74.8700  222.3420 N   0  0  0  0  0  0  0  0  0  0  0  0
  140.2304   68.2945  228.9680 H   0  0  0  0  0  0  0  0  0  0  0  0
  139.2304   68.0156  227.5021 H   0  0  0  0  0  0  0  0  0  0  0  0
  140.9694   67.5654  227.5021 H   0  0  0  0  0  0  0  0  0  0  0  0
  141.1366   70.2291  229.3860 H   0  0  0  0  0  0  0  0  0  0  0  0
  141.7756   72.5591  228.7157 H   0  0  0  0  0  0  0  0  0  0  0  0
  141.5651   73.2320  226.3403 H   0  0  0  0  0  0  0  0  0  0  0  0
  140.7279   71.6304  224.6277 H   0  0  0  0  0  0  0  0  0  0  0  0
  140.7978   68.4036  224.7335 H   0  0  0  0  0  0  0  0  0  0  0  0
  139.1945   68.4107  225.5564 H   0  0  0  0  0  0  0  0  0  0  0  0
  139.9630   69.8310  223.0520 H   0  0  0  0  0  0  0  0  0  0  0  0
  137.9209   70.3230  221.8414 H   0  0  0  0  0  0  0  0  0  0  0  0
  136.4452   70.8728  222.7390 H   0  0  0  0  0  0  0  0  0  0  0  0
  137.4400   73.0420  223.0200 H   0  0  0  0  0  0  0  0  0  0  0  0
  141.5895   73.0297  220.9064 H   0  0  0  0  0  0  0  0  0  0  0  0
  142.6062   75.3081  220.6450 H   0  0  0  0  0  0  0  0  0  0  0  0
  142.4833   77.6140  220.9660 H   0  0  0  0  0  0  0  0  0  0  0  0
  139.0466   79.3289  222.8970 H   0  0  0  0  0  0  0  0  0  0  0  0
  138.0080   77.0943  223.1755 H   0  0  0  0  0  0  0  0  0  0  0  0
  1  2  1  0
  2  3  2  0
  3  4  1  0
  4  5  2  0
  5  6  1  0
  6  7  2  0
  7  8  1  0
  8  9  1  0
  9 10  1  0
 10 11  2  0
 10 12  1  0
 12 13  1  0
 13 14  1  0
 14 15  2  0
 14 16  1  0
 16 17  2  0
 17 18  1  0
 18 19  2  0
 19 20  1  0
 20 21  2  0
 21 22  1  0
 21 23  1  0
 23 24  2  0
 24 25  1  0
 25 26  2  0
  7  2  1  0
 26 16  1  0
 25 19  1  0
  1 27  1  0
  1 28  1  0
  1 29  1  0
  3 30  1  0
  4 31  1  0
  5 32  1  0
  6 33  1  0
  8 34  1  0
  8 35  1  0
  9 36  1  0
 12 37  1  0
 12 38  1  0
 13 39  1  0
 17 40  1  0
 18 41  1  0
 20 42  1  0
 23 43  1  0
 24 44  1  0
M  END
>  <smiles>  (29) 
Cc1ccccc1CNC(=O)CNC(=O)c1ccc2cc(F)ccc2n1

>  <score_type>  (29) 
oracle

>  <origin>  (29) 
autodockgpu

>  <m_score__min__energy>  (29) 
-8.6199999999999992

>  <m_primary>  (29) 
energy

>  <rmsd>  (29) 
7.844349566038399

>  <m_score__min__rmsd>  (29) 
7.844349566038399

>  <meeko>  (29) 
{"free_energy": -7.51, "intermolecular_energy": -9.0, "internal_energy": -2.07, "cluster_size": 23, "cluster_id": 2, "rank_in_cluster": 19}

>  <energy>  (29) 
-8.36

>  <cluster_rmsd>  (29) 
0.63

>  <cluster>  (29) 
2

$$$$

     RDKit          3D

 44 46  0  0  0  0  0  0  0  0999 V2000
  141.0270   71.8810  227.6220 C   0  0  0  0  0  0  0  0  0  0  0  0
  140.6300   70.4970  227.2690 C   0  0  0  0  0  0  0  0  0  0  0  0
  140.4690   69.6170  228.3460 C   0  0  0  0  0  0  0  0  0  0  0  0
  140.0950   68.2900  228.1160 C   0  0  0  0  0  0  0  0  0  0  0  0
  139.8900   67.8760  226.8160 C   0  0  0  0  0  0  0  0  0  0  0  0
  140.0510   68.7530  225.7400 C   0  0  0  0  0  0  0  0  0  0  0  0
  140.4220   70.0670  225.9760 C   0  0  0  0  0  0  0  0  0  0  0  0
  140.6070   71.0440  224.8730 C   0  0  0  0  0  0  0  0  0  0  0  0
  139.3650   71.2110  224.1330 N   0  0  0  0  0  0  0  0  0  0  0  0
  139.3320   71.9200  222.9040 C   0  0  0  0  0  0  0  0  0  0  0  0
  140.3670   72.4340  222.3980 O   0  0  0  0  0  0  0  0  0  0  0  0
  137.9890   72.0230  222.2370 C   0  0  0  0  0  0  0  0  0  0  0  0
  137.0240   72.7060  223.0790 N   0  0  0  0  0  0  0  0  0  0  0  0
  136.2120   71.8600  223.9120 C   0  0  0  0  0  0  0  0  0  0  0  0
  136.4200   70.6210  223.8260 O   0  0  0  0  0  0  0  0  0  0  0  0
  135.2090   72.4450  224.7960 C   0  0  0  0  0  0  0  0  0  0  0  0
  134.3340   71.5770  225.4240 C   0  0  0  0  0  0  0  0  0  0  0  0
  133.3620   72.0860  226.2770 C   0  0  0  0  0  0  0  0  0  0  0  0
  133.3070   73.4530  226.4660 C   0  0  0  0  0  0  0  0  0  0  0  0
  132.3410   73.9320  227.3090 C   0  0  0  0  0  0  0  0  0  0  0  0
  132.2700   75.3100  227.5130 C   0  0  0  0  0  0  0  0  0  0  0  0
  131.3320   75.8090  228.3370 F   0  0  0  0  0  0  0  0  0  0  0  0
  133.1670   76.1330  226.8630 C   0  0  0  0  0  0  0  0  0  0  0  0
  134.1450   75.6630  226.0100 C   0  0  0  0  0  0  0  0  0  0  0  0
  134.2030   74.2860  225.8170 C   0  0  0  0  0  0  0  0  0  0  0  0
  135.1390   73.7720  224.9940 N   0  0  0  0  0  0  0  0  0  0  0  0
  141.0571   71.9859  228.7166 H   0  0  0  0  0  0  0  0  0  0  0  0
  142.0226   72.0944  227.2057 H   0  0  0  0  0  0  0  0  0  0  0  0
  140.2959   72.5896  227.2057 H   0  0  0  0  0  0  0  0  0  0  0  0
  140.6370   69.9703  229.3741 H   0  0  0  0  0  0  0  0  0  0  0  0
  139.9667   67.5898  228.9546 H   0  0  0  0  0  0  0  0  0  0  0  0
  139.5938   66.8344  226.6225 H   0  0  0  0  0  0  0  0  0  0  0  0
  139.8841   68.4020  224.7110 H   0  0  0  0  0  0  0  0  0  0  0  0
  140.9117   72.0134  225.2942 H   0  0  0  0  0  0  0  0  0  0  0  0
  141.3833   70.6695  224.1896 H   0  0  0  0  0  0  0  0  0  0  0  0
  138.4760   70.7890  224.5350 H   0  0  0  0  0  0  0  0  0  0  0  0
  138.0999   72.5817  221.2960 H   0  0  0  0  0  0  0  0  0  0  0  0
  137.6200   71.0040  222.0484 H   0  0  0  0  0  0  0  0  0  0  0  0
  136.9210   73.7430  223.0830 H   0  0  0  0  0  0  0  0  0  0  0  0
  134.4069   70.4933  225.2498 H   0  0  0  0  0  0  0  0  0  0  0  0
  132.6544   71.4170  226.7886 H   0  0  0  0  0  0  0  0  0  0  0  0
  131.6401   73.2493  227.8117 H   0  0  0  0  0  0  0  0  0  0  0  0
  133.0992   77.2176  227.0332 H   0  0  0  0  0  0  0  0  0  0  0  0
  134.8458   76.3450  225.5063 H   0  0  0  0  0  0  0  0  0  0  0  0
  1  2  1  0
  2  3  2  0
  3  4  1  0
  4  5  2  0
  5  6  1  0
  6  7  2  0
  7  8  1  0
  8  9  1  0
  9 10  1  0
 10 11  2  0
 10 12  1  0
 12 13  1  0
 13 14  1  0
 14 15  2  0
 14 16  1  0
 16 17  2  0
 17 18  1  0
 18 19  2  0
 19 20  1  0
 20 21  2  0
 21 22  1  0
 21 23  1  0
 23 24  2  0
 24 25  1  0
 25 26  2  0
  7  2  1  0
 26 16  1  0
 25 19  1  0
  1 27  1  0
  1 28  1  0
  1 29  1  0
  3 30  1  0
  4 31  1  0
  5 32  1  0
  6 33  1  0
  8 34  1  0
  8 35  1  0
  9 36  1  0
 12 37  1  0
 12 38  1  0
 13 39  1  0
 17 40  1  0
 18 41  1  0
 20 42  1  0
 23 43  1  0
 24 44  1  0
M  END
>  <smiles>  (30) 
Cc1ccccc1CNC(=O)CNC(=O)c1ccc2cc(F)ccc2n1

>  <score_type>  (30) 
oracle

>  <origin>  (30) 
autodockgpu

>  <m_score__min__energy>  (30) 
-8.6199999999999992

>  <m_primary>  (30) 
energy

>  <rmsd>  (30) 
7.889463312380317

>  <m_score__min__rmsd>  (30) 
7.889463312380317

>  <meeko>  (30) 
{"free_energy": -7.67, "intermolecular_energy": -9.16, "internal_energy": -1.83, "cluster_size": 4, "cluster_id": 4, "rank_in_cluster": 2}

>  <energy>  (30) 
-8.27

>  <cluster_rmsd>  (30) 
1.33

>  <cluster>  (30) 
2

$$$$

     RDKit          3D

 44 46  0  0  0  0  0  0  0  0999 V2000
  141.1410   72.2230  227.3220 C   0  0  0  0  0  0  0  0  0  0  0  0
  140.6320   70.8380  227.1800 C   0  0  0  0  0  0  0  0  0  0  0  0
  140.0960   70.2640  228.3390 C   0  0  0  0  0  0  0  0  0  0  0  0
  139.5910   68.9620  228.3060 C   0  0  0  0  0  0  0  0  0  0  0  0
  139.6330   68.2660  227.1170 C   0  0  0  0  0  0  0  0  0  0  0  0
  140.1680   68.8360  225.9580 C   0  0  0  0  0  0  0  0  0  0  0  0
  140.6680   70.1280  225.9990 C   0  0  0  0  0  0  0  0  0  0  0  0
  141.2480   70.7860  224.8010 C   0  0  0  0  0  0  0  0  0  0  0  0
  140.2450   71.6130  224.1440 N   0  0  0  0  0  0  0  0  0  0  0  0
  140.3470   71.9330  222.7640 C   0  0  0  0  0  0  0  0  0  0  0  0
  141.3000   71.5200  222.0480 O   0  0  0  0  0  0  0  0  0  0  0  0
  139.2490   72.7920  222.2040 C   0  0  0  0  0  0  0  0  0  0  0  0
  139.5480   74.2050  222.3480 N   0  0  0  0  0  0  0  0  0  0  0  0
  140.5500   74.7250  221.4570 C   0  0  0  0  0  0  0  0  0  0  0  0
  141.0610   73.9070  220.6480 O   0  0  0  0  0  0  0  0  0  0  0  0
  140.9270   76.1340  221.5180 C   0  0  0  0  0  0  0  0  0  0  0  0
  141.4890   76.6890  220.3830 C   0  0  0  0  0  0  0  0  0  0  0  0
  141.8640   78.0280  220.3920 C   0  0  0  0  0  0  0  0  0  0  0  0
  141.6590   78.7570  221.5460 C   0  0  0  0  0  0  0  0  0  0  0  0
  142.0370   80.0730  221.5320 C   0  0  0  0  0  0  0  0  0  0  0  0
  141.8380   80.8270  222.6890 C   0  0  0  0  0  0  0  0  0  0  0  0
  142.1990   82.1220  222.7040 F   0  0  0  0  0  0  0  0  0  0  0  0
  141.2740   80.2260  223.7950 C   0  0  0  0  0  0  0  0  0  0  0  0
  140.8890   78.9010  223.8220 C   0  0  0  0  0  0  0  0  0  0  0  0
  141.0930   78.1610  222.6600 C   0  0  0  0  0  0  0  0  0  0  0  0
  140.7360   76.8620  222.6310 N   0  0  0  0  0  0  0  0  0  0  0  0
  141.2326   72.4723  228.3895 H   0  0  0  0  0  0  0  0  0  0  0  0
  142.1271   72.3024  226.8410 H   0  0  0  0  0  0  0  0  0  0  0  0
  140.4410   72.9220  226.8410 H   0  0  0  0  0  0  0  0  0  0  0  0
  140.0725   70.8389  229.2765 H   0  0  0  0  0  0  0  0  0  0  0  0
  139.1682   68.5013  229.2110 H   0  0  0  0  0  0  0  0  0  0  0  0
  139.2372   67.2404  227.0793 H   0  0  0  0  0  0  0  0  0  0  0  0
  140.1920   68.2627  225.0195 H   0  0  0  0  0  0  0  0  0  0  0  0
  142.0948   71.4175  225.1079 H   0  0  0  0  0  0  0  0  0  0  0  0
  141.5906   70.0124  224.0981 H   0  0  0  0  0  0  0  0  0  0  0  0
  139.4300   71.9740  224.7210 H   0  0  0  0  0  0  0  0  0  0  0  0
  139.1248   72.5607  221.1358 H   0  0  0  0  0  0  0  0  0  0  0  0
  138.3262   72.5775  222.7630 H   0  0  0  0  0  0  0  0  0  0  0  0
  139.0720   74.8090  223.0510 H   0  0  0  0  0  0  0  0  0  0  0  0
  141.6380   76.0769  219.4813 H   0  0  0  0  0  0  0  0  0  0  0  0
  142.3125   78.4943  219.5023 H   0  0  0  0  0  0  0  0  0  0  0  0
  142.4850   80.5231  220.6338 H   0  0  0  0  0  0  0  0  0  0  0  0
  141.1237   80.8327  224.7001 H   0  0  0  0  0  0  0  0  0  0  0  0
  140.4416   78.4501  224.7201 H   0  0  0  0  0  0  0  0  0  0  0  0
  1  2  1  0
  2  3  2  0
  3  4  1  0
  4  5  2  0
  5  6  1  0
  6  7  2  0
  7  8  1  0
  8  9  1  0
  9 10  1  0
 10 11  2  0
 10 12  1  0
 12 13  1  0
 13 14  1  0
 14 15  2  0
 14 16  1  0
 16 17  2  0
 17 18  1  0
 18 19  2  0
 19 20  1  0
 20 21  2  0
 21 22  1  0
 21 23  1  0
 23 24  2  0
 24 25  1  0
 25 26  2  0
  7  2  1  0
 26 16  1  0
 25 19  1  0
  1 27  1  0
  1 28  1  0
  1 29  1  0
  3 30  1  0
  4 31  1  0
  5 32  1  0
  6 33  1  0
  8 34  1  0
  8 35  1  0
  9 36  1  0
 12 37  1  0
 12 38  1  0
 13 39  1  0
 17 40  1  0
 18 41  1  0
 20 42  1  0
 23 43  1  0
 24 44  1  0
M  END
>  <smiles>  (31) 
Cc1ccccc1CNC(=O)CNC(=O)c1ccc2cc(F)ccc2n1

>  <score_type>  (31) 
oracle

>  <origin>  (31) 
autodockgpu

>  <m_score__min__energy>  (31) 
-8.6199999999999992

>  <m_primary>  (31) 
energy

>  <rmsd>  (31) 
9.014623042249362

>  <m_score__min__rmsd>  (31) 
9.014623042249362

>  <meeko>  (31) 
{"free_energy": -8.5, "intermolecular_energy": -9.99, "internal_energy": -0.98, "cluster_size": 23, "cluster_id": 2, "rank_in_cluster": 10}

>  <energy>  (31) 
-8.22

>  <cluster_rmsd>  (31) 
0.95

>  <cluster>  (31) 
2

$$$$

     RDKit          3D

 44 46  0  0  0  0  0  0  0  0999 V2000
  139.9460   68.1550  227.8420 C   0  0  0  0  0  0  0  0  0  0  0  0
  140.3110   69.5030  227.3460 C   0  0  0  0  0  0  0  0  0  0  0  0
  140.8380   70.3810  228.3000 C   0  0  0  0  0  0  0  0  0  0  0  0
  141.2130   71.6750  227.9290 C   0  0  0  0  0  0  0  0  0  0  0  0
  141.0520   72.0590  226.6150 C   0  0  0  0  0  0  0  0  0  0  0  0
  140.5250   71.1850  225.6600 C   0  0  0  0  0  0  0  0  0  0  0  0
  140.1550   69.9030  226.0360 C   0  0  0  0  0  0  0  0  0  0  0  0
  139.5900   68.9300  225.0660 C   0  0  0  0  0  0  0  0  0  0  0  0
  138.1400   68.8880  225.1810 N   0  0  0  0  0  0  0  0  0  0  0  0
  137.3280   69.9000  224.6060 C   0  0  0  0  0  0  0  0  0  0  0  0
  137.8190   70.8760  223.9750 O   0  0  0  0  0  0  0  0  0  0  0  0
  135.8450   69.7410  224.7920 C   0  0  0  0  0  0  0  0  0  0  0  0
  135.2110   70.9990  225.1440 N   0  0  0  0  0  0  0  0  0  0  0  0
  134.1600   70.9160  226.1220 C   0  0  0  0  0  0  0  0  0  0  0  0
  133.8990   69.7680  226.5710 O   0  0  0  0  0  0  0  0  0  0  0  0
  133.4560   72.1210  226.5470 C   0  0  0  0  0  0  0  0  0  0  0  0
  132.2420   71.9540  227.1880 C   0  0  0  0  0  0  0  0  0  0  0  0
  131.5340   73.0720  227.6130 C   0  0  0  0  0  0  0  0  0  0  0  0
  132.0760   74.3200  227.3750 C   0  0  0  0  0  0  0  0  0  0  0  0
  131.3610   75.4070  227.8010 C   0  0  0  0  0  0  0  0  0  0  0  0
  131.8920   76.6750  227.5700 C   0  0  0  0  0  0  0  0  0  0  0  0
  131.2120   77.7610  227.9780 F   0  0  0  0  0  0  0  0  0  0  0  0
  133.1070   76.7890  226.9260 C   0  0  0  0  0  0  0  0  0  0  0  0
  133.8380   75.7020  226.4920 C   0  0  0  0  0  0  0  0  0  0  0  0
  133.2950   74.4420  226.7300 C   0  0  0  0  0  0  0  0  0  0  0  0
  133.9660   73.3450  226.3260 N   0  0  0  0  0  0  0  0  0  0  0  0
  139.9464   68.1565  228.9420 H   0  0  0  0  0  0  0  0  0  0  0  0
  138.9434   67.8887  227.4761 H   0  0  0  0  0  0  0  0  0  0  0  0
  140.6773   67.4192  227.4761 H   0  0  0  0  0  0  0  0  0  0  0  0
  140.9571   70.0521  229.3429 H   0  0  0  0  0  0  0  0  0  0  0  0
  141.6283   72.3732  228.6707 H   0  0  0  0  0  0  0  0  0  0  0  0
  141.3445   73.0750  226.3115 H   0  0  0  0  0  0  0  0  0  0  0  0
  140.4046   71.5123  224.6168 H   0  0  0  0  0  0  0  0  0  0  0  0
  139.8646   69.2339  224.0451 H   0  0  0  0  0  0  0  0  0  0  0  0
  139.9957   67.9309  225.2831 H   0  0  0  0  0  0  0  0  0  0  0  0
  137.6980   68.0770  225.7060 H   0  0  0  0  0  0  0  0  0  0  0  0
  135.4056   69.3703  223.8542 H   0  0  0  0  0  0  0  0  0  0  0  0
  135.6763   69.0297  225.6139 H   0  0  0  0  0  0  0  0  0  0  0  0
  135.4950   71.9070  224.7180 H   0  0  0  0  0  0  0  0  0  0  0  0
  131.8400   70.9446  227.3601 H   0  0  0  0  0  0  0  0  0  0  0  0
  130.5667   72.9657  228.1258 H   0  0  0  0  0  0  0  0  0  0  0  0
  130.3944   75.2832  228.3113 H   0  0  0  0  0  0  0  0  0  0  0  0
  133.5129   77.7961  226.7498 H   0  0  0  0  0  0  0  0  0  0  0  0
  134.8047   75.8251  225.9818 H   0  0  0  0  0  0  0  0  0  0  0  0
  1  2  1  0
  2  3  2  0
  3  4  1  0
  4  5  2  0
  5  6  1  0
  6  7  2  0
  7  8  1  0
  8  9  1  0
  9 10  1  0
 10 11  2  0
 10 12  1  0
 12 13  1  0
 13 14  1  0
 14 15  2  0
 14 16  1  0
 16 17  2  0
 17 18  1  0
 18 19  2  0
 19 20  1  0
 20 21  2  0
 21 22  1  0
 21 23  1  0
 23 24  2  0
 24 25  1  0
 25 26  2  0
  7  2  1  0
 26 16  1  0
 25 19  1  0
  1 27  1  0
  1 28  1  0
  1 29  1  0
  3 30  1  0
  4 31  1  0
  5 32  1  0
  6 33  1  0
  8 34  1  0
  8 35  1  0
  9 36  1  0
 12 37  1  0
 12 38  1  0
 13 39  1  0
 17 40  1  0
 18 41  1  0
 20 42  1  0
 23 43  1  0
 24 44  1  0
M  END
>  <smiles>  (32) 
Cc1ccccc1CNC(=O)CNC(=O)c1ccc2cc(F)ccc2n1

>  <score_type>  (32) 
oracle

>  <origin>  (32) 
autodockgpu

>  <m_score__min__energy>  (32) 
-8.6199999999999992

>  <m_primary>  (32) 
energy

>  <rmsd>  (32) 
8.728983553290215

>  <m_score__min__rmsd>  (32) 
8.728983553290215

>  <meeko>  (32) 
{"free_energy": -8.09, "intermolecular_energy": -9.58, "internal_energy": -1.26, "cluster_size": 8, "cluster_id": 3, "rank_in_cluster": 3}

>  <energy>  (32) 
-8.14

>  <cluster_rmsd>  (32) 
0.81

>  <cluster>  (32) 
2

$$$$

     RDKit          3D

 44 46  0  0  0  0  0  0  0  0999 V2000
  141.7470   80.4670  220.0650 C   0  0  0  0  0  0  0  0  0  0  0  0
  141.7090   79.9610  221.4580 C   0  0  0  0  0  0  0  0  0  0  0  0
  142.6360   80.5300  222.3390 C   0  0  0  0  0  0  0  0  0  0  0  0
  142.6770   80.1190  223.6740 C   0  0  0  0  0  0  0  0  0  0  0  0
  141.7910   79.1510  224.0960 C   0  0  0  0  0  0  0  0  0  0  0  0
  140.8650   78.5810  223.2180 C   0  0  0  0  0  0  0  0  0  0  0  0
  140.8300   78.9930  221.8960 C   0  0  0  0  0  0  0  0  0  0  0  0
  139.8680   78.4240  220.9180 C   0  0  0  0  0  0  0  0  0  0  0  0
  140.1360   77.0080  220.7110 N   0  0  0  0  0  0  0  0  0  0  0  0
  139.5040   76.0170  221.5070 C   0  0  0  0  0  0  0  0  0  0  0  0
  138.6880   76.3110  222.4230 O   0  0  0  0  0  0  0  0  0  0  0  0
  139.8640   74.5920  221.1940 C   0  0  0  0  0  0  0  0  0  0  0  0
  139.5980   73.7130  222.3180 N   0  0  0  0  0  0  0  0  0  0  0  0
  140.4620   72.5670  222.4320 C   0  0  0  0  0  0  0  0  0  0  0  0
  141.3540   72.4460  221.5510 O   0  0  0  0  0  0  0  0  0  0  0  0
  140.2820   71.6180  223.5260 C   0  0  0  0  0  0  0  0  0  0  0  0
  139.6430   70.4280  223.2340 C   0  0  0  0  0  0  0  0  0  0  0  0
  139.4480   69.4910  224.2420 C   0  0  0  0  0  0  0  0  0  0  0  0
  139.9050   69.7900  225.5100 C   0  0  0  0  0  0  0  0  0  0  0  0
  139.7020   68.8530  226.4880 C   0  0  0  0  0  0  0  0  0  0  0  0
  140.1570   69.1370  227.7750 C   0  0  0  0  0  0  0  0  0  0  0  0
  139.9720   68.2350  228.7550 F   0  0  0  0  0  0  0  0  0  0  0  0
  140.7890   70.3400  228.0160 C   0  0  0  0  0  0  0  0  0  0  0  0
  140.9990   71.2920  227.0400 C   0  0  0  0  0  0  0  0  0  0  0  0
  140.5400   70.9950  225.7600 C   0  0  0  0  0  0  0  0  0  0  0  0
  140.7190   71.8900  224.7670 N   0  0  0  0  0  0  0  0  0  0  0  0
  141.8294   81.5639  220.0755 H   0  0  0  0  0  0  0  0  0  0  0  0
  142.6155   80.0390  219.5430 H   0  0  0  0  0  0  0  0  0  0  0  0
  140.8243   80.1735  219.5430 H   0  0  0  0  0  0  0  0  0  0  0  0
  143.3330   81.3016  221.9801 H   0  0  0  0  0  0  0  0  0  0  0  0
  143.4020   80.5593  224.3743 H   0  0  0  0  0  0  0  0  0  0  0  0
  141.8132   78.8205  225.1449 H   0  0  0  0  0  0  0  0  0  0  0  0
  140.1674   77.8090  223.5750 H   0  0  0  0  0  0  0  0  0  0  0  0
  138.8446   78.5473  221.3019 H   0  0  0  0  0  0  0  0  0  0  0  0
  139.9772   78.9527  219.9596 H   0  0  0  0  0  0  0  0  0  0  0  0
  140.8190   76.7290  219.9470 H   0  0  0  0  0  0  0  0  0  0  0  0
  139.2715   74.2559  220.3303 H   0  0  0  0  0  0  0  0  0  0  0  0
  140.9407   74.5504  220.9728 H   0  0  0  0  0  0  0  0  0  0  0  0
  138.8330   73.8930  223.0010 H   0  0  0  0  0  0  0  0  0  0  0  0
  139.2914   70.2239  222.2119 H   0  0  0  0  0  0  0  0  0  0  0  0
  138.9427   68.5361  224.0348 H   0  0  0  0  0  0  0  0  0  0  0  0
  139.1943   67.9031  226.2645 H   0  0  0  0  0  0  0  0  0  0  0  0
  141.1426   70.5500  229.0363 H   0  0  0  0  0  0  0  0  0  0  0  0
  141.5060   72.2424  227.2631 H   0  0  0  0  0  0  0  0  0  0  0  0
  1  2  1  0
  2  3  2  0
  3  4  1  0
  4  5  2  0
  5  6  1  0
  6  7  2  0
  7  8  1  0
  8  9  1  0
  9 10  1  0
 10 11  2  0
 10 12  1  0
 12 13  1  0
 13 14  1  0
 14 15  2  0
 14 16  1  0
 16 17  2  0
 17 18  1  0
 18 19  2  0
 19 20  1  0
 20 21  2  0
 21 22  1  0
 21 23  1  0
 23 24  2  0
 24 25  1  0
 25 26  2  0
  7  2  1  0
 26 16  1  0
 25 19  1  0
  1 27  1  0
  1 28  1  0
  1 29  1  0
  3 30  1  0
  4 31  1  0
  5 32  1  0
  6 33  1  0
  8 34  1  0
  8 35  1  0
  9 36  1  0
 12 37  1  0
 12 38  1  0
 13 39  1  0
 17 40  1  0
 18 41  1  0
 20 42  1  0
 23 43  1  0
 24 44  1  0
M  END
>  <smiles>  (33) 
Cc1ccccc1CNC(=O)CNC(=O)c1ccc2cc(F)ccc2n1

>  <score_type>  (33) 
oracle

>  <origin>  (33) 
autodockgpu

>  <m_score__min__energy>  (33) 
-8.6199999999999992

>  <m_primary>  (33) 
energy

>  <rmsd>  (33) 
3.0170836660412697

>  <m_score__min__rmsd>  (33) 
3.0170836660412697

>  <meeko>  (33) 
{"free_energy": -8.31, "intermolecular_energy": -9.8, "internal_energy": -1.11, "cluster_size": 15, "cluster_id": 1, "rank_in_cluster": 11}

>  <energy>  (33) 
-8.14

>  <cluster_rmsd>  (33) 
1.28

>  <cluster>  (33) 
2

$$$$

     RDKit          3D

 44 46  0  0  0  0  0  0  0  0999 V2000
  141.0120   70.8600  224.7200 C   0  0  0  0  0  0  0  0  0  0  0  0
  140.4940   70.7800  226.1060 C   0  0  0  0  0  0  0  0  0  0  0  0
  140.8110   71.8600  226.9390 C   0  0  0  0  0  0  0  0  0  0  0  0
  140.3670   71.8770  228.2640 C   0  0  0  0  0  0  0  0  0  0  0  0
  139.6170   70.8160  228.7240 C   0  0  0  0  0  0  0  0  0  0  0  0
  139.2990   69.7370  227.8950 C   0  0  0  0  0  0  0  0  0  0  0  0
  139.7430   69.7270  226.5820 C   0  0  0  0  0  0  0  0  0  0  0  0
  139.4360   68.6080  225.6550 C   0  0  0  0  0  0  0  0  0  0  0  0
  138.2110   68.8840  224.9190 N   0  0  0  0  0  0  0  0  0  0  0  0
  138.2430   69.2290  223.5420 C   0  0  0  0  0  0  0  0  0  0  0  0
  139.3240   69.3130  222.8970 O   0  0  0  0  0  0  0  0  0  0  0  0
  136.9120   69.4890  222.8960 C   0  0  0  0  0  0  0  0  0  0  0  0
  136.1830   70.5440  223.5760 N   0  0  0  0  0  0  0  0  0  0  0  0
  135.3190   70.1170  224.6450 C   0  0  0  0  0  0  0  0  0  0  0  0
  135.2850   68.8800  224.8790 O   0  0  0  0  0  0  0  0  0  0  0  0
  134.5390   71.0960  225.3950 C   0  0  0  0  0  0  0  0  0  0  0  0
  133.6200   70.6110  226.3060 C   0  0  0  0  0  0  0  0  0  0  0  0
  132.8540   71.5050  227.0450 C   0  0  0  0  0  0  0  0  0  0  0  0
  133.0430   72.8570  226.8380 C   0  0  0  0  0  0  0  0  0  0  0  0
  132.2770   73.7180  227.5760 C   0  0  0  0  0  0  0  0  0  0  0  0
  132.4540   75.0880  227.3800 C   0  0  0  0  0  0  0  0  0  0  0  0
  131.7160   75.9580  228.0920 F   0  0  0  0  0  0  0  0  0  0  0  0
  133.3840   75.5220  226.4590 C   0  0  0  0  0  0  0  0  0  0  0  0
  134.1620   74.6630  225.7080 C   0  0  0  0  0  0  0  0  0  0  0  0
  133.9750   73.3000  225.9150 C   0  0  0  0  0  0  0  0  0  0  0  0
  134.7080   72.4160  225.2080 N   0  0  0  0  0  0  0  0  0  0  0  0
  142.0988   71.0279  224.7439 H   0  0  0  0  0  0  0  0  0  0  0  0
  140.7979   69.9181  224.1936 H   0  0  0  0  0  0  0  0  0  0  0  0
  140.5237   71.6934  224.1936 H   0  0  0  0  0  0  0  0  0  0  0  0
  141.4104   72.6963  226.5499 H   0  0  0  0  0  0  0  0  0  0  0  0
  140.6112   72.7204  228.9267 H   0  0  0  0  0  0  0  0  0  0  0  0
  139.2615   70.8187  229.7650 H   0  0  0  0  0  0  0  0  0  0  0  0
  138.6995   68.9000  228.2824 H   0  0  0  0  0  0  0  0  0  0  0  0
  140.2669   68.4870  224.9444 H   0  0  0  0  0  0  0  0  0  0  0  0
  139.3026   67.6855  226.2391 H   0  0  0  0  0  0  0  0  0  0  0  0
  137.2850   68.8210  225.4360 H   0  0  0  0  0  0  0  0  0  0  0  0
  137.0754   69.7858  221.8495 H   0  0  0  0  0  0  0  0  0  0  0  0
  136.3157   68.5665  222.9552 H   0  0  0  0  0  0  0  0  0  0  0  0
  136.2740   71.5470  223.3120 H   0  0  0  0  0  0  0  0  0  0  0  0
  133.4957   69.5269  226.4451 H   0  0  0  0  0  0  0  0  0  0  0  0
  132.1157   71.1444  227.7764 H   0  0  0  0  0  0  0  0  0  0  0  0
  131.5427   73.3407  228.3030 H   0  0  0  0  0  0  0  0  0  0  0  0
  133.5124   76.6050  226.3155 H   0  0  0  0  0  0  0  0  0  0  0  0
  134.8957   75.0391  224.9798 H   0  0  0  0  0  0  0  0  0  0  0  0
  1  2  1  0
  2  3  2  0
  3  4  1  0
  4  5  2  0
  5  6  1  0
  6  7  2  0
  7  8  1  0
  8  9  1  0
  9 10  1  0
 10 11  2  0
 10 12  1  0
 12 13  1  0
 13 14  1  0
 14 15  2  0
 14 16  1  0
 16 17  2  0
 17 18  1  0
 18 19  2  0
 19 20  1  0
 20 21  2  0
 21 22  1  0
 21 23  1  0
 23 24  2  0
 24 25  1  0
 25 26  2  0
  7  2  1  0
 26 16  1  0
 25 19  1  0
  1 27  1  0
  1 28  1  0
  1 29  1  0
  3 30  1  0
  4 31  1  0
  5 32  1  0
  6 33  1  0
  8 34  1  0
  8 35  1  0
  9 36  1  0
 12 37  1  0
 12 38  1  0
 13 39  1  0
 17 40  1  0
 18 41  1  0
 20 42  1  0
 23 43  1  0
 24 44  1  0
M  END
>  <smiles>  (34) 
Cc1ccccc1CNC(=O)CNC(=O)c1ccc2cc(F)ccc2n1

>  <score_type>  (34) 
oracle

>  <origin>  (34) 
autodockgpu

>  <m_score__min__energy>  (34) 
-8.6199999999999992

>  <m_primary>  (34) 
energy

>  <rmsd>  (34) 
8.381347143658045

>  <m_score__min__rmsd>  (34) 
8.381347143658045

>  <meeko>  (34) 
{"free_energy": -7.13, "intermolecular_energy": -8.62, "internal_energy": -1.97, "cluster_size": 8, "cluster_id": 3, "rank_in_cluster": 8}

>  <energy>  (34) 
-7.51

>  <cluster_rmsd>  (34) 
1.86

>  <cluster>  (34) 
2

$$$$

     RDKit          3D

 44 46  0  0  0  0  0  0  0  0999 V2000
  139.5630   68.6720  225.3970 C   0  0  0  0  0  0  0  0  0  0  0  0
  139.8550   69.7470  226.3740 C   0  0  0  0  0  0  0  0  0  0  0  0
  139.3860   69.5310  227.6760 C   0  0  0  0  0  0  0  0  0  0  0  0
  139.6130   70.4880  228.6690 C   0  0  0  0  0  0  0  0  0  0  0  0
  140.3030   71.6350  228.3380 C   0  0  0  0  0  0  0  0  0  0  0  0
  140.7710   71.8530  227.0400 C   0  0  0  0  0  0  0  0  0  0  0  0
  140.5420   70.9000  226.0600 C   0  0  0  0  0  0  0  0  0  0  0  0
  141.0170   71.0770  224.6640 C   0  0  0  0  0  0  0  0  0  0  0  0
  140.0850   71.9060  223.9140 N   0  0  0  0  0  0  0  0  0  0  0  0
  139.9000   71.7250  222.5180 C   0  0  0  0  0  0  0  0  0  0  0  0
  140.5290   70.8470  221.8660 O   0  0  0  0  0  0  0  0  0  0  0  0
  138.9090   72.6430  221.8600 C   0  0  0  0  0  0  0  0  0  0  0  0
  139.2620   74.0380  222.0500 N   0  0  0  0  0  0  0  0  0  0  0  0
  140.3410   74.5260  221.2330 C   0  0  0  0  0  0  0  0  0  0  0  0
  140.8650   73.6980  220.4420 O   0  0  0  0  0  0  0  0  0  0  0  0
  140.7770   75.9140  221.3440 C   0  0  0  0  0  0  0  0  0  0  0  0
  141.6210   76.3940  220.3610 C   0  0  0  0  0  0  0  0  0  0  0  0
  142.0630   77.7110  220.4230 C   0  0  0  0  0  0  0  0  0  0  0  0
  141.6370   78.4950  221.4760 C   0  0  0  0  0  0  0  0  0  0  0  0
  142.0850   79.7880  221.5180 C   0  0  0  0  0  0  0  0  0  0  0  0
  141.6660   80.5960  222.5740 C   0  0  0  0  0  0  0  0  0  0  0  0
  142.0900   81.8710  222.6400 F   0  0  0  0  0  0  0  0  0  0  0  0
  140.8230   80.0690  223.5310 C   0  0  0  0  0  0  0  0  0  0  0  0
  140.3640   78.7680  223.5010 C   0  0  0  0  0  0  0  0  0  0  0  0
  140.7910   77.9740  222.4400 C   0  0  0  0  0  0  0  0  0  0  0  0
  140.3730   76.6940  222.3620 N   0  0  0  0  0  0  0  0  0  0  0  0
  139.3115   67.7461  225.9349 H   0  0  0  0  0  0  0  0  0  0  0  0
  138.7136   68.9714  224.7654 H   0  0  0  0  0  0  0  0  0  0  0  0
  140.4471   68.5005  224.7654 H   0  0  0  0  0  0  0  0  0  0  0  0
  138.8388   68.6077  227.9171 H   0  0  0  0  0  0  0  0  0  0  0  0
  139.2483   70.3293  229.6946 H   0  0  0  0  0  0  0  0  0  0  0  0
  140.4888   72.3941  229.1121 H   0  0  0  0  0  0  0  0  0  0  0  0
  141.3182   72.7758  226.7970 H   0  0  0  0  0  0  0  0  0  0  0  0
  142.0047   71.5610  224.6755 H   0  0  0  0  0  0  0  0  0  0  0  0
  141.0859   70.0906  224.1820 H   0  0  0  0  0  0  0  0  0  0  0  0
  139.5400   72.6540  224.4370 H   0  0  0  0  0  0  0  0  0  0  0  0
  138.8826   72.4255  220.7820 H   0  0  0  0  0  0  0  0  0  0  0  0
  137.9247   72.4723  222.3205 H   0  0  0  0  0  0  0  0  0  0  0  0
  138.7690   74.6520  222.7330 H   0  0  0  0  0  0  0  0  0  0  0  0
  141.9406   75.7399  219.5364 H   0  0  0  0  0  0  0  0  0  0  0  0
  142.7349   78.1175  219.6527 H   0  0  0  0  0  0  0  0  0  0  0  0
  142.7572   80.1787  220.7398 H   0  0  0  0  0  0  0  0  0  0  0  0
  140.5010   80.7181  224.3587 H   0  0  0  0  0  0  0  0  0  0  0  0
  139.6921   78.3765  224.2790 H   0  0  0  0  0  0  0  0  0  0  0  0
  1  2  1  0
  2  3  2  0
  3  4  1  0
  4  5  2  0
  5  6  1  0
  6  7  2  0
  7  8  1  0
  8  9  1  0
  9 10  1  0
 10 11  2  0
 10 12  1  0
 12 13  1  0
 13 14  1  0
 14 15  2  0
 14 16  1  0
 16 17  2  0
 17 18  1  0
 18 19  2  0
 19 20  1  0
 20 21  2  0
 21 22  1  0
 21 23  1  0
 23 24  2  0
 24 25  1  0
 25 26  2  0
  7  2  1  0
 26 16  1  0
 25 19  1  0
  1 27  1  0
  1 28  1  0
  1 29  1  0
  3 30  1  0
  4 31  1  0
  5 32  1  0
  6 33  1  0
  8 34  1  0
  8 35  1  0
  9 36  1  0
 12 37  1  0
 12 38  1  0
 13 39  1  0
 17 40  1  0
 18 41  1  0
 20 42  1  0
 23 43  1  0
 24 44  1  0
M  END
>  <smiles>  (35) 
Cc1ccccc1CNC(=O)CNC(=O)c1ccc2cc(F)ccc2n1

>  <score_type>  (35) 
oracle

>  <origin>  (35) 
autodockgpu

>  <m_score__min__energy>  (35) 
-8.6199999999999992

>  <m_primary>  (35) 
energy

>  <rmsd>  (35) 
8.654984127219008

>  <m_score__min__rmsd>  (35) 
8.654984127219008

>  <meeko>  (35) 
{"free_energy": -8.14, "intermolecular_energy": -9.64, "internal_energy": -1.1, "cluster_size": 23, "cluster_id": 2, "rank_in_cluster": 17}

>  <energy>  (35) 
-7.48

>  <cluster_rmsd>  (35) 
1.88

>  <cluster>  (35) 
2

$$$$

     RDKit          3D

 44 46  0  0  0  0  0  0  0  0999 V2000
  142.4420   79.9010  223.3220 C   0  0  0  0  0  0  0  0  0  0  0  0
  140.9650   79.7770  223.3540 C   0  0  0  0  0  0  0  0  0  0  0  0
  140.2640   80.9300  223.7270 C   0  0  0  0  0  0  0  0  0  0  0  0
  138.8680   80.9120  223.7860 C   0  0  0  0  0  0  0  0  0  0  0  0
  138.2080   79.7440  223.4710 C   0  0  0  0  0  0  0  0  0  0  0  0
  138.9050   78.5910  223.0990 C   0  0  0  0  0  0  0  0  0  0  0  0
  140.2890   78.6170  223.0430 C   0  0  0  0  0  0  0  0  0  0  0  0
  141.0830   77.4230  222.6540 C   0  0  0  0  0  0  0  0  0  0  0  0
  140.2000   76.3140  222.3270 N   0  0  0  0  0  0  0  0  0  0  0  0
  140.5860   75.3180  221.3910 C   0  0  0  0  0  0  0  0  0  0  0  0
  141.7030   75.3470  220.8040 O   0  0  0  0  0  0  0  0  0  0  0  0
  139.5870   74.2240  221.1410 C   0  0  0  0  0  0  0  0  0  0  0  0
  139.3740   73.4120  222.3250 N   0  0  0  0  0  0  0  0  0  0  0  0
  140.3350   72.3630  222.5430 C   0  0  0  0  0  0  0  0  0  0  0  0
  141.2560   72.2590  221.6900 O   0  0  0  0  0  0  0  0  0  0  0  0
  140.2150   71.4870  223.7040 C   0  0  0  0  0  0  0  0  0  0  0  0
  139.6030   70.2620  223.5120 C   0  0  0  0  0  0  0  0  0  0  0  0
  139.4650   69.3910  224.5870 C   0  0  0  0  0  0  0  0  0  0  0  0
  139.9500   69.7890  225.8180 C   0  0  0  0  0  0  0  0  0  0  0  0
  139.8040   68.9160  226.8620 C   0  0  0  0  0  0  0  0  0  0  0  0
  140.2870   69.3000  228.1130 C   0  0  0  0  0  0  0  0  0  0  0  0
  140.1580   68.4630  229.1570 F   0  0  0  0  0  0  0  0  0  0  0  0
  140.8900   70.5330  228.2520 C   0  0  0  0  0  0  0  0  0  0  0  0
  141.0440   71.4220  227.2070 C   0  0  0  0  0  0  0  0  0  0  0  0
  140.5570   71.0250  225.9650 C   0  0  0  0  0  0  0  0  0  0  0  0
  140.6800   71.8540  224.9100 N   0  0  0  0  0  0  0  0  0  0  0  0
  142.8296   79.9335  224.3509 H   0  0  0  0  0  0  0  0  0  0  0  0
  142.8713   79.0357  222.7957 H   0  0  0  0  0  0  0  0  0  0  0  0
  142.7210   80.8257  222.7957 H   0  0  0  0  0  0  0  0  0  0  0  0
  140.8126   81.8509  223.9739 H   0  0  0  0  0  0  0  0  0  0  0  0
  138.3072   81.8121  224.0780 H   0  0  0  0  0  0  0  0  0  0  0  0
  137.1091   79.7185  223.5132 H   0  0  0  0  0  0  0  0  0  0  0  0
  138.3582   77.6690  222.8523 H   0  0  0  0  0  0  0  0  0  0  0  0
  141.6992   77.6672  221.7761 H   0  0  0  0  0  0  0  0  0  0  0  0
  141.7267   77.1313  223.4969 H   0  0  0  0  0  0  0  0  0  0  0  0
  139.2530   76.2630  222.8060 H   0  0  0  0  0  0  0  0  0  0  0  0
  138.6300   74.6764  220.8419 H   0  0  0  0  0  0  0  0  0  0  0  0
  139.9811   73.5744  220.3455 H   0  0  0  0  0  0  0  0  0  0  0  0
  138.5790   73.5720  222.9790 H   0  0  0  0  0  0  0  0  0  0  0  0
  139.2285   69.9790  222.5172 H   0  0  0  0  0  0  0  0  0  0  0  0
  138.9823   68.4107  224.4607 H   0  0  0  0  0  0  0  0  0  0  0  0
  139.3194   67.9390  226.7185 H   0  0  0  0  0  0  0  0  0  0  0  0
  141.2666   70.8220  229.2443 H   0  0  0  0  0  0  0  0  0  0  0  0
  141.5292   72.3989  227.3494 H   0  0  0  0  0  0  0  0  0  0  0  0
  1  2  1  0
  2  3  2  0
  3  4  1  0
  4  5  2  0
  5  6  1  0
  6  7  2  0
  7  8  1  0
  8  9  1  0
  9 10  1  0
 10 11  2  0
 10 12  1  0
 12 13  1  0
 13 14  1  0
 14 15  2  0
 14 16  1  0
 16 17  2  0
 17 18  1  0
 18 19  2  0
 19 20  1  0
 20 21  2  0
 21 22  1  0
 21 23  1  0
 23 24  2  0
 24 25  1  0
 25 26  2  0
  7  2  1  0
 26 16  1  0
 25 19  1  0
  1 27  1  0
  1 28  1  0
  1 29  1  0
  3 30  1  0
  4 31  1  0
  5 32  1  0
  6 33  1  0
  8 34  1  0
  8 35  1  0
  9 36  1  0
 12 37  1  0
 12 38  1  0
 13 39  1  0
 17 40  1  0
 18 41  1  0
 20 42  1  0
 23 43  1  0
 24 44  1  0
M  END
>  <smiles>  (36) 
Cc1ccccc1CNC(=O)CNC(=O)c1ccc2cc(F)ccc2n1

>  <score_type>  (36) 
oracle

>  <origin>  (36) 
autodockgpu

>  <m_score__min__energy>  (36) 
-8.6199999999999992

>  <m_primary>  (36) 
energy

>  <rmsd>  (36) 
3.315759640339131

>  <m_score__min__rmsd>  (36) 
3.315759640339131

>  <meeko>  (36) 
{"free_energy": -8.38, "intermolecular_energy": -9.87, "internal_energy": -0.82, "cluster_size": 15, "cluster_id": 1, "rank_in_cluster": 6}

>  <energy>  (36) 
-7.46

>  <cluster_rmsd>  (36) 
1.85

>  <cluster>  (36) 
2

$$$$

     RDKit          3D

 44 46  0  0  0  0  0  0  0  0999 V2000
  141.6850   80.4980  220.0310 C   0  0  0  0  0  0  0  0  0  0  0  0
  141.6600   79.9530  221.4090 C   0  0  0  0  0  0  0  0  0  0  0  0
  142.5840   80.5100  222.3010 C   0  0  0  0  0  0  0  0  0  0  0  0
  142.6370   80.0620  223.6230 C   0  0  0  0  0  0  0  0  0  0  0  0
  141.7670   79.0690  224.0220 C   0  0  0  0  0  0  0  0  0  0  0  0
  140.8450   78.5110  223.1330 C   0  0  0  0  0  0  0  0  0  0  0  0
  140.7980   78.9610  221.8230 C   0  0  0  0  0  0  0  0  0  0  0  0
  139.8380   78.4060  220.8340 C   0  0  0  0  0  0  0  0  0  0  0  0
  140.0830   76.9840  220.6360 N   0  0  0  0  0  0  0  0  0  0  0  0
  139.5680   76.0180  221.5390 C   0  0  0  0  0  0  0  0  0  0  0  0
  138.8820   76.3400  222.5470 O   0  0  0  0  0  0  0  0  0  0  0  0
  139.8890   74.5840  221.2240 C   0  0  0  0  0  0  0  0  0  0  0  0
  139.6240   73.7140  222.3550 N   0  0  0  0  0  0  0  0  0  0  0  0
  140.4580   72.5460  222.4540 C   0  0  0  0  0  0  0  0  0  0  0  0
  141.3280   72.3990  221.5550 O   0  0  0  0  0  0  0  0  0  0  0  0
  140.2750   71.6040  223.5540 C   0  0  0  0  0  0  0  0  0  0  0  0
  139.6260   70.4170  223.2700 C   0  0  0  0  0  0  0  0  0  0  0  0
  139.4280   69.4880  224.2850 C   0  0  0  0  0  0  0  0  0  0  0  0
  139.8940   69.7890  225.5490 C   0  0  0  0  0  0  0  0  0  0  0  0
  139.6880   68.8590  226.5330 C   0  0  0  0  0  0  0  0  0  0  0  0
  140.1510   69.1460  227.8160 C   0  0  0  0  0  0  0  0  0  0  0  0
  139.9640   68.2510  228.8020 F   0  0  0  0  0  0  0  0  0  0  0  0
  140.7940   70.3450  228.0480 C   0  0  0  0  0  0  0  0  0  0  0  0
  141.0080   71.2910  227.0660 C   0  0  0  0  0  0  0  0  0  0  0  0
  140.5400   70.9900  225.7890 C   0  0  0  0  0  0  0  0  0  0  0  0
  140.7220   71.8790  224.7920 N   0  0  0  0  0  0  0  0  0  0  0  0
  141.7354   81.5961  220.0719 H   0  0  0  0  0  0  0  0  0  0  0  0
  142.5663   80.1101  219.4992 H   0  0  0  0  0  0  0  0  0  0  0  0
  140.7719   80.1924  219.4992 H   0  0  0  0  0  0  0  0  0  0  0  0
  143.2687   81.3009  221.9607 H   0  0  0  0  0  0  0  0  0  0  0  0
  143.3589   80.4930  224.3323 H   0  0  0  0  0  0  0  0  0  0  0  0
  141.7997   78.7092  225.0610 H   0  0  0  0  0  0  0  0  0  0  0  0
  140.1603   77.7191  223.4708 H   0  0  0  0  0  0  0  0  0  0  0  0
  138.8121   78.5496  221.2039 H   0  0  0  0  0  0  0  0  0  0  0  0
  139.9691   78.9290  219.8752 H   0  0  0  0  0  0  0  0  0  0  0  0
  140.6580   76.6820  219.7950 H   0  0  0  0  0  0  0  0  0  0  0  0
  139.2729   74.2595  220.3725 H   0  0  0  0  0  0  0  0  0  0  0  0
  140.9603   74.5171  220.9834 H   0  0  0  0  0  0  0  0  0  0  0  0
  138.8780   73.9170  223.0540 H   0  0  0  0  0  0  0  0  0  0  0  0
  139.2695   70.2095  222.2503 H   0  0  0  0  0  0  0  0  0  0  0  0
  138.9128   68.5367  224.0859 H   0  0  0  0  0  0  0  0  0  0  0  0
  139.1716   67.9121  226.3169 H   0  0  0  0  0  0  0  0  0  0  0  0
  141.1537   70.5571  229.0657 H   0  0  0  0  0  0  0  0  0  0  0  0
  141.5239   72.2382  227.2817 H   0  0  0  0  0  0  0  0  0  0  0  0
  1  2  1  0
  2  3  2  0
  3  4  1  0
  4  5  2  0
  5  6  1  0
  6  7  2  0
  7  8  1  0
  8  9  1  0
  9 10  1  0
 10 11  2  0
 10 12  1  0
 12 13  1  0
 13 14  1  0
 14 15  2  0
 14 16  1  0
 16 17  2  0
 17 18  1  0
 18 19  2  0
 19 20  1  0
 20 21  2  0
 21 22  1  0
 21 23  1  0
 23 24  2  0
 24 25  1  0
 25 26  2  0
  7  2  1  0
 26 16  1  0
 25 19  1  0
  1 27  1  0
  1 28  1  0
  1 29  1  0
  3 30  1  0
  4 31  1  0
  5 32  1  0
  6 33  1  0
  8 34  1  0
  8 35  1  0
  9 36  1  0
 12 37  1  0
 12 38  1  0
 13 39  1  0
 17 40  1  0
 18 41  1  0
 20 42  1  0
 23 43  1  0
 24 44  1  0
M  END
>  <smiles>  (37) 
Cc1ccccc1CNC(=O)CNC(=O)c1ccc2cc(F)ccc2n1

>  <score_type>  (37) 
oracle

>  <origin>  (37) 
autodockgpu

>  <m_score__min__energy>  (37) 
-8.6199999999999992

>  <m_primary>  (37) 
energy

>  <rmsd>  (37) 
2.9762112643446064

>  <m_score__min__rmsd>  (37) 
2.9762112643446064

>  <meeko>  (37) 
{"free_energy": -8.32, "intermolecular_energy": -9.81, "internal_energy": -1.09, "cluster_size": 15, "cluster_id": 1, "rank_in_cluster": 10}

>  <energy>  (37) 
-7.43

>  <cluster_rmsd>  (37) 
1.87

>  <cluster>  (37) 
2

$$$$

     RDKit          3D

 44 46  0  0  0  0  0  0  0  0999 V2000
  139.5910   68.4770  226.6300 C   0  0  0  0  0  0  0  0  0  0  0  0
  140.2210   69.8100  226.7870 C   0  0  0  0  0  0  0  0  0  0  0  0
  140.5860   70.1610  228.0920 C   0  0  0  0  0  0  0  0  0  0  0  0
  141.1880   71.3970  228.3420 C   0  0  0  0  0  0  0  0  0  0  0  0
  141.4110   72.2510  227.2830 C   0  0  0  0  0  0  0  0  0  0  0  0
  141.0460   71.9030  225.9790 C   0  0  0  0  0  0  0  0  0  0  0  0
  140.4500   70.6750  225.7390 C   0  0  0  0  0  0  0  0  0  0  0  0
  140.0420   70.2510  224.3760 C   0  0  0  0  0  0  0  0  0  0  0  0
  139.2080   71.2710  223.7570 N   0  0  0  0  0  0  0  0  0  0  0  0
  139.3300   71.5830  222.3780 C   0  0  0  0  0  0  0  0  0  0  0  0
  140.1580   70.9970  221.6280 O   0  0  0  0  0  0  0  0  0  0  0  0
  138.4110   72.6540  221.8600 C   0  0  0  0  0  0  0  0  0  0  0  0
  138.9300   73.9820  222.1300 N   0  0  0  0  0  0  0  0  0  0  0  0
  139.8550   74.5010  221.1580 C   0  0  0  0  0  0  0  0  0  0  0  0
  140.1180   73.7540  220.1780 O   0  0  0  0  0  0  0  0  0  0  0  0
  140.4370   75.8270  221.3340 C   0  0  0  0  0  0  0  0  0  0  0  0
  141.4320   76.2050  220.4510 C   0  0  0  0  0  0  0  0  0  0  0  0
  142.0180   77.4590  220.5780 C   0  0  0  0  0  0  0  0  0  0  0  0
  141.5770   78.2880  221.5900 C   0  0  0  0  0  0  0  0  0  0  0  0
  142.1680   79.5180  221.6960 C   0  0  0  0  0  0  0  0  0  0  0  0
  141.7370   80.3700  222.7130 C   0  0  0  0  0  0  0  0  0  0  0  0
  142.2990   81.5850  222.8410 F   0  0  0  0  0  0  0  0  0  0  0  0
  140.7400   79.9460  223.5680 C   0  0  0  0  0  0  0  0  0  0  0  0
  140.1370   78.7090  223.4720 C   0  0  0  0  0  0  0  0  0  0  0  0
  140.5780   77.8700  222.4520 C   0  0  0  0  0  0  0  0  0  0  0  0
  140.0230   76.6490  222.3130 N   0  0  0  0  0  0  0  0  0  0  0  0
  139.3883   68.0481  227.6224 H   0  0  0  0  0  0  0  0  0  0  0  0
  138.6466   68.5808  226.0755 H   0  0  0  0  0  0  0  0  0  0  0  0
  140.2707   67.8132  226.0755 H   0  0  0  0  0  0  0  0  0  0  0  0
  140.3988   69.4632  228.9215 H   0  0  0  0  0  0  0  0  0  0  0  0
  141.4783   71.6830  229.3637 H   0  0  0  0  0  0  0  0  0  0  0  0
  141.8857   73.2260  227.4677 H   0  0  0  0  0  0  0  0  0  0  0  0
  141.2308   72.5999  225.1482 H   0  0  0  0  0  0  0  0  0  0  0  0
  140.9403   70.0945  223.7607 H   0  0  0  0  0  0  0  0  0  0  0  0
  139.4675   69.3159  224.4496 H   0  0  0  0  0  0  0  0  0  0  0  0
  138.5010   71.7820  224.3640 H   0  0  0  0  0  0  0  0  0  0  0  0
  138.2960   72.5302  220.7731 H   0  0  0  0  0  0  0  0  0  0  0  0
  137.4429   72.5530  222.3724 H   0  0  0  0  0  0  0  0  0  0  0  0
  138.6550   74.5290  222.9730 H   0  0  0  0  0  0  0  0  0  0  0  0
  141.7570   75.5190  219.6549 H   0  0  0  0  0  0  0  0  0  0  0  0
  142.8128   77.7826  219.8898 H   0  0  0  0  0  0  0  0  0  0  0  0
  142.9609   79.8261  220.9986 H   0  0  0  0  0  0  0  0  0  0  0  0
  140.4099   80.6281  224.3653 H   0  0  0  0  0  0  0  0  0  0  0  0
  139.3443   78.3997  224.1691 H   0  0  0  0  0  0  0  0  0  0  0  0
  1  2  1  0
  2  3  2  0
  3  4  1  0
  4  5  2  0
  5  6  1  0
  6  7  2  0
  7  8  1  0
  8  9  1  0
  9 10  1  0
 10 11  2  0
 10 12  1  0
 12 13  1  0
 13 14  1  0
 14 15  2  0
 14 16  1  0
 16 17  2  0
 17 18  1  0
 18 19  2  0
 19 20  1  0
 20 21  2  0
 21 22  1  0
 21 23  1  0
 23 24  2  0
 24 25  1  0
 25 26  2  0
  7  2  1  0
 26 16  1  0
 25 19  1  0
  1 27  1  0
  1 28  1  0
  1 29  1  0
  3 30  1  0
  4 31  1  0
  5 32  1  0
  6 33  1  0
  8 34  1  0
  8 35  1  0
  9 36  1  0
 12 37  1  0
 12 38  1  0
 13 39  1  0
 17 40  1  0
 18 41  1  0
 20 42  1  0
 23 43  1  0
 24 44  1  0
M  END
>  <smiles>  (38) 
Cc1ccccc1CNC(=O)CNC(=O)c1ccc2cc(F)ccc2n1

>  <score_type>  (38) 
oracle

>  <origin>  (38) 
autodockgpu

>  <m_score__min__energy>  (38) 
-8.6199999999999992

>  <m_primary>  (38) 
energy

>  <rmsd>  (38) 
8.358010438034105

>  <m_score__min__rmsd>  (38) 
8.358010438034105

>  <meeko>  (38) 
{"free_energy": -8.4, "intermolecular_energy": -9.89, "internal_energy": -1.07, "cluster_size": 23, "cluster_id": 2, "rank_in_cluster": 13}

>  <energy>  (38) 
-7.39

>  <cluster_rmsd>  (38) 
1.78

>  <cluster>  (38) 
2

$$$$

     RDKit          3D

 44 46  0  0  0  0  0  0  0  0999 V2000
  139.5800   68.3330  226.7110 C   0  0  0  0  0  0  0  0  0  0  0  0
  140.1150   69.7110  226.8130 C   0  0  0  0  0  0  0  0  0  0  0  0
  140.3590   70.1750  228.1110 C   0  0  0  0  0  0  0  0  0  0  0  0
  140.8650   71.4630  228.3100 C   0  0  0  0  0  0  0  0  0  0  0  0
  141.1140   72.2540  227.2090 C   0  0  0  0  0  0  0  0  0  0  0  0
  140.8700   71.7930  225.9120 C   0  0  0  0  0  0  0  0  0  0  0  0
  140.3680   70.5150  225.7220 C   0  0  0  0  0  0  0  0  0  0  0  0
  140.0910   69.9720  224.3690 C   0  0  0  0  0  0  0  0  0  0  0  0
  139.2620   70.8990  223.6120 N   0  0  0  0  0  0  0  0  0  0  0  0
  139.8300   72.0240  222.9570 C   0  0  0  0  0  0  0  0  0  0  0  0
  141.0660   72.2720  222.9990 O   0  0  0  0  0  0  0  0  0  0  0  0
  138.8700   72.9050  222.2080 C   0  0  0  0  0  0  0  0  0  0  0  0
  139.2190   74.3080  222.3360 N   0  0  0  0  0  0  0  0  0  0  0  0
  140.3370   74.7480  221.5450 C   0  0  0  0  0  0  0  0  0  0  0  0
  140.8960   73.8750  220.8280 O   0  0  0  0  0  0  0  0  0  0  0  0
  140.7730   76.1390  221.5990 C   0  0  0  0  0  0  0  0  0  0  0  0
  141.4660   76.6290  220.5080 C   0  0  0  0  0  0  0  0  0  0  0  0
  141.9020   77.9490  220.5110 C   0  0  0  0  0  0  0  0  0  0  0  0
  141.6220   78.7280  221.6170 C   0  0  0  0  0  0  0  0  0  0  0  0
  142.0600   80.0240  221.5990 C   0  0  0  0  0  0  0  0  0  0  0  0
  141.7870   80.8270  222.7070 C   0  0  0  0  0  0  0  0  0  0  0  0
  142.2050   82.1050  222.7160 F   0  0  0  0  0  0  0  0  0  0  0  0
  141.0910   80.2900  223.7710 C   0  0  0  0  0  0  0  0  0  0  0  0
  140.6440   78.9850  223.8010 C   0  0  0  0  0  0  0  0  0  0  0  0
  140.9240   78.1970  222.6880 C   0  0  0  0  0  0  0  0  0  0  0  0
  140.5100   76.9140  222.6650 N   0  0  0  0  0  0  0  0  0  0  0  0
  139.4218   67.9255  227.7204 H   0  0  0  0  0  0  0  0  0  0  0  0
  138.6233   68.3503  226.1684 H   0  0  0  0  0  0  0  0  0  0  0  0
  140.2978   67.7002  226.1684 H   0  0  0  0  0  0  0  0  0  0  0  0
  140.1525   69.5259  228.9747 H   0  0  0  0  0  0  0  0  0  0  0  0
  141.0606   71.8379  229.3255 H   0  0  0  0  0  0  0  0  0  0  0  0
  141.5129   73.2688  227.3539 H   0  0  0  0  0  0  0  0  0  0  0  0
  141.0752   72.4408  225.0470 H   0  0  0  0  0  0  0  0  0  0  0  0
  141.0420   69.8189  223.8378 H   0  0  0  0  0  0  0  0  0  0  0  0
  139.5573   69.0155  224.4699 H   0  0  0  0  0  0  0  0  0  0  0  0
  138.2170   70.7170  223.5590 H   0  0  0  0  0  0  0  0  0  0  0  0
  138.8884   72.6285  221.1435 H   0  0  0  0  0  0  0  0  0  0  0  0
  137.8666   72.7604  222.6349 H   0  0  0  0  0  0  0  0  0  0  0  0
  138.6970   74.9600  222.9590 H   0  0  0  0  0  0  0  0  0  0  0  0
  141.6709   75.9795  219.6442 H   0  0  0  0  0  0  0  0  0  0  0  0
  142.4555   78.3624  219.6550 H   0  0  0  0  0  0  0  0  0  0  0  0
  142.6121   80.4220  220.7349 H   0  0  0  0  0  0  0  0  0  0  0  0
  140.8824   80.9342  224.6379 H   0  0  0  0  0  0  0  0  0  0  0  0
  140.0919   78.5857  224.6645 H   0  0  0  0  0  0  0  0  0  0  0  0
  1  2  1  0
  2  3  2  0
  3  4  1  0
  4  5  2  0
  5  6  1  0
  6  7  2  0
  7  8  1  0
  8  9  1  0
  9 10  1  0
 10 11  2  0
 10 12  1  0
 12 13  1  0
 13 14  1  0
 14 15  2  0
 14 16  1  0
 16 17  2  0
 17 18  1  0
 18 19  2  0
 19 20  1  0
 20 21  2  0
 21 22  1  0
 21 23  1  0
 23 24  2  0
 24 25  1  0
 25 26  2  0
  7  2  1  0
 26 16  1  0
 25 19  1  0
  1 27  1  0
  1 28  1  0
  1 29  1  0
  3 30  1  0
  4 31  1  0
  5 32  1  0
  6 33  1  0
  8 34  1  0
  8 35  1  0
  9 36  1  0
 12 37  1  0
 12 38  1  0
 13 39  1  0
 17 40  1  0
 18 41  1  0
 20 42  1  0
 23 43  1  0
 24 44  1  0
M  END
>  <smiles>  (39) 
Cc1ccccc1CNC(=O)CNC(=O)c1ccc2cc(F)ccc2n1

>  <score_type>  (39) 
oracle

>  <origin>  (39) 
autodockgpu

>  <m_score__min__energy>  (39) 
-8.6199999999999992

>  <m_primary>  (39) 
energy

>  <rmsd>  (39) 
8.562561704985006

>  <m_score__min__rmsd>  (39) 
8.562561704985006

>  <meeko>  (39) 
{"free_energy": -8.55, "intermolecular_energy": -10.04, "internal_energy": -0.96, "cluster_size": 23, "cluster_id": 2, "rank_in_cluster": 5}

>  <energy>  (39) 
-8.12

>  <cluster_rmsd>  (39) 
0.0

>  <cluster>  (39) 
3

$$$$

     RDKit          3D

 44 46  0  0  0  0  0  0  0  0999 V2000
  140.4350   71.4600  224.2530 C   0  0  0  0  0  0  0  0  0  0  0  0
  140.4160   70.9920  225.6590 C   0  0  0  0  0  0  0  0  0  0  0  0
  141.0200   71.8430  226.5930 C   0  0  0  0  0  0  0  0  0  0  0  0
  141.0520   71.4890  227.9450 C   0  0  0  0  0  0  0  0  0  0  0  0
  140.4800   70.2950  228.3300 C   0  0  0  0  0  0  0  0  0  0  0  0
  139.8780   69.4440  227.4000 C   0  0  0  0  0  0  0  0  0  0  0  0
  139.8500   69.8010  226.0610 C   0  0  0  0  0  0  0  0  0  0  0  0
  139.2230   68.9380  225.0280 C   0  0  0  0  0  0  0  0  0  0  0  0
  137.7740   68.9550  225.1670 N   0  0  0  0  0  0  0  0  0  0  0  0
  136.9990   70.0220  224.6430 C   0  0  0  0  0  0  0  0  0  0  0  0
  137.5220   70.9980  224.0370 O   0  0  0  0  0  0  0  0  0  0  0  0
  135.5130   69.9220  224.8500 C   0  0  0  0  0  0  0  0  0  0  0  0
  134.9320   71.2070  225.1910 N   0  0  0  0  0  0  0  0  0  0  0  0
  133.9110   71.1820  226.2040 C   0  0  0  0  0  0  0  0  0  0  0  0
  133.6280   70.0540  226.6880 O   0  0  0  0  0  0  0  0  0  0  0  0
  133.2600   72.4190  226.6220 C   0  0  0  0  0  0  0  0  0  0  0  0
  132.0170   72.3110  227.2190 C   0  0  0  0  0  0  0  0  0  0  0  0
  131.3570   73.4620  227.6350 C   0  0  0  0  0  0  0  0  0  0  0  0
  131.9750   74.6800  227.4340 C   0  0  0  0  0  0  0  0  0  0  0  0
  131.3070   75.7990  227.8510 C   0  0  0  0  0  0  0  0  0  0  0  0
  131.9150   77.0390  227.6570 C   0  0  0  0  0  0  0  0  0  0  0  0
  131.2820   78.1560  228.0580 F   0  0  0  0  0  0  0  0  0  0  0  0
  133.1570   77.0930  227.0570 C   0  0  0  0  0  0  0  0  0  0  0  0
  133.8410   75.9720  226.6320 C   0  0  0  0  0  0  0  0  0  0  0  0
  133.2210   74.7420  226.8330 C   0  0  0  0  0  0  0  0  0  0  0  0
  133.8450   73.6150  226.4370 N   0  0  0  0  0  0  0  0  0  0  0  0
  140.4796   72.5589  224.2329 H   0  0  0  0  0  0  0  0  0  0  0  0
  141.3172   71.0478  223.7412 H   0  0  0  0  0  0  0  0  0  0  0  0
  139.5223   71.1207  223.7412 H   0  0  0  0  0  0  0  0  0  0  0  0
  141.4697   72.7909  226.2624 H   0  0  0  0  0  0  0  0  0  0  0  0
  141.5241   72.1498  228.6869 H   0  0  0  0  0  0  0  0  0  0  0  0
  140.4980   70.0066  229.3914 H   0  0  0  0  0  0  0  0  0  0  0  0
  139.4285   68.4954  227.7287 H   0  0  0  0  0  0  0  0  0  0  0  0
  139.4962   69.3103  224.0296 H   0  0  0  0  0  0  0  0  0  0  0  0
  139.5828   67.9065  225.1570 H   0  0  0  0  0  0  0  0  0  0  0  0
  137.3050   68.1460  225.6720 H   0  0  0  0  0  0  0  0  0  0  0  0
  135.0477   69.5548  223.9234 H   0  0  0  0  0  0  0  0  0  0  0  0
  135.3284   69.2294  225.6844 H   0  0  0  0  0  0  0  0  0  0  0  0
  135.2310   72.0950  224.7350 H   0  0  0  0  0  0  0  0  0  0  0  0
  131.5547   71.3234  227.3634 H   0  0  0  0  0  0  0  0  0  0  0  0
  130.3676   73.4035  228.1121 H   0  0  0  0  0  0  0  0  0  0  0  0
  130.3178   75.7226  228.3261 H   0  0  0  0  0  0  0  0  0  0  0  0
  133.6246   78.0778  226.9104 H   0  0  0  0  0  0  0  0  0  0  0  0
  134.8301   76.0471  226.1566 H   0  0  0  0  0  0  0  0  0  0  0  0
  1  2  1  0
  2  3  2  0
  3  4  1  0
  4  5  2  0
  5  6  1  0
  6  7  2  0
  7  8  1  0
  8  9  1  0
  9 10  1  0
 10 11  2  0
 10 12  1  0
 12 13  1  0
 13 14  1  0
 14 15  2  0
 14 16  1  0
 16 17  2  0
 17 18  1  0
 18 19  2  0
 19 20  1  0
 20 21  2  0
 21 22  1  0
 21 23  1  0
 23 24  2  0
 24 25  1  0
 25 26  2  0
  7  2  1  0
 26 16  1  0
 25 19  1  0
  1 27  1  0
  1 28  1  0
  1 29  1  0
  3 30  1  0
  4 31  1  0
  5 32  1  0
  6 33  1  0
  8 34  1  0
  8 35  1  0
  9 36  1  0
 12 37  1  0
 12 38  1  0
 13 39  1  0
 17 40  1  0
 18 41  1  0
 20 42  1  0
 23 43  1  0
 24 44  1  0
M  END
>  <smiles>  (40) 
Cc1ccccc1CNC(=O)CNC(=O)c1ccc2cc(F)ccc2n1

>  <score_type>  (40) 
oracle

>  <origin>  (40) 
autodockgpu

>  <m_score__min__energy>  (40) 
-8.6199999999999992

>  <m_primary>  (40) 
energy

>  <rmsd>  (40) 
9.217448296252726

>  <m_score__min__rmsd>  (40) 
9.217448296252726

>  <meeko>  (40) 
{"free_energy": -8.11, "intermolecular_energy": -9.6, "internal_energy": -1.25, "cluster_size": 8, "cluster_id": 3, "rank_in_cluster": 2}

>  <energy>  (40) 
-8.11

>  <cluster_rmsd>  (40) 
0.12

>  <cluster>  (40) 
3

$$$$

     RDKit          3D

 44 46  0  0  0  0  0  0  0  0999 V2000
  140.5490   71.4490  224.2250 C   0  0  0  0  0  0  0  0  0  0  0  0
  140.4760   71.0250  225.6430 C   0  0  0  0  0  0  0  0  0  0  0  0
  141.0760   71.8880  226.5680 C   0  0  0  0  0  0  0  0  0  0  0  0
  141.0600   71.5750  227.9300 C   0  0  0  0  0  0  0  0  0  0  0  0
  140.4440   70.4090  228.3340 C   0  0  0  0  0  0  0  0  0  0  0  0
  139.8450   69.5460  227.4120 C   0  0  0  0  0  0  0  0  0  0  0  0
  139.8660   69.8630  226.0630 C   0  0  0  0  0  0  0  0  0  0  0  0
  139.2460   68.9850  225.0390 C   0  0  0  0  0  0  0  0  0  0  0  0
  137.7950   69.0130  225.1610 N   0  0  0  0  0  0  0  0  0  0  0  0
  137.0230   70.0140  224.5140 C   0  0  0  0  0  0  0  0  0  0  0  0
  137.5510   70.9170  223.8090 O   0  0  0  0  0  0  0  0  0  0  0  0
  135.5360   69.9330  224.7160 C   0  0  0  0  0  0  0  0  0  0  0  0
  134.9800   71.2110  225.1190 N   0  0  0  0  0  0  0  0  0  0  0  0
  133.9240   71.1540  226.0950 C   0  0  0  0  0  0  0  0  0  0  0  0
  133.5930   70.0070  226.4970 O   0  0  0  0  0  0  0  0  0  0  0  0
  133.2940   72.3820  226.5680 C   0  0  0  0  0  0  0  0  0  0  0  0
  132.0730   72.2630  227.2060 C   0  0  0  0  0  0  0  0  0  0  0  0
  131.4330   73.4040  227.6750 C   0  0  0  0  0  0  0  0  0  0  0  0
  132.0500   74.6250  227.4850 C   0  0  0  0  0  0  0  0  0  0  0  0
  131.4020   75.7360  227.9550 C   0  0  0  0  0  0  0  0  0  0  0  0
  132.0090   76.9780  227.7720 C   0  0  0  0  0  0  0  0  0  0  0  0
  131.3960   78.0860  228.2250 F   0  0  0  0  0  0  0  0  0  0  0  0
  133.2280   77.0430  227.1310 C   0  0  0  0  0  0  0  0  0  0  0  0
  133.8920   75.9320  226.6520 C   0  0  0  0  0  0  0  0  0  0  0  0
  133.2740   74.6990  226.8420 C   0  0  0  0  0  0  0  0  0  0  0  0
  133.8770   73.5800  226.3940 N   0  0  0  0  0  0  0  0  0  0  0  0
  140.7354   72.5319  224.1752 H   0  0  0  0  0  0  0  0  0  0  0  0
  141.3680   70.9125  223.7236 H   0  0  0  0  0  0  0  0  0  0  0  0
  139.5977   71.2173  223.7236 H   0  0  0  0  0  0  0  0  0  0  0  0
  141.5604   72.8132  226.2224 H   0  0  0  0  0  0  0  0  0  0  0  0
  141.5294   72.2453  228.6651 H   0  0  0  0  0  0  0  0  0  0  0  0
  140.4237   70.1530  229.4036 H   0  0  0  0  0  0  0  0  0  0  0  0
  139.3597   68.6204  227.7552 H   0  0  0  0  0  0  0  0  0  0  0  0
  139.5328   69.3373  224.0372 H   0  0  0  0  0  0  0  0  0  0  0  0
  139.5981   67.9540  225.1910 H   0  0  0  0  0  0  0  0  0  0  0  0
  137.3230   68.2650  225.7480 H   0  0  0  0  0  0  0  0  0  0  0  0
  135.0644   69.6203  223.7727 H   0  0  0  0  0  0  0  0  0  0  0  0
  135.3372   69.2044  225.5158 H   0  0  0  0  0  0  0  0  0  0  0  0
  135.3190   72.1160  224.7300 H   0  0  0  0  0  0  0  0  0  0  0  0
  131.6121   71.2734  227.3412 H   0  0  0  0  0  0  0  0  0  0  0  0
  130.4603   73.3364  228.1843 H   0  0  0  0  0  0  0  0  0  0  0  0
  130.4299   75.6511  228.4627 H   0  0  0  0  0  0  0  0  0  0  0  0
  133.6946   78.0297  226.9946 H   0  0  0  0  0  0  0  0  0  0  0  0
  134.8639   76.0167  226.1439 H   0  0  0  0  0  0  0  0  0  0  0  0
  1  2  1  0
  2  3  2  0
  3  4  1  0
  4  5  2  0
  5  6  1  0
  6  7  2  0
  7  8  1  0
  8  9  1  0
  9 10  1  0
 10 11  2  0
 10 12  1  0
 12 13  1  0
 13 14  1  0
 14 15  2  0
 14 16  1  0
 16 17  2  0
 17 18  1  0
 18 19  2  0
 19 20  1  0
 20 21  2  0
 21 22  1  0
 21 23  1  0
 23 24  2  0
 24 25  1  0
 25 26  2  0
  7  2  1  0
 26 16  1  0
 25 19  1  0
  1 27  1  0
  1 28  1  0
  1 29  1  0
  3 30  1  0
  4 31  1  0
  5 32  1  0
  6 33  1  0
  8 34  1  0
  8 35  1  0
  9 36  1  0
 12 37  1  0
 12 38  1  0
 13 39  1  0
 17 40  1  0
 18 41  1  0
 20 42  1  0
 23 43  1  0
 24 44  1  0
M  END
>  <smiles>  (41) 
Cc1ccccc1CNC(=O)CNC(=O)c1ccc2cc(F)ccc2n1

>  <score_type>  (41) 
oracle

>  <origin>  (41) 
autodockgpu

>  <m_score__min__energy>  (41) 
-8.6199999999999992

>  <m_primary>  (41) 
energy

>  <rmsd>  (41) 
9.146759836591773

>  <m_score__min__rmsd>  (41) 
9.146759836591773

>  <meeko>  (41) 
{"free_energy": -8.12, "intermolecular_energy": -9.61, "internal_energy": -1.23, "cluster_size": 8, "cluster_id": 3, "rank_in_cluster": 1}

>  <energy>  (41) 
-8.09

>  <cluster_rmsd>  (41) 
0.66

>  <cluster>  (41) 
3

$$$$

     RDKit          3D

 44 46  0  0  0  0  0  0  0  0999 V2000
  140.3220   68.5740  228.7100 C   0  0  0  0  0  0  0  0  0  0  0  0
  140.4240   69.6970  227.7480 C   0  0  0  0  0  0  0  0  0  0  0  0
  141.0670   70.8470  228.2200 C   0  0  0  0  0  0  0  0  0  0  0  0
  141.2140   71.9590  227.3870 C   0  0  0  0  0  0  0  0  0  0  0  0
  140.7150   71.8950  226.1030 C   0  0  0  0  0  0  0  0  0  0  0  0
  140.0720   70.7480  225.6290 C   0  0  0  0  0  0  0  0  0  0  0  0
  139.9300   69.6490  226.4620 C   0  0  0  0  0  0  0  0  0  0  0  0
  139.2570   68.4030  226.0140 C   0  0  0  0  0  0  0  0  0  0  0  0
  138.0850   68.7230  225.2120 N   0  0  0  0  0  0  0  0  0  0  0  0
  138.1060   68.5990  223.7980 C   0  0  0  0  0  0  0  0  0  0  0  0
  139.1310   68.2090  223.1740 O   0  0  0  0  0  0  0  0  0  0  0  0
  136.8320   68.9570  223.0850 C   0  0  0  0  0  0  0  0  0  0  0  0
  136.1730   70.0920  223.7060 N   0  0  0  0  0  0  0  0  0  0  0  0
  135.2790   69.7790  224.7890 C   0  0  0  0  0  0  0  0  0  0  0  0
  135.1620   68.5600  225.0860 O   0  0  0  0  0  0  0  0  0  0  0  0
  134.5640   70.8450  225.4820 C   0  0  0  0  0  0  0  0  0  0  0  0
  133.6700   70.4710  226.4690 C   0  0  0  0  0  0  0  0  0  0  0  0
  132.9640   71.4510  227.1580 C   0  0  0  0  0  0  0  0  0  0  0  0
  133.1870   72.7730  226.8270 C   0  0  0  0  0  0  0  0  0  0  0  0
  132.4820   73.7210  227.5190 C   0  0  0  0  0  0  0  0  0  0  0  0
  132.6930   75.0620  227.1990 C   0  0  0  0  0  0  0  0  0  0  0  0
  132.0140   76.0140  227.8620 F   0  0  0  0  0  0  0  0  0  0  0  0
  133.5960   75.3820  226.2070 C   0  0  0  0  0  0  0  0  0  0  0  0
  134.3140   74.4370  225.5020 C   0  0  0  0  0  0  0  0  0  0  0  0
  134.0920   73.1030  225.8330 C   0  0  0  0  0  0  0  0  0  0  0  0
  134.7660   72.1380  225.1760 N   0  0  0  0  0  0  0  0  0  0  0  0
  140.3577   68.9665  229.7370 H   0  0  0  0  0  0  0  0  0  0  0  0
  139.3719   68.0423  228.5535 H   0  0  0  0  0  0  0  0  0  0  0  0
  141.1608   67.8798  228.5535 H   0  0  0  0  0  0  0  0  0  0  0  0
  141.4571   70.8754  229.2481 H   0  0  0  0  0  0  0  0  0  0  0  0
  141.7179   72.8676  227.7482 H   0  0  0  0  0  0  0  0  0  0  0  0
  140.8252   72.7644  225.4382 H   0  0  0  0  0  0  0  0  0  0  0  0
  139.6811   70.7175  224.6013 H   0  0  0  0  0  0  0  0  0  0  0  0
  139.9585   67.8083  225.4105 H   0  0  0  0  0  0  0  0  0  0  0  0
  138.9406   67.8293  226.8976 H   0  0  0  0  0  0  0  0  0  0  0  0
  137.2070   69.0530  225.7100 H   0  0  0  0  0  0  0  0  0  0  0  0
  137.0662   69.2080  222.0399 H   0  0  0  0  0  0  0  0  0  0  0  0
  136.1531   68.0932  223.1388 H   0  0  0  0  0  0  0  0  0  0  0  0
  136.3320   71.0720  223.3910 H   0  0  0  0  0  0  0  0  0  0  0  0
  133.5189   69.4077  226.7068 H   0  0  0  0  0  0  0  0  0  0  0  0
  132.2464   71.1802  227.9464 H   0  0  0  0  0  0  0  0  0  0  0  0
  131.7690   73.4330  228.3055 H   0  0  0  0  0  0  0  0  0  0  0  0
  133.7520   76.4437  225.9654 H   0  0  0  0  0  0  0  0  0  0  0  0
  135.0278   74.7243  224.7159 H   0  0  0  0  0  0  0  0  0  0  0  0
  1  2  1  0
  2  3  2  0
  3  4  1  0
  4  5  2  0
  5  6  1  0
  6  7  2  0
  7  8  1  0
  8  9  1  0
  9 10  1  0
 10 11  2  0
 10 12  1  0
 12 13  1  0
 13 14  1  0
 14 15  2  0
 14 16  1  0
 16 17  2  0
 17 18  1  0
 18 19  2  0
 19 20  1  0
 20 21  2  0
 21 22  1  0
 21 23  1  0
 23 24  2  0
 24 25  1  0
 25 26  2  0
  7  2  1  0
 26 16  1  0
 25 19  1  0
  1 27  1  0
  1 28  1  0
  1 29  1  0
  3 30  1  0
  4 31  1  0
  5 32  1  0
  6 33  1  0
  8 34  1  0
  8 35  1  0
  9 36  1  0
 12 37  1  0
 12 38  1  0
 13 39  1  0
 17 40  1  0
 18 41  1  0
 20 42  1  0
 23 43  1  0
 24 44  1  0
M  END
>  <smiles>  (42) 
Cc1ccccc1CNC(=O)CNC(=O)c1ccc2cc(F)ccc2n1

>  <score_type>  (42) 
oracle

>  <origin>  (42) 
autodockgpu

>  <m_score__min__energy>  (42) 
-8.6199999999999992

>  <m_primary>  (42) 
energy

>  <rmsd>  (42) 
8.041592078332705

>  <m_score__min__rmsd>  (42) 
8.041592078332705

>  <meeko>  (42) 
{"free_energy": -7.55, "intermolecular_energy": -9.04, "internal_energy": -1.87, "cluster_size": 8, "cluster_id": 3, "rank_in_cluster": 6}

>  <energy>  (42) 
-7.82

>  <cluster_rmsd>  (42) 
0.34

>  <cluster>  (42) 
3

$$$$

     RDKit          3D

 44 46  0  0  0  0  0  0  0  0999 V2000
  141.1530   72.2580  227.5470 C   0  0  0  0  0  0  0  0  0  0  0  0
  140.6590   70.8870  227.2750 C   0  0  0  0  0  0  0  0  0  0  0  0
  140.0890   70.2180  228.3650 C   0  0  0  0  0  0  0  0  0  0  0  0
  139.5940   68.9200  228.2080 C   0  0  0  0  0  0  0  0  0  0  0  0
  139.6790   68.3250  226.9680 C   0  0  0  0  0  0  0  0  0  0  0  0
  140.2480   68.9910  225.8790 C   0  0  0  0  0  0  0  0  0  0  0  0
  140.7370   70.2770  226.0420 C   0  0  0  0  0  0  0  0  0  0  0  0
  141.3510   71.0340  224.9210 C   0  0  0  0  0  0  0  0  0  0  0  0
  140.3390   71.8140  224.2240 N   0  0  0  0  0  0  0  0  0  0  0  0
  140.4200   72.0380  222.8240 C   0  0  0  0  0  0  0  0  0  0  0  0
  141.3640   71.5780  222.1250 O   0  0  0  0  0  0  0  0  0  0  0  0
  139.3130   72.8570  222.2220 C   0  0  0  0  0  0  0  0  0  0  0  0
  139.5680   74.2800  222.3500 N   0  0  0  0  0  0  0  0  0  0  0  0
  140.6240   74.8010  221.5230 C   0  0  0  0  0  0  0  0  0  0  0  0
  141.2140   73.9740  220.7780 O   0  0  0  0  0  0  0  0  0  0  0  0
  140.9640   76.2190  221.5730 C   0  0  0  0  0  0  0  0  0  0  0  0
  141.5330   76.7760  220.4420 C   0  0  0  0  0  0  0  0  0  0  0  0
  141.8740   78.1230  220.4420 C   0  0  0  0  0  0  0  0  0  0  0  0
  141.6290   78.8610  221.5830 C   0  0  0  0  0  0  0  0  0  0  0  0
  141.9730   80.1860  221.5600 C   0  0  0  0  0  0  0  0  0  0  0  0
  141.7330   80.9480  222.7030 C   0  0  0  0  0  0  0  0  0  0  0  0
  142.0600   82.2520  222.7080 F   0  0  0  0  0  0  0  0  0  0  0  0
  141.1630   80.3460  223.8060 C   0  0  0  0  0  0  0  0  0  0  0  0
  140.8120   79.0120  223.8420 C   0  0  0  0  0  0  0  0  0  0  0  0
  141.0570   78.2640  222.6930 C   0  0  0  0  0  0  0  0  0  0  0  0
  140.7340   76.9550  222.6740 N   0  0  0  0  0  0  0  0  0  0  0  0
  141.2107   72.4181  228.6338 H   0  0  0  0  0  0  0  0  0  0  0  0
  142.1524   72.3822  227.1045 H   0  0  0  0  0  0  0  0  0  0  0  0
  140.4625   72.9911  227.1045 H   0  0  0  0  0  0  0  0  0  0  0  0
  140.0307   70.7139  229.3452 H   0  0  0  0  0  0  0  0  0  0  0  0
  139.1455   68.3842  229.0576 H   0  0  0  0  0  0  0  0  0  0  0  0
  139.2910   67.3047  226.8325 H   0  0  0  0  0  0  0  0  0  0  0  0
  140.3073   68.4969  224.8980 H   0  0  0  0  0  0  0  0  0  0  0  0
  142.1207   71.7114  225.3192 H   0  0  0  0  0  0  0  0  0  0  0  0
  141.8039   70.3227  224.2146 H   0  0  0  0  0  0  0  0  0  0  0  0
  139.5310   72.2140  224.7870 H   0  0  0  0  0  0  0  0  0  0  0  0
  139.2231   72.6054  221.1549 H   0  0  0  0  0  0  0  0  0  0  0  0
  138.3826   72.6253  222.7611 H   0  0  0  0  0  0  0  0  0  0  0  0
  139.0260   74.8900  222.9970 H   0  0  0  0  0  0  0  0  0  0  0  0
  141.7140   76.1579  219.5502 H   0  0  0  0  0  0  0  0  0  0  0  0
  142.3277   78.5897  219.5553 H   0  0  0  0  0  0  0  0  0  0  0  0
  142.4261   80.6369  220.6648 H   0  0  0  0  0  0  0  0  0  0  0  0
  140.9794   80.9595  224.7004 H   0  0  0  0  0  0  0  0  0  0  0  0
  140.3595   78.5601  224.7370 H   0  0  0  0  0  0  0  0  0  0  0  0
  1  2  1  0
  2  3  2  0
  3  4  1  0
  4  5  2  0
  5  6  1  0
  6  7  2  0
  7  8  1  0
  8  9  1  0
  9 10  1  0
 10 11  2  0
 10 12  1  0
 12 13  1  0
 13 14  1  0
 14 15  2  0
 14 16  1  0
 16 17  2  0
 17 18  1  0
 18 19  2  0
 19 20  1  0
 20 21  2  0
 21 22  1  0
 21 23  1  0
 23 24  2  0
 24 25  1  0
 25 26  2  0
  7  2  1  0
 26 16  1  0
 25 19  1  0
  1 27  1  0
  1 28  1  0
  1 29  1  0
  3 30  1  0
  4 31  1  0
  5 32  1  0
  6 33  1  0
  8 34  1  0
  8 35  1  0
  9 36  1  0
 12 37  1  0
 12 38  1  0
 13 39  1  0
 17 40  1  0
 18 41  1  0
 20 42  1  0
 23 43  1  0
 24 44  1  0
M  END
>  <smiles>  (43) 
Cc1ccccc1CNC(=O)CNC(=O)c1ccc2cc(F)ccc2n1

>  <score_type>  (43) 
oracle

>  <origin>  (43) 
autodockgpu

>  <m_score__min__energy>  (43) 
-8.6199999999999992

>  <m_primary>  (43) 
energy

>  <rmsd>  (43) 
9.033699950158283

>  <m_score__min__rmsd>  (43) 
9.033699950158283

>  <meeko>  (43) 
{"free_energy": -8.48, "intermolecular_energy": -9.97, "internal_energy": -0.96, "cluster_size": 23, "cluster_id": 2, "rank_in_cluster": 11}

>  <energy>  (43) 
-7.66

>  <cluster_rmsd>  (43) 
1.98

>  <cluster>  (43) 
3

$$$$

     RDKit          3D

 44 46  0  0  0  0  0  0  0  0999 V2000
  139.5430   68.5280  226.4820 C   0  0  0  0  0  0  0  0  0  0  0  0
  140.1800   69.8410  226.7370 C   0  0  0  0  0  0  0  0  0  0  0  0
  140.4560   70.1350  228.0780 C   0  0  0  0  0  0  0  0  0  0  0  0
  141.0560   71.3500  228.4190 C   0  0  0  0  0  0  0  0  0  0  0  0
  141.3660   72.2400  227.4140 C   0  0  0  0  0  0  0  0  0  0  0  0
  141.0910   71.9500  226.0750 C   0  0  0  0  0  0  0  0  0  0  0  0
  140.4950   70.7430  225.7440 C   0  0  0  0  0  0  0  0  0  0  0  0
  140.1800   70.3800  224.3380 C   0  0  0  0  0  0  0  0  0  0  0  0
  139.3320   71.3960  223.7320 N   0  0  0  0  0  0  0  0  0  0  0  0
  139.6040   71.9010  222.4340 C   0  0  0  0  0  0  0  0  0  0  0  0
  140.5840   71.4980  221.7490 O   0  0  0  0  0  0  0  0  0  0  0  0
  138.6530   72.9450  221.9190 C   0  0  0  0  0  0  0  0  0  0  0  0
  139.1170   74.2870  222.2200 N   0  0  0  0  0  0  0  0  0  0  0  0
  140.0610   74.8450  221.2890 C   0  0  0  0  0  0  0  0  0  0  0  0
  140.3850   74.1170  220.3140 O   0  0  0  0  0  0  0  0  0  0  0  0
  140.5920   76.1880  221.4970 C   0  0  0  0  0  0  0  0  0  0  0  0
  141.5700   76.6260  220.6240 C   0  0  0  0  0  0  0  0  0  0  0  0
  142.1070   77.8980  220.7810 C   0  0  0  0  0  0  0  0  0  0  0  0
  141.6380   78.6830  221.8150 C   0  0  0  0  0  0  0  0  0  0  0  0
  142.1810   79.9330  221.9510 C   0  0  0  0  0  0  0  0  0  0  0  0
  141.7190   80.7410  222.9900 C   0  0  0  0  0  0  0  0  0  0  0  0
  142.2340   81.9730  223.1480 F   0  0  0  0  0  0  0  0  0  0  0  0
  140.7410   80.2580  223.8350 C   0  0  0  0  0  0  0  0  0  0  0  0
  140.1860   79.0010  223.7090 C   0  0  0  0  0  0  0  0  0  0  0  0
  140.6560   78.2060  222.6670 C   0  0  0  0  0  0  0  0  0  0  0  0
  140.1480   76.9690  222.4970 N   0  0  0  0  0  0  0  0  0  0  0  0
  139.3074   68.0424  227.4405 H   0  0  0  0  0  0  0  0  0  0  0  0
  138.6162   68.6754  225.9081 H   0  0  0  0  0  0  0  0  0  0  0  0
  140.2324   67.8913  225.9081 H   0  0  0  0  0  0  0  0  0  0  0  0
  140.2002   69.4088  228.8637 H   0  0  0  0  0  0  0  0  0  0  0  0
  141.2765   71.5912  229.4693 H   0  0  0  0  0  0  0  0  0  0  0  0
  141.8399   73.1989  227.6710 H   0  0  0  0  0  0  0  0  0  0  0  0
  141.3460   72.6752  225.2882 H   0  0  0  0  0  0  0  0  0  0  0  0
  141.1159   70.2997  223.7655 H   0  0  0  0  0  0  0  0  0  0  0  0
  139.6482   69.4172  224.3275 H   0  0  0  0  0  0  0  0  0  0  0  0
  138.4980   71.7540  224.2850 H   0  0  0  0  0  0  0  0  0  0  0  0
  138.5599   72.8359  220.8284 H   0  0  0  0  0  0  0  0  0  0  0  0
  137.6813   72.7985  222.4134 H   0  0  0  0  0  0  0  0  0  0  0  0
  138.7930   74.8170  223.0570 H   0  0  0  0  0  0  0  0  0  0  0  0
  141.9205   75.9728  219.8113 H   0  0  0  0  0  0  0  0  0  0  0  0
  142.8858   78.2698  220.0989 H   0  0  0  0  0  0  0  0  0  0  0  0
  142.9594   80.2897  221.2604 H   0  0  0  0  0  0  0  0  0  0  0  0
  140.3863   80.9070  224.6492 H   0  0  0  0  0  0  0  0  0  0  0  0
  139.4082   78.6435  224.3998 H   0  0  0  0  0  0  0  0  0  0  0  0
  1  2  1  0
  2  3  2  0
  3  4  1  0
  4  5  2  0
  5  6  1  0
  6  7  2  0
  7  8  1  0
  8  9  1  0
  9 10  1  0
 10 11  2  0
 10 12  1  0
 12 13  1  0
 13 14  1  0
 14 15  2  0
 14 16  1  0
 16 17  2  0
 17 18  1  0
 18 19  2  0
 19 20  1  0
 20 21  2  0
 21 22  1  0
 21 23  1  0
 23 24  2  0
 24 25  1  0
 25 26  2  0
  7  2  1  0
 26 16  1  0
 25 19  1  0
  1 27  1  0
  1 28  1  0
  1 29  1  0
  3 30  1  0
  4 31  1  0
  5 32  1  0
  6 33  1  0
  8 34  1  0
  8 35  1  0
  9 36  1  0
 12 37  1  0
 12 38  1  0
 13 39  1  0
 17 40  1  0
 18 41  1  0
 20 42  1  0
 23 43  1  0
 24 44  1  0
M  END
>  <smiles>  (44) 
Cc1ccccc1CNC(=O)CNC(=O)c1ccc2cc(F)ccc2n1

>  <score_type>  (44) 
oracle

>  <origin>  (44) 
autodockgpu

>  <m_score__min__energy>  (44) 
-8.6199999999999992

>  <m_primary>  (44) 
energy

>  <rmsd>  (44) 
8.501003423401333

>  <m_score__min__rmsd>  (44) 
8.501003423401333

>  <meeko>  (44) 
{"free_energy": -8.53, "intermolecular_energy": -10.02, "internal_energy": -1.06, "cluster_size": 23, "cluster_id": 2, "rank_in_cluster": 9}

>  <energy>  (44) 
-7.55

>  <cluster_rmsd>  (44) 
1.66

>  <cluster>  (44) 
3

$$$$

     RDKit          3D

 44 46  0  0  0  0  0  0  0  0999 V2000
  138.1020   80.1580  223.5590 C   0  0  0  0  0  0  0  0  0  0  0  0
  139.4550   79.5940  223.3410 C   0  0  0  0  0  0  0  0  0  0  0  0
  140.5230   80.4810  223.5260 C   0  0  0  0  0  0  0  0  0  0  0  0
  141.8370   80.0420  223.3450 C   0  0  0  0  0  0  0  0  0  0  0  0
  142.0520   78.7290  222.9840 C   0  0  0  0  0  0  0  0  0  0  0  0
  140.9890   77.8420  222.7980 C   0  0  0  0  0  0  0  0  0  0  0  0
  139.6880   78.2850  222.9800 C   0  0  0  0  0  0  0  0  0  0  0  0
  138.5190   77.3870  222.7970 C   0  0  0  0  0  0  0  0  0  0  0  0
  138.9620   76.0330  222.5000 N   0  0  0  0  0  0  0  0  0  0  0  0
  139.2000   75.6150  221.1640 C   0  0  0  0  0  0  0  0  0  0  0  0
  139.0390   76.3880  220.1800 O   0  0  0  0  0  0  0  0  0  0  0  0
  139.6560   74.1940  220.9890 C   0  0  0  0  0  0  0  0  0  0  0  0
  139.3800   73.3940  222.1680 N   0  0  0  0  0  0  0  0  0  0  0  0
  140.3630   72.3930  222.4880 C   0  0  0  0  0  0  0  0  0  0  0  0
  141.3550   72.3140  221.7170 O   0  0  0  0  0  0  0  0  0  0  0  0
  140.1830   71.5330  223.6530 C   0  0  0  0  0  0  0  0  0  0  0  0
  139.4600   70.3680  223.4760 C   0  0  0  0  0  0  0  0  0  0  0  0
  139.2620   69.5160  224.5560 C   0  0  0  0  0  0  0  0  0  0  0  0
  139.8020   69.8690  225.7760 C   0  0  0  0  0  0  0  0  0  0  0  0
  139.5950   69.0150  226.8260 C   0  0  0  0  0  0  0  0  0  0  0  0
  140.1320   69.3550  228.0670 C   0  0  0  0  0  0  0  0  0  0  0  0
  139.9450   68.5350  229.1160 F   0  0  0  0  0  0  0  0  0  0  0  0
  140.8470   70.5290  228.1920 C   0  0  0  0  0  0  0  0  0  0  0  0
  141.0630   71.3980  227.1420 C   0  0  0  0  0  0  0  0  0  0  0  0
  140.5200   71.0450  225.9100 C   0  0  0  0  0  0  0  0  0  0  0  0
  140.7010   71.8590  224.8500 N   0  0  0  0  0  0  0  0  0  0  0  0
  137.9081   80.2388  224.6388 H   0  0  0  0  0  0  0  0  0  0  0  0
  138.0424   81.1559  223.1000 H   0  0  0  0  0  0  0  0  0  0  0  0
  137.3513   79.4979  223.1000 H   0  0  0  0  0  0  0  0  0  0  0  0
  140.3271   81.5244  223.8141 H   0  0  0  0  0  0  0  0  0  0  0  0
  142.6831   80.7303  223.4877 H   0  0  0  0  0  0  0  0  0  0  0  0
  143.0824   78.3723  222.8393 H   0  0  0  0  0  0  0  0  0  0  0  0
  141.1830   76.7985  222.5089 H   0  0  0  0  0  0  0  0  0  0  0  0
  137.9204   77.3784  223.7198 H   0  0  0  0  0  0  0  0  0  0  0  0
  137.9126   77.7567  221.9570 H   0  0  0  0  0  0  0  0  0  0  0  0
  139.1070   75.3590  223.3080 H   0  0  0  0  0  0  0  0  0  0  0  0
  139.1306   73.7542  220.1285 H   0  0  0  0  0  0  0  0  0  0  0  0
  140.7437   74.2000  220.8249 H   0  0  0  0  0  0  0  0  0  0  0  0
  138.5260   73.5300  222.7500 H   0  0  0  0  0  0  0  0  0  0  0  0
  139.0449   70.1175  222.4886 H   0  0  0  0  0  0  0  0  0  0  0  0
  138.6893   68.5839  224.4413 H   0  0  0  0  0  0  0  0  0  0  0  0
  139.0208   68.0861  226.6941 H   0  0  0  0  0  0  0  0  0  0  0  0
  141.2651   70.7844  229.1768 H   0  0  0  0  0  0  0  0  0  0  0  0
  141.6378   72.3268  227.2726 H   0  0  0  0  0  0  0  0  0  0  0  0
  1  2  1  0
  2  3  2  0
  3  4  1  0
  4  5  2  0
  5  6  1  0
  6  7  2  0
  7  8  1  0
  8  9  1  0
  9 10  1  0
 10 11  2  0
 10 12  1  0
 12 13  1  0
 13 14  1  0
 14 15  2  0
 14 16  1  0
 16 17  2  0
 17 18  1  0
 18 19  2  0
 19 20  1  0
 20 21  2  0
 21 22  1  0
 21 23  1  0
 23 24  2  0
 24 25  1  0
 25 26  2  0
  7  2  1  0
 26 16  1  0
 25 19  1  0
  1 27  1  0
  1 28  1  0
  1 29  1  0
  3 30  1  0
  4 31  1  0
  5 32  1  0
  6 33  1  0
  8 34  1  0
  8 35  1  0
  9 36  1  0
 12 37  1  0
 12 38  1  0
 13 39  1  0
 17 40  1  0
 18 41  1  0
 20 42  1  0
 23 43  1  0
 24 44  1  0
M  END
>  <smiles>  (45) 
Cc1ccccc1CNC(=O)CNC(=O)c1ccc2cc(F)ccc2n1

>  <score_type>  (45) 
oracle

>  <origin>  (45) 
autodockgpu

>  <m_score__min__energy>  (45) 
-8.6199999999999992

>  <m_primary>  (45) 
energy

>  <rmsd>  (45) 
3.022268493769633

>  <m_score__min__rmsd>  (45) 
3.022268493769633

>  <meeko>  (45) 
{"free_energy": -8.5, "intermolecular_energy": -9.99, "internal_energy": -0.9, "cluster_size": 15, "cluster_id": 1, "rank_in_cluster": 5}

>  <energy>  (45) 
-7.38

>  <cluster_rmsd>  (45) 
1.99

>  <cluster>  (45) 
3

$$$$

     RDKit          3D

 44 46  0  0  0  0  0  0  0  0999 V2000
  139.4980   68.5880  226.3870 C   0  0  0  0  0  0  0  0  0  0  0  0
  140.1660   69.8790  226.6760 C   0  0  0  0  0  0  0  0  0  0  0  0
  140.3750   70.1680  228.0300 C   0  0  0  0  0  0  0  0  0  0  0  0
  140.9990   71.3610  228.4030 C   0  0  0  0  0  0  0  0  0  0  0  0
  141.3980   72.2360  227.4150 C   0  0  0  0  0  0  0  0  0  0  0  0
  141.1900   71.9510  226.0630 C   0  0  0  0  0  0  0  0  0  0  0  0
  140.5710   70.7650  225.7010 C   0  0  0  0  0  0  0  0  0  0  0  0
  140.3240   70.4080  224.2800 C   0  0  0  0  0  0  0  0  0  0  0  0
  139.4590   71.3970  223.6540 N   0  0  0  0  0  0  0  0  0  0  0  0
  139.8140   72.0070  222.4220 C   0  0  0  0  0  0  0  0  0  0  0  0
  140.8840   71.7250  221.8170 O   0  0  0  0  0  0  0  0  0  0  0  0
  138.8360   73.0110  221.8780 C   0  0  0  0  0  0  0  0  0  0  0  0
  139.2290   74.3700  222.2000 N   0  0  0  0  0  0  0  0  0  0  0  0
  140.0340   75.0390  221.2130 C   0  0  0  0  0  0  0  0  0  0  0  0
  140.3130   74.3800  220.1760 O   0  0  0  0  0  0  0  0  0  0  0  0
  140.4840   76.4080  221.4370 C   0  0  0  0  0  0  0  0  0  0  0  0
  140.4550   77.2700  220.3560 C   0  0  0  0  0  0  0  0  0  0  0  0
  140.8740   78.5860  220.5190 C   0  0  0  0  0  0  0  0  0  0  0  0
  141.3070   78.9840  221.7690 C   0  0  0  0  0  0  0  0  0  0  0  0
  141.7150   80.2840  221.9070 C   0  0  0  0  0  0  0  0  0  0  0  0
  142.1560   80.7050  223.1610 C   0  0  0  0  0  0  0  0  0  0  0  0
  142.5610   81.9760  223.3260 F   0  0  0  0  0  0  0  0  0  0  0  0
  142.1650   79.8070  224.2080 C   0  0  0  0  0  0  0  0  0  0  0  0
  141.7570   78.4940  224.0820 C   0  0  0  0  0  0  0  0  0  0  0  0
  141.3190   78.0880  222.8240 C   0  0  0  0  0  0  0  0  0  0  0  0
  140.9090   76.8170  222.6450 N   0  0  0  0  0  0  0  0  0  0  0  0
  139.2398   68.0890  227.3327 H   0  0  0  0  0  0  0  0  0  0  0  0
  138.5815   68.7711  225.8069 H   0  0  0  0  0  0  0  0  0  0  0  0
  140.1769   67.9457  225.8069 H   0  0  0  0  0  0  0  0  0  0  0  0
  140.0475   69.4549  228.8009 H   0  0  0  0  0  0  0  0  0  0  0  0
  141.1686   71.5975  229.4638 H   0  0  0  0  0  0  0  0  0  0  0  0
  141.8904   73.1783  227.6970 H   0  0  0  0  0  0  0  0  0  0  0  0
  141.5155   72.6635  225.2908 H   0  0  0  0  0  0  0  0  0  0  0  0
  141.2832   70.3727  223.7427 H   0  0  0  0  0  0  0  0  0  0  0  0
  139.8324   69.4248  224.2382 H   0  0  0  0  0  0  0  0  0  0  0  0
  138.5500   71.6540  224.1400 H   0  0  0  0  0  0  0  0  0  0  0  0
  138.7858   72.9038  220.7844 H   0  0  0  0  0  0  0  0  0  0  0  0
  137.8552   72.8190  222.3376 H   0  0  0  0  0  0  0  0  0  0  0  0
  138.9500   74.8380  223.0890 H   0  0  0  0  0  0  0  0  0  0  0  0
  140.1034   76.9176  219.3751 H   0  0  0  0  0  0  0  0  0  0  0  0
  140.8610   79.2913  219.6750 H   0  0  0  0  0  0  0  0  0  0  0  0
  141.6953   80.9766  221.0526 H   0  0  0  0  0  0  0  0  0  0  0  0
  142.5144   80.1540  225.1916 H   0  0  0  0  0  0  0  0  0  0  0  0
  141.7770   77.8007  224.9358 H   0  0  0  0  0  0  0  0  0  0  0  0
  1  2  1  0
  2  3  2  0
  3  4  1  0
  4  5  2  0
  5  6  1  0
  6  7  2  0
  7  8  1  0
  8  9  1  0
  9 10  1  0
 10 11  2  0
 10 12  1  0
 12 13  1  0
 13 14  1  0
 14 15  2  0
 14 16  1  0
 16 17  2  0
 17 18  1  0
 18 19  2  0
 19 20  1  0
 20 21  2  0
 21 22  1  0
 21 23  1  0
 23 24  2  0
 24 25  1  0
 25 26  2  0
  7  2  1  0
 26 16  1  0
 25 19  1  0
  1 27  1  0
  1 28  1  0
  1 29  1  0
  3 30  1  0
  4 31  1  0
  5 32  1  0
  6 33  1  0
  8 34  1  0
  8 35  1  0
  9 36  1  0
 12 37  1  0
 12 38  1  0
 13 39  1  0
 17 40  1  0
 18 41  1  0
 20 42  1  0
 23 43  1  0
 24 44  1  0
M  END
>  <smiles>  (46) 
Cc1ccccc1CNC(=O)CNC(=O)c1ccc2cc(F)ccc2n1

>  <score_type>  (46) 
oracle

>  <origin>  (46) 
autodockgpu

>  <m_score__min__energy>  (46) 
-8.6199999999999992

>  <m_primary>  (46) 
energy

>  <rmsd>  (46) 
8.519045818580588

>  <m_score__min__rmsd>  (46) 
8.519045818580588

>  <meeko>  (46) 
{"free_energy": -8.36, "intermolecular_energy": -9.85, "internal_energy": -0.95, "cluster_size": 23, "cluster_id": 2, "rank_in_cluster": 14}

>  <energy>  (46) 
-7.13

>  <cluster_rmsd>  (46) 
1.4

>  <cluster>  (46) 
3

$$$$

     RDKit          3D

 44 46  0  0  0  0  0  0  0  0999 V2000
  139.5390   68.4150  226.4550 C   0  0  0  0  0  0  0  0  0  0  0  0
  140.1330   69.7570  226.6600 C   0  0  0  0  0  0  0  0  0  0  0  0
  140.4820   70.0740  227.9790 C   0  0  0  0  0  0  0  0  0  0  0  0
  141.0500   71.3160  228.2730 C   0  0  0  0  0  0  0  0  0  0  0  0
  141.2570   72.2100  227.2440 C   0  0  0  0  0  0  0  0  0  0  0  0
  140.9090   71.8960  225.9280 C   0  0  0  0  0  0  0  0  0  0  0  0
  140.3460   70.6620  225.6430 C   0  0  0  0  0  0  0  0  0  0  0  0
  139.9580   70.2730  224.2630 C   0  0  0  0  0  0  0  0  0  0  0  0
  139.2720   71.3740  223.6020 N   0  0  0  0  0  0  0  0  0  0  0  0
  139.9080   72.1280  222.5810 C   0  0  0  0  0  0  0  0  0  0  0  0
  141.0860   71.8830  222.2010 O   0  0  0  0  0  0  0  0  0  0  0  0
  139.0940   73.2370  221.9760 C   0  0  0  0  0  0  0  0  0  0  0  0
  139.6790   74.5380  222.2450 N   0  0  0  0  0  0  0  0  0  0  0  0
  138.7470   75.6280  222.3670 C   0  0  0  0  0  0  0  0  0  0  0  0
  137.5280   75.3430  222.2290 O   0  0  0  0  0  0  0  0  0  0  0  0
  139.2280   76.9790  222.6370 C   0  0  0  0  0  0  0  0  0  0  0  0
  138.2780   77.9720  222.7880 C   0  0  0  0  0  0  0  0  0  0  0  0
  138.6880   79.2750  223.0470 C   0  0  0  0  0  0  0  0  0  0  0  0
  140.0410   79.5290  223.1430 C   0  0  0  0  0  0  0  0  0  0  0  0
  140.4220   80.8190  223.3980 C   0  0  0  0  0  0  0  0  0  0  0  0
  141.7850   81.0960  223.4980 C   0  0  0  0  0  0  0  0  0  0  0  0
  142.1870   82.3540  223.7490 F   0  0  0  0  0  0  0  0  0  0  0  0
  142.6930   80.0700  223.3390 C   0  0  0  0  0  0  0  0  0  0  0  0
  142.3230   78.7650  223.0820 C   0  0  0  0  0  0  0  0  0  0  0  0
  140.9590   78.5050  222.9850 C   0  0  0  0  0  0  0  0  0  0  0  0
  140.5420   77.2470  222.7350 N   0  0  0  0  0  0  0  0  0  0  0  0
  139.3340   67.9517  227.4314 H   0  0  0  0  0  0  0  0  0  0  0  0
  138.5998   68.5120  225.8907 H   0  0  0  0  0  0  0  0  0  0  0  0
  140.2423   67.7850  225.8907 H   0  0  0  0  0  0  0  0  0  0  0  0
  140.3087   69.3445  228.7839 H   0  0  0  0  0  0  0  0  0  0  0  0
  141.3267   71.5757  229.3055 H   0  0  0  0  0  0  0  0  0  0  0  0
  141.7052   73.1902  227.4637 H   0  0  0  0  0  0  0  0  0  0  0  0
  141.0810   72.6245  225.1220 H   0  0  0  0  0  0  0  0  0  0  0  0
  140.8613   70.0129  223.6917 H   0  0  0  0  0  0  0  0  0  0  0  0
  139.2811   69.4073  224.3121 H   0  0  0  0  0  0  0  0  0  0  0  0
  138.2790   71.6040  223.9010 H   0  0  0  0  0  0  0  0  0  0  0  0
  139.0409   73.0878  220.8875 H   0  0  0  0  0  0  0  0  0  0  0  0
  138.0905   73.2116  222.4257 H   0  0  0  0  0  0  0  0  0  0  0  0
  140.7060   74.6810  222.3440 H   0  0  0  0  0  0  0  0  0  0  0  0
  137.2075   77.7333  222.7040 H   0  0  0  0  0  0  0  0  0  0  0  0
  137.9524   80.0832  223.1722 H   0  0  0  0  0  0  0  0  0  0  0  0
  139.6732   81.6154  223.5207 H   0  0  0  0  0  0  0  0  0  0  0  0
  143.7649   80.3030  223.4210 H   0  0  0  0  0  0  0  0  0  0  0  0
  143.0711   77.9679  222.9596 H   0  0  0  0  0  0  0  0  0  0  0  0
  1  2  1  0
  2  3  2  0
  3  4  1  0
  4  5  2  0
  5  6  1  0
  6  7  2  0
  7  8  1  0
  8  9  1  0
  9 10  1  0
 10 11  2  0
 10 12  1  0
 12 13  1  0
 13 14  1  0
 14 15  2  0
 14 16  1  0
 16 17  2  0
 17 18  1  0
 18 19  2  0
 19 20  1  0
 20 21  2  0
 21 22  1  0
 21 23  1  0
 23 24  2  0
 24 25  1  0
 25 26  2  0
  7  2  1  0
 26 16  1  0
 25 19  1  0
  1 27  1  0
  1 28  1  0
  1 29  1  0
  3 30  1  0
  4 31  1  0
  5 32  1  0
  6 33  1  0
  8 34  1  0
  8 35  1  0
  9 36  1  0
 12 37  1  0
 12 38  1  0
 13 39  1  0
 17 40  1  0
 18 41  1  0
 20 42  1  0
 23 43  1  0
 24 44  1  0
M  END
>  <smiles>  (47) 
Cc1ccccc1CNC(=O)CNC(=O)c1ccc2cc(F)ccc2n1

>  <score_type>  (47) 
oracle

>  <origin>  (47) 
autodockgpu

>  <m_score__min__energy>  (47) 
-8.6199999999999992

>  <m_primary>  (47) 
energy

>  <rmsd>  (47) 
8.652022009721176

>  <m_score__min__rmsd>  (47) 
8.652022009721176

>  <meeko>  (47) 
{"free_energy": -8.14, "intermolecular_energy": -9.63, "internal_energy": -1.13, "cluster_size": 23, "cluster_id": 2, "rank_in_cluster": 18}

>  <energy>  (47) 
-7.71

>  <cluster_rmsd>  (47) 
0.0

>  <cluster>  (47) 
4

$$$$

     RDKit          3D

 44 46  0  0  0  0  0  0  0  0999 V2000
  140.2620   68.2860  227.8580 C   0  0  0  0  0  0  0  0  0  0  0  0
  140.5530   69.6540  227.3680 C   0  0  0  0  0  0  0  0  0  0  0  0
  140.9940   70.5670  228.3350 C   0  0  0  0  0  0  0  0  0  0  0  0
  141.2950   71.8820  227.9700 C   0  0  0  0  0  0  0  0  0  0  0  0
  141.1490   72.2530  226.6510 C   0  0  0  0  0  0  0  0  0  0  0  0
  140.7090   71.3440  225.6840 C   0  0  0  0  0  0  0  0  0  0  0  0
  140.4120   70.0420  226.0530 C   0  0  0  0  0  0  0  0  0  0  0  0
  139.9410   69.0330  225.0700 C   0  0  0  0  0  0  0  0  0  0  0  0
  139.3610   69.6910  223.9090 N   0  0  0  0  0  0  0  0  0  0  0  0
  138.0550   70.2470  223.9570 C   0  0  0  0  0  0  0  0  0  0  0  0
  137.3430   70.1980  224.9970 O   0  0  0  0  0  0  0  0  0  0  0  0
  137.5710   70.9010  222.6930 C   0  0  0  0  0  0  0  0  0  0  0  0
  138.0070   72.2820  222.6030 N   0  0  0  0  0  0  0  0  0  0  0  0
  139.3100   72.4890  222.0280 C   0  0  0  0  0  0  0  0  0  0  0  0
  139.9340   71.4560  221.6650 O   0  0  0  0  0  0  0  0  0  0  0  0
  139.8470   73.8380  221.8910 C   0  0  0  0  0  0  0  0  0  0  0  0
  141.0770   73.9720  221.2740 C   0  0  0  0  0  0  0  0  0  0  0  0
  141.6290   75.2390  221.1190 C   0  0  0  0  0  0  0  0  0  0  0  0
  140.9200   76.3240  221.5930 C   0  0  0  0  0  0  0  0  0  0  0  0
  141.4830   77.5620  221.4300 C   0  0  0  0  0  0  0  0  0  0  0  0
  140.7820   78.6710  221.9030 C   0  0  0  0  0  0  0  0  0  0  0  0
  141.3110   79.8980  221.7550 F   0  0  0  0  0  0  0  0  0  0  0  0
  139.5580   78.4840  222.5110 C   0  0  0  0  0  0  0  0  0  0  0  0
  138.9800   77.2430  222.6810 C   0  0  0  0  0  0  0  0  0  0  0  0
  139.6910   76.1450  222.2050 C   0  0  0  0  0  0  0  0  0  0  0  0
  139.1720   74.9090  222.3450 N   0  0  0  0  0  0  0  0  0  0  0  0
  140.2613   68.2829  228.9580 H   0  0  0  0  0  0  0  0  0  0  0  0
  139.2758   67.9667  227.4899 H   0  0  0  0  0  0  0  0  0  0  0  0
  141.0328   67.5930  227.4899 H   0  0  0  0  0  0  0  0  0  0  0  0
  141.1034   70.2485  229.3822 H   0  0  0  0  0  0  0  0  0  0  0  0
  141.6418   72.6069  228.7212 H   0  0  0  0  0  0  0  0  0  0  0  0
  141.3834   73.2855  226.3527 H   0  0  0  0  0  0  0  0  0  0  0  0
  140.5993   71.6608  224.6363 H   0  0  0  0  0  0  0  0  0  0  0  0
  140.7920   68.4144  224.7490 H   0  0  0  0  0  0  0  0  0  0  0  0
  139.1743   68.4026  225.5440 H   0  0  0  0  0  0  0  0  0  0  0  0
  139.9380   69.7480  223.0190 H   0  0  0  0  0  0  0  0  0  0  0  0
  137.9664   70.3453  221.8300 H   0  0  0  0  0  0  0  0  0  0  0  0
  136.4711   70.8881  222.6994 H   0  0  0  0  0  0  0  0  0  0  0  0
  137.4200   73.0770  222.9320 H   0  0  0  0  0  0  0  0  0  0  0  0
  141.6142   73.0843  220.9089 H   0  0  0  0  0  0  0  0  0  0  0  0
  142.6057   75.3729  220.6311 H   0  0  0  0  0  0  0  0  0  0  0  0
  142.4608   77.6783  220.9397 H   0  0  0  0  0  0  0  0  0  0  0  0
  139.0161   79.3680  222.8784 H   0  0  0  0  0  0  0  0  0  0  0  0
  138.0018   77.1264  223.1704 H   0  0  0  0  0  0  0  0  0  0  0  0
  1  2  1  0
  2  3  2  0
  3  4  1  0
  4  5  2  0
  5  6  1  0
  6  7  2  0
  7  8  1  0
  8  9  1  0
  9 10  1  0
 10 11  2  0
 10 12  1  0
 12 13  1  0
 13 14  1  0
 14 15  2  0
 14 16  1  0
 16 17  2  0
 17 18  1  0
 18 19  2  0
 19 20  1  0
 20 21  2  0
 21 22  1  0
 21 23  1  0
 23 24  2  0
 24 25  1  0
 25 26  2  0
  7  2  1  0
 26 16  1  0
 25 19  1  0
  1 27  1  0
  1 28  1  0
  1 29  1  0
  3 30  1  0
  4 31  1  0
  5 32  1  0
  6 33  1  0
  8 34  1  0
  8 35  1  0
  9 36  1  0
 12 37  1  0
 12 38  1  0
 13 39  1  0
 17 40  1  0
 18 41  1  0
 20 42  1  0
 23 43  1  0
 24 44  1  0
M  END
>  <smiles>  (48) 
Cc1ccccc1CNC(=O)CNC(=O)c1ccc2cc(F)ccc2n1

>  <score_type>  (48) 
oracle

>  <origin>  (48) 
autodockgpu

>  <m_score__min__energy>  (48) 
-8.6199999999999992

>  <m_primary>  (48) 
energy

>  <rmsd>  (48) 
7.8605687340869865

>  <m_score__min__rmsd>  (48) 
7.8605687340869865

>  <meeko>  (48) 
{"free_energy": -7.46, "intermolecular_energy": -8.95, "internal_energy": -2.07, "cluster_size": 23, "cluster_id": 2, "rank_in_cluster": 21}

>  <energy>  (48) 
-7.67

>  <cluster_rmsd>  (48) 
0.16

>  <cluster>  (48) 
4

$$$$

     RDKit          3D

 44 46  0  0  0  0  0  0  0  0999 V2000
  139.6050   68.4470  226.7350 C   0  0  0  0  0  0  0  0  0  0  0  0
  140.2030   69.7990  226.8430 C   0  0  0  0  0  0  0  0  0  0  0  0
  140.5080   70.2280  228.1400 C   0  0  0  0  0  0  0  0  0  0  0  0
  141.0760   71.4880  228.3450 C   0  0  0  0  0  0  0  0  0  0  0  0
  141.3250   72.2880  227.2500 C   0  0  0  0  0  0  0  0  0  0  0  0
  141.0210   71.8620  225.9540 C   0  0  0  0  0  0  0  0  0  0  0  0
  140.4570   70.6110  225.7590 C   0  0  0  0  0  0  0  0  0  0  0  0
  140.1140   70.1050  224.4050 C   0  0  0  0  0  0  0  0  0  0  0  0
  139.2800   71.0690  223.7020 N   0  0  0  0  0  0  0  0  0  0  0  0
  139.8420   71.9870  222.7760 C   0  0  0  0  0  0  0  0  0  0  0  0
  141.0770   72.0110  222.5200 O   0  0  0  0  0  0  0  0  0  0  0  0
  138.8760   72.9300  222.1150 C   0  0  0  0  0  0  0  0  0  0  0  0
  139.2580   74.3160  222.3170 N   0  0  0  0  0  0  0  0  0  0  0  0
  140.2690   74.8210  221.4270 C   0  0  0  0  0  0  0  0  0  0  0  0
  140.7170   74.0150  220.5700 O   0  0  0  0  0  0  0  0  0  0  0  0
  140.7270   76.2020  221.5440 C   0  0  0  0  0  0  0  0  0  0  0  0
  141.5050   76.7010  220.5160 C   0  0  0  0  0  0  0  0  0  0  0  0
  141.9650   78.0110  220.5820 C   0  0  0  0  0  0  0  0  0  0  0  0
  141.6220   78.7710  221.6820 C   0  0  0  0  0  0  0  0  0  0  0  0
  142.0860   80.0590  221.7260 C   0  0  0  0  0  0  0  0  0  0  0  0
  141.7500   80.8420  222.8300 C   0  0  0  0  0  0  0  0  0  0  0  0
  142.1910   82.1100  222.8990 F   0  0  0  0  0  0  0  0  0  0  0  0
  140.9710   80.2970  223.8290 C   0  0  0  0  0  0  0  0  0  0  0  0
  140.4970   79.0010  223.7980 C   0  0  0  0  0  0  0  0  0  0  0  0
  140.8400   78.2320  222.6900 C   0  0  0  0  0  0  0  0  0  0  0  0
  140.4040   76.9590  222.6070 N   0  0  0  0  0  0  0  0  0  0  0  0
  139.4265   68.0435  227.7426 H   0  0  0  0  0  0  0  0  0  0  0  0
  138.6510   68.5104  226.1911 H   0  0  0  0  0  0  0  0  0  0  0  0
  140.2937   67.7838  226.1911 H   0  0  0  0  0  0  0  0  0  0  0  0
  140.3003   69.5726  228.9987 H   0  0  0  0  0  0  0  0  0  0  0  0
  141.3197   71.8349  229.3600 H   0  0  0  0  0  0  0  0  0  0  0  0
  141.7721   73.2819  227.3994 H   0  0  0  0  0  0  0  0  0  0  0  0
  141.2281   72.5157  225.0939 H   0  0  0  0  0  0  0  0  0  0  0  0
  141.0395   69.9410  223.8336 H   0  0  0  0  0  0  0  0  0  0  0  0
  139.5610   69.1595  224.5057 H   0  0  0  0  0  0  0  0  0  0  0  0
  138.2360   71.0730  223.8970 H   0  0  0  0  0  0  0  0  0  0  0  0
  138.8541   72.7196  221.0355 H   0  0  0  0  0  0  0  0  0  0  0  0
  137.8842   72.7777  222.5656 H   0  0  0  0  0  0  0  0  0  0  0  0
  138.8310   74.9120  223.0570 H   0  0  0  0  0  0  0  0  0  0  0  0
  141.7578   76.0669  219.6534 H   0  0  0  0  0  0  0  0  0  0  0  0
  142.5867   78.4315  219.7778 H   0  0  0  0  0  0  0  0  0  0  0  0
  142.7064   80.4645  220.9131 H   0  0  0  0  0  0  0  0  0  0  0  0
  140.7145   80.9266  224.6938 H   0  0  0  0  0  0  0  0  0  0  0  0
  139.8772   78.5950  224.6110 H   0  0  0  0  0  0  0  0  0  0  0  0
  1  2  1  0
  2  3  2  0
  3  4  1  0
  4  5  2  0
  5  6  1  0
  6  7  2  0
  7  8  1  0
  8  9  1  0
  9 10  1  0
 10 11  2  0
 10 12  1  0
 12 13  1  0
 13 14  1  0
 14 15  2  0
 14 16  1  0
 16 17  2  0
 17 18  1  0
 18 19  2  0
 19 20  1  0
 20 21  2  0
 21 22  1  0
 21 23  1  0
 23 24  2  0
 24 25  1  0
 25 26  2  0
  7  2  1  0
 26 16  1  0
 25 19  1  0
  1 27  1  0
  1 28  1  0
  1 29  1  0
  3 30  1  0
  4 31  1  0
  5 32  1  0
  6 33  1  0
  8 34  1  0
  8 35  1  0
  9 36  1  0
 12 37  1  0
 12 38  1  0
 13 39  1  0
 17 40  1  0
 18 41  1  0
 20 42  1  0
 23 43  1  0
 24 44  1  0
M  END
>  <smiles>  (49) 
Cc1ccccc1CNC(=O)CNC(=O)c1ccc2cc(F)ccc2n1

>  <score_type>  (49) 
oracle

>  <origin>  (49) 
autodockgpu

>  <m_score__min__energy>  (49) 
-8.6199999999999992

>  <m_primary>  (49) 
energy

>  <rmsd>  (49) 
8.563123297709485

>  <m_score__min__rmsd>  (49) 
8.563123297709485

>  <meeko>  (49) 
{"free_energy": -8.62, "intermolecular_energy": -10.11, "internal_energy": -1.07, "cluster_size": 23, "cluster_id": 2, "rank_in_cluster": 1}

>  <energy>  (49) 
-7.62

>  <cluster_rmsd>  (49) 
0.27

>  <cluster>  (49) 
4

$$$$

     RDKit          3D

 44 46  0  0  0  0  0  0  0  0999 V2000
  138.8950   80.5440  223.8440 C   0  0  0  0  0  0  0  0  0  0  0  0
  140.2630   80.1140  223.4680 C   0  0  0  0  0  0  0  0  0  0  0  0
  141.2980   80.9780  223.8410 C   0  0  0  0  0  0  0  0  0  0  0  0
  142.6230   80.6590  223.5320 C   0  0  0  0  0  0  0  0  0  0  0  0
  142.8800   79.4850  222.8570 C   0  0  0  0  0  0  0  0  0  0  0  0
  141.8480   78.6200  222.4820 C   0  0  0  0  0  0  0  0  0  0  0  0
  140.5370   78.9440  222.7930 C   0  0  0  0  0  0  0  0  0  0  0  0
  139.4000   78.0640  222.4210 C   0  0  0  0  0  0  0  0  0  0  0  0
  139.8710   76.7110  222.1620 N   0  0  0  0  0  0  0  0  0  0  0  0
  139.1220   75.8140  221.3560 C   0  0  0  0  0  0  0  0  0  0  0  0
  138.0240   76.1420  220.8300 O   0  0  0  0  0  0  0  0  0  0  0  0
  139.7170   74.4470  221.1630 C   0  0  0  0  0  0  0  0  0  0  0  0
  139.5010   73.6010  222.3220 N   0  0  0  0  0  0  0  0  0  0  0  0
  140.3900   72.4770  222.4490 C   0  0  0  0  0  0  0  0  0  0  0  0
  141.2590   72.3430  221.5470 O   0  0  0  0  0  0  0  0  0  0  0  0
  140.2600   71.5610  223.5780 C   0  0  0  0  0  0  0  0  0  0  0  0
  139.6680   70.3360  223.3350 C   0  0  0  0  0  0  0  0  0  0  0  0
  139.5220   69.4290  224.3790 C   0  0  0  0  0  0  0  0  0  0  0  0
  139.9790   69.7920  225.6300 C   0  0  0  0  0  0  0  0  0  0  0  0
  139.8250   68.8840  226.6430 C   0  0  0  0  0  0  0  0  0  0  0  0
  140.2800   69.2320  227.9140 C   0  0  0  0  0  0  0  0  0  0  0  0
  140.1430   68.3590  228.9270 F   0  0  0  0  0  0  0  0  0  0  0  0
  140.8640   70.4670  228.1040 C   0  0  0  0  0  0  0  0  0  0  0  0
  141.0260   71.3920  227.0920 C   0  0  0  0  0  0  0  0  0  0  0  0
  140.5670   71.0300  225.8290 C   0  0  0  0  0  0  0  0  0  0  0  0
  140.6990   71.8950  224.8040 N   0  0  0  0  0  0  0  0  0  0  0  0
  138.8076   80.5715  224.9402 H   0  0  0  0  0  0  0  0  0  0  0  0
  138.7005   81.5466  223.4354 H   0  0  0  0  0  0  0  0  0  0  0  0
  138.1619   79.8330  223.4354 H   0  0  0  0  0  0  0  0  0  0  0  0
  141.0685   81.9100  224.3784 H   0  0  0  0  0  0  0  0  0  0  0  0
  143.4442   81.3311  223.8216 H   0  0  0  0  0  0  0  0  0  0  0  0
  143.9191   79.2233  222.6082 H   0  0  0  0  0  0  0  0  0  0  0  0
  142.0751   77.6881  221.9435 H   0  0  0  0  0  0  0  0  0  0  0  0
  138.6725   78.0432  223.2458 H   0  0  0  0  0  0  0  0  0  0  0  0
  138.9261   78.4581  221.5099 H   0  0  0  0  0  0  0  0  0  0  0  0
  140.7940   76.4060  222.5920 H   0  0  0  0  0  0  0  0  0  0  0  0
  139.2507   73.9756  220.2853 H   0  0  0  0  0  0  0  0  0  0  0  0
  140.8014   74.5615  221.0184 H   0  0  0  0  0  0  0  0  0  0  0  0
  138.7520   73.7900  223.0210 H   0  0  0  0  0  0  0  0  0  0  0  0
  139.3154   70.0807  222.3248 H   0  0  0  0  0  0  0  0  0  0  0  0
  139.0543   68.4474  224.2122 H   0  0  0  0  0  0  0  0  0  0  0  0
  139.3551   67.9066  226.4591 H   0  0  0  0  0  0  0  0  0  0  0  0
  141.2183   70.7280  229.1121 H   0  0  0  0  0  0  0  0  0  0  0  0
  141.4959   72.3695  227.2754 H   0  0  0  0  0  0  0  0  0  0  0  0
  1  2  1  0
  2  3  2  0
  3  4  1  0
  4  5  2  0
  5  6  1  0
  6  7  2  0
  7  8  1  0
  8  9  1  0
  9 10  1  0
 10 11  2  0
 10 12  1  0
 12 13  1  0
 13 14  1  0
 14 15  2  0
 14 16  1  0
 16 17  2  0
 17 18  1  0
 18 19  2  0
 19 20  1  0
 20 21  2  0
 21 22  1  0
 21 23  1  0
 23 24  2  0
 24 25  1  0
 25 26  2  0
  7  2  1  0
 26 16  1  0
 25 19  1  0
  1 27  1  0
  1 28  1  0
  1 29  1  0
  3 30  1  0
  4 31  1  0
  5 32  1  0
  6 33  1  0
  8 34  1  0
  8 35  1  0
  9 36  1  0
 12 37  1  0
 12 38  1  0
 13 39  1  0
 17 40  1  0
 18 41  1  0
 20 42  1  0
 23 43  1  0
 24 44  1  0
M  END
>  <smiles>  (50) 
Cc1ccccc1CNC(=O)CNC(=O)c1ccc2cc(F)ccc2n1

>  <score_type>  (50) 
oracle

>  <origin>  (50) 
autodockgpu

>  <m_score__min__energy>  (50) 
-8.6199999999999992

>  <m_primary>  (50) 
energy

>  <rmsd>  (50) 
3.121085398744572

>  <m_score__min__rmsd>  (50) 
3.121085398744572

>  <meeko>  (50) 
{"free_energy": -8.59, "intermolecular_energy": -10.08, "internal_energy": -0.77, "cluster_size": 15, "cluster_id": 1, "rank_in_cluster": 2}

>  <energy>  (50) 
-7.15

>  <cluster_rmsd>  (50) 
1.29

>  <cluster>  (50) 
4

$$$$
