
     RDKit          3D

 51 54  0  0  0  0  0  0  0  0999 V2000
  141.3820   71.6050  222.2250 O   0  0  0  0  0  0  0  0  0  0  0  0
  140.4530   71.8130  223.0750 C   0  0  0  0  0  0  0  0  0  0  0  0
  139.3820   72.6640  222.7090 N   0  0  0  0  0  0  0  0  0  0  0  0
  139.4110   73.2460  221.3870 C   0  0  0  0  0  0  0  0  0  0  0  0
  140.3350   74.3750  221.2740 C   0  0  0  0  0  0  0  0  0  0  0  0
  141.5730   74.2630  221.4460 O   0  0  0  0  0  0  0  0  0  0  0  0
  139.8410   75.6680  220.9590 N   0  0  0  0  0  0  0  0  0  0  0  0
  140.2070   76.5190  219.8200 C   0  0  0  0  0  0  0  0  0  0  0  0
  138.9400   77.2480  219.4170 C   0  0  0  0  0  0  0  0  0  0  0  0
  137.9570   76.9270  220.5430 C   0  0  0  0  0  0  0  0  0  0  0  0
  138.8490   76.4700  221.6800 C   0  0  2  0  0  0  0  0  0  0  0  0
  139.4630   77.5950  222.3750 C   0  0  0  0  0  0  0  0  0  0  0  0
  140.7710   77.7080  222.7610 C   0  0  0  0  0  0  0  0  0  0  0  0
  141.2690   78.8310  223.4310 C   0  0  0  0  0  0  0  0  0  0  0  0
  140.4370   79.8870  223.7330 C   0  0  0  0  0  0  0  0  0  0  0  0
  139.1200   79.7930  223.3530 C   0  0  0  0  0  0  0  0  0  0  0  0
  138.2310   80.9340  223.6810 C   0  0  0  0  0  0  0  0  0  0  0  0
  138.4940   81.2430  225.0220 F   0  0  0  0  0  0  0  0  0  0  0  0
  138.6680   82.0230  222.9600 F   0  0  0  0  0  0  0  0  0  0  0  0
  136.9010   80.6630  223.5520 F   0  0  0  0  0  0  0  0  0  0  0  0
  138.6380   78.6780  222.6910 C   0  0  0  0  0  0  0  0  0  0  0  0
  140.4970   71.1850  224.3980 C   0  0  0  0  0  0  0  0  0  0  0  0
  141.0540   71.8950  225.4480 C   0  0  0  0  0  0  0  0  0  0  0  0
  141.0910   71.2950  226.6860 C   0  0  0  0  0  0  0  0  0  0  0  0
  140.5860   70.0250  226.8740 C   0  0  0  0  0  0  0  0  0  0  0  0
  140.6190   69.4100  228.1260 C   0  0  0  0  0  0  0  0  0  0  0  0
  140.1110   68.1400  228.2940 C   0  0  0  0  0  0  0  0  0  0  0  0
  139.5550   67.4550  227.2070 C   0  0  0  0  0  0  0  0  0  0  0  0
  139.5250   68.0740  225.9600 C   0  0  0  0  0  0  0  0  0  0  0  0
  140.0330   69.3380  225.7990 C   0  0  0  0  0  0  0  0  0  0  0  0
  139.9970   69.9280  224.5810 N   0  0  0  0  0  0  0  0  0  0  0  0
  138.5870   72.8690  223.3780 H   0  0  0  0  0  0  0  0  0  0  0  0
  139.7178   72.4701  220.6701 H   0  0  0  0  0  0  0  0  0  0  0  0
  138.4012   73.6278  221.1759 H   0  0  0  0  0  0  0  0  0  0  0  0
  140.9844   77.2390  220.1154 H   0  0  0  0  0  0  0  0  0  0  0  0
  140.6114   75.9247  218.9874 H   0  0  0  0  0  0  0  0  0  0  0  0
  139.1168   78.3316  219.3489 H   0  0  0  0  0  0  0  0  0  0  0  0
  138.5687   76.9387  218.4288 H   0  0  0  0  0  0  0  0  0  0  0  0
  137.3834   77.8208  220.8295 H   0  0  0  0  0  0  0  0  0  0  0  0
  137.2120   76.1705  220.2554 H   0  0  0  0  0  0  0  0  0  0  0  0
  138.3198   75.9240  222.4749 H   0  0  0  0  0  0  0  0  0  0  0  0
  141.4602   76.8810  222.5350 H   0  0  0  0  0  0  0  0  0  0  0  0
  142.3301   78.8710  223.7181 H   0  0  0  0  0  0  0  0  0  0  0  0
  140.8145   80.7754  224.2606 H   0  0  0  0  0  0  0  0  0  0  0  0
  137.5763   78.6428  222.4055 H   0  0  0  0  0  0  0  0  0  0  0  0
  141.4549   72.9082  225.2973 H   0  0  0  0  0  0  0  0  0  0  0  0
  141.5295   71.8357  227.5377 H   0  0  0  0  0  0  0  0  0  0  0  0
  141.0535   69.9425  228.9849 H   0  0  0  0  0  0  0  0  0  0  0  0
  140.1425   67.6632  229.2848 H   0  0  0  0  0  0  0  0  0  0  0  0
  139.1473   66.4415  227.3362 H   0  0  0  0  0  0  0  0  0  0  0  0
  139.0910   67.5458  225.0982 H   0  0  0  0  0  0  0  0  0  0  0  0
  1  2  2  0
  2  3  1  0
  3  4  1  0
  4  5  1  0
  5  6  2  0
  5  7  1  0
  7  8  1  0
  8  9  1  0
  9 10  1  0
 10 11  1  0
 11 12  1  0
 12 13  2  0
 13 14  1  0
 14 15  2  0
 15 16  1  0
 16 17  1  0
 17 18  1  0
 17 19  1  0
 17 20  1  0
 16 21  2  0
  2 22  1  0
 22 23  2  0
 23 24  1  0
 24 25  2  0
 25 26  1  0
 26 27  2  0
 27 28  1  0
 28 29  2  0
 29 30  1  0
 30 31  2  0
 11  7  1  0
 21 12  1  0
 31 22  1  0
 30 25  1  0
  3 32  1  0
  4 33  1  0
  4 34  1  0
  8 35  1  0
  8 36  1  0
  9 37  1  0
  9 38  1  0
 10 39  1  0
 10 40  1  0
 11 41  1  1
 13 42  1  0
 14 43  1  0
 15 44  1  0
 21 45  1  0
 23 46  1  0
 24 47  1  0
 26 48  1  0
 27 49  1  0
 28 50  1  0
 29 51  1  0
M  END
>  <smiles>  (1) 
O=C(NCC(=O)N1CCCC1c1cccc(C(F)(F)F)c1)c1ccc2ccccc2n1

>  <score_type>  (1) 
oracle

>  <origin>  (1) 
autodockgpu

>  <m_score__min__energy>  (1) 
-9.5800000000000001

>  <m_primary>  (1) 
energy

>  <rmsd>  (1) 
3.1427646892257877

>  <m_score__min__rmsd>  (1) 
3.1427646892257877

>  <meeko>  (1) 
{"free_energy": -7.83, "intermolecular_energy": -9.62, "internal_energy": -1.31, "cluster_size": 18, "cluster_id": 2, "rank_in_cluster": 17}

>  <energy>  (1) 
-9.58

>  <cluster_rmsd>  (1) 
0.0

>  <cluster>  (1) 
1

$$$$

     RDKit          3D

 51 54  0  0  0  0  0  0  0  0999 V2000
  134.8150   68.1830  224.5320 O   0  0  0  0  0  0  0  0  0  0  0  0
  134.8810   69.3840  224.1070 C   0  0  0  0  0  0  0  0  0  0  0  0
  135.4920   69.6230  222.8520 N   0  0  0  0  0  0  0  0  0  0  0  0
  136.0030   68.4810  222.1280 C   0  0  0  0  0  0  0  0  0  0  0  0
  137.3700   68.1240  222.5070 C   0  0  0  0  0  0  0  0  0  0  0  0
  137.8400   66.9700  222.3580 O   0  0  0  0  0  0  0  0  0  0  0  0
  138.2300   69.1020  223.0720 N   0  0  0  0  0  0  0  0  0  0  0  0
  139.5130   69.5840  222.5470 C   0  0  0  0  0  0  0  0  0  0  0  0
  139.5790   71.0600  222.8930 C   0  0  0  0  0  0  0  0  0  0  0  0
  138.3920   71.2710  223.8310 C   0  0  0  0  0  0  0  0  0  0  0  0
  138.0550   69.8730  224.3060 C   0  0  2  0  0  0  0  0  0  0  0  0
  138.9590   69.4230  225.3590 C   0  0  0  0  0  0  0  0  0  0  0  0
  139.2790   68.1300  225.6700 C   0  0  0  0  0  0  0  0  0  0  0  0
  140.1580   67.7960  226.7070 C   0  0  0  0  0  0  0  0  0  0  0  0
  140.7450   68.7840  227.4670 C   0  0  0  0  0  0  0  0  0  0  0  0
  140.4350   70.0900  227.1690 C   0  0  0  0  0  0  0  0  0  0  0  0
  141.0700   71.1470  227.9930 C   0  0  0  0  0  0  0  0  0  0  0  0
  141.7930   71.9420  227.0930 F   0  0  0  0  0  0  0  0  0  0  0  0
  140.0670   71.9580  228.4750 F   0  0  0  0  0  0  0  0  0  0  0  0
  141.9280   70.6790  228.9420 F   0  0  0  0  0  0  0  0  0  0  0  0
  139.5650   70.4090  226.1430 C   0  0  0  0  0  0  0  0  0  0  0  0
  134.3400   70.4890  224.9020 C   0  0  0  0  0  0  0  0  0  0  0  0
  133.4520   70.1960  225.9240 C   0  0  0  0  0  0  0  0  0  0  0  0
  132.9490   71.2420  226.6630 C   0  0  0  0  0  0  0  0  0  0  0  0
  133.3200   72.5430  226.3940 C   0  0  0  0  0  0  0  0  0  0  0  0
  132.8150   73.6090  227.1390 C   0  0  0  0  0  0  0  0  0  0  0  0
  133.1960   74.9030  226.8540 C   0  0  0  0  0  0  0  0  0  0  0  0
  134.0960   75.1580  225.8140 C   0  0  0  0  0  0  0  0  0  0  0  0
  134.5970   74.0900  225.0740 C   0  0  0  0  0  0  0  0  0  0  0  0
  134.2130   72.8050  225.3610 C   0  0  0  0  0  0  0  0  0  0  0  0
  134.7080   71.7760  224.6330 N   0  0  0  0  0  0  0  0  0  0  0  0
  135.5730   70.6020  222.4550 H   0  0  0  0  0  0  0  0  0  0  0  0
  135.3486   67.6195  222.3268 H   0  0  0  0  0  0  0  0  0  0  0  0
  136.0188   68.7500  221.0615 H   0  0  0  0  0  0  0  0  0  0  0  0
  140.3465   69.0432  223.0191 H   0  0  0  0  0  0  0  0  0  0  0  0
  139.5910   69.4208  221.4620 H   0  0  0  0  0  0  0  0  0  0  0  0
  140.5254   71.3014  223.3990 H   0  0  0  0  0  0  0  0  0  0  0  0
  139.5372   71.7064  222.0039 H   0  0  0  0  0  0  0  0  0  0  0  0
  138.6709   71.9160  224.6773 H   0  0  0  0  0  0  0  0  0  0  0  0
  137.5438   71.7694  223.3388 H   0  0  0  0  0  0  0  0  0  0  0  0
  137.0559   69.7810  224.7569 H   0  0  0  0  0  0  0  0  0  0  0  0
  138.8268   67.3188  225.0806 H   0  0  0  0  0  0  0  0  0  0  0  0
  140.3812   66.7394  226.9162 H   0  0  0  0  0  0  0  0  0  0  0  0
  141.4381   68.5364  228.2844 H   0  0  0  0  0  0  0  0  0  0  0  0
  139.3438   71.4669  225.9381 H   0  0  0  0  0  0  0  0  0  0  0  0
  133.1577   69.1580  226.1384 H   0  0  0  0  0  0  0  0  0  0  0  0
  132.2411   71.0378  227.4798 H   0  0  0  0  0  0  0  0  0  0  0  0
  132.1081   73.4158  227.9593 H   0  0  0  0  0  0  0  0  0  0  0  0
  132.7912   75.7371  227.4460 H   0  0  0  0  0  0  0  0  0  0  0  0
  134.4039   76.1886  225.5837 H   0  0  0  0  0  0  0  0  0  0  0  0
  135.3055   74.2782  224.2538 H   0  0  0  0  0  0  0  0  0  0  0  0
  1  2  2  0
  2  3  1  0
  3  4  1  0
  4  5  1  0
  5  6  2  0
  5  7  1  0
  7  8  1  0
  8  9  1  0
  9 10  1  0
 10 11  1  0
 11 12  1  0
 12 13  2  0
 13 14  1  0
 14 15  2  0
 15 16  1  0
 16 17  1  0
 17 18  1  0
 17 19  1  0
 17 20  1  0
 16 21  2  0
  2 22  1  0
 22 23  2  0
 23 24  1  0
 24 25  2  0
 25 26  1  0
 26 27  2  0
 27 28  1  0
 28 29  2  0
 29 30  1  0
 30 31  2  0
 11  7  1  0
 21 12  1  0
 31 22  1  0
 30 25  1  0
  3 32  1  0
  4 33  1  0
  4 34  1  0
  8 35  1  0
  8 36  1  0
  9 37  1  0
  9 38  1  0
 10 39  1  0
 10 40  1  0
 11 41  1  1
 13 42  1  0
 14 43  1  0
 15 44  1  0
 21 45  1  0
 23 46  1  0
 24 47  1  0
 26 48  1  0
 27 49  1  0
 28 50  1  0
 29 51  1  0
M  END
>  <smiles>  (2) 
O=C(NCC(=O)N1CCCC1c1cccc(C(F)(F)F)c1)c1ccc2ccccc2n1

>  <score_type>  (2) 
oracle

>  <origin>  (2) 
autodockgpu

>  <m_score__min__energy>  (2) 
-9.5800000000000001

>  <m_primary>  (2) 
energy

>  <rmsd>  (2) 
7.357460240808342

>  <m_score__min__rmsd>  (2) 
7.357460240808342

>  <meeko>  (2) 
{"free_energy": -7.26, "intermolecular_energy": -9.05, "internal_energy": -2.15, "cluster_size": 1, "cluster_id": 5, "rank_in_cluster": 1}

>  <energy>  (2) 
-9.57

>  <cluster_rmsd>  (2) 
0.37

>  <cluster>  (2) 
1

$$$$

     RDKit          3D

 51 54  0  0  0  0  0  0  0  0999 V2000
  140.6230   74.0830  220.4980 O   0  0  0  0  0  0  0  0  0  0  0  0
  140.2130   74.9050  221.3830 C   0  0  0  0  0  0  0  0  0  0  0  0
  139.2340   74.4680  222.3090 N   0  0  0  0  0  0  0  0  0  0  0  0
  138.7630   73.1080  222.1910 C   0  0  0  0  0  0  0  0  0  0  0  0
  139.6110   72.1410  222.8870 C   0  0  0  0  0  0  0  0  0  0  0  0
  140.8510   72.2840  223.0090 O   0  0  0  0  0  0  0  0  0  0  0  0
  139.0360   70.9780  223.4640 N   0  0  0  0  0  0  0  0  0  0  0  0
  137.6470   70.7770  223.8920 C   0  0  0  0  0  0  0  0  0  0  0  0
  137.3190   69.3280  223.5840 C   0  0  0  0  0  0  0  0  0  0  0  0
  138.6680   68.7180  223.2060 C   0  0  0  0  0  0  0  0  0  0  0  0
  139.6770   69.6960  223.7730 C   0  0  2  0  0  0  0  0  0  0  0  0
  139.8640   69.5150  225.2080 C   0  0  0  0  0  0  0  0  0  0  0  0
  139.7520   68.3460  225.9090 C   0  0  0  0  0  0  0  0  0  0  0  0
  139.9450   68.2720  227.2940 C   0  0  0  0  0  0  0  0  0  0  0  0
  140.2640   69.4030  228.0130 C   0  0  0  0  0  0  0  0  0  0  0  0
  140.3810   70.5870  227.3260 C   0  0  0  0  0  0  0  0  0  0  0  0
  140.7230   71.8000  228.1070 C   0  0  0  0  0  0  0  0  0  0  0  0
  141.8280   71.4440  228.8910 F   0  0  0  0  0  0  0  0  0  0  0  0
  141.1910   72.7470  227.2230 F   0  0  0  0  0  0  0  0  0  0  0  0
  139.7290   72.2350  228.9320 F   0  0  0  0  0  0  0  0  0  0  0  0
  140.1870   70.6490  225.9580 C   0  0  0  0  0  0  0  0  0  0  0  0
  140.7420   76.2710  221.4360 C   0  0  0  0  0  0  0  0  0  0  0  0
  141.3290   76.7980  220.2990 C   0  0  0  0  0  0  0  0  0  0  0  0
  141.8230   78.0810  220.3610 C   0  0  0  0  0  0  0  0  0  0  0  0
  141.7340   78.8190  221.5230 C   0  0  0  0  0  0  0  0  0  0  0  0
  142.2310   80.1200  221.5940 C   0  0  0  0  0  0  0  0  0  0  0  0
  142.1340   80.8430  222.7650 C   0  0  0  0  0  0  0  0  0  0  0  0
  141.5330   80.2750  223.8930 C   0  0  0  0  0  0  0  0  0  0  0  0
  141.0370   78.9750  223.8160 C   0  0  0  0  0  0  0  0  0  0  0  0
  141.1380   78.2610  222.6490 C   0  0  0  0  0  0  0  0  0  0  0  0
  140.6520   76.9990  222.5880 N   0  0  0  0  0  0  0  0  0  0  0  0
  138.8610   75.1120  223.0620 H   0  0  0  0  0  0  0  0  0  0  0  0
  137.7491   73.0515  222.6138 H   0  0  0  0  0  0  0  0  0  0  0  0
  138.7809   72.8480  221.1223 H   0  0  0  0  0  0  0  0  0  0  0  0
  137.5477   70.9703  224.9703 H   0  0  0  0  0  0  0  0  0  0  0  0
  136.9624   71.4638  223.3727 H   0  0  0  0  0  0  0  0  0  0  0  0
  136.8963   68.8263  224.4669 H   0  0  0  0  0  0  0  0  0  0  0  0
  136.5679   69.2233  222.7872 H   0  0  0  0  0  0  0  0  0  0  0  0
  138.7891   67.7229  223.6590 H   0  0  0  0  0  0  0  0  0  0  0  0
  138.7801   68.5711  222.1216 H   0  0  0  0  0  0  0  0  0  0  0  0
  140.6900   69.5871  223.3583 H   0  0  0  0  0  0  0  0  0  0  0  0
  139.4998   67.4255  225.3621 H   0  0  0  0  0  0  0  0  0  0  0  0
  139.8414   67.3062  227.8103 H   0  0  0  0  0  0  0  0  0  0  0  0
  140.4199   69.3595  229.1010 H   0  0  0  0  0  0  0  0  0  0  0  0
  140.2898   71.6174  225.4464 H   0  0  0  0  0  0  0  0  0  0  0  0
  141.3987   76.2087  219.3728 H   0  0  0  0  0  0  0  0  0  0  0  0
  142.2953   78.5240  219.4718 H   0  0  0  0  0  0  0  0  0  0  0  0
  142.7037   80.5730  220.7101 H   0  0  0  0  0  0  0  0  0  0  0  0
  142.5301   81.8682  222.8116 H   0  0  0  0  0  0  0  0  0  0  0  0
  141.4529   80.8472  224.8291 H   0  0  0  0  0  0  0  0  0  0  0  0
  140.5615   78.5185  224.6966 H   0  0  0  0  0  0  0  0  0  0  0  0
  1  2  2  0
  2  3  1  0
  3  4  1  0
  4  5  1  0
  5  6  2  0
  5  7  1  0
  7  8  1  0
  8  9  1  0
  9 10  1  0
 10 11  1  0
 11 12  1  0
 12 13  2  0
 13 14  1  0
 14 15  2  0
 15 16  1  0
 16 17  1  0
 17 18  1  0
 17 19  1  0
 17 20  1  0
 16 21  2  0
  2 22  1  0
 22 23  2  0
 23 24  1  0
 24 25  2  0
 25 26  1  0
 26 27  2  0
 27 28  1  0
 28 29  2  0
 29 30  1  0
 30 31  2  0
 11  7  1  0
 21 12  1  0
 31 22  1  0
 30 25  1  0
  3 32  1  0
  4 33  1  0
  4 34  1  0
  8 35  1  0
  8 36  1  0
  9 37  1  0
  9 38  1  0
 10 39  1  0
 10 40  1  0
 11 41  1  6
 13 42  1  0
 14 43  1  0
 15 44  1  0
 21 45  1  0
 23 46  1  0
 24 47  1  0
 26 48  1  0
 27 49  1  0
 28 50  1  0
 29 51  1  0
M  END
>  <smiles>  (3) 
O=C(NCC(=O)N1CCCC1c1cccc(C(F)(F)F)c1)c1ccc2ccccc2n1

>  <score_type>  (3) 
oracle

>  <origin>  (3) 
autodockgpu

>  <m_score__min__energy>  (3) 
-9.5800000000000001

>  <m_primary>  (3) 
energy

>  <rmsd>  (3) 
8.398360476351447

>  <m_score__min__rmsd>  (3) 
8.398360476351447

>  <meeko>  (3) 
{"free_energy": -9.21, "intermolecular_energy": -11.0, "internal_energy": -1.51, "cluster_size": 26, "cluster_id": 1, "rank_in_cluster": 7}

>  <energy>  (3) 
-9.53

>  <cluster_rmsd>  (3) 
0.2

>  <cluster>  (3) 
1

$$$$

     RDKit          3D

 51 54  0  0  0  0  0  0  0  0999 V2000
  137.5450   75.8410  222.7390 O   0  0  0  0  0  0  0  0  0  0  0  0
  138.7790   76.0860  222.5260 C   0  0  0  0  0  0  0  0  0  0  0  0
  139.6180   75.0200  222.1190 N   0  0  0  0  0  0  0  0  0  0  0  0
  139.0170   73.7150  221.9710 C   0  0  0  0  0  0  0  0  0  0  0  0
  139.9220   72.6200  222.3200 C   0  0  0  0  0  0  0  0  0  0  0  0
  141.0800   72.5160  221.8500 O   0  0  0  0  0  0  0  0  0  0  0  0
  139.5020   71.6140  223.2290 N   0  0  0  0  0  0  0  0  0  0  0  0
  138.1670   71.4240  223.8090 C   0  0  0  0  0  0  0  0  0  0  0  0
  137.9690   69.9250  223.9240 C   0  0  0  0  0  0  0  0  0  0  0  0
  139.3480   69.3470  223.6090 C   0  0  0  0  0  0  0  0  0  0  0  0
  140.2860   70.5200  223.8110 C   0  0  2  0  0  0  0  0  0  0  0  0
  140.5730   70.7500  225.2220 C   0  0  0  0  0  0  0  0  0  0  0  0
  140.8720   71.9450  225.8160 C   0  0  0  0  0  0  0  0  0  0  0  0
  141.1390   72.0650  227.1840 C   0  0  0  0  0  0  0  0  0  0  0  0
  141.1100   70.9550  227.9990 C   0  0  0  0  0  0  0  0  0  0  0  0
  140.8120   69.7450  227.4210 C   0  0  0  0  0  0  0  0  0  0  0  0
  140.7830   68.5540  228.3050 C   0  0  0  0  0  0  0  0  0  0  0  0
  139.6650   68.7250  229.1310 F   0  0  0  0  0  0  0  0  0  0  0  0
  140.4950   67.4600  227.5190 F   0  0  0  0  0  0  0  0  0  0  0  0
  141.8870   68.4130  229.0920 F   0  0  0  0  0  0  0  0  0  0  0  0
  140.5490   69.6370  226.0670 C   0  0  0  0  0  0  0  0  0  0  0  0
  139.3130   77.4400  222.7000 C   0  0  0  0  0  0  0  0  0  0  0  0
  138.4240   78.4990  222.7560 C   0  0  0  0  0  0  0  0  0  0  0  0
  138.9370   79.7660  222.9190 C   0  0  0  0  0  0  0  0  0  0  0  0
  140.2970   79.9710  223.0240 C   0  0  0  0  0  0  0  0  0  0  0  0
  140.8260   81.2510  223.1900 C   0  0  0  0  0  0  0  0  0  0  0  0
  142.1880   81.4370  223.2920 C   0  0  0  0  0  0  0  0  0  0  0  0
  143.0540   80.3400  223.2320 C   0  0  0  0  0  0  0  0  0  0  0  0
  142.5200   79.0640  223.0660 C   0  0  0  0  0  0  0  0  0  0  0  0
  141.1640   78.8850  222.9640 C   0  0  0  0  0  0  0  0  0  0  0  0
  140.6600   77.6400  222.8040 N   0  0  0  0  0  0  0  0  0  0  0  0
  140.6490   75.1710  221.9300 H   0  0  0  0  0  0  0  0  0  0  0  0
  138.1342   73.6606  222.6249 H   0  0  0  0  0  0  0  0  0  0  0  0
  138.7536   73.5953  220.9097 H   0  0  0  0  0  0  0  0  0  0  0  0
  138.1116   71.8939  224.8021 H   0  0  0  0  0  0  0  0  0  0  0  0
  137.3878   71.8860  223.1850 H   0  0  0  0  0  0  0  0  0  0  0  0
  137.6518   69.6490  224.9405 H   0  0  0  0  0  0  0  0  0  0  0  0
  137.1865   69.5474  223.2493 H   0  0  0  0  0  0  0  0  0  0  0  0
  139.5948   68.5248  224.2968 H   0  0  0  0  0  0  0  0  0  0  0  0
  139.4101   68.9220  222.5963 H   0  0  0  0  0  0  0  0  0  0  0  0
  141.2789   70.3853  223.3570 H   0  0  0  0  0  0  0  0  0  0  0  0
  140.9039   72.8501  225.1917 H   0  0  0  0  0  0  0  0  0  0  0  0
  141.3734   73.0512  227.6111 H   0  0  0  0  0  0  0  0  0  0  0  0
  141.3184   71.0348  229.0761 H   0  0  0  0  0  0  0  0  0  0  0  0
  140.3148   68.6488  225.6443 H   0  0  0  0  0  0  0  0  0  0  0  0
  137.3397   78.3333  222.6727 H   0  0  0  0  0  0  0  0  0  0  0  0
  138.2533   80.6264  222.9662 H   0  0  0  0  0  0  0  0  0  0  0  0
  140.1513   82.1183  223.2399 H   0  0  0  0  0  0  0  0  0  0  0  0
  142.5950   82.4507  223.4209 H   0  0  0  0  0  0  0  0  0  0  0  0
  144.1415   80.4829  223.3147 H   0  0  0  0  0  0  0  0  0  0  0  0
  143.1908   78.1936  223.0164 H   0  0  0  0  0  0  0  0  0  0  0  0
  1  2  2  0
  2  3  1  0
  3  4  1  0
  4  5  1  0
  5  6  2  0
  5  7  1  0
  7  8  1  0
  8  9  1  0
  9 10  1  0
 10 11  1  0
 11 12  1  0
 12 13  2  0
 13 14  1  0
 14 15  2  0
 15 16  1  0
 16 17  1  0
 17 18  1  0
 17 19  1  0
 17 20  1  0
 16 21  2  0
  2 22  1  0
 22 23  2  0
 23 24  1  0
 24 25  2  0
 25 26  1  0
 26 27  2  0
 27 28  1  0
 28 29  2  0
 29 30  1  0
 30 31  2  0
 11  7  1  0
 21 12  1  0
 31 22  1  0
 30 25  1  0
  3 32  1  0
  4 33  1  0
  4 34  1  0
  8 35  1  0
  8 36  1  0
  9 37  1  0
  9 38  1  0
 10 39  1  0
 10 40  1  0
 11 41  1  6
 13 42  1  0
 14 43  1  0
 15 44  1  0
 21 45  1  0
 23 46  1  0
 24 47  1  0
 26 48  1  0
 27 49  1  0
 28 50  1  0
 29 51  1  0
M  END
>  <smiles>  (4) 
O=C(NCC(=O)N1CCCC1c1cccc(C(F)(F)F)c1)c1ccc2ccccc2n1

>  <score_type>  (4) 
oracle

>  <origin>  (4) 
autodockgpu

>  <m_score__min__energy>  (4) 
-9.5800000000000001

>  <m_primary>  (4) 
energy

>  <rmsd>  (4) 
8.552935837275893

>  <m_score__min__rmsd>  (4) 
8.552935837275893

>  <meeko>  (4) 
{"free_energy": -8.56, "intermolecular_energy": -10.35, "internal_energy": -1.67, "cluster_size": 26, "cluster_id": 1, "rank_in_cluster": 20}

>  <energy>  (4) 
-9.27

>  <cluster_rmsd>  (4) 
1.42

>  <cluster>  (4) 
1

$$$$

     RDKit          3D

 51 54  0  0  0  0  0  0  0  0999 V2000
  140.8610   75.1810  220.9080 O   0  0  0  0  0  0  0  0  0  0  0  0
  140.0330   75.6280  221.7700 C   0  0  0  0  0  0  0  0  0  0  0  0
  138.9840   74.7800  222.2030 N   0  0  0  0  0  0  0  0  0  0  0  0
  138.9210   73.4530  221.6360 C   0  0  0  0  0  0  0  0  0  0  0  0
  139.8500   72.5130  222.2640 C   0  0  0  0  0  0  0  0  0  0  0  0
  141.0750   72.4830  221.9940 O   0  0  0  0  0  0  0  0  0  0  0  0
  139.3770   71.5820  223.2250 N   0  0  0  0  0  0  0  0  0  0  0  0
  138.0430   71.5150  223.8340 C   0  0  0  0  0  0  0  0  0  0  0  0
  137.7410   70.0400  224.0210 C   0  0  0  0  0  0  0  0  0  0  0  0
  139.0690   69.3510  223.7100 C   0  0  0  0  0  0  0  0  0  0  0  0
  140.0910   70.4610  223.8430 C   0  0  2  0  0  0  0  0  0  0  0  0
  140.4220   70.7330  225.2380 C   0  0  0  0  0  0  0  0  0  0  0  0
  140.9260   71.8960  225.7510 C   0  0  0  0  0  0  0  0  0  0  0  0
  141.2170   72.0600  227.1100 C   0  0  0  0  0  0  0  0  0  0  0  0
  141.0000   71.0290  227.9980 C   0  0  0  0  0  0  0  0  0  0  0  0
  140.4930   69.8520  227.5010 C   0  0  0  0  0  0  0  0  0  0  0  0
  140.2620   68.7470  228.4630 C   0  0  0  0  0  0  0  0  0  0  0  0
  139.3540   69.2500  229.4040 F   0  0  0  0  0  0  0  0  0  0  0  0
  139.5860   67.7500  227.7960 F   0  0  0  0  0  0  0  0  0  0  0  0
  141.3830   68.3330  229.1200 F   0  0  0  0  0  0  0  0  0  0  0  0
  140.2090   69.7000  226.1560 C   0  0  0  0  0  0  0  0  0  0  0  0
  140.1650   76.9900  222.2970 C   0  0  0  0  0  0  0  0  0  0  0  0
  139.0200   77.6620  222.6860 C   0  0  0  0  0  0  0  0  0  0  0  0
  139.1560   78.9400  223.1780 C   0  0  0  0  0  0  0  0  0  0  0  0
  140.3980   79.5310  223.2800 C   0  0  0  0  0  0  0  0  0  0  0  0
  140.5450   80.8260  223.7790 C   0  0  0  0  0  0  0  0  0  0  0  0
  141.7950   81.4010  223.8730 C   0  0  0  0  0  0  0  0  0  0  0  0
  142.9290   80.6880  223.4700 C   0  0  0  0  0  0  0  0  0  0  0  0
  142.7760   79.3950  222.9730 C   0  0  0  0  0  0  0  0  0  0  0  0
  141.5300   78.8290  222.8810 C   0  0  0  0  0  0  0  0  0  0  0  0
  141.3960   77.5720  222.3970 N   0  0  0  0  0  0  0  0  0  0  0  0
  138.2710   75.1040  222.9160 H   0  0  0  0  0  0  0  0  0  0  0  0
  137.8978   73.0684  221.7593 H   0  0  0  0  0  0  0  0  0  0  0  0
  139.2064   73.5362  220.5769 H   0  0  0  0  0  0  0  0  0  0  0  0
  138.0400   72.0317  224.8051 H   0  0  0  0  0  0  0  0  0  0  0  0
  137.2870   72.0036  223.2018 H   0  0  0  0  0  0  0  0  0  0  0  0
  137.4252   69.8330  225.0542 H   0  0  0  0  0  0  0  0  0  0  0  0
  136.9204   69.6900  223.3775 H   0  0  0  0  0  0  0  0  0  0  0  0
  139.2703   68.5445  224.4304 H   0  0  0  0  0  0  0  0  0  0  0  0
  139.0809   68.8782  222.7169 H   0  0  0  0  0  0  0  0  0  0  0  0
  141.0623   70.2342  223.3792 H   0  0  0  0  0  0  0  0  0  0  0  0
  141.1104   72.7376  225.0671 H   0  0  0  0  0  0  0  0  0  0  0  0
  141.6212   73.0172  227.4713 H   0  0  0  0  0  0  0  0  0  0  0  0
  141.2249   71.1440  229.0686 H   0  0  0  0  0  0  0  0  0  0  0  0
  139.8049   68.7412  225.7990 H   0  0  0  0  0  0  0  0  0  0  0  0
  138.0303   77.1889  222.6045 H   0  0  0  0  0  0  0  0  0  0  0  0
  138.2621   79.4977  223.4942 H   0  0  0  0  0  0  0  0  0  0  0  0
  139.6579   81.3919  224.0995 H   0  0  0  0  0  0  0  0  0  0  0  0
  141.9005   82.4230  224.2659 H   0  0  0  0  0  0  0  0  0  0  0  0
  143.9282   81.1419  223.5444 H   0  0  0  0  0  0  0  0  0  0  0  0
  143.6603   78.8246  222.6524 H   0  0  0  0  0  0  0  0  0  0  0  0
  1  2  2  0
  2  3  1  0
  3  4  1  0
  4  5  1  0
  5  6  2  0
  5  7  1  0
  7  8  1  0
  8  9  1  0
  9 10  1  0
 10 11  1  0
 11 12  1  0
 12 13  2  0
 13 14  1  0
 14 15  2  0
 15 16  1  0
 16 17  1  0
 17 18  1  0
 17 19  1  0
 17 20  1  0
 16 21  2  0
  2 22  1  0
 22 23  2  0
 23 24  1  0
 24 25  2  0
 25 26  1  0
 26 27  2  0
 27 28  1  0
 28 29  2  0
 29 30  1  0
 30 31  2  0
 11  7  1  0
 21 12  1  0
 31 22  1  0
 30 25  1  0
  3 32  1  0
  4 33  1  0
  4 34  1  0
  8 35  1  0
  8 36  1  0
  9 37  1  0
  9 38  1  0
 10 39  1  0
 10 40  1  0
 11 41  1  6
 13 42  1  0
 14 43  1  0
 15 44  1  0
 21 45  1  0
 23 46  1  0
 24 47  1  0
 26 48  1  0
 27 49  1  0
 28 50  1  0
 29 51  1  0
M  END
>  <smiles>  (5) 
O=C(NCC(=O)N1CCCC1c1cccc(C(F)(F)F)c1)c1ccc2ccccc2n1

>  <score_type>  (5) 
oracle

>  <origin>  (5) 
autodockgpu

>  <m_score__min__energy>  (5) 
-9.5800000000000001

>  <m_primary>  (5) 
energy

>  <rmsd>  (5) 
8.352309711634259

>  <m_score__min__rmsd>  (5) 
8.352309711634259

>  <meeko>  (5) 
{"free_energy": -9.27, "intermolecular_energy": -11.06, "internal_energy": -1.34, "cluster_size": 26, "cluster_id": 1, "rank_in_cluster": 4}

>  <energy>  (5) 
-9.26

>  <cluster_rmsd>  (5) 
0.92

>  <cluster>  (5) 
1

$$$$

     RDKit          3D

 51 54  0  0  0  0  0  0  0  0999 V2000
  141.1980   76.8490  218.3170 O   0  0  0  0  0  0  0  0  0  0  0  0
  141.6980   77.6230  219.2000 C   0  0  0  0  0  0  0  0  0  0  0  0
  142.1950   77.0510  220.3960 N   0  0  0  0  0  0  0  0  0  0  0  0
  142.1030   75.6160  220.5390 C   0  0  0  0  0  0  0  0  0  0  0  0
  140.9930   75.1920  221.3930 C   0  0  0  0  0  0  0  0  0  0  0  0
  141.0090   74.1250  222.0530 O   0  0  0  0  0  0  0  0  0  0  0  0
  139.8310   76.0010  221.5020 N   0  0  0  0  0  0  0  0  0  0  0  0
  138.9930   76.5240  220.4160 C   0  0  0  0  0  0  0  0  0  0  0  0
  137.5700   76.5060  220.9400 C   0  0  0  0  0  0  0  0  0  0  0  0
  137.7280   76.1830  222.4250 C   0  0  0  0  0  0  0  0  0  0  0  0
  139.1800   76.5100  222.7120 C   0  0  2  0  0  0  0  0  0  0  0  0
  139.3920   77.9430  222.8790 C   0  0  0  0  0  0  0  0  0  0  0  0
  138.4300   78.9060  223.0120 C   0  0  0  0  0  0  0  0  0  0  0  0
  138.7320   80.2640  223.1640 C   0  0  0  0  0  0  0  0  0  0  0  0
  140.0440   80.6860  223.1860 C   0  0  0  0  0  0  0  0  0  0  0  0
  141.0250   79.7330  223.0550 C   0  0  0  0  0  0  0  0  0  0  0  0
  142.4340   80.1960  223.0800 C   0  0  0  0  0  0  0  0  0  0  0  0
  143.2020   79.0870  222.7000 F   0  0  0  0  0  0  0  0  0  0  0  0
  142.5880   81.1140  222.0660 F   0  0  0  0  0  0  0  0  0  0  0  0
  142.8630   80.6200  224.3020 F   0  0  0  0  0  0  0  0  0  0  0  0
  140.7150   78.3940  222.9050 C   0  0  0  0  0  0  0  0  0  0  0  0
  141.7540   79.0710  218.9790 C   0  0  0  0  0  0  0  0  0  0  0  0
  142.6160   79.5600  218.0120 C   0  0  0  0  0  0  0  0  0  0  0  0
  142.6610   80.9210  217.8150 C   0  0  0  0  0  0  0  0  0  0  0  0
  141.8700   81.7710  218.5590 C   0  0  0  0  0  0  0  0  0  0  0  0
  141.9090   83.1520  218.3650 C   0  0  0  0  0  0  0  0  0  0  0  0
  141.1110   83.9870  219.1190 C   0  0  0  0  0  0  0  0  0  0  0  0
  140.2530   83.4540  220.0860 C   0  0  0  0  0  0  0  0  0  0  0  0
  140.2180   82.0740  220.2750 C   0  0  0  0  0  0  0  0  0  0  0  0
  141.0140   81.2490  219.5230 C   0  0  0  0  0  0  0  0  0  0  0  0
  140.9700   79.9110  219.7170 N   0  0  0  0  0  0  0  0  0  0  0  0
  142.6190   77.6490  221.1600 H   0  0  0  0  0  0  0  0  0  0  0  0
  141.9655   75.1733  219.5414 H   0  0  0  0  0  0  0  0  0  0  0  0
  143.0327   75.2748  221.0178 H   0  0  0  0  0  0  0  0  0  0  0  0
  139.2937   77.5511  220.1620 H   0  0  0  0  0  0  0  0  0  0  0  0
  139.0936   75.9193  219.5026 H   0  0  0  0  0  0  0  0  0  0  0  0
  137.0898   77.4860  220.8018 H   0  0  0  0  0  0  0  0  0  0  0  0
  136.9338   75.7792  220.4136 H   0  0  0  0  0  0  0  0  0  0  0  0
  137.0577   76.8060  223.0353 H   0  0  0  0  0  0  0  0  0  0  0  0
  137.4708   75.1405  222.6640 H   0  0  0  0  0  0  0  0  0  0  0  0
  139.5623   76.0744  223.6469 H   0  0  0  0  0  0  0  0  0  0  0  0
  137.3735   78.6000  222.9989 H   0  0  0  0  0  0  0  0  0  0  0  0
  137.9189   80.9978  223.2664 H   0  0  0  0  0  0  0  0  0  0  0  0
  140.2971   81.7499  223.3045 H   0  0  0  0  0  0  0  0  0  0  0  0
  141.5314   77.6638  222.8034 H   0  0  0  0  0  0  0  0  0  0  0  0
  143.2460   78.8807  217.4190 H   0  0  0  0  0  0  0  0  0  0  0  0
  143.3372   81.3368  217.0536 H   0  0  0  0  0  0  0  0  0  0  0  0
  142.5809   83.5780  217.6054 H   0  0  0  0  0  0  0  0  0  0  0  0
  141.1496   85.0747  218.9593 H   0  0  0  0  0  0  0  0  0  0  0  0
  139.6141   84.1155  220.6895 H   0  0  0  0  0  0  0  0  0  0  0  0
  139.5470   81.6434  221.0329 H   0  0  0  0  0  0  0  0  0  0  0  0
  1  2  2  0
  2  3  1  0
  3  4  1  0
  4  5  1  0
  5  6  2  0
  5  7  1  0
  7  8  1  0
  8  9  1  0
  9 10  1  0
 10 11  1  0
 11 12  1  0
 12 13  2  0
 13 14  1  0
 14 15  2  0
 15 16  1  0
 16 17  1  0
 17 18  1  0
 17 19  1  0
 17 20  1  0
 16 21  2  0
  2 22  1  0
 22 23  2  0
 23 24  1  0
 24 25  2  0
 25 26  1  0
 26 27  2  0
 27 28  1  0
 28 29  2  0
 29 30  1  0
 30 31  2  0
 11  7  1  0
 21 12  1  0
 31 22  1  0
 30 25  1  0
  3 32  1  0
  4 33  1  0
  4 34  1  0
  8 35  1  0
  8 36  1  0
  9 37  1  0
  9 38  1  0
 10 39  1  0
 10 40  1  0
 11 41  1  1
 13 42  1  0
 14 43  1  0
 15 44  1  0
 21 45  1  0
 23 46  1  0
 24 47  1  0
 26 48  1  0
 27 49  1  0
 28 50  1  0
 29 51  1  0
M  END
>  <smiles>  (6) 
O=C(NCC(=O)N1CCCC1c1cccc(C(F)(F)F)c1)c1ccc2ccccc2n1

>  <score_type>  (6) 
oracle

>  <origin>  (6) 
autodockgpu

>  <m_score__min__energy>  (6) 
-9.5800000000000001

>  <m_primary>  (6) 
energy

>  <rmsd>  (6) 
9.800531170070535

>  <m_score__min__rmsd>  (6) 
9.800531170070535

>  <meeko>  (6) 
{"free_energy": -6.07, "intermolecular_energy": -7.86, "internal_energy": -2.96, "cluster_size": 1, "cluster_id": 6, "rank_in_cluster": 1}

>  <energy>  (6) 
-9.22

>  <cluster_rmsd>  (6) 
0.92

>  <cluster>  (6) 
1

$$$$

     RDKit          3D

 51 54  0  0  0  0  0  0  0  0999 V2000
  140.9570   73.7580  220.9350 O   0  0  0  0  0  0  0  0  0  0  0  0
  140.2700   74.6490  221.5390 C   0  0  0  0  0  0  0  0  0  0  0  0
  139.0900   74.2490  222.2140 N   0  0  0  0  0  0  0  0  0  0  0  0
  138.7410   72.8470  222.1750 C   0  0  0  0  0  0  0  0  0  0  0  0
  139.5600   72.0240  223.0660 C   0  0  0  0  0  0  0  0  0  0  0  0
  140.7620   72.2810  223.3170 O   0  0  0  0  0  0  0  0  0  0  0  0
  139.0010   70.8780  223.6890 N   0  0  0  0  0  0  0  0  0  0  0  0
  137.6260   70.6950  224.1700 C   0  0  0  0  0  0  0  0  0  0  0  0
  137.2800   69.2420  223.9080 C   0  0  0  0  0  0  0  0  0  0  0  0
  138.6120   68.6160  223.4960 C   0  0  0  0  0  0  0  0  0  0  0  0
  139.6460   69.6010  224.0050 C   0  0  2  0  0  0  0  0  0  0  0  0
  139.8820   69.4510  225.4360 C   0  0  0  0  0  0  0  0  0  0  0  0
  139.8240   68.2940  226.1620 C   0  0  0  0  0  0  0  0  0  0  0  0
  140.0620   68.2510  227.5400 C   0  0  0  0  0  0  0  0  0  0  0  0
  140.3720   69.4040  228.2290 C   0  0  0  0  0  0  0  0  0  0  0  0
  140.4350   70.5770  227.5170 C   0  0  0  0  0  0  0  0  0  0  0  0
  140.7680   71.8140  228.2660 C   0  0  0  0  0  0  0  0  0  0  0  0
  141.8770   71.4880  229.0570 F   0  0  0  0  0  0  0  0  0  0  0  0
  141.2260   72.7400  227.3550 F   0  0  0  0  0  0  0  0  0  0  0  0
  139.7710   72.2610  229.0800 F   0  0  0  0  0  0  0  0  0  0  0  0
  140.1970   70.6080  226.1550 C   0  0  0  0  0  0  0  0  0  0  0  0
  140.6920   76.0520  221.5300 C   0  0  0  0  0  0  0  0  0  0  0  0
  140.7230   76.7250  220.3210 C   0  0  0  0  0  0  0  0  0  0  0  0
  141.1220   78.0420  220.3240 C   0  0  0  0  0  0  0  0  0  0  0  0
  141.4790   78.6710  221.4990 C   0  0  0  0  0  0  0  0  0  0  0  0
  141.8840   80.0060  221.5120 C   0  0  0  0  0  0  0  0  0  0  0  0
  142.2390   80.6180  222.6960 C   0  0  0  0  0  0  0  0  0  0  0  0
  142.1930   79.9030  223.8970 C   0  0  0  0  0  0  0  0  0  0  0  0
  141.7880   78.5700  223.8780 C   0  0  0  0  0  0  0  0  0  0  0  0
  141.4380   77.9670  222.6980 C   0  0  0  0  0  0  0  0  0  0  0  0
  141.0450   76.6720  222.6940 N   0  0  0  0  0  0  0  0  0  0  0  0
  138.4850   74.9480  222.7290 H   0  0  0  0  0  0  0  0  0  0  0  0
  137.6870   72.7407  222.4714 H   0  0  0  0  0  0  0  0  0  0  0  0
  138.9191   72.4942  221.1484 H   0  0  0  0  0  0  0  0  0  0  0  0
  137.5655   70.9140  225.2463 H   0  0  0  0  0  0  0  0  0  0  0  0
  136.9272   71.3735  223.6588 H   0  0  0  0  0  0  0  0  0  0  0  0
  136.8870   68.7632  224.8170 H   0  0  0  0  0  0  0  0  0  0  0  0
  136.5000   69.1230  223.1415 H   0  0  0  0  0  0  0  0  0  0  0  0
  138.7443   67.6306  223.9665 H   0  0  0  0  0  0  0  0  0  0  0  0
  138.6847   68.4445  222.4119 H   0  0  0  0  0  0  0  0  0  0  0  0
  140.6436   69.4774  223.5583 H   0  0  0  0  0  0  0  0  0  0  0  0
  139.5798   67.3568  225.6404 H   0  0  0  0  0  0  0  0  0  0  0  0
  140.0015   67.2925  228.0762 H   0  0  0  0  0  0  0  0  0  0  0  0
  140.5624   69.3854  229.3122 H   0  0  0  0  0  0  0  0  0  0  0  0
  140.2572   71.5689  225.6230 H   0  0  0  0  0  0  0  0  0  0  0  0
  140.4372   76.2220  219.3854 H   0  0  0  0  0  0  0  0  0  0  0  0
  141.1568   78.6007  219.3771 H   0  0  0  0  0  0  0  0  0  0  0  0
  141.9205   80.5747  220.5711 H   0  0  0  0  0  0  0  0  0  0  0  0
  142.5589   81.6705  222.6956 H   0  0  0  0  0  0  0  0  0  0  0  0
  142.4729   80.3868  224.8444 H   0  0  0  0  0  0  0  0  0  0  0  0
  141.7489   77.9976  224.8165 H   0  0  0  0  0  0  0  0  0  0  0  0
  1  2  2  0
  2  3  1  0
  3  4  1  0
  4  5  1  0
  5  6  2  0
  5  7  1  0
  7  8  1  0
  8  9  1  0
  9 10  1  0
 10 11  1  0
 11 12  1  0
 12 13  2  0
 13 14  1  0
 14 15  2  0
 15 16  1  0
 16 17  1  0
 17 18  1  0
 17 19  1  0
 17 20  1  0
 16 21  2  0
  2 22  1  0
 22 23  2  0
 23 24  1  0
 24 25  2  0
 25 26  1  0
 26 27  2  0
 27 28  1  0
 28 29  2  0
 29 30  1  0
 30 31  2  0
 11  7  1  0
 21 12  1  0
 31 22  1  0
 30 25  1  0
  3 32  1  0
  4 33  1  0
  4 34  1  0
  8 35  1  0
  8 36  1  0
  9 37  1  0
  9 38  1  0
 10 39  1  0
 10 40  1  0
 11 41  1  6
 13 42  1  0
 14 43  1  0
 15 44  1  0
 21 45  1  0
 23 46  1  0
 24 47  1  0
 26 48  1  0
 27 49  1  0
 28 50  1  0
 29 51  1  0
M  END
>  <smiles>  (7) 
O=C(NCC(=O)N1CCCC1c1cccc(C(F)(F)F)c1)c1ccc2ccccc2n1

>  <score_type>  (7) 
oracle

>  <origin>  (7) 
autodockgpu

>  <m_score__min__energy>  (7) 
-9.5800000000000001

>  <m_primary>  (7) 
energy

>  <rmsd>  (7) 
8.374311634620334

>  <m_score__min__rmsd>  (7) 
8.374311634620334

>  <meeko>  (7) 
{"free_energy": -9.26, "intermolecular_energy": -11.05, "internal_energy": -1.34, "cluster_size": 26, "cluster_id": 1, "rank_in_cluster": 5}

>  <energy>  (7) 
-9.21

>  <cluster_rmsd>  (7) 
0.92

>  <cluster>  (7) 
1

$$$$

     RDKit          3D

 51 54  0  0  0  0  0  0  0  0999 V2000
  140.9140   71.1430  221.4330 O   0  0  0  0  0  0  0  0  0  0  0  0
  140.3770   71.6390  222.4790 C   0  0  0  0  0  0  0  0  0  0  0  0
  139.9970   73.0030  222.4620 N   0  0  0  0  0  0  0  0  0  0  0  0
  140.2440   73.7500  221.2500 C   0  0  0  0  0  0  0  0  0  0  0  0
  140.0790   75.1940  221.4190 C   0  0  0  0  0  0  0  0  0  0  0  0
  139.5920   75.7080  222.4550 O   0  0  0  0  0  0  0  0  0  0  0  0
  140.4780   76.0810  220.3850 N   0  0  0  0  0  0  0  0  0  0  0  0
  141.6210   75.9460  219.4740 C   0  0  0  0  0  0  0  0  0  0  0  0
  141.1640   76.5110  218.1420 C   0  0  0  0  0  0  0  0  0  0  0  0
  139.8210   77.1670  218.4620 C   0  0  0  0  0  0  0  0  0  0  0  0
  139.8550   77.3400  219.9670 C   0  0  2  0  0  0  0  0  0  0  0  0
  140.6500   78.4960  220.3650 C   0  0  0  0  0  0  0  0  0  0  0  0
  141.3340   79.3460  219.5390 C   0  0  0  0  0  0  0  0  0  0  0  0
  142.0780   80.4310  220.0170 C   0  0  0  0  0  0  0  0  0  0  0  0
  142.1470   80.6860  221.3690 C   0  0  0  0  0  0  0  0  0  0  0  0
  141.4650   79.8440  222.2150 C   0  0  0  0  0  0  0  0  0  0  0  0
  141.5440   80.1250  223.6690 C   0  0  0  0  0  0  0  0  0  0  0  0
  141.7960   78.8890  224.2780 F   0  0  0  0  0  0  0  0  0  0  0  0
  142.6770   80.8790  223.8860 F   0  0  0  0  0  0  0  0  0  0  0  0
  140.4030   80.6460  224.2010 F   0  0  0  0  0  0  0  0  0  0  0  0
  140.7340   78.7740  221.7320 C   0  0  0  0  0  0  0  0  0  0  0  0
  140.1610   70.8130  223.6710 C   0  0  0  0  0  0  0  0  0  0  0  0
  139.4410   69.6380  223.5390 C   0  0  0  0  0  0  0  0  0  0  0  0
  139.2430   68.8720  224.6650 C   0  0  0  0  0  0  0  0  0  0  0  0
  139.7490   69.2640  225.8870 C   0  0  0  0  0  0  0  0  0  0  0  0
  139.5540   68.4930  227.0330 C   0  0  0  0  0  0  0  0  0  0  0  0
  140.0660   68.9010  228.2460 C   0  0  0  0  0  0  0  0  0  0  0  0
  140.7890   70.0950  228.3370 C   0  0  0  0  0  0  0  0  0  0  0  0
  140.9810   70.8610  227.1900 C   0  0  0  0  0  0  0  0  0  0  0  0
  140.4680   70.4500  225.9860 C   0  0  0  0  0  0  0  0  0  0  0  0
  140.6620   71.2040  224.8790 N   0  0  0  0  0  0  0  0  0  0  0  0
  139.5480   73.4620  223.3040 H   0  0  0  0  0  0  0  0  0  0  0  0
  141.2749   73.5520  220.9213 H   0  0  0  0  0  0  0  0  0  0  0  0
  139.5029   73.4211  220.5066 H   0  0  0  0  0  0  0  0  0  0  0  0
  142.4824   76.5144  219.8548 H   0  0  0  0  0  0  0  0  0  0  0  0
  141.9384   74.8971  219.3789 H   0  0  0  0  0  0  0  0  0  0  0  0
  141.8823   77.2538  217.7648 H   0  0  0  0  0  0  0  0  0  0  0  0
  141.0846   75.7417  217.3598 H   0  0  0  0  0  0  0  0  0  0  0  0
  139.7297   78.1401  217.9573 H   0  0  0  0  0  0  0  0  0  0  0  0
  138.9628   76.5694  218.1210 H   0  0  0  0  0  0  0  0  0  0  0  0
  138.8699   77.5276  220.4192 H   0  0  0  0  0  0  0  0  0  0  0  0
  141.2976   79.1692  218.4539 H   0  0  0  0  0  0  0  0  0  0  0  0
  142.6104   81.0835  219.3093 H   0  0  0  0  0  0  0  0  0  0  0  0
  142.7283   81.5348  221.7585 H   0  0  0  0  0  0  0  0  0  0  0  0
  140.2040   78.1237  222.4435 H   0  0  0  0  0  0  0  0  0  0  0  0
  139.0393   69.3261  222.5636 H   0  0  0  0  0  0  0  0  0  0  0  0
  138.6733   67.9340  224.5896 H   0  0  0  0  0  0  0  0  0  0  0  0
  138.9874   67.5524  226.9682 H   0  0  0  0  0  0  0  0  0  0  0  0
  139.9057   68.2865  229.1442 H   0  0  0  0  0  0  0  0  0  0  0  0
  141.2007   70.4247  229.3023 H   0  0  0  0  0  0  0  0  0  0  0  0
  141.5478   71.8018  227.2498 H   0  0  0  0  0  0  0  0  0  0  0  0
  1  2  2  0
  2  3  1  0
  3  4  1  0
  4  5  1  0
  5  6  2  0
  5  7  1  0
  7  8  1  0
  8  9  1  0
  9 10  1  0
 10 11  1  0
 11 12  1  0
 12 13  2  0
 13 14  1  0
 14 15  2  0
 15 16  1  0
 16 17  1  0
 17 18  1  0
 17 19  1  0
 17 20  1  0
 16 21  2  0
  2 22  1  0
 22 23  2  0
 23 24  1  0
 24 25  2  0
 25 26  1  0
 26 27  2  0
 27 28  1  0
 28 29  2  0
 29 30  1  0
 30 31  2  0
 11  7  1  0
 21 12  1  0
 31 22  1  0
 30 25  1  0
  3 32  1  0
  4 33  1  0
  4 34  1  0
  8 35  1  0
  8 36  1  0
  9 37  1  0
  9 38  1  0
 10 39  1  0
 10 40  1  0
 11 41  1  1
 13 42  1  0
 14 43  1  0
 15 44  1  0
 21 45  1  0
 23 46  1  0
 24 47  1  0
 26 48  1  0
 27 49  1  0
 28 50  1  0
 29 51  1  0
M  END
>  <smiles>  (8) 
O=C(NCC(=O)N1CCCC1c1cccc(C(F)(F)F)c1)c1ccc2ccccc2n1

>  <score_type>  (8) 
oracle

>  <origin>  (8) 
autodockgpu

>  <m_score__min__energy>  (8) 
-9.5800000000000001

>  <m_primary>  (8) 
energy

>  <rmsd>  (8) 
1.7353761611030187

>  <m_score__min__rmsd>  (8) 
1.7353761611030187

>  <meeko>  (8) 
{"free_energy": -7.78, "intermolecular_energy": -9.57, "internal_energy": -1.63, "cluster_size": 18, "cluster_id": 2, "rank_in_cluster": 18}

>  <energy>  (8) 
-8.91

>  <cluster_rmsd>  (8) 
1.7

>  <cluster>  (8) 
1

$$$$

     RDKit          3D

 51 54  0  0  0  0  0  0  0  0999 V2000
  140.1330   74.7740  220.0290 O   0  0  0  0  0  0  0  0  0  0  0  0
  140.0380   75.3970  221.1380 C   0  0  0  0  0  0  0  0  0  0  0  0
  139.2850   74.8070  222.1830 N   0  0  0  0  0  0  0  0  0  0  0  0
  138.6700   73.5250  221.9210 C   0  0  0  0  0  0  0  0  0  0  0  0
  139.5500   72.3940  222.2150 C   0  0  0  0  0  0  0  0  0  0  0  0
  140.6530   72.2210  221.6420 O   0  0  0  0  0  0  0  0  0  0  0  0
  139.1680   71.4310  223.1850 N   0  0  0  0  0  0  0  0  0  0  0  0
  137.8700   71.2950  223.8570 C   0  0  0  0  0  0  0  0  0  0  0  0
  137.6470   69.8050  224.0390 C   0  0  0  0  0  0  0  0  0  0  0  0
  138.9890   69.1830  223.6560 C   0  0  0  0  0  0  0  0  0  0  0  0
  139.9640   70.3390  223.7540 C   0  0  2  0  0  0  0  0  0  0  0  0
  140.3480   70.6110  225.1350 C   0  0  0  0  0  0  0  0  0  0  0  0
  140.8520   71.7810  225.6320 C   0  0  0  0  0  0  0  0  0  0  0  0
  141.1990   71.9450  226.9780 C   0  0  0  0  0  0  0  0  0  0  0  0
  141.0390   70.9070  227.8690 C   0  0  0  0  0  0  0  0  0  0  0  0
  140.5340   69.7230  227.3880 C   0  0  0  0  0  0  0  0  0  0  0  0
  140.3660   68.6090  228.3540 C   0  0  0  0  0  0  0  0  0  0  0  0
  139.7670   67.5700  227.6300 F   0  0  0  0  0  0  0  0  0  0  0  0
  141.6220   68.1510  228.6830 F   0  0  0  0  0  0  0  0  0  0  0  0
  139.5710   68.9080  229.4200 F   0  0  0  0  0  0  0  0  0  0  0  0
  140.1950   69.5710  226.0560 C   0  0  0  0  0  0  0  0  0  0  0  0
  140.6910   76.6960  221.3240 C   0  0  0  0  0  0  0  0  0  0  0  0
  141.1650   77.3630  220.2070 C   0  0  0  0  0  0  0  0  0  0  0  0
  141.7780   78.5810  220.3930 C   0  0  0  0  0  0  0  0  0  0  0  0
  141.9150   79.1190  221.6560 C   0  0  0  0  0  0  0  0  0  0  0  0
  142.5340   80.3540  221.8540 C   0  0  0  0  0  0  0  0  0  0  0  0
  142.6630   80.8760  223.1240 C   0  0  0  0  0  0  0  0  0  0  0  0
  142.1710   80.1700  224.2270 C   0  0  0  0  0  0  0  0  0  0  0  0
  141.5530   78.9390  224.0230 C   0  0  0  0  0  0  0  0  0  0  0  0
  141.4290   78.4240  222.7580 C   0  0  0  0  0  0  0  0  0  0  0  0
  140.8260   77.2260  222.5750 N   0  0  0  0  0  0  0  0  0  0  0  0
  139.1750   75.2840  223.1210 H   0  0  0  0  0  0  0  0  0  0  0  0
  137.7670   73.4366  222.5430 H   0  0  0  0  0  0  0  0  0  0  0  0
  138.4364   73.4874  220.8468 H   0  0  0  0  0  0  0  0  0  0  0  0
  137.8905   71.8005  224.8338 H   0  0  0  0  0  0  0  0  0  0  0  0
  137.0618   71.7544  223.2689 H   0  0  0  0  0  0  0  0  0  0  0  0
  137.3916   69.5722  225.0833 H   0  0  0  0  0  0  0  0  0  0  0  0
  136.8136   69.4234  223.4308 H   0  0  0  0  0  0  0  0  0  0  0  0
  139.2624   68.3793  224.3556 H   0  0  0  0  0  0  0  0  0  0  0  0
  138.9747   68.7219  222.6574 H   0  0  0  0  0  0  0  0  0  0  0  0
  140.9216   70.1643  223.2417 H   0  0  0  0  0  0  0  0  0  0  0  0
  140.9905   72.6289  224.9451 H   0  0  0  0  0  0  0  0  0  0  0  0
  141.6015   72.9078  227.3260 H   0  0  0  0  0  0  0  0  0  0  0  0
  141.3064   71.0219  228.9298 H   0  0  0  0  0  0  0  0  0  0  0  0
  139.7943   68.6060  225.7122 H   0  0  0  0  0  0  0  0  0  0  0  0
  141.0548   76.9321  219.2009 H   0  0  0  0  0  0  0  0  0  0  0  0
  142.1638   79.1329  219.5232 H   0  0  0  0  0  0  0  0  0  0  0  0
  142.9218   80.9151  220.9910 H   0  0  0  0  0  0  0  0  0  0  0  0
  143.1538   81.8496  223.2700 H   0  0  0  0  0  0  0  0  0  0  0  0
  142.2711   80.5819  225.2421 H   0  0  0  0  0  0  0  0  0  0  0  0
  141.1614   78.3755  224.8827 H   0  0  0  0  0  0  0  0  0  0  0  0
  1  2  2  0
  2  3  1  0
  3  4  1  0
  4  5  1  0
  5  6  2  0
  5  7  1  0
  7  8  1  0
  8  9  1  0
  9 10  1  0
 10 11  1  0
 11 12  1  0
 12 13  2  0
 13 14  1  0
 14 15  2  0
 15 16  1  0
 16 17  1  0
 17 18  1  0
 17 19  1  0
 17 20  1  0
 16 21  2  0
  2 22  1  0
 22 23  2  0
 23 24  1  0
 24 25  2  0
 25 26  1  0
 26 27  2  0
 27 28  1  0
 28 29  2  0
 29 30  1  0
 30 31  2  0
 11  7  1  0
 21 12  1  0
 31 22  1  0
 30 25  1  0
  3 32  1  0
  4 33  1  0
  4 34  1  0
  8 35  1  0
  8 36  1  0
  9 37  1  0
  9 38  1  0
 10 39  1  0
 10 40  1  0
 11 41  1  6
 13 42  1  0
 14 43  1  0
 15 44  1  0
 21 45  1  0
 23 46  1  0
 24 47  1  0
 26 48  1  0
 27 49  1  0
 28 50  1  0
 29 51  1  0
M  END
>  <smiles>  (9) 
O=C(NCC(=O)N1CCCC1c1cccc(C(F)(F)F)c1)c1ccc2ccccc2n1

>  <score_type>  (9) 
oracle

>  <origin>  (9) 
autodockgpu

>  <m_score__min__energy>  (9) 
-9.5800000000000001

>  <m_primary>  (9) 
energy

>  <rmsd>  (9) 
8.376468974159769

>  <m_score__min__rmsd>  (9) 
8.376468974159769

>  <meeko>  (9) 
{"free_energy": -8.79, "intermolecular_energy": -10.58, "internal_energy": -1.55, "cluster_size": 26, "cluster_id": 1, "rank_in_cluster": 12}

>  <energy>  (9) 
-8.89

>  <cluster_rmsd>  (9) 
1.66

>  <cluster>  (9) 
1

$$$$

     RDKit          3D

 51 54  0  0  0  0  0  0  0  0999 V2000
  140.3950   70.9550  221.3650 O   0  0  0  0  0  0  0  0  0  0  0  0
  140.1680   71.5070  222.4930 C   0  0  0  0  0  0  0  0  0  0  0  0
  140.0690   72.9190  222.5460 N   0  0  0  0  0  0  0  0  0  0  0  0
  140.2320   73.6470  221.3080 C   0  0  0  0  0  0  0  0  0  0  0  0
  140.3950   75.0880  221.5030 C   0  0  0  0  0  0  0  0  0  0  0  0
  139.9370   75.6960  222.5000 O   0  0  0  0  0  0  0  0  0  0  0  0
  141.0980   75.8600  220.5420 N   0  0  0  0  0  0  0  0  0  0  0  0
  142.5000   75.7230  220.1280 C   0  0  0  0  0  0  0  0  0  0  0  0
  142.5310   76.0460  218.6460 C   0  0  0  0  0  0  0  0  0  0  0  0
  141.1340   76.5930  218.3580 C   0  0  0  0  0  0  0  0  0  0  0  0
  140.6080   76.9750  219.7270 C   0  0  2  0  0  0  0  0  0  0  0  0
  141.1450   78.2540  220.1790 C   0  0  0  0  0  0  0  0  0  0  0  0
  141.5020   79.3170  219.3960 C   0  0  0  0  0  0  0  0  0  0  0  0
  142.0150   80.5070  219.9240 C   0  0  0  0  0  0  0  0  0  0  0  0
  142.1830   80.6510  221.2840 C   0  0  0  0  0  0  0  0  0  0  0  0
  141.8290   79.5930  222.0870 C   0  0  0  0  0  0  0  0  0  0  0  0
  142.0130   79.7550  223.5500 C   0  0  0  0  0  0  0  0  0  0  0  0
  140.9310   80.5320  223.9820 F   0  0  0  0  0  0  0  0  0  0  0  0
  141.8320   78.5190  224.1310 F   0  0  0  0  0  0  0  0  0  0  0  0
  143.1680   80.3850  223.9030 F   0  0  0  0  0  0  0  0  0  0  0  0
  141.3230   78.4210  221.5550 C   0  0  0  0  0  0  0  0  0  0  0  0
  140.0160   70.6970  223.7050 C   0  0  0  0  0  0  0  0  0  0  0  0
  139.3010   69.5140  223.6240 C   0  0  0  0  0  0  0  0  0  0  0  0
  139.1630   68.7630  224.7680 C   0  0  0  0  0  0  0  0  0  0  0  0
  139.7220   69.1770  225.9600 C   0  0  0  0  0  0  0  0  0  0  0  0
  139.5880   68.4210  227.1240 C   0  0  0  0  0  0  0  0  0  0  0  0
  140.1530   68.8510  228.3060 C   0  0  0  0  0  0  0  0  0  0  0  0
  140.8680   70.0530  228.3470 C   0  0  0  0  0  0  0  0  0  0  0  0
  140.9990   70.8040  227.1810 C   0  0  0  0  0  0  0  0  0  0  0  0
  140.4340   70.3710  226.0080 C   0  0  0  0  0  0  0  0  0  0  0  0
  140.5690   71.1100  224.8830 N   0  0  0  0  0  0  0  0  0  0  0  0
  139.8820   73.4260  223.4560 H   0  0  0  0  0  0  0  0  0  0  0  0
  141.1228   73.2614  220.7905 H   0  0  0  0  0  0  0  0  0  0  0  0
  139.3149   73.4989  220.7189 H   0  0  0  0  0  0  0  0  0  0  0  0
  143.1341   76.4275  220.6862 H   0  0  0  0  0  0  0  0  0  0  0  0
  142.8826   74.7113  220.3283 H   0  0  0  0  0  0  0  0  0  0  0  0
  143.2997   76.8015  218.4264 H   0  0  0  0  0  0  0  0  0  0  0  0
  142.7792   75.1712  218.0270 H   0  0  0  0  0  0  0  0  0  0  0  0
  141.1852   77.4718  217.6983 H   0  0  0  0  0  0  0  0  0  0  0  0
  140.4899   75.8661  217.8416 H   0  0  0  0  0  0  0  0  0  0  0  0
  139.5178   77.1165  219.7658 H   0  0  0  0  0  0  0  0  0  0  0  0
  141.3808   79.2330  218.3059 H   0  0  0  0  0  0  0  0  0  0  0  0
  142.2858   81.3325  219.2493 H   0  0  0  0  0  0  0  0  0  0  0  0
  142.5864   81.5804  221.7123 H   0  0  0  0  0  0  0  0  0  0  0  0
  141.0534   77.5980  222.2333 H   0  0  0  0  0  0  0  0  0  0  0  0
  138.8566   69.1847  222.6732 H   0  0  0  0  0  0  0  0  0  0  0  0
  138.5992   67.8192  224.7324 H   0  0  0  0  0  0  0  0  0  0  0  0
  139.0275   67.4748  227.0991 H   0  0  0  0  0  0  0  0  0  0  0  0
  140.0414   68.2476  229.2189 H   0  0  0  0  0  0  0  0  0  0  0  0
  141.3207   70.4004  229.2874 H   0  0  0  0  0  0  0  0  0  0  0  0
  141.5591   71.7505  227.2008 H   0  0  0  0  0  0  0  0  0  0  0  0
  1  2  2  0
  2  3  1  0
  3  4  1  0
  4  5  1  0
  5  6  2  0
  5  7  1  0
  7  8  1  0
  8  9  1  0
  9 10  1  0
 10 11  1  0
 11 12  1  0
 12 13  2  0
 13 14  1  0
 14 15  2  0
 15 16  1  0
 16 17  1  0
 17 18  1  0
 17 19  1  0
 17 20  1  0
 16 21  2  0
  2 22  1  0
 22 23  2  0
 23 24  1  0
 24 25  2  0
 25 26  1  0
 26 27  2  0
 27 28  1  0
 28 29  2  0
 29 30  1  0
 30 31  2  0
 11  7  1  0
 21 12  1  0
 31 22  1  0
 30 25  1  0
  3 32  1  0
  4 33  1  0
  4 34  1  0
  8 35  1  0
  8 36  1  0
  9 37  1  0
  9 38  1  0
 10 39  1  0
 10 40  1  0
 11 41  1  6
 13 42  1  0
 14 43  1  0
 15 44  1  0
 21 45  1  0
 23 46  1  0
 24 47  1  0
 26 48  1  0
 27 49  1  0
 28 50  1  0
 29 51  1  0
M  END
>  <smiles>  (10) 
O=C(NCC(=O)N1CCCC1c1cccc(C(F)(F)F)c1)c1ccc2ccccc2n1

>  <score_type>  (10) 
oracle

>  <origin>  (10) 
autodockgpu

>  <m_score__min__energy>  (10) 
-9.5800000000000001

>  <m_primary>  (10) 
energy

>  <rmsd>  (10) 
1.9253248825749858

>  <m_score__min__rmsd>  (10) 
1.9253248825749858

>  <meeko>  (10) 
{"free_energy": -8.36, "intermolecular_energy": -10.15, "internal_energy": -1.68, "cluster_size": 18, "cluster_id": 2, "rank_in_cluster": 13}

>  <energy>  (10) 
-8.89

>  <cluster_rmsd>  (10) 
1.64

>  <cluster>  (10) 
1

$$$$

     RDKit          3D

 51 54  0  0  0  0  0  0  0  0999 V2000
  140.6990   74.3180  220.4000 O   0  0  0  0  0  0  0  0  0  0  0  0
  140.2230   75.0890  221.2990 C   0  0  0  0  0  0  0  0  0  0  0  0
  139.2320   74.5780  222.1720 N   0  0  0  0  0  0  0  0  0  0  0  0
  138.8210   73.2050  221.9850 C   0  0  0  0  0  0  0  0  0  0  0  0
  139.7800   72.2390  222.5220 C   0  0  0  0  0  0  0  0  0  0  0  0
  140.9720   72.1760  222.1380 O   0  0  0  0  0  0  0  0  0  0  0  0
  139.3750   71.3180  223.5240 N   0  0  0  0  0  0  0  0  0  0  0  0
  138.0600   71.2070  224.1660 C   0  0  0  0  0  0  0  0  0  0  0  0
  137.8350   69.7260  224.4080 C   0  0  0  0  0  0  0  0  0  0  0  0
  139.1890   69.0920  224.0880 C   0  0  0  0  0  0  0  0  0  0  0  0
  140.1570   70.2550  224.1610 C   0  0  2  0  0  0  0  0  0  0  0  0
  140.5050   70.5880  225.5370 C   0  0  0  0  0  0  0  0  0  0  0  0
  140.7460   71.8350  226.0450 C   0  0  0  0  0  0  0  0  0  0  0  0
  141.0790   72.0550  227.3860 C   0  0  0  0  0  0  0  0  0  0  0  0
  141.1780   70.9960  228.2620 C   0  0  0  0  0  0  0  0  0  0  0  0
  140.9390   69.7350  227.7700 C   0  0  0  0  0  0  0  0  0  0  0  0
  141.0480   68.6000  228.7190 C   0  0  0  0  0  0  0  0  0  0  0  0
  141.2870   67.4690  227.9270 F   0  0  0  0  0  0  0  0  0  0  0  0
  142.1970   68.7820  229.4550 F   0  0  0  0  0  0  0  0  0  0  0  0
  139.9260   68.3800  229.4600 F   0  0  0  0  0  0  0  0  0  0  0  0
  140.6110   69.5290  226.4430 C   0  0  0  0  0  0  0  0  0  0  0  0
  140.6930   76.4720  221.4220 C   0  0  0  0  0  0  0  0  0  0  0  0
  140.8020   77.2380  220.2740 C   0  0  0  0  0  0  0  0  0  0  0  0
  141.2450   78.5340  220.4010 C   0  0  0  0  0  0  0  0  0  0  0  0
  141.5690   79.0540  221.6370 C   0  0  0  0  0  0  0  0  0  0  0  0
  142.0180   80.3680  221.7750 C   0  0  0  0  0  0  0  0  0  0  0  0
  142.3380   80.8700  223.0190 C   0  0  0  0  0  0  0  0  0  0  0  0
  142.2130   80.0640  224.1560 C   0  0  0  0  0  0  0  0  0  0  0  0
  141.7640   78.7530  224.0120 C   0  0  0  0  0  0  0  0  0  0  0  0
  141.4480   78.2590  222.7720 C   0  0  0  0  0  0  0  0  0  0  0  0
  141.0130   76.9840  222.6460 N   0  0  0  0  0  0  0  0  0  0  0  0
  138.8050   75.1770  222.9330 H   0  0  0  0  0  0  0  0  0  0  0  0
  137.8552   73.0570  222.4904 H   0  0  0  0  0  0  0  0  0  0  0  0
  138.7510   73.0290  220.9014 H   0  0  0  0  0  0  0  0  0  0  0  0
  138.0530   71.7553  225.1196 H   0  0  0  0  0  0  0  0  0  0  0  0
  137.2672   71.6368  223.5362 H   0  0  0  0  0  0  0  0  0  0  0  0
  137.5526   69.5388  225.4545 H   0  0  0  0  0  0  0  0  0  0  0  0
  137.0186   69.3151  223.7960 H   0  0  0  0  0  0  0  0  0  0  0  0
  139.4459   68.3208  224.8292 H   0  0  0  0  0  0  0  0  0  0  0  0
  139.2027   68.5870  223.1109 H   0  0  0  0  0  0  0  0  0  0  0  0
  141.1280   70.0615  223.6817 H   0  0  0  0  0  0  0  0  0  0  0  0
  140.6750   72.7013  225.3708 H   0  0  0  0  0  0  0  0  0  0  0  0
  141.2628   73.0791  227.7430 H   0  0  0  0  0  0  0  0  0  0  0  0
  141.4393   71.1543  229.3187 H   0  0  0  0  0  0  0  0  0  0  0  0
  140.4283   68.5032  226.0903 H   0  0  0  0  0  0  0  0  0  0  0  0
  140.5420   76.8224  219.2893 H   0  0  0  0  0  0  0  0  0  0  0  0
  141.3422   79.1644  219.5048 H   0  0  0  0  0  0  0  0  0  0  0  0
  142.1174   81.0076  220.8856 H   0  0  0  0  0  0  0  0  0  0  0  0
  142.6924   81.9067  223.1177 H   0  0  0  0  0  0  0  0  0  0  0  0
  142.4659   80.4603  225.1505 H   0  0  0  0  0  0  0  0  0  0  0  0
  141.6623   78.1098  224.8985 H   0  0  0  0  0  0  0  0  0  0  0  0
  1  2  2  0
  2  3  1  0
  3  4  1  0
  4  5  1  0
  5  6  2  0
  5  7  1  0
  7  8  1  0
  8  9  1  0
  9 10  1  0
 10 11  1  0
 11 12  1  0
 12 13  2  0
 13 14  1  0
 14 15  2  0
 15 16  1  0
 16 17  1  0
 17 18  1  0
 17 19  1  0
 17 20  1  0
 16 21  2  0
  2 22  1  0
 22 23  2  0
 23 24  1  0
 24 25  2  0
 25 26  1  0
 26 27  2  0
 27 28  1  0
 28 29  2  0
 29 30  1  0
 30 31  2  0
 11  7  1  0
 21 12  1  0
 31 22  1  0
 30 25  1  0
  3 32  1  0
  4 33  1  0
  4 34  1  0
  8 35  1  0
  8 36  1  0
  9 37  1  0
  9 38  1  0
 10 39  1  0
 10 40  1  0
 11 41  1  6
 13 42  1  0
 14 43  1  0
 15 44  1  0
 21 45  1  0
 23 46  1  0
 24 47  1  0
 26 48  1  0
 27 49  1  0
 28 50  1  0
 29 51  1  0
M  END
>  <smiles>  (11) 
O=C(NCC(=O)N1CCCC1c1cccc(C(F)(F)F)c1)c1ccc2ccccc2n1

>  <score_type>  (11) 
oracle

>  <origin>  (11) 
autodockgpu

>  <m_score__min__energy>  (11) 
-9.5800000000000001

>  <m_primary>  (11) 
energy

>  <rmsd>  (11) 
8.39909195871557

>  <m_score__min__rmsd>  (11) 
8.39909195871557

>  <meeko>  (11) 
{"free_energy": -8.89, "intermolecular_energy": -10.68, "internal_energy": -1.41, "cluster_size": 26, "cluster_id": 1, "rank_in_cluster": 10}

>  <energy>  (11) 
-8.83

>  <cluster_rmsd>  (11) 
1.7

>  <cluster>  (11) 
1

$$$$

     RDKit          3D

 51 54  0  0  0  0  0  0  0  0999 V2000
  140.2120   74.7520  220.1060 O   0  0  0  0  0  0  0  0  0  0  0  0
  140.0540   75.4110  221.1880 C   0  0  0  0  0  0  0  0  0  0  0  0
  139.2750   74.8370  222.2220 N   0  0  0  0  0  0  0  0  0  0  0  0
  138.7050   73.5310  221.9820 C   0  0  0  0  0  0  0  0  0  0  0  0
  139.6200   72.4350  222.3000 C   0  0  0  0  0  0  0  0  0  0  0  0
  140.7580   72.3250  221.7830 O   0  0  0  0  0  0  0  0  0  0  0  0
  139.2360   71.4360  223.2320 N   0  0  0  0  0  0  0  0  0  0  0  0
  137.9210   71.2450  223.8570 C   0  0  0  0  0  0  0  0  0  0  0  0
  137.7360   69.7460  223.9920 C   0  0  0  0  0  0  0  0  0  0  0  0
  139.1070   69.1720  223.6380 C   0  0  0  0  0  0  0  0  0  0  0  0
  140.0440   70.3530  223.7990 C   0  0  2  0  0  0  0  0  0  0  0  0
  140.3750   70.5980  225.1980 C   0  0  0  0  0  0  0  0  0  0  0  0
  140.7850   71.7800  225.7500 C   0  0  0  0  0  0  0  0  0  0  0  0
  141.0860   71.9170  227.1100 C   0  0  0  0  0  0  0  0  0  0  0  0
  140.9770   70.8370  227.9590 C   0  0  0  0  0  0  0  0  0  0  0  0
  140.5670   69.6400  227.4220 C   0  0  0  0  0  0  0  0  0  0  0  0
  140.4520   68.4830  228.3430 C   0  0  0  0  0  0  0  0  0  0  0  0
  139.5840   68.8960  229.3610 F   0  0  0  0  0  0  0  0  0  0  0  0
  139.7820   67.4830  227.6720 F   0  0  0  0  0  0  0  0  0  0  0  0
  141.6310   68.0970  228.9080 F   0  0  0  0  0  0  0  0  0  0  0  0
  140.2710   69.5160  226.0770 C   0  0  0  0  0  0  0  0  0  0  0  0
  140.6660   76.7330  221.3530 C   0  0  0  0  0  0  0  0  0  0  0  0
  140.9960   77.4550  220.2190 C   0  0  0  0  0  0  0  0  0  0  0  0
  141.5700   78.6950  220.3860 C   0  0  0  0  0  0  0  0  0  0  0  0
  141.8090   79.2000  221.6470 C   0  0  0  0  0  0  0  0  0  0  0  0
  142.3900   80.4560  221.8260 C   0  0  0  0  0  0  0  0  0  0  0  0
  142.6220   80.9450  223.0940 C   0  0  0  0  0  0  0  0  0  0  0  0
  142.2730   80.1850  224.2150 C   0  0  0  0  0  0  0  0  0  0  0  0
  141.6930   78.9320  224.0300 C   0  0  0  0  0  0  0  0  0  0  0  0
  141.4660   78.4500  222.7670 C   0  0  0  0  0  0  0  0  0  0  0  0
  140.9010   77.2310  222.6020 N   0  0  0  0  0  0  0  0  0  0  0  0
  139.1130   75.3440  223.1370 H   0  0  0  0  0  0  0  0  0  0  0  0
  137.8028   73.4241  222.6021 H   0  0  0  0  0  0  0  0  0  0  0  0
  138.4784   73.4660  220.9076 H   0  0  0  0  0  0  0  0  0  0  0  0
  137.8952   71.7240  224.8469 H   0  0  0  0  0  0  0  0  0  0  0  0
  137.1192   71.6972  223.2548 H   0  0  0  0  0  0  0  0  0  0  0  0
  137.4534   69.4778  225.0207 H   0  0  0  0  0  0  0  0  0  0  0  0
  136.9345   69.3581  223.3461 H   0  0  0  0  0  0  0  0  0  0  0  0
  139.3806   68.3578  224.3252 H   0  0  0  0  0  0  0  0  0  0  0  0
  139.1391   68.7372  222.6281 H   0  0  0  0  0  0  0  0  0  0  0  0
  141.0227   70.2200  223.3149 H   0  0  0  0  0  0  0  0  0  0  0  0
  140.8824   72.6603  225.0976 H   0  0  0  0  0  0  0  0  0  0  0  0
  141.4112   72.8915  227.5031 H   0  0  0  0  0  0  0  0  0  0  0  0
  141.2102   70.9297  229.0300 H   0  0  0  0  0  0  0  0  0  0  0  0
  139.9450   68.5399  225.6883 H   0  0  0  0  0  0  0  0  0  0  0  0
  140.8052   77.0499  219.2142 H   0  0  0  0  0  0  0  0  0  0  0  0
  141.8416   79.2909  219.5022 H   0  0  0  0  0  0  0  0  0  0  0  0
  142.6649   81.0604  220.9490 H   0  0  0  0  0  0  0  0  0  0  0  0
  143.0827   81.9353  223.2243 H   0  0  0  0  0  0  0  0  0  0  0  0
  142.4540   80.5714  225.2289 H   0  0  0  0  0  0  0  0  0  0  0  0
  141.4150   78.3248  224.9041 H   0  0  0  0  0  0  0  0  0  0  0  0
  1  2  2  0
  2  3  1  0
  3  4  1  0
  4  5  1  0
  5  6  2  0
  5  7  1  0
  7  8  1  0
  8  9  1  0
  9 10  1  0
 10 11  1  0
 11 12  1  0
 12 13  2  0
 13 14  1  0
 14 15  2  0
 15 16  1  0
 16 17  1  0
 17 18  1  0
 17 19  1  0
 17 20  1  0
 16 21  2  0
  2 22  1  0
 22 23  2  0
 23 24  1  0
 24 25  2  0
 25 26  1  0
 26 27  2  0
 27 28  1  0
 28 29  2  0
 29 30  1  0
 30 31  2  0
 11  7  1  0
 21 12  1  0
 31 22  1  0
 30 25  1  0
  3 32  1  0
  4 33  1  0
  4 34  1  0
  8 35  1  0
  8 36  1  0
  9 37  1  0
  9 38  1  0
 10 39  1  0
 10 40  1  0
 11 41  1  6
 13 42  1  0
 14 43  1  0
 15 44  1  0
 21 45  1  0
 23 46  1  0
 24 47  1  0
 26 48  1  0
 27 49  1  0
 28 50  1  0
 29 51  1  0
M  END
>  <smiles>  (12) 
O=C(NCC(=O)N1CCCC1c1cccc(C(F)(F)F)c1)c1ccc2ccccc2n1

>  <score_type>  (12) 
oracle

>  <origin>  (12) 
autodockgpu

>  <m_score__min__energy>  (12) 
-9.5800000000000001

>  <m_primary>  (12) 
energy

>  <rmsd>  (12) 
8.397989701528303

>  <m_score__min__rmsd>  (12) 
8.397989701528303

>  <meeko>  (12) 
{"free_energy": -8.83, "intermolecular_energy": -10.62, "internal_energy": -1.52, "cluster_size": 26, "cluster_id": 1, "rank_in_cluster": 11}

>  <energy>  (12) 
-8.79

>  <cluster_rmsd>  (12) 
1.7

>  <cluster>  (12) 
1

$$$$

     RDKit          3D

 51 54  0  0  0  0  0  0  0  0999 V2000
  140.8480   74.4800  221.4300 O   0  0  0  0  0  0  0  0  0  0  0  0
  139.8330   75.0300  221.9740 C   0  0  0  0  0  0  0  0  0  0  0  0
  138.7010   74.2280  222.2600 N   0  0  0  0  0  0  0  0  0  0  0  0
  138.7720   72.8260  221.9150 C   0  0  0  0  0  0  0  0  0  0  0  0
  139.5710   72.0410  222.8570 C   0  0  0  0  0  0  0  0  0  0  0  0
  140.7730   72.2950  223.1080 O   0  0  0  0  0  0  0  0  0  0  0  0
  138.9890   70.9360  223.5320 N   0  0  0  0  0  0  0  0  0  0  0  0
  137.6410   70.8380  224.1050 C   0  0  0  0  0  0  0  0  0  0  0  0
  137.1970   69.4040  223.8880 C   0  0  0  0  0  0  0  0  0  0  0  0
  138.4610   68.6980  223.3990 C   0  0  0  0  0  0  0  0  0  0  0  0
  139.5800   69.6270  223.8240 C   0  0  2  0  0  0  0  0  0  0  0  0
  139.9020   69.4800  225.2390 C   0  0  0  0  0  0  0  0  0  0  0  0
  139.8720   68.3260  225.9720 C   0  0  0  0  0  0  0  0  0  0  0  0
  140.1950   68.2860  227.3340 C   0  0  0  0  0  0  0  0  0  0  0  0
  140.5620   69.4360  227.9970 C   0  0  0  0  0  0  0  0  0  0  0  0
  140.5980   70.6060  227.2760 C   0  0  0  0  0  0  0  0  0  0  0  0
  140.9950   71.8400  227.9960 C   0  0  0  0  0  0  0  0  0  0  0  0
  139.8450   72.2690  228.6720 F   0  0  0  0  0  0  0  0  0  0  0  0
  141.8860   71.4780  228.9820 F   0  0  0  0  0  0  0  0  0  0  0  0
  141.4220   72.8490  227.1860 F   0  0  0  0  0  0  0  0  0  0  0  0
  140.2780   70.6350  225.9310 C   0  0  0  0  0  0  0  0  0  0  0  0
  139.8400   76.4610  222.2920 C   0  0  0  0  0  0  0  0  0  0  0  0
  141.0540   77.1230  222.3330 C   0  0  0  0  0  0  0  0  0  0  0  0
  141.0490   78.4660  222.6340 C   0  0  0  0  0  0  0  0  0  0  0  0
  139.8660   79.1310  222.8850 C   0  0  0  0  0  0  0  0  0  0  0  0
  139.8510   80.4920  223.1900 C   0  0  0  0  0  0  0  0  0  0  0  0
  138.6600   81.1400  223.4400 C   0  0  0  0  0  0  0  0  0  0  0  0
  137.4530   80.4350  223.3880 C   0  0  0  0  0  0  0  0  0  0  0  0
  137.4740   79.0760  223.0830 C   0  0  0  0  0  0  0  0  0  0  0  0
  138.6620   78.4370  222.8360 C   0  0  0  0  0  0  0  0  0  0  0  0
  138.6680   77.1160  222.5410 N   0  0  0  0  0  0  0  0  0  0  0  0
  137.8340   74.6370  222.7090 H   0  0  0  0  0  0  0  0  0  0  0  0
  137.7507   72.4179  221.8978 H   0  0  0  0  0  0  0  0  0  0  0  0
  139.2614   72.7552  220.9324 H   0  0  0  0  0  0  0  0  0  0  0  0
  137.6646   71.0722  225.1795 H   0  0  0  0  0  0  0  0  0  0  0  0
  136.9492   71.5498  223.6309 H   0  0  0  0  0  0  0  0  0  0  0  0
  136.8387   68.9587  224.8279 H   0  0  0  0  0  0  0  0  0  0  0  0
  136.3625   69.3214  223.1761 H   0  0  0  0  0  0  0  0  0  0  0  0
  138.5682   67.7119  223.8745 H   0  0  0  0  0  0  0  0  0  0  0  0
  138.4518   68.5105  222.3151 H   0  0  0  0  0  0  0  0  0  0  0  0
  140.5369   69.4408  223.3145 H   0  0  0  0  0  0  0  0  0  0  0  0
  139.5822   67.3905  225.4711 H   0  0  0  0  0  0  0  0  0  0  0  0
  140.1554   67.3305  227.8775 H   0  0  0  0  0  0  0  0  0  0  0  0
  140.8175   69.4189  229.0668 H   0  0  0  0  0  0  0  0  0  0  0  0
  140.3204   71.5925  225.3912 H   0  0  0  0  0  0  0  0  0  0  0  0
  141.9957   76.5916  222.1309 H   0  0  0  0  0  0  0  0  0  0  0  0
  142.0004   79.0166  222.6751 H   0  0  0  0  0  0  0  0  0  0  0  0
  140.7965   81.0526  223.2314 H   0  0  0  0  0  0  0  0  0  0  0  0
  138.6590   82.2133  223.6808 H   0  0  0  0  0  0  0  0  0  0  0  0
  136.4997   80.9471  223.5854 H   0  0  0  0  0  0  0  0  0  0  0  0
  136.5310   78.5114  223.0399 H   0  0  0  0  0  0  0  0  0  0  0  0
  1  2  2  0
  2  3  1  0
  3  4  1  0
  4  5  1  0
  5  6  2  0
  5  7  1  0
  7  8  1  0
  8  9  1  0
  9 10  1  0
 10 11  1  0
 11 12  1  0
 12 13  2  0
 13 14  1  0
 14 15  2  0
 15 16  1  0
 16 17  1  0
 17 18  1  0
 17 19  1  0
 17 20  1  0
 16 21  2  0
  2 22  1  0
 22 23  2  0
 23 24  1  0
 24 25  2  0
 25 26  1  0
 26 27  2  0
 27 28  1  0
 28 29  2  0
 29 30  1  0
 30 31  2  0
 11  7  1  0
 21 12  1  0
 31 22  1  0
 30 25  1  0
  3 32  1  0
  4 33  1  0
  4 34  1  0
  8 35  1  0
  8 36  1  0
  9 37  1  0
  9 38  1  0
 10 39  1  0
 10 40  1  0
 11 41  1  6
 13 42  1  0
 14 43  1  0
 15 44  1  0
 21 45  1  0
 23 46  1  0
 24 47  1  0
 26 48  1  0
 27 49  1  0
 28 50  1  0
 29 51  1  0
M  END
>  <smiles>  (13) 
O=C(NCC(=O)N1CCCC1c1cccc(C(F)(F)F)c1)c1ccc2ccccc2n1

>  <score_type>  (13) 
oracle

>  <origin>  (13) 
autodockgpu

>  <m_score__min__energy>  (13) 
-9.5800000000000001

>  <m_primary>  (13) 
energy

>  <rmsd>  (13) 
8.51416084265424

>  <m_score__min__rmsd>  (13) 
8.51416084265424

>  <meeko>  (13) 
{"free_energy": -8.77, "intermolecular_energy": -10.56, "internal_energy": -1.51, "cluster_size": 26, "cluster_id": 1, "rank_in_cluster": 13}

>  <energy>  (13) 
-8.77

>  <cluster_rmsd>  (13) 
0.78

>  <cluster>  (13) 
1

$$$$

     RDKit          3D

 51 54  0  0  0  0  0  0  0  0999 V2000
  137.5490   75.8910  222.4280 O   0  0  0  0  0  0  0  0  0  0  0  0
  138.8060   76.1070  222.4490 C   0  0  0  0  0  0  0  0  0  0  0  0
  139.6820   75.0180  222.2190 N   0  0  0  0  0  0  0  0  0  0  0  0
  139.0890   73.7230  221.9730 C   0  0  0  0  0  0  0  0  0  0  0  0
  139.8080   72.6270  222.6220 C   0  0  0  0  0  0  0  0  0  0  0  0
  141.0550   72.6180  222.7620 O   0  0  0  0  0  0  0  0  0  0  0  0
  139.0940   71.5100  223.1270 N   0  0  0  0  0  0  0  0  0  0  0  0
  137.6920   71.4570  223.5590 C   0  0  0  0  0  0  0  0  0  0  0  0
  137.1820   70.0850  223.1600 C   0  0  0  0  0  0  0  0  0  0  0  0
  138.4410   69.3370  222.7240 C   0  0  0  0  0  0  0  0  0  0  0  0
  139.5690   70.1400  223.3410 C   0  0  2  0  0  0  0  0  0  0  0  0
  139.7380   69.8390  224.7580 C   0  0  0  0  0  0  0  0  0  0  0  0
  139.4450   68.6610  225.3890 C   0  0  0  0  0  0  0  0  0  0  0  0
  139.6380   68.4680  226.7610 C   0  0  0  0  0  0  0  0  0  0  0  0
  140.1420   69.4850  227.5430 C   0  0  0  0  0  0  0  0  0  0  0  0
  140.4430   70.6760  226.9270 C   0  0  0  0  0  0  0  0  0  0  0  0
  140.9850   71.7660  227.7750 C   0  0  0  0  0  0  0  0  0  0  0  0
  139.8900   72.2650  228.4920 F   0  0  0  0  0  0  0  0  0  0  0  0
  141.8090   71.1900  228.7160 F   0  0  0  0  0  0  0  0  0  0  0  0
  141.5490   72.7910  227.0760 F   0  0  0  0  0  0  0  0  0  0  0  0
  140.2480   70.8560  225.5700 C   0  0  0  0  0  0  0  0  0  0  0  0
  139.3290   77.4510  222.7080 C   0  0  0  0  0  0  0  0  0  0  0  0
  138.4300   78.4910  222.8690 C   0  0  0  0  0  0  0  0  0  0  0  0
  138.9320   79.7490  223.1090 C   0  0  0  0  0  0  0  0  0  0  0  0
  140.2920   79.9660  223.1880 C   0  0  0  0  0  0  0  0  0  0  0  0
  140.8100   81.2380  223.4330 C   0  0  0  0  0  0  0  0  0  0  0  0
  142.1730   81.4350  223.5080 C   0  0  0  0  0  0  0  0  0  0  0  0
  143.0500   80.3580  223.3400 C   0  0  0  0  0  0  0  0  0  0  0  0
  142.5270   79.0900  223.0960 C   0  0  0  0  0  0  0  0  0  0  0  0
  141.1700   78.9000  223.0220 C   0  0  0  0  0  0  0  0  0  0  0  0
  140.6760   77.6630  222.7850 N   0  0  0  0  0  0  0  0  0  0  0  0
  140.7340   75.1440  222.2270 H   0  0  0  0  0  0  0  0  0  0  0  0
  138.0556   73.7345  222.3497 H   0  0  0  0  0  0  0  0  0  0  0  0
  139.1317   73.5448  220.8884 H   0  0  0  0  0  0  0  0  0  0  0  0
  137.6229   71.5882  224.6490 H   0  0  0  0  0  0  0  0  0  0  0  0
  137.0974   72.2579  223.0954 H   0  0  0  0  0  0  0  0  0  0  0  0
  136.7037   69.5819  224.0133 H   0  0  0  0  0  0  0  0  0  0  0  0
  136.4197   70.1297  222.3682 H   0  0  0  0  0  0  0  0  0  0  0  0
  138.4376   68.3063  223.1083 H   0  0  0  0  0  0  0  0  0  0  0  0
  138.5280   69.2507  221.6309 H   0  0  0  0  0  0  0  0  0  0  0  0
  140.5582   69.9337  222.9063 H   0  0  0  0  0  0  0  0  0  0  0  0
  139.0405   67.8303  224.7921 H   0  0  0  0  0  0  0  0  0  0  0  0
  139.3863   67.4997  227.2181 H   0  0  0  0  0  0  0  0  0  0  0  0
  140.2980   69.3480  228.6232 H   0  0  0  0  0  0  0  0  0  0  0  0
  140.5011   71.8260  225.1171 H   0  0  0  0  0  0  0  0  0  0  0  0
  137.3457   78.3166  222.8069 H   0  0  0  0  0  0  0  0  0  0  0  0
  138.2395   80.5936  223.2397 H   0  0  0  0  0  0  0  0  0  0  0  0
  140.1267   82.0895  223.5673 H   0  0  0  0  0  0  0  0  0  0  0  0
  142.5717   82.4420  223.7005 H   0  0  0  0  0  0  0  0  0  0  0  0
  144.1378   80.5103  223.3998 H   0  0  0  0  0  0  0  0  0  0  0  0
  143.2064   78.2354  222.9617 H   0  0  0  0  0  0  0  0  0  0  0  0
  1  2  2  0
  2  3  1  0
  3  4  1  0
  4  5  1  0
  5  6  2  0
  5  7  1  0
  7  8  1  0
  8  9  1  0
  9 10  1  0
 10 11  1  0
 11 12  1  0
 12 13  2  0
 13 14  1  0
 14 15  2  0
 15 16  1  0
 16 17  1  0
 17 18  1  0
 17 19  1  0
 17 20  1  0
 16 21  2  0
  2 22  1  0
 22 23  2  0
 23 24  1  0
 24 25  2  0
 25 26  1  0
 26 27  2  0
 27 28  1  0
 28 29  2  0
 29 30  1  0
 30 31  2  0
 11  7  1  0
 21 12  1  0
 31 22  1  0
 30 25  1  0
  3 32  1  0
  4 33  1  0
  4 34  1  0
  8 35  1  0
  8 36  1  0
  9 37  1  0
  9 38  1  0
 10 39  1  0
 10 40  1  0
 11 41  1  6
 13 42  1  0
 14 43  1  0
 15 44  1  0
 21 45  1  0
 23 46  1  0
 24 47  1  0
 26 48  1  0
 27 49  1  0
 28 50  1  0
 29 51  1  0
M  END
>  <smiles>  (14) 
O=C(NCC(=O)N1CCCC1c1cccc(C(F)(F)F)c1)c1ccc2ccccc2n1

>  <score_type>  (14) 
oracle

>  <origin>  (14) 
autodockgpu

>  <m_score__min__energy>  (14) 
-9.5800000000000001

>  <m_primary>  (14) 
energy

>  <rmsd>  (14) 
8.502366855423695

>  <m_score__min__rmsd>  (14) 
8.502366855423695

>  <meeko>  (14) 
{"free_energy": -8.76, "intermolecular_energy": -10.55, "internal_energy": -1.73, "cluster_size": 26, "cluster_id": 1, "rank_in_cluster": 15}

>  <energy>  (14) 
-8.76

>  <cluster_rmsd>  (14) 
1.02

>  <cluster>  (14) 
1

$$$$

     RDKit          3D

 51 54  0  0  0  0  0  0  0  0999 V2000
  140.8340   74.6950  221.3590 O   0  0  0  0  0  0  0  0  0  0  0  0
  139.8810   75.2600  221.9920 C   0  0  0  0  0  0  0  0  0  0  0  0
  138.7440   74.4860  222.3320 N   0  0  0  0  0  0  0  0  0  0  0  0
  138.7380   73.0960  221.9360 C   0  0  0  0  0  0  0  0  0  0  0  0
  139.5520   72.2470  222.8060 C   0  0  0  0  0  0  0  0  0  0  0  0
  140.7490   72.5010  223.0820 O   0  0  0  0  0  0  0  0  0  0  0  0
  138.9920   71.0750  223.3800 N   0  0  0  0  0  0  0  0  0  0  0  0
  137.6170   70.8730  223.8530 C   0  0  0  0  0  0  0  0  0  0  0  0
  137.2700   69.4330  223.5290 C   0  0  0  0  0  0  0  0  0  0  0  0
  138.6010   68.8230  223.0900 C   0  0  0  0  0  0  0  0  0  0  0  0
  139.6360   69.7850  223.6400 C   0  0  2  0  0  0  0  0  0  0  0  0
  139.8720   69.5740  225.0630 C   0  0  0  0  0  0  0  0  0  0  0  0
  139.8260   68.3840  225.7360 C   0  0  0  0  0  0  0  0  0  0  0  0
  140.0640   68.2820  227.1120 C   0  0  0  0  0  0  0  0  0  0  0  0
  140.3620   69.4060  227.8520 C   0  0  0  0  0  0  0  0  0  0  0  0
  140.4140   70.6100  227.1930 C   0  0  0  0  0  0  0  0  0  0  0  0
  140.7350   71.8150  227.9960 C   0  0  0  0  0  0  0  0  0  0  0  0
  141.8280   71.4560  228.7950 F   0  0  0  0  0  0  0  0  0  0  0  0
  141.2120   72.7760  227.1320 F   0  0  0  0  0  0  0  0  0  0  0  0
  139.7230   72.2330  228.8080 F   0  0  0  0  0  0  0  0  0  0  0  0
  140.1760   70.7000  225.8330 C   0  0  0  0  0  0  0  0  0  0  0  0
  139.9620   76.6770  222.3570 C   0  0  0  0  0  0  0  0  0  0  0  0
  138.7860   77.3950  222.4840 C   0  0  0  0  0  0  0  0  0  0  0  0
  138.8740   78.7260  222.8250 C   0  0  0  0  0  0  0  0  0  0  0  0
  140.1000   79.3230  223.0350 C   0  0  0  0  0  0  0  0  0  0  0  0
  140.1990   80.6700  223.3830 C   0  0  0  0  0  0  0  0  0  0  0  0
  141.4330   81.2510  223.5880 C   0  0  0  0  0  0  0  0  0  0  0  0
  142.5990   80.4900  223.4500 C   0  0  0  0  0  0  0  0  0  0  0  0
  142.4940   79.1450  223.1040 C   0  0  0  0  0  0  0  0  0  0  0  0
  141.2640   78.5740  222.9000 C   0  0  0  0  0  0  0  0  0  0  0  0
  141.1770   77.2660  222.5640 N   0  0  0  0  0  0  0  0  0  0  0  0
  137.9260   74.9080  222.8560 H   0  0  0  0  0  0  0  0  0  0  0  0
  137.7011   72.7297  221.9603 H   0  0  0  0  0  0  0  0  0  0  0  0
  139.1711   73.0411  220.9264 H   0  0  0  0  0  0  0  0  0  0  0  0
  137.5568   71.0457  224.9377 H   0  0  0  0  0  0  0  0  0  0  0  0
  136.9187   71.5735  223.3716 H   0  0  0  0  0  0  0  0  0  0  0  0
  136.8767   68.9161  224.4168 H   0  0  0  0  0  0  0  0  0  0  0  0
  136.4900   69.3481  222.7580 H   0  0  0  0  0  0  0  0  0  0  0  0
  138.7324   67.8184  223.5184 H   0  0  0  0  0  0  0  0  0  0  0  0
  138.6731   68.6968  221.9996 H   0  0  0  0  0  0  0  0  0  0  0  0
  140.6330   69.6798  223.1874 H   0  0  0  0  0  0  0  0  0  0  0  0
  139.5922   67.4687  225.1725 H   0  0  0  0  0  0  0  0  0  0  0  0
  140.0129   67.2999  227.6049 H   0  0  0  0  0  0  0  0  0  0  0  0
  140.5517   69.3410  228.9336 H   0  0  0  0  0  0  0  0  0  0  0  0
  140.2274   71.6843  225.3447 H   0  0  0  0  0  0  0  0  0  0  0  0
  137.8096   76.9165  222.3174 H   0  0  0  0  0  0  0  0  0  0  0  0
  137.9550   79.3211  222.9314 H   0  0  0  0  0  0  0  0  0  0  0  0
  139.2861   81.2735  223.4948 H   0  0  0  0  0  0  0  0  0  0  0  0
  141.5006   82.3146  223.8605 H   0  0  0  0  0  0  0  0  0  0  0  0
  143.5858   80.9481  223.6127 H   0  0  0  0  0  0  0  0  0  0  0  0
  143.4038   78.5367  222.9936 H   0  0  0  0  0  0  0  0  0  0  0  0
  1  2  2  0
  2  3  1  0
  3  4  1  0
  4  5  1  0
  5  6  2  0
  5  7  1  0
  7  8  1  0
  8  9  1  0
  9 10  1  0
 10 11  1  0
 11 12  1  0
 12 13  2  0
 13 14  1  0
 14 15  2  0
 15 16  1  0
 16 17  1  0
 17 18  1  0
 17 19  1  0
 17 20  1  0
 16 21  2  0
  2 22  1  0
 22 23  2  0
 23 24  1  0
 24 25  2  0
 25 26  1  0
 26 27  2  0
 27 28  1  0
 28 29  2  0
 29 30  1  0
 30 31  2  0
 11  7  1  0
 21 12  1  0
 31 22  1  0
 30 25  1  0
  3 32  1  0
  4 33  1  0
  4 34  1  0
  8 35  1  0
  8 36  1  0
  9 37  1  0
  9 38  1  0
 10 39  1  0
 10 40  1  0
 11 41  1  6
 13 42  1  0
 14 43  1  0
 15 44  1  0
 21 45  1  0
 23 46  1  0
 24 47  1  0
 26 48  1  0
 27 49  1  0
 28 50  1  0
 29 51  1  0
M  END
>  <smiles>  (15) 
O=C(NCC(=O)N1CCCC1c1cccc(C(F)(F)F)c1)c1ccc2ccccc2n1

>  <score_type>  (15) 
oracle

>  <origin>  (15) 
autodockgpu

>  <m_score__min__energy>  (15) 
-9.5800000000000001

>  <m_primary>  (15) 
energy

>  <rmsd>  (15) 
8.368579341956538

>  <m_score__min__rmsd>  (15) 
8.368579341956538

>  <meeko>  (15) 
{"free_energy": -9.58, "intermolecular_energy": -11.37, "internal_energy": -1.29, "cluster_size": 26, "cluster_id": 1, "rank_in_cluster": 1}

>  <energy>  (15) 
-8.76

>  <cluster_rmsd>  (15) 
1.02

>  <cluster>  (15) 
1

$$$$

     RDKit          3D

 51 54  0  0  0  0  0  0  0  0999 V2000
  141.8310   73.6460  220.9830 O   0  0  0  0  0  0  0  0  0  0  0  0
  141.0240   74.4350  221.5800 C   0  0  0  0  0  0  0  0  0  0  0  0
  139.9200   73.8760  222.2700 N   0  0  0  0  0  0  0  0  0  0  0  0
  139.7800   72.4370  222.2530 C   0  0  0  0  0  0  0  0  0  0  0  0
  138.4850   71.9790  222.7540 C   0  0  0  0  0  0  0  0  0  0  0  0
  137.4590   72.7010  222.7520 O   0  0  0  0  0  0  0  0  0  0  0  0
  138.3480   70.6640  223.2700 N   0  0  0  0  0  0  0  0  0  0  0  0
  137.1130   69.9740  223.6620 C   0  0  0  0  0  0  0  0  0  0  0  0
  137.3100   68.5170  223.2880 C   0  0  0  0  0  0  0  0  0  0  0  0
  138.7890   68.4310  222.9110 C   0  0  0  0  0  0  0  0  0  0  0  0
  139.3930   69.6720  223.5380 C   0  0  2  0  0  0  0  0  0  0  0  0
  139.6250   69.5010  224.9670 C   0  0  0  0  0  0  0  0  0  0  0  0
  139.3970   68.3740  225.7080 C   0  0  0  0  0  0  0  0  0  0  0  0
  139.6480   68.3070  227.0830 C   0  0  0  0  0  0  0  0  0  0  0  0
  140.1460   69.4030  227.7540 C   0  0  0  0  0  0  0  0  0  0  0  0
  140.3820   70.5450  227.0260 C   0  0  0  0  0  0  0  0  0  0  0  0
  140.9180   71.7210  227.7550 C   0  0  0  0  0  0  0  0  0  0  0  0
  139.8300   72.2580  228.4550 F   0  0  0  0  0  0  0  0  0  0  0  0
  141.7810   71.2530  228.7210 F   0  0  0  0  0  0  0  0  0  0  0  0
  141.4370   72.6900  226.9500 F   0  0  0  0  0  0  0  0  0  0  0  0
  140.1310   70.6000  225.6680 C   0  0  0  0  0  0  0  0  0  0  0  0
  141.2360   75.8840  221.5490 C   0  0  0  0  0  0  0  0  0  0  0  0
  141.6160   76.4710  220.3540 C   0  0  0  0  0  0  0  0  0  0  0  0
  141.8130   77.8330  220.3370 C   0  0  0  0  0  0  0  0  0  0  0  0
  141.6350   78.5890  221.4770 C   0  0  0  0  0  0  0  0  0  0  0  0
  141.8320   79.9700  221.4690 C   0  0  0  0  0  0  0  0  0  0  0  0
  141.6500   80.7100  222.6180 C   0  0  0  0  0  0  0  0  0  0  0  0
  141.2640   80.0790  223.8060 C   0  0  0  0  0  0  0  0  0  0  0  0
  141.0690   78.7000  223.8080 C   0  0  0  0  0  0  0  0  0  0  0  0
  141.2530   77.9700  222.6620 C   0  0  0  0  0  0  0  0  0  0  0  0
  141.0590   76.6300  222.6790 N   0  0  0  0  0  0  0  0  0  0  0  0
  139.2220   74.4870  222.7790 H   0  0  0  0  0  0  0  0  0  0  0  0
  139.8981   72.0863  221.2171 H   0  0  0  0  0  0  0  0  0  0  0  0
  140.5527   72.0252  222.9189 H   0  0  0  0  0  0  0  0  0  0  0  0
  136.9483   70.0714  224.7452 H   0  0  0  0  0  0  0  0  0  0  0  0
  136.2346   70.4036  223.1581 H   0  0  0  0  0  0  0  0  0  0  0  0
  137.0847   67.8601  224.1410 H   0  0  0  0  0  0  0  0  0  0  0  0
  136.6451   68.1945  222.4732 H   0  0  0  0  0  0  0  0  0  0  0  0
  139.2468   67.5203  223.3245 H   0  0  0  0  0  0  0  0  0  0  0  0
  138.9494   68.3817  221.8239 H   0  0  0  0  0  0  0  0  0  0  0  0
  140.3823   69.9411  223.1393 H   0  0  0  0  0  0  0  0  0  0  0  0
  138.9994   67.4823  225.2013 H   0  0  0  0  0  0  0  0  0  0  0  0
  139.4468   67.3748  227.6311 H   0  0  0  0  0  0  0  0  0  0  0  0
  140.3476   69.3653  228.8347 H   0  0  0  0  0  0  0  0  0  0  0  0
  140.3349   71.5339  225.1237 H   0  0  0  0  0  0  0  0  0  0  0  0
  141.7562   75.8669  219.4455 H   0  0  0  0  0  0  0  0  0  0  0  0
  142.1166   78.3255  219.4015 H   0  0  0  0  0  0  0  0  0  0  0  0
  142.1350   80.4726  220.5386 H   0  0  0  0  0  0  0  0  0  0  0  0
  141.8085   81.7984  222.6009 H   0  0  0  0  0  0  0  0  0  0  0  0
  141.1166   80.6642  224.7257 H   0  0  0  0  0  0  0  0  0  0  0  0
  140.7652   78.1928  224.7356 H   0  0  0  0  0  0  0  0  0  0  0  0
  1  2  2  0
  2  3  1  0
  3  4  1  0
  4  5  1  0
  5  6  2  0
  5  7  1  0
  7  8  1  0
  8  9  1  0
  9 10  1  0
 10 11  1  0
 11 12  1  0
 12 13  2  0
 13 14  1  0
 14 15  2  0
 15 16  1  0
 16 17  1  0
 17 18  1  0
 17 19  1  0
 17 20  1  0
 16 21  2  0
  2 22  1  0
 22 23  2  0
 23 24  1  0
 24 25  2  0
 25 26  1  0
 26 27  2  0
 27 28  1  0
 28 29  2  0
 29 30  1  0
 30 31  2  0
 11  7  1  0
 21 12  1  0
 31 22  1  0
 30 25  1  0
  3 32  1  0
  4 33  1  0
  4 34  1  0
  8 35  1  0
  8 36  1  0
  9 37  1  0
  9 38  1  0
 10 39  1  0
 10 40  1  0
 11 41  1  6
 13 42  1  0
 14 43  1  0
 15 44  1  0
 21 45  1  0
 23 46  1  0
 24 47  1  0
 26 48  1  0
 27 49  1  0
 28 50  1  0
 29 51  1  0
M  END
>  <smiles>  (16) 
O=C(NCC(=O)N1CCCC1c1cccc(C(F)(F)F)c1)c1ccc2ccccc2n1

>  <score_type>  (16) 
oracle

>  <origin>  (16) 
autodockgpu

>  <m_score__min__energy>  (16) 
-9.5800000000000001

>  <m_primary>  (16) 
energy

>  <rmsd>  (16) 
8.401064833590647

>  <m_score__min__rmsd>  (16) 
8.401064833590647

>  <meeko>  (16) 
{"free_energy": -8.52, "intermolecular_energy": -10.31, "internal_energy": -1.59, "cluster_size": 26, "cluster_id": 1, "rank_in_cluster": 21}

>  <energy>  (16) 
-8.73

>  <cluster_rmsd>  (16) 
1.0

>  <cluster>  (16) 
1

$$$$

     RDKit          3D

 51 54  0  0  0  0  0  0  0  0999 V2000
  137.5380   75.8390  222.2390 O   0  0  0  0  0  0  0  0  0  0  0  0
  138.7900   76.0450  222.3700 C   0  0  0  0  0  0  0  0  0  0  0  0
  139.6730   74.9440  222.2410 N   0  0  0  0  0  0  0  0  0  0  0  0
  139.0910   73.6500  221.9670 C   0  0  0  0  0  0  0  0  0  0  0  0
  139.8160   72.5470  222.5980 C   0  0  0  0  0  0  0  0  0  0  0  0
  141.0650   72.5320  222.7180 O   0  0  0  0  0  0  0  0  0  0  0  0
  139.1050   71.4300  223.1090 N   0  0  0  0  0  0  0  0  0  0  0  0
  137.7100   71.3800  223.5610 C   0  0  0  0  0  0  0  0  0  0  0  0
  137.1890   70.0120  223.1630 C   0  0  0  0  0  0  0  0  0  0  0  0
  138.4390   69.2620  222.7050 C   0  0  0  0  0  0  0  0  0  0  0  0
  139.5780   70.0570  223.3090 C   0  0  2  0  0  0  0  0  0  0  0  0
  139.7670   69.7490  224.7220 C   0  0  0  0  0  0  0  0  0  0  0  0
  139.5760   68.5400  225.3320 C   0  0  0  0  0  0  0  0  0  0  0  0
  139.7800   68.3430  226.7030 C   0  0  0  0  0  0  0  0  0  0  0  0
  140.1890   69.3870  227.5030 C   0  0  0  0  0  0  0  0  0  0  0  0
  140.3860   70.6100  226.9080 C   0  0  0  0  0  0  0  0  0  0  0  0
  140.8270   71.7290  227.7770 C   0  0  0  0  0  0  0  0  0  0  0  0
  141.7880   71.1820  228.6370 F   0  0  0  0  0  0  0  0  0  0  0  0
  141.5100   72.6250  226.9850 F   0  0  0  0  0  0  0  0  0  0  0  0
  139.8330   72.2780  228.5300 F   0  0  0  0  0  0  0  0  0  0  0  0
  140.1820   70.7940  225.5530 C   0  0  0  0  0  0  0  0  0  0  0  0
  139.3020   77.3900  222.6490 C   0  0  0  0  0  0  0  0  0  0  0  0
  138.3930   78.4170  222.8360 C   0  0  0  0  0  0  0  0  0  0  0  0
  138.8840   79.6760  223.0960 C   0  0  0  0  0  0  0  0  0  0  0  0
  140.2430   79.9050  223.1680 C   0  0  0  0  0  0  0  0  0  0  0  0
  140.7490   81.1770  223.4320 C   0  0  0  0  0  0  0  0  0  0  0  0
  142.1110   81.3880  223.5000 C   0  0  0  0  0  0  0  0  0  0  0  0
  142.9970   80.3230  223.3060 C   0  0  0  0  0  0  0  0  0  0  0  0
  142.4850   79.0540  223.0430 C   0  0  0  0  0  0  0  0  0  0  0  0
  141.1300   78.8520  222.9760 C   0  0  0  0  0  0  0  0  0  0  0  0
  140.6470   77.6140  222.7200 N   0  0  0  0  0  0  0  0  0  0  0  0
  140.7200   75.0620  222.3420 H   0  0  0  0  0  0  0  0  0  0  0  0
  138.0559   73.6463  222.3391 H   0  0  0  0  0  0  0  0  0  0  0  0
  139.1395   73.4933  220.8793 H   0  0  0  0  0  0  0  0  0  0  0  0
  137.6574   71.5061  224.6525 H   0  0  0  0  0  0  0  0  0  0  0  0
  137.1117   72.1853  223.1099 H   0  0  0  0  0  0  0  0  0  0  0  0
  136.7215   69.5064  224.0208 H   0  0  0  0  0  0  0  0  0  0  0  0
  136.4152   70.0631  222.3829 H   0  0  0  0  0  0  0  0  0  0  0  0
  138.4375   68.2294  223.0840 H   0  0  0  0  0  0  0  0  0  0  0  0
  138.5098   69.1812  221.6103 H   0  0  0  0  0  0  0  0  0  0  0  0
  140.5597   69.8487  222.8586 H   0  0  0  0  0  0  0  0  0  0  0  0
  139.2484   67.6867  224.7199 H   0  0  0  0  0  0  0  0  0  0  0  0
  139.6127   67.3491  227.1437 H   0  0  0  0  0  0  0  0  0  0  0  0
  140.3524   69.2466  228.5817 H   0  0  0  0  0  0  0  0  0  0  0  0
  140.3508   71.7896  225.1169 H   0  0  0  0  0  0  0  0  0  0  0  0
  137.3102   78.2322  222.7785 H   0  0  0  0  0  0  0  0  0  0  0  0
  138.1841   80.5108  223.2484 H   0  0  0  0  0  0  0  0  0  0  0  0
  140.0576   82.0184  223.5872 H   0  0  0  0  0  0  0  0  0  0  0  0
  142.5007   82.3956  223.7071 H   0  0  0  0  0  0  0  0  0  0  0  0
  144.0836   80.4852  223.3604 H   0  0  0  0  0  0  0  0  0  0  0  0
  143.1719   78.2089  222.8881 H   0  0  0  0  0  0  0  0  0  0  0  0
  1  2  2  0
  2  3  1  0
  3  4  1  0
  4  5  1  0
  5  6  2  0
  5  7  1  0
  7  8  1  0
  8  9  1  0
  9 10  1  0
 10 11  1  0
 11 12  1  0
 12 13  2  0
 13 14  1  0
 14 15  2  0
 15 16  1  0
 16 17  1  0
 17 18  1  0
 17 19  1  0
 17 20  1  0
 16 21  2  0
  2 22  1  0
 22 23  2  0
 23 24  1  0
 24 25  2  0
 25 26  1  0
 26 27  2  0
 27 28  1  0
 28 29  2  0
 29 30  1  0
 30 31  2  0
 11  7  1  0
 21 12  1  0
 31 22  1  0
 30 25  1  0
  3 32  1  0
  4 33  1  0
  4 34  1  0
  8 35  1  0
  8 36  1  0
  9 37  1  0
  9 38  1  0
 10 39  1  0
 10 40  1  0
 11 41  1  6
 13 42  1  0
 14 43  1  0
 15 44  1  0
 21 45  1  0
 23 46  1  0
 24 47  1  0
 26 48  1  0
 27 49  1  0
 28 50  1  0
 29 51  1  0
M  END
>  <smiles>  (17) 
O=C(NCC(=O)N1CCCC1c1cccc(C(F)(F)F)c1)c1ccc2ccccc2n1

>  <score_type>  (17) 
oracle

>  <origin>  (17) 
autodockgpu

>  <m_score__min__energy>  (17) 
-9.5800000000000001

>  <m_primary>  (17) 
energy

>  <rmsd>  (17) 
8.488360125067878

>  <m_score__min__rmsd>  (17) 
8.488360125067878

>  <meeko>  (17) 
{"free_energy": -8.73, "intermolecular_energy": -10.52, "internal_energy": -1.72, "cluster_size": 26, "cluster_id": 1, "rank_in_cluster": 17}

>  <energy>  (17) 
-8.73

>  <cluster_rmsd>  (17) 
0.99

>  <cluster>  (17) 
1

$$$$

     RDKit          3D

 51 54  0  0  0  0  0  0  0  0999 V2000
  138.7010   72.4370  222.0990 O   0  0  0  0  0  0  0  0  0  0  0  0
  139.8120   72.0660  222.6060 C   0  0  0  0  0  0  0  0  0  0  0  0
  141.0130   72.4950  221.9900 N   0  0  0  0  0  0  0  0  0  0  0  0
  140.9000   73.3330  220.8180 C   0  0  0  0  0  0  0  0  0  0  0  0
  140.9350   74.7620  221.1260 C   0  0  0  0  0  0  0  0  0  0  0  0
  140.3390   75.2620  222.1100 O   0  0  0  0  0  0  0  0  0  0  0  0
  141.6660   75.6510  220.2940 N   0  0  0  0  0  0  0  0  0  0  0  0
  143.1170   75.6940  220.0790 C   0  0  0  0  0  0  0  0  0  0  0  0
  143.3140   76.0800  218.6250 C   0  0  0  0  0  0  0  0  0  0  0  0
  141.9140   76.4740  218.1570 C   0  0  0  0  0  0  0  0  0  0  0  0
  141.1620   76.7350  219.4470 C   0  0  2  0  0  0  0  0  0  0  0  0
  141.4750   78.0470  220.0020 C   0  0  0  0  0  0  0  0  0  0  0  0
  141.7580   79.1880  219.3040 C   0  0  0  0  0  0  0  0  0  0  0  0
  142.0520   80.4050  219.9290 C   0  0  0  0  0  0  0  0  0  0  0  0
  142.0660   80.4960  221.3040 C   0  0  0  0  0  0  0  0  0  0  0  0
  141.7830   79.3600  222.0230 C   0  0  0  0  0  0  0  0  0  0  0  0
  141.7990   79.4650  223.5030 C   0  0  0  0  0  0  0  0  0  0  0  0
  142.9730   80.1620  223.8180 F   0  0  0  0  0  0  0  0  0  0  0  0
  140.7670   80.3000  223.8710 F   0  0  0  0  0  0  0  0  0  0  0  0
  141.8200   78.2660  224.1490 F   0  0  0  0  0  0  0  0  0  0  0  0
  141.4940   78.1620  221.3950 C   0  0  0  0  0  0  0  0  0  0  0  0
  139.8420   71.2130  223.7980 C   0  0  0  0  0  0  0  0  0  0  0  0
  139.2680   69.9550  223.7260 C   0  0  0  0  0  0  0  0  0  0  0  0
  139.3010   69.1640  224.8510 C   0  0  0  0  0  0  0  0  0  0  0  0
  139.8890   69.6130  226.0160 C   0  0  0  0  0  0  0  0  0  0  0  0
  139.9270   68.8170  227.1610 C   0  0  0  0  0  0  0  0  0  0  0  0
  140.5180   69.2830  228.3160 C   0  0  0  0  0  0  0  0  0  0  0  0
  141.0870   70.5600  228.3490 C   0  0  0  0  0  0  0  0  0  0  0  0
  141.0460   71.3500  227.2030 C   0  0  0  0  0  0  0  0  0  0  0  0
  140.4560   70.8820  226.0570 C   0  0  0  0  0  0  0  0  0  0  0  0
  140.4240   71.6600  224.9500 N   0  0  0  0  0  0  0  0  0  0  0  0
  141.9600   72.2140  222.3710 H   0  0  0  0  0  0  0  0  0  0  0  0
  141.7349   73.1009  220.1404 H   0  0  0  0  0  0  0  0  0  0  0  0
  139.9234   73.1216  220.3580 H   0  0  0  0  0  0  0  0  0  0  0  0
  143.5790   76.4429  220.7391 H   0  0  0  0  0  0  0  0  0  0  0  0
  143.5864   74.7253  220.3054 H   0  0  0  0  0  0  0  0  0  0  0  0
  144.0095   76.9275  218.5358 H   0  0  0  0  0  0  0  0  0  0  0  0
  143.7488   75.2669  218.0252 H   0  0  0  0  0  0  0  0  0  0  0  0
  141.9495   77.3798  217.5339 H   0  0  0  0  0  0  0  0  0  0  0  0
  141.4390   75.6996  217.5368 H   0  0  0  0  0  0  0  0  0  0  0  0
  140.0678   76.7480  219.3354 H   0  0  0  0  0  0  0  0  0  0  0  0
  141.7544   79.1477  218.2047 H   0  0  0  0  0  0  0  0  0  0  0  0
  142.2731   81.2937  219.3196 H   0  0  0  0  0  0  0  0  0  0  0  0
  142.2959   81.4459  221.8087 H   0  0  0  0  0  0  0  0  0  0  0  0
  141.2732   77.2759  222.0082 H   0  0  0  0  0  0  0  0  0  0  0  0
  138.7995   69.5987  222.7967 H   0  0  0  0  0  0  0  0  0  0  0  0
  138.8526   68.1600  224.8216 H   0  0  0  0  0  0  0  0  0  0  0  0
  139.4825   67.8110  227.1421 H   0  0  0  0  0  0  0  0  0  0  0  0
  140.5421   68.6485  229.2142 H   0  0  0  0  0  0  0  0  0  0  0  0
  141.5607   70.9355  229.2680 H   0  0  0  0  0  0  0  0  0  0  0  0
  141.4899   72.3563  227.2171 H   0  0  0  0  0  0  0  0  0  0  0  0
  1  2  2  0
  2  3  1  0
  3  4  1  0
  4  5  1  0
  5  6  2  0
  5  7  1  0
  7  8  1  0
  8  9  1  0
  9 10  1  0
 10 11  1  0
 11 12  1  0
 12 13  2  0
 13 14  1  0
 14 15  2  0
 15 16  1  0
 16 17  1  0
 17 18  1  0
 17 19  1  0
 17 20  1  0
 16 21  2  0
  2 22  1  0
 22 23  2  0
 23 24  1  0
 24 25  2  0
 25 26  1  0
 26 27  2  0
 27 28  1  0
 28 29  2  0
 29 30  1  0
 30 31  2  0
 11  7  1  0
 21 12  1  0
 31 22  1  0
 30 25  1  0
  3 32  1  0
  4 33  1  0
  4 34  1  0
  8 35  1  0
  8 36  1  0
  9 37  1  0
  9 38  1  0
 10 39  1  0
 10 40  1  0
 11 41  1  6
 13 42  1  0
 14 43  1  0
 15 44  1  0
 21 45  1  0
 23 46  1  0
 24 47  1  0
 26 48  1  0
 27 49  1  0
 28 50  1  0
 29 51  1  0
M  END
>  <smiles>  (18) 
O=C(NCC(=O)N1CCCC1c1cccc(C(F)(F)F)c1)c1ccc2ccccc2n1

>  <score_type>  (18) 
oracle

>  <origin>  (18) 
autodockgpu

>  <m_score__min__energy>  (18) 
-9.5800000000000001

>  <m_primary>  (18) 
energy

>  <rmsd>  (18) 
2.2878975313578045

>  <m_score__min__rmsd>  (18) 
2.2878975313578045

>  <meeko>  (18) 
{"free_energy": -8.4, "intermolecular_energy": -10.19, "internal_energy": -1.36, "cluster_size": 18, "cluster_id": 2, "rank_in_cluster": 9}

>  <energy>  (18) 
-8.72

>  <cluster_rmsd>  (18) 
1.75

>  <cluster>  (18) 
1

$$$$

     RDKit          3D

 51 54  0  0  0  0  0  0  0  0999 V2000
  140.7470   73.7940  222.2850 O   0  0  0  0  0  0  0  0  0  0  0  0
  140.1200   74.7020  221.6440 C   0  0  0  0  0  0  0  0  0  0  0  0
  138.9080   74.3580  220.9970 N   0  0  0  0  0  0  0  0  0  0  0  0
  138.4580   72.9890  221.1070 C   0  0  0  0  0  0  0  0  0  0  0  0
  137.6090   72.7540  222.2750 C   0  0  0  0  0  0  0  0  0  0  0  0
  136.7610   73.5840  222.6800 O   0  0  0  0  0  0  0  0  0  0  0  0
  137.7250   71.5410  223.0050 N   0  0  0  0  0  0  0  0  0  0  0  0
  136.7610   70.9630  223.9490 C   0  0  0  0  0  0  0  0  0  0  0  0
  136.8430   69.4600  223.7630 C   0  0  0  0  0  0  0  0  0  0  0  0
  138.0610   69.2670  222.8600 C   0  0  0  0  0  0  0  0  0  0  0  0
  138.8220   70.5700  222.9990 C   0  0  2  0  0  0  0  0  0  0  0  0
  139.5960   70.6190  224.2330 C   0  0  0  0  0  0  0  0  0  0  0  0
  140.3240   71.6770  224.7060 C   0  0  0  0  0  0  0  0  0  0  0  0
  141.0420   71.6260  225.9060 C   0  0  0  0  0  0  0  0  0  0  0  0
  141.0400   70.4800  226.6710 C   0  0  0  0  0  0  0  0  0  0  0  0
  140.3150   69.4070  226.2130 C   0  0  0  0  0  0  0  0  0  0  0  0
  140.3180   68.1760  227.0410 C   0  0  0  0  0  0  0  0  0  0  0  0
  139.2400   67.4090  226.5810 F   0  0  0  0  0  0  0  0  0  0  0  0
  141.4470   67.4580  226.7140 F   0  0  0  0  0  0  0  0  0  0  0  0
  140.1530   68.3990  228.3760 F   0  0  0  0  0  0  0  0  0  0  0  0
  139.6090   69.4670  225.0250 C   0  0  0  0  0  0  0  0  0  0  0  0
  140.6450   76.0690  221.5790 C   0  0  0  0  0  0  0  0  0  0  0  0
  140.9560   76.5990  220.3390 C   0  0  0  0  0  0  0  0  0  0  0  0
  141.4490   77.8830  220.2900 C   0  0  0  0  0  0  0  0  0  0  0  0
  141.6270   78.6180  221.4440 C   0  0  0  0  0  0  0  0  0  0  0  0
  142.1250   79.9210  221.4030 C   0  0  0  0  0  0  0  0  0  0  0  0
  142.2960   80.6400  222.5670 C   0  0  0  0  0  0  0  0  0  0  0  0
  141.9690   80.0690  223.8010 C   0  0  0  0  0  0  0  0  0  0  0  0
  141.4710   78.7680  223.8350 C   0  0  0  0  0  0  0  0  0  0  0  0
  141.3040   78.0570  222.6750 C   0  0  0  0  0  0  0  0  0  0  0  0
  140.8200   76.7950  222.7230 N   0  0  0  0  0  0  0  0  0  0  0  0
  138.3500   75.0740  220.4520 H   0  0  0  0  0  0  0  0  0  0  0  0
  137.8862   72.7351  220.2023 H   0  0  0  0  0  0  0  0  0  0  0  0
  139.3524   72.3588  221.2206 H   0  0  0  0  0  0  0  0  0  0  0  0
  137.0265   71.2354  224.9811 H   0  0  0  0  0  0  0  0  0  0  0  0
  135.7430   71.3367  223.7645 H   0  0  0  0  0  0  0  0  0  0  0  0
  136.9876   68.9535  224.7287 H   0  0  0  0  0  0  0  0  0  0  0  0
  135.9242   69.0352  223.3324 H   0  0  0  0  0  0  0  0  0  0  0  0
  138.6715   68.4180  223.2012 H   0  0  0  0  0  0  0  0  0  0  0  0
  137.7878   69.0421  221.8185 H   0  0  0  0  0  0  0  0  0  0  0  0
  139.5699   70.7398  222.2105 H   0  0  0  0  0  0  0  0  0  0  0  0
  140.3456   72.6065  224.1181 H   0  0  0  0  0  0  0  0  0  0  0  0
  141.6113   72.5058  226.2405 H   0  0  0  0  0  0  0  0  0  0  0  0
  141.5999   70.4262  227.6163 H   0  0  0  0  0  0  0  0  0  0  0  0
  139.0423   68.5841  224.6944 H   0  0  0  0  0  0  0  0  0  0  0  0
  140.8134   76.0116  219.4200 H   0  0  0  0  0  0  0  0  0  0  0  0
  141.7046   78.3293  219.3176 H   0  0  0  0  0  0  0  0  0  0  0  0
  142.3828   80.3774  220.4359 H   0  0  0  0  0  0  0  0  0  0  0  0
  142.6908   81.6658  222.5249 H   0  0  0  0  0  0  0  0  0  0  0  0
  142.1031   80.6391  224.7321 H   0  0  0  0  0  0  0  0  0  0  0  0
  141.2100   78.3082  224.7996 H   0  0  0  0  0  0  0  0  0  0  0  0
  1  2  2  0
  2  3  1  0
  3  4  1  0
  4  5  1  0
  5  6  2  0
  5  7  1  0
  7  8  1  0
  8  9  1  0
  9 10  1  0
 10 11  1  0
 11 12  1  0
 12 13  2  0
 13 14  1  0
 14 15  2  0
 15 16  1  0
 16 17  1  0
 17 18  1  0
 17 19  1  0
 17 20  1  0
 16 21  2  0
  2 22  1  0
 22 23  2  0
 23 24  1  0
 24 25  2  0
 25 26  1  0
 26 27  2  0
 27 28  1  0
 28 29  2  0
 29 30  1  0
 30 31  2  0
 11  7  1  0
 21 12  1  0
 31 22  1  0
 30 25  1  0
  3 32  1  0
  4 33  1  0
  4 34  1  0
  8 35  1  0
  8 36  1  0
  9 37  1  0
  9 38  1  0
 10 39  1  0
 10 40  1  0
 11 41  1  6
 13 42  1  0
 14 43  1  0
 15 44  1  0
 21 45  1  0
 23 46  1  0
 24 47  1  0
 26 48  1  0
 27 49  1  0
 28 50  1  0
 29 51  1  0
M  END
>  <smiles>  (19) 
O=C(NCC(=O)N1CCCC1c1cccc(C(F)(F)F)c1)c1ccc2ccccc2n1

>  <score_type>  (19) 
oracle

>  <origin>  (19) 
autodockgpu

>  <m_score__min__energy>  (19) 
-9.5800000000000001

>  <m_primary>  (19) 
energy

>  <rmsd>  (19) 
8.204360750979596

>  <m_score__min__rmsd>  (19) 
8.204360750979596

>  <meeko>  (19) 
{"free_energy": -8.24, "intermolecular_energy": -10.03, "internal_energy": -1.51, "cluster_size": 1, "cluster_id": 3, "rank_in_cluster": 1}

>  <energy>  (19) 
-8.67

>  <cluster_rmsd>  (19) 
1.17

>  <cluster>  (19) 
1

$$$$

     RDKit          3D

 51 54  0  0  0  0  0  0  0  0999 V2000
  140.3060   71.1070  221.2980 O   0  0  0  0  0  0  0  0  0  0  0  0
  140.0440   71.6860  222.4050 C   0  0  0  0  0  0  0  0  0  0  0  0
  139.7810   73.0780  222.3930 N   0  0  0  0  0  0  0  0  0  0  0  0
  139.8280   73.7560  221.1180 C   0  0  0  0  0  0  0  0  0  0  0  0
  139.9710   75.2070  221.2420 C   0  0  0  0  0  0  0  0  0  0  0  0
  139.2530   75.9010  222.0010 O   0  0  0  0  0  0  0  0  0  0  0  0
  140.9570   75.8900  220.4830 N   0  0  0  0  0  0  0  0  0  0  0  0
  142.4050   75.6470  220.4610 C   0  0  0  0  0  0  0  0  0  0  0  0
  142.8510   75.9020  219.0340 C   0  0  0  0  0  0  0  0  0  0  0  0
  141.6220   76.5230  218.3700 C   0  0  0  0  0  0  0  0  0  0  0  0
  140.7830   76.9970  219.5390 C   0  0  2  0  0  0  0  0  0  0  0  0
  141.2730   78.2580  220.0850 C   0  0  0  0  0  0  0  0  0  0  0  0
  141.6940   79.3510  219.3780 C   0  0  0  0  0  0  0  0  0  0  0  0
  142.1540   80.5200  219.9940 C   0  0  0  0  0  0  0  0  0  0  0  0
  142.1990   80.6110  221.3680 C   0  0  0  0  0  0  0  0  0  0  0  0
  141.7800   79.5230  222.0960 C   0  0  0  0  0  0  0  0  0  0  0  0
  141.8320   79.6290  223.5750 C   0  0  0  0  0  0  0  0  0  0  0  0
  140.6040   80.1850  223.9560 F   0  0  0  0  0  0  0  0  0  0  0  0
  141.8290   78.3490  224.0830 F   0  0  0  0  0  0  0  0  0  0  0  0
  142.8330   80.4260  224.0440 F   0  0  0  0  0  0  0  0  0  0  0  0
  141.3270   78.3730  221.4770 C   0  0  0  0  0  0  0  0  0  0  0  0
  140.0170   70.9260  223.6580 C   0  0  0  0  0  0  0  0  0  0  0  0
  139.5040   69.6410  223.6410 C   0  0  0  0  0  0  0  0  0  0  0  0
  139.4830   68.9370  224.8230 C   0  0  0  0  0  0  0  0  0  0  0  0
  139.9600   69.4980  225.9890 C   0  0  0  0  0  0  0  0  0  0  0  0
  139.9440   68.7920  227.1920 C   0  0  0  0  0  0  0  0  0  0  0  0
  140.4250   69.3690  228.3490 C   0  0  0  0  0  0  0  0  0  0  0  0
  140.9360   70.6710  228.3240 C   0  0  0  0  0  0  0  0  0  0  0  0
  140.9510   71.3710  227.1200 C   0  0  0  0  0  0  0  0  0  0  0  0
  140.4700   70.7920  225.9740 C   0  0  0  0  0  0  0  0  0  0  0  0
  140.4900   71.4840  224.8110 N   0  0  0  0  0  0  0  0  0  0  0  0
  139.5590   73.6050  223.2840 H   0  0  0  0  0  0  0  0  0  0  0  0
  140.6842   73.3678  220.5469 H   0  0  0  0  0  0  0  0  0  0  0  0
  138.8714   73.5639  220.6100 H   0  0  0  0  0  0  0  0  0  0  0  0
  142.9182   76.3338  221.1502 H   0  0  0  0  0  0  0  0  0  0  0  0
  142.6462   74.6226  220.7811 H   0  0  0  0  0  0  0  0  0  0  0  0
  143.7029   76.5974  219.0086 H   0  0  0  0  0  0  0  0  0  0  0  0
  143.1910   74.9875  218.5260 H   0  0  0  0  0  0  0  0  0  0  0  0
  141.9088   77.3669  217.7254 H   0  0  0  0  0  0  0  0  0  0  0  0
  141.0860   75.8161  217.7196 H   0  0  0  0  0  0  0  0  0  0  0  0
  139.7346   77.2091  219.2823 H   0  0  0  0  0  0  0  0  0  0  0  0
  141.6698   79.3090  218.2791 H   0  0  0  0  0  0  0  0  0  0  0  0
  142.4814   81.3707  219.3782 H   0  0  0  0  0  0  0  0  0  0  0  0
  142.5582   81.5238  221.8657 H   0  0  0  0  0  0  0  0  0  0  0  0
  141.0001   77.5251  222.0969 H   0  0  0  0  0  0  0  0  0  0  0  0
  139.1241   69.1954  222.7098 H   0  0  0  0  0  0  0  0  0  0  0  0
  139.0805   67.9134  224.8381 H   0  0  0  0  0  0  0  0  0  0  0  0
  139.5448   67.7673  227.2182 H   0  0  0  0  0  0  0  0  0  0  0  0
  140.4067   68.8044  229.2928 H   0  0  0  0  0  0  0  0  0  0  0  0
  141.3211   71.1360  229.2435 H   0  0  0  0  0  0  0  0  0  0  0  0
  141.3514   72.3951  227.0883 H   0  0  0  0  0  0  0  0  0  0  0  0
  1  2  2  0
  2  3  1  0
  3  4  1  0
  4  5  1  0
  5  6  2  0
  5  7  1  0
  7  8  1  0
  8  9  1  0
  9 10  1  0
 10 11  1  0
 11 12  1  0
 12 13  2  0
 13 14  1  0
 14 15  2  0
 15 16  1  0
 16 17  1  0
 17 18  1  0
 17 19  1  0
 17 20  1  0
 16 21  2  0
  2 22  1  0
 22 23  2  0
 23 24  1  0
 24 25  2  0
 25 26  1  0
 26 27  2  0
 27 28  1  0
 28 29  2  0
 29 30  1  0
 30 31  2  0
 11  7  1  0
 21 12  1  0
 31 22  1  0
 30 25  1  0
  3 32  1  0
  4 33  1  0
  4 34  1  0
  8 35  1  0
  8 36  1  0
  9 37  1  0
  9 38  1  0
 10 39  1  0
 10 40  1  0
 11 41  1  6
 13 42  1  0
 14 43  1  0
 15 44  1  0
 21 45  1  0
 23 46  1  0
 24 47  1  0
 26 48  1  0
 27 49  1  0
 28 50  1  0
 29 51  1  0
M  END
>  <smiles>  (20) 
O=C(NCC(=O)N1CCCC1c1cccc(C(F)(F)F)c1)c1ccc2ccccc2n1

>  <score_type>  (20) 
oracle

>  <origin>  (20) 
autodockgpu

>  <m_score__min__energy>  (20) 
-9.5800000000000001

>  <m_primary>  (20) 
energy

>  <rmsd>  (20) 
1.9458391855583421

>  <m_score__min__rmsd>  (20) 
1.9458391855583421

>  <meeko>  (20) 
{"free_energy": -8.32, "intermolecular_energy": -10.11, "internal_energy": -1.53, "cluster_size": 18, "cluster_id": 2, "rank_in_cluster": 14}

>  <energy>  (20) 
-8.56

>  <cluster_rmsd>  (20) 
1.73

>  <cluster>  (20) 
1

$$$$

     RDKit          3D

 51 54  0  0  0  0  0  0  0  0999 V2000
  137.4700   75.9490  222.4750 O   0  0  0  0  0  0  0  0  0  0  0  0
  138.7290   76.1550  222.4390 C   0  0  0  0  0  0  0  0  0  0  0  0
  139.5850   75.0580  222.1750 N   0  0  0  0  0  0  0  0  0  0  0  0
  138.9720   73.7680  221.9590 C   0  0  0  0  0  0  0  0  0  0  0  0
  139.8010   72.6520  222.4140 C   0  0  0  0  0  0  0  0  0  0  0  0
  141.0540   72.7090  222.4630 O   0  0  0  0  0  0  0  0  0  0  0  0
  139.1940   71.4370  222.8250 N   0  0  0  0  0  0  0  0  0  0  0  0
  137.7640   71.1600  223.0050 C   0  0  0  0  0  0  0  0  0  0  0  0
  137.5580   69.7210  222.5710 C   0  0  0  0  0  0  0  0  0  0  0  0
  138.9770   69.1850  222.3900 C   0  0  0  0  0  0  0  0  0  0  0  0
  139.8340   70.1630  223.1680 C   0  0  2  0  0  0  0  0  0  0  0  0
  139.7910   69.9030  224.6020 C   0  0  0  0  0  0  0  0  0  0  0  0
  139.2860   68.7940  225.2210 C   0  0  0  0  0  0  0  0  0  0  0  0
  139.2850   68.6370  226.6120 C   0  0  0  0  0  0  0  0  0  0  0  0
  139.8070   69.6200  227.4240 C   0  0  0  0  0  0  0  0  0  0  0  0
  140.3200   70.7420  226.8200 C   0  0  0  0  0  0  0  0  0  0  0  0
  140.8810   71.7960  227.7010 C   0  0  0  0  0  0  0  0  0  0  0  0
  141.7690   71.1360  228.5590 F   0  0  0  0  0  0  0  0  0  0  0  0
  141.6650   72.6160  226.9200 F   0  0  0  0  0  0  0  0  0  0  0  0
  139.9520   72.4470  228.4550 F   0  0  0  0  0  0  0  0  0  0  0  0
  140.3160   70.8880  225.4450 C   0  0  0  0  0  0  0  0  0  0  0  0
  139.2740   77.4960  222.6700 C   0  0  0  0  0  0  0  0  0  0  0  0
  138.3910   78.5540  222.8040 C   0  0  0  0  0  0  0  0  0  0  0  0
  138.9140   79.8090  223.0190 C   0  0  0  0  0  0  0  0  0  0  0  0
  140.2770   80.0040  223.0990 C   0  0  0  0  0  0  0  0  0  0  0  0
  140.8160   81.2720  223.3170 C   0  0  0  0  0  0  0  0  0  0  0  0
  142.1810   81.4480  223.3930 C   0  0  0  0  0  0  0  0  0  0  0  0
  143.0400   80.3530  223.2530 C   0  0  0  0  0  0  0  0  0  0  0  0
  142.4970   79.0890  223.0360 C   0  0  0  0  0  0  0  0  0  0  0  0
  141.1380   78.9200  222.9600 C   0  0  0  0  0  0  0  0  0  0  0  0
  140.6230   77.6860  222.7480 N   0  0  0  0  0  0  0  0  0  0  0  0
  140.6370   75.1760  222.1360 H   0  0  0  0  0  0  0  0  0  0  0  0
  138.0171   73.7391  222.5043 H   0  0  0  0  0  0  0  0  0  0  0  0
  138.8325   73.6502  220.8743 H   0  0  0  0  0  0  0  0  0  0  0  0
  137.4805   71.2850  224.0605 H   0  0  0  0  0  0  0  0  0  0  0  0
  137.1429   71.8509  222.4161 H   0  0  0  0  0  0  0  0  0  0  0  0
  137.0205   69.1522  223.3440 H   0  0  0  0  0  0  0  0  0  0  0  0
  136.9527   69.6363  221.6564 H   0  0  0  0  0  0  0  0  0  0  0  0
  139.0681   68.1695  222.8028 H   0  0  0  0  0  0  0  0  0  0  0  0
  139.2715   69.1083  221.3329 H   0  0  0  0  0  0  0  0  0  0  0  0
  140.9053   70.1162  222.9227 H   0  0  0  0  0  0  0  0  0  0  0  0
  138.8625   67.9910  224.5999 H   0  0  0  0  0  0  0  0  0  0  0  0
  138.8652   67.7239  227.0592 H   0  0  0  0  0  0  0  0  0  0  0  0
  139.8128   69.5101  228.5185 H   0  0  0  0  0  0  0  0  0  0  0  0
  140.7368   71.8029  225.0024 H   0  0  0  0  0  0  0  0  0  0  0  0
  137.3042   78.3964  222.7406 H   0  0  0  0  0  0  0  0  0  0  0  0
  138.2357   80.6680  223.1285 H   0  0  0  0  0  0  0  0  0  0  0  0
  140.1468   82.1378  223.4291 H   0  0  0  0  0  0  0  0  0  0  0  0
  142.5959   82.4523  223.5642 H   0  0  0  0  0  0  0  0  0  0  0  0
  144.1299   80.4884  223.3135 H   0  0  0  0  0  0  0  0  0  0  0  0
  143.1626   78.2203  222.9248 H   0  0  0  0  0  0  0  0  0  0  0  0
  1  2  2  0
  2  3  1  0
  3  4  1  0
  4  5  1  0
  5  6  2  0
  5  7  1  0
  7  8  1  0
  8  9  1  0
  9 10  1  0
 10 11  1  0
 11 12  1  0
 12 13  2  0
 13 14  1  0
 14 15  2  0
 15 16  1  0
 16 17  1  0
 17 18  1  0
 17 19  1  0
 17 20  1  0
 16 21  2  0
  2 22  1  0
 22 23  2  0
 23 24  1  0
 24 25  2  0
 25 26  1  0
 26 27  2  0
 27 28  1  0
 28 29  2  0
 29 30  1  0
 30 31  2  0
 11  7  1  0
 21 12  1  0
 31 22  1  0
 30 25  1  0
  3 32  1  0
  4 33  1  0
  4 34  1  0
  8 35  1  0
  8 36  1  0
  9 37  1  0
  9 38  1  0
 10 39  1  0
 10 40  1  0
 11 41  1  6
 13 42  1  0
 14 43  1  0
 15 44  1  0
 21 45  1  0
 23 46  1  0
 24 47  1  0
 26 48  1  0
 27 49  1  0
 28 50  1  0
 29 51  1  0
M  END
>  <smiles>  (21) 
O=C(NCC(=O)N1CCCC1c1cccc(C(F)(F)F)c1)c1ccc2ccccc2n1

>  <score_type>  (21) 
oracle

>  <origin>  (21) 
autodockgpu

>  <m_score__min__energy>  (21) 
-9.5800000000000001

>  <m_primary>  (21) 
energy

>  <rmsd>  (21) 
8.465755427322778

>  <m_score__min__rmsd>  (21) 
8.465755427322778

>  <meeko>  (21) 
{"free_energy": -8.39, "intermolecular_energy": -10.18, "internal_energy": -1.76, "cluster_size": 26, "cluster_id": 1, "rank_in_cluster": 25}

>  <energy>  (21) 
-8.52

>  <cluster_rmsd>  (21) 
1.26

>  <cluster>  (21) 
1

$$$$

     RDKit          3D

 51 54  0  0  0  0  0  0  0  0999 V2000
  140.8370   71.7950  221.2440 O   0  0  0  0  0  0  0  0  0  0  0  0
  140.3360   72.3100  222.2990 C   0  0  0  0  0  0  0  0  0  0  0  0
  139.9820   73.6810  222.2790 N   0  0  0  0  0  0  0  0  0  0  0  0
  140.2120   74.4130  221.0540 C   0  0  0  0  0  0  0  0  0  0  0  0
  141.6320   74.5870  220.7450 C   0  0  0  0  0  0  0  0  0  0  0  0
  142.5210   73.8070  221.1620 O   0  0  0  0  0  0  0  0  0  0  0  0
  142.0550   75.6760  219.9390 N   0  0  0  0  0  0  0  0  0  0  0  0
  143.4210   76.0040  219.5130 C   0  0  0  0  0  0  0  0  0  0  0  0
  143.2970   76.5720  218.1120 C   0  0  0  0  0  0  0  0  0  0  0  0
  141.7920   76.7530  217.9190 C   0  0  0  0  0  0  0  0  0  0  0  0
  141.2440   76.7360  219.3320 C   0  0  2  0  0  0  0  0  0  0  0  0
  141.4330   78.0160  220.0050 C   0  0  0  0  0  0  0  0  0  0  0  0
  141.5930   79.2390  219.4140 C   0  0  0  0  0  0  0  0  0  0  0  0
  141.7750   80.4170  220.1480 C   0  0  0  0  0  0  0  0  0  0  0  0
  141.7980   80.3820  221.5260 C   0  0  0  0  0  0  0  0  0  0  0  0
  141.6380   79.1620  222.1380 C   0  0  0  0  0  0  0  0  0  0  0  0
  141.6640   79.1330  223.6200 C   0  0  0  0  0  0  0  0  0  0  0  0
  142.7050   79.9920  223.9960 F   0  0  0  0  0  0  0  0  0  0  0  0
  140.5100   79.7360  224.0690 F   0  0  0  0  0  0  0  0  0  0  0  0
  141.9060   77.9010  224.1520 F   0  0  0  0  0  0  0  0  0  0  0  0
  141.4600   78.0040  221.4030 C   0  0  0  0  0  0  0  0  0  0  0  0
  140.1350   71.4990  223.5030 C   0  0  0  0  0  0  0  0  0  0  0  0
  139.3960   70.3330  223.3990 C   0  0  0  0  0  0  0  0  0  0  0  0
  139.2130   69.5800  224.5360 C   0  0  0  0  0  0  0  0  0  0  0  0
  139.7510   69.9770  225.7430 C   0  0  0  0  0  0  0  0  0  0  0  0
  139.5710   69.2190  226.9000 C   0  0  0  0  0  0  0  0  0  0  0  0
  140.1160   69.6320  228.0980 C   0  0  0  0  0  0  0  0  0  0  0  0
  140.8570   70.8170  228.1610 C   0  0  0  0  0  0  0  0  0  0  0  0
  141.0340   71.5690  227.0020 C   0  0  0  0  0  0  0  0  0  0  0  0
  140.4890   71.1540  225.8140 C   0  0  0  0  0  0  0  0  0  0  0  0
  140.6690   71.8940  224.6960 N   0  0  0  0  0  0  0  0  0  0  0  0
  139.5640   74.1560  223.1280 H   0  0  0  0  0  0  0  0  0  0  0  0
  139.7383   73.8660  220.2255 H   0  0  0  0  0  0  0  0  0  0  0  0
  139.7807   75.4162  221.1864 H   0  0  0  0  0  0  0  0  0  0  0  0
  143.8638   76.7495  220.1899 H   0  0  0  0  0  0  0  0  0  0  0  0
  144.0728   75.1181  219.5324 H   0  0  0  0  0  0  0  0  0  0  0  0
  143.8202   77.5364  218.0332 H   0  0  0  0  0  0  0  0  0  0  0  0
  143.7465   75.9194  217.3490 H   0  0  0  0  0  0  0  0  0  0  0  0
  141.5723   77.7107  217.4246 H   0  0  0  0  0  0  0  0  0  0  0  0
  141.3476   75.9757  217.2801 H   0  0  0  0  0  0  0  0  0  0  0  0
  140.1592   76.5637  219.3910 H   0  0  0  0  0  0  0  0  0  0  0  0
  141.5781   79.2995  218.3158 H   0  0  0  0  0  0  0  0  0  0  0  0
  141.9003   81.3753  219.6227 H   0  0  0  0  0  0  0  0  0  0  0  0
  141.9397   81.2997  222.1157 H   0  0  0  0  0  0  0  0  0  0  0  0
  141.3364   77.0478  221.9325 H   0  0  0  0  0  0  0  0  0  0  0  0
  138.9678   70.0179  222.4360 H   0  0  0  0  0  0  0  0  0  0  0  0
  138.6299   68.6489  224.4820 H   0  0  0  0  0  0  0  0  0  0  0  0
  138.9905   68.2856  226.8568 H   0  0  0  0  0  0  0  0  0  0  0  0
  139.9677   69.0284  229.0056 H   0  0  0  0  0  0  0  0  0  0  0  0
  141.2942   71.1506  229.1136 H   0  0  0  0  0  0  0  0  0  0  0  0
  141.6150   72.5023  227.0399 H   0  0  0  0  0  0  0  0  0  0  0  0
  1  2  2  0
  2  3  1  0
  3  4  1  0
  4  5  1  0
  5  6  2  0
  5  7  1  0
  7  8  1  0
  8  9  1  0
  9 10  1  0
 10 11  1  0
 11 12  1  0
 12 13  2  0
 13 14  1  0
 14 15  2  0
 15 16  1  0
 16 17  1  0
 17 18  1  0
 17 19  1  0
 17 20  1  0
 16 21  2  0
  2 22  1  0
 22 23  2  0
 23 24  1  0
 24 25  2  0
 25 26  1  0
 26 27  2  0
 27 28  1  0
 28 29  2  0
 29 30  1  0
 30 31  2  0
 11  7  1  0
 21 12  1  0
 31 22  1  0
 30 25  1  0
  3 32  1  0
  4 33  1  0
  4 34  1  0
  8 35  1  0
  8 36  1  0
  9 37  1  0
  9 38  1  0
 10 39  1  0
 10 40  1  0
 11 41  1  6
 13 42  1  0
 14 43  1  0
 15 44  1  0
 21 45  1  0
 23 46  1  0
 24 47  1  0
 26 48  1  0
 27 49  1  0
 28 50  1  0
 29 51  1  0
M  END
>  <smiles>  (22) 
O=C(NCC(=O)N1CCCC1c1cccc(C(F)(F)F)c1)c1ccc2ccccc2n1

>  <score_type>  (22) 
oracle

>  <origin>  (22) 
autodockgpu

>  <m_score__min__energy>  (22) 
-9.5800000000000001

>  <m_primary>  (22) 
energy

>  <rmsd>  (22) 
2.2398810667740734

>  <m_score__min__rmsd>  (22) 
2.2398810667740734

>  <meeko>  (22) 
{"free_energy": -8.47, "intermolecular_energy": -10.26, "internal_energy": -1.31, "cluster_size": 18, "cluster_id": 2, "rank_in_cluster": 7}

>  <energy>  (22) 
-8.49

>  <cluster_rmsd>  (22) 
1.31

>  <cluster>  (22) 
1

$$$$

     RDKit          3D

 51 54  0  0  0  0  0  0  0  0999 V2000
  140.9320   71.6770  221.4090 O   0  0  0  0  0  0  0  0  0  0  0  0
  140.3380   72.1760  222.4220 C   0  0  0  0  0  0  0  0  0  0  0  0
  139.8150   73.4890  222.3200 N   0  0  0  0  0  0  0  0  0  0  0  0
  139.9910   74.1820  221.0640 C   0  0  0  0  0  0  0  0  0  0  0  0
  141.3470   74.6990  220.8770 C   0  0  0  0  0  0  0  0  0  0  0  0
  142.3740   74.0070  221.0730 O   0  0  0  0  0  0  0  0  0  0  0  0
  141.5430   76.0400  220.4540 N   0  0  0  0  0  0  0  0  0  0  0  0
  142.7550   76.6340  219.8760 C   0  0  0  0  0  0  0  0  0  0  0  0
  142.2780   77.6460  218.8520 C   0  0  0  0  0  0  0  0  0  0  0  0
  140.7710   77.7300  219.0920 C   0  0  0  0  0  0  0  0  0  0  0  0
  140.5960   77.1580  220.4840 C   0  0  2  0  0  0  0  0  0  0  0  0
  140.9360   78.1290  221.5180 C   0  0  0  0  0  0  0  0  0  0  0  0
  141.3780   77.8600  222.7840 C   0  0  0  0  0  0  0  0  0  0  0  0
  141.6760   78.8650  223.7120 C   0  0  0  0  0  0  0  0  0  0  0  0
  141.5280   80.1920  223.3720 C   0  0  0  0  0  0  0  0  0  0  0  0
  141.0850   80.4820  222.1040 C   0  0  0  0  0  0  0  0  0  0  0  0
  140.9290   81.9130  221.7460 C   0  0  0  0  0  0  0  0  0  0  0  0
  141.1270   81.9780  220.3600 F   0  0  0  0  0  0  0  0  0  0  0  0
  139.6090   82.2500  221.9450 F   0  0  0  0  0  0  0  0  0  0  0  0
  141.8250   82.7430  222.3500 F   0  0  0  0  0  0  0  0  0  0  0  0
  140.7940   79.4810  221.1950 C   0  0  0  0  0  0  0  0  0  0  0  0
  140.2010   71.4060  223.6620 C   0  0  0  0  0  0  0  0  0  0  0  0
  139.5670   70.1770  223.6110 C   0  0  0  0  0  0  0  0  0  0  0  0
  139.4430   69.4640  224.7820 C   0  0  0  0  0  0  0  0  0  0  0  0
  139.9390   69.9620  225.9690 C   0  0  0  0  0  0  0  0  0  0  0  0
  139.8190   69.2450  227.1600 C   0  0  0  0  0  0  0  0  0  0  0  0
  140.3190   69.7590  228.3380 C   0  0  0  0  0  0  0  0  0  0  0  0
  140.9550   71.0050  228.3480 C   0  0  0  0  0  0  0  0  0  0  0  0
  141.0720   71.7150  227.1560 C   0  0  0  0  0  0  0  0  0  0  0  0
  140.5710   71.2000  225.9870 C   0  0  0  0  0  0  0  0  0  0  0  0
  140.6920   71.9010  224.8360 N   0  0  0  0  0  0  0  0  0  0  0  0
  139.3150   73.9480  223.1320 H   0  0  0  0  0  0  0  0  0  0  0  0
  139.7670   73.4832  220.2446 H   0  0  0  0  0  0  0  0  0  0  0  0
  139.3093   75.0453  221.0682 H   0  0  0  0  0  0  0  0  0  0  0  0
  143.3469   77.1318  220.6582 H   0  0  0  0  0  0  0  0  0  0  0  0
  143.3985   75.8692  219.4167 H   0  0  0  0  0  0  0  0  0  0  0  0
  142.7554   78.6233  219.0160 H   0  0  0  0  0  0  0  0  0  0  0  0
  142.5276   77.3557  217.8208 H   0  0  0  0  0  0  0  0  0  0  0  0
  140.4248   78.7733  219.0503 H   0  0  0  0  0  0  0  0  0  0  0  0
  140.1878   77.1887  218.3325 H   0  0  0  0  0  0  0  0  0  0  0  0
  139.5626   76.8668  220.7233 H   0  0  0  0  0  0  0  0  0  0  0  0
  141.5047   76.8098  223.0858 H   0  0  0  0  0  0  0  0  0  0  0  0
  142.0300   78.5939  224.7176 H   0  0  0  0  0  0  0  0  0  0  0  0
  141.7567   80.9922  224.0913 H   0  0  0  0  0  0  0  0  0  0  0  0
  140.4411   79.7568  220.1903 H   0  0  0  0  0  0  0  0  0  0  0  0
  139.1738   69.7815  222.6628 H   0  0  0  0  0  0  0  0  0  0  0  0
  138.9420   68.4847  224.7711 H   0  0  0  0  0  0  0  0  0  0  0  0
  139.3224   68.2635  227.1593 H   0  0  0  0  0  0  0  0  0  0  0  0
  140.2174   69.1876  229.2724 H   0  0  0  0  0  0  0  0  0  0  0  0
  141.3572   71.4182  229.2848 H   0  0  0  0  0  0  0  0  0  0  0  0
  141.5697   72.6959  227.1514 H   0  0  0  0  0  0  0  0  0  0  0  0
  1  2  2  0
  2  3  1  0
  3  4  1  0
  4  5  1  0
  5  6  2  0
  5  7  1  0
  7  8  1  0
  8  9  1  0
  9 10  1  0
 10 11  1  0
 11 12  1  0
 12 13  2  0
 13 14  1  0
 14 15  2  0
 15 16  1  0
 16 17  1  0
 17 18  1  0
 17 19  1  0
 17 20  1  0
 16 21  2  0
  2 22  1  0
 22 23  2  0
 23 24  1  0
 24 25  2  0
 25 26  1  0
 26 27  2  0
 27 28  1  0
 28 29  2  0
 29 30  1  0
 30 31  2  0
 11  7  1  0
 21 12  1  0
 31 22  1  0
 30 25  1  0
  3 32  1  0
  4 33  1  0
  4 34  1  0
  8 35  1  0
  8 36  1  0
  9 37  1  0
  9 38  1  0
 10 39  1  0
 10 40  1  0
 11 41  1  1
 13 42  1  0
 14 43  1  0
 15 44  1  0
 21 45  1  0
 23 46  1  0
 24 47  1  0
 26 48  1  0
 27 49  1  0
 28 50  1  0
 29 51  1  0
M  END
>  <smiles>  (23) 
O=C(NCC(=O)N1CCCC1c1cccc(C(F)(F)F)c1)c1ccc2ccccc2n1

>  <score_type>  (23) 
oracle

>  <origin>  (23) 
autodockgpu

>  <m_score__min__energy>  (23) 
-9.5800000000000001

>  <m_primary>  (23) 
energy

>  <rmsd>  (23) 
2.1263875093033584

>  <m_score__min__rmsd>  (23) 
2.1263875093033584

>  <meeko>  (23) 
{"free_energy": -8.67, "intermolecular_energy": -10.46, "internal_energy": -1.37, "cluster_size": 18, "cluster_id": 2, "rank_in_cluster": 2}

>  <energy>  (23) 
-8.46

>  <cluster_rmsd>  (23) 
1.34

>  <cluster>  (23) 
1

$$$$

     RDKit          3D

 51 54  0  0  0  0  0  0  0  0999 V2000
  139.9500   73.6470  222.6750 O   0  0  0  0  0  0  0  0  0  0  0  0
  140.3000   72.4240  222.5770 C   0  0  0  0  0  0  0  0  0  0  0  0
  140.8120   71.9650  221.3380 N   0  0  0  0  0  0  0  0  0  0  0  0
  140.9040   72.9210  220.2580 C   0  0  0  0  0  0  0  0  0  0  0  0
  142.2440   73.4880  220.1040 C   0  0  0  0  0  0  0  0  0  0  0  0
  143.2900   72.8050  220.2140 O   0  0  0  0  0  0  0  0  0  0  0  0
  142.4020   74.8690  219.8160 N   0  0  0  0  0  0  0  0  0  0  0  0
  143.6540   75.6140  219.6370 C   0  0  0  0  0  0  0  0  0  0  0  0
  143.3750   76.6510  218.5650 C   0  0  0  0  0  0  0  0  0  0  0  0
  141.8620   76.5770  218.3670 C   0  0  0  0  0  0  0  0  0  0  0  0
  141.3670   75.8890  219.6240 C   0  0  2  0  0  0  0  0  0  0  0  0
  141.2950   76.8070  220.7550 C   0  0  0  0  0  0  0  0  0  0  0  0
  141.0800   76.4810  222.0650 C   0  0  0  0  0  0  0  0  0  0  0  0
  141.0220   77.4390  223.0840 C   0  0  0  0  0  0  0  0  0  0  0  0
  141.1830   78.7760  222.7930 C   0  0  0  0  0  0  0  0  0  0  0  0
  141.4000   79.1230  221.4810 C   0  0  0  0  0  0  0  0  0  0  0  0
  141.5720   80.5650  221.1750 C   0  0  0  0  0  0  0  0  0  0  0  0
  142.2420   80.6120  219.9460 F   0  0  0  0  0  0  0  0  0  0  0  0
  140.3230   81.0910  220.9340 F   0  0  0  0  0  0  0  0  0  0  0  0
  142.3090   81.2480  222.0960 F   0  0  0  0  0  0  0  0  0  0  0  0
  141.4560   78.1690  220.4820 C   0  0  0  0  0  0  0  0  0  0  0  0
  140.1740   71.5160  223.7210 C   0  0  0  0  0  0  0  0  0  0  0  0
  139.5360   70.3020  223.5330 C   0  0  0  0  0  0  0  0  0  0  0  0
  139.4220   69.4580  224.6140 C   0  0  0  0  0  0  0  0  0  0  0  0
  139.9290   69.8130  225.8470 C   0  0  0  0  0  0  0  0  0  0  0  0
  139.8190   68.9630  226.9470 C   0  0  0  0  0  0  0  0  0  0  0  0
  140.3320   69.3350  228.1720 C   0  0  0  0  0  0  0  0  0  0  0  0
  140.9700   70.5710  228.3210 C   0  0  0  0  0  0  0  0  0  0  0  0
  141.0780   71.4150  227.2180 C   0  0  0  0  0  0  0  0  0  0  0  0
  140.5650   71.0400  226.0030 C   0  0  0  0  0  0  0  0  0  0  0  0
  140.6770   71.8700  224.9400 N   0  0  0  0  0  0  0  0  0  0  0  0
  141.1160   70.9600  221.2050 H   0  0  0  0  0  0  0  0  0  0  0  0
  140.6276   72.4169  219.3202 H   0  0  0  0  0  0  0  0  0  0  0  0
  140.2228   73.7511  220.4967 H   0  0  0  0  0  0  0  0  0  0  0  0
  143.9441   76.1052  220.5775 H   0  0  0  0  0  0  0  0  0  0  0  0
  144.4807   74.9484  219.3478 H   0  0  0  0  0  0  0  0  0  0  0  0
  143.6770   77.6535  218.9023 H   0  0  0  0  0  0  0  0  0  0  0  0
  143.9340   76.4624  217.6366 H   0  0  0  0  0  0  0  0  0  0  0  0
  141.4290   77.5840  218.2748 H   0  0  0  0  0  0  0  0  0  0  0  0
  141.5784   76.0417  217.4488 H   0  0  0  0  0  0  0  0  0  0  0  0
  140.3463   75.4869  219.5437 H   0  0  0  0  0  0  0  0  0  0  0  0
  140.9470   75.4216  222.3295 H   0  0  0  0  0  0  0  0  0  0  0  0
  140.8469   77.1226  224.1229 H   0  0  0  0  0  0  0  0  0  0  0  0
  141.1394   79.5395  223.5836 H   0  0  0  0  0  0  0  0  0  0  0  0
  141.6319   78.4899  219.4446 H   0  0  0  0  0  0  0  0  0  0  0  0
  139.1323   70.0204  222.5493 H   0  0  0  0  0  0  0  0  0  0  0  0
  138.9197   68.4869  224.4933 H   0  0  0  0  0  0  0  0  0  0  0  0
  139.3196   67.9891  226.8369 H   0  0  0  0  0  0  0  0  0  0  0  0
  140.2392   68.6581  229.0341 H   0  0  0  0  0  0  0  0  0  0  0  0
  141.3808   70.8724  229.2959 H   0  0  0  0  0  0  0  0  0  0  0  0
  141.5783   72.3891  227.3225 H   0  0  0  0  0  0  0  0  0  0  0  0
  1  2  2  0
  2  3  1  0
  3  4  1  0
  4  5  1  0
  5  6  2  0
  5  7  1  0
  7  8  1  0
  8  9  1  0
  9 10  1  0
 10 11  1  0
 11 12  1  0
 12 13  2  0
 13 14  1  0
 14 15  2  0
 15 16  1  0
 16 17  1  0
 17 18  1  0
 17 19  1  0
 17 20  1  0
 16 21  2  0
  2 22  1  0
 22 23  2  0
 23 24  1  0
 24 25  2  0
 25 26  1  0
 26 27  2  0
 27 28  1  0
 28 29  2  0
 29 30  1  0
 30 31  2  0
 11  7  1  0
 21 12  1  0
 31 22  1  0
 30 25  1  0
  3 32  1  0
  4 33  1  0
  4 34  1  0
  8 35  1  0
  8 36  1  0
  9 37  1  0
  9 38  1  0
 10 39  1  0
 10 40  1  0
 11 41  1  6
 13 42  1  0
 14 43  1  0
 15 44  1  0
 21 45  1  0
 23 46  1  0
 24 47  1  0
 26 48  1  0
 27 49  1  0
 28 50  1  0
 29 51  1  0
M  END
>  <smiles>  (24) 
O=C(NCC(=O)N1CCCC1c1cccc(C(F)(F)F)c1)c1ccc2ccccc2n1

>  <score_type>  (24) 
oracle

>  <origin>  (24) 
autodockgpu

>  <m_score__min__energy>  (24) 
-9.5800000000000001

>  <m_primary>  (24) 
energy

>  <rmsd>  (24) 
2.5559997688940435

>  <m_score__min__rmsd>  (24) 
2.5559997688940435

>  <meeko>  (24) 
{"free_energy": -8.12, "intermolecular_energy": -9.91, "internal_energy": -1.55, "cluster_size": 18, "cluster_id": 2, "rank_in_cluster": 15}

>  <energy>  (24) 
-8.44

>  <cluster_rmsd>  (24) 
1.58

>  <cluster>  (24) 
1

$$$$

     RDKit          3D

 51 54  0  0  0  0  0  0  0  0999 V2000
  141.8530   73.4650  221.0540 O   0  0  0  0  0  0  0  0  0  0  0  0
  141.0440   74.2840  221.6040 C   0  0  0  0  0  0  0  0  0  0  0  0
  139.9440   73.7640  222.3290 N   0  0  0  0  0  0  0  0  0  0  0  0
  139.8110   72.3260  222.4000 C   0  0  0  0  0  0  0  0  0  0  0  0
  138.4840   71.8920  222.8370 C   0  0  0  0  0  0  0  0  0  0  0  0
  137.4650   72.6170  222.7460 O   0  0  0  0  0  0  0  0  0  0  0  0
  138.3080   70.5980  223.3940 N   0  0  0  0  0  0  0  0  0  0  0  0
  137.0760   70.0080  223.9310 C   0  0  0  0  0  0  0  0  0  0  0  0
  137.1240   68.5360  223.5700 C   0  0  0  0  0  0  0  0  0  0  0  0
  138.5420   68.3340  223.0370 C   0  0  0  0  0  0  0  0  0  0  0  0
  139.3000   69.5330  223.5680 C   0  0  2  0  0  0  0  0  0  0  0  0
  139.6740   69.3640  224.9680 C   0  0  0  0  0  0  0  0  0  0  0  0
  139.5980   68.2160  225.7060 C   0  0  0  0  0  0  0  0  0  0  0  0
  139.9770   68.1530  227.0510 C   0  0  0  0  0  0  0  0  0  0  0  0
  140.4540   69.2750  227.6930 C   0  0  0  0  0  0  0  0  0  0  0  0
  140.5390   70.4390  226.9680 C   0  0  0  0  0  0  0  0  0  0  0  0
  141.0520   71.6430  227.6660 C   0  0  0  0  0  0  0  0  0  0  0  0
  139.9290   72.2590  228.2320 F   0  0  0  0  0  0  0  0  0  0  0  0
  141.8120   71.2140  228.7310 F   0  0  0  0  0  0  0  0  0  0  0  0
  141.6730   72.5410  226.8500 F   0  0  0  0  0  0  0  0  0  0  0  0
  140.1610   70.4910  225.6390 C   0  0  0  0  0  0  0  0  0  0  0  0
  141.2480   75.7310  221.4840 C   0  0  0  0  0  0  0  0  0  0  0  0
  141.7330   76.2330  220.2890 C   0  0  0  0  0  0  0  0  0  0  0  0
  141.9220   77.5930  220.1880 C   0  0  0  0  0  0  0  0  0  0  0  0
  141.6370   78.4280  221.2490 C   0  0  0  0  0  0  0  0  0  0  0  0
  141.8250   79.8070  221.1550 C   0  0  0  0  0  0  0  0  0  0  0  0
  141.5350   80.6260  222.2260 C   0  0  0  0  0  0  0  0  0  0  0  0
  141.0470   80.0790  223.4170 C   0  0  0  0  0  0  0  0  0  0  0  0
  140.8600   78.7020  223.5050 C   0  0  0  0  0  0  0  0  0  0  0  0
  141.1520   77.8920  222.4370 C   0  0  0  0  0  0  0  0  0  0  0  0
  140.9660   76.5550  222.5350 N   0  0  0  0  0  0  0  0  0  0  0  0
  139.2440   74.4010  222.8030 H   0  0  0  0  0  0  0  0  0  0  0  0
  140.0049   71.9070  221.4016 H   0  0  0  0  0  0  0  0  0  0  0  0
  140.5352   71.9666  223.1460 H   0  0  0  0  0  0  0  0  0  0  0  0
  137.0375   70.1324  225.0233 H   0  0  0  0  0  0  0  0  0  0  0  0
  136.1819   70.4954  223.5149 H   0  0  0  0  0  0  0  0  0  0  0  0
  136.9463   67.9097  224.4566 H   0  0  0  0  0  0  0  0  0  0  0  0
  136.3520   68.2531  222.8393 H   0  0  0  0  0  0  0  0  0  0  0  0
  138.9742   67.3968  223.4176 H   0  0  0  0  0  0  0  0  0  0  0  0
  138.5782   68.2587  221.9402 H   0  0  0  0  0  0  0  0  0  0  0  0
  140.2567   69.7209  223.0586 H   0  0  0  0  0  0  0  0  0  0  0  0
  139.2227   67.3026  225.2215 H   0  0  0  0  0  0  0  0  0  0  0  0
  139.8938   67.2028  227.5990 H   0  0  0  0  0  0  0  0  0  0  0  0
  140.7564   69.2400  228.7500 H   0  0  0  0  0  0  0  0  0  0  0  0
  140.2454   71.4433  225.0950 H   0  0  0  0  0  0  0  0  0  0  0  0
  141.9607   75.5653  219.4450 H   0  0  0  0  0  0  0  0  0  0  0  0
  142.3052   78.0195  219.2493 H   0  0  0  0  0  0  0  0  0  0  0  0
  142.2070   80.2440  220.2206 H   0  0  0  0  0  0  0  0  0  0  0  0
  141.6879   81.7122  222.1433 H   0  0  0  0  0  0  0  0  0  0  0  0
  140.8138   80.7285  224.2736 H   0  0  0  0  0  0  0  0  0  0  0  0
  140.4758   78.2610  224.4366 H   0  0  0  0  0  0  0  0  0  0  0  0
  1  2  2  0
  2  3  1  0
  3  4  1  0
  4  5  1  0
  5  6  2  0
  5  7  1  0
  7  8  1  0
  8  9  1  0
  9 10  1  0
 10 11  1  0
 11 12  1  0
 12 13  2  0
 13 14  1  0
 14 15  2  0
 15 16  1  0
 16 17  1  0
 17 18  1  0
 17 19  1  0
 17 20  1  0
 16 21  2  0
  2 22  1  0
 22 23  2  0
 23 24  1  0
 24 25  2  0
 25 26  1  0
 26 27  2  0
 27 28  1  0
 28 29  2  0
 29 30  1  0
 30 31  2  0
 11  7  1  0
 21 12  1  0
 31 22  1  0
 30 25  1  0
  3 32  1  0
  4 33  1  0
  4 34  1  0
  8 35  1  0
  8 36  1  0
  9 37  1  0
  9 38  1  0
 10 39  1  0
 10 40  1  0
 11 41  1  6
 13 42  1  0
 14 43  1  0
 15 44  1  0
 21 45  1  0
 23 46  1  0
 24 47  1  0
 26 48  1  0
 27 49  1  0
 28 50  1  0
 29 51  1  0
M  END
>  <smiles>  (25) 
O=C(NCC(=O)N1CCCC1c1cccc(C(F)(F)F)c1)c1ccc2ccccc2n1

>  <score_type>  (25) 
oracle

>  <origin>  (25) 
autodockgpu

>  <m_score__min__energy>  (25) 
-9.5800000000000001

>  <m_primary>  (25) 
energy

>  <rmsd>  (25) 
8.464419619393237

>  <m_score__min__rmsd>  (25) 
8.464419619393237

>  <meeko>  (25) 
{"free_energy": -8.46, "intermolecular_energy": -10.25, "internal_energy": -1.64, "cluster_size": 26, "cluster_id": 1, "rank_in_cluster": 23}

>  <energy>  (25) 
-8.39

>  <cluster_rmsd>  (25) 
1.1

>  <cluster>  (25) 
1

$$$$

     RDKit          3D

 51 54  0  0  0  0  0  0  0  0999 V2000
  138.0780   75.3890  222.3050 O   0  0  0  0  0  0  0  0  0  0  0  0
  139.3320   75.3700  222.0690 C   0  0  0  0  0  0  0  0  0  0  0  0
  139.9810   74.1140  221.9730 N   0  0  0  0  0  0  0  0  0  0  0  0
  139.1730   72.9290  222.1500 C   0  0  0  0  0  0  0  0  0  0  0  0
  139.8870   71.8400  222.8170 C   0  0  0  0  0  0  0  0  0  0  0  0
  141.1360   71.7300  222.7970 O   0  0  0  0  0  0  0  0  0  0  0  0
  139.1630   70.8470  223.5280 N   0  0  0  0  0  0  0  0  0  0  0  0
  137.8100   70.9480  224.0900 C   0  0  0  0  0  0  0  0  0  0  0  0
  137.1840   69.5770  223.9230 C   0  0  0  0  0  0  0  0  0  0  0  0
  138.3470   68.6930  223.4740 C   0  0  0  0  0  0  0  0  0  0  0  0
  139.5760   69.4840  223.8750 C   0  0  2  0  0  0  0  0  0  0  0  0
  139.8680   69.3520  225.2970 C   0  0  0  0  0  0  0  0  0  0  0  0
  139.7620   68.2180  226.0550 C   0  0  0  0  0  0  0  0  0  0  0  0
  140.0620   68.1900  227.4220 C   0  0  0  0  0  0  0  0  0  0  0  0
  140.4860   69.3330  228.0650 C   0  0  0  0  0  0  0  0  0  0  0  0
  140.5990   70.4820  227.3200 C   0  0  0  0  0  0  0  0  0  0  0  0
  141.0550   71.7080  228.0190 C   0  0  0  0  0  0  0  0  0  0  0  0
  141.5980   72.5300  227.0230 F   0  0  0  0  0  0  0  0  0  0  0  0
  139.9350   72.3700  228.4710 F   0  0  0  0  0  0  0  0  0  0  0  0
  142.0090   71.4890  228.9680 F   0  0  0  0  0  0  0  0  0  0  0  0
  140.3000   70.4990  225.9700 C   0  0  0  0  0  0  0  0  0  0  0  0
  140.0810   76.6180  221.9040 C   0  0  0  0  0  0  0  0  0  0  0  0
  140.2500   77.1230  220.6260 C   0  0  0  0  0  0  0  0  0  0  0  0
  140.9570   78.2960  220.4830 C   0  0  0  0  0  0  0  0  0  0  0  0
  141.4780   78.9470  221.5810 C   0  0  0  0  0  0  0  0  0  0  0  0
  142.1950   80.1360  221.4450 C   0  0  0  0  0  0  0  0  0  0  0  0
  142.7100   80.7730  222.5550 C   0  0  0  0  0  0  0  0  0  0  0  0
  142.5160   80.2300  223.8290 C   0  0  0  0  0  0  0  0  0  0  0  0
  141.8000   79.0430  223.9590 C   0  0  0  0  0  0  0  0  0  0  0  0
  141.2910   78.4140  222.8520 C   0  0  0  0  0  0  0  0  0  0  0  0
  140.5970   77.2610  222.9930 N   0  0  0  0  0  0  0  0  0  0  0  0
  141.0200   74.0440  221.7800 H   0  0  0  0  0  0  0  0  0  0  0  0
  138.2931   73.1928  222.7552 H   0  0  0  0  0  0  0  0  0  0  0  0
  138.8927   72.5714  221.1482 H   0  0  0  0  0  0  0  0  0  0  0  0
  137.8579   71.2190  225.1550 H   0  0  0  0  0  0  0  0  0  0  0  0
  137.2198   71.7248  223.5817 H   0  0  0  0  0  0  0  0  0  0  0  0
  136.7658   69.2193  224.8754 H   0  0  0  0  0  0  0  0  0  0  0  0
  136.3498   69.5765  223.2060 H   0  0  0  0  0  0  0  0  0  0  0  0
  138.3216   67.7207  223.9878 H   0  0  0  0  0  0  0  0  0  0  0  0
  138.3188   68.4659  222.3981 H   0  0  0  0  0  0  0  0  0  0  0  0
  140.5027   69.1544  223.3825 H   0  0  0  0  0  0  0  0  0  0  0  0
  139.4270   67.2893  225.5699 H   0  0  0  0  0  0  0  0  0  0  0  0
  139.9588   67.2511  227.9858 H   0  0  0  0  0  0  0  0  0  0  0  0
  140.7258   69.3256  229.1385 H   0  0  0  0  0  0  0  0  0  0  0  0
  140.4048   71.4402  225.4105 H   0  0  0  0  0  0  0  0  0  0  0  0
  139.8322   76.6030  219.7514 H   0  0  0  0  0  0  0  0  0  0  0  0
  141.1081   78.7194  219.4791 H   0  0  0  0  0  0  0  0  0  0  0  0
  142.3508   80.5686  220.4457 H   0  0  0  0  0  0  0  0  0  0  0  0
  143.2744   81.7099  222.4377 H   0  0  0  0  0  0  0  0  0  0  0  0
  142.9240   80.7344  224.7173 H   0  0  0  0  0  0  0  0  0  0  0  0
  141.6416   78.6069  224.9564 H   0  0  0  0  0  0  0  0  0  0  0  0
  1  2  2  0
  2  3  1  0
  3  4  1  0
  4  5  1  0
  5  6  2  0
  5  7  1  0
  7  8  1  0
  8  9  1  0
  9 10  1  0
 10 11  1  0
 11 12  1  0
 12 13  2  0
 13 14  1  0
 14 15  2  0
 15 16  1  0
 16 17  1  0
 17 18  1  0
 17 19  1  0
 17 20  1  0
 16 21  2  0
  2 22  1  0
 22 23  2  0
 23 24  1  0
 24 25  2  0
 25 26  1  0
 26 27  2  0
 27 28  1  0
 28 29  2  0
 29 30  1  0
 30 31  2  0
 11  7  1  0
 21 12  1  0
 31 22  1  0
 30 25  1  0
  3 32  1  0
  4 33  1  0
  4 34  1  0
  8 35  1  0
  8 36  1  0
  9 37  1  0
  9 38  1  0
 10 39  1  0
 10 40  1  0
 11 41  1  6
 13 42  1  0
 14 43  1  0
 15 44  1  0
 21 45  1  0
 23 46  1  0
 24 47  1  0
 26 48  1  0
 27 49  1  0
 28 50  1  0
 29 51  1  0
M  END
>  <smiles>  (26) 
O=C(NCC(=O)N1CCCC1c1cccc(C(F)(F)F)c1)c1ccc2ccccc2n1

>  <score_type>  (26) 
oracle

>  <origin>  (26) 
autodockgpu

>  <m_score__min__energy>  (26) 
-9.5800000000000001

>  <m_primary>  (26) 
energy

>  <rmsd>  (26) 
8.511647326774588

>  <m_score__min__rmsd>  (26) 
8.511647326774588

>  <meeko>  (26) 
{"free_energy": -8.67, "intermolecular_energy": -10.46, "internal_energy": -1.5, "cluster_size": 26, "cluster_id": 1, "rank_in_cluster": 19}

>  <energy>  (26) 
-8.27

>  <cluster_rmsd>  (26) 
1.1

>  <cluster>  (26) 
1

$$$$

     RDKit          3D

 51 54  0  0  0  0  0  0  0  0999 V2000
  140.2780   74.6890  220.1770 O   0  0  0  0  0  0  0  0  0  0  0  0
  140.0430   75.3910  221.2160 C   0  0  0  0  0  0  0  0  0  0  0  0
  139.1860   74.8590  222.2110 N   0  0  0  0  0  0  0  0  0  0  0  0
  138.6300   73.5450  221.9800 C   0  0  0  0  0  0  0  0  0  0  0  0
  139.5700   72.4630  222.2730 C   0  0  0  0  0  0  0  0  0  0  0  0
  140.6960   72.3710  221.7260 O   0  0  0  0  0  0  0  0  0  0  0  0
  139.2250   71.4560  223.2120 N   0  0  0  0  0  0  0  0  0  0  0  0
  137.9150   71.2090  223.8270 C   0  0  0  0  0  0  0  0  0  0  0  0
  137.8000   69.7040  223.9770 C   0  0  0  0  0  0  0  0  0  0  0  0
  139.2000   69.1930  223.6420 C   0  0  0  0  0  0  0  0  0  0  0  0
  140.0780   70.4180  223.7980 C   0  0  2  0  0  0  0  0  0  0  0  0
  140.3840   70.6930  225.1970 C   0  0  0  0  0  0  0  0  0  0  0  0
  140.8870   71.8550  225.7150 C   0  0  0  0  0  0  0  0  0  0  0  0
  141.1540   72.0230  227.0780 C   0  0  0  0  0  0  0  0  0  0  0  0
  140.9140   70.9980  227.9660 C   0  0  0  0  0  0  0  0  0  0  0  0
  140.4080   69.8230  227.4650 C   0  0  0  0  0  0  0  0  0  0  0  0
  140.1520   68.7230  228.4270 C   0  0  0  0  0  0  0  0  0  0  0  0
  139.2320   69.2370  229.3500 F   0  0  0  0  0  0  0  0  0  0  0  0
  139.4790   67.7290  227.7530 F   0  0  0  0  0  0  0  0  0  0  0  0
  141.2570   68.3030  229.1050 F   0  0  0  0  0  0  0  0  0  0  0  0
  140.1480   69.6660  226.1160 C   0  0  0  0  0  0  0  0  0  0  0  0
  140.6450   76.7180  221.3740 C   0  0  0  0  0  0  0  0  0  0  0  0
  140.9460   77.4470  220.2370 C   0  0  0  0  0  0  0  0  0  0  0  0
  141.5120   78.6910  220.3970 C   0  0  0  0  0  0  0  0  0  0  0  0
  141.7710   79.1940  221.6550 C   0  0  0  0  0  0  0  0  0  0  0  0
  142.3440   80.4540  221.8270 C   0  0  0  0  0  0  0  0  0  0  0  0
  142.5970   80.9410  223.0920 C   0  0  0  0  0  0  0  0  0  0  0  0
  142.2780   80.1730  224.2170 C   0  0  0  0  0  0  0  0  0  0  0  0
  141.7060   78.9160  224.0390 C   0  0  0  0  0  0  0  0  0  0  0  0
  141.4580   78.4370  222.7790 C   0  0  0  0  0  0  0  0  0  0  0  0
  140.9010   77.2130  222.6210 N   0  0  0  0  0  0  0  0  0  0  0  0
  138.9580   75.4010  223.0910 H   0  0  0  0  0  0  0  0  0  0  0  0
  137.7445   73.4222  222.6209 H   0  0  0  0  0  0  0  0  0  0  0  0
  138.3781   73.4794  220.9112 H   0  0  0  0  0  0  0  0  0  0  0  0
  137.8569   71.6967  224.8113 H   0  0  0  0  0  0  0  0  0  0  0  0
  137.0985   71.6160  223.2124 H   0  0  0  0  0  0  0  0  0  0  0  0
  137.5206   69.4335  225.0060 H   0  0  0  0  0  0  0  0  0  0  0  0
  137.0241   69.2712  223.3284 H   0  0  0  0  0  0  0  0  0  0  0  0
  139.5055   68.4002  224.3407 H   0  0  0  0  0  0  0  0  0  0  0  0
  139.2622   68.7498  222.6372 H   0  0  0  0  0  0  0  0  0  0  0  0
  141.0663   70.3263  223.3238 H   0  0  0  0  0  0  0  0  0  0  0  0
  141.0900   72.6923  225.0312 H   0  0  0  0  0  0  0  0  0  0  0  0
  141.5579   72.9791  227.4424 H   0  0  0  0  0  0  0  0  0  0  0  0
  141.1204   71.1161  229.0400 H   0  0  0  0  0  0  0  0  0  0  0  0
  139.7448   68.7078  225.7563 H   0  0  0  0  0  0  0  0  0  0  0  0
  140.7389   77.0439  219.2347 H   0  0  0  0  0  0  0  0  0  0  0  0
  141.7611   79.2922  219.5101 H   0  0  0  0  0  0  0  0  0  0  0  0
  142.5960   81.0638  220.9469 H   0  0  0  0  0  0  0  0  0  0  0  0
  143.0506   81.9353  223.2168 H   0  0  0  0  0  0  0  0  0  0  0  0
  142.4764   80.5570  225.2285 H   0  0  0  0  0  0  0  0  0  0  0  0
  141.4513   78.3029  224.9161 H   0  0  0  0  0  0  0  0  0  0  0  0
  1  2  2  0
  2  3  1  0
  3  4  1  0
  4  5  1  0
  5  6  2  0
  5  7  1  0
  7  8  1  0
  8  9  1  0
  9 10  1  0
 10 11  1  0
 11 12  1  0
 12 13  2  0
 13 14  1  0
 14 15  2  0
 15 16  1  0
 16 17  1  0
 17 18  1  0
 17 19  1  0
 17 20  1  0
 16 21  2  0
  2 22  1  0
 22 23  2  0
 23 24  1  0
 24 25  2  0
 25 26  1  0
 26 27  2  0
 27 28  1  0
 28 29  2  0
 29 30  1  0
 30 31  2  0
 11  7  1  0
 21 12  1  0
 31 22  1  0
 30 25  1  0
  3 32  1  0
  4 33  1  0
  4 34  1  0
  8 35  1  0
  8 36  1  0
  9 37  1  0
  9 38  1  0
 10 39  1  0
 10 40  1  0
 11 41  1  6
 13 42  1  0
 14 43  1  0
 15 44  1  0
 21 45  1  0
 23 46  1  0
 24 47  1  0
 26 48  1  0
 27 49  1  0
 28 50  1  0
 29 51  1  0
M  END
>  <smiles>  (27) 
O=C(NCC(=O)N1CCCC1c1cccc(C(F)(F)F)c1)c1ccc2ccccc2n1

>  <score_type>  (27) 
oracle

>  <origin>  (27) 
autodockgpu

>  <m_score__min__energy>  (27) 
-9.5800000000000001

>  <m_primary>  (27) 
energy

>  <rmsd>  (27) 
8.378514223914552

>  <m_score__min__rmsd>  (27) 
8.378514223914552

>  <meeko>  (27) 
{"free_energy": -8.89, "intermolecular_energy": -10.68, "internal_energy": -1.47, "cluster_size": 26, "cluster_id": 1, "rank_in_cluster": 9}

>  <energy>  (27) 
-8.71

>  <cluster_rmsd>  (27) 
0.0

>  <cluster>  (27) 
2

$$$$

     RDKit          3D

 51 54  0  0  0  0  0  0  0  0999 V2000
  140.4310   75.6220  220.9030 O   0  0  0  0  0  0  0  0  0  0  0  0
  139.8150   76.0990  221.9140 C   0  0  0  0  0  0  0  0  0  0  0  0
  138.8350   75.2950  222.5480 N   0  0  0  0  0  0  0  0  0  0  0  0
  138.5970   73.9780  222.0030 C   0  0  0  0  0  0  0  0  0  0  0  0
  139.6730   73.0300  222.2970 C   0  0  0  0  0  0  0  0  0  0  0  0
  140.8670   73.2330  221.9730 O   0  0  0  0  0  0  0  0  0  0  0  0
  139.3850   71.8190  222.9790 N   0  0  0  0  0  0  0  0  0  0  0  0
  138.0780   71.3310  223.4360 C   0  0  0  0  0  0  0  0  0  0  0  0
  138.1080   69.8240  223.2590 C   0  0  0  0  0  0  0  0  0  0  0  0
  139.5680   69.5230  222.9220 C   0  0  0  0  0  0  0  0  0  0  0  0
  140.3090   70.7590  223.3920 C   0  0  2  0  0  0  0  0  0  0  0  0
  140.5170   70.7520  224.8350 C   0  0  0  0  0  0  0  0  0  0  0  0
  140.7650   71.8340  225.6340 C   0  0  0  0  0  0  0  0  0  0  0  0
  140.9570   71.7270  227.0160 C   0  0  0  0  0  0  0  0  0  0  0  0
  140.9010   70.4960  227.6330 C   0  0  0  0  0  0  0  0  0  0  0  0
  140.6520   69.3970  226.8470 C   0  0  0  0  0  0  0  0  0  0  0  0
  140.5930   68.0760  227.5180 C   0  0  0  0  0  0  0  0  0  0  0  0
  141.4670   68.1680  228.6090 F   0  0  0  0  0  0  0  0  0  0  0  0
  139.3360   67.9430  228.0650 F   0  0  0  0  0  0  0  0  0  0  0  0
  140.9860   67.0320  226.7360 F   0  0  0  0  0  0  0  0  0  0  0  0
  140.4640   69.5140  225.4820 C   0  0  0  0  0  0  0  0  0  0  0  0
  140.1140   77.4470  222.4050 C   0  0  0  0  0  0  0  0  0  0  0  0
  139.0580   78.2910  222.7010 C   0  0  0  0  0  0  0  0  0  0  0  0
  139.3500   79.5550  223.1600 C   0  0  0  0  0  0  0  0  0  0  0  0
  140.6580   79.9660  223.3200 C   0  0  0  0  0  0  0  0  0  0  0  0
  140.9630   81.2450  223.7850 C   0  0  0  0  0  0  0  0  0  0  0  0
  142.2760   81.6390  223.9370 C   0  0  0  0  0  0  0  0  0  0  0  0
  143.3150   80.7560  223.6270 C   0  0  0  0  0  0  0  0  0  0  0  0
  143.0040   79.4800  223.1630 C   0  0  0  0  0  0  0  0  0  0  0  0
  141.6960   79.0940  223.0130 C   0  0  0  0  0  0  0  0  0  0  0  0
  141.4090   77.8510  222.5610 N   0  0  0  0  0  0  0  0  0  0  0  0
  138.2950   75.6440  223.3890 H   0  0  0  0  0  0  0  0  0  0  0  0
  137.6608   73.5874  222.4284 H   0  0  0  0  0  0  0  0  0  0  0  0
  138.5418   74.0815  220.9093 H   0  0  0  0  0  0  0  0  0  0  0  0
  137.9227   71.5884  224.4941 H   0  0  0  0  0  0  0  0  0  0  0  0
  137.2559   71.7871  222.8650 H   0  0  0  0  0  0  0  0  0  0  0  0
  137.8074   69.3148  224.1866 H   0  0  0  0  0  0  0  0  0  0  0  0
  137.4123   69.4740  222.4822 H   0  0  0  0  0  0  0  0  0  0  0  0
  139.9178   68.6286  223.4584 H   0  0  0  0  0  0  0  0  0  0  0  0
  139.7238   69.3139  221.8534 H   0  0  0  0  0  0  0  0  0  0  0  0
  141.3234   70.8597  222.9787 H   0  0  0  0  0  0  0  0  0  0  0  0
  140.8157   72.8304  225.1707 H   0  0  0  0  0  0  0  0  0  0  0  0
  141.1536   72.6299  227.6128 H   0  0  0  0  0  0  0  0  0  0  0  0
  141.0506   70.3967  228.7182 H   0  0  0  0  0  0  0  0  0  0  0  0
  140.2675   68.6084  224.8893 H   0  0  0  0  0  0  0  0  0  0  0  0
  138.0164   77.9613  222.5732 H   0  0  0  0  0  0  0  0  0  0  0  0
  138.5302   80.2471  223.4026 H   0  0  0  0  0  0  0  0  0  0  0  0
  140.1508   81.9444  224.0322 H   0  0  0  0  0  0  0  0  0  0  0  0
  142.5064   82.6504  224.3030 H   0  0  0  0  0  0  0  0  0  0  0  0
  144.3638   81.0649  223.7479 H   0  0  0  0  0  0  0  0  0  0  0  0
  143.8128   78.7769  222.9151 H   0  0  0  0  0  0  0  0  0  0  0  0
  1  2  2  0
  2  3  1  0
  3  4  1  0
  4  5  1  0
  5  6  2  0
  5  7  1  0
  7  8  1  0
  8  9  1  0
  9 10  1  0
 10 11  1  0
 11 12  1  0
 12 13  2  0
 13 14  1  0
 14 15  2  0
 15 16  1  0
 16 17  1  0
 17 18  1  0
 17 19  1  0
 17 20  1  0
 16 21  2  0
  2 22  1  0
 22 23  2  0
 23 24  1  0
 24 25  2  0
 25 26  1  0
 26 27  2  0
 27 28  1  0
 28 29  2  0
 29 30  1  0
 30 31  2  0
 11  7  1  0
 21 12  1  0
 31 22  1  0
 30 25  1  0
  3 32  1  0
  4 33  1  0
  4 34  1  0
  8 35  1  0
  8 36  1  0
  9 37  1  0
  9 38  1  0
 10 39  1  0
 10 40  1  0
 11 41  1  6
 13 42  1  0
 14 43  1  0
 15 44  1  0
 21 45  1  0
 23 46  1  0
 24 47  1  0
 26 48  1  0
 27 49  1  0
 28 50  1  0
 29 51  1  0
M  END
>  <smiles>  (28) 
O=C(NCC(=O)N1CCCC1c1cccc(C(F)(F)F)c1)c1ccc2ccccc2n1

>  <score_type>  (28) 
oracle

>  <origin>  (28) 
autodockgpu

>  <m_score__min__energy>  (28) 
-9.5800000000000001

>  <m_primary>  (28) 
energy

>  <rmsd>  (28) 
8.404670408021126

>  <m_score__min__rmsd>  (28) 
8.404670408021126

>  <meeko>  (28) 
{"free_energy": -8.91, "intermolecular_energy": -10.7, "internal_energy": -1.26, "cluster_size": 26, "cluster_id": 1, "rank_in_cluster": 8}

>  <energy>  (28) 
-8.67

>  <cluster_rmsd>  (28) 
0.23

>  <cluster>  (28) 
2

$$$$

     RDKit          3D

 51 54  0  0  0  0  0  0  0  0999 V2000
  139.1540   72.9680  222.1250 O   0  0  0  0  0  0  0  0  0  0  0  0
  140.1850   72.3340  222.5290 C   0  0  0  0  0  0  0  0  0  0  0  0
  141.3960   72.4830  221.8090 N   0  0  0  0  0  0  0  0  0  0  0  0
  141.3830   73.3520  220.6540 C   0  0  0  0  0  0  0  0  0  0  0  0
  141.3360   74.7720  221.0020 C   0  0  0  0  0  0  0  0  0  0  0  0
  140.8090   75.1980  222.0580 O   0  0  0  0  0  0  0  0  0  0  0  0
  141.9040   75.7370  220.1300 N   0  0  0  0  0  0  0  0  0  0  0  0
  143.3150   75.8940  219.7560 C   0  0  0  0  0  0  0  0  0  0  0  0
  143.3180   76.3380  218.3060 C   0  0  0  0  0  0  0  0  0  0  0  0
  141.8490   76.6420  218.0110 C   0  0  0  0  0  0  0  0  0  0  0  0
  141.2330   76.8070  219.3860 C   0  0  2  0  0  0  0  0  0  0  0  0
  141.5140   78.1210  219.9540 C   0  0  0  0  0  0  0  0  0  0  0  0
  141.7450   79.2800  219.2660 C   0  0  0  0  0  0  0  0  0  0  0  0
  142.0120   80.4980  219.9030 C   0  0  0  0  0  0  0  0  0  0  0  0
  142.0520   80.5700  221.2790 C   0  0  0  0  0  0  0  0  0  0  0  0
  141.8220   79.4150  221.9870 C   0  0  0  0  0  0  0  0  0  0  0  0
  141.8670   79.5010  223.4670 C   0  0  0  0  0  0  0  0  0  0  0  0
  143.0550   80.1780  223.7690 F   0  0  0  0  0  0  0  0  0  0  0  0
  140.8530   80.3430  223.8650 F   0  0  0  0  0  0  0  0  0  0  0  0
  141.8840   78.2930  224.0970 F   0  0  0  0  0  0  0  0  0  0  0  0
  141.5590   78.2170  221.3480 C   0  0  0  0  0  0  0  0  0  0  0  0
  140.1160   71.4690  223.7110 C   0  0  0  0  0  0  0  0  0  0  0  0
  139.5080   70.2310  223.5890 C   0  0  0  0  0  0  0  0  0  0  0  0
  139.4470   69.4280  224.7050 C   0  0  0  0  0  0  0  0  0  0  0  0
  139.9770   69.8470  225.9080 C   0  0  0  0  0  0  0  0  0  0  0  0
  139.9200   69.0390  227.0440 C   0  0  0  0  0  0  0  0  0  0  0  0
  140.4540   69.4740  228.2390 C   0  0  0  0  0  0  0  0  0  0  0  0
  141.0600   70.7330  228.3210 C   0  0  0  0  0  0  0  0  0  0  0  0
  141.1140   71.5340  227.1830 C   0  0  0  0  0  0  0  0  0  0  0  0
  140.5810   71.0960  225.9980 C   0  0  0  0  0  0  0  0  0  0  0  0
  140.6400   71.8860  224.9000 N   0  0  0  0  0  0  0  0  0  0  0  0
  142.2790   71.9780  222.1020 H   0  0  0  0  0  0  0  0  0  0  0  0
  142.2940   73.1660  220.0663 H   0  0  0  0  0  0  0  0  0  0  0  0
  140.4701   73.1246  220.0840 H   0  0  0  0  0  0  0  0  0  0  0  0
  143.7956   76.6543  220.3892 H   0  0  0  0  0  0  0  0  0  0  0  0
  143.8735   74.9559  219.8905 H   0  0  0  0  0  0  0  0  0  0  0  0
  143.9379   77.2370  218.1733 H   0  0  0  0  0  0  0  0  0  0  0  0
  143.7376   75.5779  217.6306 H   0  0  0  0  0  0  0  0  0  0  0  0
  141.7501   77.5666  217.4234 H   0  0  0  0  0  0  0  0  0  0  0  0
  141.3617   75.8546  217.4173 H   0  0  0  0  0  0  0  0  0  0  0  0
  140.1349   76.7427  219.3967 H   0  0  0  0  0  0  0  0  0  0  0  0
  141.7200   79.2544  218.1666 H   0  0  0  0  0  0  0  0  0  0  0  0
  142.1907   81.4020  219.3023 H   0  0  0  0  0  0  0  0  0  0  0  0
  142.2610   81.5199  221.7929 H   0  0  0  0  0  0  0  0  0  0  0  0
  141.3805   77.3156  221.9527 H   0  0  0  0  0  0  0  0  0  0  0  0
  139.0863   69.8992  222.6287 H   0  0  0  0  0  0  0  0  0  0  0  0
  138.9696   68.4394  224.6370 H   0  0  0  0  0  0  0  0  0  0  0  0
  139.4459   68.0481  226.9862 H   0  0  0  0  0  0  0  0  0  0  0  0
  140.4035   68.8301  229.1294 H   0  0  0  0  0  0  0  0  0  0  0  0
  141.4878   71.0850  229.2713 H   0  0  0  0  0  0  0  0  0  0  0  0
  141.5878   72.5254  227.2352 H   0  0  0  0  0  0  0  0  0  0  0  0
  1  2  2  0
  2  3  1  0
  3  4  1  0
  4  5  1  0
  5  6  2  0
  5  7  1  0
  7  8  1  0
  8  9  1  0
  9 10  1  0
 10 11  1  0
 11 12  1  0
 12 13  2  0
 13 14  1  0
 14 15  2  0
 15 16  1  0
 16 17  1  0
 17 18  1  0
 17 19  1  0
 17 20  1  0
 16 21  2  0
  2 22  1  0
 22 23  2  0
 23 24  1  0
 24 25  2  0
 25 26  1  0
 26 27  2  0
 27 28  1  0
 28 29  2  0
 29 30  1  0
 30 31  2  0
 11  7  1  0
 21 12  1  0
 31 22  1  0
 30 25  1  0
  3 32  1  0
  4 33  1  0
  4 34  1  0
  8 35  1  0
  8 36  1  0
  9 37  1  0
  9 38  1  0
 10 39  1  0
 10 40  1  0
 11 41  1  6
 13 42  1  0
 14 43  1  0
 15 44  1  0
 21 45  1  0
 23 46  1  0
 24 47  1  0
 26 48  1  0
 27 49  1  0
 28 50  1  0
 29 51  1  0
M  END
>  <smiles>  (29) 
O=C(NCC(=O)N1CCCC1c1cccc(C(F)(F)F)c1)c1ccc2ccccc2n1

>  <score_type>  (29) 
oracle

>  <origin>  (29) 
autodockgpu

>  <m_score__min__energy>  (29) 
-9.5800000000000001

>  <m_primary>  (29) 
energy

>  <rmsd>  (29) 
2.4420287176224553

>  <m_score__min__rmsd>  (29) 
2.4420287176224553

>  <meeko>  (29) 
{"free_energy": -8.5, "intermolecular_energy": -10.29, "internal_energy": -1.33, "cluster_size": 18, "cluster_id": 2, "rank_in_cluster": 5}

>  <energy>  (29) 
-8.63

>  <cluster_rmsd>  (29) 
1.41

>  <cluster>  (29) 
2

$$$$

     RDKit          3D

 51 54  0  0  0  0  0  0  0  0999 V2000
  140.3340   70.9760  221.4100 O   0  0  0  0  0  0  0  0  0  0  0  0
  140.0260   71.5110  222.5270 C   0  0  0  0  0  0  0  0  0  0  0  0
  139.7730   72.9040  222.5610 N   0  0  0  0  0  0  0  0  0  0  0  0
  139.8790   73.6330  221.3180 C   0  0  0  0  0  0  0  0  0  0  0  0
  140.2370   75.0400  221.5030 C   0  0  0  0  0  0  0  0  0  0  0  0
  139.7940   75.7370  222.4470 O   0  0  0  0  0  0  0  0  0  0  0  0
  141.1230   75.6730  220.5930 N   0  0  0  0  0  0  0  0  0  0  0  0
  142.5730   75.4840  220.4670 C   0  0  0  0  0  0  0  0  0  0  0  0
  142.8840   75.5990  218.9870 C   0  0  0  0  0  0  0  0  0  0  0  0
  141.5760   76.0970  218.3740 C   0  0  0  0  0  0  0  0  0  0  0  0
  140.8160   76.6640  219.5570 C   0  0  2  0  0  0  0  0  0  0  0  0
  141.2910   77.9940  219.9210 C   0  0  0  0  0  0  0  0  0  0  0  0
  141.6210   79.0110  219.0680 C   0  0  0  0  0  0  0  0  0  0  0  0
  142.0740   80.2570  219.5140 C   0  0  0  0  0  0  0  0  0  0  0  0
  142.2060   80.5080  220.8630 C   0  0  0  0  0  0  0  0  0  0  0  0
  141.8790   79.4980  221.7360 C   0  0  0  0  0  0  0  0  0  0  0  0
  142.0240   79.7750  223.1860 C   0  0  0  0  0  0  0  0  0  0  0  0
  143.3480   80.1980  223.3590 F   0  0  0  0  0  0  0  0  0  0  0  0
  141.2470   80.8740  223.4790 F   0  0  0  0  0  0  0  0  0  0  0  0
  141.8060   78.6940  223.9870 F   0  0  0  0  0  0  0  0  0  0  0  0
  141.4320   78.2700  221.2840 C   0  0  0  0  0  0  0  0  0  0  0  0
  139.9400   70.7010  223.7460 C   0  0  0  0  0  0  0  0  0  0  0  0
  139.2720   69.4910  223.6890 C   0  0  0  0  0  0  0  0  0  0  0  0
  139.1960   68.7390  224.8390 C   0  0  0  0  0  0  0  0  0  0  0  0
  139.7700   69.1810  226.0130 C   0  0  0  0  0  0  0  0  0  0  0  0
  139.6990   68.4260  227.1830 C   0  0  0  0  0  0  0  0  0  0  0  0
  140.2780   68.8840  228.3480 C   0  0  0  0  0  0  0  0  0  0  0  0
  140.9460   70.1130  228.3640 C   0  0  0  0  0  0  0  0  0  0  0  0
  141.0140   70.8630  227.1920 C   0  0  0  0  0  0  0  0  0  0  0  0
  140.4350   70.4030  226.0380 C   0  0  0  0  0  0  0  0  0  0  0  0
  140.5090   71.1420  224.9060 N   0  0  0  0  0  0  0  0  0  0  0  0
  139.5140   73.3970  223.4620 H   0  0  0  0  0  0  0  0  0  0  0  0
  140.6508   73.1547  220.6970 H   0  0  0  0  0  0  0  0  0  0  0  0
  138.8890   73.6080  220.8392 H   0  0  0  0  0  0  0  0  0  0  0  0
  143.1099   76.2605  221.0316 H   0  0  0  0  0  0  0  0  0  0  0  0
  142.8883   74.5102  220.8699 H   0  0  0  0  0  0  0  0  0  0  0  0
  143.6970   76.3192  218.8128 H   0  0  0  0  0  0  0  0  0  0  0  0
  143.2224   74.6481  218.5496 H   0  0  0  0  0  0  0  0  0  0  0  0
  141.7674   76.8759  217.6212 H   0  0  0  0  0  0  0  0  0  0  0  0
  141.0211   75.3034  217.8522 H   0  0  0  0  0  0  0  0  0  0  0  0
  139.7407   76.8071  219.3745 H   0  0  0  0  0  0  0  0  0  0  0  0
  141.5261   78.8419  217.9852 H   0  0  0  0  0  0  0  0  0  0  0  0
  142.3262   81.0407  218.7844 H   0  0  0  0  0  0  0  0  0  0  0  0
  142.5608   81.4830  221.2282 H   0  0  0  0  0  0  0  0  0  0  0  0
  141.1806   77.4892  222.0169 H   0  0  0  0  0  0  0  0  0  0  0  0
  138.8150   69.1402  222.7519 H   0  0  0  0  0  0  0  0  0  0  0  0
  138.6706   67.7727  224.8219 H   0  0  0  0  0  0  0  0  0  0  0  0
  139.1772   67.4577  227.1769 H   0  0  0  0  0  0  0  0  0  0  0  0
  140.2144   68.2818  229.2663 H   0  0  0  0  0  0  0  0  0  0  0  0
  141.4114   70.4823  229.2897 H   0  0  0  0  0  0  0  0  0  0  0  0
  141.5361   71.8312  227.1927 H   0  0  0  0  0  0  0  0  0  0  0  0
  1  2  2  0
  2  3  1  0
  3  4  1  0
  4  5  1  0
  5  6  2  0
  5  7  1  0
  7  8  1  0
  8  9  1  0
  9 10  1  0
 10 11  1  0
 11 12  1  0
 12 13  2  0
 13 14  1  0
 14 15  2  0
 15 16  1  0
 16 17  1  0
 17 18  1  0
 17 19  1  0
 17 20  1  0
 16 21  2  0
  2 22  1  0
 22 23  2  0
 23 24  1  0
 24 25  2  0
 25 26  1  0
 26 27  2  0
 27 28  1  0
 28 29  2  0
 29 30  1  0
 30 31  2  0
 11  7  1  0
 21 12  1  0
 31 22  1  0
 30 25  1  0
  3 32  1  0
  4 33  1  0
  4 34  1  0
  8 35  1  0
  8 36  1  0
  9 37  1  0
  9 38  1  0
 10 39  1  0
 10 40  1  0
 11 41  1  6
 13 42  1  0
 14 43  1  0
 15 44  1  0
 21 45  1  0
 23 46  1  0
 24 47  1  0
 26 48  1  0
 27 49  1  0
 28 50  1  0
 29 51  1  0
M  END
>  <smiles>  (30) 
O=C(NCC(=O)N1CCCC1c1cccc(C(F)(F)F)c1)c1ccc2ccccc2n1

>  <score_type>  (30) 
oracle

>  <origin>  (30) 
autodockgpu

>  <m_score__min__energy>  (30) 
-9.5800000000000001

>  <m_primary>  (30) 
energy

>  <rmsd>  (30) 
1.9774218201136786

>  <m_score__min__rmsd>  (30) 
1.9774218201136786

>  <meeko>  (30) 
{"free_energy": -8.37, "intermolecular_energy": -10.15, "internal_energy": -1.55, "cluster_size": 18, "cluster_id": 2, "rank_in_cluster": 12}

>  <energy>  (30) 
-8.58

>  <cluster_rmsd>  (30) 
1.54

>  <cluster>  (30) 
2

$$$$

     RDKit          3D

 51 54  0  0  0  0  0  0  0  0999 V2000
  140.7920   71.5480  221.3330 O   0  0  0  0  0  0  0  0  0  0  0  0
  140.3050   72.1010  222.3740 C   0  0  0  0  0  0  0  0  0  0  0  0
  139.8780   73.4490  222.2850 N   0  0  0  0  0  0  0  0  0  0  0  0
  140.0230   74.1130  221.0100 C   0  0  0  0  0  0  0  0  0  0  0  0
  141.3880   74.5710  220.7510 C   0  0  0  0  0  0  0  0  0  0  0  0
  142.3890   73.8230  220.8540 O   0  0  0  0  0  0  0  0  0  0  0  0
  141.6240   75.9160  220.3640 N   0  0  0  0  0  0  0  0  0  0  0  0
  142.8650   76.4970  219.8350 C   0  0  0  0  0  0  0  0  0  0  0  0
  142.4400   77.5400  218.8190 C   0  0  0  0  0  0  0  0  0  0  0  0
  140.9280   77.6510  219.0170 C   0  0  0  0  0  0  0  0  0  0  0  0
  140.7000   77.0530  220.3910 C   0  0  2  0  0  0  0  0  0  0  0  0
  141.0280   77.9940  221.4550 C   0  0  0  0  0  0  0  0  0  0  0  0
  141.3550   77.6910  222.7480 C   0  0  0  0  0  0  0  0  0  0  0  0
  141.6520   78.6690  223.7040 C   0  0  0  0  0  0  0  0  0  0  0  0
  141.6230   80.0050  223.3650 C   0  0  0  0  0  0  0  0  0  0  0  0
  141.2970   80.3290  222.0710 C   0  0  0  0  0  0  0  0  0  0  0  0
  141.2680   81.7690  221.7140 C   0  0  0  0  0  0  0  0  0  0  0  0
  139.9150   82.1320  221.7210 F   0  0  0  0  0  0  0  0  0  0  0  0
  141.8410   82.4660  222.7540 F   0  0  0  0  0  0  0  0  0  0  0  0
  141.7860   82.0520  220.4850 F   0  0  0  0  0  0  0  0  0  0  0  0
  141.0050   79.3550  221.1340 C   0  0  0  0  0  0  0  0  0  0  0  0
  140.1920   71.3590  223.6320 C   0  0  0  0  0  0  0  0  0  0  0  0
  139.5830   70.1150  223.6140 C   0  0  0  0  0  0  0  0  0  0  0  0
  139.4820   69.4280  224.8020 C   0  0  0  0  0  0  0  0  0  0  0  0
  139.9740   69.9630  225.9740 C   0  0  0  0  0  0  0  0  0  0  0  0
  139.8770   69.2720  227.1820 C   0  0  0  0  0  0  0  0  0  0  0  0
  140.3730   69.8220  228.3450 C   0  0  0  0  0  0  0  0  0  0  0  0
  140.9820   71.0820  228.3210 C   0  0  0  0  0  0  0  0  0  0  0  0
  141.0770   71.7660  227.1120 C   0  0  0  0  0  0  0  0  0  0  0  0
  140.5800   71.2140  225.9600 C   0  0  0  0  0  0  0  0  0  0  0  0
  140.6800   71.8900  224.7920 N   0  0  0  0  0  0  0  0  0  0  0  0
  139.4670   73.9540  223.1200 H   0  0  0  0  0  0  0  0  0  0  0  0
  139.7332   73.4103  220.2149 H   0  0  0  0  0  0  0  0  0  0  0  0
  139.3775   75.0035  221.0298 H   0  0  0  0  0  0  0  0  0  0  0  0
  143.4428   76.9660  220.6450 H   0  0  0  0  0  0  0  0  0  0  0  0
  143.5064   75.7287  219.3787 H   0  0  0  0  0  0  0  0  0  0  0  0
  142.9325   78.5033  219.0175 H   0  0  0  0  0  0  0  0  0  0  0  0
  142.7142   77.2661  217.7895 H   0  0  0  0  0  0  0  0  0  0  0  0
  140.6049   78.7021  218.9882 H   0  0  0  0  0  0  0  0  0  0  0  0
  140.3564   77.1385  218.2292 H   0  0  0  0  0  0  0  0  0  0  0  0
  139.6543   76.7785  220.5938 H   0  0  0  0  0  0  0  0  0  0  0  0
  141.3859   76.6335  223.0494 H   0  0  0  0  0  0  0  0  0  0  0  0
  141.9098   78.3703  224.7308 H   0  0  0  0  0  0  0  0  0  0  0  0
  141.8532   80.7849  224.1058 H   0  0  0  0  0  0  0  0  0  0  0  0
  140.7477   79.6588  220.1086 H   0  0  0  0  0  0  0  0  0  0  0  0
  139.1919   69.6891  222.6782 H   0  0  0  0  0  0  0  0  0  0  0  0
  139.0021   68.4383  224.8171 H   0  0  0  0  0  0  0  0  0  0  0  0
  139.4011   68.2806  227.2069 H   0  0  0  0  0  0  0  0  0  0  0  0
  140.2900   69.2699  229.2928 H   0  0  0  0  0  0  0  0  0  0  0  0
  141.3803   71.5260  229.2452 H   0  0  0  0  0  0  0  0  0  0  0  0
  141.5543   72.7565  227.0811 H   0  0  0  0  0  0  0  0  0  0  0  0
  1  2  2  0
  2  3  1  0
  3  4  1  0
  4  5  1  0
  5  6  2  0
  5  7  1  0
  7  8  1  0
  8  9  1  0
  9 10  1  0
 10 11  1  0
 11 12  1  0
 12 13  2  0
 13 14  1  0
 14 15  2  0
 15 16  1  0
 16 17  1  0
 17 18  1  0
 17 19  1  0
 17 20  1  0
 16 21  2  0
  2 22  1  0
 22 23  2  0
 23 24  1  0
 24 25  2  0
 25 26  1  0
 26 27  2  0
 27 28  1  0
 28 29  2  0
 29 30  1  0
 30 31  2  0
 11  7  1  0
 21 12  1  0
 31 22  1  0
 30 25  1  0
  3 32  1  0
  4 33  1  0
  4 34  1  0
  8 35  1  0
  8 36  1  0
  9 37  1  0
  9 38  1  0
 10 39  1  0
 10 40  1  0
 11 41  1  6
 13 42  1  0
 14 43  1  0
 15 44  1  0
 21 45  1  0
 23 46  1  0
 24 47  1  0
 26 48  1  0
 27 49  1  0
 28 50  1  0
 29 51  1  0
M  END
>  <smiles>  (31) 
O=C(NCC(=O)N1CCCC1c1cccc(C(F)(F)F)c1)c1ccc2ccccc2n1

>  <score_type>  (31) 
oracle

>  <origin>  (31) 
autodockgpu

>  <m_score__min__energy>  (31) 
-9.5800000000000001

>  <m_primary>  (31) 
energy

>  <rmsd>  (31) 
2.1262867487961565

>  <m_score__min__rmsd>  (31) 
2.1262867487961565

>  <meeko>  (31) 
{"free_energy": -8.71, "intermolecular_energy": -10.5, "internal_energy": -1.4, "cluster_size": 18, "cluster_id": 2, "rank_in_cluster": 1}

>  <energy>  (31) 
-8.5

>  <cluster_rmsd>  (31) 
1.69

>  <cluster>  (31) 
2

$$$$

     RDKit          3D

 51 54  0  0  0  0  0  0  0  0999 V2000
  140.6260   74.7450  220.3380 O   0  0  0  0  0  0  0  0  0  0  0  0
  140.2100   74.9480  221.5270 C   0  0  0  0  0  0  0  0  0  0  0  0
  139.8730   73.8260  222.3250 N   0  0  0  0  0  0  0  0  0  0  0  0
  140.0240   72.5160  221.7340 C   0  0  0  0  0  0  0  0  0  0  0  0
  138.8050   71.7100  221.7990 C   0  0  0  0  0  0  0  0  0  0  0  0
  137.9440   71.7010  220.8870 O   0  0  0  0  0  0  0  0  0  0  0  0
  138.5550   70.8910  222.9310 N   0  0  0  0  0  0  0  0  0  0  0  0
  137.3510   70.8570  223.7700 C   0  0  0  0  0  0  0  0  0  0  0  0
  137.1660   69.4080  224.1790 C   0  0  0  0  0  0  0  0  0  0  0  0
  138.4560   68.7290  223.7210 C   0  0  0  0  0  0  0  0  0  0  0  0
  139.4240   69.8810  223.5400 C   0  0  2  0  0  0  0  0  0  0  0  0
  139.9740   70.3340  224.8130 C   0  0  0  0  0  0  0  0  0  0  0  0
  140.6420   71.5040  225.0490 C   0  0  0  0  0  0  0  0  0  0  0  0
  141.1400   71.8510  226.3100 C   0  0  0  0  0  0  0  0  0  0  0  0
  140.9680   71.0030  227.3830 C   0  0  0  0  0  0  0  0  0  0  0  0
  140.2990   69.8230  227.1660 C   0  0  0  0  0  0  0  0  0  0  0  0
  140.1180   68.9160  228.3260 C   0  0  0  0  0  0  0  0  0  0  0  0
  139.6430   67.7120  227.7920 F   0  0  0  0  0  0  0  0  0  0  0  0
  141.3680   68.6280  228.8270 F   0  0  0  0  0  0  0  0  0  0  0  0
  139.2230   69.3630  229.2520 F   0  0  0  0  0  0  0  0  0  0  0  0
  139.8110   69.4900  225.9150 C   0  0  0  0  0  0  0  0  0  0  0  0
  140.0830   76.3100  222.0530 C   0  0  0  0  0  0  0  0  0  0  0  0
  138.8140   76.8200  222.2670 C   0  0  0  0  0  0  0  0  0  0  0  0
  138.7070   78.1000  222.7600 C   0  0  0  0  0  0  0  0  0  0  0  0
  139.8320   78.8510  223.0320 C   0  0  0  0  0  0  0  0  0  0  0  0
  139.7320   80.1490  223.5320 C   0  0  0  0  0  0  0  0  0  0  0  0
  140.8670   80.8860  223.7980 C   0  0  0  0  0  0  0  0  0  0  0  0
  142.1320   80.3340  223.5670 C   0  0  0  0  0  0  0  0  0  0  0  0
  142.2260   79.0370  223.0680 C   0  0  0  0  0  0  0  0  0  0  0  0
  141.0930   78.3100  222.8050 C   0  0  0  0  0  0  0  0  0  0  0  0
  141.1980   77.0510  222.3210 N   0  0  0  0  0  0  0  0  0  0  0  0
  139.5220   73.9410  223.3170 H   0  0  0  0  0  0  0  0  0  0  0  0
  140.3055   72.6394  220.6778 H   0  0  0  0  0  0  0  0  0  0  0  0
  140.7974   71.9855  222.3088 H   0  0  0  0  0  0  0  0  0  0  0  0
  137.4868   71.4905  224.6589 H   0  0  0  0  0  0  0  0  0  0  0  0
  136.4723   71.2378  223.2288 H   0  0  0  0  0  0  0  0  0  0  0  0
  137.0439   69.3215  225.2688 H   0  0  0  0  0  0  0  0  0  0  0  0
  136.2673   68.9538  223.7362 H   0  0  0  0  0  0  0  0  0  0  0  0
  138.8214   68.0259  224.4840 H   0  0  0  0  0  0  0  0  0  0  0  0
  138.3231   68.1359  222.8041 H   0  0  0  0  0  0  0  0  0  0  0  0
  140.3124   69.6318  222.9411 H   0  0  0  0  0  0  0  0  0  0  0  0
  140.7942   72.2017  224.2123 H   0  0  0  0  0  0  0  0  0  0  0  0
  141.6711   72.8047  226.4455 H   0  0  0  0  0  0  0  0  0  0  0  0
  141.3537   71.2626  228.3799 H   0  0  0  0  0  0  0  0  0  0  0  0
  139.2805   68.5353  225.7842 H   0  0  0  0  0  0  0  0  0  0  0  0
  137.9181   76.2199  222.0494 H   0  0  0  0  0  0  0  0  0  0  0  0
  137.7109   78.5305  222.9398 H   0  0  0  0  0  0  0  0  0  0  0  0
  138.7404   80.5883  223.7156 H   0  0  0  0  0  0  0  0  0  0  0  0
  140.7778   81.9090  224.1923 H   0  0  0  0  0  0  0  0  0  0  0  0
  143.0408   80.9171  223.7769 H   0  0  0  0  0  0  0  0  0  0  0  0
  143.2153   78.5928  222.8836 H   0  0  0  0  0  0  0  0  0  0  0  0
  1  2  2  0
  2  3  1  0
  3  4  1  0
  4  5  1  0
  5  6  2  0
  5  7  1  0
  7  8  1  0
  8  9  1  0
  9 10  1  0
 10 11  1  0
 11 12  1  0
 12 13  2  0
 13 14  1  0
 14 15  2  0
 15 16  1  0
 16 17  1  0
 17 18  1  0
 17 19  1  0
 17 20  1  0
 16 21  2  0
  2 22  1  0
 22 23  2  0
 23 24  1  0
 24 25  2  0
 25 26  1  0
 26 27  2  0
 27 28  1  0
 28 29  2  0
 29 30  1  0
 30 31  2  0
 11  7  1  0
 21 12  1  0
 31 22  1  0
 30 25  1  0
  3 32  1  0
  4 33  1  0
  4 34  1  0
  8 35  1  0
  8 36  1  0
  9 37  1  0
  9 38  1  0
 10 39  1  0
 10 40  1  0
 11 41  1  6
 13 42  1  0
 14 43  1  0
 15 44  1  0
 21 45  1  0
 23 46  1  0
 24 47  1  0
 26 48  1  0
 27 49  1  0
 28 50  1  0
 29 51  1  0
M  END
>  <smiles>  (32) 
O=C(NCC(=O)N1CCCC1c1cccc(C(F)(F)F)c1)c1ccc2ccccc2n1

>  <score_type>  (32) 
oracle

>  <origin>  (32) 
autodockgpu

>  <m_score__min__energy>  (32) 
-9.5800000000000001

>  <m_primary>  (32) 
energy

>  <rmsd>  (32) 
8.255331865433192

>  <m_score__min__rmsd>  (32) 
8.255331865433192

>  <meeko>  (32) 
{"free_energy": -8.44, "intermolecular_energy": -10.23, "internal_energy": -1.39, "cluster_size": 26, "cluster_id": 1, "rank_in_cluster": 24}

>  <energy>  (32) 
-8.47

>  <cluster_rmsd>  (32) 
1.68

>  <cluster>  (32) 
2

$$$$

     RDKit          3D

 51 54  0  0  0  0  0  0  0  0999 V2000
  141.8560   73.5130  221.0240 O   0  0  0  0  0  0  0  0  0  0  0  0
  141.0470   74.3240  221.5860 C   0  0  0  0  0  0  0  0  0  0  0  0
  139.9410   73.7920  222.2930 N   0  0  0  0  0  0  0  0  0  0  0  0
  139.8010   72.3550  222.3330 C   0  0  0  0  0  0  0  0  0  0  0  0
  138.4900   71.9160  222.8110 C   0  0  0  0  0  0  0  0  0  0  0  0
  137.4730   72.6500  222.7810 O   0  0  0  0  0  0  0  0  0  0  0  0
  138.3270   70.6080  223.3380 N   0  0  0  0  0  0  0  0  0  0  0  0
  137.0870   69.9710  223.7980 C   0  0  0  0  0  0  0  0  0  0  0  0
  137.2040   68.5070  223.4190 C   0  0  0  0  0  0  0  0  0  0  0  0
  138.6550   68.3590  222.9630 C   0  0  0  0  0  0  0  0  0  0  0  0
  139.3430   69.5740  223.5520 C   0  0  2  0  0  0  0  0  0  0  0  0
  139.6450   69.3950  224.9680 C   0  0  0  0  0  0  0  0  0  0  0  0
  139.5770   68.2300  225.6810 C   0  0  0  0  0  0  0  0  0  0  0  0
  139.8830   68.1580  227.0450 C   0  0  0  0  0  0  0  0  0  0  0  0
  140.2730   69.2880  227.7320 C   0  0  0  0  0  0  0  0  0  0  0  0
  140.3480   70.4680  227.0310 C   0  0  0  0  0  0  0  0  0  0  0  0
  140.7680   71.6790  227.7770 C   0  0  0  0  0  0  0  0  0  0  0  0
  141.7920   71.2580  228.6350 F   0  0  0  0  0  0  0  0  0  0  0  0
  141.3690   72.5330  226.8780 F   0  0  0  0  0  0  0  0  0  0  0  0
  139.7810   72.2460  228.5270 F   0  0  0  0  0  0  0  0  0  0  0  0
  140.0430   70.5280  225.6840 C   0  0  0  0  0  0  0  0  0  0  0  0
  141.2590   75.7710  221.4980 C   0  0  0  0  0  0  0  0  0  0  0  0
  141.6440   76.3110  220.2830 C   0  0  0  0  0  0  0  0  0  0  0  0
  141.8410   77.6710  220.2130 C   0  0  0  0  0  0  0  0  0  0  0  0
  141.6580   78.4710  221.3210 C   0  0  0  0  0  0  0  0  0  0  0  0
  141.8550   79.8510  221.2590 C   0  0  0  0  0  0  0  0  0  0  0  0
  141.6680   80.6350  222.3770 C   0  0  0  0  0  0  0  0  0  0  0  0
  141.2770   80.0520  223.5870 C   0  0  0  0  0  0  0  0  0  0  0  0
  141.0820   78.6740  223.6440 C   0  0  0  0  0  0  0  0  0  0  0  0
  141.2710   77.8990  222.5280 C   0  0  0  0  0  0  0  0  0  0  0  0
  141.0770   76.5610  222.5970 N   0  0  0  0  0  0  0  0  0  0  0  0
  139.2400   74.4230  222.7760 H   0  0  0  0  0  0  0  0  0  0  0  0
  139.9526   71.9607  221.3173 H   0  0  0  0  0  0  0  0  0  0  0  0
  140.5513   71.9734  223.0411 H   0  0  0  0  0  0  0  0  0  0  0  0
  136.9846   70.0767  224.8881 H   0  0  0  0  0  0  0  0  0  0  0  0
  136.2013   70.4362  223.3408 H   0  0  0  0  0  0  0  0  0  0  0  0
  136.9984   67.8610  224.2853 H   0  0  0  0  0  0  0  0  0  0  0  0
  136.4834   68.2115  222.6422 H   0  0  0  0  0  0  0  0  0  0  0  0
  139.0962   67.4304  223.3542 H   0  0  0  0  0  0  0  0  0  0  0  0
  138.7540   68.3019  221.8690 H   0  0  0  0  0  0  0  0  0  0  0  0
  140.3195   69.8012  223.0994 H   0  0  0  0  0  0  0  0  0  0  0  0
  139.2689   67.3110  225.1608 H   0  0  0  0  0  0  0  0  0  0  0  0
  139.8119   67.1948  227.5716 H   0  0  0  0  0  0  0  0  0  0  0  0
  140.5157   69.2467  228.8041 H   0  0  0  0  0  0  0  0  0  0  0  0
  140.1154   71.4932  225.1614 H   0  0  0  0  0  0  0  0  0  0  0  0
  141.7882   75.6718  219.3995 H   0  0  0  0  0  0  0  0  0  0  0  0
  142.1487   78.1262  219.2601 H   0  0  0  0  0  0  0  0  0  0  0  0
  142.1618   80.3166  220.3108 H   0  0  0  0  0  0  0  0  0  0  0  0
  141.8266   81.7219  222.3177 H   0  0  0  0  0  0  0  0  0  0  0  0
  141.1255   80.6737  224.4818 H   0  0  0  0  0  0  0  0  0  0  0  0
  140.7745   78.2042  224.5899 H   0  0  0  0  0  0  0  0  0  0  0  0
  1  2  2  0
  2  3  1  0
  3  4  1  0
  4  5  1  0
  5  6  2  0
  5  7  1  0
  7  8  1  0
  8  9  1  0
  9 10  1  0
 10 11  1  0
 11 12  1  0
 12 13  2  0
 13 14  1  0
 14 15  2  0
 15 16  1  0
 16 17  1  0
 17 18  1  0
 17 19  1  0
 17 20  1  0
 16 21  2  0
  2 22  1  0
 22 23  2  0
 23 24  1  0
 24 25  2  0
 25 26  1  0
 26 27  2  0
 27 28  1  0
 28 29  2  0
 29 30  1  0
 30 31  2  0
 11  7  1  0
 21 12  1  0
 31 22  1  0
 30 25  1  0
  3 32  1  0
  4 33  1  0
  4 34  1  0
  8 35  1  0
  8 36  1  0
  9 37  1  0
  9 38  1  0
 10 39  1  0
 10 40  1  0
 11 41  1  6
 13 42  1  0
 14 43  1  0
 15 44  1  0
 21 45  1  0
 23 46  1  0
 24 47  1  0
 26 48  1  0
 27 49  1  0
 28 50  1  0
 29 51  1  0
M  END
>  <smiles>  (33) 
O=C(NCC(=O)N1CCCC1c1cccc(C(F)(F)F)c1)c1ccc2ccccc2n1

>  <score_type>  (33) 
oracle

>  <origin>  (33) 
autodockgpu

>  <m_score__min__energy>  (33) 
-9.5800000000000001

>  <m_primary>  (33) 
energy

>  <rmsd>  (33) 
8.429951949250864

>  <m_score__min__rmsd>  (33) 
8.429951949250864

>  <meeko>  (33) 
{"free_energy": -8.49, "intermolecular_energy": -10.28, "internal_energy": -1.64, "cluster_size": 26, "cluster_id": 1, "rank_in_cluster": 22}

>  <energy>  (33) 
-8.47

>  <cluster_rmsd>  (33) 
1.49

>  <cluster>  (33) 
2

$$$$

     RDKit          3D

 51 54  0  0  0  0  0  0  0  0999 V2000
  139.0290   72.9240  222.1630 O   0  0  0  0  0  0  0  0  0  0  0  0
  140.0790   72.3140  222.5550 C   0  0  0  0  0  0  0  0  0  0  0  0
  141.2810   72.5050  221.8310 N   0  0  0  0  0  0  0  0  0  0  0  0
  141.2380   73.3850  220.6860 C   0  0  0  0  0  0  0  0  0  0  0  0
  141.2600   74.8030  221.0480 C   0  0  0  0  0  0  0  0  0  0  0  0
  140.7580   75.2430  222.1100 O   0  0  0  0  0  0  0  0  0  0  0  0
  141.8690   75.7480  220.1810 N   0  0  0  0  0  0  0  0  0  0  0  0
  143.2890   75.8630  219.8300 C   0  0  0  0  0  0  0  0  0  0  0  0
  143.3270   76.3030  218.3780 C   0  0  0  0  0  0  0  0  0  0  0  0
  141.8730   76.6470  218.0600 C   0  0  0  0  0  0  0  0  0  0  0  0
  141.2410   76.8340  219.4240 C   0  0  2  0  0  0  0  0  0  0  0  0
  141.5500   78.1410  219.9930 C   0  0  0  0  0  0  0  0  0  0  0  0
  141.8410   79.2880  219.3060 C   0  0  0  0  0  0  0  0  0  0  0  0
  142.1320   80.4990  219.9440 C   0  0  0  0  0  0  0  0  0  0  0  0
  142.1350   80.5790  221.3190 C   0  0  0  0  0  0  0  0  0  0  0  0
  141.8440   79.4370  222.0270 C   0  0  0  0  0  0  0  0  0  0  0  0
  141.8490   79.5310  223.5070 C   0  0  0  0  0  0  0  0  0  0  0  0
  143.0420   80.1870  223.8390 F   0  0  0  0  0  0  0  0  0  0  0  0
  140.8410   80.3950  223.8720 F   0  0  0  0  0  0  0  0  0  0  0  0
  141.8250   78.3270  224.1440 F   0  0  0  0  0  0  0  0  0  0  0  0
  141.5590   78.2450  221.3870 C   0  0  0  0  0  0  0  0  0  0  0  0
  140.0390   71.4360  223.7280 C   0  0  0  0  0  0  0  0  0  0  0  0
  139.4770   70.1780  223.5930 C   0  0  0  0  0  0  0  0  0  0  0  0
  139.4440   69.3620  224.7010 C   0  0  0  0  0  0  0  0  0  0  0  0
  139.9570   69.7870  225.9090 C   0  0  0  0  0  0  0  0  0  0  0  0
  139.9290   68.9660  227.0360 C   0  0  0  0  0  0  0  0  0  0  0  0
  140.4450   69.4080  228.2360 C   0  0  0  0  0  0  0  0  0  0  0  0
  141.0050   70.6870  228.3320 C   0  0  0  0  0  0  0  0  0  0  0  0
  141.0310   71.5020  227.2020 C   0  0  0  0  0  0  0  0  0  0  0  0
  140.5150   71.0570  226.0120 C   0  0  0  0  0  0  0  0  0  0  0  0
  140.5470   71.8590  224.9230 N   0  0  0  0  0  0  0  0  0  0  0  0
  142.1790   72.0210  222.1150 H   0  0  0  0  0  0  0  0  0  0  0  0
  142.1095   73.1731  220.0492 H   0  0  0  0  0  0  0  0  0  0  0  0
  140.2888   73.1956  220.1633 H   0  0  0  0  0  0  0  0  0  0  0  0
  143.7812   76.6109  220.4690 H   0  0  0  0  0  0  0  0  0  0  0  0
  143.8185   74.9099  219.9761 H   0  0  0  0  0  0  0  0  0  0  0  0
  143.9739   77.1838  218.2528 H   0  0  0  0  0  0  0  0  0  0  0  0
  143.7355   75.5296  217.7110 H   0  0  0  0  0  0  0  0  0  0  0  0
  141.8093   77.5720  217.4681 H   0  0  0  0  0  0  0  0  0  0  0  0
  141.3728   75.8714  217.4614 H   0  0  0  0  0  0  0  0  0  0  0  0
  140.1415   76.8013  219.4174 H   0  0  0  0  0  0  0  0  0  0  0  0
  141.8464   79.2569  218.2065 H   0  0  0  0  0  0  0  0  0  0  0  0
  142.3597   81.3923  219.3438 H   0  0  0  0  0  0  0  0  0  0  0  0
  142.3625   81.5245  221.8332 H   0  0  0  0  0  0  0  0  0  0  0  0
  141.3332   77.3541  221.9913 H   0  0  0  0  0  0  0  0  0  0  0  0
  139.0689   69.8406  222.6288 H   0  0  0  0  0  0  0  0  0  0  0  0
  139.0026   68.3575  224.6222 H   0  0  0  0  0  0  0  0  0  0  0  0
  139.4922   67.9588  226.9672 H   0  0  0  0  0  0  0  0  0  0  0  0
  140.4164   68.7538  229.1198 H   0  0  0  0  0  0  0  0  0  0  0  0
  141.4190   71.0441  229.2865 H   0  0  0  0  0  0  0  0  0  0  0  0
  141.4685   72.5093  227.2650 H   0  0  0  0  0  0  0  0  0  0  0  0
  1  2  2  0
  2  3  1  0
  3  4  1  0
  4  5  1  0
  5  6  2  0
  5  7  1  0
  7  8  1  0
  8  9  1  0
  9 10  1  0
 10 11  1  0
 11 12  1  0
 12 13  2  0
 13 14  1  0
 14 15  2  0
 15 16  1  0
 16 17  1  0
 17 18  1  0
 17 19  1  0
 17 20  1  0
 16 21  2  0
  2 22  1  0
 22 23  2  0
 23 24  1  0
 24 25  2  0
 25 26  1  0
 26 27  2  0
 27 28  1  0
 28 29  2  0
 29 30  1  0
 30 31  2  0
 11  7  1  0
 21 12  1  0
 31 22  1  0
 30 25  1  0
  3 32  1  0
  4 33  1  0
  4 34  1  0
  8 35  1  0
  8 36  1  0
  9 37  1  0
  9 38  1  0
 10 39  1  0
 10 40  1  0
 11 41  1  6
 13 42  1  0
 14 43  1  0
 15 44  1  0
 21 45  1  0
 23 46  1  0
 24 47  1  0
 26 48  1  0
 27 49  1  0
 28 50  1  0
 29 51  1  0
M  END
>  <smiles>  (34) 
O=C(NCC(=O)N1CCCC1c1cccc(C(F)(F)F)c1)c1ccc2ccccc2n1

>  <score_type>  (34) 
oracle

>  <origin>  (34) 
autodockgpu

>  <m_score__min__energy>  (34) 
-9.5800000000000001

>  <m_primary>  (34) 
energy

>  <rmsd>  (34) 
2.400679545359926

>  <m_score__min__rmsd>  (34) 
2.400679545359926

>  <meeko>  (34) 
{"free_energy": -8.47, "intermolecular_energy": -10.26, "internal_energy": -1.34, "cluster_size": 18, "cluster_id": 2, "rank_in_cluster": 6}

>  <energy>  (34) 
-8.47

>  <cluster_rmsd>  (34) 
1.99

>  <cluster>  (34) 
2

$$$$

     RDKit          3D

 51 54  0  0  0  0  0  0  0  0999 V2000
  139.0190   70.8650  221.3720 O   0  0  0  0  0  0  0  0  0  0  0  0
  139.2680   71.5380  222.4270 C   0  0  0  0  0  0  0  0  0  0  0  0
  139.2730   72.9520  222.3400 N   0  0  0  0  0  0  0  0  0  0  0  0
  138.9930   73.5430  221.0520 C   0  0  0  0  0  0  0  0  0  0  0  0
  139.3530   74.9590  220.9770 C   0  0  0  0  0  0  0  0  0  0  0  0
  138.6650   75.8670  221.5030 O   0  0  0  0  0  0  0  0  0  0  0  0
  140.5270   75.3580  220.2860 N   0  0  0  0  0  0  0  0  0  0  0  0
  140.7060   75.5330  218.8400 C   0  0  0  0  0  0  0  0  0  0  0  0
  141.6550   76.7050  218.6740 C   0  0  0  0  0  0  0  0  0  0  0  0
  142.1540   76.9780  220.0920 C   0  0  0  0  0  0  0  0  0  0  0  0
  141.8430   75.6940  220.8360 C   0  0  2  0  0  0  0  0  0  0  0  0
  142.8280   74.6540  220.5620 C   0  0  0  0  0  0  0  0  0  0  0  0
  144.1780   74.8190  220.4150 C   0  0  0  0  0  0  0  0  0  0  0  0
  145.0460   73.7550  220.1460 C   0  0  0  0  0  0  0  0  0  0  0  0
  144.5570   72.4730  220.0180 C   0  0  0  0  0  0  0  0  0  0  0  0
  143.2030   72.2880  220.1620 C   0  0  0  0  0  0  0  0  0  0  0  0
  142.6840   70.9050  220.0220 C   0  0  0  0  0  0  0  0  0  0  0  0
  142.3750   70.7550  218.6640 F   0  0  0  0  0  0  0  0  0  0  0  0
  143.7320   70.0420  220.2570 F   0  0  0  0  0  0  0  0  0  0  0  0
  141.5630   70.6510  220.7530 F   0  0  0  0  0  0  0  0  0  0  0  0
  142.3540   73.3460  220.4270 C   0  0  0  0  0  0  0  0  0  0  0  0
  139.5450   70.8620  223.6980 C   0  0  0  0  0  0  0  0  0  0  0  0
  139.2850   69.5060  223.7950 C   0  0  0  0  0  0  0  0  0  0  0  0
  139.5470   68.8810  224.9930 C   0  0  0  0  0  0  0  0  0  0  0  0
  140.0540   69.5880  226.0630 C   0  0  0  0  0  0  0  0  0  0  0  0
  140.3240   68.9630  227.2810 C   0  0  0  0  0  0  0  0  0  0  0  0
  140.8300   69.6850  228.3410 C   0  0  0  0  0  0  0  0  0  0  0  0
  141.0790   71.0550  228.2030 C   0  0  0  0  0  0  0  0  0  0  0  0
  140.8090   71.6730  226.9840 C   0  0  0  0  0  0  0  0  0  0  0  0
  140.3040   70.9500  225.9340 C   0  0  0  0  0  0  0  0  0  0  0  0
  140.0460   71.5640  224.7560 N   0  0  0  0  0  0  0  0  0  0  0  0
  139.4750   73.5560  223.1860 H   0  0  0  0  0  0  0  0  0  0  0  0
  139.5621   72.9965  220.2855 H   0  0  0  0  0  0  0  0  0  0  0  0
  137.9074   73.4727  220.8892 H   0  0  0  0  0  0  0  0  0  0  0  0
  141.1393   74.6247  218.3960 H   0  0  0  0  0  0  0  0  0  0  0  0
  139.7463   75.7175  218.3350 H   0  0  0  0  0  0  0  0  0  0  0  0
  142.4906   76.4408  218.0092 H   0  0  0  0  0  0  0  0  0  0  0  0
  141.1708   77.5815  218.2188 H   0  0  0  0  0  0  0  0  0  0  0  0
  143.2351   77.1811  220.0951 H   0  0  0  0  0  0  0  0  0  0  0  0
  141.6808   77.8601  220.5479 H   0  0  0  0  0  0  0  0  0  0  0  0
  141.8613   75.7933  221.9314 H   0  0  0  0  0  0  0  0  0  0  0  0
  144.5989   75.8306  220.5123 H   0  0  0  0  0  0  0  0  0  0  0  0
  146.1243   73.9428  220.0361 H   0  0  0  0  0  0  0  0  0  0  0  0
  145.2276   71.6267  219.8078 H   0  0  0  0  0  0  0  0  0  0  0  0
  141.2763   73.1535  220.5346 H   0  0  0  0  0  0  0  0  0  0  0  0
  138.8809   68.9444  222.9399 H   0  0  0  0  0  0  0  0  0  0  0  0
  139.3495   67.8040  225.0983 H   0  0  0  0  0  0  0  0  0  0  0  0
  140.1317   67.8861  227.3964 H   0  0  0  0  0  0  0  0  0  0  0  0
  141.0384   69.1829  229.2973 H   0  0  0  0  0  0  0  0  0  0  0  0
  141.4824   71.6360  229.0454 H   0  0  0  0  0  0  0  0  0  0  0  0
  141.0024   72.7491  226.8629 H   0  0  0  0  0  0  0  0  0  0  0  0
  1  2  2  0
  2  3  1  0
  3  4  1  0
  4  5  1  0
  5  6  2  0
  5  7  1  0
  7  8  1  0
  8  9  1  0
  9 10  1  0
 10 11  1  0
 11 12  1  0
 12 13  2  0
 13 14  1  0
 14 15  2  0
 15 16  1  0
 16 17  1  0
 17 18  1  0
 17 19  1  0
 17 20  1  0
 16 21  2  0
  2 22  1  0
 22 23  2  0
 23 24  1  0
 24 25  2  0
 25 26  1  0
 26 27  2  0
 27 28  1  0
 28 29  2  0
 29 30  1  0
 30 31  2  0
 11  7  1  0
 21 12  1  0
 31 22  1  0
 30 25  1  0
  3 32  1  0
  4 33  1  0
  4 34  1  0
  8 35  1  0
  8 36  1  0
  9 37  1  0
  9 38  1  0
 10 39  1  0
 10 40  1  0
 11 41  1  1
 13 42  1  0
 14 43  1  0
 15 44  1  0
 21 45  1  0
 23 46  1  0
 24 47  1  0
 26 48  1  0
 27 49  1  0
 28 50  1  0
 29 51  1  0
M  END
>  <smiles>  (35) 
O=C(NCC(=O)N1CCCC1c1cccc(C(F)(F)F)c1)c1ccc2ccccc2n1

>  <score_type>  (35) 
oracle

>  <origin>  (35) 
autodockgpu

>  <m_score__min__energy>  (35) 
-9.5800000000000001

>  <m_primary>  (35) 
energy

>  <rmsd>  (35) 
1.5321399141489656

>  <m_score__min__rmsd>  (35) 
1.5321399141489656

>  <meeko>  (35) 
{"free_energy": -7.3, "intermolecular_energy": -9.09, "internal_energy": -1.96, "cluster_size": 3, "cluster_id": 4, "rank_in_cluster": 3}

>  <energy>  (35) 
-8.4

>  <cluster_rmsd>  (35) 
1.69

>  <cluster>  (35) 
2

$$$$

     RDKit          3D

 51 54  0  0  0  0  0  0  0  0999 V2000
  141.2630   72.0980  221.8560 O   0  0  0  0  0  0  0  0  0  0  0  0
  140.2460   72.1350  222.6260 C   0  0  0  0  0  0  0  0  0  0  0  0
  139.2310   73.0870  222.3590 N   0  0  0  0  0  0  0  0  0  0  0  0
  139.4160   73.9600  221.2220 C   0  0  0  0  0  0  0  0  0  0  0  0
  139.9780   75.2620  221.5810 C   0  0  0  0  0  0  0  0  0  0  0  0
  139.7270   75.8370  222.6670 O   0  0  0  0  0  0  0  0  0  0  0  0
  140.8510   75.9310  220.6830 N   0  0  0  0  0  0  0  0  0  0  0  0
  142.2780   75.6760  220.4560 C   0  0  0  0  0  0  0  0  0  0  0  0
  142.5170   75.9140  218.9780 C   0  0  0  0  0  0  0  0  0  0  0  0
  141.2110   76.5400  218.4900 C   0  0  0  0  0  0  0  0  0  0  0  0
  140.5500   77.0310  219.7630 C   0  0  2  0  0  0  0  0  0  0  0  0
  141.1220   78.2920  220.2210 C   0  0  0  0  0  0  0  0  0  0  0  0
  141.5700   79.3220  219.4400 C   0  0  0  0  0  0  0  0  0  0  0  0
  142.1110   80.4980  219.9740 C   0  0  0  0  0  0  0  0  0  0  0  0
  142.2110   80.6600  221.3390 C   0  0  0  0  0  0  0  0  0  0  0  0
  141.7650   79.6360  222.1400 C   0  0  0  0  0  0  0  0  0  0  0  0
  141.8770   79.8190  223.6070 C   0  0  0  0  0  0  0  0  0  0  0  0
  143.1330   80.4000  223.8210 F   0  0  0  0  0  0  0  0  0  0  0  0
  140.9610   80.7780  223.9780 F   0  0  0  0  0  0  0  0  0  0  0  0
  141.8090   78.6600  224.3220 F   0  0  0  0  0  0  0  0  0  0  0  0
  141.2330   78.4790  221.6020 C   0  0  0  0  0  0  0  0  0  0  0  0
  140.1330   71.2150  223.7610 C   0  0  0  0  0  0  0  0  0  0  0  0
  139.5080   69.9960  223.5640 C   0  0  0  0  0  0  0  0  0  0  0  0
  139.4070   69.1400  224.6370 C   0  0  0  0  0  0  0  0  0  0  0  0
  139.9150   69.4880  225.8710 C   0  0  0  0  0  0  0  0  0  0  0  0
  139.8180   68.6270  226.9640 C   0  0  0  0  0  0  0  0  0  0  0  0
  140.3320   68.9920  228.1900 C   0  0  0  0  0  0  0  0  0  0  0  0
  140.9570   70.2330  228.3480 C   0  0  0  0  0  0  0  0  0  0  0  0
  141.0520   71.0890  227.2540 C   0  0  0  0  0  0  0  0  0  0  0  0
  140.5380   70.7210  226.0370 C   0  0  0  0  0  0  0  0  0  0  0  0
  140.6370   71.5620  224.9810 N   0  0  0  0  0  0  0  0  0  0  0  0
  138.3680   73.1590  222.9680 H   0  0  0  0  0  0  0  0  0  0  0  0
  140.0972   73.4691  220.5114 H   0  0  0  0  0  0  0  0  0  0  0  0
  138.4233   74.1417  220.7843 H   0  0  0  0  0  0  0  0  0  0  0  0
  142.8894   76.3648  221.0575 H   0  0  0  0  0  0  0  0  0  0  0  0
  142.5551   74.6524  220.7485 H   0  0  0  0  0  0  0  0  0  0  0  0
  143.3619   76.6014  218.8240 H   0  0  0  0  0  0  0  0  0  0  0  0
  142.7736   74.9918  218.4361 H   0  0  0  0  0  0  0  0  0  0  0  0
  141.4094   77.3762  217.8034 H   0  0  0  0  0  0  0  0  0  0  0  0
  140.5827   75.8325  217.9290 H   0  0  0  0  0  0  0  0  0  0  0  0
  139.4770   77.2489  219.6569 H   0  0  0  0  0  0  0  0  0  0  0  0
  141.5024   79.2222  218.3466 H   0  0  0  0  0  0  0  0  0  0  0  0
  142.4577   81.2961  219.3010 H   0  0  0  0  0  0  0  0  0  0  0  0
  142.6337   81.5782  221.7729 H   0  0  0  0  0  0  0  0  0  0  0  0
  140.8876   77.6838  222.2790 H   0  0  0  0  0  0  0  0  0  0  0  0
  139.1039   69.7195  222.5790 H   0  0  0  0  0  0  0  0  0  0  0  0
  138.9143   68.1649  224.5085 H   0  0  0  0  0  0  0  0  0  0  0  0
  139.3276   67.6493  226.8469 H   0  0  0  0  0  0  0  0  0  0  0  0
  140.2504   68.3057  229.0457 H   0  0  0  0  0  0  0  0  0  0  0  0
  141.3684   70.5291  229.3243 H   0  0  0  0  0  0  0  0  0  0  0  0
  141.5427   72.0670  227.3666 H   0  0  0  0  0  0  0  0  0  0  0  0
  1  2  2  0
  2  3  1  0
  3  4  1  0
  4  5  1  0
  5  6  2  0
  5  7  1  0
  7  8  1  0
  8  9  1  0
  9 10  1  0
 10 11  1  0
 11 12  1  0
 12 13  2  0
 13 14  1  0
 14 15  2  0
 15 16  1  0
 16 17  1  0
 17 18  1  0
 17 19  1  0
 17 20  1  0
 16 21  2  0
  2 22  1  0
 22 23  2  0
 23 24  1  0
 24 25  2  0
 25 26  1  0
 26 27  2  0
 27 28  1  0
 28 29  2  0
 29 30  1  0
 30 31  2  0
 11  7  1  0
 21 12  1  0
 31 22  1  0
 30 25  1  0
  3 32  1  0
  4 33  1  0
  4 34  1  0
  8 35  1  0
  8 36  1  0
  9 37  1  0
  9 38  1  0
 10 39  1  0
 10 40  1  0
 11 41  1  6
 13 42  1  0
 14 43  1  0
 15 44  1  0
 21 45  1  0
 23 46  1  0
 24 47  1  0
 26 48  1  0
 27 49  1  0
 28 50  1  0
 29 51  1  0
M  END
>  <smiles>  (36) 
O=C(NCC(=O)N1CCCC1c1cccc(C(F)(F)F)c1)c1ccc2ccccc2n1

>  <score_type>  (36) 
oracle

>  <origin>  (36) 
autodockgpu

>  <m_score__min__energy>  (36) 
-9.5800000000000001

>  <m_primary>  (36) 
energy

>  <rmsd>  (36) 
1.9002453668480608

>  <m_score__min__rmsd>  (36) 
1.9002453668480608

>  <meeko>  (36) 
{"free_energy": -8.58, "intermolecular_energy": -10.37, "internal_energy": -1.42, "cluster_size": 18, "cluster_id": 2, "rank_in_cluster": 4}

>  <energy>  (36) 
-8.38

>  <cluster_rmsd>  (36) 
1.97

>  <cluster>  (36) 
2

$$$$

     RDKit          3D

 51 54  0  0  0  0  0  0  0  0999 V2000
  139.7950   71.2060  221.2300 O   0  0  0  0  0  0  0  0  0  0  0  0
  139.7580   71.8790  222.3130 C   0  0  0  0  0  0  0  0  0  0  0  0
  139.6040   73.2850  222.2300 N   0  0  0  0  0  0  0  0  0  0  0  0
  139.4980   73.8690  220.9120 C   0  0  0  0  0  0  0  0  0  0  0  0
  140.7420   73.7940  220.1470 C   0  0  0  0  0  0  0  0  0  0  0  0
  141.1020   72.7640  219.5290 O   0  0  0  0  0  0  0  0  0  0  0  0
  141.6040   74.9210  220.0800 N   0  0  0  0  0  0  0  0  0  0  0  0
  143.0300   74.9860  220.4210 C   0  0  0  0  0  0  0  0  0  0  0  0
  143.6530   75.9560  219.4360 C   0  0  0  0  0  0  0  0  0  0  0  0
  142.4520   76.5800  218.7250 C   0  0  0  0  0  0  0  0  0  0  0  0
  141.2920   76.2880  219.6550 C   0  0  2  0  0  0  0  0  0  0  0  0
  141.2540   77.2110  220.7840 C   0  0  0  0  0  0  0  0  0  0  0  0
  141.0810   76.8910  222.1020 C   0  0  0  0  0  0  0  0  0  0  0  0
  141.0540   77.8520  223.1180 C   0  0  0  0  0  0  0  0  0  0  0  0
  141.2040   79.1890  222.8160 C   0  0  0  0  0  0  0  0  0  0  0  0
  141.3780   79.5300  221.4970 C   0  0  0  0  0  0  0  0  0  0  0  0
  141.5390   80.9710  221.1800 C   0  0  0  0  0  0  0  0  0  0  0  0
  142.1900   81.0130  219.9400 F   0  0  0  0  0  0  0  0  0  0  0  0
  140.2830   81.4890  220.9520 F   0  0  0  0  0  0  0  0  0  0  0  0
  142.2850   81.6640  222.0860 F   0  0  0  0  0  0  0  0  0  0  0  0
  141.4040   78.5720  220.5000 C   0  0  0  0  0  0  0  0  0  0  0  0
  139.8740   71.2110  223.6130 C   0  0  0  0  0  0  0  0  0  0  0  0
  139.4290   69.9060  223.7270 C   0  0  0  0  0  0  0  0  0  0  0  0
  139.5410   69.2890  224.9520 C   0  0  0  0  0  0  0  0  0  0  0  0
  140.0830   69.9540  226.0320 C   0  0  0  0  0  0  0  0  0  0  0  0
  140.2020   69.3360  227.2770 C   0  0  0  0  0  0  0  0  0  0  0  0
  140.7460   70.0160  228.3460 C   0  0  0  0  0  0  0  0  0  0  0  0
  141.1850   71.3350  228.1900 C   0  0  0  0  0  0  0  0  0  0  0  0
  141.0640   71.9470  226.9440 C   0  0  0  0  0  0  0  0  0  0  0  0
  140.5220   71.2650  225.8850 C   0  0  0  0  0  0  0  0  0  0  0  0
  140.4110   71.8720  224.6800 N   0  0  0  0  0  0  0  0  0  0  0  0
  139.5690   73.8890  223.0990 H   0  0  0  0  0  0  0  0  0  0  0  0
  138.7128   73.3362  220.3556 H   0  0  0  0  0  0  0  0  0  0  0  0
  139.2596   74.9346  221.0448 H   0  0  0  0  0  0  0  0  0  0  0  0
  143.1603   75.3507  221.4506 H   0  0  0  0  0  0  0  0  0  0  0  0
  143.5031   73.9946  220.3632 H   0  0  0  0  0  0  0  0  0  0  0  0
  144.2395   76.7243  219.9611 H   0  0  0  0  0  0  0  0  0  0  0  0
  144.3499   75.4654  218.7405 H   0  0  0  0  0  0  0  0  0  0  0  0
  142.5905   77.6640  218.5991 H   0  0  0  0  0  0  0  0  0  0  0  0
  142.2989   76.1765  217.7132 H   0  0  0  0  0  0  0  0  0  0  0  0
  140.3027   76.3997  219.1873 H   0  0  0  0  0  0  0  0  0  0  0  0
  140.9578   75.8326  222.3750 H   0  0  0  0  0  0  0  0  0  0  0  0
  140.9124   77.5396  224.1631 H   0  0  0  0  0  0  0  0  0  0  0  0
  141.1849   79.9560  223.6042 H   0  0  0  0  0  0  0  0  0  0  0  0
  141.5464   78.8889  219.4563 H   0  0  0  0  0  0  0  0  0  0  0  0
  138.9984   69.3772  222.8639 H   0  0  0  0  0  0  0  0  0  0  0  0
  139.1938   68.2521  225.0714 H   0  0  0  0  0  0  0  0  0  0  0  0
  139.8594   68.2988  227.4068 H   0  0  0  0  0  0  0  0  0  0  0  0
  140.8350   69.5201  229.3238 H   0  0  0  0  0  0  0  0  0  0  0  0
  141.6199   71.8818  229.0396 H   0  0  0  0  0  0  0  0  0  0  0  0
  141.4055   72.9839  226.8090 H   0  0  0  0  0  0  0  0  0  0  0  0
  1  2  2  0
  2  3  1  0
  3  4  1  0
  4  5  1  0
  5  6  2  0
  5  7  1  0
  7  8  1  0
  8  9  1  0
  9 10  1  0
 10 11  1  0
 11 12  1  0
 12 13  2  0
 13 14  1  0
 14 15  2  0
 15 16  1  0
 16 17  1  0
 17 18  1  0
 17 19  1  0
 17 20  1  0
 16 21  2  0
  2 22  1  0
 22 23  2  0
 23 24  1  0
 24 25  2  0
 25 26  1  0
 26 27  2  0
 27 28  1  0
 28 29  2  0
 29 30  1  0
 30 31  2  0
 11  7  1  0
 21 12  1  0
 31 22  1  0
 30 25  1  0
  3 32  1  0
  4 33  1  0
  4 34  1  0
  8 35  1  0
  8 36  1  0
  9 37  1  0
  9 38  1  0
 10 39  1  0
 10 40  1  0
 11 41  1  6
 13 42  1  0
 14 43  1  0
 15 44  1  0
 21 45  1  0
 23 46  1  0
 24 47  1  0
 26 48  1  0
 27 49  1  0
 28 50  1  0
 29 51  1  0
M  END
>  <smiles>  (37) 
O=C(NCC(=O)N1CCCC1c1cccc(C(F)(F)F)c1)c1ccc2ccccc2n1

>  <score_type>  (37) 
oracle

>  <origin>  (37) 
autodockgpu

>  <m_score__min__energy>  (37) 
-9.5800000000000001

>  <m_primary>  (37) 
energy

>  <rmsd>  (37) 
2.218206098718329

>  <m_score__min__rmsd>  (37) 
2.218206098718329

>  <meeko>  (37) 
{"free_energy": -8.1, "intermolecular_energy": -9.89, "internal_energy": -1.51, "cluster_size": 18, "cluster_id": 2, "rank_in_cluster": 16}

>  <energy>  (37) 
-8.38

>  <cluster_rmsd>  (37) 
0.97

>  <cluster>  (37) 
2

$$$$

     RDKit          3D

 51 54  0  0  0  0  0  0  0  0999 V2000
  138.9110   70.5900  221.3500 O   0  0  0  0  0  0  0  0  0  0  0  0
  138.9710   71.3280  222.3890 C   0  0  0  0  0  0  0  0  0  0  0  0
  138.6410   72.7000  222.2620 N   0  0  0  0  0  0  0  0  0  0  0  0
  138.2550   73.1770  220.9540 C   0  0  0  0  0  0  0  0  0  0  0  0
  138.6700   74.5560  220.6970 C   0  0  0  0  0  0  0  0  0  0  0  0
  137.9010   75.5370  220.8360 O   0  0  0  0  0  0  0  0  0  0  0  0
  139.9960   74.8310  220.2710 N   0  0  0  0  0  0  0  0  0  0  0  0
  140.4760   75.0390  218.8990 C   0  0  0  0  0  0  0  0  0  0  0  0
  141.5680   76.0880  218.9930 C   0  0  0  0  0  0  0  0  0  0  0  0
  141.8050   76.2390  220.4950 C   0  0  0  0  0  0  0  0  0  0  0  0
  141.2070   74.9770  221.0830 C   0  0  2  0  0  0  0  0  0  0  0  0
  142.1000   73.8330  220.9360 C   0  0  0  0  0  0  0  0  0  0  0  0
  141.7440   72.5130  220.9010 C   0  0  0  0  0  0  0  0  0  0  0  0
  142.6790   71.4800  220.7610 C   0  0  0  0  0  0  0  0  0  0  0  0
  144.0220   71.7670  220.6520 C   0  0  0  0  0  0  0  0  0  0  0  0
  144.3990   73.0880  220.6840 C   0  0  0  0  0  0  0  0  0  0  0  0
  145.8460   73.3890  220.5660 C   0  0  0  0  0  0  0  0  0  0  0  0
  146.4520   72.7660  221.6650 F   0  0  0  0  0  0  0  0  0  0  0  0
  146.3200   72.7210  219.4580 F   0  0  0  0  0  0  0  0  0  0  0  0
  146.1470   74.7180  220.6010 F   0  0  0  0  0  0  0  0  0  0  0  0
  143.4670   74.1010  220.8230 C   0  0  0  0  0  0  0  0  0  0  0  0
  139.3740   70.7680  223.6820 C   0  0  0  0  0  0  0  0  0  0  0  0
  139.1780   69.4160  223.9060 C   0  0  0  0  0  0  0  0  0  0  0  0
  139.5590   68.9020  225.1240 C   0  0  0  0  0  0  0  0  0  0  0  0
  140.1200   69.7100  226.0910 C   0  0  0  0  0  0  0  0  0  0  0  0
  140.5100   69.1960  227.3280 C   0  0  0  0  0  0  0  0  0  0  0  0
  141.0680   70.0200  228.2830 C   0  0  0  0  0  0  0  0  0  0  0  0
  141.2500   71.3810  228.0160 C   0  0  0  0  0  0  0  0  0  0  0  0
  140.8600   71.8890  226.7800 C   0  0  0  0  0  0  0  0  0  0  0  0
  140.3040   71.0650  225.8350 C   0  0  0  0  0  0  0  0  0  0  0  0
  139.9290   71.5710  224.6370 N   0  0  0  0  0  0  0  0  0  0  0  0
  138.6760   73.3550  223.0940 H   0  0  0  0  0  0  0  0  0  0  0  0
  138.7146   72.5266  220.1952 H   0  0  0  0  0  0  0  0  0  0  0  0
  137.1562   73.1529  220.9088 H   0  0  0  0  0  0  0  0  0  0  0  0
  140.8805   74.1017  218.4893 H   0  0  0  0  0  0  0  0  0  0  0  0
  139.6630   75.3621  218.2322 H   0  0  0  0  0  0  0  0  0  0  0  0
  142.4823   75.7476  218.4849 H   0  0  0  0  0  0  0  0  0  0  0  0
  141.2879   77.0360  218.5105 H   0  0  0  0  0  0  0  0  0  0  0  0
  142.8803   76.3039  220.7176 H   0  0  0  0  0  0  0  0  0  0  0  0
  141.3561   77.1548  220.9069 H   0  0  0  0  0  0  0  0  0  0  0  0
  141.0197   75.0300  222.1656 H   0  0  0  0  0  0  0  0  0  0  0  0
  140.6789   72.2519  220.9864 H   0  0  0  0  0  0  0  0  0  0  0  0
  142.3394   70.4340  220.7379 H   0  0  0  0  0  0  0  0  0  0  0  0
  144.7675   70.9656  220.5430 H   0  0  0  0  0  0  0  0  0  0  0  0
  143.8112   75.1455  220.8452 H   0  0  0  0  0  0  0  0  0  0  0  0
  138.7313   68.7724  223.1338 H   0  0  0  0  0  0  0  0  0  0  0  0
  139.4142   67.8311  225.3296 H   0  0  0  0  0  0  0  0  0  0  0  0
  140.3715   68.1262  227.5432 H   0  0  0  0  0  0  0  0  0  0  0  0
  141.3704   69.6062  229.2563 H   0  0  0  0  0  0  0  0  0  0  0  0
  141.6960   72.0420  228.7737 H   0  0  0  0  0  0  0  0  0  0  0  0
  140.9986   72.9578  226.5599 H   0  0  0  0  0  0  0  0  0  0  0  0
  1  2  2  0
  2  3  1  0
  3  4  1  0
  4  5  1  0
  5  6  2  0
  5  7  1  0
  7  8  1  0
  8  9  1  0
  9 10  1  0
 10 11  1  0
 11 12  1  0
 12 13  2  0
 13 14  1  0
 14 15  2  0
 15 16  1  0
 16 17  1  0
 17 18  1  0
 17 19  1  0
 17 20  1  0
 16 21  2  0
  2 22  1  0
 22 23  2  0
 23 24  1  0
 24 25  2  0
 25 26  1  0
 26 27  2  0
 27 28  1  0
 28 29  2  0
 29 30  1  0
 30 31  2  0
 11  7  1  0
 21 12  1  0
 31 22  1  0
 30 25  1  0
  3 32  1  0
  4 33  1  0
  4 34  1  0
  8 35  1  0
  8 36  1  0
  9 37  1  0
  9 38  1  0
 10 39  1  0
 10 40  1  0
 11 41  1  1
 13 42  1  0
 14 43  1  0
 15 44  1  0
 21 45  1  0
 23 46  1  0
 24 47  1  0
 26 48  1  0
 27 49  1  0
 28 50  1  0
 29 51  1  0
M  END
>  <smiles>  (38) 
O=C(NCC(=O)N1CCCC1c1cccc(C(F)(F)F)c1)c1ccc2ccccc2n1

>  <score_type>  (38) 
oracle

>  <origin>  (38) 
autodockgpu

>  <m_score__min__energy>  (38) 
-9.5800000000000001

>  <m_primary>  (38) 
energy

>  <rmsd>  (38) 
1.6807682028339637

>  <m_score__min__rmsd>  (38) 
1.6807682028339637

>  <meeko>  (38) 
{"free_energy": -7.4, "intermolecular_energy": -9.19, "internal_energy": -2.01, "cluster_size": 3, "cluster_id": 4, "rank_in_cluster": 2}

>  <energy>  (38) 
-8.37

>  <cluster_rmsd>  (38) 
1.57

>  <cluster>  (38) 
2

$$$$

     RDKit          3D

 51 54  0  0  0  0  0  0  0  0999 V2000
  141.1310   72.2890  221.8190 O   0  0  0  0  0  0  0  0  0  0  0  0
  140.1290   72.3590  222.6070 C   0  0  0  0  0  0  0  0  0  0  0  0
  139.1290   73.3270  222.3420 N   0  0  0  0  0  0  0  0  0  0  0  0
  139.3100   74.1760  221.1870 C   0  0  0  0  0  0  0  0  0  0  0  0
  140.3870   75.1520  221.3530 C   0  0  0  0  0  0  0  0  0  0  0  0
  141.4600   74.8890  221.9470 O   0  0  0  0  0  0  0  0  0  0  0  0
  140.2430   76.4640  220.8310 N   0  0  0  0  0  0  0  0  0  0  0  0
  140.8050   77.0050  219.5880 C   0  0  0  0  0  0  0  0  0  0  0  0
  139.7660   77.9670  219.0420 C   0  0  0  0  0  0  0  0  0  0  0  0
  138.7480   78.0900  220.1750 C   0  0  0  0  0  0  0  0  0  0  0  0
  139.5030   77.5980  221.3930 C   0  0  2  0  0  0  0  0  0  0  0  0
  140.3980   78.6180  221.9270 C   0  0  0  0  0  0  0  0  0  0  0  0
  141.4200   78.4310  222.8170 C   0  0  0  0  0  0  0  0  0  0  0  0
  142.2250   79.4790  223.2770 C   0  0  0  0  0  0  0  0  0  0  0  0
  142.0090   80.7670  222.8380 C   0  0  0  0  0  0  0  0  0  0  0  0
  140.9870   80.9750  221.9440 C   0  0  0  0  0  0  0  0  0  0  0  0
  140.7610   82.3650  221.4760 C   0  0  0  0  0  0  0  0  0  0  0  0
  141.8240   83.1150  221.9940 F   0  0  0  0  0  0  0  0  0  0  0  0
  140.9350   82.3770  220.1090 F   0  0  0  0  0  0  0  0  0  0  0  0
  139.5910   82.9170  221.9050 F   0  0  0  0  0  0  0  0  0  0  0  0
  140.1970   79.9330  221.4950 C   0  0  0  0  0  0  0  0  0  0  0  0
  140.0200   71.4600  223.7590 C   0  0  0  0  0  0  0  0  0  0  0  0
  139.3440   70.2630  223.6010 C   0  0  0  0  0  0  0  0  0  0  0  0
  139.2460   69.4270  224.6900 C   0  0  0  0  0  0  0  0  0  0  0  0
  139.8070   69.7740  225.9020 C   0  0  0  0  0  0  0  0  0  0  0  0
  139.7130   68.9330  227.0110 C   0  0  0  0  0  0  0  0  0  0  0  0
  140.2790   69.2970  228.2150 C   0  0  0  0  0  0  0  0  0  0  0  0
  140.9540   70.5160  228.3330 C   0  0  0  0  0  0  0  0  0  0  0  0
  141.0450   71.3520  227.2230 C   0  0  0  0  0  0  0  0  0  0  0  0
  140.4790   70.9850  226.0290 C   0  0  0  0  0  0  0  0  0  0  0  0
  140.5750   71.8070  224.9580 N   0  0  0  0  0  0  0  0  0  0  0  0
  138.2780   73.4260  222.9650 H   0  0  0  0  0  0  0  0  0  0  0  0
  139.5439   73.5413  220.3196 H   0  0  0  0  0  0  0  0  0  0  0  0
  138.3762   74.7401  221.0460 H   0  0  0  0  0  0  0  0  0  0  0  0
  141.7464   77.5357  219.7935 H   0  0  0  0  0  0  0  0  0  0  0  0
  141.0315   76.2055  218.8672 H   0  0  0  0  0  0  0  0  0  0  0  0
  140.2182   78.9436  218.8144 H   0  0  0  0  0  0  0  0  0  0  0  0
  139.3147   77.6157  218.1024 H   0  0  0  0  0  0  0  0  0  0  0  0
  138.4314   79.1353  220.3058 H   0  0  0  0  0  0  0  0  0  0  0  0
  137.8279   77.5180  219.9846 H   0  0  0  0  0  0  0  0  0  0  0  0
  138.8589   77.3376  222.2458 H   0  0  0  0  0  0  0  0  0  0  0  0
  141.6172   77.4139  223.1866 H   0  0  0  0  0  0  0  0  0  0  0  0
  143.0345   79.2735  223.9928 H   0  0  0  0  0  0  0  0  0  0  0  0
  142.6338   81.6005  223.1914 H   0  0  0  0  0  0  0  0  0  0  0  0
  139.3890   80.1437  220.7790 H   0  0  0  0  0  0  0  0  0  0  0  0
  138.8982   69.9878  222.6338 H   0  0  0  0  0  0  0  0  0  0  0  0
  138.7134   68.4695  224.5929 H   0  0  0  0  0  0  0  0  0  0  0  0
  139.1836   67.9726  226.9247 H   0  0  0  0  0  0  0  0  0  0  0  0
  140.1993   68.6272  229.0839 H   0  0  0  0  0  0  0  0  0  0  0  0
  141.4075   70.8109  229.2908 H   0  0  0  0  0  0  0  0  0  0  0  0
  141.5742   72.3129  227.3045 H   0  0  0  0  0  0  0  0  0  0  0  0
  1  2  2  0
  2  3  1  0
  3  4  1  0
  4  5  1  0
  5  6  2  0
  5  7  1  0
  7  8  1  0
  8  9  1  0
  9 10  1  0
 10 11  1  0
 11 12  1  0
 12 13  2  0
 13 14  1  0
 14 15  2  0
 15 16  1  0
 16 17  1  0
 17 18  1  0
 17 19  1  0
 17 20  1  0
 16 21  2  0
  2 22  1  0
 22 23  2  0
 23 24  1  0
 24 25  2  0
 25 26  1  0
 26 27  2  0
 27 28  1  0
 28 29  2  0
 29 30  1  0
 30 31  2  0
 11  7  1  0
 21 12  1  0
 31 22  1  0
 30 25  1  0
  3 32  1  0
  4 33  1  0
  4 34  1  0
  8 35  1  0
  8 36  1  0
  9 37  1  0
  9 38  1  0
 10 39  1  0
 10 40  1  0
 11 41  1  1
 13 42  1  0
 14 43  1  0
 15 44  1  0
 21 45  1  0
 23 46  1  0
 24 47  1  0
 26 48  1  0
 27 49  1  0
 28 50  1  0
 29 51  1  0
M  END
>  <smiles>  (39) 
O=C(NCC(=O)N1CCCC1c1cccc(C(F)(F)F)c1)c1ccc2ccccc2n1

>  <score_type>  (39) 
oracle

>  <origin>  (39) 
autodockgpu

>  <m_score__min__energy>  (39) 
-9.5800000000000001

>  <m_primary>  (39) 
energy

>  <rmsd>  (39) 
2.0029457470888348

>  <m_score__min__rmsd>  (39) 
2.0029457470888348

>  <meeko>  (39) 
{"free_energy": -8.38, "intermolecular_energy": -10.17, "internal_energy": -1.22, "cluster_size": 18, "cluster_id": 2, "rank_in_cluster": 11}

>  <energy>  (39) 
-8.36

>  <cluster_rmsd>  (39) 
1.55

>  <cluster>  (39) 
2

$$$$

     RDKit          3D

 51 54  0  0  0  0  0  0  0  0999 V2000
  141.3810   72.2710  221.7910 O   0  0  0  0  0  0  0  0  0  0  0  0
  140.3930   72.4050  222.5860 C   0  0  0  0  0  0  0  0  0  0  0  0
  139.4550   73.4360  222.3300 N   0  0  0  0  0  0  0  0  0  0  0  0
  139.6830   74.2740  221.1740 C   0  0  0  0  0  0  0  0  0  0  0  0
  140.0920   75.6350  221.5210 C   0  0  0  0  0  0  0  0  0  0  0  0
  141.2820   75.9480  221.7670 O   0  0  0  0  0  0  0  0  0  0  0  0
  139.1240   76.6710  221.5900 N   0  0  0  0  0  0  0  0  0  0  0  0
  138.5240   77.4190  220.4790 C   0  0  0  0  0  0  0  0  0  0  0  0
  137.0860   77.6860  220.8820 C   0  0  0  0  0  0  0  0  0  0  0  0
  137.0310   77.2620  222.3490 C   0  0  0  0  0  0  0  0  0  0  0  0
  138.4850   77.2500  222.7760 C   0  0  2  0  0  0  0  0  0  0  0  0
  138.9800   78.5920  223.0590 C   0  0  0  0  0  0  0  0  0  0  0  0
  138.2450   79.6680  223.4730 C   0  0  0  0  0  0  0  0  0  0  0  0
  138.8120   80.9240  223.7160 C   0  0  0  0  0  0  0  0  0  0  0  0
  140.1650   81.1230  223.5410 C   0  0  0  0  0  0  0  0  0  0  0  0
  140.9200   80.0530  223.1250 C   0  0  0  0  0  0  0  0  0  0  0  0
  142.3750   80.2750  222.9390 C   0  0  0  0  0  0  0  0  0  0  0  0
  142.9680   79.0120  223.0670 F   0  0  0  0  0  0  0  0  0  0  0  0
  142.5750   80.6440  221.6270 F   0  0  0  0  0  0  0  0  0  0  0  0
  142.9360   81.1120  223.8570 F   0  0  0  0  0  0  0  0  0  0  0  0
  140.3500   78.8160  222.8880 C   0  0  0  0  0  0  0  0  0  0  0  0
  140.2330   71.5140  223.7390 C   0  0  0  0  0  0  0  0  0  0  0  0
  139.5640   70.3160  223.5600 C   0  0  0  0  0  0  0  0  0  0  0  0
  139.4190   69.4870  224.6490 C   0  0  0  0  0  0  0  0  0  0  0  0
  139.9270   69.8420  225.8820 C   0  0  0  0  0  0  0  0  0  0  0  0
  139.7850   69.0080  226.9910 C   0  0  0  0  0  0  0  0  0  0  0  0
  140.2990   69.3800  228.2150 C   0  0  0  0  0  0  0  0  0  0  0  0
  140.9690   70.6000  228.3550 C   0  0  0  0  0  0  0  0  0  0  0  0
  141.1080   71.4280  227.2440 C   0  0  0  0  0  0  0  0  0  0  0  0
  140.5940   71.0540  226.0290 C   0  0  0  0  0  0  0  0  0  0  0  0
  140.7360   71.8680  224.9570 N   0  0  0  0  0  0  0  0  0  0  0  0
  138.6180   73.5900  222.9600 H   0  0  0  0  0  0  0  0  0  0  0  0
  140.4738   73.8168  220.5611 H   0  0  0  0  0  0  0  0  0  0  0  0
  138.7296   74.3476  220.6302 H   0  0  0  0  0  0  0  0  0  0  0  0
  139.0595   78.3672  220.3234 H   0  0  0  0  0  0  0  0  0  0  0  0
  138.5798   76.8542  219.5368 H   0  0  0  0  0  0  0  0  0  0  0  0
  136.8407   78.7528  220.7734 H   0  0  0  0  0  0  0  0  0  0  0  0
  136.3622   77.1435  220.2561 H   0  0  0  0  0  0  0  0  0  0  0  0
  136.4536   77.9845  222.9444 H   0  0  0  0  0  0  0  0  0  0  0  0
  136.5372   76.2897  222.4928 H   0  0  0  0  0  0  0  0  0  0  0  0
  138.6763   76.6961  223.7069 H   0  0  0  0  0  0  0  0  0  0  0  0
  137.1625   79.5410  223.6213 H   0  0  0  0  0  0  0  0  0  0  0  0
  138.1749   81.7569  224.0484 H   0  0  0  0  0  0  0  0  0  0  0  0
  140.6244   82.1048  223.7280 H   0  0  0  0  0  0  0  0  0  0  0  0
  140.9909   77.9859  222.5561 H   0  0  0  0  0  0  0  0  0  0  0  0
  139.1600   70.0346  222.5763 H   0  0  0  0  0  0  0  0  0  0  0  0
  138.8912   68.5287  224.5350 H   0  0  0  0  0  0  0  0  0  0  0  0
  139.2595   68.0471  226.8883 H   0  0  0  0  0  0  0  0  0  0  0  0
  140.1819   68.7157  229.0839 H   0  0  0  0  0  0  0  0  0  0  0  0
  141.3805   70.9012  229.3296 H   0  0  0  0  0  0  0  0  0  0  0  0
  141.6340   72.3891  227.3418 H   0  0  0  0  0  0  0  0  0  0  0  0
  1  2  2  0
  2  3  1  0
  3  4  1  0
  4  5  1  0
  5  6  2  0
  5  7  1  0
  7  8  1  0
  8  9  1  0
  9 10  1  0
 10 11  1  0
 11 12  1  0
 12 13  2  0
 13 14  1  0
 14 15  2  0
 15 16  1  0
 16 17  1  0
 17 18  1  0
 17 19  1  0
 17 20  1  0
 16 21  2  0
  2 22  1  0
 22 23  2  0
 23 24  1  0
 24 25  2  0
 25 26  1  0
 26 27  2  0
 27 28  1  0
 28 29  2  0
 29 30  1  0
 30 31  2  0
 11  7  1  0
 21 12  1  0
 31 22  1  0
 30 25  1  0
  3 32  1  0
  4 33  1  0
  4 34  1  0
  8 35  1  0
  8 36  1  0
  9 37  1  0
  9 38  1  0
 10 39  1  0
 10 40  1  0
 11 41  1  1
 13 42  1  0
 14 43  1  0
 15 44  1  0
 21 45  1  0
 23 46  1  0
 24 47  1  0
 26 48  1  0
 27 49  1  0
 28 50  1  0
 29 51  1  0
M  END
>  <smiles>  (40) 
O=C(NCC(=O)N1CCCC1c1cccc(C(F)(F)F)c1)c1ccc2ccccc2n1

>  <score_type>  (40) 
oracle

>  <origin>  (40) 
autodockgpu

>  <m_score__min__energy>  (40) 
-9.5800000000000001

>  <m_primary>  (40) 
energy

>  <rmsd>  (40) 
2.874816552743602

>  <m_score__min__rmsd>  (40) 
2.874816552743602

>  <meeko>  (40) 
{"free_energy": -8.47, "intermolecular_energy": -10.26, "internal_energy": -1.37, "cluster_size": 18, "cluster_id": 2, "rank_in_cluster": 8}

>  <energy>  (40) 
-8.32

>  <cluster_rmsd>  (40) 
1.58

>  <cluster>  (40) 
2

$$$$

     RDKit          3D

 51 54  0  0  0  0  0  0  0  0999 V2000
  137.4270   75.9540  222.4090 O   0  0  0  0  0  0  0  0  0  0  0  0
  138.6860   76.1570  222.4640 C   0  0  0  0  0  0  0  0  0  0  0  0
  139.5560   75.0550  222.2740 N   0  0  0  0  0  0  0  0  0  0  0  0
  138.9550   73.7640  222.0280 C   0  0  0  0  0  0  0  0  0  0  0  0
  139.8010   72.6460  222.4460 C   0  0  0  0  0  0  0  0  0  0  0  0
  141.0530   72.7150  222.4860 O   0  0  0  0  0  0  0  0  0  0  0  0
  139.2100   71.4130  222.8290 N   0  0  0  0  0  0  0  0  0  0  0  0
  137.7820   71.1040  222.9710 C   0  0  0  0  0  0  0  0  0  0  0  0
  137.6170   69.6660  222.5180 C   0  0  0  0  0  0  0  0  0  0  0  0
  139.0520   69.1620  222.3650 C   0  0  0  0  0  0  0  0  0  0  0  0
  139.8690   70.1500  223.1730 C   0  0  2  0  0  0  0  0  0  0  0  0
  139.7970   69.8730  224.6030 C   0  0  0  0  0  0  0  0  0  0  0  0
  139.2230   68.7860  225.2020 C   0  0  0  0  0  0  0  0  0  0  0  0
  139.2000   68.6090  226.5900 C   0  0  0  0  0  0  0  0  0  0  0  0
  139.7700   69.5500  227.4210 C   0  0  0  0  0  0  0  0  0  0  0  0
  140.3520   70.6490  226.8380 C   0  0  0  0  0  0  0  0  0  0  0  0
  140.9630   71.6570  227.7380 C   0  0  0  0  0  0  0  0  0  0  0  0
  141.6990   72.5100  226.9060 F   0  0  0  0  0  0  0  0  0  0  0  0
  139.9440   72.4310  228.2480 F   0  0  0  0  0  0  0  0  0  0  0  0
  141.8040   71.1350  228.6750 F   0  0  0  0  0  0  0  0  0  0  0  0
  140.3690   70.8140  225.4650 C   0  0  0  0  0  0  0  0  0  0  0  0
  139.2170   77.4980  222.7200 C   0  0  0  0  0  0  0  0  0  0  0  0
  138.3230   78.5400  222.9020 C   0  0  0  0  0  0  0  0  0  0  0  0
  138.8330   79.7950  223.1400 C   0  0  0  0  0  0  0  0  0  0  0  0
  140.1950   80.0080  223.1970 C   0  0  0  0  0  0  0  0  0  0  0  0
  140.7200   81.2770  223.4390 C   0  0  0  0  0  0  0  0  0  0  0  0
  142.0840   81.4710  223.4920 C   0  0  0  0  0  0  0  0  0  0  0  0
  142.9550   80.3920  223.3030 C   0  0  0  0  0  0  0  0  0  0  0  0
  142.4250   79.1270  223.0620 C   0  0  0  0  0  0  0  0  0  0  0  0
  141.0670   78.9410  223.0100 C   0  0  0  0  0  0  0  0  0  0  0  0
  140.5650   77.7060  222.7750 N   0  0  0  0  0  0  0  0  0  0  0  0
  140.6080   75.1700  222.3110 H   0  0  0  0  0  0  0  0  0  0  0  0
  138.0053   73.7094  222.5803 H   0  0  0  0  0  0  0  0  0  0  0  0
  138.8068   73.6738  220.9418 H   0  0  0  0  0  0  0  0  0  0  0  0
  137.4703   71.2121  224.0204 H   0  0  0  0  0  0  0  0  0  0  0  0
  137.1610   71.7878  222.3736 H   0  0  0  0  0  0  0  0  0  0  0  0
  137.0739   69.0778  223.2724 H   0  0  0  0  0  0  0  0  0  0  0  0
  137.0351   69.5780  221.5887 H   0  0  0  0  0  0  0  0  0  0  0  0
  139.1554   68.1443  222.7696 H   0  0  0  0  0  0  0  0  0  0  0  0
  139.3728   69.1027  221.3145 H   0  0  0  0  0  0  0  0  0  0  0  0
  140.9464   70.1294  222.9523 H   0  0  0  0  0  0  0  0  0  0  0  0
  138.7595   68.0178  224.5656 H   0  0  0  0  0  0  0  0  0  0  0  0
  138.7249   67.7149  227.0200 H   0  0  0  0  0  0  0  0  0  0  0  0
  139.7590   69.4248  228.5138 H   0  0  0  0  0  0  0  0  0  0  0  0
  140.8453   71.7096  225.0395 H   0  0  0  0  0  0  0  0  0  0  0  0
  137.2373   78.3690  222.8575 H   0  0  0  0  0  0  0  0  0  0  0  0
  138.1453   80.6408  223.2870 H   0  0  0  0  0  0  0  0  0  0  0  0
  140.0410   82.1294  223.5887 H   0  0  0  0  0  0  0  0  0  0  0  0
  142.4885   82.4759  223.6832 H   0  0  0  0  0  0  0  0  0  0  0  0
  144.0441   80.5412  223.3443 H   0  0  0  0  0  0  0  0  0  0  0  0
  143.0998   78.2713  222.9123 H   0  0  0  0  0  0  0  0  0  0  0  0
  1  2  2  0
  2  3  1  0
  3  4  1  0
  4  5  1  0
  5  6  2  0
  5  7  1  0
  7  8  1  0
  8  9  1  0
  9 10  1  0
 10 11  1  0
 11 12  1  0
 12 13  2  0
 13 14  1  0
 14 15  2  0
 15 16  1  0
 16 17  1  0
 17 18  1  0
 17 19  1  0
 17 20  1  0
 16 21  2  0
  2 22  1  0
 22 23  2  0
 23 24  1  0
 24 25  2  0
 25 26  1  0
 26 27  2  0
 27 28  1  0
 28 29  2  0
 29 30  1  0
 30 31  2  0
 11  7  1  0
 21 12  1  0
 31 22  1  0
 30 25  1  0
  3 32  1  0
  4 33  1  0
  4 34  1  0
  8 35  1  0
  8 36  1  0
  9 37  1  0
  9 38  1  0
 10 39  1  0
 10 40  1  0
 11 41  1  6
 13 42  1  0
 14 43  1  0
 15 44  1  0
 21 45  1  0
 23 46  1  0
 24 47  1  0
 26 48  1  0
 27 49  1  0
 28 50  1  0
 29 51  1  0
M  END
>  <smiles>  (41) 
O=C(NCC(=O)N1CCCC1c1cccc(C(F)(F)F)c1)c1ccc2ccccc2n1

>  <score_type>  (41) 
oracle

>  <origin>  (41) 
autodockgpu

>  <m_score__min__energy>  (41) 
-9.5800000000000001

>  <m_primary>  (41) 
energy

>  <rmsd>  (41) 
8.458022394948172

>  <m_score__min__rmsd>  (41) 
8.458022394948172

>  <meeko>  (41) 
{"free_energy": -8.27, "intermolecular_energy": -10.06, "internal_energy": -1.76, "cluster_size": 26, "cluster_id": 1, "rank_in_cluster": 26}

>  <energy>  (41) 
-8.12

>  <cluster_rmsd>  (41) 
1.36

>  <cluster>  (41) 
2

$$$$

     RDKit          3D

 51 54  0  0  0  0  0  0  0  0999 V2000
  140.9850   74.4840  221.3300 O   0  0  0  0  0  0  0  0  0  0  0  0
  139.9860   74.9560  221.9690 C   0  0  0  0  0  0  0  0  0  0  0  0
  138.9250   74.0800  222.3050 N   0  0  0  0  0  0  0  0  0  0  0  0
  139.0450   72.6980  221.9000 C   0  0  0  0  0  0  0  0  0  0  0  0
  139.7410   71.8680  222.8830 C   0  0  0  0  0  0  0  0  0  0  0  0
  140.9540   72.0190  223.1670 O   0  0  0  0  0  0  0  0  0  0  0  0
  139.0430   70.8360  223.5640 N   0  0  0  0  0  0  0  0  0  0  0  0
  137.6730   70.8720  224.0900 C   0  0  0  0  0  0  0  0  0  0  0  0
  137.1110   69.4770  223.8920 C   0  0  0  0  0  0  0  0  0  0  0  0
  138.3230   68.6500  223.4650 C   0  0  0  0  0  0  0  0  0  0  0  0
  139.5060   69.4890  223.9070 C   0  0  2  0  0  0  0  0  0  0  0  0
  139.7660   69.3530  225.3360 C   0  0  0  0  0  0  0  0  0  0  0  0
  139.6760   68.2100  226.0820 C   0  0  0  0  0  0  0  0  0  0  0  0
  139.9420   68.1790  227.4550 C   0  0  0  0  0  0  0  0  0  0  0  0
  140.3130   69.3290  228.1180 C   0  0  0  0  0  0  0  0  0  0  0  0
  140.4090   70.4870  227.3860 C   0  0  0  0  0  0  0  0  0  0  0  0
  140.8090   71.7200  228.1060 C   0  0  0  0  0  0  0  0  0  0  0  0
  141.1610   72.6410  227.1110 F   0  0  0  0  0  0  0  0  0  0  0  0
  139.6800   72.2380  228.7020 F   0  0  0  0  0  0  0  0  0  0  0  0
  141.8710   71.5600  228.9440 F   0  0  0  0  0  0  0  0  0  0  0  0
  140.1440   70.5060  226.0280 C   0  0  0  0  0  0  0  0  0  0  0  0
  139.9390   76.3720  222.3430 C   0  0  0  0  0  0  0  0  0  0  0  0
  138.7040   76.9930  222.4280 C   0  0  0  0  0  0  0  0  0  0  0  0
  138.6720   78.3230  222.7790 C   0  0  0  0  0  0  0  0  0  0  0  0
  139.8370   79.0150  223.0390 C   0  0  0  0  0  0  0  0  0  0  0  0
  139.8130   80.3630  223.3970 C   0  0  0  0  0  0  0  0  0  0  0  0
  140.9880   81.0390  223.6530 C   0  0  0  0  0  0  0  0  0  0  0  0
  142.2160   80.3760  223.5570 C   0  0  0  0  0  0  0  0  0  0  0  0
  142.2330   79.0300  223.2000 C   0  0  0  0  0  0  0  0  0  0  0  0
  141.0620   78.3630  222.9460 C   0  0  0  0  0  0  0  0  0  0  0  0
  141.0930   77.0550  222.6000 N   0  0  0  0  0  0  0  0  0  0  0  0
  138.0730   74.4220  222.8340 H   0  0  0  0  0  0  0  0  0  0  0  0
  138.0351   72.2889  221.7493 H   0  0  0  0  0  0  0  0  0  0  0  0
  139.6407   72.6788  220.9755 H   0  0  0  0  0  0  0  0  0  0  0  0
  137.6809   71.1325  225.1587 H   0  0  0  0  0  0  0  0  0  0  0  0
  137.0635   71.6284  223.5738 H   0  0  0  0  0  0  0  0  0  0  0  0
  136.6839   69.0904  224.8291 H   0  0  0  0  0  0  0  0  0  0  0  0
  136.2964   69.4486  223.1534 H   0  0  0  0  0  0  0  0  0  0  0  0
  138.3267   67.6715  223.9676 H   0  0  0  0  0  0  0  0  0  0  0  0
  138.3330   68.4348  222.3863 H   0  0  0  0  0  0  0  0  0  0  0  0
  140.4588   69.2058  223.4359 H   0  0  0  0  0  0  0  0  0  0  0  0
  139.3820   67.2758  225.5811 H   0  0  0  0  0  0  0  0  0  0  0  0
  139.8547   67.2322  228.0082 H   0  0  0  0  0  0  0  0  0  0  0  0
  140.5251   69.3196  229.1973 H   0  0  0  0  0  0  0  0  0  0  0  0
  140.2334   71.4547  225.4786 H   0  0  0  0  0  0  0  0  0  0  0  0
  137.7763   76.4394  222.2210 H   0  0  0  0  0  0  0  0  0  0  0  0
  137.7047   78.8415  222.8533 H   0  0  0  0  0  0  0  0  0  0  0  0
  138.8509   80.8904  223.4757 H   0  0  0  0  0  0  0  0  0  0  0  0
  140.9592   82.1023  223.9334 H   0  0  0  0  0  0  0  0  0  0  0  0
  143.1555   80.9106  223.7608 H   0  0  0  0  0  0  0  0  0  0  0  0
  143.1926   78.4980  223.1212 H   0  0  0  0  0  0  0  0  0  0  0  0
  1  2  2  0
  2  3  1  0
  3  4  1  0
  4  5  1  0
  5  6  2  0
  5  7  1  0
  7  8  1  0
  8  9  1  0
  9 10  1  0
 10 11  1  0
 11 12  1  0
 12 13  2  0
 13 14  1  0
 14 15  2  0
 15 16  1  0
 16 17  1  0
 17 18  1  0
 17 19  1  0
 17 20  1  0
 16 21  2  0
  2 22  1  0
 22 23  2  0
 23 24  1  0
 24 25  2  0
 25 26  1  0
 26 27  2  0
 27 28  1  0
 28 29  2  0
 29 30  1  0
 30 31  2  0
 11  7  1  0
 21 12  1  0
 31 22  1  0
 30 25  1  0
  3 32  1  0
  4 33  1  0
  4 34  1  0
  8 35  1  0
  8 36  1  0
  9 37  1  0
  9 38  1  0
 10 39  1  0
 10 40  1  0
 11 41  1  6
 13 42  1  0
 14 43  1  0
 15 44  1  0
 21 45  1  0
 23 46  1  0
 24 47  1  0
 26 48  1  0
 27 49  1  0
 28 50  1  0
 29 51  1  0
M  END
>  <smiles>  (42) 
O=C(NCC(=O)N1CCCC1c1cccc(C(F)(F)F)c1)c1ccc2ccccc2n1

>  <score_type>  (42) 
oracle

>  <origin>  (42) 
autodockgpu

>  <m_score__min__energy>  (42) 
-9.5800000000000001

>  <m_primary>  (42) 
energy

>  <rmsd>  (42) 
8.339824608523625

>  <m_score__min__rmsd>  (42) 
8.339824608523625

>  <meeko>  (42) 
{"free_energy": -9.57, "intermolecular_energy": -11.36, "internal_energy": -1.29, "cluster_size": 26, "cluster_id": 1, "rank_in_cluster": 2}

>  <energy>  (42) 
-8.1

>  <cluster_rmsd>  (42) 
0.9

>  <cluster>  (42) 
2

$$$$

     RDKit          3D

 51 54  0  0  0  0  0  0  0  0999 V2000
  141.2830   71.8730  221.5490 O   0  0  0  0  0  0  0  0  0  0  0  0
  140.4360   72.2430  222.4280 C   0  0  0  0  0  0  0  0  0  0  0  0
  139.7050   73.4360  222.2030 N   0  0  0  0  0  0  0  0  0  0  0  0
  139.9690   74.1600  220.9800 C   0  0  0  0  0  0  0  0  0  0  0  0
  140.2370   75.5820  221.2000 C   0  0  0  0  0  0  0  0  0  0  0  0
  141.3880   76.0770  221.1340 O   0  0  0  0  0  0  0  0  0  0  0  0
  139.1700   76.4670  221.5010 N   0  0  0  0  0  0  0  0  0  0  0  0
  138.2600   77.1340  220.5620 C   0  0  0  0  0  0  0  0  0  0  0  0
  136.9100   77.1870  221.2520 C   0  0  0  0  0  0  0  0  0  0  0  0
  137.2110   76.7420  222.6830 C   0  0  0  0  0  0  0  0  0  0  0  0
  138.7090   76.9340  222.8120 C   0  0  2  0  0  0  0  0  0  0  0  0
  139.0610   78.3300  223.0450 C   0  0  0  0  0  0  0  0  0  0  0  0
  138.2060   79.3520  223.3540 C   0  0  0  0  0  0  0  0  0  0  0  0
  138.6390   80.6670  223.5560 C   0  0  0  0  0  0  0  0  0  0  0  0
  139.9760   80.9840  223.4480 C   0  0  0  0  0  0  0  0  0  0  0  0
  140.8500   79.9700  223.1380 C   0  0  0  0  0  0  0  0  0  0  0  0
  142.2870   80.3190  223.0230 C   0  0  0  0  0  0  0  0  0  0  0  0
  142.6170   80.9600  224.2240 F   0  0  0  0  0  0  0  0  0  0  0  0
  143.0020   79.1420  223.0270 F   0  0  0  0  0  0  0  0  0  0  0  0
  142.5790   81.1590  221.9900 F   0  0  0  0  0  0  0  0  0  0  0  0
  140.4110   78.6740  222.9400 C   0  0  0  0  0  0  0  0  0  0  0  0
  140.2260   71.4520  223.6440 C   0  0  0  0  0  0  0  0  0  0  0  0
  139.5300   70.2600  223.5450 C   0  0  0  0  0  0  0  0  0  0  0  0
  139.3380   69.5250  224.6930 C   0  0  0  0  0  0  0  0  0  0  0  0
  139.8270   69.9660  225.9050 C   0  0  0  0  0  0  0  0  0  0  0  0
  139.6380   69.2280  227.0740 C   0  0  0  0  0  0  0  0  0  0  0  0
  140.1330   69.6850  228.2770 C   0  0  0  0  0  0  0  0  0  0  0  0
  140.8320   70.8950  228.3350 C   0  0  0  0  0  0  0  0  0  0  0  0
  141.0180   71.6280  227.1650 C   0  0  0  0  0  0  0  0  0  0  0  0
  140.5220   71.1690  225.9720 C   0  0  0  0  0  0  0  0  0  0  0  0
  140.7110   71.8910  224.8420 N   0  0  0  0  0  0  0  0  0  0  0  0
  138.9910   73.7860  222.9020 H   0  0  0  0  0  0  0  0  0  0  0  0
  140.8450   73.7106  220.4895 H   0  0  0  0  0  0  0  0  0  0  0  0
  139.0658   74.0896  220.3561 H   0  0  0  0  0  0  0  0  0  0  0  0
  138.6166   78.1510  220.3418 H   0  0  0  0  0  0  0  0  0  0  0  0
  138.2020   76.5938  219.6055 H   0  0  0  0  0  0  0  0  0  0  0  0
  136.5028   78.2087  221.2373 H   0  0  0  0  0  0  0  0  0  0  0  0
  136.1570   76.5536  220.7602 H   0  0  0  0  0  0  0  0  0  0  0  0
  136.6715   77.3671  223.4098 H   0  0  0  0  0  0  0  0  0  0  0  0
  136.8953   75.7074  222.8828 H   0  0  0  0  0  0  0  0  0  0  0  0
  139.1583   76.4020  223.6635 H   0  0  0  0  0  0  0  0  0  0  0  0
  137.1326   79.1306  223.4477 H   0  0  0  0  0  0  0  0  0  0  0  0
  137.9087   81.4519  223.8023 H   0  0  0  0  0  0  0  0  0  0  0  0
  140.3311   82.0133  223.6046 H   0  0  0  0  0  0  0  0  0  0  0  0
  141.1446   77.8925  222.6931 H   0  0  0  0  0  0  0  0  0  0  0  0
  139.1415   69.9100  222.5772 H   0  0  0  0  0  0  0  0  0  0  0  0
  138.7876   68.5739  224.6431 H   0  0  0  0  0  0  0  0  0  0  0  0
  139.0902   68.2749  227.0356 H   0  0  0  0  0  0  0  0  0  0  0  0
  139.9778   69.0965  229.1933 H   0  0  0  0  0  0  0  0  0  0  0  0
  141.2298   71.2632  229.2922 H   0  0  0  0  0  0  0  0  0  0  0  0
  141.5663   72.5810  227.1985 H   0  0  0  0  0  0  0  0  0  0  0  0
  1  2  2  0
  2  3  1  0
  3  4  1  0
  4  5  1  0
  5  6  2  0
  5  7  1  0
  7  8  1  0
  8  9  1  0
  9 10  1  0
 10 11  1  0
 11 12  1  0
 12 13  2  0
 13 14  1  0
 14 15  2  0
 15 16  1  0
 16 17  1  0
 17 18  1  0
 17 19  1  0
 17 20  1  0
 16 21  2  0
  2 22  1  0
 22 23  2  0
 23 24  1  0
 24 25  2  0
 25 26  1  0
 26 27  2  0
 27 28  1  0
 28 29  2  0
 29 30  1  0
 30 31  2  0
 11  7  1  0
 21 12  1  0
 31 22  1  0
 30 25  1  0
  3 32  1  0
  4 33  1  0
  4 34  1  0
  8 35  1  0
  8 36  1  0
  9 37  1  0
  9 38  1  0
 10 39  1  0
 10 40  1  0
 11 41  1  1
 13 42  1  0
 14 43  1  0
 15 44  1  0
 21 45  1  0
 23 46  1  0
 24 47  1  0
 26 48  1  0
 27 49  1  0
 28 50  1  0
 29 51  1  0
M  END
>  <smiles>  (43) 
O=C(NCC(=O)N1CCCC1c1cccc(C(F)(F)F)c1)c1ccc2ccccc2n1

>  <score_type>  (43) 
oracle

>  <origin>  (43) 
autodockgpu

>  <m_score__min__energy>  (43) 
-9.5800000000000001

>  <m_primary>  (43) 
energy

>  <rmsd>  (43) 
2.912086732558952

>  <m_score__min__rmsd>  (43) 
2.912086732558952

>  <meeko>  (43) 
{"free_energy": -8.38, "intermolecular_energy": -10.17, "internal_energy": -1.4, "cluster_size": 18, "cluster_id": 2, "rank_in_cluster": 10}

>  <energy>  (43) 
-7.83

>  <cluster_rmsd>  (43) 
1.86

>  <cluster>  (43) 
2

$$$$

     RDKit          3D

 51 54  0  0  0  0  0  0  0  0999 V2000
  137.5640   75.8250  222.5050 O   0  0  0  0  0  0  0  0  0  0  0  0
  138.8190   76.0500  222.4640 C   0  0  0  0  0  0  0  0  0  0  0  0
  139.6900   74.9710  222.1740 N   0  0  0  0  0  0  0  0  0  0  0  0
  139.0930   73.6750  221.9420 C   0  0  0  0  0  0  0  0  0  0  0  0
  139.8110   72.5840  222.6000 C   0  0  0  0  0  0  0  0  0  0  0  0
  141.0560   72.5840  222.7580 O   0  0  0  0  0  0  0  0  0  0  0  0
  139.0980   71.4600  223.0950 N   0  0  0  0  0  0  0  0  0  0  0  0
  137.6920   71.3990  223.5120 C   0  0  0  0  0  0  0  0  0  0  0  0
  137.1940   70.0250  223.1030 C   0  0  0  0  0  0  0  0  0  0  0  0
  138.4620   69.2860  222.6770 C   0  0  0  0  0  0  0  0  0  0  0  0
  139.5780   70.0930  223.3090 C   0  0  2  0  0  0  0  0  0  0  0  0
  139.7340   69.7880  224.7270 C   0  0  0  0  0  0  0  0  0  0  0  0
  139.3970   68.6230  225.3590 C   0  0  0  0  0  0  0  0  0  0  0  0
  139.5810   68.4260  226.7330 C   0  0  0  0  0  0  0  0  0  0  0  0
  140.1200   69.4250  227.5130 C   0  0  0  0  0  0  0  0  0  0  0  0
  140.4650   70.6030  226.8960 C   0  0  0  0  0  0  0  0  0  0  0  0
  141.0450   71.6740  227.7430 C   0  0  0  0  0  0  0  0  0  0  0  0
  139.9620   72.2430  228.4250 F   0  0  0  0  0  0  0  0  0  0  0  0
  141.8120   71.0680  228.7130 F   0  0  0  0  0  0  0  0  0  0  0  0
  141.6820   72.6560  227.0460 F   0  0  0  0  0  0  0  0  0  0  0  0
  140.2790   70.7880  225.5380 C   0  0  0  0  0  0  0  0  0  0  0  0
  139.3460   77.3950  222.7130 C   0  0  0  0  0  0  0  0  0  0  0  0
  138.4490   78.4370  222.8750 C   0  0  0  0  0  0  0  0  0  0  0  0
  138.9550   79.6950  223.1080 C   0  0  0  0  0  0  0  0  0  0  0  0
  140.3160   79.9100  223.1770 C   0  0  0  0  0  0  0  0  0  0  0  0
  140.8380   81.1820  223.4120 C   0  0  0  0  0  0  0  0  0  0  0  0
  142.2010   81.3780  223.4770 C   0  0  0  0  0  0  0  0  0  0  0  0
  143.0750   80.2990  223.3080 C   0  0  0  0  0  0  0  0  0  0  0  0
  142.5490   79.0300  223.0730 C   0  0  0  0  0  0  0  0  0  0  0  0
  141.1920   78.8420  223.0090 C   0  0  0  0  0  0  0  0  0  0  0  0
  140.6940   77.6040  222.7800 N   0  0  0  0  0  0  0  0  0  0  0  0
  140.7390   75.1050  222.1300 H   0  0  0  0  0  0  0  0  0  0  0  0
  138.0605   73.6928  222.3210 H   0  0  0  0  0  0  0  0  0  0  0  0
  139.1324   73.4860  220.8591 H   0  0  0  0  0  0  0  0  0  0  0  0
  137.6105   71.5264  224.6015 H   0  0  0  0  0  0  0  0  0  0  0  0
  137.0981   72.1985  223.0450 H   0  0  0  0  0  0  0  0  0  0  0  0
  136.7102   69.5161  223.9497 H   0  0  0  0  0  0  0  0  0  0  0  0
  136.4394   70.0679  222.3038 H   0  0  0  0  0  0  0  0  0  0  0  0
  138.4607   68.2537  223.0570 H   0  0  0  0  0  0  0  0  0  0  0  0
  138.5610   69.2045  221.5845 H   0  0  0  0  0  0  0  0  0  0  0  0
  140.5729   69.8937  222.8841 H   0  0  0  0  0  0  0  0  0  0  0  0
  138.9633   67.8065  224.7630 H   0  0  0  0  0  0  0  0  0  0  0  0
  139.2936   67.4685  227.1918 H   0  0  0  0  0  0  0  0  0  0  0  0
  140.2692   69.2844  228.5937 H   0  0  0  0  0  0  0  0  0  0  0  0
  140.5676   71.7475  225.0839 H   0  0  0  0  0  0  0  0  0  0  0  0
  137.3641   78.2643  222.8191 H   0  0  0  0  0  0  0  0  0  0  0  0
  138.2648   80.5411  223.2411 H   0  0  0  0  0  0  0  0  0  0  0  0
  140.1569   82.0352  223.5465 H   0  0  0  0  0  0  0  0  0  0  0  0
  142.6023   82.3853  223.6622 H   0  0  0  0  0  0  0  0  0  0  0  0
  144.1633   80.4501  223.3599 H   0  0  0  0  0  0  0  0  0  0  0  0
  143.2264   78.1739  222.9380 H   0  0  0  0  0  0  0  0  0  0  0  0
  1  2  2  0
  2  3  1  0
  3  4  1  0
  4  5  1  0
  5  6  2  0
  5  7  1  0
  7  8  1  0
  8  9  1  0
  9 10  1  0
 10 11  1  0
 11 12  1  0
 12 13  2  0
 13 14  1  0
 14 15  2  0
 15 16  1  0
 16 17  1  0
 17 18  1  0
 17 19  1  0
 17 20  1  0
 16 21  2  0
  2 22  1  0
 22 23  2  0
 23 24  1  0
 24 25  2  0
 25 26  1  0
 26 27  2  0
 27 28  1  0
 28 29  2  0
 29 30  1  0
 30 31  2  0
 11  7  1  0
 21 12  1  0
 31 22  1  0
 30 25  1  0
  3 32  1  0
  4 33  1  0
  4 34  1  0
  8 35  1  0
  8 36  1  0
  9 37  1  0
  9 38  1  0
 10 39  1  0
 10 40  1  0
 11 41  1  6
 13 42  1  0
 14 43  1  0
 15 44  1  0
 21 45  1  0
 23 46  1  0
 24 47  1  0
 26 48  1  0
 27 49  1  0
 28 50  1  0
 29 51  1  0
M  END
>  <smiles>  (44) 
O=C(NCC(=O)N1CCCC1c1cccc(C(F)(F)F)c1)c1ccc2ccccc2n1

>  <score_type>  (44) 
oracle

>  <origin>  (44) 
autodockgpu

>  <m_score__min__energy>  (44) 
-9.5800000000000001

>  <m_primary>  (44) 
energy

>  <rmsd>  (44) 
8.48024468926231

>  <m_score__min__rmsd>  (44) 
8.48024468926231

>  <meeko>  (44) 
{"free_energy": -8.76, "intermolecular_energy": -10.55, "internal_energy": -1.72, "cluster_size": 26, "cluster_id": 1, "rank_in_cluster": 14}

>  <energy>  (44) 
-7.78

>  <cluster_rmsd>  (44) 
1.52

>  <cluster>  (44) 
2

$$$$

     RDKit          3D

 51 54  0  0  0  0  0  0  0  0999 V2000
  137.5570   75.8380  222.3900 O   0  0  0  0  0  0  0  0  0  0  0  0
  138.8150   76.0510  222.4300 C   0  0  0  0  0  0  0  0  0  0  0  0
  139.6910   74.9590  222.2210 N   0  0  0  0  0  0  0  0  0  0  0  0
  139.0990   73.6640  221.9720 C   0  0  0  0  0  0  0  0  0  0  0  0
  139.8140   72.5680  222.6260 C   0  0  0  0  0  0  0  0  0  0  0  0
  141.0590   72.5610  222.7770 O   0  0  0  0  0  0  0  0  0  0  0  0
  139.0970   71.4480  223.1220 N   0  0  0  0  0  0  0  0  0  0  0  0
  137.6910   71.3930  223.5410 C   0  0  0  0  0  0  0  0  0  0  0  0
  137.1870   70.0210  223.1350 C   0  0  0  0  0  0  0  0  0  0  0  0
  138.4510   69.2760  222.7090 C   0  0  0  0  0  0  0  0  0  0  0  0
  139.5720   70.0790  223.3380 C   0  0  2  0  0  0  0  0  0  0  0  0
  139.7280   69.7760  224.7560 C   0  0  0  0  0  0  0  0  0  0  0  0
  139.4840   68.5800  225.3730 C   0  0  0  0  0  0  0  0  0  0  0  0
  139.6590   68.3860  226.7480 C   0  0  0  0  0  0  0  0  0  0  0  0
  140.0950   69.4210  227.5460 C   0  0  0  0  0  0  0  0  0  0  0  0
  140.3460   70.6310  226.9450 C   0  0  0  0  0  0  0  0  0  0  0  0
  140.8150   71.7410  227.8110 C   0  0  0  0  0  0  0  0  0  0  0  0
  141.7990   71.1830  228.6370 F   0  0  0  0  0  0  0  0  0  0  0  0
  141.4770   72.6430  227.0080 F   0  0  0  0  0  0  0  0  0  0  0  0
  139.8450   72.2840  228.5990 F   0  0  0  0  0  0  0  0  0  0  0  0
  140.1690   70.8120  225.5850 C   0  0  0  0  0  0  0  0  0  0  0  0
  139.3370   77.3960  222.6900 C   0  0  0  0  0  0  0  0  0  0  0  0
  138.4370   78.4310  222.8730 C   0  0  0  0  0  0  0  0  0  0  0  0
  138.9390   79.6890  223.1150 C   0  0  0  0  0  0  0  0  0  0  0  0
  140.2990   79.9100  223.1730 C   0  0  0  0  0  0  0  0  0  0  0  0
  140.8170   81.1820  223.4190 C   0  0  0  0  0  0  0  0  0  0  0  0
  142.1800   81.3840  223.4720 C   0  0  0  0  0  0  0  0  0  0  0  0
  143.0570   80.3110  223.2820 C   0  0  0  0  0  0  0  0  0  0  0  0
  142.5350   79.0430  223.0380 C   0  0  0  0  0  0  0  0  0  0  0  0
  141.1780   78.8490  222.9840 C   0  0  0  0  0  0  0  0  0  0  0  0
  140.6840   77.6110  222.7460 N   0  0  0  0  0  0  0  0  0  0  0  0
  140.7430   75.0820  222.2450 H   0  0  0  0  0  0  0  0  0  0  0  0
  138.0633   73.6760  222.3424 H   0  0  0  0  0  0  0  0  0  0  0  0
  139.1480   73.4852  220.8877 H   0  0  0  0  0  0  0  0  0  0  0  0
  137.6115   71.5224  224.6305 H   0  0  0  0  0  0  0  0  0  0  0  0
  137.0996   72.1940  223.0734 H   0  0  0  0  0  0  0  0  0  0  0  0
  136.7020   69.5156  223.9831 H   0  0  0  0  0  0  0  0  0  0  0  0
  136.4318   70.0659  222.3365 H   0  0  0  0  0  0  0  0  0  0  0  0
  138.4456   68.2444  223.0909 H   0  0  0  0  0  0  0  0  0  0  0  0
  138.5482   69.1924  221.6165 H   0  0  0  0  0  0  0  0  0  0  0  0
  140.5655   69.8746  222.9124 H   0  0  0  0  0  0  0  0  0  0  0  0
  139.1352   67.7342  224.7623 H   0  0  0  0  0  0  0  0  0  0  0  0
  139.4475   67.4028  227.1935 H   0  0  0  0  0  0  0  0  0  0  0  0
  140.2374   69.2834  228.6280 H   0  0  0  0  0  0  0  0  0  0  0  0
  140.3809   71.7972  225.1440 H   0  0  0  0  0  0  0  0  0  0  0  0
  137.3524   78.2533  222.8264 H   0  0  0  0  0  0  0  0  0  0  0  0
  138.2460   80.5301  223.2643 H   0  0  0  0  0  0  0  0  0  0  0  0
  140.1331   82.0299  223.5718 H   0  0  0  0  0  0  0  0  0  0  0  0
  142.5785   82.3911  223.6641 H   0  0  0  0  0  0  0  0  0  0  0  0
  144.1451   80.4667  223.3247 H   0  0  0  0  0  0  0  0  0  0  0  0
  143.2152   78.1917  222.8876 H   0  0  0  0  0  0  0  0  0  0  0  0
  1  2  2  0
  2  3  1  0
  3  4  1  0
  4  5  1  0
  5  6  2  0
  5  7  1  0
  7  8  1  0
  8  9  1  0
  9 10  1  0
 10 11  1  0
 11 12  1  0
 12 13  2  0
 13 14  1  0
 14 15  2  0
 15 16  1  0
 16 17  1  0
 17 18  1  0
 17 19  1  0
 17 20  1  0
 16 21  2  0
  2 22  1  0
 22 23  2  0
 23 24  1  0
 24 25  2  0
 25 26  1  0
 26 27  2  0
 27 28  1  0
 28 29  2  0
 29 30  1  0
 30 31  2  0
 11  7  1  0
 21 12  1  0
 31 22  1  0
 30 25  1  0
  3 32  1  0
  4 33  1  0
  4 34  1  0
  8 35  1  0
  8 36  1  0
  9 37  1  0
  9 38  1  0
 10 39  1  0
 10 40  1  0
 11 41  1  6
 13 42  1  0
 14 43  1  0
 15 44  1  0
 21 45  1  0
 23 46  1  0
 24 47  1  0
 26 48  1  0
 27 49  1  0
 28 50  1  0
 29 51  1  0
M  END
>  <smiles>  (45) 
O=C(NCC(=O)N1CCCC1c1cccc(C(F)(F)F)c1)c1ccc2ccccc2n1

>  <score_type>  (45) 
oracle

>  <origin>  (45) 
autodockgpu

>  <m_score__min__energy>  (45) 
-9.5800000000000001

>  <m_primary>  (45) 
energy

>  <rmsd>  (45) 
8.490300060958468

>  <m_score__min__rmsd>  (45) 
8.490300060958468

>  <meeko>  (45) 
{"free_energy": -8.73, "intermolecular_energy": -10.52, "internal_energy": -1.72, "cluster_size": 26, "cluster_id": 1, "rank_in_cluster": 16}

>  <energy>  (45) 
-8.24

>  <cluster_rmsd>  (45) 
0.0

>  <cluster>  (45) 
3

$$$$

     RDKit          3D

 51 54  0  0  0  0  0  0  0  0999 V2000
  140.9090   74.5720  221.4430 O   0  0  0  0  0  0  0  0  0  0  0  0
  139.9000   75.1090  222.0120 C   0  0  0  0  0  0  0  0  0  0  0  0
  138.7670   74.3020  222.2800 N   0  0  0  0  0  0  0  0  0  0  0  0
  138.8290   72.9120  221.8880 C   0  0  0  0  0  0  0  0  0  0  0  0
  139.5820   72.0820  222.8290 C   0  0  0  0  0  0  0  0  0  0  0  0
  140.7730   72.3180  223.1450 O   0  0  0  0  0  0  0  0  0  0  0  0
  138.9670   70.9520  223.4290 N   0  0  0  0  0  0  0  0  0  0  0  0
  137.5860   70.8290  223.9130 C   0  0  0  0  0  0  0  0  0  0  0  0
  137.1650   69.4020  223.6200 C   0  0  0  0  0  0  0  0  0  0  0  0
  138.4620   68.7170  223.1880 C   0  0  0  0  0  0  0  0  0  0  0  0
  139.5460   69.6360  223.7130 C   0  0  2  0  0  0  0  0  0  0  0  0
  139.7790   69.4430  225.1400 C   0  0  0  0  0  0  0  0  0  0  0  0
  139.6530   68.2760  225.8420 C   0  0  0  0  0  0  0  0  0  0  0  0
  139.8950   68.1900  227.2180 C   0  0  0  0  0  0  0  0  0  0  0  0
  140.2800   69.3070  227.9280 C   0  0  0  0  0  0  0  0  0  0  0  0
  140.4130   70.4880  227.2400 C   0  0  0  0  0  0  0  0  0  0  0  0
  140.8270   71.6850  228.0110 C   0  0  0  0  0  0  0  0  0  0  0  0
  141.8620   71.2530  228.8500 F   0  0  0  0  0  0  0  0  0  0  0  0
  141.4130   72.5660  227.1290 F   0  0  0  0  0  0  0  0  0  0  0  0
  139.8410   72.2240  228.7820 F   0  0  0  0  0  0  0  0  0  0  0  0
  140.1710   70.5620  225.8800 C   0  0  0  0  0  0  0  0  0  0  0  0
  139.9150   76.5280  222.3770 C   0  0  0  0  0  0  0  0  0  0  0  0
  138.7080   77.1980  222.4760 C   0  0  0  0  0  0  0  0  0  0  0  0
  138.7340   78.5300  222.8180 C   0  0  0  0  0  0  0  0  0  0  0  0
  139.9290   79.1780  223.0550 C   0  0  0  0  0  0  0  0  0  0  0  0
  139.9640   80.5280  223.4030 C   0  0  0  0  0  0  0  0  0  0  0  0
  141.1690   81.1590  223.6350 C   0  0  0  0  0  0  0  0  0  0  0  0
  142.3680   80.4470  223.5240 C   0  0  0  0  0  0  0  0  0  0  0  0
  142.3260   79.0990  223.1770 C   0  0  0  0  0  0  0  0  0  0  0  0
  141.1250   78.4770  222.9460 C   0  0  0  0  0  0  0  0  0  0  0  0
  141.0990   77.1660  222.6100 N   0  0  0  0  0  0  0  0  0  0  0  0
  137.9050   74.6990  222.7490 H   0  0  0  0  0  0  0  0  0  0  0  0
  137.8029   72.5214  221.8206 H   0  0  0  0  0  0  0  0  0  0  0  0
  139.3517   72.8674  220.9212 H   0  0  0  0  0  0  0  0  0  0  0  0
  137.5411   71.0262  224.9942 H   0  0  0  0  0  0  0  0  0  0  0  0
  136.9209   71.5540  223.4210 H   0  0  0  0  0  0  0  0  0  0  0  0
  136.7507   68.9237  224.5197 H   0  0  0  0  0  0  0  0  0  0  0  0
  136.3776   69.3408  222.8543 H   0  0  0  0  0  0  0  0  0  0  0  0
  138.5452   67.7161  223.6366 H   0  0  0  0  0  0  0  0  0  0  0  0
  138.5219   68.5652  222.1002 H   0  0  0  0  0  0  0  0  0  0  0  0
  140.5338   69.4708  223.2581 H   0  0  0  0  0  0  0  0  0  0  0  0
  139.3487   67.3669  225.3027 H   0  0  0  0  0  0  0  0  0  0  0  0
  139.7774   67.2264  227.7352 H   0  0  0  0  0  0  0  0  0  0  0  0
  140.4742   69.2541  229.0094 H   0  0  0  0  0  0  0  0  0  0  0  0
  140.2903   71.5277  225.3671 H   0  0  0  0  0  0  0  0  0  0  0  0
  137.7560   76.6805  222.2868 H   0  0  0  0  0  0  0  0  0  0  0  0
  137.7890   79.0864  222.9038 H   0  0  0  0  0  0  0  0  0  0  0  0
  139.0248   81.0935  223.4931 H   0  0  0  0  0  0  0  0  0  0  0  0
  141.1868   82.2245  223.9079 H   0  0  0  0  0  0  0  0  0  0  0  0
  143.3312   80.9453  223.7084 H   0  0  0  0  0  0  0  0  0  0  0  0
  143.2624   78.5288  223.0875 H   0  0  0  0  0  0  0  0  0  0  0  0
  1  2  2  0
  2  3  1  0
  3  4  1  0
  4  5  1  0
  5  6  2  0
  5  7  1  0
  7  8  1  0
  8  9  1  0
  9 10  1  0
 10 11  1  0
 11 12  1  0
 12 13  2  0
 13 14  1  0
 14 15  2  0
 15 16  1  0
 16 17  1  0
 17 18  1  0
 17 19  1  0
 17 20  1  0
 16 21  2  0
  2 22  1  0
 22 23  2  0
 23 24  1  0
 24 25  2  0
 25 26  1  0
 26 27  2  0
 27 28  1  0
 28 29  2  0
 29 30  1  0
 30 31  2  0
 11  7  1  0
 21 12  1  0
 31 22  1  0
 30 25  1  0
  3 32  1  0
  4 33  1  0
  4 34  1  0
  8 35  1  0
  8 36  1  0
  9 37  1  0
  9 38  1  0
 10 39  1  0
 10 40  1  0
 11 41  1  6
 13 42  1  0
 14 43  1  0
 15 44  1  0
 21 45  1  0
 23 46  1  0
 24 47  1  0
 26 48  1  0
 27 49  1  0
 28 50  1  0
 29 51  1  0
M  END
>  <smiles>  (46) 
O=C(NCC(=O)N1CCCC1c1cccc(C(F)(F)F)c1)c1ccc2ccccc2n1

>  <score_type>  (46) 
oracle

>  <origin>  (46) 
autodockgpu

>  <m_score__min__energy>  (46) 
-9.5800000000000001

>  <m_primary>  (46) 
energy

>  <rmsd>  (46) 
8.344227105472187

>  <m_score__min__rmsd>  (46) 
8.344227105472187

>  <meeko>  (46) 
{"free_energy": -9.53, "intermolecular_energy": -11.32, "internal_energy": -1.3, "cluster_size": 26, "cluster_id": 1, "rank_in_cluster": 3}

>  <energy>  (46) 
-7.68

>  <cluster_rmsd>  (46) 
0.0

>  <cluster>  (46) 
4

$$$$

     RDKit          3D

 51 54  0  0  0  0  0  0  0  0999 V2000
  137.6010   75.8120  222.6970 O   0  0  0  0  0  0  0  0  0  0  0  0
  138.8320   76.0820  222.4980 C   0  0  0  0  0  0  0  0  0  0  0  0
  139.6900   75.0430  222.0630 N   0  0  0  0  0  0  0  0  0  0  0  0
  139.1090   73.7330  221.8700 C   0  0  0  0  0  0  0  0  0  0  0  0
  139.9890   72.6440  222.2950 C   0  0  0  0  0  0  0  0  0  0  0  0
  141.1790   72.5410  221.9120 O   0  0  0  0  0  0  0  0  0  0  0  0
  139.5060   71.6440  223.1780 N   0  0  0  0  0  0  0  0  0  0  0  0
  138.1480   71.4970  223.7150 C   0  0  0  0  0  0  0  0  0  0  0  0
  137.8930   70.0040  223.8060 C   0  0  0  0  0  0  0  0  0  0  0  0
  139.2600   69.3800  223.5260 C   0  0  0  0  0  0  0  0  0  0  0  0
  140.2320   70.5170  223.7710 C   0  0  2  0  0  0  0  0  0  0  0  0
  140.4830   70.7210  225.1930 C   0  0  0  0  0  0  0  0  0  0  0  0
  140.8740   71.8830  225.7990 C   0  0  0  0  0  0  0  0  0  0  0  0
  141.0970   71.9800  227.1780 C   0  0  0  0  0  0  0  0  0  0  0  0
  140.9250   70.8800  227.9900 C   0  0  0  0  0  0  0  0  0  0  0  0
  140.5310   69.7040  227.3980 C   0  0  0  0  0  0  0  0  0  0  0  0
  140.3480   68.5240  228.2790 C   0  0  0  0  0  0  0  0  0  0  0  0
  139.5670   68.9730  229.3520 F   0  0  0  0  0  0  0  0  0  0  0  0
  139.5590   67.6200  227.6030 F   0  0  0  0  0  0  0  0  0  0  0  0
  141.5090   68.0090  228.7740 F   0  0  0  0  0  0  0  0  0  0  0  0
  140.3140   69.6190  226.0350 C   0  0  0  0  0  0  0  0  0  0  0  0
  139.3440   77.4370  222.7190 C   0  0  0  0  0  0  0  0  0  0  0  0
  138.4370   78.4750  222.8450 C   0  0  0  0  0  0  0  0  0  0  0  0
  138.9290   79.7430  223.0500 C   0  0  0  0  0  0  0  0  0  0  0  0
  140.2870   79.9720  223.1280 C   0  0  0  0  0  0  0  0  0  0  0  0
  140.7950   81.2540  223.3370 C   0  0  0  0  0  0  0  0  0  0  0  0
  142.1560   81.4640  223.4120 C   0  0  0  0  0  0  0  0  0  0  0  0
  143.0410   80.3880  223.2790 C   0  0  0  0  0  0  0  0  0  0  0  0
  142.5280   79.1100  223.0720 C   0  0  0  0  0  0  0  0  0  0  0  0
  141.1740   78.9080  222.9970 C   0  0  0  0  0  0  0  0  0  0  0  0
  140.6890   77.6610  222.7950 N   0  0  0  0  0  0  0  0  0  0  0  0
  140.7200   75.2150  221.8850 H   0  0  0  0  0  0  0  0  0  0  0  0
  138.1761   73.6753  222.4501 H   0  0  0  0  0  0  0  0  0  0  0  0
  138.9330   73.6091  220.7913 H   0  0  0  0  0  0  0  0  0  0  0  0
  138.0792   71.9578  224.7114 H   0  0  0  0  0  0  0  0  0  0  0  0
  137.4053   71.9940  223.0736 H   0  0  0  0  0  0  0  0  0  0  0  0
  137.5350   69.7285  224.8090 H   0  0  0  0  0  0  0  0  0  0  0  0
  137.1187   69.6622  223.1034 H   0  0  0  0  0  0  0  0  0  0  0  0
  139.4562   68.5420  224.2110 H   0  0  0  0  0  0  0  0  0  0  0  0
  139.3384   68.9639  222.5107 H   0  0  0  0  0  0  0  0  0  0  0  0
  141.2333   70.3523  223.3464 H   0  0  0  0  0  0  0  0  0  0  0  0
  141.0193   72.7787  225.1772 H   0  0  0  0  0  0  0  0  0  0  0  0
  141.4111   72.9392  227.6153 H   0  0  0  0  0  0  0  0  0  0  0  0
  141.0971   70.9411  229.0747 H   0  0  0  0  0  0  0  0  0  0  0  0
  139.9998   68.6578  225.6020 H   0  0  0  0  0  0  0  0  0  0  0  0
  137.3542   78.2912  222.7830 H   0  0  0  0  0  0  0  0  0  0  0  0
  138.2299   80.5860  223.1532 H   0  0  0  0  0  0  0  0  0  0  0  0
  140.1049   82.1040  223.4428 H   0  0  0  0  0  0  0  0  0  0  0  0
  142.5466   82.4790  223.5766 H   0  0  0  0  0  0  0  0  0  0  0  0
  144.1275   80.5496  223.3372 H   0  0  0  0  0  0  0  0  0  0  0  0
  143.2140   78.2565  222.9679 H   0  0  0  0  0  0  0  0  0  0  0  0
  1  2  2  0
  2  3  1  0
  3  4  1  0
  4  5  1  0
  5  6  2  0
  5  7  1  0
  7  8  1  0
  8  9  1  0
  9 10  1  0
 10 11  1  0
 11 12  1  0
 12 13  2  0
 13 14  1  0
 14 15  2  0
 15 16  1  0
 16 17  1  0
 17 18  1  0
 17 19  1  0
 17 20  1  0
 16 21  2  0
  2 22  1  0
 22 23  2  0
 23 24  1  0
 24 25  2  0
 25 26  1  0
 26 27  2  0
 27 28  1  0
 28 29  2  0
 29 30  1  0
 30 31  2  0
 11  7  1  0
 21 12  1  0
 31 22  1  0
 30 25  1  0
  3 32  1  0
  4 33  1  0
  4 34  1  0
  8 35  1  0
  8 36  1  0
  9 37  1  0
  9 38  1  0
 10 39  1  0
 10 40  1  0
 11 41  1  6
 13 42  1  0
 14 43  1  0
 15 44  1  0
 21 45  1  0
 23 46  1  0
 24 47  1  0
 26 48  1  0
 27 49  1  0
 28 50  1  0
 29 51  1  0
M  END
>  <smiles>  (47) 
O=C(NCC(=O)N1CCCC1c1cccc(C(F)(F)F)c1)c1ccc2ccccc2n1

>  <score_type>  (47) 
oracle

>  <origin>  (47) 
autodockgpu

>  <m_score__min__energy>  (47) 
-9.5800000000000001

>  <m_primary>  (47) 
energy

>  <rmsd>  (47) 
8.525335409251905

>  <m_score__min__rmsd>  (47) 
8.525335409251905

>  <meeko>  (47) 
{"free_energy": -8.72, "intermolecular_energy": -10.51, "internal_energy": -1.67, "cluster_size": 26, "cluster_id": 1, "rank_in_cluster": 18}

>  <energy>  (47) 
-7.4

>  <cluster_rmsd>  (47) 
1.52

>  <cluster>  (47) 
4

$$$$

     RDKit          3D

 51 54  0  0  0  0  0  0  0  0999 V2000
  140.4970   71.8780  221.5080 O   0  0  0  0  0  0  0  0  0  0  0  0
  139.6830   72.0480  222.4770 C   0  0  0  0  0  0  0  0  0  0  0  0
  138.6410   72.9950  222.3250 N   0  0  0  0  0  0  0  0  0  0  0  0
  138.5660   73.7110  221.0720 C   0  0  0  0  0  0  0  0  0  0  0  0
  138.3010   75.1400  221.2400 C   0  0  0  0  0  0  0  0  0  0  0  0
  137.1520   75.6010  221.4430 O   0  0  0  0  0  0  0  0  0  0  0  0
  139.3690   76.0730  221.1760 N   0  0  0  0  0  0  0  0  0  0  0  0
  139.4210   77.3310  220.4220 C   0  0  0  0  0  0  0  0  0  0  0  0
  140.2140   78.3000  221.2780 C   0  0  0  0  0  0  0  0  0  0  0  0
  140.7790   77.4250  222.3970 C   0  0  0  0  0  0  0  0  0  0  0  0
  140.6730   76.0190  221.8420 C   0  0  2  0  0  0  0  0  0  0  0  0
  141.7490   75.7220  220.9030 C   0  0  0  0  0  0  0  0  0  0  0  0
  142.3640   76.5990  220.0530 C   0  0  0  0  0  0  0  0  0  0  0  0
  143.3890   76.2170  219.1810 C   0  0  0  0  0  0  0  0  0  0  0  0
  143.8250   74.9100  219.1500 C   0  0  0  0  0  0  0  0  0  0  0  0
  143.2200   74.0140  219.9970 C   0  0  0  0  0  0  0  0  0  0  0  0
  143.6940   72.6090  219.9580 C   0  0  0  0  0  0  0  0  0  0  0  0
  145.0900   72.6850  219.8620 F   0  0  0  0  0  0  0  0  0  0  0  0
  143.4400   72.0490  221.1900 F   0  0  0  0  0  0  0  0  0  0  0  0
  143.2260   71.8890  218.8990 F   0  0  0  0  0  0  0  0  0  0  0  0
  142.2070   74.4020  220.8550 C   0  0  0  0  0  0  0  0  0  0  0  0
  139.8280   71.2820  223.7180 C   0  0  0  0  0  0  0  0  0  0  0  0
  139.4710   69.9450  223.7140 C   0  0  0  0  0  0  0  0  0  0  0  0
  139.6090   69.2350  224.8850 C   0  0  0  0  0  0  0  0  0  0  0  0
  140.0910   69.8410  226.0270 C   0  0  0  0  0  0  0  0  0  0  0  0
  140.2360   69.1290  227.2190 C   0  0  0  0  0  0  0  0  0  0  0  0
  140.7180   69.7520  228.3510 C   0  0  0  0  0  0  0  0  0  0  0  0
  141.0690   71.1050  228.3130 C   0  0  0  0  0  0  0  0  0  0  0  0
  140.9230   71.8110  227.1210 C   0  0  0  0  0  0  0  0  0  0  0  0
  140.4410   71.1870  225.9990 C   0  0  0  0  0  0  0  0  0  0  0  0
  140.3050   71.8840  224.8470 N   0  0  0  0  0  0  0  0  0  0  0  0
  137.9410   73.1740  223.0990 H   0  0  0  0  0  0  0  0  0  0  0  0
  139.5236   73.5927  220.5438 H   0  0  0  0  0  0  0  0  0  0  0  0
  137.7253   73.2872  220.5031 H   0  0  0  0  0  0  0  0  0  0  0  0
  139.9225   77.1765  219.4553 H   0  0  0  0  0  0  0  0  0  0  0  0
  138.4123   77.7146  220.2089 H   0  0  0  0  0  0  0  0  0  0  0  0
  141.0246   78.7631  220.6962 H   0  0  0  0  0  0  0  0  0  0  0  0
  139.6006   79.1304  221.6577 H   0  0  0  0  0  0  0  0  0  0  0  0
  141.8267   77.6856  222.6076 H   0  0  0  0  0  0  0  0  0  0  0  0
  140.2409   77.5494  223.3483 H   0  0  0  0  0  0  0  0  0  0  0  0
  140.7585   75.2286  222.6022 H   0  0  0  0  0  0  0  0  0  0  0  0
  142.0388   77.6498  220.0550 H   0  0  0  0  0  0  0  0  0  0  0  0
  143.8492   76.9634  218.5169 H   0  0  0  0  0  0  0  0  0  0  0  0
  144.6302   74.5951  218.4699 H   0  0  0  0  0  0  0  0  0  0  0  0
  141.7496   73.6521  221.5172 H   0  0  0  0  0  0  0  0  0  0  0  0
  139.0882   69.4639  222.8019 H   0  0  0  0  0  0  0  0  0  0  0  0
  139.3315   68.1709  224.9107 H   0  0  0  0  0  0  0  0  0  0  0  0
  139.9639   68.0638  227.2556 H   0  0  0  0  0  0  0  0  0  0  0  0
  140.8266   69.1831  229.2862 H   0  0  0  0  0  0  0  0  0  0  0  0
  141.4555   71.6056  229.2130 H   0  0  0  0  0  0  0  0  0  0  0  0
  141.1961   72.8758  227.0795 H   0  0  0  0  0  0  0  0  0  0  0  0
  1  2  2  0
  2  3  1  0
  3  4  1  0
  4  5  1  0
  5  6  2  0
  5  7  1  0
  7  8  1  0
  8  9  1  0
  9 10  1  0
 10 11  1  0
 11 12  1  0
 12 13  2  0
 13 14  1  0
 14 15  2  0
 15 16  1  0
 16 17  1  0
 17 18  1  0
 17 19  1  0
 17 20  1  0
 16 21  2  0
  2 22  1  0
 22 23  2  0
 23 24  1  0
 24 25  2  0
 25 26  1  0
 26 27  2  0
 27 28  1  0
 28 29  2  0
 29 30  1  0
 30 31  2  0
 11  7  1  0
 21 12  1  0
 31 22  1  0
 30 25  1  0
  3 32  1  0
  4 33  1  0
  4 34  1  0
  8 35  1  0
  8 36  1  0
  9 37  1  0
  9 38  1  0
 10 39  1  0
 10 40  1  0
 11 41  1  1
 13 42  1  0
 14 43  1  0
 15 44  1  0
 21 45  1  0
 23 46  1  0
 24 47  1  0
 26 48  1  0
 27 49  1  0
 28 50  1  0
 29 51  1  0
M  END
>  <smiles>  (48) 
O=C(NCC(=O)N1CCCC1c1cccc(C(F)(F)F)c1)c1ccc2ccccc2n1

>  <score_type>  (48) 
oracle

>  <origin>  (48) 
autodockgpu

>  <m_score__min__energy>  (48) 
-9.5800000000000001

>  <m_primary>  (48) 
energy

>  <rmsd>  (48) 
2.333696065027629

>  <m_score__min__rmsd>  (48) 
2.333696065027629

>  <meeko>  (48) 
{"free_energy": -7.68, "intermolecular_energy": -9.47, "internal_energy": -1.56, "cluster_size": 3, "cluster_id": 4, "rank_in_cluster": 1}

>  <energy>  (48) 
-7.3

>  <cluster_rmsd>  (48) 
1.47

>  <cluster>  (48) 
4

$$$$

     RDKit          3D

 51 54  0  0  0  0  0  0  0  0999 V2000
  141.4510   72.0830  221.5910 O   0  0  0  0  0  0  0  0  0  0  0  0
  140.5880   72.4030  222.4750 C   0  0  0  0  0  0  0  0  0  0  0  0
  139.9000   73.6330  222.3330 N   0  0  0  0  0  0  0  0  0  0  0  0
  140.2220   74.4500  221.1850 C   0  0  0  0  0  0  0  0  0  0  0  0
  140.5760   75.8250  221.5380 C   0  0  0  0  0  0  0  0  0  0  0  0
  140.3880   76.3050  222.6820 O   0  0  0  0  0  0  0  0  0  0  0  0
  141.1610   76.6800  220.5680 N   0  0  0  0  0  0  0  0  0  0  0  0
  142.5510   76.6870  220.0950 C   0  0  0  0  0  0  0  0  0  0  0  0
  142.4890   77.0390  218.6200 C   0  0  0  0  0  0  0  0  0  0  0  0
  141.0350   77.4530  218.4010 C   0  0  0  0  0  0  0  0  0  0  0  0
  140.5330   77.7570  219.7980 C   0  0  2  0  0  0  0  0  0  0  0  0
  140.9640   79.0730  220.2570 C   0  0  0  0  0  0  0  0  0  0  0  0
  141.0100   80.2250  219.5210 C   0  0  0  0  0  0  0  0  0  0  0  0
  141.4450   81.4450  220.0500 C   0  0  0  0  0  0  0  0  0  0  0  0
  141.8510   81.5290  221.3640 C   0  0  0  0  0  0  0  0  0  0  0  0
  141.8120   80.3820  222.1200 C   0  0  0  0  0  0  0  0  0  0  0  0
  142.2510   80.4790  223.5330 C   0  0  0  0  0  0  0  0  0  0  0  0
  141.7760   79.3180  224.1570 F   0  0  0  0  0  0  0  0  0  0  0  0
  143.6240   80.3700  223.5500 F   0  0  0  0  0  0  0  0  0  0  0  0
  141.7570   81.5610  224.2000 F   0  0  0  0  0  0  0  0  0  0  0  0
  141.3800   79.1810  221.5870 C   0  0  0  0  0  0  0  0  0  0  0  0
  140.3200   71.5180  223.6110 C   0  0  0  0  0  0  0  0  0  0  0  0
  139.6560   70.3260  223.3780 C   0  0  0  0  0  0  0  0  0  0  0  0
  139.4080   69.5030  224.4530 C   0  0  0  0  0  0  0  0  0  0  0  0
  139.8100   69.8580  225.7240 C   0  0  0  0  0  0  0  0  0  0  0  0
  139.5640   69.0290  226.8190 C   0  0  0  0  0  0  0  0  0  0  0  0
  139.9730   69.4010  228.0830 C   0  0  0  0  0  0  0  0  0  0  0  0
  140.6410   70.6140  228.2770 C   0  0  0  0  0  0  0  0  0  0  0  0
  140.8850   71.4370  227.1800 C   0  0  0  0  0  0  0  0  0  0  0  0
  140.4750   71.0620  225.9260 C   0  0  0  0  0  0  0  0  0  0  0  0
  140.7190   71.8720  224.8680 N   0  0  0  0  0  0  0  0  0  0  0  0
  139.1750   73.9450  223.0390 H   0  0  0  0  0  0  0  0  0  0  0  0
  141.0734   73.9937  220.6588 H   0  0  0  0  0  0  0  0  0  0  0  0
  139.3226   74.4956  220.5533 H   0  0  0  0  0  0  0  0  0  0  0  0
  143.1375   77.4390  220.6431 H   0  0  0  0  0  0  0  0  0  0  0  0
  143.0367   75.7134  220.2569 H   0  0  0  0  0  0  0  0  0  0  0  0
  143.1716   77.8695  218.3870 H   0  0  0  0  0  0  0  0  0  0  0  0
  142.7943   76.2043  217.9718 H   0  0  0  0  0  0  0  0  0  0  0  0
  140.9735   78.3445  217.7596 H   0  0  0  0  0  0  0  0  0  0  0  0
  140.4426   76.6765  217.8950 H   0  0  0  0  0  0  0  0  0  0  0  0
  139.4368   77.7919  219.8830 H   0  0  0  0  0  0  0  0  0  0  0  0
  140.6915   80.1908  218.4687 H   0  0  0  0  0  0  0  0  0  0  0  0
  141.4630   82.3419  219.4135 H   0  0  0  0  0  0  0  0  0  0  0  0
  142.1946   82.4817  221.7933 H   0  0  0  0  0  0  0  0  0  0  0  0
  141.3634   78.2866  222.2272 H   0  0  0  0  0  0  0  0  0  0  0  0
  139.3360   70.0448  222.3638 H   0  0  0  0  0  0  0  0  0  0  0  0
  138.8823   68.5495  224.2966 H   0  0  0  0  0  0  0  0  0  0  0  0
  139.0405   68.0726  226.6735 H   0  0  0  0  0  0  0  0  0  0  0  0
  139.7731   68.7416  228.9405 H   0  0  0  0  0  0  0  0  0  0  0  0
  140.9696   70.9144  229.2829 H   0  0  0  0  0  0  0  0  0  0  0  0
  141.4097   72.3936  227.3203 H   0  0  0  0  0  0  0  0  0  0  0  0
  1  2  2  0
  2  3  1  0
  3  4  1  0
  4  5  1  0
  5  6  2  0
  5  7  1  0
  7  8  1  0
  8  9  1  0
  9 10  1  0
 10 11  1  0
 11 12  1  0
 12 13  2  0
 13 14  1  0
 14 15  2  0
 15 16  1  0
 16 17  1  0
 17 18  1  0
 17 19  1  0
 17 20  1  0
 16 21  2  0
  2 22  1  0
 22 23  2  0
 23 24  1  0
 24 25  2  0
 25 26  1  0
 26 27  2  0
 27 28  1  0
 28 29  2  0
 29 30  1  0
 30 31  2  0
 11  7  1  0
 21 12  1  0
 31 22  1  0
 30 25  1  0
  3 32  1  0
  4 33  1  0
  4 34  1  0
  8 35  1  0
  8 36  1  0
  9 37  1  0
  9 38  1  0
 10 39  1  0
 10 40  1  0
 11 41  1  6
 13 42  1  0
 14 43  1  0
 15 44  1  0
 21 45  1  0
 23 46  1  0
 24 47  1  0
 26 48  1  0
 27 49  1  0
 28 50  1  0
 29 51  1  0
M  END
>  <smiles>  (49) 
O=C(NCC(=O)N1CCCC1c1cccc(C(F)(F)F)c1)c1ccc2ccccc2n1

>  <score_type>  (49) 
oracle

>  <origin>  (49) 
autodockgpu

>  <m_score__min__energy>  (49) 
-9.5800000000000001

>  <m_primary>  (49) 
energy

>  <rmsd>  (49) 
2.158454905439764

>  <m_score__min__rmsd>  (49) 
2.158454905439764

>  <meeko>  (49) 
{"free_energy": -8.63, "intermolecular_energy": -10.42, "internal_energy": -1.44, "cluster_size": 18, "cluster_id": 2, "rank_in_cluster": 3}

>  <energy>  (49) 
-7.26

>  <cluster_rmsd>  (49) 
0.0

>  <cluster>  (49) 
5

$$$$

     RDKit          3D

 51 54  0  0  0  0  0  0  0  0999 V2000
  140.7070   74.0090  220.6190 O   0  0  0  0  0  0  0  0  0  0  0  0
  140.2300   74.8650  221.4360 C   0  0  0  0  0  0  0  0  0  0  0  0
  139.1970   74.4570  222.3150 N   0  0  0  0  0  0  0  0  0  0  0  0
  138.7490   73.0860  222.2290 C   0  0  0  0  0  0  0  0  0  0  0  0
  139.6020   72.1540  222.9670 C   0  0  0  0  0  0  0  0  0  0  0  0
  140.8300   72.3430  223.1400 O   0  0  0  0  0  0  0  0  0  0  0  0
  139.0460   70.9740  223.5270 N   0  0  0  0  0  0  0  0  0  0  0  0
  137.6580   70.7430  223.9470 C   0  0  0  0  0  0  0  0  0  0  0  0
  137.3570   69.2930  223.6200 C   0  0  0  0  0  0  0  0  0  0  0  0
  138.7180   68.7120  223.2380 C   0  0  0  0  0  0  0  0  0  0  0  0
  139.7080   69.7000  223.8210 C   0  0  2  0  0  0  0  0  0  0  0  0
  139.8920   69.5030  225.2540 C   0  0  0  0  0  0  0  0  0  0  0  0
  139.7400   68.3350  225.9500 C   0  0  0  0  0  0  0  0  0  0  0  0
  139.9360   68.2460  227.3320 C   0  0  0  0  0  0  0  0  0  0  0  0
  140.2980   69.3600  228.0580 C   0  0  0  0  0  0  0  0  0  0  0  0
  140.4560   70.5430  227.3770 C   0  0  0  0  0  0  0  0  0  0  0  0
  140.8460   71.7380  228.1640 C   0  0  0  0  0  0  0  0  0  0  0  0
  141.2580   72.6910  227.2240 F   0  0  0  0  0  0  0  0  0  0  0  0
  139.7010   72.2530  228.7310 F   0  0  0  0  0  0  0  0  0  0  0  0
  141.8680   71.5230  229.0400 F   0  0  0  0  0  0  0  0  0  0  0  0
  140.2600   70.6200  226.0100 C   0  0  0  0  0  0  0  0  0  0  0  0
  140.7390   76.2400  221.4610 C   0  0  0  0  0  0  0  0  0  0  0  0
  141.2960   76.7590  220.3050 C   0  0  0  0  0  0  0  0  0  0  0  0
  141.7720   78.0500  220.3400 C   0  0  0  0  0  0  0  0  0  0  0  0
  141.6930   78.8030  221.4930 C   0  0  0  0  0  0  0  0  0  0  0  0
  142.1720   80.1120  221.5370 C   0  0  0  0  0  0  0  0  0  0  0  0
  142.0860   80.8490  222.7000 C   0  0  0  0  0  0  0  0  0  0  0  0
  141.5150   80.2880  223.8470 C   0  0  0  0  0  0  0  0  0  0  0  0
  141.0380   78.9810  223.7970 C   0  0  0  0  0  0  0  0  0  0  0  0
  141.1280   78.2520  222.6380 C   0  0  0  0  0  0  0  0  0  0  0  0
  140.6600   76.9820  222.6040 N   0  0  0  0  0  0  0  0  0  0  0  0
  138.7670   75.1290  223.0110 H   0  0  0  0  0  0  0  0  0  0  0  0
  137.7294   73.0250  222.6372 H   0  0  0  0  0  0  0  0  0  0  0  0
  138.7874   72.7952  221.1688 H   0  0  0  0  0  0  0  0  0  0  0  0
  137.5511   70.9211  225.0272 H   0  0  0  0  0  0  0  0  0  0  0  0
  136.9634   71.4240  223.4334 H   0  0  0  0  0  0  0  0  0  0  0  0
  136.9411   68.7726  224.4953 H   0  0  0  0  0  0  0  0  0  0  0  0
  136.6100   69.1849  222.8198 H   0  0  0  0  0  0  0  0  0  0  0  0
  138.8554   67.7133  223.6781 H   0  0  0  0  0  0  0  0  0  0  0  0
  138.8358   68.5816  222.1521 H   0  0  0  0  0  0  0  0  0  0  0  0
  140.7241   69.6147  223.4085 H   0  0  0  0  0  0  0  0  0  0  0  0
  139.4514   67.4275  225.3994 H   0  0  0  0  0  0  0  0  0  0  0  0
  139.8004   67.2811  227.8424 H   0  0  0  0  0  0  0  0  0  0  0  0
  140.4551   69.3041  229.1453 H   0  0  0  0  0  0  0  0  0  0  0  0
  140.3975   71.5868  225.5036 H   0  0  0  0  0  0  0  0  0  0  0  0
  141.3564   76.1577  219.3859 H   0  0  0  0  0  0  0  0  0  0  0  0
  142.2215   78.4872  219.4362 H   0  0  0  0  0  0  0  0  0  0  0  0
  142.6214   80.5598  220.6384 H   0  0  0  0  0  0  0  0  0  0  0  0
  142.4674   81.8804  222.7253 H   0  0  0  0  0  0  0  0  0  0  0  0
  141.4437   80.8719  224.7765 H   0  0  0  0  0  0  0  0  0  0  0  0
  140.5859   78.5297  224.6926 H   0  0  0  0  0  0  0  0  0  0  0  0
  1  2  2  0
  2  3  1  0
  3  4  1  0
  4  5  1  0
  5  6  2  0
  5  7  1  0
  7  8  1  0
  8  9  1  0
  9 10  1  0
 10 11  1  0
 11 12  1  0
 12 13  2  0
 13 14  1  0
 14 15  2  0
 15 16  1  0
 16 17  1  0
 17 18  1  0
 17 19  1  0
 17 20  1  0
 16 21  2  0
  2 22  1  0
 22 23  2  0
 23 24  1  0
 24 25  2  0
 25 26  1  0
 26 27  2  0
 27 28  1  0
 28 29  2  0
 29 30  1  0
 30 31  2  0
 11  7  1  0
 21 12  1  0
 31 22  1  0
 30 25  1  0
  3 32  1  0
  4 33  1  0
  4 34  1  0
  8 35  1  0
  8 36  1  0
  9 37  1  0
  9 38  1  0
 10 39  1  0
 10 40  1  0
 11 41  1  6
 13 42  1  0
 14 43  1  0
 15 44  1  0
 21 45  1  0
 23 46  1  0
 24 47  1  0
 26 48  1  0
 27 49  1  0
 28 50  1  0
 29 51  1  0
M  END
>  <smiles>  (50) 
O=C(NCC(=O)N1CCCC1c1cccc(C(F)(F)F)c1)c1ccc2ccccc2n1

>  <score_type>  (50) 
oracle

>  <origin>  (50) 
autodockgpu

>  <m_score__min__energy>  (50) 
-9.5800000000000001

>  <m_primary>  (50) 
energy

>  <rmsd>  (50) 
8.40465414319883

>  <m_score__min__rmsd>  (50) 
8.40465414319883

>  <meeko>  (50) 
{"free_energy": -9.22, "intermolecular_energy": -11.01, "internal_energy": -1.5, "cluster_size": 26, "cluster_id": 1, "rank_in_cluster": 6}

>  <energy>  (50) 
-6.07

>  <cluster_rmsd>  (50) 
0.0

>  <cluster>  (50) 
6

$$$$

     RDKit          3D

 51 54  0  0  0  0  0  0  0  0999 V2000
  140.2980   71.3710  221.2360 O   0  0  0  0  0  0  0  0  0  0  0  0
  140.0450   71.9870  222.3140 C   0  0  0  0  0  0  0  0  0  0  0  0
  139.7680   73.3780  222.3010 N   0  0  0  0  0  0  0  0  0  0  0  0
  139.7610   74.1520  221.0780 C   0  0  0  0  0  0  0  0  0  0  0  0
  140.3710   75.4910  221.3440 C   0  0  0  0  0  0  0  0  0  0  0  0
  140.0400   76.1430  222.3880 O   0  0  0  0  0  0  0  0  0  0  0  0
  141.3190   76.0720  220.4660 N   0  0  0  0  0  0  0  0  0  0  0  0
  141.8270   77.4160  220.6210 C   0  0  0  0  0  0  0  0  0  0  0  0
  142.1360   77.7610  219.1780 C   0  0  0  0  0  0  0  0  0  0  0  0
  142.5260   76.4630  218.5220 C   0  0  0  0  0  0  0  0  0  0  0  0
  141.8820   75.3980  219.3290 C   0  0  1  0  0  0  0  0  0  0  0  0
  142.8270   74.3190  219.7280 C   0  0  0  0  0  0  0  0  0  0  0  0
  143.9400   74.6750  220.4340 C   0  0  0  0  0  0  0  0  0  0  0  0
  144.8880   73.7700  220.8590 C   0  0  0  0  0  0  0  0  0  0  0  0
  144.6720   72.4440  220.5380 C   0  0  0  0  0  0  0  0  0  0  0  0
  143.5370   72.0760  219.8180 C   0  0  0  0  0  0  0  0  0  0  0  0
  143.3940   70.6250  219.5220 C   0  0  0  0  0  0  0  0  0  0  0  0
  142.2750   70.1230  220.1210 F   0  0  0  0  0  0  0  0  0  0  0  0
  144.5080   70.0010  220.0630 F   0  0  0  0  0  0  0  0  0  0  0  0
  143.3510   70.4490  218.1630 F   0  0  0  0  0  0  0  0  0  0  0  0
  142.6030   73.0170  219.4060 C   0  0  0  0  0  0  0  0  0  0  0  0
  140.0320   71.2870  223.5860 C   0  0  0  0  0  0  0  0  0  0  0  0
  139.5520   70.0060  223.6560 C   0  0  0  0  0  0  0  0  0  0  0  0
  139.5240   69.3130  224.8430 C   0  0  0  0  0  0  0  0  0  0  0  0
  139.9970   69.9320  225.9990 C   0  0  0  0  0  0  0  0  0  0  0  0
  139.9860   69.2690  227.2090 C   0  0  0  0  0  0  0  0  0  0  0  0
  140.4690   69.9230  228.3430 C   0  0  0  0  0  0  0  0  0  0  0  0
  140.9480   71.2120  228.2540 C   0  0  0  0  0  0  0  0  0  0  0  0
  140.9550   71.8710  227.0340 C   0  0  0  0  0  0  0  0  0  0  0  0
  140.4790   71.2280  225.9040 C   0  0  0  0  0  0  0  0  0  0  0  0
  140.4830   71.8570  224.7240 N   0  0  0  0  0  0  0  0  0  0  0  0
  139.5630   73.8550  223.2200 H   0  0  0  0  0  0  0  0  0  0  0  0
  140.3445   73.6278  220.3068 H   0  0  0  0  0  0  0  0  0  0  0  0
  138.7269   74.2789  220.7252 H   0  0  0  0  0  0  0  0  0  0  0  0
  141.0692   78.0902  221.0467 H   0  0  0  0  0  0  0  0  0  0  0  0
  142.6814   77.5073  221.3078 H   0  0  0  0  0  0  0  0  0  0  0  0
  141.2485   78.1870  218.6872 H   0  0  0  0  0  0  0  0  0  0  0  0
  142.9379   78.5103  219.1030 H   0  0  0  0  0  0  0  0  0  0  0  0
  142.1611   76.4323  217.4848 H   0  0  0  0  0  0  0  0  0  0  0  0
  143.6183   76.3392  218.4828 H   0  0  0  0  0  0  0  0  0  0  0  0
  141.1130   74.8728  218.7436 H   0  0  0  0  0  0  0  0  0  0  0  0
  144.0873   75.7380  220.6757 H   0  0  0  0  0  0  0  0  0  0  0  0
  145.7747   74.0883  221.4269 H   0  0  0  0  0  0  0  0  0  0  0  0
  145.3966   71.6778  220.8510 H   0  0  0  0  0  0  0  0  0  0  0  0
  141.7100   72.7187  218.8371 H   0  0  0  0  0  0  0  0  0  0  0  0
  139.1804   69.5206  222.7415 H   0  0  0  0  0  0  0  0  0  0  0  0
  139.1341   68.2851  224.8800 H   0  0  0  0  0  0  0  0  0  0  0  0
  139.6023   68.2404  227.2786 H   0  0  0  0  0  0  0  0  0  0  0  0
  140.4674   69.4064  229.3141 H   0  0  0  0  0  0  0  0  0  0  0  0
  141.3260   71.7198  229.1536 H   0  0  0  0  0  0  0  0  0  0  0  0
  141.3371   72.9002  226.9643 H   0  0  0  0  0  0  0  0  0  0  0  0
  1  2  2  0
  2  3  1  0
  3  4  1  0
  4  5  1  0
  5  6  2  0
  5  7  1  0
  7  8  1  0
  8  9  1  0
  9 10  1  0
 10 11  1  0
 11 12  1  0
 12 13  2  0
 13 14  1  0
 14 15  2  0
 15 16  1  0
 16 17  1  0
 17 18  1  0
 17 19  1  0
 17 20  1  0
 16 21  2  0
  2 22  1  0
 22 23  2  0
 23 24  1  0
 24 25  2  0
 25 26  1  0
 26 27  2  0
 27 28  1  0
 28 29  2  0
 29 30  1  0
 30 31  2  0
 11  7  1  0
 21 12  1  0
 31 22  1  0
 30 25  1  0
  3 32  1  0
  4 33  1  0
  4 34  1  0
  8 35  1  0
  8 36  1  0
  9 37  1  0
  9 38  1  0
 10 39  1  0
 10 40  1  0
 11 41  1  6
 13 42  1  0
 14 43  1  0
 15 44  1  0
 21 45  1  0
 23 46  1  0
 24 47  1  0
 26 48  1  0
 27 49  1  0
 28 50  1  0
 29 51  1  0
M  END
>  <smiles>  (51) 
O=C(NCC(=O)N1CCCC1c1cccc(C(F)(F)F)c1)c1ccc2ccccc2n1

>  <score_type>  (51) 
oracle

>  <origin>  (51) 
autodockgpu

>  <m_score__min__energy>  (51) 
-9.1500000000000004

>  <m_primary>  (51) 
energy

>  <rmsd>  (51) 
2.171440181564602

>  <m_score__min__rmsd>  (51) 
2.171440181564602

>  <meeko>  (51) 
{"free_energy": -8.09, "intermolecular_energy": -9.88, "internal_energy": -2.24, "cluster_size": 12, "cluster_id": 3, "rank_in_cluster": 8}

>  <energy>  (51) 
-9.15

>  <cluster_rmsd>  (51) 
0.0

>  <cluster>  (51) 
1

$$$$

     RDKit          3D

 51 54  0  0  0  0  0  0  0  0999 V2000
  141.0920   74.5790  220.9070 O   0  0  0  0  0  0  0  0  0  0  0  0
  140.1460   74.9290  221.6750 C   0  0  0  0  0  0  0  0  0  0  0  0
  139.1700   73.9870  222.0890 N   0  0  0  0  0  0  0  0  0  0  0  0
  139.2020   72.6040  221.6650 C   0  0  0  0  0  0  0  0  0  0  0  0
  139.6580   71.7530  222.8070 C   0  0  0  0  0  0  0  0  0  0  0  0
  140.4300   72.2440  223.6940 O   0  0  0  0  0  0  0  0  0  0  0  0
  139.2570   70.4010  222.9430 N   0  0  0  0  0  0  0  0  0  0  0  0
  139.5170   69.3900  221.9440 C   0  0  0  0  0  0  0  0  0  0  0  0
  138.3450   68.4600  222.1830 C   0  0  0  0  0  0  0  0  0  0  0  0
  138.0390   68.5570  223.6540 C   0  0  0  0  0  0  0  0  0  0  0  0
  138.5510   69.8820  224.0820 C   0  0  1  0  0  0  0  0  0  0  0  0
  139.4160   69.8080  225.2910 C   0  0  0  0  0  0  0  0  0  0  0  0
  139.9080   68.5850  225.6500 C   0  0  0  0  0  0  0  0  0  0  0  0
  140.7170   68.3870  226.7470 C   0  0  0  0  0  0  0  0  0  0  0  0
  141.0280   69.5010  227.5020 C   0  0  0  0  0  0  0  0  0  0  0  0
  140.5280   70.7500  227.1400 C   0  0  0  0  0  0  0  0  0  0  0  0
  140.9190   71.8890  228.0160 C   0  0  0  0  0  0  0  0  0  0  0  0
  141.8560   71.4920  228.9250 F   0  0  0  0  0  0  0  0  0  0  0  0
  139.7730   72.2740  228.6950 F   0  0  0  0  0  0  0  0  0  0  0  0
  141.3870   72.9130  227.2340 F   0  0  0  0  0  0  0  0  0  0  0  0
  139.7140   70.9120  226.0270 C   0  0  0  0  0  0  0  0  0  0  0  0
  140.0380   76.2980  222.1480 C   0  0  0  0  0  0  0  0  0  0  0  0
  138.8030   76.8500  222.3630 C   0  0  0  0  0  0  0  0  0  0  0  0
  138.6630   78.1430  222.8110 C   0  0  0  0  0  0  0  0  0  0  0  0
  139.8070   78.9040  223.0490 C   0  0  0  0  0  0  0  0  0  0  0  0
  139.7070   80.2040  223.4990 C   0  0  0  0  0  0  0  0  0  0  0  0
  140.8760   80.9330  223.7270 C   0  0  0  0  0  0  0  0  0  0  0  0
  142.1090   80.3600  223.5040 C   0  0  0  0  0  0  0  0  0  0  0  0
  142.2000   79.0520  223.0520 C   0  0  0  0  0  0  0  0  0  0  0  0
  141.0460   78.3220  222.8250 C   0  0  0  0  0  0  0  0  0  0  0  0
  141.1250   77.0610  222.3890 N   0  0  0  0  0  0  0  0  0  0  0  0
  138.3970   74.3180  222.7290 H   0  0  0  0  0  0  0  0  0  0  0  0
  138.1950   72.2913  221.3516 H   0  0  0  0  0  0  0  0  0  0  0  0
  139.8957   72.4916  220.8187 H   0  0  0  0  0  0  0  0  0  0  0  0
  139.5018   69.8099  220.9274 H   0  0  0  0  0  0  0  0  0  0  0  0
  140.5049   68.9124  222.0206 H   0  0  0  0  0  0  0  0  0  0  0  0
  137.4757   68.7785  221.5889 H   0  0  0  0  0  0  0  0  0  0  0  0
  138.5797   67.4274  221.8851 H   0  0  0  0  0  0  0  0  0  0  0  0
  136.9545   68.4908  223.8257 H   0  0  0  0  0  0  0  0  0  0  0  0
  138.5053   67.7381  224.2214 H   0  0  0  0  0  0  0  0  0  0  0  0
  137.7256   70.5421  224.3870 H   0  0  0  0  0  0  0  0  0  0  0  0
  139.6447   67.7143  225.0315 H   0  0  0  0  0  0  0  0  0  0  0  0
  141.0974   67.3888  227.0094 H   0  0  0  0  0  0  0  0  0  0  0  0
  141.6706   69.4020  228.3893 H   0  0  0  0  0  0  0  0  0  0  0  0
  139.3226   71.9018  225.7494 H   0  0  0  0  0  0  0  0  0  0  0  0
  137.9034   76.2461  222.1733 H   0  0  0  0  0  0  0  0  0  0  0  0
  137.6634   78.5703  222.9790 H   0  0  0  0  0  0  0  0  0  0  0  0
  138.7215   80.6595  223.6756 H   0  0  0  0  0  0  0  0  0  0  0  0
  140.8121   81.9706  224.0867 H   0  0  0  0  0  0  0  0  0  0  0  0
  143.0246   80.9421  223.6851 H   0  0  0  0  0  0  0  0  0  0  0  0
  143.1854   78.5964  222.8746 H   0  0  0  0  0  0  0  0  0  0  0  0
  1  2  2  0
  2  3  1  0
  3  4  1  0
  4  5  1  0
  5  6  2  0
  5  7  1  0
  7  8  1  0
  8  9  1  0
  9 10  1  0
 10 11  1  0
 11 12  1  0
 12 13  2  0
 13 14  1  0
 14 15  2  0
 15 16  1  0
 16 17  1  0
 17 18  1  0
 17 19  1  0
 17 20  1  0
 16 21  2  0
  2 22  1  0
 22 23  2  0
 23 24  1  0
 24 25  2  0
 25 26  1  0
 26 27  2  0
 27 28  1  0
 28 29  2  0
 29 30  1  0
 30 31  2  0
 11  7  1  0
 21 12  1  0
 31 22  1  0
 30 25  1  0
  3 32  1  0
  4 33  1  0
  4 34  1  0
  8 35  1  0
  8 36  1  0
  9 37  1  0
  9 38  1  0
 10 39  1  0
 10 40  1  0
 11 41  1  1
 13 42  1  0
 14 43  1  0
 15 44  1  0
 21 45  1  0
 23 46  1  0
 24 47  1  0
 26 48  1  0
 27 49  1  0
 28 50  1  0
 29 51  1  0
M  END
>  <smiles>  (52) 
O=C(NCC(=O)N1CCCC1c1cccc(C(F)(F)F)c1)c1ccc2ccccc2n1

>  <score_type>  (52) 
oracle

>  <origin>  (52) 
autodockgpu

>  <m_score__min__energy>  (52) 
-9.1500000000000004

>  <m_primary>  (52) 
energy

>  <rmsd>  (52) 
8.203693174576353

>  <m_score__min__rmsd>  (52) 
8.203693174576353

>  <meeko>  (52) 
{"free_energy": -9.15, "intermolecular_energy": -10.94, "internal_energy": -1.28, "cluster_size": 5, "cluster_id": 1, "rank_in_cluster": 1}

>  <energy>  (52) 
-9.14

>  <cluster_rmsd>  (52) 
0.09

>  <cluster>  (52) 
1

$$$$

     RDKit          3D

 51 54  0  0  0  0  0  0  0  0999 V2000
  140.9020   71.5380  221.3480 O   0  0  0  0  0  0  0  0  0  0  0  0
  140.3950   72.1030  222.3630 C   0  0  0  0  0  0  0  0  0  0  0  0
  139.9880   73.4600  222.3040 N   0  0  0  0  0  0  0  0  0  0  0  0
  140.1280   74.2570  221.1040 C   0  0  0  0  0  0  0  0  0  0  0  0
  140.1330   75.7050  221.4760 C   0  0  0  0  0  0  0  0  0  0  0  0
  139.7790   76.0590  222.6480 O   0  0  0  0  0  0  0  0  0  0  0  0
  140.5230   76.7140  220.5620 N   0  0  0  0  0  0  0  0  0  0  0  0
  139.8550   76.9460  219.3020 C   0  0  0  0  0  0  0  0  0  0  0  0
  141.0010   77.5060  218.4830 C   0  0  0  0  0  0  0  0  0  0  0  0
  141.8820   78.2390  219.4590 C   0  0  0  0  0  0  0  0  0  0  0  0
  141.6190   77.6180  220.7800 C   0  0  1  0  0  0  0  0  0  0  0  0
  141.3190   78.6160  221.8430 C   0  0  0  0  0  0  0  0  0  0  0  0
  142.3730   79.1680  222.5150 C   0  0  0  0  0  0  0  0  0  0  0  0
  142.2250   80.1010  223.5180 C   0  0  0  0  0  0  0  0  0  0  0  0
  140.9340   80.4760  223.8360 C   0  0  0  0  0  0  0  0  0  0  0  0
  139.8570   79.9150  223.1530 C   0  0  0  0  0  0  0  0  0  0  0  0
  138.5060   80.3830  223.5680 C   0  0  0  0  0  0  0  0  0  0  0  0
  137.5390   79.5790  223.0390 F   0  0  0  0  0  0  0  0  0  0  0  0
  138.3570   81.6610  223.0510 F   0  0  0  0  0  0  0  0  0  0  0  0
  138.4430   80.4020  224.9380 F   0  0  0  0  0  0  0  0  0  0  0  0
  140.0440   78.9760  222.1470 C   0  0  0  0  0  0  0  0  0  0  0  0
  140.2190   71.3770  223.6090 C   0  0  0  0  0  0  0  0  0  0  0  0
  139.5680   70.1720  223.6110 C   0  0  0  0  0  0  0  0  0  0  0  0
  139.3830   69.4570  224.7710 C   0  0  0  0  0  0  0  0  0  0  0  0
  139.8710   69.9760  225.9690 C   0  0  0  0  0  0  0  0  0  0  0  0
  139.7050   69.2880  227.1530 C   0  0  0  0  0  0  0  0  0  0  0  0
  140.2090   69.8400  228.3330 C   0  0  0  0  0  0  0  0  0  0  0  0
  140.8610   71.0530  228.3110 C   0  0  0  0  0  0  0  0  0  0  0  0
  141.0230   71.7370  227.1160 C   0  0  0  0  0  0  0  0  0  0  0  0
  140.5270   71.1960  225.9430 C   0  0  0  0  0  0  0  0  0  0  0  0
  140.6800   71.8500  224.7860 N   0  0  0  0  0  0  0  0  0  0  0  0
  139.5710   73.8950  223.1720 H   0  0  0  0  0  0  0  0  0  0  0  0
  141.0727   74.0027  220.6011 H   0  0  0  0  0  0  0  0  0  0  0  0
  139.2886   74.0523  220.4232 H   0  0  0  0  0  0  0  0  0  0  0  0
  139.4654   76.0122  218.8705 H   0  0  0  0  0  0  0  0  0  0  0  0
  138.9724   77.5997  219.3638 H   0  0  0  0  0  0  0  0  0  0  0  0
  141.5600   76.6915  217.9992 H   0  0  0  0  0  0  0  0  0  0  0  0
  140.6410   78.1707  217.6840 H   0  0  0  0  0  0  0  0  0  0  0  0
  142.9405   78.1215  219.1836 H   0  0  0  0  0  0  0  0  0  0  0  0
  141.6692   79.3182  219.4676 H   0  0  0  0  0  0  0  0  0  0  0  0
  142.5123   77.0955  221.1527 H   0  0  0  0  0  0  0  0  0  0  0  0
  143.3904   78.8517  222.2415 H   0  0  0  0  0  0  0  0  0  0  0  0
  143.0939   80.5272  224.0409 H   0  0  0  0  0  0  0  0  0  0  0  0
  140.7563   81.2177  224.6286 H   0  0  0  0  0  0  0  0  0  0  0  0
  139.1878   78.5377  221.6133 H   0  0  0  0  0  0  0  0  0  0  0  0
  139.1843   69.7669  222.6630 H   0  0  0  0  0  0  0  0  0  0  0  0
  138.8580   68.4905  224.7537 H   0  0  0  0  0  0  0  0  0  0  0  0
  139.1837   68.3195  227.1677 H   0  0  0  0  0  0  0  0  0  0  0  0
  140.0845   69.3030  229.2849 H   0  0  0  0  0  0  0  0  0  0  0  0
  141.2546   71.4806  229.2449 H   0  0  0  0  0  0  0  0  0  0  0  0
  141.5437   72.7058  227.1004 H   0  0  0  0  0  0  0  0  0  0  0  0
  1  2  2  0
  2  3  1  0
  3  4  1  0
  4  5  1  0
  5  6  2  0
  5  7  1  0
  7  8  1  0
  8  9  1  0
  9 10  1  0
 10 11  1  0
 11 12  1  0
 12 13  2  0
 13 14  1  0
 14 15  2  0
 15 16  1  0
 16 17  1  0
 17 18  1  0
 17 19  1  0
 17 20  1  0
 16 21  2  0
  2 22  1  0
 22 23  2  0
 23 24  1  0
 24 25  2  0
 25 26  1  0
 26 27  2  0
 27 28  1  0
 28 29  2  0
 29 30  1  0
 30 31  2  0
 11  7  1  0
 21 12  1  0
 31 22  1  0
 30 25  1  0
  3 32  1  0
  4 33  1  0
  4 34  1  0
  8 35  1  0
  8 36  1  0
  9 37  1  0
  9 38  1  0
 10 39  1  0
 10 40  1  0
 11 41  1  1
 13 42  1  0
 14 43  1  0
 15 44  1  0
 21 45  1  0
 23 46  1  0
 24 47  1  0
 26 48  1  0
 27 49  1  0
 28 50  1  0
 29 51  1  0
M  END
>  <smiles>  (53) 
O=C(NCC(=O)N1CCCC1c1cccc(C(F)(F)F)c1)c1ccc2ccccc2n1

>  <score_type>  (53) 
oracle

>  <origin>  (53) 
autodockgpu

>  <m_score__min__energy>  (53) 
-9.1500000000000004

>  <m_primary>  (53) 
energy

>  <rmsd>  (53) 
1.6768405120884222

>  <m_score__min__rmsd>  (53) 
1.6768405120884222

>  <meeko>  (53) 
{"free_energy": -8.83, "intermolecular_energy": -10.62, "internal_energy": -1.94, "cluster_size": 27, "cluster_id": 2, "rank_in_cluster": 11}

>  <energy>  (53) 
-8.7

>  <cluster_rmsd>  (53) 
1.43

>  <cluster>  (53) 
1

$$$$

     RDKit          3D

 51 54  0  0  0  0  0  0  0  0999 V2000
  140.7670   71.4250  221.2830 O   0  0  0  0  0  0  0  0  0  0  0  0
  140.3480   72.0240  222.3190 C   0  0  0  0  0  0  0  0  0  0  0  0
  139.9670   73.3880  222.2570 N   0  0  0  0  0  0  0  0  0  0  0  0
  140.0360   74.1550  221.0310 C   0  0  0  0  0  0  0  0  0  0  0  0
  140.7010   75.4650  221.3110 C   0  0  0  0  0  0  0  0  0  0  0  0
  140.4840   76.0630  222.4160 O   0  0  0  0  0  0  0  0  0  0  0  0
  141.5770   76.0770  220.3810 N   0  0  0  0  0  0  0  0  0  0  0  0
  141.9940   77.4580  220.4720 C   0  0  0  0  0  0  0  0  0  0  0  0
  142.2310   77.7690  219.0080 C   0  0  0  0  0  0  0  0  0  0  0  0
  142.6890   76.4780  218.3840 C   0  0  0  0  0  0  0  0  0  0  0  0
  142.1470   75.4010  219.2490 C   0  0  1  0  0  0  0  0  0  0  0  0
  143.1780   74.4060  219.6510 C   0  0  0  0  0  0  0  0  0  0  0  0
  144.2380   74.8480  220.3910 C   0  0  0  0  0  0  0  0  0  0  0  0
  145.2550   74.0240  220.8230 C   0  0  0  0  0  0  0  0  0  0  0  0
  145.1680   72.6910  220.4730 C   0  0  0  0  0  0  0  0  0  0  0  0
  144.0890   72.2360  219.7190 C   0  0  0  0  0  0  0  0  0  0  0  0
  144.0860   70.7830  219.3930 C   0  0  0  0  0  0  0  0  0  0  0  0
  145.3030   70.2300  219.6690 F   0  0  0  0  0  0  0  0  0  0  0  0
  143.8500   70.6860  218.0300 F   0  0  0  0  0  0  0  0  0  0  0  0
  143.0880   70.1690  220.1040 F   0  0  0  0  0  0  0  0  0  0  0  0
  143.0820   73.0950  219.3010 C   0  0  0  0  0  0  0  0  0  0  0  0
  140.2470   71.3300  223.5900 C   0  0  0  0  0  0  0  0  0  0  0  0
  139.6850   70.0820  223.6450 C   0  0  0  0  0  0  0  0  0  0  0  0
  139.5730   69.3950  224.8310 C   0  0  0  0  0  0  0  0  0  0  0  0
  140.0440   69.9870  226.0020 C   0  0  0  0  0  0  0  0  0  0  0  0
  139.9500   69.3300  227.2100 C   0  0  0  0  0  0  0  0  0  0  0  0
  140.4330   69.9560  228.3610 C   0  0  0  0  0  0  0  0  0  0  0  0
  140.9960   71.2110  228.2870 C   0  0  0  0  0  0  0  0  0  0  0  0
  141.0860   71.8650  227.0670 C   0  0  0  0  0  0  0  0  0  0  0  0
  140.6100   71.2500  225.9220 C   0  0  0  0  0  0  0  0  0  0  0  0
  140.6940   71.8740  224.7420 N   0  0  0  0  0  0  0  0  0  0  0  0
  139.6230   73.8510  223.1420 H   0  0  0  0  0  0  0  0  0  0  0  0
  140.6178   73.5993  220.2809 H   0  0  0  0  0  0  0  0  0  0  0  0
  139.0208   74.3294  220.6449 H   0  0  0  0  0  0  0  0  0  0  0  0
  141.2049   78.0936  220.9001 H   0  0  0  0  0  0  0  0  0  0  0  0
  142.8613   77.6340  221.1253 H   0  0  0  0  0  0  0  0  0  0  0  0
  141.3004   78.1146  218.5342 H   0  0  0  0  0  0  0  0  0  0  0  0
  142.9760   78.5680  218.8790 H   0  0  0  0  0  0  0  0  0  0  0  0
  142.2939   76.3845  217.3617 H   0  0  0  0  0  0  0  0  0  0  0  0
  143.7855   76.4280  218.3114 H   0  0  0  0  0  0  0  0  0  0  0  0
  141.3975   74.8027  218.7102 H   0  0  0  0  0  0  0  0  0  0  0  0
  144.2820   75.9149  220.6553 H   0  0  0  0  0  0  0  0  0  0  0  0
  146.0958   74.4098  221.4181 H   0  0  0  0  0  0  0  0  0  0  0  0
  145.9520   71.9876  220.7902 H   0  0  0  0  0  0  0  0  0  0  0  0
  142.2333   72.7273  218.7056 H   0  0  0  0  0  0  0  0  0  0  0  0
  139.3146   69.6185  222.7188 H   0  0  0  0  0  0  0  0  0  0  0  0
  139.1186   68.3935  224.8553 H   0  0  0  0  0  0  0  0  0  0  0  0
  139.5011   68.3274  227.2666 H   0  0  0  0  0  0  0  0  0  0  0  0
  140.3635   69.4441  229.3321 H   0  0  0  0  0  0  0  0  0  0  0  0
  141.3755   71.6962  229.1984 H   0  0  0  0  0  0  0  0  0  0  0  0
  141.5338   72.8681  227.0098 H   0  0  0  0  0  0  0  0  0  0  0  0
  1  2  2  0
  2  3  1  0
  3  4  1  0
  4  5  1  0
  5  6  2  0
  5  7  1  0
  7  8  1  0
  8  9  1  0
  9 10  1  0
 10 11  1  0
 11 12  1  0
 12 13  2  0
 13 14  1  0
 14 15  2  0
 15 16  1  0
 16 17  1  0
 17 18  1  0
 17 19  1  0
 17 20  1  0
 16 21  2  0
  2 22  1  0
 22 23  2  0
 23 24  1  0
 24 25  2  0
 25 26  1  0
 26 27  2  0
 27 28  1  0
 28 29  2  0
 29 30  1  0
 30 31  2  0
 11  7  1  0
 21 12  1  0
 31 22  1  0
 30 25  1  0
  3 32  1  0
  4 33  1  0
  4 34  1  0
  8 35  1  0
  8 36  1  0
  9 37  1  0
  9 38  1  0
 10 39  1  0
 10 40  1  0
 11 41  1  6
 13 42  1  0
 14 43  1  0
 15 44  1  0
 21 45  1  0
 23 46  1  0
 24 47  1  0
 26 48  1  0
 27 49  1  0
 28 50  1  0
 29 51  1  0
M  END
>  <smiles>  (54) 
O=C(NCC(=O)N1CCCC1c1cccc(C(F)(F)F)c1)c1ccc2ccccc2n1

>  <score_type>  (54) 
oracle

>  <origin>  (54) 
autodockgpu

>  <m_score__min__energy>  (54) 
-9.1500000000000004

>  <m_primary>  (54) 
energy

>  <rmsd>  (54) 
2.259952703953705

>  <m_score__min__rmsd>  (54) 
2.259952703953705

>  <meeko>  (54) 
{"free_energy": -8.42, "intermolecular_energy": -10.21, "internal_energy": -2.15, "cluster_size": 12, "cluster_id": 3, "rank_in_cluster": 3}

>  <energy>  (54) 
-8.42

>  <cluster_rmsd>  (54) 
1.86

>  <cluster>  (54) 
1

$$$$

     RDKit          3D

 51 54  0  0  0  0  0  0  0  0999 V2000
  141.0490   74.6050  220.7880 O   0  0  0  0  0  0  0  0  0  0  0  0
  140.1350   74.9410  221.5990 C   0  0  0  0  0  0  0  0  0  0  0  0
  139.1800   73.9900  222.0430 N   0  0  0  0  0  0  0  0  0  0  0  0
  139.1990   72.6120  221.6000 C   0  0  0  0  0  0  0  0  0  0  0  0
  139.6900   71.7470  222.7170 C   0  0  0  0  0  0  0  0  0  0  0  0
  140.4840   72.2290  223.5900 O   0  0  0  0  0  0  0  0  0  0  0  0
  139.3000   70.3910  222.8430 N   0  0  0  0  0  0  0  0  0  0  0  0
  139.5780   69.3880  221.8410 C   0  0  0  0  0  0  0  0  0  0  0  0
  138.4120   68.4460  222.0660 C   0  0  0  0  0  0  0  0  0  0  0  0
  138.0920   68.5340  223.5340 C   0  0  0  0  0  0  0  0  0  0  0  0
  138.5890   69.8610  223.9730 C   0  0  1  0  0  0  0  0  0  0  0  0
  139.4430   69.7890  225.1900 C   0  0  0  0  0  0  0  0  0  0  0  0
  139.9510   68.5700  225.5410 C   0  0  0  0  0  0  0  0  0  0  0  0
  140.7530   68.3740  226.6440 C   0  0  0  0  0  0  0  0  0  0  0  0
  141.0390   69.4860  227.4120 C   0  0  0  0  0  0  0  0  0  0  0  0
  140.5230   70.7310  227.0570 C   0  0  0  0  0  0  0  0  0  0  0  0
  140.8880   71.8660  227.9480 C   0  0  0  0  0  0  0  0  0  0  0  0
  141.4130   72.8940  227.2200 F   0  0  0  0  0  0  0  0  0  0  0  0
  141.8610   71.3900  228.8140 F   0  0  0  0  0  0  0  0  0  0  0  0
  139.7740   72.2660  228.6400 F   0  0  0  0  0  0  0  0  0  0  0  0
  139.7170   70.8900  225.9380 C   0  0  0  0  0  0  0  0  0  0  0  0
  140.0430   76.3030  222.0940 C   0  0  0  0  0  0  0  0  0  0  0  0
  138.8150   76.8630  222.3280 C   0  0  0  0  0  0  0  0  0  0  0  0
  138.6890   78.1500  222.7960 C   0  0  0  0  0  0  0  0  0  0  0  0
  139.8410   78.8970  223.0370 C   0  0  0  0  0  0  0  0  0  0  0  0
  139.7560   80.1910  223.5060 C   0  0  0  0  0  0  0  0  0  0  0  0
  140.9330   80.9060  223.7360 C   0  0  0  0  0  0  0  0  0  0  0  0
  142.1590   80.3270  223.4950 C   0  0  0  0  0  0  0  0  0  0  0  0
  142.2350   79.0250  223.0220 C   0  0  0  0  0  0  0  0  0  0  0  0
  141.0730   78.3090  222.7940 C   0  0  0  0  0  0  0  0  0  0  0  0
  141.1380   77.0540  222.3380 N   0  0  0  0  0  0  0  0  0  0  0  0
  138.4340   74.3100  222.7190 H   0  0  0  0  0  0  0  0  0  0  0  0
  138.1829   72.3028  221.3137 H   0  0  0  0  0  0  0  0  0  0  0  0
  139.8661   72.5106  220.7313 H   0  0  0  0  0  0  0  0  0  0  0  0
  139.5674   69.8130  220.8265 H   0  0  0  0  0  0  0  0  0  0  0  0
  140.5697   68.9192  221.9230 H   0  0  0  0  0  0  0  0  0  0  0  0
  137.5452   68.7590  221.4654 H   0  0  0  0  0  0  0  0  0  0  0  0
  138.6589   67.4169  221.7662 H   0  0  0  0  0  0  0  0  0  0  0  0
  137.0065   68.4581  223.6954 H   0  0  0  0  0  0  0  0  0  0  0  0
  138.5600   67.7164  224.1018 H   0  0  0  0  0  0  0  0  0  0  0  0
  137.7557   70.5129  224.2740 H   0  0  0  0  0  0  0  0  0  0  0  0
  139.7074   67.7016  224.9113 H   0  0  0  0  0  0  0  0  0  0  0  0
  141.1468   67.3795  226.9008 H   0  0  0  0  0  0  0  0  0  0  0  0
  141.6746   69.3888  228.3045 H   0  0  0  0  0  0  0  0  0  0  0  0
  139.3129   71.8761  225.6654 H   0  0  0  0  0  0  0  0  0  0  0  0
  137.9087   76.2695  222.1372 H   0  0  0  0  0  0  0  0  0  0  0  0
  137.6944   78.5833  222.9774 H   0  0  0  0  0  0  0  0  0  0  0  0
  138.7759   80.6528  223.6960 H   0  0  0  0  0  0  0  0  0  0  0  0
  140.8806   81.9384  224.1121 H   0  0  0  0  0  0  0  0  0  0  0  0
  143.0808   80.8986  223.6781 H   0  0  0  0  0  0  0  0  0  0  0  0
  143.2148   78.5638  222.8290 H   0  0  0  0  0  0  0  0  0  0  0  0
  1  2  2  0
  2  3  1  0
  3  4  1  0
  4  5  1  0
  5  6  2  0
  5  7  1  0
  7  8  1  0
  8  9  1  0
  9 10  1  0
 10 11  1  0
 11 12  1  0
 12 13  2  0
 13 14  1  0
 14 15  2  0
 15 16  1  0
 16 17  1  0
 17 18  1  0
 17 19  1  0
 17 20  1  0
 16 21  2  0
  2 22  1  0
 22 23  2  0
 23 24  1  0
 24 25  2  0
 25 26  1  0
 26 27  2  0
 27 28  1  0
 28 29  2  0
 29 30  1  0
 30 31  2  0
 11  7  1  0
 21 12  1  0
 31 22  1  0
 30 25  1  0
  3 32  1  0
  4 33  1  0
  4 34  1  0
  8 35  1  0
  8 36  1  0
  9 37  1  0
  9 38  1  0
 10 39  1  0
 10 40  1  0
 11 41  1  1
 13 42  1  0
 14 43  1  0
 15 44  1  0
 21 45  1  0
 23 46  1  0
 24 47  1  0
 26 48  1  0
 27 49  1  0
 28 50  1  0
 29 51  1  0
M  END
>  <smiles>  (55) 
O=C(NCC(=O)N1CCCC1c1cccc(C(F)(F)F)c1)c1ccc2ccccc2n1

>  <score_type>  (55) 
oracle

>  <origin>  (55) 
autodockgpu

>  <m_score__min__energy>  (55) 
-9.1500000000000004

>  <m_primary>  (55) 
energy

>  <rmsd>  (55) 
8.182578794650908

>  <m_score__min__rmsd>  (55) 
8.182578794650908

>  <meeko>  (55) 
{"free_energy": -9.14, "intermolecular_energy": -10.93, "internal_energy": -1.3, "cluster_size": 5, "cluster_id": 1, "rank_in_cluster": 2}

>  <energy>  (55) 
-8.05

>  <cluster_rmsd>  (55) 
1.02

>  <cluster>  (55) 
1

$$$$

     RDKit          3D

 51 54  0  0  0  0  0  0  0  0999 V2000
  140.1860   71.1580  221.2330 O   0  0  0  0  0  0  0  0  0  0  0  0
  139.9880   71.7990  222.3090 C   0  0  0  0  0  0  0  0  0  0  0  0
  139.7370   73.1940  222.2800 N   0  0  0  0  0  0  0  0  0  0  0  0
  139.6950   73.9460  221.0430 C   0  0  0  0  0  0  0  0  0  0  0  0
  139.7590   75.4070  221.3570 C   0  0  0  0  0  0  0  0  0  0  0  0
  139.5080   75.8120  222.5390 O   0  0  0  0  0  0  0  0  0  0  0  0
  140.0920   76.3720  220.3750 N   0  0  0  0  0  0  0  0  0  0  0  0
  139.2320   76.7030  219.2620 C   0  0  0  0  0  0  0  0  0  0  0  0
  140.2650   77.1260  218.2360 C   0  0  0  0  0  0  0  0  0  0  0  0
  141.3980   77.7300  219.0200 C   0  0  0  0  0  0  0  0  0  0  0  0
  141.3140   77.1280  220.3740 C   0  0  1  0  0  0  0  0  0  0  0  0
  141.3480   78.1410  221.4640 C   0  0  0  0  0  0  0  0  0  0  0  0
  141.4380   77.6910  222.7510 C   0  0  0  0  0  0  0  0  0  0  0  0
  141.4770   78.5280  223.8440 C   0  0  0  0  0  0  0  0  0  0  0  0
  141.4220   79.8850  223.5920 C   0  0  0  0  0  0  0  0  0  0  0  0
  141.3310   80.3480  222.2810 C   0  0  0  0  0  0  0  0  0  0  0  0
  141.2760   81.8260  222.1130 C   0  0  0  0  0  0  0  0  0  0  0  0
  141.7820   82.1880  220.8980 F   0  0  0  0  0  0  0  0  0  0  0  0
  142.0770   82.3650  223.1090 F   0  0  0  0  0  0  0  0  0  0  0  0
  139.9780   82.2440  222.2550 F   0  0  0  0  0  0  0  0  0  0  0  0
  141.2930   79.4740  221.2030 C   0  0  0  0  0  0  0  0  0  0  0  0
  140.0130   71.1230  223.5940 C   0  0  0  0  0  0  0  0  0  0  0  0
  139.5340   69.8440  223.7020 C   0  0  0  0  0  0  0  0  0  0  0  0
  139.5410   69.1730  224.9030 C   0  0  0  0  0  0  0  0  0  0  0  0
  140.0500   69.8140  226.0320 C   0  0  0  0  0  0  0  0  0  0  0  0
  140.0750   69.1730  227.2530 C   0  0  0  0  0  0  0  0  0  0  0  0
  140.5930   69.8480  228.3600 C   0  0  0  0  0  0  0  0  0  0  0  0
  141.0710   71.1340  228.2320 C   0  0  0  0  0  0  0  0  0  0  0  0
  141.0410   71.7700  227.0000 C   0  0  0  0  0  0  0  0  0  0  0  0
  140.5300   71.1070  225.8970 C   0  0  0  0  0  0  0  0  0  0  0  0
  140.4990   71.7140  224.7060 N   0  0  0  0  0  0  0  0  0  0  0  0
  139.5770   73.6920  223.1970 H   0  0  0  0  0  0  0  0  0  0  0  0
  140.5521   73.6667  220.4127 H   0  0  0  0  0  0  0  0  0  0  0  0
  138.7621   73.7228  220.5047 H   0  0  0  0  0  0  0  0  0  0  0  0
  138.6538   75.8314  218.9215 H   0  0  0  0  0  0  0  0  0  0  0  0
  138.4657   77.4608  219.4824 H   0  0  0  0  0  0  0  0  0  0  0  0
  140.6165   76.2543  217.6645 H   0  0  0  0  0  0  0  0  0  0  0  0
  139.8473   77.8410  217.5120 H   0  0  0  0  0  0  0  0  0  0  0  0
  142.3624   77.4858  218.5507 H   0  0  0  0  0  0  0  0  0  0  0  0
  141.3266   78.8270  219.0579 H   0  0  0  0  0  0  0  0  0  0  0  0
  142.1886   76.4926  220.5774 H   0  0  0  0  0  0  0  0  0  0  0  0
  141.4815   76.6054  222.9228 H   0  0  0  0  0  0  0  0  0  0  0  0
  141.5485   78.1346  224.8688 H   0  0  0  0  0  0  0  0  0  0  0  0
  141.4501   80.6006  224.4269 H   0  0  0  0  0  0  0  0  0  0  0  0
  141.2207   79.8480  220.1711 H   0  0  0  0  0  0  0  0  0  0  0  0
  139.1348   69.3422  222.8082 H   0  0  0  0  0  0  0  0  0  0  0  0
  139.1511   68.1467  224.9716 H   0  0  0  0  0  0  0  0  0  0  0  0
  139.6929   68.1463  227.3531 H   0  0  0  0  0  0  0  0  0  0  0  0
  140.6197   69.3501  229.3405 H   0  0  0  0  0  0  0  0  0  0  0  0
  141.4776   71.6577  229.1097 H   0  0  0  0  0  0  0  0  0  0  0  0
  141.4217   72.7971  226.8994 H   0  0  0  0  0  0  0  0  0  0  0  0
  1  2  2  0
  2  3  1  0
  3  4  1  0
  4  5  1  0
  5  6  2  0
  5  7  1  0
  7  8  1  0
  8  9  1  0
  9 10  1  0
 10 11  1  0
 11 12  1  0
 12 13  2  0
 13 14  1  0
 14 15  2  0
 15 16  1  0
 16 17  1  0
 17 18  1  0
 17 19  1  0
 17 20  1  0
 16 21  2  0
  2 22  1  0
 22 23  2  0
 23 24  1  0
 24 25  2  0
 25 26  1  0
 26 27  2  0
 27 28  1  0
 28 29  2  0
 29 30  1  0
 30 31  2  0
 11  7  1  0
 21 12  1  0
 31 22  1  0
 30 25  1  0
  3 32  1  0
  4 33  1  0
  4 34  1  0
  8 35  1  0
  8 36  1  0
  9 37  1  0
  9 38  1  0
 10 39  1  0
 10 40  1  0
 11 41  1  1
 13 42  1  0
 14 43  1  0
 15 44  1  0
 21 45  1  0
 23 46  1  0
 24 47  1  0
 26 48  1  0
 27 49  1  0
 28 50  1  0
 29 51  1  0
M  END
>  <smiles>  (56) 
O=C(NCC(=O)N1CCCC1c1cccc(C(F)(F)F)c1)c1ccc2ccccc2n1

>  <score_type>  (56) 
oracle

>  <origin>  (56) 
autodockgpu

>  <m_score__min__energy>  (56) 
-9.1500000000000004

>  <m_primary>  (56) 
energy

>  <rmsd>  (56) 
1.3147325505108776

>  <m_score__min__rmsd>  (56) 
1.3147325505108776

>  <meeko>  (56) 
{"free_energy": -8.33, "intermolecular_energy": -10.12, "internal_energy": -1.89, "cluster_size": 27, "cluster_id": 2, "rank_in_cluster": 23}

>  <energy>  (56) 
-8.89

>  <cluster_rmsd>  (56) 
0.0

>  <cluster>  (56) 
2

$$$$

     RDKit          3D

 51 54  0  0  0  0  0  0  0  0999 V2000
  139.8920   71.2710  221.2720 O   0  0  0  0  0  0  0  0  0  0  0  0
  139.8080   71.9000  222.3700 C   0  0  0  0  0  0  0  0  0  0  0  0
  139.6040   73.3040  222.3810 N   0  0  0  0  0  0  0  0  0  0  0  0
  139.4830   74.0770  221.1640 C   0  0  0  0  0  0  0  0  0  0  0  0
  139.3000   75.5190  221.5170 C   0  0  0  0  0  0  0  0  0  0  0  0
  138.9330   75.8410  222.6940 O   0  0  0  0  0  0  0  0  0  0  0  0
  139.5230   76.5560  220.5780 N   0  0  0  0  0  0  0  0  0  0  0  0
  138.4970   77.0630  219.6960 C   0  0  0  0  0  0  0  0  0  0  0  0
  139.3440   77.5170  218.5230 C   0  0  0  0  0  0  0  0  0  0  0  0
  140.6590   77.9520  219.1120 C   0  0  0  0  0  0  0  0  0  0  0  0
  140.7850   77.2180  220.3960 C   0  0  1  0  0  0  0  0  0  0  0  0
  141.1240   78.1050  221.5420 C   0  0  0  0  0  0  0  0  0  0  0  0
  141.4360   77.5150  222.7340 C   0  0  0  0  0  0  0  0  0  0  0  0
  141.7650   78.2280  223.8670 C   0  0  0  0  0  0  0  0  0  0  0  0
  141.7720   79.6050  223.7570 C   0  0  0  0  0  0  0  0  0  0  0  0
  141.4540   80.2100  222.5430 C   0  0  0  0  0  0  0  0  0  0  0  0
  141.4880   81.6980  222.5260 C   0  0  0  0  0  0  0  0  0  0  0  0
  142.1490   82.1480  221.4200 F   0  0  0  0  0  0  0  0  0  0  0  0
  142.1910   82.0880  223.6560 F   0  0  0  0  0  0  0  0  0  0  0  0
  140.2030   82.1740  222.5660 F   0  0  0  0  0  0  0  0  0  0  0  0
  141.1260   79.4590  221.4220 C   0  0  0  0  0  0  0  0  0  0  0  0
  139.9190   71.2020  223.6390 C   0  0  0  0  0  0  0  0  0  0  0  0
  139.5450   69.8880  223.7300 C   0  0  0  0  0  0  0  0  0  0  0  0
  139.6370   69.1960  224.9150 C   0  0  0  0  0  0  0  0  0  0  0  0
  140.1230   69.8520  226.0450 C   0  0  0  0  0  0  0  0  0  0  0  0
  140.2290   69.1910  227.2510 C   0  0  0  0  0  0  0  0  0  0  0  0
  140.7210   69.8820  228.3600 C   0  0  0  0  0  0  0  0  0  0  0  0
  141.0930   71.2030  228.2490 C   0  0  0  0  0  0  0  0  0  0  0  0
  140.9820   71.8600  227.0320 C   0  0  0  0  0  0  0  0  0  0  0  0
  140.4960   71.1810  225.9280 C   0  0  0  0  0  0  0  0  0  0  0  0
  140.3860   71.8070  224.7520 N   0  0  0  0  0  0  0  0  0  0  0  0
  139.5400   73.7910  223.3160 H   0  0  0  0  0  0  0  0  0  0  0  0
  140.3946   73.9583  220.5600 H   0  0  0  0  0  0  0  0  0  0  0  0
  138.6168   73.7241  220.5851 H   0  0  0  0  0  0  0  0  0  0  0  0
  137.7866   76.2756  219.4038 H   0  0  0  0  0  0  0  0  0  0  0  0
  137.8610   77.8465  220.1338 H   0  0  0  0  0  0  0  0  0  0  0  0
  139.4962   76.6877  217.8165 H   0  0  0  0  0  0  0  0  0  0  0  0
  138.8602   78.3325  217.9654 H   0  0  0  0  0  0  0  0  0  0  0  0
  141.4872   77.6898  218.4372 H   0  0  0  0  0  0  0  0  0  0  0  0
  140.6972   79.0412  219.2610 H   0  0  0  0  0  0  0  0  0  0  0  0
  141.6202   76.5030  220.3600 H   0  0  0  0  0  0  0  0  0  0  0  0
  141.4241   76.4166  222.7926 H   0  0  0  0  0  0  0  0  0  0  0  0
  142.0103   77.7244  224.8137 H   0  0  0  0  0  0  0  0  0  0  0  0
  142.0289   80.2245  224.6289 H   0  0  0  0  0  0  0  0  0  0  0  0
  140.8758   79.9444  220.4671 H   0  0  0  0  0  0  0  0  0  0  0  0
  139.1625   69.3745  222.8356 H   0  0  0  0  0  0  0  0  0  0  0  0
  139.3316   68.1407  224.9703 H   0  0  0  0  0  0  0  0  0  0  0  0
  139.9306   68.1358  227.3377 H   0  0  0  0  0  0  0  0  0  0  0  0
  140.8119   69.3679  229.3282 H   0  0  0  0  0  0  0  0  0  0  0  0
  141.4795   71.7393  229.1282 H   0  0  0  0  0  0  0  0  0  0  0  0
  141.2788   72.9156  226.9449 H   0  0  0  0  0  0  0  0  0  0  0  0
  1  2  2  0
  2  3  1  0
  3  4  1  0
  4  5  1  0
  5  6  2  0
  5  7  1  0
  7  8  1  0
  8  9  1  0
  9 10  1  0
 10 11  1  0
 11 12  1  0
 12 13  2  0
 13 14  1  0
 14 15  2  0
 15 16  1  0
 16 17  1  0
 17 18  1  0
 17 19  1  0
 17 20  1  0
 16 21  2  0
  2 22  1  0
 22 23  2  0
 23 24  1  0
 24 25  2  0
 25 26  1  0
 26 27  2  0
 27 28  1  0
 28 29  2  0
 29 30  1  0
 30 31  2  0
 11  7  1  0
 21 12  1  0
 31 22  1  0
 30 25  1  0
  3 32  1  0
  4 33  1  0
  4 34  1  0
  8 35  1  0
  8 36  1  0
  9 37  1  0
  9 38  1  0
 10 39  1  0
 10 40  1  0
 11 41  1  6
 13 42  1  0
 14 43  1  0
 15 44  1  0
 21 45  1  0
 23 46  1  0
 24 47  1  0
 26 48  1  0
 27 49  1  0
 28 50  1  0
 29 51  1  0
M  END
>  <smiles>  (57) 
O=C(NCC(=O)N1CCCC1c1cccc(C(F)(F)F)c1)c1ccc2ccccc2n1

>  <score_type>  (57) 
oracle

>  <origin>  (57) 
autodockgpu

>  <m_score__min__energy>  (57) 
-9.1500000000000004

>  <m_primary>  (57) 
energy

>  <rmsd>  (57) 
1.4565776096131566

>  <m_score__min__rmsd>  (57) 
1.4565776096131566

>  <meeko>  (57) 
{"free_energy": -8.04, "intermolecular_energy": -9.83, "internal_energy": -2.07, "cluster_size": 27, "cluster_id": 2, "rank_in_cluster": 27}

>  <energy>  (57) 
-8.88

>  <cluster_rmsd>  (57) 
0.06

>  <cluster>  (57) 
2

$$$$

     RDKit          3D

 51 54  0  0  0  0  0  0  0  0999 V2000
  140.6300   71.4110  221.3060 O   0  0  0  0  0  0  0  0  0  0  0  0
  140.2300   72.0140  222.3460 C   0  0  0  0  0  0  0  0  0  0  0  0
  139.8430   73.3770  222.2850 N   0  0  0  0  0  0  0  0  0  0  0  0
  139.8840   74.1370  221.0530 C   0  0  0  0  0  0  0  0  0  0  0  0
  140.6340   75.4100  221.2890 C   0  0  0  0  0  0  0  0  0  0  0  0
  140.4850   76.0380  222.3880 O   0  0  0  0  0  0  0  0  0  0  0  0
  141.5160   75.9520  220.3230 N   0  0  0  0  0  0  0  0  0  0  0  0
  142.1550   77.2400  220.4640 C   0  0  0  0  0  0  0  0  0  0  0  0
  142.3170   77.6260  219.0080 C   0  0  0  0  0  0  0  0  0  0  0  0
  142.5100   76.3340  218.2610 C   0  0  0  0  0  0  0  0  0  0  0  0
  141.8770   75.2880  219.1010 C   0  0  1  0  0  0  0  0  0  0  0  0
  142.7650   74.1170  219.3390 C   0  0  0  0  0  0  0  0  0  0  0  0
  142.3330   72.8920  218.9170 C   0  0  0  0  0  0  0  0  0  0  0  0
  143.0620   71.7350  219.0800 C   0  0  0  0  0  0  0  0  0  0  0  0
  144.2880   71.8540  219.7060 C   0  0  0  0  0  0  0  0  0  0  0  0
  144.7330   73.1020  220.1380 C   0  0  0  0  0  0  0  0  0  0  0  0
  146.0650   73.1260  220.8010 C   0  0  0  0  0  0  0  0  0  0  0  0
  146.8250   74.1470  220.3090 F   0  0  0  0  0  0  0  0  0  0  0  0
  146.6800   71.9220  220.4930 F   0  0  0  0  0  0  0  0  0  0  0  0
  145.8870   73.2480  222.1550 F   0  0  0  0  0  0  0  0  0  0  0  0
  143.9690   74.2470  219.9570 C   0  0  0  0  0  0  0  0  0  0  0  0
  140.1570   71.3270  223.6240 C   0  0  0  0  0  0  0  0  0  0  0  0
  139.5940   70.0810  223.6980 C   0  0  0  0  0  0  0  0  0  0  0  0
  139.5090   69.4010  224.8900 C   0  0  0  0  0  0  0  0  0  0  0  0
  140.0090   69.9980  226.0460 C   0  0  0  0  0  0  0  0  0  0  0  0
  139.9410   69.3470  227.2610 C   0  0  0  0  0  0  0  0  0  0  0  0
  140.4530   69.9790  228.3960 C   0  0  0  0  0  0  0  0  0  0  0  0
  141.0160   71.2330  228.3020 C   0  0  0  0  0  0  0  0  0  0  0  0
  141.0790   71.8790  227.0770 C   0  0  0  0  0  0  0  0  0  0  0  0
  140.5750   71.2600  225.9470 C   0  0  0  0  0  0  0  0  0  0  0  0
  140.6320   71.8770  224.7620 N   0  0  0  0  0  0  0  0  0  0  0  0
  139.5150   73.8440  223.1740 H   0  0  0  0  0  0  0  0  0  0  0  0
  140.3917   73.5492  220.2741 H   0  0  0  0  0  0  0  0  0  0  0  0
  138.8596   74.3655  220.7237 H   0  0  0  0  0  0  0  0  0  0  0  0
  141.5162   77.9536  221.0051 H   0  0  0  0  0  0  0  0  0  0  0  0
  143.0904   77.2278  221.0427 H   0  0  0  0  0  0  0  0  0  0  0  0
  141.4176   78.1465  218.6472 H   0  0  0  0  0  0  0  0  0  0  0  0
  143.1667   78.3091  218.8621 H   0  0  0  0  0  0  0  0  0  0  0  0
  142.0217   76.3832  217.2766 H   0  0  0  0  0  0  0  0  0  0  0  0
  143.5746   76.1228  218.0822 H   0  0  0  0  0  0  0  0  0  0  0  0
  141.0003   74.8556  218.5966 H   0  0  0  0  0  0  0  0  0  0  0  0
  141.3530   72.8262  218.4218 H   0  0  0  0  0  0  0  0  0  0  0  0
  142.6862   70.7627  218.7287 H   0  0  0  0  0  0  0  0  0  0  0  0
  144.9134   70.9629  219.8635 H   0  0  0  0  0  0  0  0  0  0  0  0
  144.3264   75.2282  220.3026 H   0  0  0  0  0  0  0  0  0  0  0  0
  139.2008   69.6135  222.7832 H   0  0  0  0  0  0  0  0  0  0  0  0
  139.0532   68.4007  224.9307 H   0  0  0  0  0  0  0  0  0  0  0  0
  139.4906   68.3461  227.3341 H   0  0  0  0  0  0  0  0  0  0  0  0
  140.4066   69.4725  229.3713 H   0  0  0  0  0  0  0  0  0  0  0  0
  141.4167   71.7230  229.2016 H   0  0  0  0  0  0  0  0  0  0  0  0
  141.5282   72.8804  227.0037 H   0  0  0  0  0  0  0  0  0  0  0  0
  1  2  2  0
  2  3  1  0
  3  4  1  0
  4  5  1  0
  5  6  2  0
  5  7  1  0
  7  8  1  0
  8  9  1  0
  9 10  1  0
 10 11  1  0
 11 12  1  0
 12 13  2  0
 13 14  1  0
 14 15  2  0
 15 16  1  0
 16 17  1  0
 17 18  1  0
 17 19  1  0
 17 20  1  0
 16 21  2  0
  2 22  1  0
 22 23  2  0
 23 24  1  0
 24 25  2  0
 25 26  1  0
 26 27  2  0
 27 28  1  0
 28 29  2  0
 29 30  1  0
 30 31  2  0
 11  7  1  0
 21 12  1  0
 31 22  1  0
 30 25  1  0
  3 32  1  0
  4 33  1  0
  4 34  1  0
  8 35  1  0
  8 36  1  0
  9 37  1  0
  9 38  1  0
 10 39  1  0
 10 40  1  0
 11 41  1  6
 13 42  1  0
 14 43  1  0
 15 44  1  0
 21 45  1  0
 23 46  1  0
 24 47  1  0
 26 48  1  0
 27 49  1  0
 28 50  1  0
 29 51  1  0
M  END
>  <smiles>  (58) 
O=C(NCC(=O)N1CCCC1c1cccc(C(F)(F)F)c1)c1ccc2ccccc2n1

>  <score_type>  (58) 
oracle

>  <origin>  (58) 
autodockgpu

>  <m_score__min__energy>  (58) 
-9.1500000000000004

>  <m_primary>  (58) 
energy

>  <rmsd>  (58) 
2.23808277042567

>  <m_score__min__rmsd>  (58) 
2.23808277042567

>  <meeko>  (58) 
{"free_energy": -8.16, "intermolecular_energy": -9.95, "internal_energy": -2.09, "cluster_size": 12, "cluster_id": 3, "rank_in_cluster": 7}

>  <energy>  (58) 
-8.88

>  <cluster_rmsd>  (58) 
0.06

>  <cluster>  (58) 
2

$$$$

     RDKit          3D

 51 54  0  0  0  0  0  0  0  0999 V2000
  140.1160   71.3720  221.2470 O   0  0  0  0  0  0  0  0  0  0  0  0
  139.9470   71.9920  222.3400 C   0  0  0  0  0  0  0  0  0  0  0  0
  139.7120   73.3900  222.3460 N   0  0  0  0  0  0  0  0  0  0  0  0
  139.6540   74.1690  221.1270 C   0  0  0  0  0  0  0  0  0  0  0  0
  140.0050   75.5890  221.4370 C   0  0  0  0  0  0  0  0  0  0  0  0
  139.7610   76.0640  222.5950 O   0  0  0  0  0  0  0  0  0  0  0  0
  140.6090   76.4390  220.4790 N   0  0  0  0  0  0  0  0  0  0  0  0
  140.1230   76.5830  219.1260 C   0  0  0  0  0  0  0  0  0  0  0  0
  141.4120   76.9270  218.4060 C   0  0  0  0  0  0  0  0  0  0  0  0
  142.2480   77.6820  219.4040 C   0  0  0  0  0  0  0  0  0  0  0  0
  141.7660   77.2510  220.7390 C   0  0  1  0  0  0  0  0  0  0  0  0
  141.4580   78.3930  221.6430 C   0  0  0  0  0  0  0  0  0  0  0  0
  141.5430   78.1810  222.9900 C   0  0  0  0  0  0  0  0  0  0  0  0
  141.2820   79.1570  223.9270 C   0  0  0  0  0  0  0  0  0  0  0  0
  140.9200   80.4010  223.4470 C   0  0  0  0  0  0  0  0  0  0  0  0
  140.8320   80.6210  222.0740 C   0  0  0  0  0  0  0  0  0  0  0  0
  140.4340   81.9930  221.6560 C   0  0  0  0  0  0  0  0  0  0  0  0
  140.2370   82.0440  220.3070 F   0  0  0  0  0  0  0  0  0  0  0  0
  141.4920   82.8270  221.9860 F   0  0  0  0  0  0  0  0  0  0  0  0
  139.3000   82.3550  222.3380 F   0  0  0  0  0  0  0  0  0  0  0  0
  141.1020   79.6120  221.1590 C   0  0  0  0  0  0  0  0  0  0  0  0
  139.9900   71.2880  223.6100 C   0  0  0  0  0  0  0  0  0  0  0  0
  139.5400   69.9970  223.6910 C   0  0  0  0  0  0  0  0  0  0  0  0
  139.5650   69.3000  224.8760 C   0  0  0  0  0  0  0  0  0  0  0  0
  140.0630   69.9260  226.0180 C   0  0  0  0  0  0  0  0  0  0  0  0
  140.1050   69.2590  227.2240 C   0  0  0  0  0  0  0  0  0  0  0  0
  140.6110   69.9200  228.3450 C   0  0  0  0  0  0  0  0  0  0  0  0
  141.0600   71.2190  228.2450 C   0  0  0  0  0  0  0  0  0  0  0  0
  141.0130   71.8810  227.0270 C   0  0  0  0  0  0  0  0  0  0  0  0
  140.5140   71.2320  225.9110 C   0  0  0  0  0  0  0  0  0  0  0  0
  140.4660   71.8640  224.7340 N   0  0  0  0  0  0  0  0  0  0  0  0
  139.5770   73.8700  223.2770 H   0  0  0  0  0  0  0  0  0  0  0  0
  140.3695   73.7637  220.3964 H   0  0  0  0  0  0  0  0  0  0  0  0
  138.6394   74.1216  220.7047 H   0  0  0  0  0  0  0  0  0  0  0  0
  139.6849   75.6468  218.7498 H   0  0  0  0  0  0  0  0  0  0  0  0
  139.3178   77.3224  219.0039 H   0  0  0  0  0  0  0  0  0  0  0  0
  141.9298   76.0102  218.0877 H   0  0  0  0  0  0  0  0  0  0  0  0
  141.2243   77.5230  217.5007 H   0  0  0  0  0  0  0  0  0  0  0  0
  143.3119   77.4311  219.2810 H   0  0  0  0  0  0  0  0  0  0  0  0
  142.1555   78.7700  219.2707 H   0  0  0  0  0  0  0  0  0  0  0  0
  142.5458   76.6917  221.2767 H   0  0  0  0  0  0  0  0  0  0  0  0
  141.8344   77.1812  223.3442 H   0  0  0  0  0  0  0  0  0  0  0  0
  141.3582   78.9554  225.0057 H   0  0  0  0  0  0  0  0  0  0  0  0
  140.7010   81.2186  224.1496 H   0  0  0  0  0  0  0  0  0  0  0  0
  141.0300   79.7937  220.0765 H   0  0  0  0  0  0  0  0  0  0  0  0
  139.1495   69.5064  222.7872 H   0  0  0  0  0  0  0  0  0  0  0  0
  139.1977   68.2642  224.9223 H   0  0  0  0  0  0  0  0  0  0  0  0
  139.7455   68.2223  227.3018 H   0  0  0  0  0  0  0  0  0  0  0  0
  140.6515   69.4007  229.3139 H   0  0  0  0  0  0  0  0  0  0  0  0
  141.4567   71.7322  229.1334 H   0  0  0  0  0  0  0  0  0  0  0  0
  141.3710   72.9181  226.9483 H   0  0  0  0  0  0  0  0  0  0  0  0
  1  2  2  0
  2  3  1  0
  3  4  1  0
  4  5  1  0
  5  6  2  0
  5  7  1  0
  7  8  1  0
  8  9  1  0
  9 10  1  0
 10 11  1  0
 11 12  1  0
 12 13  2  0
 13 14  1  0
 14 15  2  0
 15 16  1  0
 16 17  1  0
 17 18  1  0
 17 19  1  0
 17 20  1  0
 16 21  2  0
  2 22  1  0
 22 23  2  0
 23 24  1  0
 24 25  2  0
 25 26  1  0
 26 27  2  0
 27 28  1  0
 28 29  2  0
 29 30  1  0
 30 31  2  0
 11  7  1  0
 21 12  1  0
 31 22  1  0
 30 25  1  0
  3 32  1  0
  4 33  1  0
  4 34  1  0
  8 35  1  0
  8 36  1  0
  9 37  1  0
  9 38  1  0
 10 39  1  0
 10 40  1  0
 11 41  1  1
 13 42  1  0
 14 43  1  0
 15 44  1  0
 21 45  1  0
 23 46  1  0
 24 47  1  0
 26 48  1  0
 27 49  1  0
 28 50  1  0
 29 51  1  0
M  END
>  <smiles>  (59) 
O=C(NCC(=O)N1CCCC1c1cccc(C(F)(F)F)c1)c1ccc2ccccc2n1

>  <score_type>  (59) 
oracle

>  <origin>  (59) 
autodockgpu

>  <m_score__min__energy>  (59) 
-9.1500000000000004

>  <m_primary>  (59) 
energy

>  <rmsd>  (59) 
1.5075695428610887

>  <m_score__min__rmsd>  (59) 
1.5075695428610887

>  <meeko>  (59) 
{"free_energy": -8.56, "intermolecular_energy": -10.35, "internal_energy": -1.9, "cluster_size": 27, "cluster_id": 2, "rank_in_cluster": 18}

>  <energy>  (59) 
-8.87

>  <cluster_rmsd>  (59) 
0.06

>  <cluster>  (59) 
2

$$$$

     RDKit          3D

 51 54  0  0  0  0  0  0  0  0999 V2000
  139.9550   71.2820  221.1740 O   0  0  0  0  0  0  0  0  0  0  0  0
  139.8760   71.9530  222.2470 C   0  0  0  0  0  0  0  0  0  0  0  0
  139.7520   73.3650  222.2040 N   0  0  0  0  0  0  0  0  0  0  0  0
  139.7100   74.1000  220.9570 C   0  0  0  0  0  0  0  0  0  0  0  0
  140.4970   75.3620  221.1070 C   0  0  0  0  0  0  0  0  0  0  0  0
  140.5890   75.9210  222.2490 O   0  0  0  0  0  0  0  0  0  0  0  0
  141.1570   75.9700  220.0110 N   0  0  0  0  0  0  0  0  0  0  0  0
  140.8060   75.7160  218.6320 C   0  0  0  0  0  0  0  0  0  0  0  0
  142.1450   75.9500  217.9610 C   0  0  0  0  0  0  0  0  0  0  0  0
  142.8380   77.0000  218.7870 C   0  0  0  0  0  0  0  0  0  0  0  0
  142.2410   76.9030  220.1420 C   0  0  1  0  0  0  0  0  0  0  0  0
  141.7900   78.2180  220.6730 C   0  0  0  0  0  0  0  0  0  0  0  0
  141.1000   79.0440  219.8310 C   0  0  0  0  0  0  0  0  0  0  0  0
  140.6300   80.2840  220.2040 C   0  0  0  0  0  0  0  0  0  0  0  0
  140.8860   80.6830  221.5020 C   0  0  0  0  0  0  0  0  0  0  0  0
  141.5890   79.8440  222.3640 C   0  0  0  0  0  0  0  0  0  0  0  0
  141.8150   80.3630  223.7400 C   0  0  0  0  0  0  0  0  0  0  0  0
  143.0350   80.9680  223.8280 F   0  0  0  0  0  0  0  0  0  0  0  0
  141.7990   79.2630  224.5840 F   0  0  0  0  0  0  0  0  0  0  0  0
  140.8040   81.2340  224.0590 F   0  0  0  0  0  0  0  0  0  0  0  0
  142.0480   78.6000  221.9520 C   0  0  0  0  0  0  0  0  0  0  0  0
  139.9110   71.2960  223.5410 C   0  0  0  0  0  0  0  0  0  0  0  0
  139.3990   70.0340  223.6800 C   0  0  0  0  0  0  0  0  0  0  0  0
  139.4150   69.3810  224.8910 C   0  0  0  0  0  0  0  0  0  0  0  0
  139.9670   70.0240  225.9980 C   0  0  0  0  0  0  0  0  0  0  0  0
  140.0010   69.4010  227.2280 C   0  0  0  0  0  0  0  0  0  0  0  0
  140.5620   70.0780  228.3130 C   0  0  0  0  0  0  0  0  0  0  0  0
  141.0730   71.3470  228.1540 C   0  0  0  0  0  0  0  0  0  0  0  0
  141.0340   71.9650  226.9130 C   0  0  0  0  0  0  0  0  0  0  0  0
  140.4800   71.3010  225.8330 C   0  0  0  0  0  0  0  0  0  0  0  0
  140.4390   71.8900  224.6330 N   0  0  0  0  0  0  0  0  0  0  0  0
  139.6890   73.8890  223.1190 H   0  0  0  0  0  0  0  0  0  0  0  0
  140.1453   73.4876  220.1535 H   0  0  0  0  0  0  0  0  0  0  0  0
  138.6671   74.3412  220.7037 H   0  0  0  0  0  0  0  0  0  0  0  0
  140.4528   74.6846  218.4858 H   0  0  0  0  0  0  0  0  0  0  0  0
  139.9840   76.3364  218.2455 H   0  0  0  0  0  0  0  0  0  0  0  0
  142.7347   75.0215  217.9481 H   0  0  0  0  0  0  0  0  0  0  0  0
  142.0242   76.2708  216.9158 H   0  0  0  0  0  0  0  0  0  0  0  0
  143.9194   76.8029  218.8292 H   0  0  0  0  0  0  0  0  0  0  0  0
  142.7098   78.0046  218.3576 H   0  0  0  0  0  0  0  0  0  0  0  0
  142.9852   76.5631  220.8772 H   0  0  0  0  0  0  0  0  0  0  0  0
  140.9102   78.7013  218.8031 H   0  0  0  0  0  0  0  0  0  0  0  0
  140.0773   80.9259  219.5022 H   0  0  0  0  0  0  0  0  0  0  0  0
  140.5345   81.6637  221.8549 H   0  0  0  0  0  0  0  0  0  0  0  0
  142.6030   77.9441  222.6389 H   0  0  0  0  0  0  0  0  0  0  0  0
  138.9649   69.5305  222.8036 H   0  0  0  0  0  0  0  0  0  0  0  0
  138.9986   68.3671  224.9843 H   0  0  0  0  0  0  0  0  0  0  0  0
  139.5928   68.3871  227.3524 H   0  0  0  0  0  0  0  0  0  0  0  0
  140.5959   69.5948  229.3006 H   0  0  0  0  0  0  0  0  0  0  0  0
  141.5136   71.8722  229.0143 H   0  0  0  0  0  0  0  0  0  0  0  0
  141.4419   72.9789  226.7879 H   0  0  0  0  0  0  0  0  0  0  0  0
  1  2  2  0
  2  3  1  0
  3  4  1  0
  4  5  1  0
  5  6  2  0
  5  7  1  0
  7  8  1  0
  8  9  1  0
  9 10  1  0
 10 11  1  0
 11 12  1  0
 12 13  2  0
 13 14  1  0
 14 15  2  0
 15 16  1  0
 16 17  1  0
 17 18  1  0
 17 19  1  0
 17 20  1  0
 16 21  2  0
  2 22  1  0
 22 23  2  0
 23 24  1  0
 24 25  2  0
 25 26  1  0
 26 27  2  0
 27 28  1  0
 28 29  2  0
 29 30  1  0
 30 31  2  0
 11  7  1  0
 21 12  1  0
 31 22  1  0
 30 25  1  0
  3 32  1  0
  4 33  1  0
  4 34  1  0
  8 35  1  0
  8 36  1  0
  9 37  1  0
  9 38  1  0
 10 39  1  0
 10 40  1  0
 11 41  1  1
 13 42  1  0
 14 43  1  0
 15 44  1  0
 21 45  1  0
 23 46  1  0
 24 47  1  0
 26 48  1  0
 27 49  1  0
 28 50  1  0
 29 51  1  0
M  END
>  <smiles>  (60) 
O=C(NCC(=O)N1CCCC1c1cccc(C(F)(F)F)c1)c1ccc2ccccc2n1

>  <score_type>  (60) 
oracle

>  <origin>  (60) 
autodockgpu

>  <m_score__min__energy>  (60) 
-9.1500000000000004

>  <m_primary>  (60) 
energy

>  <rmsd>  (60) 
1.5376597010226971

>  <m_score__min__rmsd>  (60) 
1.5376597010226971

>  <meeko>  (60) 
{"free_energy": -8.32, "intermolecular_energy": -10.11, "internal_energy": -1.89, "cluster_size": 27, "cluster_id": 2, "rank_in_cluster": 24}

>  <energy>  (60) 
-8.87

>  <cluster_rmsd>  (60) 
0.06

>  <cluster>  (60) 
2

$$$$

     RDKit          3D

 51 54  0  0  0  0  0  0  0  0999 V2000
  140.2480   71.1590  221.2000 O   0  0  0  0  0  0  0  0  0  0  0  0
  140.0340   71.7940  222.2750 C   0  0  0  0  0  0  0  0  0  0  0  0
  139.7790   73.1890  222.2480 N   0  0  0  0  0  0  0  0  0  0  0  0
  139.7510   73.9460  221.0150 C   0  0  0  0  0  0  0  0  0  0  0  0
  140.2100   75.3430  221.2880 C   0  0  0  0  0  0  0  0  0  0  0  0
  139.6850   76.0080  222.2390 O   0  0  0  0  0  0  0  0  0  0  0  0
  141.2240   75.9640  220.5170 N   0  0  0  0  0  0  0  0  0  0  0  0
  141.8250   77.2300  220.8690 C   0  0  0  0  0  0  0  0  0  0  0  0
  142.2010   77.7450  219.4930 C   0  0  0  0  0  0  0  0  0  0  0  0
  142.5120   76.5250  218.6700 C   0  0  0  0  0  0  0  0  0  0  0  0
  141.7670   75.4110  219.3080 C   0  0  1  0  0  0  0  0  0  0  0  0
  142.6170   74.2180  219.5690 C   0  0  0  0  0  0  0  0  0  0  0  0
  142.0940   72.9870  219.2890 C   0  0  0  0  0  0  0  0  0  0  0  0
  142.7810   71.8100  219.4880 C   0  0  0  0  0  0  0  0  0  0  0  0
  144.0610   71.9130  219.9960 C   0  0  0  0  0  0  0  0  0  0  0  0
  144.5990   73.1660  220.2830 C   0  0  0  0  0  0  0  0  0  0  0  0
  145.9840   73.1720  220.8270 C   0  0  0  0  0  0  0  0  0  0  0  0
  145.9650   73.3400  222.1810 F   0  0  0  0  0  0  0  0  0  0  0  0
  146.6280   74.2570  220.2520 F   0  0  0  0  0  0  0  0  0  0  0  0
  146.6050   71.9990  220.4810 F   0  0  0  0  0  0  0  0  0  0  0  0
  143.8760   74.3320  220.0700 C   0  0  0  0  0  0  0  0  0  0  0  0
  140.0440   71.1130  223.5580 C   0  0  0  0  0  0  0  0  0  0  0  0
  139.5540   69.8370  223.6570 C   0  0  0  0  0  0  0  0  0  0  0  0
  139.5480   69.1620  224.8550 C   0  0  0  0  0  0  0  0  0  0  0  0
  140.0530   69.7940  225.9900 C   0  0  0  0  0  0  0  0  0  0  0  0
  140.0630   69.1490  227.2090 C   0  0  0  0  0  0  0  0  0  0  0  0
  140.5770   69.8150  228.3230 C   0  0  0  0  0  0  0  0  0  0  0  0
  141.0650   71.0980  228.2040 C   0  0  0  0  0  0  0  0  0  0  0  0
  141.0500   71.7390  226.9740 C   0  0  0  0  0  0  0  0  0  0  0  0
  140.5430   71.0840  225.8650 C   0  0  0  0  0  0  0  0  0  0  0  0
  140.5250   71.6960  224.6760 N   0  0  0  0  0  0  0  0  0  0  0  0
  139.6050   73.6830  223.1660 H   0  0  0  0  0  0  0  0  0  0  0  0
  140.4196   73.4758  220.2788 H   0  0  0  0  0  0  0  0  0  0  0  0
  138.7267   73.9641  220.6144 H   0  0  0  0  0  0  0  0  0  0  0  0
  141.1070   77.8957  221.3703 H   0  0  0  0  0  0  0  0  0  0  0  0
  142.6626   77.1600  221.5785 H   0  0  0  0  0  0  0  0  0  0  0  0
  141.3623   78.3023  219.0502 H   0  0  0  0  0  0  0  0  0  0  0  0
  143.0586   78.4324  219.5383 H   0  0  0  0  0  0  0  0  0  0  0  0
  142.1762   76.6664  217.6321 H   0  0  0  0  0  0  0  0  0  0  0  0
  143.5928   76.3234  218.6343 H   0  0  0  0  0  0  0  0  0  0  0  0
  140.9782   75.0322  218.6414 H   0  0  0  0  0  0  0  0  0  0  0  0
  141.0726   72.9334  218.8842 H   0  0  0  0  0  0  0  0  0  0  0  0
  142.3313   70.8339  219.2534 H   0  0  0  0  0  0  0  0  0  0  0  0
  144.6563   71.0053  220.1742 H   0  0  0  0  0  0  0  0  0  0  0  0
  144.3081   75.3172  220.2994 H   0  0  0  0  0  0  0  0  0  0  0  0
  139.1568   69.3420  222.7585 H   0  0  0  0  0  0  0  0  0  0  0  0
  139.1505   68.1382  224.9167 H   0  0  0  0  0  0  0  0  0  0  0  0
  139.6718   68.1251  227.3021 H   0  0  0  0  0  0  0  0  0  0  0  0
  140.5925   69.3126  229.3014 H   0  0  0  0  0  0  0  0  0  0  0  0
  141.4677   71.6156  229.0871 H   0  0  0  0  0  0  0  0  0  0  0  0
  141.4394   72.7635  226.8803 H   0  0  0  0  0  0  0  0  0  0  0  0
  1  2  2  0
  2  3  1  0
  3  4  1  0
  4  5  1  0
  5  6  2  0
  5  7  1  0
  7  8  1  0
  8  9  1  0
  9 10  1  0
 10 11  1  0
 11 12  1  0
 12 13  2  0
 13 14  1  0
 14 15  2  0
 15 16  1  0
 16 17  1  0
 17 18  1  0
 17 19  1  0
 17 20  1  0
 16 21  2  0
  2 22  1  0
 22 23  2  0
 23 24  1  0
 24 25  2  0
 25 26  1  0
 26 27  2  0
 27 28  1  0
 28 29  2  0
 29 30  1  0
 30 31  2  0
 11  7  1  0
 21 12  1  0
 31 22  1  0
 30 25  1  0
  3 32  1  0
  4 33  1  0
  4 34  1  0
  8 35  1  0
  8 36  1  0
  9 37  1  0
  9 38  1  0
 10 39  1  0
 10 40  1  0
 11 41  1  6
 13 42  1  0
 14 43  1  0
 15 44  1  0
 21 45  1  0
 23 46  1  0
 24 47  1  0
 26 48  1  0
 27 49  1  0
 28 50  1  0
 29 51  1  0
M  END
>  <smiles>  (61) 
O=C(NCC(=O)N1CCCC1c1cccc(C(F)(F)F)c1)c1ccc2ccccc2n1

>  <score_type>  (61) 
oracle

>  <origin>  (61) 
autodockgpu

>  <m_score__min__energy>  (61) 
-9.1500000000000004

>  <m_primary>  (61) 
energy

>  <rmsd>  (61) 
2.165170224139597

>  <m_score__min__rmsd>  (61) 
2.165170224139597

>  <meeko>  (61) 
{"free_energy": -8.07, "intermolecular_energy": -9.86, "internal_energy": -2.03, "cluster_size": 12, "cluster_id": 3, "rank_in_cluster": 9}

>  <energy>  (61) 
-8.87

>  <cluster_rmsd>  (61) 
0.13

>  <cluster>  (61) 
2

$$$$

     RDKit          3D

 51 54  0  0  0  0  0  0  0  0999 V2000
  140.8820   71.5550  221.3610 O   0  0  0  0  0  0  0  0  0  0  0  0
  140.3910   72.1130  222.3870 C   0  0  0  0  0  0  0  0  0  0  0  0
  139.9790   73.4700  222.3410 N   0  0  0  0  0  0  0  0  0  0  0  0
  140.0960   74.2720  221.1420 C   0  0  0  0  0  0  0  0  0  0  0  0
  140.2120   75.7130  221.5270 C   0  0  0  0  0  0  0  0  0  0  0  0
  139.9290   76.0750  222.7160 O   0  0  0  0  0  0  0  0  0  0  0  0
  140.6310   76.7050  220.6070 N   0  0  0  0  0  0  0  0  0  0  0  0
  139.9970   76.9180  219.3260 C   0  0  0  0  0  0  0  0  0  0  0  0
  141.1670   77.4590  218.5290 C   0  0  0  0  0  0  0  0  0  0  0  0
  142.0240   78.2060  219.5150 C   0  0  0  0  0  0  0  0  0  0  0  0
  141.7240   77.6070  220.8390 C   0  0  1  0  0  0  0  0  0  0  0  0
  141.4010   78.6240  221.8770 C   0  0  0  0  0  0  0  0  0  0  0  0
  142.4420   79.2140  222.5380 C   0  0  0  0  0  0  0  0  0  0  0  0
  142.2720   80.1670  223.5180 C   0  0  0  0  0  0  0  0  0  0  0  0
  140.9720   80.5220  223.8240 C   0  0  0  0  0  0  0  0  0  0  0  0
  139.9090   79.9230  223.1530 C   0  0  0  0  0  0  0  0  0  0  0  0
  138.5470   80.3720  223.5540 C   0  0  0  0  0  0  0  0  0  0  0  0
  138.4620   80.4850  224.9110 F   0  0  0  0  0  0  0  0  0  0  0  0
  137.6670   79.3880  223.1310 F   0  0  0  0  0  0  0  0  0  0  0  0
  138.2730   81.5670  222.9380 F   0  0  0  0  0  0  0  0  0  0  0  0
  140.1180   78.9650  222.1700 C   0  0  0  0  0  0  0  0  0  0  0  0
  140.2370   71.3820  223.6320 C   0  0  0  0  0  0  0  0  0  0  0  0
  139.6110   70.1630  223.6360 C   0  0  0  0  0  0  0  0  0  0  0  0
  139.4480   69.4430  224.7960 C   0  0  0  0  0  0  0  0  0  0  0  0
  139.9340   69.9680  225.9920 C   0  0  0  0  0  0  0  0  0  0  0  0
  139.7900   69.2750  227.1750 C   0  0  0  0  0  0  0  0  0  0  0  0
  140.2900   69.8340  228.3530 C   0  0  0  0  0  0  0  0  0  0  0  0
  140.9180   71.0600  228.3300 C   0  0  0  0  0  0  0  0  0  0  0  0
  141.0580   71.7510  227.1350 C   0  0  0  0  0  0  0  0  0  0  0  0
  140.5650   71.2020  225.9640 C   0  0  0  0  0  0  0  0  0  0  0  0
  140.6970   71.8610  224.8080 N   0  0  0  0  0  0  0  0  0  0  0  0
  139.5750   73.8990  223.2170 H   0  0  0  0  0  0  0  0  0  0  0  0
  140.9917   73.9673  220.5808 H   0  0  0  0  0  0  0  0  0  0  0  0
  139.2068   74.1272  220.5108 H   0  0  0  0  0  0  0  0  0  0  0  0
  139.6147   75.9785  218.9003 H   0  0  0  0  0  0  0  0  0  0  0  0
  139.1158   77.5759  219.3530 H   0  0  0  0  0  0  0  0  0  0  0  0
  141.7356   76.6339  218.0752 H   0  0  0  0  0  0  0  0  0  0  0  0
  140.8315   78.1107  217.7088 H   0  0  0  0  0  0  0  0  0  0  0  0
  143.0890   78.0814  219.2697 H   0  0  0  0  0  0  0  0  0  0  0  0
  141.8146   79.2858  219.5000 H   0  0  0  0  0  0  0  0  0  0  0  0
  142.6045   77.0865  221.2436 H   0  0  0  0  0  0  0  0  0  0  0  0
  143.4665   78.9127  222.2741 H   0  0  0  0  0  0  0  0  0  0  0  0
  143.1303   80.6237  224.0326 H   0  0  0  0  0  0  0  0  0  0  0  0
  140.7767   81.2785  224.5984 H   0  0  0  0  0  0  0  0  0  0  0  0
  139.2723   78.4968  221.6450 H   0  0  0  0  0  0  0  0  0  0  0  0
  139.2303   69.7512  222.6897 H   0  0  0  0  0  0  0  0  0  0  0  0
  138.9413   68.4668  224.7802 H   0  0  0  0  0  0  0  0  0  0  0  0
  139.2886   68.2961  227.1908 H   0  0  0  0  0  0  0  0  0  0  0  0
  140.1818   69.2925  229.3044 H   0  0  0  0  0  0  0  0  0  0  0  0
  141.3098   71.4926  229.2624 H   0  0  0  0  0  0  0  0  0  0  0  0
  141.5584   72.7304  227.1183 H   0  0  0  0  0  0  0  0  0  0  0  0
  1  2  2  0
  2  3  1  0
  3  4  1  0
  4  5  1  0
  5  6  2  0
  5  7  1  0
  7  8  1  0
  8  9  1  0
  9 10  1  0
 10 11  1  0
 11 12  1  0
 12 13  2  0
 13 14  1  0
 14 15  2  0
 15 16  1  0
 16 17  1  0
 17 18  1  0
 17 19  1  0
 17 20  1  0
 16 21  2  0
  2 22  1  0
 22 23  2  0
 23 24  1  0
 24 25  2  0
 25 26  1  0
 26 27  2  0
 27 28  1  0
 28 29  2  0
 29 30  1  0
 30 31  2  0
 11  7  1  0
 21 12  1  0
 31 22  1  0
 30 25  1  0
  3 32  1  0
  4 33  1  0
  4 34  1  0
  8 35  1  0
  8 36  1  0
  9 37  1  0
  9 38  1  0
 10 39  1  0
 10 40  1  0
 11 41  1  1
 13 42  1  0
 14 43  1  0
 15 44  1  0
 21 45  1  0
 23 46  1  0
 24 47  1  0
 26 48  1  0
 27 49  1  0
 28 50  1  0
 29 51  1  0
M  END
>  <smiles>  (62) 
O=C(NCC(=O)N1CCCC1c1cccc(C(F)(F)F)c1)c1ccc2ccccc2n1

>  <score_type>  (62) 
oracle

>  <origin>  (62) 
autodockgpu

>  <m_score__min__energy>  (62) 
-9.1500000000000004

>  <m_primary>  (62) 
energy

>  <rmsd>  (62) 
1.700597600833199

>  <m_score__min__rmsd>  (62) 
1.700597600833199

>  <meeko>  (62) 
{"free_energy": -8.89, "intermolecular_energy": -10.68, "internal_energy": -1.92, "cluster_size": 27, "cluster_id": 2, "rank_in_cluster": 1}

>  <energy>  (62) 
-8.86

>  <cluster_rmsd>  (62) 
0.08

>  <cluster>  (62) 
2

$$$$

     RDKit          3D

 51 54  0  0  0  0  0  0  0  0999 V2000
  140.5750   71.5200  221.2810 O   0  0  0  0  0  0  0  0  0  0  0  0
  140.2160   72.0990  222.3500 C   0  0  0  0  0  0  0  0  0  0  0  0
  139.8700   73.4740  222.3430 N   0  0  0  0  0  0  0  0  0  0  0  0
  139.9060   74.2740  221.1370 C   0  0  0  0  0  0  0  0  0  0  0  0
  140.0120   75.7170  221.5110 C   0  0  0  0  0  0  0  0  0  0  0  0
  139.6790   76.0950  222.6820 O   0  0  0  0  0  0  0  0  0  0  0  0
  140.4770   76.6970  220.6000 N   0  0  0  0  0  0  0  0  0  0  0  0
  139.8620   76.9420  219.3150 C   0  0  0  0  0  0  0  0  0  0  0  0
  141.0590   77.4410  218.5300 C   0  0  0  0  0  0  0  0  0  0  0  0
  141.9370   78.1480  219.5270 C   0  0  0  0  0  0  0  0  0  0  0  0
  141.6030   77.5540  220.8450 C   0  0  1  0  0  0  0  0  0  0  0  0
  141.3130   78.5780  221.8860 C   0  0  0  0  0  0  0  0  0  0  0  0
  142.3720   79.1400  222.5410 C   0  0  0  0  0  0  0  0  0  0  0  0
  142.2330   80.0960  223.5240 C   0  0  0  0  0  0  0  0  0  0  0  0
  140.9450   80.4840  223.8380 C   0  0  0  0  0  0  0  0  0  0  0  0
  139.8620   79.9130  223.1730 C   0  0  0  0  0  0  0  0  0  0  0  0
  138.5150   80.3960  223.5830 C   0  0  0  0  0  0  0  0  0  0  0  0
  138.4520   80.5390  224.9380 F   0  0  0  0  0  0  0  0  0  0  0  0
  137.6110   79.4190  223.1930 F   0  0  0  0  0  0  0  0  0  0  0  0
  138.2540   81.5820  222.9450 F   0  0  0  0  0  0  0  0  0  0  0  0
  140.0410   78.9510  222.1880 C   0  0  0  0  0  0  0  0  0  0  0  0
  140.1520   71.3710  223.6050 C   0  0  0  0  0  0  0  0  0  0  0  0
  139.6090   70.1140  223.6390 C   0  0  0  0  0  0  0  0  0  0  0  0
  139.5320   69.3960  224.8090 C   0  0  0  0  0  0  0  0  0  0  0  0
  140.0190   69.9650  225.9850 C   0  0  0  0  0  0  0  0  0  0  0  0
  139.9590   69.2760  227.1780 C   0  0  0  0  0  0  0  0  0  0  0  0
  140.4580   69.8800  228.3340 C   0  0  0  0  0  0  0  0  0  0  0  0
  141.0000   71.1450  228.2810 C   0  0  0  0  0  0  0  0  0  0  0  0
  141.0560   71.8300  227.0770 C   0  0  0  0  0  0  0  0  0  0  0  0
  140.5640   71.2380  225.9260 C   0  0  0  0  0  0  0  0  0  0  0  0
  140.6150   71.8930  224.7610 N   0  0  0  0  0  0  0  0  0  0  0  0
  139.5760   73.9200  223.2540 H   0  0  0  0  0  0  0  0  0  0  0  0
  140.7767   73.9859  220.5296 H   0  0  0  0  0  0  0  0  0  0  0  0
  138.9876   74.1084  220.5546 H   0  0  0  0  0  0  0  0  0  0  0  0
  139.4464   76.0207  218.8809 H   0  0  0  0  0  0  0  0  0  0  0  0
  139.0073   77.6340  219.3390 H   0  0  0  0  0  0  0  0  0  0  0  0
  141.5982   76.5967  218.0757 H   0  0  0  0  0  0  0  0  0  0  0  0
  140.7560   78.1101  217.7111 H   0  0  0  0  0  0  0  0  0  0  0  0
  142.9982   77.9827  219.2892 H   0  0  0  0  0  0  0  0  0  0  0  0
  141.7706   79.2353  219.5167 H   0  0  0  0  0  0  0  0  0  0  0  0
  142.4587   76.9962  221.2533 H   0  0  0  0  0  0  0  0  0  0  0  0
  143.3868   78.8130  222.2702 H   0  0  0  0  0  0  0  0  0  0  0  0
  143.1060   80.5293  224.0341 H   0  0  0  0  0  0  0  0  0  0  0  0
  140.7742   81.2447  224.6140 H   0  0  0  0  0  0  0  0  0  0  0  0
  139.1805   78.5046  221.6682 H   0  0  0  0  0  0  0  0  0  0  0  0
  139.2258   69.6688  222.7090 H   0  0  0  0  0  0  0  0  0  0  0  0
  139.0927   68.3876  224.8171 H   0  0  0  0  0  0  0  0  0  0  0  0
  139.5248   68.2661  227.2184 H   0  0  0  0  0  0  0  0  0  0  0  0
  140.4179   69.3422  229.2927 H   0  0  0  0  0  0  0  0  0  0  0  0
  141.3897   71.6133  229.1969 H   0  0  0  0  0  0  0  0  0  0  0  0
  141.4897   72.8401  227.0362 H   0  0  0  0  0  0  0  0  0  0  0  0
  1  2  2  0
  2  3  1  0
  3  4  1  0
  4  5  1  0
  5  6  2  0
  5  7  1  0
  7  8  1  0
  8  9  1  0
  9 10  1  0
 10 11  1  0
 11 12  1  0
 12 13  2  0
 13 14  1  0
 14 15  2  0
 15 16  1  0
 16 17  1  0
 17 18  1  0
 17 19  1  0
 17 20  1  0
 16 21  2  0
  2 22  1  0
 22 23  2  0
 23 24  1  0
 24 25  2  0
 25 26  1  0
 26 27  2  0
 27 28  1  0
 28 29  2  0
 29 30  1  0
 30 31  2  0
 11  7  1  0
 21 12  1  0
 31 22  1  0
 30 25  1  0
  3 32  1  0
  4 33  1  0
  4 34  1  0
  8 35  1  0
  8 36  1  0
  9 37  1  0
  9 38  1  0
 10 39  1  0
 10 40  1  0
 11 41  1  1
 13 42  1  0
 14 43  1  0
 15 44  1  0
 21 45  1  0
 23 46  1  0
 24 47  1  0
 26 48  1  0
 27 49  1  0
 28 50  1  0
 29 51  1  0
M  END
>  <smiles>  (63) 
O=C(NCC(=O)N1CCCC1c1cccc(C(F)(F)F)c1)c1ccc2ccccc2n1

>  <score_type>  (63) 
oracle

>  <origin>  (63) 
autodockgpu

>  <m_score__min__energy>  (63) 
-9.1500000000000004

>  <m_primary>  (63) 
energy

>  <rmsd>  (63) 
1.6354401029520325

>  <m_score__min__rmsd>  (63) 
1.6354401029520325

>  <meeko>  (63) 
{"free_energy": -8.83, "intermolecular_energy": -10.62, "internal_energy": -1.96, "cluster_size": 27, "cluster_id": 2, "rank_in_cluster": 12}

>  <energy>  (63) 
-8.85

>  <cluster_rmsd>  (63) 
0.08

>  <cluster>  (63) 
2

$$$$

     RDKit          3D

 51 54  0  0  0  0  0  0  0  0999 V2000
  140.0780   70.9690  221.2550 O   0  0  0  0  0  0  0  0  0  0  0  0
  139.9080   71.5910  222.3460 C   0  0  0  0  0  0  0  0  0  0  0  0
  139.6880   72.9920  222.3500 N   0  0  0  0  0  0  0  0  0  0  0  0
  139.6480   73.7710  221.1310 C   0  0  0  0  0  0  0  0  0  0  0  0
  139.7190   75.2240  221.4780 C   0  0  0  0  0  0  0  0  0  0  0  0
  139.7100   75.5860  222.7000 O   0  0  0  0  0  0  0  0  0  0  0  0
  139.7960   76.2310  220.4840 N   0  0  0  0  0  0  0  0  0  0  0  0
  138.8320   76.3670  219.4150 C   0  0  0  0  0  0  0  0  0  0  0  0
  139.7020   76.9880  218.3400 C   0  0  0  0  0  0  0  0  0  0  0  0
  140.7220   77.8210  219.0700 C   0  0  0  0  0  0  0  0  0  0  0  0
  140.8310   77.2250  220.4240 C   0  0  1  0  0  0  0  0  0  0  0  0
  140.7060   78.2310  221.5140 C   0  0  0  0  0  0  0  0  0  0  0  0
  139.4700   78.4270  222.0630 C   0  0  0  0  0  0  0  0  0  0  0  0
  139.2280   79.3290  223.0750 C   0  0  0  0  0  0  0  0  0  0  0  0
  140.3090   80.0550  223.5360 C   0  0  0  0  0  0  0  0  0  0  0  0
  141.5700   79.8580  222.9790 C   0  0  0  0  0  0  0  0  0  0  0  0
  142.6700   80.6870  223.5440 C   0  0  0  0  0  0  0  0  0  0  0  0
  142.9500   80.3020  224.8220 F   0  0  0  0  0  0  0  0  0  0  0  0
  142.2070   81.9940  223.5610 F   0  0  0  0  0  0  0  0  0  0  0  0
  143.7730   80.5730  222.7370 F   0  0  0  0  0  0  0  0  0  0  0  0
  141.7780   78.9390  221.9590 C   0  0  0  0  0  0  0  0  0  0  0  0
  139.9330   70.8860  223.6160 C   0  0  0  0  0  0  0  0  0  0  0  0
  139.4920   69.5910  223.6870 C   0  0  0  0  0  0  0  0  0  0  0  0
  139.5010   68.8940  224.8720 C   0  0  0  0  0  0  0  0  0  0  0  0
  139.9710   69.5230  226.0240 C   0  0  0  0  0  0  0  0  0  0  0  0
  139.9960   68.8560  227.2310 C   0  0  0  0  0  0  0  0  0  0  0  0
  140.4740   69.5210  228.3610 C   0  0  0  0  0  0  0  0  0  0  0  0
  140.9140   70.8230  228.2700 C   0  0  0  0  0  0  0  0  0  0  0  0
  140.8850   71.4860  227.0530 C   0  0  0  0  0  0  0  0  0  0  0  0
  140.4130   70.8340  225.9270 C   0  0  0  0  0  0  0  0  0  0  0  0
  140.3820   71.4660  224.7490 N   0  0  0  0  0  0  0  0  0  0  0  0
  139.5510   73.4730  223.2810 H   0  0  0  0  0  0  0  0  0  0  0  0
  140.5031   73.5021  220.4934 H   0  0  0  0  0  0  0  0  0  0  0  0
  138.7136   73.5641  220.5887 H   0  0  0  0  0  0  0  0  0  0  0  0
  138.4323   75.3914  219.1013 H   0  0  0  0  0  0  0  0  0  0  0  0
  137.9364   76.9503  219.6752 H   0  0  0  0  0  0  0  0  0  0  0  0
  140.1990   76.2045  217.7491 H   0  0  0  0  0  0  0  0  0  0  0  0
  139.1096   77.5947  217.6393 H   0  0  0  0  0  0  0  0  0  0  0  0
  141.6922   77.7794  218.5533 H   0  0  0  0  0  0  0  0  0  0  0  0
  140.4256   78.8794  219.1146 H   0  0  0  0  0  0  0  0  0  0  0  0
  141.8278   76.7873  220.5815 H   0  0  0  0  0  0  0  0  0  0  0  0
  138.6268   77.8350  221.6775 H   0  0  0  0  0  0  0  0  0  0  0  0
  138.2211   79.4650  223.4965 H   0  0  0  0  0  0  0  0  0  0  0  0
  140.1736   80.7893  224.3437 H   0  0  0  0  0  0  0  0  0  0  0  0
  142.7776   78.7887  221.5251 H   0  0  0  0  0  0  0  0  0  0  0  0
  139.1225   69.0979  222.7758 H   0  0  0  0  0  0  0  0  0  0  0  0
  139.1425   67.8548  224.9106 H   0  0  0  0  0  0  0  0  0  0  0  0
  139.6446   67.8160  227.3018 H   0  0  0  0  0  0  0  0  0  0  0  0
  140.4995   69.0020  229.3305 H   0  0  0  0  0  0  0  0  0  0  0  0
  141.2897   71.3385  229.1662 H   0  0  0  0  0  0  0  0  0  0  0  0
  141.2357   72.5262  226.9824 H   0  0  0  0  0  0  0  0  0  0  0  0
  1  2  2  0
  2  3  1  0
  3  4  1  0
  4  5  1  0
  5  6  2  0
  5  7  1  0
  7  8  1  0
  8  9  1  0
  9 10  1  0
 10 11  1  0
 11 12  1  0
 12 13  2  0
 13 14  1  0
 14 15  2  0
 15 16  1  0
 16 17  1  0
 17 18  1  0
 17 19  1  0
 17 20  1  0
 16 21  2  0
  2 22  1  0
 22 23  2  0
 23 24  1  0
 24 25  2  0
 25 26  1  0
 26 27  2  0
 27 28  1  0
 28 29  2  0
 29 30  1  0
 30 31  2  0
 11  7  1  0
 21 12  1  0
 31 22  1  0
 30 25  1  0
  3 32  1  0
  4 33  1  0
  4 34  1  0
  8 35  1  0
  8 36  1  0
  9 37  1  0
  9 38  1  0
 10 39  1  0
 10 40  1  0
 11 41  1  6
 13 42  1  0
 14 43  1  0
 15 44  1  0
 21 45  1  0
 23 46  1  0
 24 47  1  0
 26 48  1  0
 27 49  1  0
 28 50  1  0
 29 51  1  0
M  END
>  <smiles>  (64) 
O=C(NCC(=O)N1CCCC1c1cccc(C(F)(F)F)c1)c1ccc2ccccc2n1

>  <score_type>  (64) 
oracle

>  <origin>  (64) 
autodockgpu

>  <m_score__min__energy>  (64) 
-9.1500000000000004

>  <m_primary>  (64) 
energy

>  <rmsd>  (64) 
1.1821577568308717

>  <m_score__min__rmsd>  (64) 
1.1821577568308717

>  <meeko>  (64) 
{"free_energy": -8.2, "intermolecular_energy": -9.99, "internal_energy": -2.02, "cluster_size": 27, "cluster_id": 2, "rank_in_cluster": 26}

>  <energy>  (64) 
-8.85

>  <cluster_rmsd>  (64) 
0.1

>  <cluster>  (64) 
2

$$$$

     RDKit          3D

 51 54  0  0  0  0  0  0  0  0999 V2000
  140.7810   71.2440  221.2830 O   0  0  0  0  0  0  0  0  0  0  0  0
  140.3380   71.8610  222.2990 C   0  0  0  0  0  0  0  0  0  0  0  0
  139.9820   73.2300  222.2110 N   0  0  0  0  0  0  0  0  0  0  0  0
  140.1020   73.9830  220.9800 C   0  0  0  0  0  0  0  0  0  0  0  0
  140.5890   75.3610  221.2960 C   0  0  0  0  0  0  0  0  0  0  0  0
  140.1990   75.9420  222.3620 O   0  0  0  0  0  0  0  0  0  0  0  0
  141.4800   76.0570  220.4420 N   0  0  0  0  0  0  0  0  0  0  0  0
  141.8480   77.4410  220.6360 C   0  0  0  0  0  0  0  0  0  0  0  0
  142.1330   77.8500  219.2040 C   0  0  0  0  0  0  0  0  0  0  0  0
  142.6580   76.6160  218.5220 C   0  0  0  0  0  0  0  0  0  0  0  0
  142.1180   75.4710  219.2960 C   0  0  1  0  0  0  0  0  0  0  0  0
  143.1640   74.4840  219.6800 C   0  0  0  0  0  0  0  0  0  0  0  0
  144.2190   74.9290  220.4260 C   0  0  0  0  0  0  0  0  0  0  0  0
  145.2490   74.1130  220.8410 C   0  0  0  0  0  0  0  0  0  0  0  0
  145.1820   72.7850  220.4690 C   0  0  0  0  0  0  0  0  0  0  0  0
  144.1080   72.3270  219.7090 C   0  0  0  0  0  0  0  0  0  0  0  0
  144.1260   70.8810  219.3580 C   0  0  0  0  0  0  0  0  0  0  0  0
  143.7900   70.7030  218.0480 F   0  0  0  0  0  0  0  0  0  0  0  0
  143.1670   70.2710  220.1520 F   0  0  0  0  0  0  0  0  0  0  0  0
  145.3720   70.3730  219.6240 F   0  0  0  0  0  0  0  0  0  0  0  0
  143.0870   73.1790  219.3070 C   0  0  0  0  0  0  0  0  0  0  0  0
  140.1860   71.1820  223.5740 C   0  0  0  0  0  0  0  0  0  0  0  0
  139.5600   69.9650  223.6290 C   0  0  0  0  0  0  0  0  0  0  0  0
  139.3980   69.2930  224.8180 C   0  0  0  0  0  0  0  0  0  0  0  0
  139.8840   69.8690  225.9910 C   0  0  0  0  0  0  0  0  0  0  0  0
  139.7400   69.2260  227.2030 C   0  0  0  0  0  0  0  0  0  0  0  0
  140.2410   69.8350  228.3550 C   0  0  0  0  0  0  0  0  0  0  0  0
  140.8680   71.0590  228.2800 C   0  0  0  0  0  0  0  0  0  0  0  0
  141.0070   71.6990  227.0570 C   0  0  0  0  0  0  0  0  0  0  0  0
  140.5150   71.1010  225.9100 C   0  0  0  0  0  0  0  0  0  0  0  0
  140.6450   71.7110  224.7280 N   0  0  0  0  0  0  0  0  0  0  0  0
  139.6170   73.7080  223.0800 H   0  0  0  0  0  0  0  0  0  0  0  0
  140.8180   73.4835  220.3108 H   0  0  0  0  0  0  0  0  0  0  0  0
  139.1222   74.0406  220.4833 H   0  0  0  0  0  0  0  0  0  0  0  0
  141.0223   78.0246  221.0691 H   0  0  0  0  0  0  0  0  0  0  0  0
  142.6821   77.6016  221.3349 H   0  0  0  0  0  0  0  0  0  0  0  0
  141.2110   78.1957  218.7137 H   0  0  0  0  0  0  0  0  0  0  0  0
  142.8557   78.6778  219.1556 H   0  0  0  0  0  0  0  0  0  0  0  0
  142.3073   76.5746  217.4802 H   0  0  0  0  0  0  0  0  0  0  0  0
  143.7575   76.6044  218.4923 H   0  0  0  0  0  0  0  0  0  0  0  0
  141.4115   74.8848  218.6899 H   0  0  0  0  0  0  0  0  0  0  0  0
  144.2474   75.9915  220.7093 H   0  0  0  0  0  0  0  0  0  0  0  0
  146.0854   74.5014  221.4406 H   0  0  0  0  0  0  0  0  0  0  0  0
  145.9771   72.0883  220.7729 H   0  0  0  0  0  0  0  0  0  0  0  0
  142.2431   72.8094  218.7060 H   0  0  0  0  0  0  0  0  0  0  0  0
  139.1780   69.5147  222.7009 H   0  0  0  0  0  0  0  0  0  0  0  0
  138.8928   68.3162  224.8431 H   0  0  0  0  0  0  0  0  0  0  0  0
  139.2383   68.2488  227.2608 H   0  0  0  0  0  0  0  0  0  0  0  0
  140.1343   69.3342  229.3286 H   0  0  0  0  0  0  0  0  0  0  0  0
  141.2600   71.5308  229.1931 H   0  0  0  0  0  0  0  0  0  0  0  0
  141.5061   72.6775  226.9992 H   0  0  0  0  0  0  0  0  0  0  0  0
  1  2  2  0
  2  3  1  0
  3  4  1  0
  4  5  1  0
  5  6  2  0
  5  7  1  0
  7  8  1  0
  8  9  1  0
  9 10  1  0
 10 11  1  0
 11 12  1  0
 12 13  2  0
 13 14  1  0
 14 15  2  0
 15 16  1  0
 16 17  1  0
 17 18  1  0
 17 19  1  0
 17 20  1  0
 16 21  2  0
  2 22  1  0
 22 23  2  0
 23 24  1  0
 24 25  2  0
 25 26  1  0
 26 27  2  0
 27 28  1  0
 28 29  2  0
 29 30  1  0
 30 31  2  0
 11  7  1  0
 21 12  1  0
 31 22  1  0
 30 25  1  0
  3 32  1  0
  4 33  1  0
  4 34  1  0
  8 35  1  0
  8 36  1  0
  9 37  1  0
  9 38  1  0
 10 39  1  0
 10 40  1  0
 11 41  1  6
 13 42  1  0
 14 43  1  0
 15 44  1  0
 21 45  1  0
 23 46  1  0
 24 47  1  0
 26 48  1  0
 27 49  1  0
 28 50  1  0
 29 51  1  0
M  END
>  <smiles>  (65) 
O=C(NCC(=O)N1CCCC1c1cccc(C(F)(F)F)c1)c1ccc2ccccc2n1

>  <score_type>  (65) 
oracle

>  <origin>  (65) 
autodockgpu

>  <m_score__min__energy>  (65) 
-9.1500000000000004

>  <m_primary>  (65) 
energy

>  <rmsd>  (65) 
2.2235470350887936

>  <m_score__min__rmsd>  (65) 
2.2235470350887936

>  <meeko>  (65) 
{"free_energy": -8.39, "intermolecular_energy": -10.18, "internal_energy": -2.14, "cluster_size": 12, "cluster_id": 3, "rank_in_cluster": 4}

>  <energy>  (65) 
-8.85

>  <cluster_rmsd>  (65) 
0.1

>  <cluster>  (65) 
2

$$$$

     RDKit          3D

 51 54  0  0  0  0  0  0  0  0999 V2000
  139.3100   74.6550  219.5960 O   0  0  0  0  0  0  0  0  0  0  0  0
  139.8000   74.9440  220.7280 C   0  0  0  0  0  0  0  0  0  0  0  0
  139.7600   74.0060  221.7910 N   0  0  0  0  0  0  0  0  0  0  0  0
  139.1690   72.6930  221.6410 C   0  0  0  0  0  0  0  0  0  0  0  0
  139.6930   71.7950  222.7160 C   0  0  0  0  0  0  0  0  0  0  0  0
  140.5150   72.2500  223.5770 O   0  0  0  0  0  0  0  0  0  0  0  0
  139.3040   70.4370  222.8150 N   0  0  0  0  0  0  0  0  0  0  0  0
  139.5800   69.4540  221.7910 C   0  0  0  0  0  0  0  0  0  0  0  0
  138.4150   68.5070  222.0000 C   0  0  0  0  0  0  0  0  0  0  0  0
  138.0990   68.5640  223.4710 C   0  0  0  0  0  0  0  0  0  0  0  0
  138.5970   69.8820  223.9360 C   0  0  1  0  0  0  0  0  0  0  0  0
  139.4550   69.7850  225.1480 C   0  0  0  0  0  0  0  0  0  0  0  0
  139.9700   68.5600  225.4690 C   0  0  0  0  0  0  0  0  0  0  0  0
  140.7760   68.3420  226.5640 C   0  0  0  0  0  0  0  0  0  0  0  0
  141.0600   69.4370  227.3580 C   0  0  0  0  0  0  0  0  0  0  0  0
  140.5370   70.6870  227.0340 C   0  0  0  0  0  0  0  0  0  0  0  0
  140.9000   71.8030  227.9500 C   0  0  0  0  0  0  0  0  0  0  0  0
  141.4250   72.8470  227.2450 F   0  0  0  0  0  0  0  0  0  0  0  0
  141.8720   71.3090  228.8070 F   0  0  0  0  0  0  0  0  0  0  0  0
  139.7850   72.1860  228.6490 F   0  0  0  0  0  0  0  0  0  0  0  0
  139.7270   70.8690  225.9210 C   0  0  0  0  0  0  0  0  0  0  0  0
  140.4130   76.2390  220.9660 C   0  0  0  0  0  0  0  0  0  0  0  0
  140.7320   77.0480  219.9080 C   0  0  0  0  0  0  0  0  0  0  0  0
  141.3130   78.2800  220.0950 C   0  0  0  0  0  0  0  0  0  0  0  0
  141.5810   78.7110  221.3940 C   0  0  0  0  0  0  0  0  0  0  0  0
  142.1630   79.9410  221.6210 C   0  0  0  0  0  0  0  0  0  0  0  0
  142.4140   80.3370  222.9360 C   0  0  0  0  0  0  0  0  0  0  0  0
  142.0860   79.5100  223.9880 C   0  0  0  0  0  0  0  0  0  0  0  0
  141.5020   78.2750  223.7490 C   0  0  0  0  0  0  0  0  0  0  0  0
  141.2480   77.8760  222.4490 C   0  0  0  0  0  0  0  0  0  0  0  0
  140.6850   76.6870  222.2100 N   0  0  0  0  0  0  0  0  0  0  0  0
  140.1800   74.2850  222.7200 H   0  0  0  0  0  0  0  0  0  0  0  0
  138.0750   72.7696  221.7258 H   0  0  0  0  0  0  0  0  0  0  0  0
  139.4278   72.2805  220.6546 H   0  0  0  0  0  0  0  0  0  0  0  0
  139.5664   69.8996  220.7854 H   0  0  0  0  0  0  0  0  0  0  0  0
  140.5722   68.9842  221.8606 H   0  0  0  0  0  0  0  0  0  0  0  0
  137.5463   68.8321  221.4087 H   0  0  0  0  0  0  0  0  0  0  0  0
  138.6616   67.4845  221.6782 H   0  0  0  0  0  0  0  0  0  0  0  0
  137.0140   68.4844  223.6339 H   0  0  0  0  0  0  0  0  0  0  0  0
  138.5688   67.7348  224.0203 H   0  0  0  0  0  0  0  0  0  0  0  0
  137.7640   70.5266  224.2532 H   0  0  0  0  0  0  0  0  0  0  0  0
  139.7284   67.7054  224.8199 H   0  0  0  0  0  0  0  0  0  0  0  0
  141.1750   67.3435  226.7958 H   0  0  0  0  0  0  0  0  0  0  0  0
  141.6990   69.3216  228.2459 H   0  0  0  0  0  0  0  0  0  0  0  0
  139.3183   71.8596  225.6728 H   0  0  0  0  0  0  0  0  0  0  0  0
  140.5185   76.7042  218.8851 H   0  0  0  0  0  0  0  0  0  0  0  0
  141.5627   78.9161  219.2330 H   0  0  0  0  0  0  0  0  0  0  0  0
  142.4251   80.5991  220.7795 H   0  0  0  0  0  0  0  0  0  0  0  0
  142.8765   81.3153  223.1334 H   0  0  0  0  0  0  0  0  0  0  0  0
  142.2880   79.8303  225.0208 H   0  0  0  0  0  0  0  0  0  0  0  0
  141.2418   77.6153  224.5899 H   0  0  0  0  0  0  0  0  0  0  0  0
  1  2  2  0
  2  3  1  0
  3  4  1  0
  4  5  1  0
  5  6  2  0
  5  7  1  0
  7  8  1  0
  8  9  1  0
  9 10  1  0
 10 11  1  0
 11 12  1  0
 12 13  2  0
 13 14  1  0
 14 15  2  0
 15 16  1  0
 16 17  1  0
 17 18  1  0
 17 19  1  0
 17 20  1  0
 16 21  2  0
  2 22  1  0
 22 23  2  0
 23 24  1  0
 24 25  2  0
 25 26  1  0
 26 27  2  0
 27 28  1  0
 28 29  2  0
 29 30  1  0
 30 31  2  0
 11  7  1  0
 21 12  1  0
 31 22  1  0
 30 25  1  0
  3 32  1  0
  4 33  1  0
  4 34  1  0
  8 35  1  0
  8 36  1  0
  9 37  1  0
  9 38  1  0
 10 39  1  0
 10 40  1  0
 11 41  1  1
 13 42  1  0
 14 43  1  0
 15 44  1  0
 21 45  1  0
 23 46  1  0
 24 47  1  0
 26 48  1  0
 27 49  1  0
 28 50  1  0
 29 51  1  0
M  END
>  <smiles>  (66) 
O=C(NCC(=O)N1CCCC1c1cccc(C(F)(F)F)c1)c1ccc2ccccc2n1

>  <score_type>  (66) 
oracle

>  <origin>  (66) 
autodockgpu

>  <m_score__min__energy>  (66) 
-9.1500000000000004

>  <m_primary>  (66) 
energy

>  <rmsd>  (66) 
8.25428665086832

>  <m_score__min__rmsd>  (66) 
8.25428665086832

>  <meeko>  (66) 
{"free_energy": -8.05, "intermolecular_energy": -9.84, "internal_energy": -2.1, "cluster_size": 5, "cluster_id": 1, "rank_in_cluster": 5}

>  <energy>  (66) 
-8.83

>  <cluster_rmsd>  (66) 
0.1

>  <cluster>  (66) 
2

$$$$

     RDKit          3D

 51 54  0  0  0  0  0  0  0  0999 V2000
  140.2250   71.2350  221.2550 O   0  0  0  0  0  0  0  0  0  0  0  0
  140.0520   71.8510  222.3490 C   0  0  0  0  0  0  0  0  0  0  0  0
  139.9150   73.2630  222.3670 N   0  0  0  0  0  0  0  0  0  0  0  0
  139.9630   74.0590  221.1580 C   0  0  0  0  0  0  0  0  0  0  0  0
  140.0140   75.5060  221.5290 C   0  0  0  0  0  0  0  0  0  0  0  0
  139.6980   75.8700  222.7090 O   0  0  0  0  0  0  0  0  0  0  0  0
  140.4050   76.5050  220.6030 N   0  0  0  0  0  0  0  0  0  0  0  0
  139.7380   76.7230  219.3400 C   0  0  0  0  0  0  0  0  0  0  0  0
  140.8860   77.2720  218.5160 C   0  0  0  0  0  0  0  0  0  0  0  0
  141.7660   78.0160  219.4840 C   0  0  0  0  0  0  0  0  0  0  0  0
  141.5020   77.4090  220.8120 C   0  0  1  0  0  0  0  0  0  0  0  0
  141.2030   78.4200  221.8640 C   0  0  0  0  0  0  0  0  0  0  0  0
  142.2580   79.0000  222.5100 C   0  0  0  0  0  0  0  0  0  0  0  0
  142.1110   79.9460  223.5000 C   0  0  0  0  0  0  0  0  0  0  0  0
  140.8190   80.3050  223.8330 C   0  0  0  0  0  0  0  0  0  0  0  0
  139.7400   79.7160  223.1760 C   0  0  0  0  0  0  0  0  0  0  0  0
  138.3890   80.1680  223.6060 C   0  0  0  0  0  0  0  0  0  0  0  0
  137.4540   79.2160  223.3220 F   0  0  0  0  0  0  0  0  0  0  0  0
  138.1030   81.3080  222.8690 F   0  0  0  0  0  0  0  0  0  0  0  0
  138.4190   80.4520  224.9470 F   0  0  0  0  0  0  0  0  0  0  0  0
  139.9270   78.7640  222.1830 C   0  0  0  0  0  0  0  0  0  0  0  0
  139.9920   71.1300  223.6080 C   0  0  0  0  0  0  0  0  0  0  0  0
  139.5300   69.8410  223.6360 C   0  0  0  0  0  0  0  0  0  0  0  0
  139.4590   69.1280  224.8100 C   0  0  0  0  0  0  0  0  0  0  0  0
  139.8680   69.7370  225.9960 C   0  0  0  0  0  0  0  0  0  0  0  0
  139.8120   69.0540  227.1930 C   0  0  0  0  0  0  0  0  0  0  0  0
  140.2310   69.6970  228.3590 C   0  0  0  0  0  0  0  0  0  0  0  0
  140.6920   70.9940  228.3120 C   0  0  0  0  0  0  0  0  0  0  0  0
  140.7450   71.6730  227.1040 C   0  0  0  0  0  0  0  0  0  0  0  0
  140.3320   71.0420  225.9430 C   0  0  0  0  0  0  0  0  0  0  0  0
  140.3800   71.6890  224.7750 N   0  0  0  0  0  0  0  0  0  0  0  0
  139.7730   73.7390  223.2980 H   0  0  0  0  0  0  0  0  0  0  0  0
  140.8598   73.7952  220.5783 H   0  0  0  0  0  0  0  0  0  0  0  0
  139.0684   73.8632  220.5487 H   0  0  0  0  0  0  0  0  0  0  0  0
  139.3476   75.7847  218.9190 H   0  0  0  0  0  0  0  0  0  0  0  0
  138.8560   77.3781  219.3932 H   0  0  0  0  0  0  0  0  0  0  0  0
  141.4450   76.4511  218.0431 H   0  0  0  0  0  0  0  0  0  0  0  0
  140.5278   77.9273  217.7084 H   0  0  0  0  0  0  0  0  0  0  0  0
  142.8247   77.8959  219.2107 H   0  0  0  0  0  0  0  0  0  0  0  0
  141.5531   79.0952  219.4805 H   0  0  0  0  0  0  0  0  0  0  0  0
  142.3940   76.8887  221.1910 H   0  0  0  0  0  0  0  0  0  0  0  0
  143.2760   78.6961  222.2250 H   0  0  0  0  0  0  0  0  0  0  0  0
  142.9810   80.3946  224.0019 H   0  0  0  0  0  0  0  0  0  0  0  0
  140.6418   81.0560  224.6170 H   0  0  0  0  0  0  0  0  0  0  0  0
  139.0699   78.3027  221.6706 H   0  0  0  0  0  0  0  0  0  0  0  0
  139.2083   69.3650  222.6980 H   0  0  0  0  0  0  0  0  0  0  0  0
  139.0854   68.0934  224.8134 H   0  0  0  0  0  0  0  0  0  0  0  0
  139.4428   68.0184  227.2283 H   0  0  0  0  0  0  0  0  0  0  0  0
  140.1928   69.1648  229.3209 H   0  0  0  0  0  0  0  0  0  0  0  0
  141.0193   71.4931  229.2360 H   0  0  0  0  0  0  0  0  0  0  0  0
  141.1137   72.7088  227.0684 H   0  0  0  0  0  0  0  0  0  0  0  0
  1  2  2  0
  2  3  1  0
  3  4  1  0
  4  5  1  0
  5  6  2  0
  5  7  1  0
  7  8  1  0
  8  9  1  0
  9 10  1  0
 10 11  1  0
 11 12  1  0
 12 13  2  0
 13 14  1  0
 14 15  2  0
 15 16  1  0
 16 17  1  0
 17 18  1  0
 17 19  1  0
 17 20  1  0
 16 21  2  0
  2 22  1  0
 22 23  2  0
 23 24  1  0
 24 25  2  0
 25 26  1  0
 26 27  2  0
 27 28  1  0
 28 29  2  0
 29 30  1  0
 30 31  2  0
 11  7  1  0
 21 12  1  0
 31 22  1  0
 30 25  1  0
  3 32  1  0
  4 33  1  0
  4 34  1  0
  8 35  1  0
  8 36  1  0
  9 37  1  0
  9 38  1  0
 10 39  1  0
 10 40  1  0
 11 41  1  1
 13 42  1  0
 14 43  1  0
 15 44  1  0
 21 45  1  0
 23 46  1  0
 24 47  1  0
 26 48  1  0
 27 49  1  0
 28 50  1  0
 29 51  1  0
M  END
>  <smiles>  (67) 
O=C(NCC(=O)N1CCCC1c1cccc(C(F)(F)F)c1)c1ccc2ccccc2n1

>  <score_type>  (67) 
oracle

>  <origin>  (67) 
autodockgpu

>  <m_score__min__energy>  (67) 
-9.1500000000000004

>  <m_primary>  (67) 
energy

>  <rmsd>  (67) 
1.4888232442955043

>  <m_score__min__rmsd>  (67) 
1.4888232442955043

>  <meeko>  (67) 
{"free_energy": -8.55, "intermolecular_energy": -10.34, "internal_energy": -2.08, "cluster_size": 27, "cluster_id": 2, "rank_in_cluster": 19}

>  <energy>  (67) 
-8.83

>  <cluster_rmsd>  (67) 
0.13

>  <cluster>  (67) 
2

$$$$

     RDKit          3D

 51 54  0  0  0  0  0  0  0  0999 V2000
  140.8430   71.5450  221.3430 O   0  0  0  0  0  0  0  0  0  0  0  0
  140.3730   72.1010  222.3810 C   0  0  0  0  0  0  0  0  0  0  0  0
  139.9590   73.4570  222.3450 N   0  0  0  0  0  0  0  0  0  0  0  0
  140.0500   74.2610  221.1440 C   0  0  0  0  0  0  0  0  0  0  0  0
  140.1670   75.7020  221.5290 C   0  0  0  0  0  0  0  0  0  0  0  0
  139.9050   76.0620  222.7230 O   0  0  0  0  0  0  0  0  0  0  0  0
  140.5650   76.6960  220.6020 N   0  0  0  0  0  0  0  0  0  0  0  0
  139.9100   76.9040  219.3300 C   0  0  0  0  0  0  0  0  0  0  0  0
  141.0640   77.4540  218.5150 C   0  0  0  0  0  0  0  0  0  0  0  0
  141.9310   78.2060  219.4890 C   0  0  0  0  0  0  0  0  0  0  0  0
  141.6550   77.6070  220.8170 C   0  0  1  0  0  0  0  0  0  0  0  0
  141.3410   78.6220  221.8590 C   0  0  0  0  0  0  0  0  0  0  0  0
  142.3860   79.2120  222.5120 C   0  0  0  0  0  0  0  0  0  0  0  0
  142.2250   80.1630  223.4950 C   0  0  0  0  0  0  0  0  0  0  0  0
  140.9280   80.5170  223.8130 C   0  0  0  0  0  0  0  0  0  0  0  0
  139.8590   79.9180  223.1500 C   0  0  0  0  0  0  0  0  0  0  0  0
  138.5010   80.3660  223.5630 C   0  0  0  0  0  0  0  0  0  0  0  0
  138.4380   80.5110  224.9190 F   0  0  0  0  0  0  0  0  0  0  0  0
  137.6220   79.3640  223.1800 F   0  0  0  0  0  0  0  0  0  0  0  0
  138.2050   81.5420  222.9240 F   0  0  0  0  0  0  0  0  0  0  0  0
  140.0600   78.9620  222.1640 C   0  0  0  0  0  0  0  0  0  0  0  0
  140.2470   71.3680  223.6280 C   0  0  0  0  0  0  0  0  0  0  0  0
  139.6620   70.1300  223.6360 C   0  0  0  0  0  0  0  0  0  0  0  0
  139.5260   69.4070  224.7970 C   0  0  0  0  0  0  0  0  0  0  0  0
  139.9970   69.9510  225.9910 C   0  0  0  0  0  0  0  0  0  0  0  0
  139.8790   69.2560  227.1770 C   0  0  0  0  0  0  0  0  0  0  0  0
  140.3640   69.8340  228.3510 C   0  0  0  0  0  0  0  0  0  0  0  0
  140.9500   71.0800  228.3240 C   0  0  0  0  0  0  0  0  0  0  0  0
  141.0640   71.7720  227.1270 C   0  0  0  0  0  0  0  0  0  0  0  0
  140.5870   71.2050  225.9580 C   0  0  0  0  0  0  0  0  0  0  0  0
  140.6940   71.8650  224.8010 N   0  0  0  0  0  0  0  0  0  0  0  0
  139.5730   73.8850  223.2300 H   0  0  0  0  0  0  0  0  0  0  0  0
  140.9363   73.9608  220.5657 H   0  0  0  0  0  0  0  0  0  0  0  0
  139.1500   74.1130  220.5291 H   0  0  0  0  0  0  0  0  0  0  0  0
  139.5286   75.9615  218.9102 H   0  0  0  0  0  0  0  0  0  0  0  0
  139.0244   77.5552  219.3703 H   0  0  0  0  0  0  0  0  0  0  0  0
  141.6312   76.6334  218.0515 H   0  0  0  0  0  0  0  0  0  0  0  0
  140.7114   78.1040  217.7007 H   0  0  0  0  0  0  0  0  0  0  0  0
  142.9930   78.0874  219.2280 H   0  0  0  0  0  0  0  0  0  0  0  0
  141.7142   79.2844  219.4770 H   0  0  0  0  0  0  0  0  0  0  0  0
  142.5453   77.0935  221.2091 H   0  0  0  0  0  0  0  0  0  0  0  0
  143.4084   78.9121  222.2386 H   0  0  0  0  0  0  0  0  0  0  0  0
  143.0878   80.6189  224.0027 H   0  0  0  0  0  0  0  0  0  0  0  0
  140.7392   81.2722  224.5901 H   0  0  0  0  0  0  0  0  0  0  0  0
  139.2100   78.4941  221.6457 H   0  0  0  0  0  0  0  0  0  0  0  0
  139.2924   69.7043  222.6915 H   0  0  0  0  0  0  0  0  0  0  0  0
  139.0527   68.4141  224.7842 H   0  0  0  0  0  0  0  0  0  0  0  0
  139.4097   68.2613  227.1969 H   0  0  0  0  0  0  0  0  0  0  0  0
  140.2777   69.2910  229.3038 H   0  0  0  0  0  0  0  0  0  0  0  0
  141.3289   71.5280  229.2545 H   0  0  0  0  0  0  0  0  0  0  0  0
  141.5317   72.7674  227.1071 H   0  0  0  0  0  0  0  0  0  0  0  0
  1  2  2  0
  2  3  1  0
  3  4  1  0
  4  5  1  0
  5  6  2  0
  5  7  1  0
  7  8  1  0
  8  9  1  0
  9 10  1  0
 10 11  1  0
 11 12  1  0
 12 13  2  0
 13 14  1  0
 14 15  2  0
 15 16  1  0
 16 17  1  0
 17 18  1  0
 17 19  1  0
 17 20  1  0
 16 21  2  0
  2 22  1  0
 22 23  2  0
 23 24  1  0
 24 25  2  0
 25 26  1  0
 26 27  2  0
 27 28  1  0
 28 29  2  0
 29 30  1  0
 30 31  2  0
 11  7  1  0
 21 12  1  0
 31 22  1  0
 30 25  1  0
  3 32  1  0
  4 33  1  0
  4 34  1  0
  8 35  1  0
  8 36  1  0
  9 37  1  0
  9 38  1  0
 10 39  1  0
 10 40  1  0
 11 41  1  1
 13 42  1  0
 14 43  1  0
 15 44  1  0
 21 45  1  0
 23 46  1  0
 24 47  1  0
 26 48  1  0
 27 49  1  0
 28 50  1  0
 29 51  1  0
M  END
>  <smiles>  (68) 
O=C(NCC(=O)N1CCCC1c1cccc(C(F)(F)F)c1)c1ccc2ccccc2n1

>  <score_type>  (68) 
oracle

>  <origin>  (68) 
autodockgpu

>  <m_score__min__energy>  (68) 
-9.1500000000000004

>  <m_primary>  (68) 
energy

>  <rmsd>  (68) 
1.6673312997646692

>  <m_score__min__rmsd>  (68) 
1.6673312997646692

>  <meeko>  (68) 
{"free_energy": -8.87, "intermolecular_energy": -10.66, "internal_energy": -1.93, "cluster_size": 27, "cluster_id": 2, "rank_in_cluster": 4}

>  <energy>  (68) 
-8.83

>  <cluster_rmsd>  (68) 
0.11

>  <cluster>  (68) 
2

$$$$

     RDKit          3D

 51 54  0  0  0  0  0  0  0  0999 V2000
  140.7510   71.5290  221.3210 O   0  0  0  0  0  0  0  0  0  0  0  0
  140.3130   72.0920  222.3700 C   0  0  0  0  0  0  0  0  0  0  0  0
  139.9230   73.4550  222.3470 N   0  0  0  0  0  0  0  0  0  0  0  0
  140.0020   74.2610  221.1470 C   0  0  0  0  0  0  0  0  0  0  0  0
  140.0930   75.7030  221.5320 C   0  0  0  0  0  0  0  0  0  0  0  0
  139.7860   76.0630  222.7160 O   0  0  0  0  0  0  0  0  0  0  0  0
  140.5150   76.6990  220.6180 N   0  0  0  0  0  0  0  0  0  0  0  0
  139.8890   76.9150  219.3330 C   0  0  0  0  0  0  0  0  0  0  0  0
  141.0630   77.4610  218.5450 C   0  0  0  0  0  0  0  0  0  0  0  0
  141.9120   78.2070  219.5400 C   0  0  0  0  0  0  0  0  0  0  0  0
  141.6050   77.6030  220.8600 C   0  0  1  0  0  0  0  0  0  0  0  0
  141.2730   78.6160  221.8990 C   0  0  0  0  0  0  0  0  0  0  0  0
  142.3080   79.2010  222.5740 C   0  0  0  0  0  0  0  0  0  0  0  0
  142.1290   80.1500  223.5560 C   0  0  0  0  0  0  0  0  0  0  0  0
  140.8270   80.5060  223.8500 C   0  0  0  0  0  0  0  0  0  0  0  0
  139.7700   79.9130  223.1640 C   0  0  0  0  0  0  0  0  0  0  0  0
  138.4050   80.3630  223.5530 C   0  0  0  0  0  0  0  0  0  0  0  0
  138.1240   81.5740  222.9900 F   0  0  0  0  0  0  0  0  0  0  0  0
  138.4150   80.5020  224.9320 F   0  0  0  0  0  0  0  0  0  0  0  0
  137.4950   79.4130  223.1670 F   0  0  0  0  0  0  0  0  0  0  0  0
  139.9880   78.9580  222.1790 C   0  0  0  0  0  0  0  0  0  0  0  0
  140.2010   71.3560  223.6180 C   0  0  0  0  0  0  0  0  0  0  0  0
  139.6330   70.1100  223.6280 C   0  0  0  0  0  0  0  0  0  0  0  0
  139.5110   69.3860  224.7900 C   0  0  0  0  0  0  0  0  0  0  0  0
  139.9780   69.9370  225.9820 C   0  0  0  0  0  0  0  0  0  0  0  0
  139.8730   69.2400  227.1680 C   0  0  0  0  0  0  0  0  0  0  0  0
  140.3530   69.8260  228.3410 C   0  0  0  0  0  0  0  0  0  0  0  0
  140.9220   71.0800  228.3120 C   0  0  0  0  0  0  0  0  0  0  0  0
  141.0230   71.7730  227.1150 C   0  0  0  0  0  0  0  0  0  0  0  0
  140.5500   71.1990  225.9470 C   0  0  0  0  0  0  0  0  0  0  0  0
  140.6440   71.8600  224.7890 N   0  0  0  0  0  0  0  0  0  0  0  0
  139.5640   73.8870  223.2410 H   0  0  0  0  0  0  0  0  0  0  0  0
  140.8944   73.9766  220.5702 H   0  0  0  0  0  0  0  0  0  0  0  0
  139.1056   74.0975  220.5308 H   0  0  0  0  0  0  0  0  0  0  0  0
  139.5114   75.9761  218.9018 H   0  0  0  0  0  0  0  0  0  0  0  0
  139.0065   77.5712  219.3565 H   0  0  0  0  0  0  0  0  0  0  0  0
  141.6364   76.6386  218.0923 H   0  0  0  0  0  0  0  0  0  0  0  0
  140.7317   78.1144  217.7244 H   0  0  0  0  0  0  0  0  0  0  0  0
  142.9789   78.0859  219.3013 H   0  0  0  0  0  0  0  0  0  0  0  0
  141.6997   79.2862  219.5274 H   0  0  0  0  0  0  0  0  0  0  0  0
  142.4840   77.0830  221.2686 H   0  0  0  0  0  0  0  0  0  0  0  0
  143.3348   78.8987  222.3202 H   0  0  0  0  0  0  0  0  0  0  0  0
  142.9826   80.6031  224.0814 H   0  0  0  0  0  0  0  0  0  0  0  0
  140.6250   81.2584  224.6266 H   0  0  0  0  0  0  0  0  0  0  0  0
  139.1473   78.4935  221.6428 H   0  0  0  0  0  0  0  0  0  0  0  0
  139.2661   69.6788  222.6849 H   0  0  0  0  0  0  0  0  0  0  0  0
  139.0516   68.3866  224.7793 H   0  0  0  0  0  0  0  0  0  0  0  0
  139.4184   68.2386  227.1892 H   0  0  0  0  0  0  0  0  0  0  0  0
  140.2762   69.2827  229.2944 H   0  0  0  0  0  0  0  0  0  0  0  0
  141.2975   71.5333  229.2413 H   0  0  0  0  0  0  0  0  0  0  0  0
  141.4770   72.7747  227.0935 H   0  0  0  0  0  0  0  0  0  0  0  0
  1  2  2  0
  2  3  1  0
  3  4  1  0
  4  5  1  0
  5  6  2  0
  5  7  1  0
  7  8  1  0
  8  9  1  0
  9 10  1  0
 10 11  1  0
 11 12  1  0
 12 13  2  0
 13 14  1  0
 14 15  2  0
 15 16  1  0
 16 17  1  0
 17 18  1  0
 17 19  1  0
 17 20  1  0
 16 21  2  0
  2 22  1  0
 22 23  2  0
 23 24  1  0
 24 25  2  0
 25 26  1  0
 26 27  2  0
 27 28  1  0
 28 29  2  0
 29 30  1  0
 30 31  2  0
 11  7  1  0
 21 12  1  0
 31 22  1  0
 30 25  1  0
  3 32  1  0
  4 33  1  0
  4 34  1  0
  8 35  1  0
  8 36  1  0
  9 37  1  0
  9 38  1  0
 10 39  1  0
 10 40  1  0
 11 41  1  1
 13 42  1  0
 14 43  1  0
 15 44  1  0
 21 45  1  0
 23 46  1  0
 24 47  1  0
 26 48  1  0
 27 49  1  0
 28 50  1  0
 29 51  1  0
M  END
>  <smiles>  (69) 
O=C(NCC(=O)N1CCCC1c1cccc(C(F)(F)F)c1)c1ccc2ccccc2n1

>  <score_type>  (69) 
oracle

>  <origin>  (69) 
autodockgpu

>  <m_score__min__energy>  (69) 
-9.1500000000000004

>  <m_primary>  (69) 
energy

>  <rmsd>  (69) 
1.655304975125784

>  <m_score__min__rmsd>  (69) 
1.655304975125784

>  <meeko>  (69) 
{"free_energy": -8.83, "intermolecular_energy": -10.62, "internal_energy": -1.95, "cluster_size": 27, "cluster_id": 2, "rank_in_cluster": 13}

>  <energy>  (69) 
-8.83

>  <cluster_rmsd>  (69) 
0.08

>  <cluster>  (69) 
2

$$$$

     RDKit          3D

 51 54  0  0  0  0  0  0  0  0999 V2000
  141.3730   72.0310  221.4400 O   0  0  0  0  0  0  0  0  0  0  0  0
  140.5270   72.3750  222.3190 C   0  0  0  0  0  0  0  0  0  0  0  0
  139.7820   73.5720  222.1710 N   0  0  0  0  0  0  0  0  0  0  0  0
  139.9430   74.4470  221.0290 C   0  0  0  0  0  0  0  0  0  0  0  0
  140.6810   75.6760  221.4550 C   0  0  0  0  0  0  0  0  0  0  0  0
  140.7190   75.9960  222.6890 O   0  0  0  0  0  0  0  0  0  0  0  0
  141.3490   76.5110  220.5260 N   0  0  0  0  0  0  0  0  0  0  0  0
  141.8990   77.8020  220.8710 C   0  0  0  0  0  0  0  0  0  0  0  0
  141.7920   78.5100  219.5350 C   0  0  0  0  0  0  0  0  0  0  0  0
  141.9610   77.4410  218.4900 C   0  0  0  0  0  0  0  0  0  0  0  0
  141.5560   76.1730  219.1460 C   0  0  1  0  0  0  0  0  0  0  0  0
  142.5600   75.0860  218.9790 C   0  0  0  0  0  0  0  0  0  0  0  0
  142.5200   74.3520  217.8270 C   0  0  0  0  0  0  0  0  0  0  0  0
  143.3930   73.3210  217.5570 C   0  0  0  0  0  0  0  0  0  0  0  0
  144.3450   73.0420  218.5180 C   0  0  0  0  0  0  0  0  0  0  0  0
  144.3890   73.7880  219.6930 C   0  0  0  0  0  0  0  0  0  0  0  0
  145.4500   73.4110  220.6660 C   0  0  0  0  0  0  0  0  0  0  0  0
  146.0040   74.5260  221.2260 F   0  0  0  0  0  0  0  0  0  0  0  0
  146.4270   72.7420  219.9440 F   0  0  0  0  0  0  0  0  0  0  0  0
  144.9070   72.5920  221.6230 F   0  0  0  0  0  0  0  0  0  0  0  0
  143.4920   74.8200  219.9320 C   0  0  0  0  0  0  0  0  0  0  0  0
  140.3030   71.5560  223.4970 C   0  0  0  0  0  0  0  0  0  0  0  0
  139.6080   70.3810  223.3890 C   0  0  0  0  0  0  0  0  0  0  0  0
  139.3760   69.5800  224.4830 C   0  0  0  0  0  0  0  0  0  0  0  0
  139.8620   69.9780  225.7280 C   0  0  0  0  0  0  0  0  0  0  0  0
  139.6500   69.2020  226.8480 C   0  0  0  0  0  0  0  0  0  0  0  0
  140.1530   69.6350  228.0760 C   0  0  0  0  0  0  0  0  0  0  0  0
  140.8500   70.8200  228.1650 C   0  0  0  0  0  0  0  0  0  0  0  0
  141.0580   71.5940  227.0340 C   0  0  0  0  0  0  0  0  0  0  0  0
  140.5630   71.1710  225.8120 C   0  0  0  0  0  0  0  0  0  0  0  0
  140.7600   71.9120  224.7170 N   0  0  0  0  0  0  0  0  0  0  0  0
  139.0880   73.8250  222.9260 H   0  0  0  0  0  0  0  0  0  0  0  0
  140.5135   73.9280  220.2447 H   0  0  0  0  0  0  0  0  0  0  0  0
  138.9552   74.7260  220.6335 H   0  0  0  0  0  0  0  0  0  0  0  0
  141.3020   78.3043  221.6464 H   0  0  0  0  0  0  0  0  0  0  0  0
  142.9136   77.7710  221.2949 H   0  0  0  0  0  0  0  0  0  0  0  0
  140.8083   78.9918  219.4345 H   0  0  0  0  0  0  0  0  0  0  0  0
  142.5513   79.2994  219.4332 H   0  0  0  0  0  0  0  0  0  0  0  0
  141.3169   77.6471  217.6224 H   0  0  0  0  0  0  0  0  0  0  0  0
  142.9956   77.3947  218.1192 H   0  0  0  0  0  0  0  0  0  0  0  0
  140.6449   75.7646  218.6843 H   0  0  0  0  0  0  0  0  0  0  0  0
  141.7525   74.5966  217.0779 H   0  0  0  0  0  0  0  0  0  0  0  0
  143.3346   72.7471  216.6204 H   0  0  0  0  0  0  0  0  0  0  0  0
  145.0689   72.2300  218.3551 H   0  0  0  0  0  0  0  0  0  0  0  0
  143.5341   75.4041  220.8632 H   0  0  0  0  0  0  0  0  0  0  0  0
  139.2266   70.0706  222.4050 H   0  0  0  0  0  0  0  0  0  0  0  0
  138.8154   68.6395  224.3773 H   0  0  0  0  0  0  0  0  0  0  0  0
  139.0930   68.2563  226.7749 H   0  0  0  0  0  0  0  0  0  0  0  0
  139.9919   69.0264  228.9780 H   0  0  0  0  0  0  0  0  0  0  0  0
  141.2429   71.1531  229.1369 H   0  0  0  0  0  0  0  0  0  0  0  0
  141.6140   72.5403  227.1070 H   0  0  0  0  0  0  0  0  0  0  0  0
  1  2  2  0
  2  3  1  0
  3  4  1  0
  4  5  1  0
  5  6  2  0
  5  7  1  0
  7  8  1  0
  8  9  1  0
  9 10  1  0
 10 11  1  0
 11 12  1  0
 12 13  2  0
 13 14  1  0
 14 15  2  0
 15 16  1  0
 16 17  1  0
 17 18  1  0
 17 19  1  0
 17 20  1  0
 16 21  2  0
  2 22  1  0
 22 23  2  0
 23 24  1  0
 24 25  2  0
 25 26  1  0
 26 27  2  0
 27 28  1  0
 28 29  2  0
 29 30  1  0
 30 31  2  0
 11  7  1  0
 21 12  1  0
 31 22  1  0
 30 25  1  0
  3 32  1  0
  4 33  1  0
  4 34  1  0
  8 35  1  0
  8 36  1  0
  9 37  1  0
  9 38  1  0
 10 39  1  0
 10 40  1  0
 11 41  1  6
 13 42  1  0
 14 43  1  0
 15 44  1  0
 21 45  1  0
 23 46  1  0
 24 47  1  0
 26 48  1  0
 27 49  1  0
 28 50  1  0
 29 51  1  0
M  END
>  <smiles>  (70) 
O=C(NCC(=O)N1CCCC1c1cccc(C(F)(F)F)c1)c1ccc2ccccc2n1

>  <score_type>  (70) 
oracle

>  <origin>  (70) 
autodockgpu

>  <m_score__min__energy>  (70) 
-9.1500000000000004

>  <m_primary>  (70) 
energy

>  <rmsd>  (70) 
2.29789696872524

>  <m_score__min__rmsd>  (70) 
2.29789696872524

>  <meeko>  (70) 
{"free_energy": -7.84, "intermolecular_energy": -9.63, "internal_energy": -1.82, "cluster_size": 12, "cluster_id": 3, "rank_in_cluster": 11}

>  <energy>  (70) 
-8.81

>  <cluster_rmsd>  (70) 
0.16

>  <cluster>  (70) 
2

$$$$

     RDKit          3D

 51 54  0  0  0  0  0  0  0  0999 V2000
  140.7450   71.3270  221.3060 O   0  0  0  0  0  0  0  0  0  0  0  0
  140.3220   71.9290  222.3380 C   0  0  0  0  0  0  0  0  0  0  0  0
  139.9370   73.2920  222.2690 N   0  0  0  0  0  0  0  0  0  0  0  0
  140.0060   74.0530  221.0390 C   0  0  0  0  0  0  0  0  0  0  0  0
  140.4790   75.4380  221.3470 C   0  0  0  0  0  0  0  0  0  0  0  0
  140.0400   76.0430  222.3790 O   0  0  0  0  0  0  0  0  0  0  0  0
  141.4130   76.1130  220.5220 N   0  0  0  0  0  0  0  0  0  0  0  0
  141.8520   77.4680  220.7640 C   0  0  0  0  0  0  0  0  0  0  0  0
  142.1690   77.9100  219.3490 C   0  0  0  0  0  0  0  0  0  0  0  0
  142.6320   76.6730  218.6280 C   0  0  0  0  0  0  0  0  0  0  0  0
  142.0260   75.5330  219.3600 C   0  0  1  0  0  0  0  0  0  0  0  0
  143.0160   74.4790  219.7150 C   0  0  0  0  0  0  0  0  0  0  0  0
  144.1350   74.8600  220.4000 C   0  0  0  0  0  0  0  0  0  0  0  0
  145.1230   73.9790  220.7840 C   0  0  0  0  0  0  0  0  0  0  0  0
  144.9410   72.6520  220.4450 C   0  0  0  0  0  0  0  0  0  0  0  0
  143.8000   72.2600  219.7470 C   0  0  0  0  0  0  0  0  0  0  0  0
  143.6970   70.8090  219.4290 C   0  0  0  0  0  0  0  0  0  0  0  0
  144.0630   70.0570  220.5070 F   0  0  0  0  0  0  0  0  0  0  0  0
  144.5860   70.5690  218.3930 F   0  0  0  0  0  0  0  0  0  0  0  0
  142.4120   70.5290  219.0410 F   0  0  0  0  0  0  0  0  0  0  0  0
  142.8260   73.1760  219.3760 C   0  0  0  0  0  0  0  0  0  0  0  0
  140.2210   71.2410  223.6130 C   0  0  0  0  0  0  0  0  0  0  0  0
  139.6590   69.9940  223.6730 C   0  0  0  0  0  0  0  0  0  0  0  0
  139.5470   69.3130  224.8630 C   0  0  0  0  0  0  0  0  0  0  0  0
  140.0190   69.9110  226.0310 C   0  0  0  0  0  0  0  0  0  0  0  0
  139.9240   69.2590  227.2430 C   0  0  0  0  0  0  0  0  0  0  0  0
  140.4080   69.8910  228.3900 C   0  0  0  0  0  0  0  0  0  0  0  0
  140.9710   71.1450  228.3100 C   0  0  0  0  0  0  0  0  0  0  0  0
  141.0610   71.7930  227.0870 C   0  0  0  0  0  0  0  0  0  0  0  0
  140.5840   71.1730  225.9450 C   0  0  0  0  0  0  0  0  0  0  0  0
  140.6680   71.7910  224.7620 N   0  0  0  0  0  0  0  0  0  0  0  0
  139.5900   73.7590  223.1510 H   0  0  0  0  0  0  0  0  0  0  0  0
  140.7094   73.5692  220.3453 H   0  0  0  0  0  0  0  0  0  0  0  0
  139.0104   74.0961  220.5733 H   0  0  0  0  0  0  0  0  0  0  0  0
  141.0550   78.0796  221.2120 H   0  0  0  0  0  0  0  0  0  0  0  0
  142.6886   77.5602  221.4723 H   0  0  0  0  0  0  0  0  0  0  0  0
  141.2706   78.3215  218.8658 H   0  0  0  0  0  0  0  0  0  0  0  0
  142.9353   78.6990  219.3330 H   0  0  0  0  0  0  0  0  0  0  0  0
  142.2868   76.6856  217.5836 H   0  0  0  0  0  0  0  0  0  0  0  0
  143.7295   76.6033  218.6036 H   0  0  0  0  0  0  0  0  0  0  0  0
  141.2928   75.0066  218.7312 H   0  0  0  0  0  0  0  0  0  0  0  0
  144.2533   75.9228  220.6579 H   0  0  0  0  0  0  0  0  0  0  0  0
  146.0139   74.3163  221.3341 H   0  0  0  0  0  0  0  0  0  0  0  0
  145.6972   71.9043  220.7262 H   0  0  0  0  0  0  0  0  0  0  0  0
  141.9285   72.8581  218.8251 H   0  0  0  0  0  0  0  0  0  0  0  0
  139.2887   69.5261  222.7489 H   0  0  0  0  0  0  0  0  0  0  0  0
  139.0920   68.3119  224.8928 H   0  0  0  0  0  0  0  0  0  0  0  0
  139.4741   68.2571  227.3047 H   0  0  0  0  0  0  0  0  0  0  0  0
  140.3391   69.3839  229.3637 H   0  0  0  0  0  0  0  0  0  0  0  0
  141.3506   71.6345  229.2190 H   0  0  0  0  0  0  0  0  0  0  0  0
  141.5096   72.7955  227.0248 H   0  0  0  0  0  0  0  0  0  0  0  0
  1  2  2  0
  2  3  1  0
  3  4  1  0
  4  5  1  0
  5  6  2  0
  5  7  1  0
  7  8  1  0
  8  9  1  0
  9 10  1  0
 10 11  1  0
 11 12  1  0
 12 13  2  0
 13 14  1  0
 14 15  2  0
 15 16  1  0
 16 17  1  0
 17 18  1  0
 17 19  1  0
 17 20  1  0
 16 21  2  0
  2 22  1  0
 22 23  2  0
 23 24  1  0
 24 25  2  0
 25 26  1  0
 26 27  2  0
 27 28  1  0
 28 29  2  0
 29 30  1  0
 30 31  2  0
 11  7  1  0
 21 12  1  0
 31 22  1  0
 30 25  1  0
  3 32  1  0
  4 33  1  0
  4 34  1  0
  8 35  1  0
  8 36  1  0
  9 37  1  0
  9 38  1  0
 10 39  1  0
 10 40  1  0
 11 41  1  6
 13 42  1  0
 14 43  1  0
 15 44  1  0
 21 45  1  0
 23 46  1  0
 24 47  1  0
 26 48  1  0
 27 49  1  0
 28 50  1  0
 29 51  1  0
M  END
>  <smiles>  (71) 
O=C(NCC(=O)N1CCCC1c1cccc(C(F)(F)F)c1)c1ccc2ccccc2n1

>  <score_type>  (71) 
oracle

>  <origin>  (71) 
autodockgpu

>  <m_score__min__energy>  (71) 
-9.1500000000000004

>  <m_primary>  (71) 
energy

>  <rmsd>  (71) 
2.2462160398256175

>  <m_score__min__rmsd>  (71) 
2.2462160398256175

>  <meeko>  (71) 
{"free_energy": -8.25, "intermolecular_energy": -10.04, "internal_energy": -2.19, "cluster_size": 12, "cluster_id": 3, "rank_in_cluster": 5}

>  <energy>  (71) 
-8.8

>  <cluster_rmsd>  (71) 
0.13

>  <cluster>  (71) 
2

$$$$

     RDKit          3D

 51 54  0  0  0  0  0  0  0  0999 V2000
  141.0720   71.6950  221.4100 O   0  0  0  0  0  0  0  0  0  0  0  0
  140.4520   72.2180  222.3850 C   0  0  0  0  0  0  0  0  0  0  0  0
  139.9540   73.5430  222.2940 N   0  0  0  0  0  0  0  0  0  0  0  0
  140.1240   74.3520  221.1060 C   0  0  0  0  0  0  0  0  0  0  0  0
  140.2480   75.7880  221.5070 C   0  0  0  0  0  0  0  0  0  0  0  0
  140.0010   76.1340  222.7080 O   0  0  0  0  0  0  0  0  0  0  0  0
  140.6370   76.7930  220.5870 N   0  0  0  0  0  0  0  0  0  0  0  0
  139.9870   76.9990  219.3130 C   0  0  0  0  0  0  0  0  0  0  0  0
  141.1370   77.5690  218.5080 C   0  0  0  0  0  0  0  0  0  0  0  0
  141.9880   78.3280  219.4900 C   0  0  0  0  0  0  0  0  0  0  0  0
  141.7130   77.7170  220.8140 C   0  0  1  0  0  0  0  0  0  0  0  0
  141.3790   78.7220  221.8590 C   0  0  0  0  0  0  0  0  0  0  0  0
  142.4130   79.3120  222.5310 C   0  0  0  0  0  0  0  0  0  0  0  0
  142.2330   80.2550  223.5190 C   0  0  0  0  0  0  0  0  0  0  0  0
  140.9300   80.5990  223.8220 C   0  0  0  0  0  0  0  0  0  0  0  0
  139.8730   79.9990  223.1400 C   0  0  0  0  0  0  0  0  0  0  0  0
  138.5070   80.4360  223.5390 C   0  0  0  0  0  0  0  0  0  0  0  0
  138.2790   81.7190  223.1340 F   0  0  0  0  0  0  0  0  0  0  0  0
  138.4690   80.3920  224.9250 F   0  0  0  0  0  0  0  0  0  0  0  0
  137.5880   79.5740  223.0000 F   0  0  0  0  0  0  0  0  0  0  0  0
  140.0930   79.0520  222.1500 C   0  0  0  0  0  0  0  0  0  0  0  0
  140.2370   71.4760  223.6150 C   0  0  0  0  0  0  0  0  0  0  0  0
  139.5400   70.2970  223.5880 C   0  0  0  0  0  0  0  0  0  0  0  0
  139.3170   69.5690  224.7330 C   0  0  0  0  0  0  0  0  0  0  0  0
  139.8150   70.0450  225.9450 C   0  0  0  0  0  0  0  0  0  0  0  0
  139.6110   69.3420  227.1140 C   0  0  0  0  0  0  0  0  0  0  0  0
  140.1260   69.8520  228.3080 C   0  0  0  0  0  0  0  0  0  0  0  0
  140.8240   71.0390  228.3150 C   0  0  0  0  0  0  0  0  0  0  0  0
  141.0230   71.7390  227.1350 C   0  0  0  0  0  0  0  0  0  0  0  0
  140.5170   71.2400  225.9470 C   0  0  0  0  0  0  0  0  0  0  0  0
  140.7050   71.9090  224.8050 N   0  0  0  0  0  0  0  0  0  0  0  0
  139.4430   73.9430  223.1270 H   0  0  0  0  0  0  0  0  0  0  0  0
  141.0338   74.0381  220.5734 H   0  0  0  0  0  0  0  0  0  0  0  0
  139.2553   74.2254  220.4432 H   0  0  0  0  0  0  0  0  0  0  0  0
  139.6210   76.0537  218.8858 H   0  0  0  0  0  0  0  0  0  0  0  0
  139.0924   77.6379  219.3518 H   0  0  0  0  0  0  0  0  0  0  0  0
  141.7182   76.7588  218.0435 H   0  0  0  0  0  0  0  0  0  0  0  0
  140.7797   78.2183  217.6952 H   0  0  0  0  0  0  0  0  0  0  0  0
  143.0529   78.2260  219.2340 H   0  0  0  0  0  0  0  0  0  0  0  0
  141.7564   79.4033  219.4825 H   0  0  0  0  0  0  0  0  0  0  0  0
  142.6076   77.2132  221.2088 H   0  0  0  0  0  0  0  0  0  0  0  0
  143.4405   79.0190  222.2697 H   0  0  0  0  0  0  0  0  0  0  0  0
  143.0861   80.7122  224.0416 H   0  0  0  0  0  0  0  0  0  0  0  0
  140.7264   81.3472  224.6023 H   0  0  0  0  0  0  0  0  0  0  0  0
  139.2527   78.5829  221.6172 H   0  0  0  0  0  0  0  0  0  0  0  0
  139.1501   69.9245  222.6292 H   0  0  0  0  0  0  0  0  0  0  0  0
  138.7539   68.6249  224.6932 H   0  0  0  0  0  0  0  0  0  0  0  0
  139.0516   68.3949  227.1061 H   0  0  0  0  0  0  0  0  0  0  0  0
  139.9731   69.3021  229.2484 H   0  0  0  0  0  0  0  0  0  0  0  0
  141.2252   71.4332  229.2603 H   0  0  0  0  0  0  0  0  0  0  0  0
  141.5807   72.6871  227.1427 H   0  0  0  0  0  0  0  0  0  0  0  0
  1  2  2  0
  2  3  1  0
  3  4  1  0
  4  5  1  0
  5  6  2  0
  5  7  1  0
  7  8  1  0
  8  9  1  0
  9 10  1  0
 10 11  1  0
 11 12  1  0
 12 13  2  0
 13 14  1  0
 14 15  2  0
 15 16  1  0
 16 17  1  0
 17 18  1  0
 17 19  1  0
 17 20  1  0
 16 21  2  0
  2 22  1  0
 22 23  2  0
 23 24  1  0
 24 25  2  0
 25 26  1  0
 26 27  2  0
 27 28  1  0
 28 29  2  0
 29 30  1  0
 30 31  2  0
 11  7  1  0
 21 12  1  0
 31 22  1  0
 30 25  1  0
  3 32  1  0
  4 33  1  0
  4 34  1  0
  8 35  1  0
  8 36  1  0
  9 37  1  0
  9 38  1  0
 10 39  1  0
 10 40  1  0
 11 41  1  1
 13 42  1  0
 14 43  1  0
 15 44  1  0
 21 45  1  0
 23 46  1  0
 24 47  1  0
 26 48  1  0
 27 49  1  0
 28 50  1  0
 29 51  1  0
M  END
>  <smiles>  (72) 
O=C(NCC(=O)N1CCCC1c1cccc(C(F)(F)F)c1)c1ccc2ccccc2n1

>  <score_type>  (72) 
oracle

>  <origin>  (72) 
autodockgpu

>  <m_score__min__energy>  (72) 
-9.1500000000000004

>  <m_primary>  (72) 
energy

>  <rmsd>  (72) 
1.7486756824440775

>  <m_score__min__rmsd>  (72) 
1.7486756824440775

>  <meeko>  (72) 
{"free_energy": -8.87, "intermolecular_energy": -10.66, "internal_energy": -1.84, "cluster_size": 27, "cluster_id": 2, "rank_in_cluster": 6}

>  <energy>  (72) 
-8.68

>  <cluster_rmsd>  (72) 
0.29

>  <cluster>  (72) 
2

$$$$

     RDKit          3D

 51 54  0  0  0  0  0  0  0  0999 V2000
  140.7130   71.4980  221.3090 O   0  0  0  0  0  0  0  0  0  0  0  0
  140.2970   72.0670  222.3620 C   0  0  0  0  0  0  0  0  0  0  0  0
  139.9150   73.4330  222.3400 N   0  0  0  0  0  0  0  0  0  0  0  0
  139.9780   74.2330  221.1350 C   0  0  0  0  0  0  0  0  0  0  0  0
  140.0720   75.6770  221.5120 C   0  0  0  0  0  0  0  0  0  0  0  0
  139.7400   76.0480  222.6850 O   0  0  0  0  0  0  0  0  0  0  0  0
  140.5230   76.6630  220.6000 N   0  0  0  0  0  0  0  0  0  0  0  0
  139.9090   76.8950  219.3120 C   0  0  0  0  0  0  0  0  0  0  0  0
  141.0990   77.4130  218.5310 C   0  0  0  0  0  0  0  0  0  0  0  0
  141.9620   78.1370  219.5300 C   0  0  0  0  0  0  0  0  0  0  0  0
  141.6330   77.5400  220.8480 C   0  0  1  0  0  0  0  0  0  0  0  0
  141.3210   78.5600  221.8860 C   0  0  0  0  0  0  0  0  0  0  0  0
  142.3670   79.1340  222.5520 C   0  0  0  0  0  0  0  0  0  0  0  0
  142.2070   80.0880  223.5330 C   0  0  0  0  0  0  0  0  0  0  0  0
  140.9120   80.4620  223.8340 C   0  0  0  0  0  0  0  0  0  0  0  0
  139.8420   79.8790  223.1570 C   0  0  0  0  0  0  0  0  0  0  0  0
  138.4860   80.3480  223.5530 C   0  0  0  0  0  0  0  0  0  0  0  0
  137.5320   79.4830  223.1030 F   0  0  0  0  0  0  0  0  0  0  0  0
  138.3000   81.5780  222.9400 F   0  0  0  0  0  0  0  0  0  0  0  0
  138.4390   80.4740  224.9180 F   0  0  0  0  0  0  0  0  0  0  0  0
  140.0420   78.9200  222.1740 C   0  0  0  0  0  0  0  0  0  0  0  0
  140.2030   71.3390  223.6150 C   0  0  0  0  0  0  0  0  0  0  0  0
  139.6340   70.0930  223.6390 C   0  0  0  0  0  0  0  0  0  0  0  0
  139.5270   69.3740  224.8070 C   0  0  0  0  0  0  0  0  0  0  0  0
  140.0120   69.9310  225.9900 C   0  0  0  0  0  0  0  0  0  0  0  0
  139.9230   69.2400  227.1800 C   0  0  0  0  0  0  0  0  0  0  0  0
  140.4200   69.8310  228.3440 C   0  0  0  0  0  0  0  0  0  0  0  0
  140.9890   71.0850  228.3000 C   0  0  0  0  0  0  0  0  0  0  0  0
  141.0740   71.7720  227.0980 C   0  0  0  0  0  0  0  0  0  0  0  0
  140.5840   71.1920  225.9400 C   0  0  0  0  0  0  0  0  0  0  0  0
  140.6620   71.8480  224.7780 N   0  0  0  0  0  0  0  0  0  0  0  0
  139.5750   73.8710  223.2380 H   0  0  0  0  0  0  0  0  0  0  0  0
  140.8635   73.9468  220.5485 H   0  0  0  0  0  0  0  0  0  0  0  0
  139.0743   74.0654  220.5307 H   0  0  0  0  0  0  0  0  0  0  0  0
  139.5112   75.9658  218.8780 H   0  0  0  0  0  0  0  0  0  0  0  0
  139.0424   77.5722  219.3316 H   0  0  0  0  0  0  0  0  0  0  0  0
  141.6541   76.5774  218.0798 H   0  0  0  0  0  0  0  0  0  0  0  0
  140.7871   78.0756  217.7102 H   0  0  0  0  0  0  0  0  0  0  0  0
  143.0267   77.9889  219.2964 H   0  0  0  0  0  0  0  0  0  0  0  0
  141.7777   79.2214  219.5169 H   0  0  0  0  0  0  0  0  0  0  0  0
  142.4968   76.9983  221.2608 H   0  0  0  0  0  0  0  0  0  0  0  0
  143.3882   78.8185  222.2918 H   0  0  0  0  0  0  0  0  0  0  0  0
  143.0699   80.5309  224.0520 H   0  0  0  0  0  0  0  0  0  0  0  0
  140.7248   81.2204  224.6085 H   0  0  0  0  0  0  0  0  0  0  0  0
  139.1920   78.4652  221.6442 H   0  0  0  0  0  0  0  0  0  0  0  0
  139.2540   69.6575  222.7031 H   0  0  0  0  0  0  0  0  0  0  0  0
  139.0660   68.3752  224.8078 H   0  0  0  0  0  0  0  0  0  0  0  0
  139.4678   68.2391  227.2121 H   0  0  0  0  0  0  0  0  0  0  0  0
  140.3567   69.2923  229.3010 H   0  0  0  0  0  0  0  0  0  0  0  0
  141.3773   71.5431  229.2216 H   0  0  0  0  0  0  0  0  0  0  0  0
  141.5286   72.7731  227.0648 H   0  0  0  0  0  0  0  0  0  0  0  0
  1  2  2  0
  2  3  1  0
  3  4  1  0
  4  5  1  0
  5  6  2  0
  5  7  1  0
  7  8  1  0
  8  9  1  0
  9 10  1  0
 10 11  1  0
 11 12  1  0
 12 13  2  0
 13 14  1  0
 14 15  2  0
 15 16  1  0
 16 17  1  0
 17 18  1  0
 17 19  1  0
 17 20  1  0
 16 21  2  0
  2 22  1  0
 22 23  2  0
 23 24  1  0
 24 25  2  0
 25 26  1  0
 26 27  2  0
 27 28  1  0
 28 29  2  0
 29 30  1  0
 30 31  2  0
 11  7  1  0
 21 12  1  0
 31 22  1  0
 30 25  1  0
  3 32  1  0
  4 33  1  0
  4 34  1  0
  8 35  1  0
  8 36  1  0
  9 37  1  0
  9 38  1  0
 10 39  1  0
 10 40  1  0
 11 41  1  1
 13 42  1  0
 14 43  1  0
 15 44  1  0
 21 45  1  0
 23 46  1  0
 24 47  1  0
 26 48  1  0
 27 49  1  0
 28 50  1  0
 29 51  1  0
M  END
>  <smiles>  (73) 
O=C(NCC(=O)N1CCCC1c1cccc(C(F)(F)F)c1)c1ccc2ccccc2n1

>  <score_type>  (73) 
oracle

>  <origin>  (73) 
autodockgpu

>  <m_score__min__energy>  (73) 
-9.1500000000000004

>  <m_primary>  (73) 
energy

>  <rmsd>  (73) 
1.6410602318971532

>  <m_score__min__rmsd>  (73) 
1.6410602318971532

>  <meeko>  (73) 
{"free_energy": -8.85, "intermolecular_energy": -10.64, "internal_energy": -1.94, "cluster_size": 27, "cluster_id": 2, "rank_in_cluster": 9}

>  <energy>  (73) 
-8.56

>  <cluster_rmsd>  (73) 
1.2

>  <cluster>  (73) 
2

$$$$

     RDKit          3D

 51 54  0  0  0  0  0  0  0  0999 V2000
  139.9010   73.5140  222.4190 O   0  0  0  0  0  0  0  0  0  0  0  0
  140.2390   72.2920  222.3870 C   0  0  0  0  0  0  0  0  0  0  0  0
  140.6820   71.6990  221.1770 N   0  0  0  0  0  0  0  0  0  0  0  0
  140.7690   72.4440  219.9380 C   0  0  0  0  0  0  0  0  0  0  0  0
  142.0150   72.0430  219.2150 C   0  0  0  0  0  0  0  0  0  0  0  0
  141.9570   71.1690  218.2880 O   0  0  0  0  0  0  0  0  0  0  0  0
  143.2770   72.6070  219.5240 N   0  0  0  0  0  0  0  0  0  0  0  0
  144.4660   72.3750  218.7350 C   0  0  0  0  0  0  0  0  0  0  0  0
  145.5340   72.5220  219.8000 C   0  0  0  0  0  0  0  0  0  0  0  0
  144.9960   73.5260  220.7840 C   0  0  0  0  0  0  0  0  0  0  0  0
  143.5200   73.4680  220.6470 C   0  0  1  0  0  0  0  0  0  0  0  0
  142.9000   74.8100  220.4700 C   0  0  0  0  0  0  0  0  0  0  0  0
  143.4250   75.6350  219.5160 C   0  0  0  0  0  0  0  0  0  0  0  0
  142.9400   76.8980  219.2580 C   0  0  0  0  0  0  0  0  0  0  0  0
  141.8680   77.3220  220.0190 C   0  0  0  0  0  0  0  0  0  0  0  0
  141.3290   76.4840  220.9930 C   0  0  0  0  0  0  0  0  0  0  0  0
  140.1770   77.0310  221.7600 C   0  0  0  0  0  0  0  0  0  0  0  0
  139.3650   77.7640  220.9430 F   0  0  0  0  0  0  0  0  0  0  0  0
  140.7100   77.8680  222.7280 F   0  0  0  0  0  0  0  0  0  0  0  0
  139.4930   75.9930  222.3380 F   0  0  0  0  0  0  0  0  0  0  0  0
  141.8450   75.2160  221.2250 C   0  0  0  0  0  0  0  0  0  0  0  0
  140.1820   71.4720  223.5840 C   0  0  0  0  0  0  0  0  0  0  0  0
  139.6530   70.2100  223.5230 C   0  0  0  0  0  0  0  0  0  0  0  0
  139.5820   69.4060  224.6360 C   0  0  0  0  0  0  0  0  0  0  0  0
  140.0620   69.8910  225.8520 C   0  0  0  0  0  0  0  0  0  0  0  0
  140.0080   69.1130  226.9900 C   0  0  0  0  0  0  0  0  0  0  0  0
  140.4990   69.6350  228.1880 C   0  0  0  0  0  0  0  0  0  0  0  0
  141.0280   70.9060  228.2310 C   0  0  0  0  0  0  0  0  0  0  0  0
  141.0770   71.6800  227.0810 C   0  0  0  0  0  0  0  0  0  0  0  0
  140.5940   71.1700  225.8890 C   0  0  0  0  0  0  0  0  0  0  0  0
  140.6380   71.9110  224.7770 N   0  0  0  0  0  0  0  0  0  0  0  0
  140.9540   70.6790  221.1910 H   0  0  0  0  0  0  0  0  0  0  0  0
  139.8920   72.2224  219.3121 H   0  0  0  0  0  0  0  0  0  0  0  0
  140.7954   73.5223  220.1539 H   0  0  0  0  0  0  0  0  0  0  0  0
  144.4697   71.3683  218.2918 H   0  0  0  0  0  0  0  0  0  0  0  0
  144.5827   73.0466  217.8716 H   0  0  0  0  0  0  0  0  0  0  0  0
  145.7148   71.5575  220.2970 H   0  0  0  0  0  0  0  0  0  0  0  0
  146.4921   72.8495  219.3702 H   0  0  0  0  0  0  0  0  0  0  0  0
  145.2973   73.2596  221.8078 H   0  0  0  0  0  0  0  0  0  0  0  0
  145.3835   74.5365  220.5872 H   0  0  0  0  0  0  0  0  0  0  0  0
  143.0551   73.0809  221.5657 H   0  0  0  0  0  0  0  0  0  0  0  0
  144.2782   75.2722  218.9240 H   0  0  0  0  0  0  0  0  0  0  0  0
  143.3852   77.5387  218.4826 H   0  0  0  0  0  0  0  0  0  0  0  0
  141.4395   78.3219  219.8560 H   0  0  0  0  0  0  0  0  0  0  0  0
  141.4135   74.5604  221.9958 H   0  0  0  0  0  0  0  0  0  0  0  0
  139.2763   69.8311  222.5615 H   0  0  0  0  0  0  0  0  0  0  0  0
  139.1530   68.3954  224.5682 H   0  0  0  0  0  0  0  0  0  0  0  0
  139.5851   68.0982  226.9540 H   0  0  0  0  0  0  0  0  0  0  0  0
  140.4632   69.0270  229.1040 H   0  0  0  0  0  0  0  0  0  0  0  0
  141.4126   71.3083  229.1798 H   0  0  0  0  0  0  0  0  0  0  0  0
  141.4983   72.6955  227.1166 H   0  0  0  0  0  0  0  0  0  0  0  0
  1  2  2  0
  2  3  1  0
  3  4  1  0
  4  5  1  0
  5  6  2  0
  5  7  1  0
  7  8  1  0
  8  9  1  0
  9 10  1  0
 10 11  1  0
 11 12  1  0
 12 13  2  0
 13 14  1  0
 14 15  2  0
 15 16  1  0
 16 17  1  0
 17 18  1  0
 17 19  1  0
 17 20  1  0
 16 21  2  0
  2 22  1  0
 22 23  2  0
 23 24  1  0
 24 25  2  0
 25 26  1  0
 26 27  2  0
 27 28  1  0
 28 29  2  0
 29 30  1  0
 30 31  2  0
 11  7  1  0
 21 12  1  0
 31 22  1  0
 30 25  1  0
  3 32  1  0
  4 33  1  0
  4 34  1  0
  8 35  1  0
  8 36  1  0
  9 37  1  0
  9 38  1  0
 10 39  1  0
 10 40  1  0
 11 41  1  1
 13 42  1  0
 14 43  1  0
 15 44  1  0
 21 45  1  0
 23 46  1  0
 24 47  1  0
 26 48  1  0
 27 49  1  0
 28 50  1  0
 29 51  1  0
M  END
>  <smiles>  (74) 
O=C(NCC(=O)N1CCCC1c1cccc(C(F)(F)F)c1)c1ccc2ccccc2n1

>  <score_type>  (74) 
oracle

>  <origin>  (74) 
autodockgpu

>  <m_score__min__energy>  (74) 
-9.1500000000000004

>  <m_primary>  (74) 
energy

>  <rmsd>  (74) 
3.8258728671360642

>  <m_score__min__rmsd>  (74) 
3.8258728671360642

>  <meeko>  (74) 
{"free_energy": -8.05, "intermolecular_energy": -9.84, "internal_energy": -1.69, "cluster_size": 1, "cluster_id": 6, "rank_in_cluster": 1}

>  <energy>  (74) 
-8.55

>  <cluster_rmsd>  (74) 
0.31

>  <cluster>  (74) 
2

$$$$

     RDKit          3D

 51 54  0  0  0  0  0  0  0  0999 V2000
  140.7980   71.5720  221.3220 O   0  0  0  0  0  0  0  0  0  0  0  0
  140.3470   72.1300  222.3670 C   0  0  0  0  0  0  0  0  0  0  0  0
  139.9460   73.4900  222.3420 N   0  0  0  0  0  0  0  0  0  0  0  0
  140.0300   74.2980  221.1440 C   0  0  0  0  0  0  0  0  0  0  0  0
  140.1320   75.7380  221.5320 C   0  0  0  0  0  0  0  0  0  0  0  0
  139.8480   76.0950  222.7220 O   0  0  0  0  0  0  0  0  0  0  0  0
  140.5380   76.7370  220.6130 N   0  0  0  0  0  0  0  0  0  0  0  0
  139.8880   76.9590  219.3420 C   0  0  0  0  0  0  0  0  0  0  0  0
  141.0470   77.5060  218.5330 C   0  0  0  0  0  0  0  0  0  0  0  0
  141.9180   78.2450  219.5140 C   0  0  0  0  0  0  0  0  0  0  0  0
  141.6350   77.6370  220.8370 C   0  0  1  0  0  0  0  0  0  0  0  0
  141.3260   78.6470  221.8860 C   0  0  0  0  0  0  0  0  0  0  0  0
  142.3750   79.2190  222.5500 C   0  0  0  0  0  0  0  0  0  0  0  0
  142.2180   80.1650  223.5400 C   0  0  0  0  0  0  0  0  0  0  0  0
  140.9230   80.5310  223.8530 C   0  0  0  0  0  0  0  0  0  0  0  0
  139.8510   79.9500  223.1790 C   0  0  0  0  0  0  0  0  0  0  0  0
  138.4960   80.4090  223.5890 C   0  0  0  0  0  0  0  0  0  0  0  0
  137.5420   79.5450  223.1370 F   0  0  0  0  0  0  0  0  0  0  0  0
  138.3010   81.6440  222.9880 F   0  0  0  0  0  0  0  0  0  0  0  0
  138.4580   80.5230  224.9550 F   0  0  0  0  0  0  0  0  0  0  0  0
  140.0480   78.9990  222.1860 C   0  0  0  0  0  0  0  0  0  0  0  0
  140.2290   71.3920  223.6120 C   0  0  0  0  0  0  0  0  0  0  0  0
  139.6440   70.1540  223.6200 C   0  0  0  0  0  0  0  0  0  0  0  0
  139.5160   69.4270  224.7810 C   0  0  0  0  0  0  0  0  0  0  0  0
  139.9950   69.9680  225.9730 C   0  0  0  0  0  0  0  0  0  0  0  0
  139.8840   69.2690  227.1570 C   0  0  0  0  0  0  0  0  0  0  0  0
  140.3760   69.8440  228.3300 C   0  0  0  0  0  0  0  0  0  0  0  0
  140.9620   71.0910  228.3030 C   0  0  0  0  0  0  0  0  0  0  0  0
  141.0680   71.7860  227.1080 C   0  0  0  0  0  0  0  0  0  0  0  0
  140.5840   71.2220  225.9410 C   0  0  0  0  0  0  0  0  0  0  0  0
  140.6830   71.8860  224.7840 N   0  0  0  0  0  0  0  0  0  0  0  0
  139.5750   73.9180  223.2330 H   0  0  0  0  0  0  0  0  0  0  0  0
  140.9198   74.0083  220.5658 H   0  0  0  0  0  0  0  0  0  0  0  0
  139.1319   74.1426  220.5282 H   0  0  0  0  0  0  0  0  0  0  0  0
  139.5003   76.0224  218.9147 H   0  0  0  0  0  0  0  0  0  0  0  0
  139.0075   77.6169  219.3854 H   0  0  0  0  0  0  0  0  0  0  0  0
  141.6090   76.6845  218.0647 H   0  0  0  0  0  0  0  0  0  0  0  0
  140.7006   78.1642  217.7226 H   0  0  0  0  0  0  0  0  0  0  0  0
  142.9796   78.1211  219.2539 H   0  0  0  0  0  0  0  0  0  0  0  0
  141.7093   79.3250  219.5098 H   0  0  0  0  0  0  0  0  0  0  0  0
  142.5204   77.1130  221.2264 H   0  0  0  0  0  0  0  0  0  0  0  0
  143.3954   78.9088  222.2808 H   0  0  0  0  0  0  0  0  0  0  0  0
  143.0826   80.6076  224.0563 H   0  0  0  0  0  0  0  0  0  0  0  0
  140.7382   81.2820  224.6352 H   0  0  0  0  0  0  0  0  0  0  0  0
  139.1961   78.5448  221.6588 H   0  0  0  0  0  0  0  0  0  0  0  0
  139.2678   69.7311  222.6768 H   0  0  0  0  0  0  0  0  0  0  0  0
  139.0429   68.4340  224.7688 H   0  0  0  0  0  0  0  0  0  0  0  0
  139.4152   68.2741  227.1765 H   0  0  0  0  0  0  0  0  0  0  0  0
  140.2955   69.2984  229.2817 H   0  0  0  0  0  0  0  0  0  0  0  0
  141.3468   71.5363  229.2323 H   0  0  0  0  0  0  0  0  0  0  0  0
  141.5350   72.7818  227.0878 H   0  0  0  0  0  0  0  0  0  0  0  0
  1  2  2  0
  2  3  1  0
  3  4  1  0
  4  5  1  0
  5  6  2  0
  5  7  1  0
  7  8  1  0
  8  9  1  0
  9 10  1  0
 10 11  1  0
 11 12  1  0
 12 13  2  0
 13 14  1  0
 14 15  2  0
 15 16  1  0
 16 17  1  0
 17 18  1  0
 17 19  1  0
 17 20  1  0
 16 21  2  0
  2 22  1  0
 22 23  2  0
 23 24  1  0
 24 25  2  0
 25 26  1  0
 26 27  2  0
 27 28  1  0
 28 29  2  0
 29 30  1  0
 30 31  2  0
 11  7  1  0
 21 12  1  0
 31 22  1  0
 30 25  1  0
  3 32  1  0
  4 33  1  0
  4 34  1  0
  8 35  1  0
  8 36  1  0
  9 37  1  0
  9 38  1  0
 10 39  1  0
 10 40  1  0
 11 41  1  1
 13 42  1  0
 14 43  1  0
 15 44  1  0
 21 45  1  0
 23 46  1  0
 24 47  1  0
 26 48  1  0
 27 49  1  0
 28 50  1  0
 29 51  1  0
M  END
>  <smiles>  (75) 
O=C(NCC(=O)N1CCCC1c1cccc(C(F)(F)F)c1)c1ccc2ccccc2n1

>  <score_type>  (75) 
oracle

>  <origin>  (75) 
autodockgpu

>  <m_score__min__energy>  (75) 
-9.1500000000000004

>  <m_primary>  (75) 
energy

>  <rmsd>  (75) 
1.6800934290078569

>  <m_score__min__rmsd>  (75) 
1.6800934290078569

>  <meeko>  (75) 
{"free_energy": -8.86, "intermolecular_energy": -10.65, "internal_energy": -1.94, "cluster_size": 27, "cluster_id": 2, "rank_in_cluster": 7}

>  <energy>  (75) 
-8.53

>  <cluster_rmsd>  (75) 
1.63

>  <cluster>  (75) 
2

$$$$

     RDKit          3D

 51 54  0  0  0  0  0  0  0  0999 V2000
  140.8720   71.5180  221.3610 O   0  0  0  0  0  0  0  0  0  0  0  0
  140.3780   72.0760  222.3860 C   0  0  0  0  0  0  0  0  0  0  0  0
  139.9710   73.4340  222.3410 N   0  0  0  0  0  0  0  0  0  0  0  0
  140.0960   74.2390  221.1450 C   0  0  0  0  0  0  0  0  0  0  0  0
  140.2120   75.6780  221.5340 C   0  0  0  0  0  0  0  0  0  0  0  0
  139.9320   76.0370  222.7250 O   0  0  0  0  0  0  0  0  0  0  0  0
  140.6280   76.6740  220.6160 N   0  0  0  0  0  0  0  0  0  0  0  0
  139.9940   76.8870  219.3350 C   0  0  0  0  0  0  0  0  0  0  0  0
  141.1630   77.4340  218.5390 C   0  0  0  0  0  0  0  0  0  0  0  0
  142.0170   78.1810  219.5270 C   0  0  0  0  0  0  0  0  0  0  0  0
  141.7180   77.5790  220.8500 C   0  0  1  0  0  0  0  0  0  0  0  0
  141.3920   78.5930  221.8900 C   0  0  0  0  0  0  0  0  0  0  0  0
  142.4300   79.1800  222.5570 C   0  0  0  0  0  0  0  0  0  0  0  0
  142.2570   80.1300  223.5390 C   0  0  0  0  0  0  0  0  0  0  0  0
  140.9560   80.4860  223.8410 C   0  0  0  0  0  0  0  0  0  0  0  0
  139.8950   79.8900  223.1620 C   0  0  0  0  0  0  0  0  0  0  0  0
  138.5330   80.3400  223.5580 C   0  0  0  0  0  0  0  0  0  0  0  0
  137.5850   79.5050  223.0420 F   0  0  0  0  0  0  0  0  0  0  0  0
  138.3610   81.6030  223.0120 F   0  0  0  0  0  0  0  0  0  0  0  0
  138.4590   80.3880  224.9270 F   0  0  0  0  0  0  0  0  0  0  0  0
  140.1080   78.9350  222.1780 C   0  0  0  0  0  0  0  0  0  0  0  0
  140.2160   71.3420  223.6290 C   0  0  0  0  0  0  0  0  0  0  0  0
  139.5820   70.1280  223.6270 C   0  0  0  0  0  0  0  0  0  0  0  0
  139.4110   69.4050  224.7840 C   0  0  0  0  0  0  0  0  0  0  0  0
  139.8980   69.9240  225.9830 C   0  0  0  0  0  0  0  0  0  0  0  0
  139.7460   69.2280  227.1650 C   0  0  0  0  0  0  0  0  0  0  0  0
  140.2470   69.7810  228.3450 C   0  0  0  0  0  0  0  0  0  0  0  0
  140.8830   71.0030  228.3270 C   0  0  0  0  0  0  0  0  0  0  0  0
  141.0300   71.6950  227.1340 C   0  0  0  0  0  0  0  0  0  0  0  0
  140.5370   71.1540  225.9600 C   0  0  0  0  0  0  0  0  0  0  0  0
  140.6760   71.8150  224.8070 N   0  0  0  0  0  0  0  0  0  0  0  0
  139.5640   73.8630  223.2170 H   0  0  0  0  0  0  0  0  0  0  0  0
  140.9944   73.9343  220.5881 H   0  0  0  0  0  0  0  0  0  0  0  0
  139.2101   74.0973  220.5086 H   0  0  0  0  0  0  0  0  0  0  0  0
  139.6153   75.9469  218.9074 H   0  0  0  0  0  0  0  0  0  0  0  0
  139.1105   77.5417  219.3628 H   0  0  0  0  0  0  0  0  0  0  0  0
  141.7343   76.6119  218.0832 H   0  0  0  0  0  0  0  0  0  0  0  0
  140.8257   78.0866  217.7202 H   0  0  0  0  0  0  0  0  0  0  0  0
  143.0825   78.0597  219.2821 H   0  0  0  0  0  0  0  0  0  0  0  0
  141.8043   79.2602  219.5140 H   0  0  0  0  0  0  0  0  0  0  0  0
  142.5999   77.0605  221.2542 H   0  0  0  0  0  0  0  0  0  0  0  0
  143.4554   78.8787  222.2966 H   0  0  0  0  0  0  0  0  0  0  0  0
  143.1137   80.5840  224.0585 H   0  0  0  0  0  0  0  0  0  0  0  0
  140.7581   81.2398  224.6173 H   0  0  0  0  0  0  0  0  0  0  0  0
  139.2644   78.4692  221.6476 H   0  0  0  0  0  0  0  0  0  0  0  0
  139.2010   69.7222  222.6783 H   0  0  0  0  0  0  0  0  0  0  0  0
  138.8979   68.4322  224.7640 H   0  0  0  0  0  0  0  0  0  0  0  0
  139.2379   68.2525  227.1772 H   0  0  0  0  0  0  0  0  0  0  0  0
  140.1332   69.2378  229.2947 H   0  0  0  0  0  0  0  0  0  0  0  0
  141.2753   71.4310  229.2613 H   0  0  0  0  0  0  0  0  0  0  0  0
  141.5371   72.6711  227.1213 H   0  0  0  0  0  0  0  0  0  0  0  0
  1  2  2  0
  2  3  1  0
  3  4  1  0
  4  5  1  0
  5  6  2  0
  5  7  1  0
  7  8  1  0
  8  9  1  0
  9 10  1  0
 10 11  1  0
 11 12  1  0
 12 13  2  0
 13 14  1  0
 14 15  2  0
 15 16  1  0
 16 17  1  0
 17 18  1  0
 17 19  1  0
 17 20  1  0
 16 21  2  0
  2 22  1  0
 22 23  2  0
 23 24  1  0
 24 25  2  0
 25 26  1  0
 26 27  2  0
 27 28  1  0
 28 29  2  0
 29 30  1  0
 30 31  2  0
 11  7  1  0
 21 12  1  0
 31 22  1  0
 30 25  1  0
  3 32  1  0
  4 33  1  0
  4 34  1  0
  8 35  1  0
  8 36  1  0
  9 37  1  0
  9 38  1  0
 10 39  1  0
 10 40  1  0
 11 41  1  1
 13 42  1  0
 14 43  1  0
 15 44  1  0
 21 45  1  0
 23 46  1  0
 24 47  1  0
 26 48  1  0
 27 49  1  0
 28 50  1  0
 29 51  1  0
M  END
>  <smiles>  (76) 
O=C(NCC(=O)N1CCCC1c1cccc(C(F)(F)F)c1)c1ccc2ccccc2n1

>  <score_type>  (76) 
oracle

>  <origin>  (76) 
autodockgpu

>  <m_score__min__energy>  (76) 
-9.1500000000000004

>  <m_primary>  (76) 
energy

>  <rmsd>  (76) 
1.6796909049191013

>  <m_score__min__rmsd>  (76) 
1.6796909049191013

>  <meeko>  (76) 
{"free_energy": -8.87, "intermolecular_energy": -10.66, "internal_energy": -1.92, "cluster_size": 27, "cluster_id": 2, "rank_in_cluster": 5}

>  <energy>  (76) 
-8.5

>  <cluster_rmsd>  (76) 
0.99

>  <cluster>  (76) 
2

$$$$

     RDKit          3D

 51 54  0  0  0  0  0  0  0  0999 V2000
  139.4090   71.0940  221.3600 O   0  0  0  0  0  0  0  0  0  0  0  0
  139.5270   71.6930  222.4710 C   0  0  0  0  0  0  0  0  0  0  0  0
  139.5000   73.1100  222.5320 N   0  0  0  0  0  0  0  0  0  0  0  0
  139.3400   73.9310  221.3500 C   0  0  0  0  0  0  0  0  0  0  0  0
  139.9930   75.2550  221.5830 C   0  0  0  0  0  0  0  0  0  0  0  0
  139.6900   75.9390  222.6160 O   0  0  0  0  0  0  0  0  0  0  0  0
  140.9520   75.7870  220.6870 N   0  0  0  0  0  0  0  0  0  0  0  0
  141.4990   77.1200  220.8070 C   0  0  0  0  0  0  0  0  0  0  0  0
  141.8100   77.4200  219.3540 C   0  0  0  0  0  0  0  0  0  0  0  0
  142.1590   76.0960  218.7290 C   0  0  0  0  0  0  0  0  0  0  0  0
  141.4900   75.0690  219.5650 C   0  0  1  0  0  0  0  0  0  0  0  0
  142.4060   73.9750  219.9850 C   0  0  0  0  0  0  0  0  0  0  0  0
  141.8840   72.7180  220.1110 C   0  0  0  0  0  0  0  0  0  0  0  0
  142.6290   71.6240  220.4930 C   0  0  0  0  0  0  0  0  0  0  0  0
  143.9680   71.8430  220.7550 C   0  0  0  0  0  0  0  0  0  0  0  0
  144.5040   73.1220  220.6290 C   0  0  0  0  0  0  0  0  0  0  0  0
  145.9550   73.2550  220.9340 C   0  0  0  0  0  0  0  0  0  0  0  0
  146.6650   72.2660  220.3170 F   0  0  0  0  0  0  0  0  0  0  0  0
  146.0840   73.1080  222.3070 F   0  0  0  0  0  0  0  0  0  0  0  0
  146.3820   74.4960  220.5360 F   0  0  0  0  0  0  0  0  0  0  0  0
  143.7220   74.2020  220.2410 C   0  0  0  0  0  0  0  0  0  0  0  0
  139.6920   70.9460  223.7060 C   0  0  0  0  0  0  0  0  0  0  0  0
  139.3540   69.6200  223.7520 C   0  0  0  0  0  0  0  0  0  0  0  0
  139.4970   68.8820  224.9040 C   0  0  0  0  0  0  0  0  0  0  0  0
  139.9990   69.5030  226.0460 C   0  0  0  0  0  0  0  0  0  0  0  0
  140.1570   68.7960  227.2200 C   0  0  0  0  0  0  0  0  0  0  0  0
  140.6630   69.4530  228.3430 C   0  0  0  0  0  0  0  0  0  0  0  0
  140.9990   70.7870  228.2770 C   0  0  0  0  0  0  0  0  0  0  0  0
  140.8360   71.4910  227.0930 C   0  0  0  0  0  0  0  0  0  0  0  0
  140.3360   70.8460  225.9750 C   0  0  0  0  0  0  0  0  0  0  0  0
  140.1760   71.5170  224.8300 N   0  0  0  0  0  0  0  0  0  0  0  0
  139.6020   73.5710  223.4760 H   0  0  0  0  0  0  0  0  0  0  0  0
  139.8116   73.4339  220.4895 H   0  0  0  0  0  0  0  0  0  0  0  0
  138.2698   74.0768  221.1418 H   0  0  0  0  0  0  0  0  0  0  0  0
  140.7630   77.8259  221.2193 H   0  0  0  0  0  0  0  0  0  0  0  0
  142.3590   77.2041  221.4877 H   0  0  0  0  0  0  0  0  0  0  0  0
  140.9324   77.8590  218.8569 H   0  0  0  0  0  0  0  0  0  0  0  0
  142.6326   78.1437  219.2565 H   0  0  0  0  0  0  0  0  0  0  0  0
  141.7874   76.0502  217.6947 H   0  0  0  0  0  0  0  0  0  0  0  0
  143.2472   75.9405  218.6880 H   0  0  0  0  0  0  0  0  0  0  0  0
  140.7035   74.5504  218.9971 H   0  0  0  0  0  0  0  0  0  0  0  0
  140.8150   72.5726  219.8965 H   0  0  0  0  0  0  0  0  0  0  0  0
  142.1796   70.6242  220.5850 H   0  0  0  0  0  0  0  0  0  0  0  0
  144.6114   71.0058  221.0635 H   0  0  0  0  0  0  0  0  0  0  0  0
  144.1535   75.2092  220.1438 H   0  0  0  0  0  0  0  0  0  0  0  0
  138.9593   69.1340  222.8476 H   0  0  0  0  0  0  0  0  0  0  0  0
  139.2193   67.8178  224.9235 H   0  0  0  0  0  0  0  0  0  0  0  0
  139.8883   67.7305  227.2705 H   0  0  0  0  0  0  0  0  0  0  0  0
  140.7941   68.9021  229.2860 H   0  0  0  0  0  0  0  0  0  0  0  0
  141.3981   71.2961  229.1666 H   0  0  0  0  0  0  0  0  0  0  0  0
  141.1029   72.5570  227.0428 H   0  0  0  0  0  0  0  0  0  0  0  0
  1  2  2  0
  2  3  1  0
  3  4  1  0
  4  5  1  0
  5  6  2  0
  5  7  1  0
  7  8  1  0
  8  9  1  0
  9 10  1  0
 10 11  1  0
 11 12  1  0
 12 13  2  0
 13 14  1  0
 14 15  2  0
 15 16  1  0
 16 17  1  0
 17 18  1  0
 17 19  1  0
 17 20  1  0
 16 21  2  0
  2 22  1  0
 22 23  2  0
 23 24  1  0
 24 25  2  0
 25 26  1  0
 26 27  2  0
 27 28  1  0
 28 29  2  0
 29 30  1  0
 30 31  2  0
 11  7  1  0
 21 12  1  0
 31 22  1  0
 30 25  1  0
  3 32  1  0
  4 33  1  0
  4 34  1  0
  8 35  1  0
  8 36  1  0
  9 37  1  0
  9 38  1  0
 10 39  1  0
 10 40  1  0
 11 41  1  6
 13 42  1  0
 14 43  1  0
 15 44  1  0
 21 45  1  0
 23 46  1  0
 24 47  1  0
 26 48  1  0
 27 49  1  0
 28 50  1  0
 29 51  1  0
M  END
>  <smiles>  (77) 
O=C(NCC(=O)N1CCCC1c1cccc(C(F)(F)F)c1)c1ccc2ccccc2n1

>  <score_type>  (77) 
oracle

>  <origin>  (77) 
autodockgpu

>  <m_score__min__energy>  (77) 
-9.1500000000000004

>  <m_primary>  (77) 
energy

>  <rmsd>  (77) 
1.9974105716930495

>  <m_score__min__rmsd>  (77) 
1.9974105716930495

>  <meeko>  (77) 
{"free_energy": -8.23, "intermolecular_energy": -10.02, "internal_energy": -2.17, "cluster_size": 12, "cluster_id": 3, "rank_in_cluster": 6}

>  <energy>  (77) 
-8.49

>  <cluster_rmsd>  (77) 
1.5

>  <cluster>  (77) 
2

$$$$

     RDKit          3D

 51 54  0  0  0  0  0  0  0  0999 V2000
  137.2160   76.1510  222.4500 O   0  0  0  0  0  0  0  0  0  0  0  0
  138.4770   76.2810  222.4580 C   0  0  0  0  0  0  0  0  0  0  0  0
  139.3170   75.1670  222.2070 N   0  0  0  0  0  0  0  0  0  0  0  0
  138.7890   73.8470  221.9340 C   0  0  0  0  0  0  0  0  0  0  0  0
  139.8720   72.8350  222.1380 C   0  0  0  0  0  0  0  0  0  0  0  0
  141.0670   73.2220  222.3530 O   0  0  0  0  0  0  0  0  0  0  0  0
  139.6150   71.4430  222.1020 N   0  0  0  0  0  0  0  0  0  0  0  0
  140.0860   70.5750  221.0470 C   0  0  0  0  0  0  0  0  0  0  0  0
  139.0080   69.5090  221.0680 C   0  0  0  0  0  0  0  0  0  0  0  0
  138.5490   69.4190  222.4990 C   0  0  0  0  0  0  0  0  0  0  0  0
  138.8640   70.7370  223.1030 C   0  0  1  0  0  0  0  0  0  0  0  0
  139.6080   70.6250  224.3870 C   0  0  0  0  0  0  0  0  0  0  0  0
  140.3650   71.6920  224.7810 C   0  0  0  0  0  0  0  0  0  0  0  0
  141.0990   71.7080  225.9470 C   0  0  0  0  0  0  0  0  0  0  0  0
  141.0440   70.5750  226.7350 C   0  0  0  0  0  0  0  0  0  0  0  0
  140.2720   69.4860  226.3370 C   0  0  0  0  0  0  0  0  0  0  0  0
  140.2780   68.3120  227.2530 C   0  0  0  0  0  0  0  0  0  0  0  0
  140.0240   68.7060  228.5350 F   0  0  0  0  0  0  0  0  0  0  0  0
  141.5540   67.7740  227.1950 F   0  0  0  0  0  0  0  0  0  0  0  0
  139.3470   67.4040  226.8200 F   0  0  0  0  0  0  0  0  0  0  0  0
  139.5460   69.5040  225.1540 C   0  0  0  0  0  0  0  0  0  0  0  0
  139.0900   77.5700  222.7240 C   0  0  0  0  0  0  0  0  0  0  0  0
  138.3030   78.6680  222.9500 C   0  0  0  0  0  0  0  0  0  0  0  0
  138.8490   79.9040  223.2040 C   0  0  0  0  0  0  0  0  0  0  0  0
  140.2370   80.0360  223.2330 C   0  0  0  0  0  0  0  0  0  0  0  0
  140.8220   81.2600  223.4850 C   0  0  0  0  0  0  0  0  0  0  0  0
  142.2150   81.3520  223.5050 C   0  0  0  0  0  0  0  0  0  0  0  0
  142.9910   80.2370  223.2760 C   0  0  0  0  0  0  0  0  0  0  0  0
  142.3930   79.0110  223.0230 C   0  0  0  0  0  0  0  0  0  0  0  0
  141.0130   78.9110  223.0020 C   0  0  0  0  0  0  0  0  0  0  0  0
  140.4300   77.7330  222.7590 N   0  0  0  0  0  0  0  0  0  0  0  0
  140.3630   75.3160  222.2230 H   0  0  0  0  0  0  0  0  0  0  0  0
  137.9537   73.6357  222.6179 H   0  0  0  0  0  0  0  0  0  0  0  0
  138.4280   73.7995  220.8960 H   0  0  0  0  0  0  0  0  0  0  0  0
  140.1241   71.0957  220.0788 H   0  0  0  0  0  0  0  0  0  0  0  0
  141.1093   70.1963  221.1862 H   0  0  0  0  0  0  0  0  0  0  0  0
  138.1713   69.7972  220.4146 H   0  0  0  0  0  0  0  0  0  0  0  0
  139.3863   68.5430  220.7023 H   0  0  0  0  0  0  0  0  0  0  0  0
  137.4672   69.2249  222.5437 H   0  0  0  0  0  0  0  0  0  0  0  0
  139.0458   68.5967  223.0347 H   0  0  0  0  0  0  0  0  0  0  0  0
  137.9435   71.2735  223.3768 H   0  0  0  0  0  0  0  0  0  0  0  0
  140.3897   72.5823  224.1354 H   0  0  0  0  0  0  0  0  0  0  0  0
  141.7006   72.5822  226.2367 H   0  0  0  0  0  0  0  0  0  0  0  0
  141.6101   70.5326  227.6772 H   0  0  0  0  0  0  0  0  0  0  0  0
  138.9399   68.6390  224.8469 H   0  0  0  0  0  0  0  0  0  0  0  0
  137.2087   78.5584  222.9278 H   0  0  0  0  0  0  0  0  0  0  0  0
  138.2012   80.7751  223.3815 H   0  0  0  0  0  0  0  0  0  0  0  0
  140.2007   82.1492  223.6673 H   0  0  0  0  0  0  0  0  0  0  0  0
  142.6959   82.3209  223.7049 H   0  0  0  0  0  0  0  0  0  0  0  0
  144.0878   80.3190  223.2938 H   0  0  0  0  0  0  0  0  0  0  0  0
  143.0137   78.1215  222.8397 H   0  0  0  0  0  0  0  0  0  0  0  0
  1  2  2  0
  2  3  1  0
  3  4  1  0
  4  5  1  0
  5  6  2  0
  5  7  1  0
  7  8  1  0
  8  9  1  0
  9 10  1  0
 10 11  1  0
 11 12  1  0
 12 13  2  0
 13 14  1  0
 14 15  2  0
 15 16  1  0
 16 17  1  0
 17 18  1  0
 17 19  1  0
 17 20  1  0
 16 21  2  0
  2 22  1  0
 22 23  2  0
 23 24  1  0
 24 25  2  0
 25 26  1  0
 26 27  2  0
 27 28  1  0
 28 29  2  0
 29 30  1  0
 30 31  2  0
 11  7  1  0
 21 12  1  0
 31 22  1  0
 30 25  1  0
  3 32  1  0
  4 33  1  0
  4 34  1  0
  8 35  1  0
  8 36  1  0
  9 37  1  0
  9 38  1  0
 10 39  1  0
 10 40  1  0
 11 41  1  1
 13 42  1  0
 14 43  1  0
 15 44  1  0
 21 45  1  0
 23 46  1  0
 24 47  1  0
 26 48  1  0
 27 49  1  0
 28 50  1  0
 29 51  1  0
M  END
>  <smiles>  (78) 
O=C(NCC(=O)N1CCCC1c1cccc(C(F)(F)F)c1)c1ccc2ccccc2n1

>  <score_type>  (78) 
oracle

>  <origin>  (78) 
autodockgpu

>  <m_score__min__energy>  (78) 
-9.1500000000000004

>  <m_primary>  (78) 
energy

>  <rmsd>  (78) 
8.29170186763608

>  <m_score__min__rmsd>  (78) 
8.29170186763608

>  <meeko>  (78) 
{"free_energy": -8.41, "intermolecular_energy": -10.2, "internal_energy": -2.01, "cluster_size": 2, "cluster_id": 4, "rank_in_cluster": 2}

>  <energy>  (78) 
-8.33

>  <cluster_rmsd>  (78) 
1.4

>  <cluster>  (78) 
2

$$$$

     RDKit          3D

 51 54  0  0  0  0  0  0  0  0999 V2000
  137.2050   76.1760  222.3280 O   0  0  0  0  0  0  0  0  0  0  0  0
  138.4640   76.2870  222.4280 C   0  0  0  0  0  0  0  0  0  0  0  0
  139.3020   75.1550  222.2580 N   0  0  0  0  0  0  0  0  0  0  0  0
  138.7730   73.8390  221.9660 C   0  0  0  0  0  0  0  0  0  0  0  0
  139.8550   72.8250  222.1560 C   0  0  0  0  0  0  0  0  0  0  0  0
  141.0540   73.2070  222.3610 O   0  0  0  0  0  0  0  0  0  0  0  0
  139.5940   71.4330  222.1170 N   0  0  0  0  0  0  0  0  0  0  0  0
  140.0630   70.5660  221.0600 C   0  0  0  0  0  0  0  0  0  0  0  0
  138.9830   69.5030  221.0790 C   0  0  0  0  0  0  0  0  0  0  0  0
  138.5240   69.4120  222.5100 C   0  0  0  0  0  0  0  0  0  0  0  0
  138.8420   70.7280  223.1170 C   0  0  1  0  0  0  0  0  0  0  0  0
  139.5850   70.6110  224.4010 C   0  0  0  0  0  0  0  0  0  0  0  0
  140.3320   71.6810  224.8060 C   0  0  0  0  0  0  0  0  0  0  0  0
  141.0640   71.6940  225.9730 C   0  0  0  0  0  0  0  0  0  0  0  0
  141.0190   70.5530  226.7500 C   0  0  0  0  0  0  0  0  0  0  0  0
  140.2590   69.4600  226.3410 C   0  0  0  0  0  0  0  0  0  0  0  0
  140.2750   68.2780  227.2460 C   0  0  0  0  0  0  0  0  0  0  0  0
  140.0320   68.6600  228.5340 F   0  0  0  0  0  0  0  0  0  0  0  0
  141.5520   67.7430  227.1720 F   0  0  0  0  0  0  0  0  0  0  0  0
  139.3420   67.3720  226.8130 F   0  0  0  0  0  0  0  0  0  0  0  0
  139.5340   69.4820  225.1570 C   0  0  0  0  0  0  0  0  0  0  0  0
  139.0780   77.5700  222.7190 C   0  0  0  0  0  0  0  0  0  0  0  0
  138.2920   78.6590  222.9840 C   0  0  0  0  0  0  0  0  0  0  0  0
  138.8390   79.8900  223.2640 C   0  0  0  0  0  0  0  0  0  0  0  0
  140.2260   80.0250  223.2770 C   0  0  0  0  0  0  0  0  0  0  0  0
  140.8120   81.2430  223.5530 C   0  0  0  0  0  0  0  0  0  0  0  0
  142.2050   81.3390  223.5570 C   0  0  0  0  0  0  0  0  0  0  0  0
  142.9800   80.2320  223.2890 C   0  0  0  0  0  0  0  0  0  0  0  0
  142.3820   79.0120  223.0120 C   0  0  0  0  0  0  0  0  0  0  0  0
  141.0020   78.9090  223.0070 C   0  0  0  0  0  0  0  0  0  0  0  0
  140.4180   77.7360  222.7410 N   0  0  0  0  0  0  0  0  0  0  0  0
  140.3450   75.2880  222.3500 H   0  0  0  0  0  0  0  0  0  0  0  0
  137.9374   73.6183  222.6465 H   0  0  0  0  0  0  0  0  0  0  0  0
  138.4119   73.8062  220.9275 H   0  0  0  0  0  0  0  0  0  0  0  0
  140.1022   71.0886  220.0928 H   0  0  0  0  0  0  0  0  0  0  0  0
  141.0855   70.1847  221.1982 H   0  0  0  0  0  0  0  0  0  0  0  0
  138.1470   69.7943  220.4261 H   0  0  0  0  0  0  0  0  0  0  0  0
  139.3588   68.5367  220.7116 H   0  0  0  0  0  0  0  0  0  0  0  0
  137.4417   69.2204  222.5544 H   0  0  0  0  0  0  0  0  0  0  0  0
  139.0194   68.5877  223.0441 H   0  0  0  0  0  0  0  0  0  0  0  0
  137.9236   71.2671  223.3925 H   0  0  0  0  0  0  0  0  0  0  0  0
  140.3498   72.5770  224.1682 H   0  0  0  0  0  0  0  0  0  0  0  0
  141.6562   72.5715  226.2718 H   0  0  0  0  0  0  0  0  0  0  0  0
  141.5840   70.5075  227.6927 H   0  0  0  0  0  0  0  0  0  0  0  0
  138.9374   68.6137  224.8407 H   0  0  0  0  0  0  0  0  0  0  0  0
  137.1978   78.5473  222.9728 H   0  0  0  0  0  0  0  0  0  0  0  0
  138.1917   80.7541  223.4743 H   0  0  0  0  0  0  0  0  0  0  0  0
  140.1911   82.1255  223.7667 H   0  0  0  0  0  0  0  0  0  0  0  0
  142.6862   82.3038  223.7753 H   0  0  0  0  0  0  0  0  0  0  0  0
  144.0768   80.3162  223.2948 H   0  0  0  0  0  0  0  0  0  0  0  0
  143.0023   78.1293  222.7970 H   0  0  0  0  0  0  0  0  0  0  0  0
  1  2  2  0
  2  3  1  0
  3  4  1  0
  4  5  1  0
  5  6  2  0
  5  7  1  0
  7  8  1  0
  8  9  1  0
  9 10  1  0
 10 11  1  0
 11 12  1  0
 12 13  2  0
 13 14  1  0
 14 15  2  0
 15 16  1  0
 16 17  1  0
 17 18  1  0
 17 19  1  0
 17 20  1  0
 16 21  2  0
  2 22  1  0
 22 23  2  0
 23 24  1  0
 24 25  2  0
 25 26  1  0
 26 27  2  0
 27 28  1  0
 28 29  2  0
 29 30  1  0
 30 31  2  0
 11  7  1  0
 21 12  1  0
 31 22  1  0
 30 25  1  0
  3 32  1  0
  4 33  1  0
  4 34  1  0
  8 35  1  0
  8 36  1  0
  9 37  1  0
  9 38  1  0
 10 39  1  0
 10 40  1  0
 11 41  1  1
 13 42  1  0
 14 43  1  0
 15 44  1  0
 21 45  1  0
 23 46  1  0
 24 47  1  0
 26 48  1  0
 27 49  1  0
 28 50  1  0
 29 51  1  0
M  END
>  <smiles>  (79) 
O=C(NCC(=O)N1CCCC1c1cccc(C(F)(F)F)c1)c1ccc2ccccc2n1

>  <score_type>  (79) 
oracle

>  <origin>  (79) 
autodockgpu

>  <m_score__min__energy>  (79) 
-9.1500000000000004

>  <m_primary>  (79) 
energy

>  <rmsd>  (79) 
8.287647573321891

>  <m_score__min__rmsd>  (79) 
8.287647573321891

>  <meeko>  (79) 
{"free_energy": -8.42, "intermolecular_energy": -10.21, "internal_energy": -2.02, "cluster_size": 2, "cluster_id": 4, "rank_in_cluster": 1}

>  <energy>  (79) 
-8.32

>  <cluster_rmsd>  (79) 
1.63

>  <cluster>  (79) 
2

$$$$

     RDKit          3D

 51 54  0  0  0  0  0  0  0  0999 V2000
  139.4270   74.3350  221.9310 O   0  0  0  0  0  0  0  0  0  0  0  0
  140.5990   74.6610  221.5720 C   0  0  0  0  0  0  0  0  0  0  0  0
  141.5330   73.6690  221.1790 N   0  0  0  0  0  0  0  0  0  0  0  0
  141.2030   72.2590  221.1650 C   0  0  0  0  0  0  0  0  0  0  0  0
  140.5210   71.9050  222.4480 C   0  0  0  0  0  0  0  0  0  0  0  0
  140.7440   72.5950  223.4960 O   0  0  0  0  0  0  0  0  0  0  0  0
  139.6220   70.8140  222.5440 N   0  0  0  0  0  0  0  0  0  0  0  0
  139.5260   69.7730  221.5460 C   0  0  0  0  0  0  0  0  0  0  0  0
  138.0740   69.3700  221.7100 C   0  0  0  0  0  0  0  0  0  0  0  0
  137.7500   69.5900  223.1630 C   0  0  0  0  0  0  0  0  0  0  0  0
  138.7100   70.6170  223.6360 C   0  0  1  0  0  0  0  0  0  0  0  0
  139.4120   70.2240  224.8890 C   0  0  0  0  0  0  0  0  0  0  0  0
  139.5940   68.8900  225.1260 C   0  0  0  0  0  0  0  0  0  0  0  0
  140.2270   68.4020  226.2480 C   0  0  0  0  0  0  0  0  0  0  0  0
  140.6890   69.3320  227.1590 C   0  0  0  0  0  0  0  0  0  0  0  0
  140.5050   70.6920  226.9200 C   0  0  0  0  0  0  0  0  0  0  0  0
  141.0370   71.6150  227.9600 C   0  0  0  0  0  0  0  0  0  0  0  0
  140.0150   72.2240  228.6270 F   0  0  0  0  0  0  0  0  0  0  0  0
  141.7720   72.5810  227.2900 F   0  0  0  0  0  0  0  0  0  0  0  0
  141.8370   70.9050  228.8190 F   0  0  0  0  0  0  0  0  0  0  0  0
  139.8610   71.1490  225.7780 C   0  0  0  0  0  0  0  0  0  0  0  0
  141.0130   76.0520  221.5560 C   0  0  0  0  0  0  0  0  0  0  0  0
  141.3740   76.6440  220.3750 C   0  0  0  0  0  0  0  0  0  0  0  0
  141.7720   77.9590  220.3220 C   0  0  0  0  0  0  0  0  0  0  0  0
  141.8060   78.7030  221.5010 C   0  0  0  0  0  0  0  0  0  0  0  0
  142.1990   80.0250  221.4880 C   0  0  0  0  0  0  0  0  0  0  0  0
  142.2200   80.7360  222.6890 C   0  0  0  0  0  0  0  0  0  0  0  0
  141.8530   80.1250  223.8670 C   0  0  0  0  0  0  0  0  0  0  0  0
  141.4590   78.7950  223.8710 C   0  0  0  0  0  0  0  0  0  0  0  0
  141.4350   78.0830  222.6840 C   0  0  0  0  0  0  0  0  0  0  0  0
  141.0570   76.8010  222.6790 N   0  0  0  0  0  0  0  0  0  0  0  0
  142.4990   73.9800  220.8870 H   0  0  0  0  0  0  0  0  0  0  0  0
  140.5320   72.0458  220.3198 H   0  0  0  0  0  0  0  0  0  0  0  0
  142.1216   71.6637  221.0563 H   0  0  0  0  0  0  0  0  0  0  0  0
  139.7294   70.1582  220.5359 H   0  0  0  0  0  0  0  0  0  0  0  0
  140.2474   68.9516  221.6681 H   0  0  0  0  0  0  0  0  0  0  0  0
  137.4288   69.9946  221.0747 H   0  0  0  0  0  0  0  0  0  0  0  0
  137.9074   68.3245  221.4115 H   0  0  0  0  0  0  0  0  0  0  0  0
  136.7166   69.9499  223.2755 H   0  0  0  0  0  0  0  0  0  0  0  0
  137.8319   68.6591  223.7432 H   0  0  0  0  0  0  0  0  0  0  0  0
  138.1886   71.5472  223.9059 H   0  0  0  0  0  0  0  0  0  0  0  0
  139.2164   68.1708  224.3842 H   0  0  0  0  0  0  0  0  0  0  0  0
  140.3585   67.3221  226.4109 H   0  0  0  0  0  0  0  0  0  0  0  0
  141.2021   68.9987  228.0731 H   0  0  0  0  0  0  0  0  0  0  0  0
  139.7187   72.2249  225.5985 H   0  0  0  0  0  0  0  0  0  0  0  0
  141.3448   76.0537  219.4472 H   0  0  0  0  0  0  0  0  0  0  0  0
  142.0593   78.4172  219.3641 H   0  0  0  0  0  0  0  0  0  0  0  0
  142.4914   80.5115  220.5458 H   0  0  0  0  0  0  0  0  0  0  0  0
  142.5317   81.7909  222.6943 H   0  0  0  0  0  0  0  0  0  0  0  0
  141.8723   80.6936  224.8084 H   0  0  0  0  0  0  0  0  0  0  0  0
  141.1669   78.3082  224.8132 H   0  0  0  0  0  0  0  0  0  0  0  0
  1  2  2  0
  2  3  1  0
  3  4  1  0
  4  5  1  0
  5  6  2  0
  5  7  1  0
  7  8  1  0
  8  9  1  0
  9 10  1  0
 10 11  1  0
 11 12  1  0
 12 13  2  0
 13 14  1  0
 14 15  2  0
 15 16  1  0
 16 17  1  0
 17 18  1  0
 17 19  1  0
 17 20  1  0
 16 21  2  0
  2 22  1  0
 22 23  2  0
 23 24  1  0
 24 25  2  0
 25 26  1  0
 26 27  2  0
 27 28  1  0
 28 29  2  0
 29 30  1  0
 30 31  2  0
 11  7  1  0
 21 12  1  0
 31 22  1  0
 30 25  1  0
  3 32  1  0
  4 33  1  0
  4 34  1  0
  8 35  1  0
  8 36  1  0
  9 37  1  0
  9 38  1  0
 10 39  1  0
 10 40  1  0
 11 41  1  1
 13 42  1  0
 14 43  1  0
 15 44  1  0
 21 45  1  0
 23 46  1  0
 24 47  1  0
 26 48  1  0
 27 49  1  0
 28 50  1  0
 29 51  1  0
M  END
>  <smiles>  (80) 
O=C(NCC(=O)N1CCCC1c1cccc(C(F)(F)F)c1)c1ccc2ccccc2n1

>  <score_type>  (80) 
oracle

>  <origin>  (80) 
autodockgpu

>  <m_score__min__energy>  (80) 
-9.1500000000000004

>  <m_primary>  (80) 
energy

>  <rmsd>  (80) 
8.13873343183471

>  <m_score__min__rmsd>  (80) 
8.13873343183471

>  <meeko>  (80) 
{"free_energy": -8.7, "intermolecular_energy": -10.49, "internal_energy": -1.23, "cluster_size": 5, "cluster_id": 1, "rank_in_cluster": 3}

>  <energy>  (80) 
-8.32

>  <cluster_rmsd>  (80) 
1.77

>  <cluster>  (80) 
2

$$$$

     RDKit          3D

 51 54  0  0  0  0  0  0  0  0999 V2000
  140.0800   71.3390  221.2350 O   0  0  0  0  0  0  0  0  0  0  0  0
  139.9190   71.9730  222.3200 C   0  0  0  0  0  0  0  0  0  0  0  0
  139.7010   73.3740  222.3100 N   0  0  0  0  0  0  0  0  0  0  0  0
  139.6510   74.1390  221.0820 C   0  0  0  0  0  0  0  0  0  0  0  0
  140.6160   75.2780  221.1770 C   0  0  0  0  0  0  0  0  0  0  0  0
  140.9420   75.7390  222.3190 O   0  0  0  0  0  0  0  0  0  0  0  0
  141.1900   75.8730  220.0260 N   0  0  0  0  0  0  0  0  0  0  0  0
  140.7400   75.5970  218.6810 C   0  0  0  0  0  0  0  0  0  0  0  0
  142.0250   75.8270  217.9110 C   0  0  0  0  0  0  0  0  0  0  0  0
  142.7710   76.8930  218.6680 C   0  0  0  0  0  0  0  0  0  0  0  0
  142.2750   76.8130  220.0640 C   0  0  1  0  0  0  0  0  0  0  0  0
  141.8550   78.1340  220.6080 C   0  0  0  0  0  0  0  0  0  0  0  0
  141.5320   79.1180  219.7160 C   0  0  0  0  0  0  0  0  0  0  0  0
  141.1300   80.3800  220.0960 C   0  0  0  0  0  0  0  0  0  0  0  0
  141.0610   80.6300  221.4530 C   0  0  0  0  0  0  0  0  0  0  0  0
  141.3900   79.6300  222.3650 C   0  0  0  0  0  0  0  0  0  0  0  0
  141.2840   79.9980  223.8030 C   0  0  0  0  0  0  0  0  0  0  0  0
  141.7690   78.9940  224.5900 F   0  0  0  0  0  0  0  0  0  0  0  0
  139.9330   80.1610  224.0690 F   0  0  0  0  0  0  0  0  0  0  0  0
  141.9650   81.1680  224.0150 F   0  0  0  0  0  0  0  0  0  0  0  0
  141.7910   78.3690  221.9450 C   0  0  0  0  0  0  0  0  0  0  0  0
  139.9550   71.2830  223.5980 C   0  0  0  0  0  0  0  0  0  0  0  0
  139.4840   70.0010  223.6950 C   0  0  0  0  0  0  0  0  0  0  0  0
  139.5020   69.3170  224.8880 C   0  0  0  0  0  0  0  0  0  0  0  0
  140.0140   69.9490  226.0210 C   0  0  0  0  0  0  0  0  0  0  0  0
  140.0490   69.2950  227.2360 C   0  0  0  0  0  0  0  0  0  0  0  0
  140.5690   69.9610  228.3470 C   0  0  0  0  0  0  0  0  0  0  0  0
  141.0390   71.2510  228.2300 C   0  0  0  0  0  0  0  0  0  0  0  0
  140.9990   71.9000  227.0050 C   0  0  0  0  0  0  0  0  0  0  0  0
  140.4860   71.2460  225.8980 C   0  0  0  0  0  0  0  0  0  0  0  0
  140.4450   71.8650  224.7140 N   0  0  0  0  0  0  0  0  0  0  0  0
  139.5730   73.8660  223.2360 H   0  0  0  0  0  0  0  0  0  0  0  0
  139.9247   73.4937  220.2343 H   0  0  0  0  0  0  0  0  0  0  0  0
  138.6333   74.5266  220.9273 H   0  0  0  0  0  0  0  0  0  0  0  0
  140.3827   74.5619  218.5761 H   0  0  0  0  0  0  0  0  0  0  0  0
  139.8882   76.2076  218.3468 H   0  0  0  0  0  0  0  0  0  0  0  0
  142.6175   74.9011  217.8691 H   0  0  0  0  0  0  0  0  0  0  0  0
  141.8261   76.1314  216.8728 H   0  0  0  0  0  0  0  0  0  0  0  0
  143.8537   76.7017  218.6338 H   0  0  0  0  0  0  0  0  0  0  0  0
  142.6065   77.8905  218.2344 H   0  0  0  0  0  0  0  0  0  0  0  0
  143.0733   76.4878  220.7474 H   0  0  0  0  0  0  0  0  0  0  0  0
  141.5961   78.8912  218.6416 H   0  0  0  0  0  0  0  0  0  0  0  0
  140.8761   81.1516  219.3543 H   0  0  0  0  0  0  0  0  0  0  0  0
  140.7458   81.6202  221.8137 H   0  0  0  0  0  0  0  0  0  0  0  0
  142.0489   77.5845  222.6717 H   0  0  0  0  0  0  0  0  0  0  0  0
  139.0820   69.5069  222.7982 H   0  0  0  0  0  0  0  0  0  0  0  0
  139.1186   68.2877  224.9477 H   0  0  0  0  0  0  0  0  0  0  0  0
  139.6730   68.2653  227.3273 H   0  0  0  0  0  0  0  0  0  0  0  0
  140.6038   69.4529  229.3220 H   0  0  0  0  0  0  0  0  0  0  0  0
  141.4473   71.7677  229.1111 H   0  0  0  0  0  0  0  0  0  0  0  0
  141.3734   72.9303  226.9134 H   0  0  0  0  0  0  0  0  0  0  0  0
  1  2  2  0
  2  3  1  0
  3  4  1  0
  4  5  1  0
  5  6  2  0
  5  7  1  0
  7  8  1  0
  8  9  1  0
  9 10  1  0
 10 11  1  0
 11 12  1  0
 12 13  2  0
 13 14  1  0
 14 15  2  0
 15 16  1  0
 16 17  1  0
 17 18  1  0
 17 19  1  0
 17 20  1  0
 16 21  2  0
  2 22  1  0
 22 23  2  0
 23 24  1  0
 24 25  2  0
 25 26  1  0
 26 27  2  0
 27 28  1  0
 28 29  2  0
 29 30  1  0
 30 31  2  0
 11  7  1  0
 21 12  1  0
 31 22  1  0
 30 25  1  0
  3 32  1  0
  4 33  1  0
  4 34  1  0
  8 35  1  0
  8 36  1  0
  9 37  1  0
  9 38  1  0
 10 39  1  0
 10 40  1  0
 11 41  1  1
 13 42  1  0
 14 43  1  0
 15 44  1  0
 21 45  1  0
 23 46  1  0
 24 47  1  0
 26 48  1  0
 27 49  1  0
 28 50  1  0
 29 51  1  0
M  END
>  <smiles>  (81) 
O=C(NCC(=O)N1CCCC1c1cccc(C(F)(F)F)c1)c1ccc2ccccc2n1

>  <score_type>  (81) 
oracle

>  <origin>  (81) 
autodockgpu

>  <m_score__min__energy>  (81) 
-9.1500000000000004

>  <m_primary>  (81) 
energy

>  <rmsd>  (81) 
1.4923113594903645

>  <m_score__min__rmsd>  (81) 
1.4923113594903645

>  <meeko>  (81) 
{"free_energy": -8.49, "intermolecular_energy": -10.28, "internal_energy": -1.71, "cluster_size": 27, "cluster_id": 2, "rank_in_cluster": 22}

>  <energy>  (81) 
-8.2

>  <cluster_rmsd>  (81) 
1.76

>  <cluster>  (81) 
2

$$$$

     RDKit          3D

 51 54  0  0  0  0  0  0  0  0999 V2000
  138.8130   75.1370  221.8720 O   0  0  0  0  0  0  0  0  0  0  0  0
  139.9780   75.6120  222.0260 C   0  0  0  0  0  0  0  0  0  0  0  0
  141.1200   74.7910  221.8480 N   0  0  0  0  0  0  0  0  0  0  0  0
  141.0180   73.3930  221.4860 C   0  0  0  0  0  0  0  0  0  0  0  0
  141.7820   73.1570  220.2230 C   0  0  0  0  0  0  0  0  0  0  0  0
  141.1930   72.6590  219.2080 O   0  0  0  0  0  0  0  0  0  0  0  0
  143.1590   73.4720  220.1090 N   0  0  0  0  0  0  0  0  0  0  0  0
  144.1550   72.5290  219.6540 C   0  0  0  0  0  0  0  0  0  0  0  0
  145.3760   73.0450  220.3870 C   0  0  0  0  0  0  0  0  0  0  0  0
  145.1850   74.5340  220.5040 C   0  0  0  0  0  0  0  0  0  0  0  0
  143.7190   74.7550  220.4280 C   0  0  1  0  0  0  0  0  0  0  0  0
  143.3400   75.7970  219.4340 C   0  0  0  0  0  0  0  0  0  0  0  0
  143.6940   75.5930  218.1300 C   0  0  0  0  0  0  0  0  0  0  0  0
  143.4010   76.4830  217.1200 C   0  0  0  0  0  0  0  0  0  0  0  0
  142.7140   77.6270  217.4760 C   0  0  0  0  0  0  0  0  0  0  0  0
  142.3510   77.8380  218.8050 C   0  0  0  0  0  0  0  0  0  0  0  0
  141.6140   79.1000  219.0870 C   0  0  0  0  0  0  0  0  0  0  0  0
  141.7430   79.9720  218.0460 F   0  0  0  0  0  0  0  0  0  0  0  0
  142.2040   79.6560  220.2120 F   0  0  0  0  0  0  0  0  0  0  0  0
  140.2970   78.8030  219.3260 F   0  0  0  0  0  0  0  0  0  0  0  0
  142.6640   76.9190  219.7970 C   0  0  0  0  0  0  0  0  0  0  0  0
  140.1720   77.0050  222.3890 C   0  0  0  0  0  0  0  0  0  0  0  0
  139.0880   77.8270  222.5470 C   0  0  0  0  0  0  0  0  0  0  0  0
  139.2350   79.1510  222.8900 C   0  0  0  0  0  0  0  0  0  0  0  0
  140.5180   79.6620  223.0810 C   0  0  0  0  0  0  0  0  0  0  0  0
  140.7040   80.9850  223.4260 C   0  0  0  0  0  0  0  0  0  0  0  0
  142.0050   81.4590  223.6090 C   0  0  0  0  0  0  0  0  0  0  0  0
  143.0830   80.6170  223.4460 C   0  0  0  0  0  0  0  0  0  0  0  0
  142.8850   79.2890  223.0990 C   0  0  0  0  0  0  0  0  0  0  0  0
  141.5990   78.8110  222.9170 C   0  0  0  0  0  0  0  0  0  0  0  0
  141.4010   77.5320  222.5820 N   0  0  0  0  0  0  0  0  0  0  0  0
  142.0740   75.2240  221.9860 H   0  0  0  0  0  0  0  0  0  0  0  0
  141.4376   72.7725  222.2915 H   0  0  0  0  0  0  0  0  0  0  0  0
  139.9617   73.1257  221.3352 H   0  0  0  0  0  0  0  0  0  0  0  0
  143.9066   71.4998  219.9524 H   0  0  0  0  0  0  0  0  0  0  0  0
  144.2663   72.4702  218.5612 H   0  0  0  0  0  0  0  0  0  0  0  0
  145.4452   72.5880  221.3852 H   0  0  0  0  0  0  0  0  0  0  0  0
  146.3045   72.7966  219.8521 H   0  0  0  0  0  0  0  0  0  0  0  0
  145.5789   74.8974  221.4646 H   0  0  0  0  0  0  0  0  0  0  0  0
  145.7204   75.0768  219.7111 H   0  0  0  0  0  0  0  0  0  0  0  0
  143.3295   75.1442  221.3802 H   0  0  0  0  0  0  0  0  0  0  0  0
  144.2398   74.6729  217.8741 H   0  0  0  0  0  0  0  0  0  0  0  0
  143.7002   76.2914  216.0789 H   0  0  0  0  0  0  0  0  0  0  0  0
  142.4531   78.3722  216.7101 H   0  0  0  0  0  0  0  0  0  0  0  0
  142.3742   77.0932  220.8437 H   0  0  0  0  0  0  0  0  0  0  0  0
  138.0775   77.4195  222.3963 H   0  0  0  0  0  0  0  0  0  0  0  0
  138.3531   79.7971  223.0118 H   0  0  0  0  0  0  0  0  0  0  0  0
  139.8416   81.6555  223.5548 H   0  0  0  0  0  0  0  0  0  0  0  0
  142.1698   82.5110  223.8849 H   0  0  0  0  0  0  0  0  0  0  0  0
  144.1041   80.9992  223.5916 H   0  0  0  0  0  0  0  0  0  0  0  0
  143.7469   78.6180  222.9689 H   0  0  0  0  0  0  0  0  0  0  0  0
  1  2  2  0
  2  3  1  0
  3  4  1  0
  4  5  1  0
  5  6  2  0
  5  7  1  0
  7  8  1  0
  8  9  1  0
  9 10  1  0
 10 11  1  0
 11 12  1  0
 12 13  2  0
 13 14  1  0
 14 15  2  0
 15 16  1  0
 16 17  1  0
 17 18  1  0
 17 19  1  0
 17 20  1  0
 16 21  2  0
  2 22  1  0
 22 23  2  0
 23 24  1  0
 24 25  2  0
 25 26  1  0
 26 27  2  0
 27 28  1  0
 28 29  2  0
 29 30  1  0
 30 31  2  0
 11  7  1  0
 21 12  1  0
 31 22  1  0
 30 25  1  0
  3 32  1  0
  4 33  1  0
  4 34  1  0
  8 35  1  0
  8 36  1  0
  9 37  1  0
  9 38  1  0
 10 39  1  0
 10 40  1  0
 11 41  1  1
 13 42  1  0
 14 43  1  0
 15 44  1  0
 21 45  1  0
 23 46  1  0
 24 47  1  0
 26 48  1  0
 27 49  1  0
 28 50  1  0
 29 51  1  0
M  END
>  <smiles>  (82) 
O=C(NCC(=O)N1CCCC1c1cccc(C(F)(F)F)c1)c1ccc2ccccc2n1

>  <score_type>  (82) 
oracle

>  <origin>  (82) 
autodockgpu

>  <m_score__min__energy>  (82) 
-9.1500000000000004

>  <m_primary>  (82) 
energy

>  <rmsd>  (82) 
7.683248055746176

>  <m_score__min__rmsd>  (82) 
7.683248055746176

>  <meeko>  (82) 
{"free_energy": -7.22, "intermolecular_energy": -9.01, "internal_energy": -2.89, "cluster_size": 2, "cluster_id": 7, "rank_in_cluster": 2}

>  <energy>  (82) 
-8.04

>  <cluster_rmsd>  (82) 
1.48

>  <cluster>  (82) 
2

$$$$

     RDKit          3D

 51 54  0  0  0  0  0  0  0  0999 V2000
  140.9060   71.6110  221.3020 O   0  0  0  0  0  0  0  0  0  0  0  0
  140.3990   72.1590  222.3270 C   0  0  0  0  0  0  0  0  0  0  0  0
  139.9840   73.5140  222.2870 N   0  0  0  0  0  0  0  0  0  0  0  0
  140.1150   74.3280  221.0970 C   0  0  0  0  0  0  0  0  0  0  0  0
  140.3120   75.7540  221.5000 C   0  0  0  0  0  0  0  0  0  0  0  0
  140.1220   76.1030  222.7110 O   0  0  0  0  0  0  0  0  0  0  0  0
  140.7070   76.7490  220.5720 N   0  0  0  0  0  0  0  0  0  0  0  0
  140.0740   76.9310  219.2850 C   0  0  0  0  0  0  0  0  0  0  0  0
  141.2330   77.4980  218.4890 C   0  0  0  0  0  0  0  0  0  0  0  0
  142.0630   78.2780  219.4720 C   0  0  0  0  0  0  0  0  0  0  0  0
  141.7720   77.6850  220.8010 C   0  0  1  0  0  0  0  0  0  0  0  0
  141.4150   78.7020  221.8260 C   0  0  0  0  0  0  0  0  0  0  0  0
  142.4340   79.3350  222.4800 C   0  0  0  0  0  0  0  0  0  0  0  0
  142.2310   80.2930  223.4490 C   0  0  0  0  0  0  0  0  0  0  0  0
  140.9200   80.6080  223.7500 C   0  0  0  0  0  0  0  0  0  0  0  0
  139.8780   79.9650  223.0860 C   0  0  0  0  0  0  0  0  0  0  0  0
  138.5020   80.3730  223.4810 C   0  0  0  0  0  0  0  0  0  0  0  0
  137.5870   79.4710  223.0230 F   0  0  0  0  0  0  0  0  0  0  0  0
  138.2650   81.5970  222.8740 F   0  0  0  0  0  0  0  0  0  0  0  0
  138.4460   80.4890  224.8460 F   0  0  0  0  0  0  0  0  0  0  0  0
  140.1200   79.0030  222.1140 C   0  0  0  0  0  0  0  0  0  0  0  0
  140.2310   71.4150  223.5630 C   0  0  0  0  0  0  0  0  0  0  0  0
  139.5910   70.2040  223.5500 C   0  0  0  0  0  0  0  0  0  0  0  0
  139.4140   69.4730  224.7010 C   0  0  0  0  0  0  0  0  0  0  0  0
  139.9000   69.9790  225.9050 C   0  0  0  0  0  0  0  0  0  0  0  0
  139.7420   69.2750  227.0800 C   0  0  0  0  0  0  0  0  0  0  0  0
  140.2430   69.8160  228.2660 C   0  0  0  0  0  0  0  0  0  0  0  0
  140.8840   71.0350  228.2590 C   0  0  0  0  0  0  0  0  0  0  0  0
  141.0380   71.7360  227.0730 C   0  0  0  0  0  0  0  0  0  0  0  0
  140.5450   71.2060  225.8940 C   0  0  0  0  0  0  0  0  0  0  0  0
  140.6900   71.8770  224.7460 N   0  0  0  0  0  0  0  0  0  0  0  0
  139.5670   73.9340  223.1620 H   0  0  0  0  0  0  0  0  0  0  0  0
  140.9816   73.9875  220.5112 H   0  0  0  0  0  0  0  0  0  0  0  0
  139.2060   74.2379  220.4841 H   0  0  0  0  0  0  0  0  0  0  0  0
  139.7215   75.9767  218.8666 H   0  0  0  0  0  0  0  0  0  0  0  0
  139.1740   77.5632  219.3006 H   0  0  0  0  0  0  0  0  0  0  0  0
  141.8273   76.6853  218.0459 H   0  0  0  0  0  0  0  0  0  0  0  0
  140.8835   78.1324  217.6611 H   0  0  0  0  0  0  0  0  0  0  0  0
  143.1325   78.1802  219.2340 H   0  0  0  0  0  0  0  0  0  0  0  0
  141.8237   79.3513  219.4446 H   0  0  0  0  0  0  0  0  0  0  0  0
  142.6646   77.1945  221.2167 H   0  0  0  0  0  0  0  0  0  0  0  0
  143.4684   79.0662  222.2197 H   0  0  0  0  0  0  0  0  0  0  0  0
  143.0730   80.7839  223.9590 H   0  0  0  0  0  0  0  0  0  0  0  0
  140.6989   81.3672  224.5146 H   0  0  0  0  0  0  0  0  0  0  0  0
  139.2912   78.5006  221.5937 H   0  0  0  0  0  0  0  0  0  0  0  0
  139.2101   69.8074  222.5973 H   0  0  0  0  0  0  0  0  0  0  0  0
  138.8963   68.5029  224.6718 H   0  0  0  0  0  0  0  0  0  0  0  0
  139.2291   68.3019  227.0832 H   0  0  0  0  0  0  0  0  0  0  0  0
  140.1250   69.2655  229.2110 H   0  0  0  0  0  0  0  0  0  0  0  0
  141.2752   71.4539  229.1979 H   0  0  0  0  0  0  0  0  0  0  0  0
  141.5500   72.7096  227.0693 H   0  0  0  0  0  0  0  0  0  0  0  0
  1  2  2  0
  2  3  1  0
  3  4  1  0
  4  5  1  0
  5  6  2  0
  5  7  1  0
  7  8  1  0
  8  9  1  0
  9 10  1  0
 10 11  1  0
 11 12  1  0
 12 13  2  0
 13 14  1  0
 14 15  2  0
 15 16  1  0
 16 17  1  0
 17 18  1  0
 17 19  1  0
 17 20  1  0
 16 21  2  0
  2 22  1  0
 22 23  2  0
 23 24  1  0
 24 25  2  0
 25 26  1  0
 26 27  2  0
 27 28  1  0
 28 29  2  0
 29 30  1  0
 30 31  2  0
 11  7  1  0
 21 12  1  0
 31 22  1  0
 30 25  1  0
  3 32  1  0
  4 33  1  0
  4 34  1  0
  8 35  1  0
  8 36  1  0
  9 37  1  0
  9 38  1  0
 10 39  1  0
 10 40  1  0
 11 41  1  1
 13 42  1  0
 14 43  1  0
 15 44  1  0
 21 45  1  0
 23 46  1  0
 24 47  1  0
 26 48  1  0
 27 49  1  0
 28 50  1  0
 29 51  1  0
M  END
>  <smiles>  (83) 
O=C(NCC(=O)N1CCCC1c1cccc(C(F)(F)F)c1)c1ccc2ccccc2n1

>  <score_type>  (83) 
oracle

>  <origin>  (83) 
autodockgpu

>  <m_score__min__energy>  (83) 
-9.1500000000000004

>  <m_primary>  (83) 
energy

>  <rmsd>  (83) 
1.712397130500264

>  <m_score__min__rmsd>  (83) 
1.712397130500264

>  <meeko>  (83) 
{"free_energy": -8.85, "intermolecular_energy": -10.64, "internal_energy": -1.89, "cluster_size": 27, "cluster_id": 2, "rank_in_cluster": 10}

>  <energy>  (83) 
-8.54

>  <cluster_rmsd>  (83) 
0.0

>  <cluster>  (83) 
3

$$$$

     RDKit          3D

 51 54  0  0  0  0  0  0  0  0999 V2000
  140.1980   71.3270  221.2170 O   0  0  0  0  0  0  0  0  0  0  0  0
  139.9960   71.9650  222.2940 C   0  0  0  0  0  0  0  0  0  0  0  0
  139.7330   73.3580  222.2670 N   0  0  0  0  0  0  0  0  0  0  0  0
  139.6840   74.1120  221.0320 C   0  0  0  0  0  0  0  0  0  0  0  0
  141.0660   74.5590  220.6770 C   0  0  0  0  0  0  0  0  0  0  0  0
  142.0740   73.9270  221.1350 O   0  0  0  0  0  0  0  0  0  0  0  0
  141.3010   75.6750  219.8370 N   0  0  0  0  0  0  0  0  0  0  0  0
  140.7380   75.8050  218.5120 C   0  0  0  0  0  0  0  0  0  0  0  0
  141.8000   76.6580  217.8470 C   0  0  0  0  0  0  0  0  0  0  0  0
  142.3670   77.5290  218.9350 C   0  0  0  0  0  0  0  0  0  0  0  0
  142.1180   76.7990  220.2030 C   0  0  1  0  0  0  0  0  0  0  0  0
  141.4740   77.6450  221.2440 C   0  0  0  0  0  0  0  0  0  0  0  0
  140.2640   77.2440  221.7350 C   0  0  0  0  0  0  0  0  0  0  0  0
  139.5690   77.9420  222.6990 C   0  0  0  0  0  0  0  0  0  0  0  0
  140.1530   79.1000  223.1720 C   0  0  0  0  0  0  0  0  0  0  0  0
  141.3880   79.5130  222.6750 C   0  0  0  0  0  0  0  0  0  0  0  0
  141.9340   80.7730  223.2480 C   0  0  0  0  0  0  0  0  0  0  0  0
  142.1890   81.6770  222.2580 F   0  0  0  0  0  0  0  0  0  0  0  0
  143.1290   80.4390  223.8670 F   0  0  0  0  0  0  0  0  0  0  0  0
  141.0390   81.2740  224.1580 F   0  0  0  0  0  0  0  0  0  0  0  0
  142.0590   78.7840  221.7020 C   0  0  0  0  0  0  0  0  0  0  0  0
  140.0280   71.2870  223.5780 C   0  0  0  0  0  0  0  0  0  0  0  0
  139.5540   70.0060  223.6860 C   0  0  0  0  0  0  0  0  0  0  0  0
  139.5690   69.3340  224.8860 C   0  0  0  0  0  0  0  0  0  0  0  0
  140.0790   69.9750  226.0140 C   0  0  0  0  0  0  0  0  0  0  0  0
  140.1100   69.3330  227.2340 C   0  0  0  0  0  0  0  0  0  0  0  0
  140.6290   70.0080  228.3410 C   0  0  0  0  0  0  0  0  0  0  0  0
  141.1020   71.2960  228.2120 C   0  0  0  0  0  0  0  0  0  0  0  0
  141.0650   71.9340  226.9820 C   0  0  0  0  0  0  0  0  0  0  0  0
  140.5530   71.2710  225.8800 C   0  0  0  0  0  0  0  0  0  0  0  0
  140.5160   71.8780  224.6900 N   0  0  0  0  0  0  0  0  0  0  0  0
  139.5700   73.8540  223.1860 H   0  0  0  0  0  0  0  0  0  0  0  0
  139.2844   73.4765  220.2280 H   0  0  0  0  0  0  0  0  0  0  0  0
  139.0318   74.9887  221.1585 H   0  0  0  0  0  0  0  0  0  0  0  0
  140.6324   74.8282  218.0174 H   0  0  0  0  0  0  0  0  0  0  0  0
  139.7233   76.2288  218.4831 H   0  0  0  0  0  0  0  0  0  0  0  0
  142.5874   76.0222  217.4159 H   0  0  0  0  0  0  0  0  0  0  0  0
  141.3816   77.2576  217.0252 H   0  0  0  0  0  0  0  0  0  0  0  0
  143.4463   77.6783  218.7837 H   0  0  0  0  0  0  0  0  0  0  0  0
  141.9017   78.5257  218.9417 H   0  0  0  0  0  0  0  0  0  0  0  0
  143.0638   76.4834  220.6676 H   0  0  0  0  0  0  0  0  0  0  0  0
  139.8219   76.3170  221.3410 H   0  0  0  0  0  0  0  0  0  0  0  0
  138.5954   77.5930  223.0736 H   0  0  0  0  0  0  0  0  0  0  0  0
  139.6431   79.6975  223.9420 H   0  0  0  0  0  0  0  0  0  0  0  0
  143.0329   79.1173  221.3140 H   0  0  0  0  0  0  0  0  0  0  0  0
  139.1526   69.5039  222.7933 H   0  0  0  0  0  0  0  0  0  0  0  0
  139.1842   68.3058  224.9546 H   0  0  0  0  0  0  0  0  0  0  0  0
  139.7317   68.3049  227.3337 H   0  0  0  0  0  0  0  0  0  0  0  0
  140.6604   69.5091  229.3209 H   0  0  0  0  0  0  0  0  0  0  0  0
  141.5106   71.8199  229.0887 H   0  0  0  0  0  0  0  0  0  0  0  0
  141.4410   72.9629  226.8820 H   0  0  0  0  0  0  0  0  0  0  0  0
  1  2  2  0
  2  3  1  0
  3  4  1  0
  4  5  1  0
  5  6  2  0
  5  7  1  0
  7  8  1  0
  8  9  1  0
  9 10  1  0
 10 11  1  0
 11 12  1  0
 12 13  2  0
 13 14  1  0
 14 15  2  0
 15 16  1  0
 16 17  1  0
 17 18  1  0
 17 19  1  0
 17 20  1  0
 16 21  2  0
  2 22  1  0
 22 23  2  0
 23 24  1  0
 24 25  2  0
 25 26  1  0
 26 27  2  0
 27 28  1  0
 28 29  2  0
 29 30  1  0
 30 31  2  0
 11  7  1  0
 21 12  1  0
 31 22  1  0
 30 25  1  0
  3 32  1  0
  4 33  1  0
  4 34  1  0
  8 35  1  0
  8 36  1  0
  9 37  1  0
  9 38  1  0
 10 39  1  0
 10 40  1  0
 11 41  1  1
 13 42  1  0
 14 43  1  0
 15 44  1  0
 21 45  1  0
 23 46  1  0
 24 47  1  0
 26 48  1  0
 27 49  1  0
 28 50  1  0
 29 51  1  0
M  END
>  <smiles>  (84) 
O=C(NCC(=O)N1CCCC1c1cccc(C(F)(F)F)c1)c1ccc2ccccc2n1

>  <score_type>  (84) 
oracle

>  <origin>  (84) 
autodockgpu

>  <m_score__min__energy>  (84) 
-9.1500000000000004

>  <m_primary>  (84) 
energy

>  <rmsd>  (84) 
1.4830584153385484

>  <m_score__min__rmsd>  (84) 
1.4830584153385484

>  <meeko>  (84) 
{"free_energy": -8.53, "intermolecular_energy": -10.32, "internal_energy": -1.44, "cluster_size": 27, "cluster_id": 2, "rank_in_cluster": 20}

>  <energy>  (84) 
-8.51

>  <cluster_rmsd>  (84) 
0.07

>  <cluster>  (84) 
3

$$$$

     RDKit          3D

 51 54  0  0  0  0  0  0  0  0999 V2000
  140.3500   71.2860  221.2430 O   0  0  0  0  0  0  0  0  0  0  0  0
  140.0980   71.9120  222.3170 C   0  0  0  0  0  0  0  0  0  0  0  0
  139.8250   73.3030  222.2930 N   0  0  0  0  0  0  0  0  0  0  0  0
  139.8200   74.0680  221.0640 C   0  0  0  0  0  0  0  0  0  0  0  0
  140.6600   75.2920  221.2460 C   0  0  0  0  0  0  0  0  0  0  0  0
  140.6960   75.8720  222.3800 O   0  0  0  0  0  0  0  0  0  0  0  0
  141.4290   75.8380  220.1900 N   0  0  0  0  0  0  0  0  0  0  0  0
  141.9510   77.1860  220.2020 C   0  0  0  0  0  0  0  0  0  0  0  0
  141.9910   77.4780  218.7150 C   0  0  0  0  0  0  0  0  0  0  0  0
  142.2600   76.1570  218.0460 C   0  0  0  0  0  0  0  0  0  0  0  0
  141.7780   75.1220  218.9940 C   0  0  1  0  0  0  0  0  0  0  0  0
  142.7840   74.0560  219.2520 C   0  0  0  0  0  0  0  0  0  0  0  0
  142.4650   72.7770  218.8920 C   0  0  0  0  0  0  0  0  0  0  0  0
  143.3100   71.7060  219.0800 C   0  0  0  0  0  0  0  0  0  0  0  0
  144.5340   71.9720  219.6620 C   0  0  0  0  0  0  0  0  0  0  0  0
  144.8640   73.2750  220.0300 C   0  0  0  0  0  0  0  0  0  0  0  0
  146.2040   73.4590  220.6500 C   0  0  0  0  0  0  0  0  0  0  0  0
  146.1710   74.4660  221.5690 F   0  0  0  0  0  0  0  0  0  0  0  0
  147.0660   73.8180  219.6240 F   0  0  0  0  0  0  0  0  0  0  0  0
  146.5970   72.2760  221.2220 F   0  0  0  0  0  0  0  0  0  0  0  0
  143.9850   74.3300  219.8260 C   0  0  0  0  0  0  0  0  0  0  0  0
  140.0830   71.2220  223.5950 C   0  0  0  0  0  0  0  0  0  0  0  0
  139.5860   69.9480  223.6780 C   0  0  0  0  0  0  0  0  0  0  0  0
  139.5560   69.2640  224.8700 C   0  0  0  0  0  0  0  0  0  0  0  0
  140.0460   69.8860  226.0180 C   0  0  0  0  0  0  0  0  0  0  0  0
  140.0320   69.2330  227.2330 C   0  0  0  0  0  0  0  0  0  0  0  0
  140.5320   69.8890  228.3590 C   0  0  0  0  0  0  0  0  0  0  0  0
  141.0280   71.1700  228.2570 C   0  0  0  0  0  0  0  0  0  0  0  0
  141.0370   71.8190  227.0310 C   0  0  0  0  0  0  0  0  0  0  0  0
  140.5450   71.1750  225.9100 C   0  0  0  0  0  0  0  0  0  0  0  0
  140.5500   71.7940  224.7250 N   0  0  0  0  0  0  0  0  0  0  0  0
  139.6210   73.7880  223.2080 H   0  0  0  0  0  0  0  0  0  0  0  0
  140.2321   73.4565  220.2478 H   0  0  0  0  0  0  0  0  0  0  0  0
  138.7895   74.3597  220.8132 H   0  0  0  0  0  0  0  0  0  0  0  0
  141.2803   77.8768  220.7339 H   0  0  0  0  0  0  0  0  0  0  0  0
  142.9155   77.3002  220.7184 H   0  0  0  0  0  0  0  0  0  0  0  0
  141.0274   77.8886  218.3790 H   0  0  0  0  0  0  0  0  0  0  0  0
  142.7631   78.2218  218.4686 H   0  0  0  0  0  0  0  0  0  0  0  0
  141.7124   76.0904  217.0943 H   0  0  0  0  0  0  0  0  0  0  0  0
  143.3275   76.0293  217.8134 H   0  0  0  0  0  0  0  0  0  0  0  0
  140.9176   74.5777  218.5775 H   0  0  0  0  0  0  0  0  0  0  0  0
  141.4842   72.5937  218.4289 H   0  0  0  0  0  0  0  0  0  0  0  0
  143.0237   70.6869  218.7808 H   0  0  0  0  0  0  0  0  0  0  0  0
  145.2492   71.1544  219.8353 H   0  0  0  0  0  0  0  0  0  0  0  0
  144.2523   75.3558  220.1198 H   0  0  0  0  0  0  0  0  0  0  0  0
  139.2020   69.4610  222.7695 H   0  0  0  0  0  0  0  0  0  0  0  0
  139.1518   68.2421  224.9176 H   0  0  0  0  0  0  0  0  0  0  0  0
  139.6329   68.2111  227.3133 H   0  0  0  0  0  0  0  0  0  0  0  0
  140.5299   69.3798  229.3340 H   0  0  0  0  0  0  0  0  0  0  0  0
  141.4181   71.6798  229.1503 H   0  0  0  0  0  0  0  0  0  0  0  0
  141.4338   72.8418  226.9506 H   0  0  0  0  0  0  0  0  0  0  0  0
  1  2  2  0
  2  3  1  0
  3  4  1  0
  4  5  1  0
  5  6  2  0
  5  7  1  0
  7  8  1  0
  8  9  1  0
  9 10  1  0
 10 11  1  0
 11 12  1  0
 12 13  2  0
 13 14  1  0
 14 15  2  0
 15 16  1  0
 16 17  1  0
 17 18  1  0
 17 19  1  0
 17 20  1  0
 16 21  2  0
  2 22  1  0
 22 23  2  0
 23 24  1  0
 24 25  2  0
 25 26  1  0
 26 27  2  0
 27 28  1  0
 28 29  2  0
 29 30  1  0
 30 31  2  0
 11  7  1  0
 21 12  1  0
 31 22  1  0
 30 25  1  0
  3 32  1  0
  4 33  1  0
  4 34  1  0
  8 35  1  0
  8 36  1  0
  9 37  1  0
  9 38  1  0
 10 39  1  0
 10 40  1  0
 11 41  1  6
 13 42  1  0
 14 43  1  0
 15 44  1  0
 21 45  1  0
 23 46  1  0
 24 47  1  0
 26 48  1  0
 27 49  1  0
 28 50  1  0
 29 51  1  0
M  END
>  <smiles>  (85) 
O=C(NCC(=O)N1CCCC1c1cccc(C(F)(F)F)c1)c1ccc2ccccc2n1

>  <score_type>  (85) 
oracle

>  <origin>  (85) 
autodockgpu

>  <m_score__min__energy>  (85) 
-9.1500000000000004

>  <m_primary>  (85) 
energy

>  <rmsd>  (85) 
2.119143600414931

>  <m_score__min__rmsd>  (85) 
2.119143600414931

>  <meeko>  (85) 
{"free_energy": -7.8, "intermolecular_energy": -9.59, "internal_energy": -2.1, "cluster_size": 12, "cluster_id": 3, "rank_in_cluster": 12}

>  <energy>  (85) 
-8.42

>  <cluster_rmsd>  (85) 
0.33

>  <cluster>  (85) 
3

$$$$

     RDKit          3D

 51 54  0  0  0  0  0  0  0  0999 V2000
  140.7640   71.4250  221.2990 O   0  0  0  0  0  0  0  0  0  0  0  0
  140.3170   72.0320  222.3180 C   0  0  0  0  0  0  0  0  0  0  0  0
  139.9430   73.3980  222.2350 N   0  0  0  0  0  0  0  0  0  0  0  0
  140.0500   74.1550  221.0060 C   0  0  0  0  0  0  0  0  0  0  0  0
  140.7970   75.4220  221.2750 C   0  0  0  0  0  0  0  0  0  0  0  0
  140.7390   75.9580  222.4300 O   0  0  0  0  0  0  0  0  0  0  0  0
  141.5800   76.0580  220.2810 N   0  0  0  0  0  0  0  0  0  0  0  0
  142.1930   77.3540  220.4610 C   0  0  0  0  0  0  0  0  0  0  0  0
  142.2220   77.8440  219.0270 C   0  0  0  0  0  0  0  0  0  0  0  0
  142.3860   76.6140  218.1770 C   0  0  0  0  0  0  0  0  0  0  0  0
  141.8540   75.4920  218.9890 C   0  0  1  0  0  0  0  0  0  0  0  0
  142.7900   74.3380  219.0700 C   0  0  0  0  0  0  0  0  0  0  0  0
  142.5020   73.2290  218.3250 C   0  0  0  0  0  0  0  0  0  0  0  0
  143.2890   72.0980  218.3150 C   0  0  0  0  0  0  0  0  0  0  0  0
  144.4200   72.1190  219.1080 C   0  0  0  0  0  0  0  0  0  0  0  0
  144.7180   73.2480  219.8690 C   0  0  0  0  0  0  0  0  0  0  0  0
  145.9570   73.1730  220.6900 C   0  0  0  0  0  0  0  0  0  0  0  0
  146.8480   74.1300  220.2990 F   0  0  0  0  0  0  0  0  0  0  0  0
  146.5110   71.9230  220.4540 F   0  0  0  0  0  0  0  0  0  0  0  0
  145.6250   73.3150  222.0130 F   0  0  0  0  0  0  0  0  0  0  0  0
  143.9000   74.3700  219.8540 C   0  0  0  0  0  0  0  0  0  0  0  0
  140.1770   71.3490  223.5910 C   0  0  0  0  0  0  0  0  0  0  0  0
  139.5620   70.1260  223.6460 C   0  0  0  0  0  0  0  0  0  0  0  0
  139.4120   69.4500  224.8340 C   0  0  0  0  0  0  0  0  0  0  0  0
  139.9010   70.0260  226.0060 C   0  0  0  0  0  0  0  0  0  0  0  0
  139.7690   69.3780  227.2170 C   0  0  0  0  0  0  0  0  0  0  0  0
  140.2720   69.9880  228.3680 C   0  0  0  0  0  0  0  0  0  0  0  0
  140.8880   71.2170  228.2930 C   0  0  0  0  0  0  0  0  0  0  0  0
  141.0150   71.8610  227.0720 C   0  0  0  0  0  0  0  0  0  0  0  0
  140.5210   71.2630  225.9260 C   0  0  0  0  0  0  0  0  0  0  0  0
  140.6400   71.8780  224.7440 N   0  0  0  0  0  0  0  0  0  0  0  0
  139.5750   73.8690  223.1060 H   0  0  0  0  0  0  0  0  0  0  0  0
  140.5903   73.5615  220.2537 H   0  0  0  0  0  0  0  0  0  0  0  0
  139.0445   74.3910  220.6275 H   0  0  0  0  0  0  0  0  0  0  0  0
  141.5823   78.0072  221.1016 H   0  0  0  0  0  0  0  0  0  0  0  0
  143.1733   77.3334  220.9595 H   0  0  0  0  0  0  0  0  0  0  0  0
  141.2819   78.3585  218.7789 H   0  0  0  0  0  0  0  0  0  0  0  0
  143.0381   78.5626  218.8611 H   0  0  0  0  0  0  0  0  0  0  0  0
  141.8157   76.7150  217.2419 H   0  0  0  0  0  0  0  0  0  0  0  0
  143.4372   76.4505  217.8974 H   0  0  0  0  0  0  0  0  0  0  0  0
  140.9501   75.0670  218.5281 H   0  0  0  0  0  0  0  0  0  0  0  0
  141.5958   73.2398  217.7016 H   0  0  0  0  0  0  0  0  0  0  0  0
  143.0292   71.2204  217.7048 H   0  0  0  0  0  0  0  0  0  0  0  0
  145.0859   71.2440  219.1389 H   0  0  0  0  0  0  0  0  0  0  0  0
  144.1427   75.2570  220.4577 H   0  0  0  0  0  0  0  0  0  0  0  0
  139.1795   69.6746  222.7187 H   0  0  0  0  0  0  0  0  0  0  0  0
  138.9138   68.4696  224.8594 H   0  0  0  0  0  0  0  0  0  0  0  0
  139.2754   68.3966  227.2748 H   0  0  0  0  0  0  0  0  0  0  0  0
  140.1755   69.4834  229.3407 H   0  0  0  0  0  0  0  0  0  0  0  0
  141.2808   71.6897  229.2053 H   0  0  0  0  0  0  0  0  0  0  0  0
  141.5065   72.8434  227.0143 H   0  0  0  0  0  0  0  0  0  0  0  0
  1  2  2  0
  2  3  1  0
  3  4  1  0
  4  5  1  0
  5  6  2  0
  5  7  1  0
  7  8  1  0
  8  9  1  0
  9 10  1  0
 10 11  1  0
 11 12  1  0
 12 13  2  0
 13 14  1  0
 14 15  2  0
 15 16  1  0
 16 17  1  0
 17 18  1  0
 17 19  1  0
 17 20  1  0
 16 21  2  0
  2 22  1  0
 22 23  2  0
 23 24  1  0
 24 25  2  0
 25 26  1  0
 26 27  2  0
 27 28  1  0
 28 29  2  0
 29 30  1  0
 30 31  2  0
 11  7  1  0
 21 12  1  0
 31 22  1  0
 30 25  1  0
  3 32  1  0
  4 33  1  0
  4 34  1  0
  8 35  1  0
  8 36  1  0
  9 37  1  0
  9 38  1  0
 10 39  1  0
 10 40  1  0
 11 41  1  6
 13 42  1  0
 14 43  1  0
 15 44  1  0
 21 45  1  0
 23 46  1  0
 24 47  1  0
 26 48  1  0
 27 49  1  0
 28 50  1  0
 29 51  1  0
M  END
>  <smiles>  (86) 
O=C(NCC(=O)N1CCCC1c1cccc(C(F)(F)F)c1)c1ccc2ccccc2n1

>  <score_type>  (86) 
oracle

>  <origin>  (86) 
autodockgpu

>  <m_score__min__energy>  (86) 
-9.1500000000000004

>  <m_primary>  (86) 
energy

>  <rmsd>  (86) 
2.2599144832308458

>  <m_score__min__rmsd>  (86) 
2.2599144832308458

>  <meeko>  (86) 
{"free_energy": -8.0, "intermolecular_energy": -9.79, "internal_energy": -2.02, "cluster_size": 12, "cluster_id": 3, "rank_in_cluster": 10}

>  <energy>  (86) 
-8.39

>  <cluster_rmsd>  (86) 
0.31

>  <cluster>  (86) 
3

$$$$

     RDKit          3D

 51 54  0  0  0  0  0  0  0  0999 V2000
  138.7380   75.2480  221.9210 O   0  0  0  0  0  0  0  0  0  0  0  0
  139.9050   75.7180  222.0800 C   0  0  0  0  0  0  0  0  0  0  0  0
  141.0430   74.8900  221.9140 N   0  0  0  0  0  0  0  0  0  0  0  0
  140.9360   73.4900  221.5610 C   0  0  0  0  0  0  0  0  0  0  0  0
  141.6520   73.2550  220.2700 C   0  0  0  0  0  0  0  0  0  0  0  0
  141.0120   72.8060  219.2630 O   0  0  0  0  0  0  0  0  0  0  0  0
  143.0360   73.5170  220.1200 N   0  0  0  0  0  0  0  0  0  0  0  0
  143.9790   72.5430  219.6190 C   0  0  0  0  0  0  0  0  0  0  0  0
  145.2410   72.9960  220.3250 C   0  0  0  0  0  0  0  0  0  0  0  0
  145.1140   74.4890  220.4730 C   0  0  0  0  0  0  0  0  0  0  0  0
  143.6570   74.7700  220.4450 C   0  0  1  0  0  0  0  0  0  0  0  0
  143.2910   75.8440  219.4820 C   0  0  0  0  0  0  0  0  0  0  0  0
  143.6700   75.6880  218.1780 C   0  0  0  0  0  0  0  0  0  0  0  0
  143.3910   76.6110  217.1940 C   0  0  0  0  0  0  0  0  0  0  0  0
  142.6930   77.7400  217.5780 C   0  0  0  0  0  0  0  0  0  0  0  0
  142.3060   77.9030  218.9060 C   0  0  0  0  0  0  0  0  0  0  0  0
  141.5590   79.1520  219.2190 C   0  0  0  0  0  0  0  0  0  0  0  0
  142.2260   79.8840  220.1580 F   0  0  0  0  0  0  0  0  0  0  0  0
  140.3370   78.7590  219.7440 F   0  0  0  0  0  0  0  0  0  0  0  0
  141.3830   79.8680  218.0630 F   0  0  0  0  0  0  0  0  0  0  0  0
  142.6050   76.9510  219.8710 C   0  0  0  0  0  0  0  0  0  0  0  0
  140.1040   77.1120  222.4340 C   0  0  0  0  0  0  0  0  0  0  0  0
  139.0220   77.9350  222.6040 C   0  0  0  0  0  0  0  0  0  0  0  0
  139.1730   79.2600  222.9400 C   0  0  0  0  0  0  0  0  0  0  0  0
  140.4580   79.7720  223.1110 C   0  0  0  0  0  0  0  0  0  0  0  0
  140.6490   81.0960  223.4480 C   0  0  0  0  0  0  0  0  0  0  0  0
  141.9520   81.5710  223.6110 C   0  0  0  0  0  0  0  0  0  0  0  0
  143.0280   80.7280  223.4360 C   0  0  0  0  0  0  0  0  0  0  0  0
  142.8260   79.3990  223.0970 C   0  0  0  0  0  0  0  0  0  0  0  0
  141.5370   78.9200  222.9350 C   0  0  0  0  0  0  0  0  0  0  0  0
  141.3340   77.6400  222.6080 N   0  0  0  0  0  0  0  0  0  0  0  0
  141.9980   75.3190  222.0550 H   0  0  0  0  0  0  0  0  0  0  0  0
  141.3906   72.8750  222.3516 H   0  0  0  0  0  0  0  0  0  0  0  0
  139.8765   73.2151  221.4525 H   0  0  0  0  0  0  0  0  0  0  0  0
  143.6975   71.5192  219.9065 H   0  0  0  0  0  0  0  0  0  0  0  0
  144.0562   72.5000  218.5226 H   0  0  0  0  0  0  0  0  0  0  0  0
  145.3200   72.5184  221.3127 H   0  0  0  0  0  0  0  0  0  0  0  0
  146.1431   72.7202  219.7591 H   0  0  0  0  0  0  0  0  0  0  0  0
  145.5504   74.8188  221.4273 H   0  0  0  0  0  0  0  0  0  0  0  0
  145.6473   75.0242  219.6736 H   0  0  0  0  0  0  0  0  0  0  0  0
  143.3126   75.1566  221.4155 H   0  0  0  0  0  0  0  0  0  0  0  0
  144.2255   74.7801  217.9004 H   0  0  0  0  0  0  0  0  0  0  0  0
  143.7088   76.4566  216.1523 H   0  0  0  0  0  0  0  0  0  0  0  0
  142.4427   78.5108  216.8342 H   0  0  0  0  0  0  0  0  0  0  0  0
  142.2964   77.0882  220.9179 H   0  0  0  0  0  0  0  0  0  0  0  0
  138.0096   77.5267  222.4687 H   0  0  0  0  0  0  0  0  0  0  0  0
  138.2926   79.9062  223.0719 H   0  0  0  0  0  0  0  0  0  0  0  0
  139.7884   81.7670  223.5862 H   0  0  0  0  0  0  0  0  0  0  0  0
  142.1205   82.6241  223.8806 H   0  0  0  0  0  0  0  0  0  0  0  0
  144.0510   81.1110  223.5658 H   0  0  0  0  0  0  0  0  0  0  0  0
  143.6862   78.7278  222.9573 H   0  0  0  0  0  0  0  0  0  0  0  0
  1  2  2  0
  2  3  1  0
  3  4  1  0
  4  5  1  0
  5  6  2  0
  5  7  1  0
  7  8  1  0
  8  9  1  0
  9 10  1  0
 10 11  1  0
 11 12  1  0
 12 13  2  0
 13 14  1  0
 14 15  2  0
 15 16  1  0
 16 17  1  0
 17 18  1  0
 17 19  1  0
 17 20  1  0
 16 21  2  0
  2 22  1  0
 22 23  2  0
 23 24  1  0
 24 25  2  0
 25 26  1  0
 26 27  2  0
 27 28  1  0
 28 29  2  0
 29 30  1  0
 30 31  2  0
 11  7  1  0
 21 12  1  0
 31 22  1  0
 30 25  1  0
  3 32  1  0
  4 33  1  0
  4 34  1  0
  8 35  1  0
  8 36  1  0
  9 37  1  0
  9 38  1  0
 10 39  1  0
 10 40  1  0
 11 41  1  1
 13 42  1  0
 14 43  1  0
 15 44  1  0
 21 45  1  0
 23 46  1  0
 24 47  1  0
 26 48  1  0
 27 49  1  0
 28 50  1  0
 29 51  1  0
M  END
>  <smiles>  (87) 
O=C(NCC(=O)N1CCCC1c1cccc(C(F)(F)F)c1)c1ccc2ccccc2n1

>  <score_type>  (87) 
oracle

>  <origin>  (87) 
autodockgpu

>  <m_score__min__energy>  (87) 
-9.1500000000000004

>  <m_primary>  (87) 
energy

>  <rmsd>  (87) 
7.711405352484824

>  <m_score__min__rmsd>  (87) 
7.711405352484824

>  <meeko>  (87) 
{"free_energy": -7.25, "intermolecular_energy": -9.04, "internal_energy": -2.94, "cluster_size": 2, "cluster_id": 7, "rank_in_cluster": 1}

>  <energy>  (87) 
-8.25

>  <cluster_rmsd>  (87) 
0.49

>  <cluster>  (87) 
3

$$$$

     RDKit          3D

 51 54  0  0  0  0  0  0  0  0999 V2000
  140.8490   71.2160  221.2570 O   0  0  0  0  0  0  0  0  0  0  0  0
  140.4380   71.8630  222.2660 C   0  0  0  0  0  0  0  0  0  0  0  0
  140.1540   73.2480  222.1670 N   0  0  0  0  0  0  0  0  0  0  0  0
  140.3150   73.9840  220.9310 C   0  0  0  0  0  0  0  0  0  0  0  0
  140.8980   75.3270  221.2340 C   0  0  0  0  0  0  0  0  0  0  0  0
  140.6210   75.9040  222.3360 O   0  0  0  0  0  0  0  0  0  0  0  0
  141.7610   75.9930  220.3280 N   0  0  0  0  0  0  0  0  0  0  0  0
  142.1060   77.3920  220.4430 C   0  0  0  0  0  0  0  0  0  0  0  0
  142.3570   77.7320  218.9880 C   0  0  0  0  0  0  0  0  0  0  0  0
  142.8910   76.4730  218.3590 C   0  0  0  0  0  0  0  0  0  0  0  0
  142.3870   75.3600  219.2010 C   0  0  1  0  0  0  0  0  0  0  0  0
  143.4580   74.4120  219.6140 C   0  0  0  0  0  0  0  0  0  0  0  0
  144.4720   74.8950  220.3920 C   0  0  0  0  0  0  0  0  0  0  0  0
  145.5190   74.1170  220.8370 C   0  0  0  0  0  0  0  0  0  0  0  0
  145.5140   72.7880  220.4600 C   0  0  0  0  0  0  0  0  0  0  0  0
  144.4810   72.2930  219.6670 C   0  0  0  0  0  0  0  0  0  0  0  0
  144.5650   70.8490  219.3140 C   0  0  0  0  0  0  0  0  0  0  0  0
  143.8260   70.5870  218.1970 F   0  0  0  0  0  0  0  0  0  0  0  0
  144.0240   70.1510  220.3830 F   0  0  0  0  0  0  0  0  0  0  0  0
  145.8810   70.5110  219.1290 F   0  0  0  0  0  0  0  0  0  0  0  0
  143.4420   73.1060  219.2360 C   0  0  0  0  0  0  0  0  0  0  0  0
  140.2480   71.2030  223.5460 C   0  0  0  0  0  0  0  0  0  0  0  0
  139.6040   69.9960  223.6040 C   0  0  0  0  0  0  0  0  0  0  0  0
  139.4070   69.3430  224.7980 C   0  0  0  0  0  0  0  0  0  0  0  0
  139.8760   69.9270  225.9730 C   0  0  0  0  0  0  0  0  0  0  0  0
  139.6970   69.3020  227.1900 C   0  0  0  0  0  0  0  0  0  0  0  0
  140.1820   69.9190  228.3450 C   0  0  0  0  0  0  0  0  0  0  0  0
  140.8270   71.1330  228.2670 C   0  0  0  0  0  0  0  0  0  0  0  0
  141.0020   71.7540  227.0400 C   0  0  0  0  0  0  0  0  0  0  0  0
  140.5260   71.1480  225.8900 C   0  0  0  0  0  0  0  0  0  0  0  0
  140.6910   71.7410  224.7030 N   0  0  0  0  0  0  0  0  0  0  0  0
  139.8140   73.7520  223.0310 H   0  0  0  0  0  0  0  0  0  0  0  0
  140.9893   73.4327  220.2591 H   0  0  0  0  0  0  0  0  0  0  0  0
  139.3372   74.1061  220.4422 H   0  0  0  0  0  0  0  0  0  0  0  0
  141.2772   77.9821  220.8613 H   0  0  0  0  0  0  0  0  0  0  0  0
  142.9497   77.6033  221.1164 H   0  0  0  0  0  0  0  0  0  0  0  0
  141.4202   78.0371  218.4988 H   0  0  0  0  0  0  0  0  0  0  0  0
  143.0641   78.5681  218.8837 H   0  0  0  0  0  0  0  0  0  0  0  0
  142.5209   76.3723  217.3280 H   0  0  0  0  0  0  0  0  0  0  0  0
  143.9898   76.4786  218.3077 H   0  0  0  0  0  0  0  0  0  0  0  0
  141.6799   74.7314  218.6398 H   0  0  0  0  0  0  0  0  0  0  0  0
  144.4517   75.9572  220.6773 H   0  0  0  0  0  0  0  0  0  0  0  0
  146.3211   74.5348  221.4631 H   0  0  0  0  0  0  0  0  0  0  0  0
  146.3255   72.1207  220.7859 H   0  0  0  0  0  0  0  0  0  0  0  0
  142.6315   72.7066  218.6086 H   0  0  0  0  0  0  0  0  0  0  0  0
  139.2358   69.5382  222.6740 H   0  0  0  0  0  0  0  0  0  0  0  0
  138.8869   68.3741  224.8252 H   0  0  0  0  0  0  0  0  0  0  0  0
  139.1803   68.3328  227.2495 H   0  0  0  0  0  0  0  0  0  0  0  0
  140.0481   69.4325  229.3225 H   0  0  0  0  0  0  0  0  0  0  0  0
  141.2050   71.6121  229.1822 H   0  0  0  0  0  0  0  0  0  0  0  0
  141.5169   72.7242  226.9804 H   0  0  0  0  0  0  0  0  0  0  0  0
  1  2  2  0
  2  3  1  0
  3  4  1  0
  4  5  1  0
  5  6  2  0
  5  7  1  0
  7  8  1  0
  8  9  1  0
  9 10  1  0
 10 11  1  0
 11 12  1  0
 12 13  2  0
 13 14  1  0
 14 15  2  0
 15 16  1  0
 16 17  1  0
 17 18  1  0
 17 19  1  0
 17 20  1  0
 16 21  2  0
  2 22  1  0
 22 23  2  0
 23 24  1  0
 24 25  2  0
 25 26  1  0
 26 27  2  0
 27 28  1  0
 28 29  2  0
 29 30  1  0
 30 31  2  0
 11  7  1  0
 21 12  1  0
 31 22  1  0
 30 25  1  0
  3 32  1  0
  4 33  1  0
  4 34  1  0
  8 35  1  0
  8 36  1  0
  9 37  1  0
  9 38  1  0
 10 39  1  0
 10 40  1  0
 11 41  1  6
 13 42  1  0
 14 43  1  0
 15 44  1  0
 21 45  1  0
 23 46  1  0
 24 47  1  0
 26 48  1  0
 27 49  1  0
 28 50  1  0
 29 51  1  0
M  END
>  <smiles>  (88) 
O=C(NCC(=O)N1CCCC1c1cccc(C(F)(F)F)c1)c1ccc2ccccc2n1

>  <score_type>  (88) 
oracle

>  <origin>  (88) 
autodockgpu

>  <m_score__min__energy>  (88) 
-9.1500000000000004

>  <m_primary>  (88) 
energy

>  <rmsd>  (88) 
2.3120328663739063

>  <m_score__min__rmsd>  (88) 
2.3120328663739063

>  <meeko>  (88) 
{"free_energy": -8.54, "intermolecular_energy": -10.33, "internal_energy": -2.13, "cluster_size": 12, "cluster_id": 3, "rank_in_cluster": 1}

>  <energy>  (88) 
-8.23

>  <cluster_rmsd>  (88) 
1.54

>  <cluster>  (88) 
3

$$$$

     RDKit          3D

 51 54  0  0  0  0  0  0  0  0999 V2000
  140.9340   71.5440  221.3620 O   0  0  0  0  0  0  0  0  0  0  0  0
  140.4180   72.0980  222.3790 C   0  0  0  0  0  0  0  0  0  0  0  0
  139.9990   73.4520  222.3260 N   0  0  0  0  0  0  0  0  0  0  0  0
  140.1370   74.2570  221.1310 C   0  0  0  0  0  0  0  0  0  0  0  0
  140.1990   75.7000  221.5190 C   0  0  0  0  0  0  0  0  0  0  0  0
  139.9090   76.0490  222.7110 O   0  0  0  0  0  0  0  0  0  0  0  0
  140.5730   76.7100  220.5990 N   0  0  0  0  0  0  0  0  0  0  0  0
  139.9030   76.9220  219.3360 C   0  0  0  0  0  0  0  0  0  0  0  0
  141.0410   77.4950  218.5160 C   0  0  0  0  0  0  0  0  0  0  0  0
  141.9070   78.2500  219.4880 C   0  0  0  0  0  0  0  0  0  0  0  0
  141.6530   77.6330  220.8130 C   0  0  1  0  0  0  0  0  0  0  0  0
  141.3350   78.6330  221.8690 C   0  0  0  0  0  0  0  0  0  0  0  0
  142.3780   79.2010  222.5440 C   0  0  0  0  0  0  0  0  0  0  0  0
  142.2130   80.1370  223.5420 C   0  0  0  0  0  0  0  0  0  0  0  0
  140.9150   80.4980  223.8490 C   0  0  0  0  0  0  0  0  0  0  0  0
  139.8490   79.9210  223.1630 C   0  0  0  0  0  0  0  0  0  0  0  0
  138.4900   80.3750  223.5670 C   0  0  0  0  0  0  0  0  0  0  0  0
  138.2670   81.6520  223.1400 F   0  0  0  0  0  0  0  0  0  0  0  0
  138.4660   80.3570  224.9530 F   0  0  0  0  0  0  0  0  0  0  0  0
  137.5600   79.5090  223.0530 F   0  0  0  0  0  0  0  0  0  0  0  0
  140.0540   78.9800  222.1630 C   0  0  0  0  0  0  0  0  0  0  0  0
  140.2420   71.3630  223.6190 C   0  0  0  0  0  0  0  0  0  0  0  0
  139.5900   70.1580  223.6130 C   0  0  0  0  0  0  0  0  0  0  0  0
  139.4050   69.4350  224.7670 C   0  0  0  0  0  0  0  0  0  0  0  0
  139.8970   69.9430  225.9690 C   0  0  0  0  0  0  0  0  0  0  0  0
  139.7310   69.2470  227.1480 C   0  0  0  0  0  0  0  0  0  0  0  0
  140.2380   69.7890  228.3310 C   0  0  0  0  0  0  0  0  0  0  0  0
  140.8910   71.0010  228.3180 C   0  0  0  0  0  0  0  0  0  0  0  0
  141.0520   71.6950  227.1280 C   0  0  0  0  0  0  0  0  0  0  0  0
  140.5540   71.1630  225.9510 C   0  0  0  0  0  0  0  0  0  0  0  0
  140.7060   71.8260  224.7990 N   0  0  0  0  0  0  0  0  0  0  0  0
  139.5740   73.8770  223.1950 H   0  0  0  0  0  0  0  0  0  0  0  0
  141.0605   73.9773  220.6028 H   0  0  0  0  0  0  0  0  0  0  0  0
  139.2758   74.0877  220.4680 H   0  0  0  0  0  0  0  0  0  0  0  0
  139.5298   75.9788  218.9103 H   0  0  0  0  0  0  0  0  0  0  0  0
  139.0093   77.5610  219.3914 H   0  0  0  0  0  0  0  0  0  0  0  0
  141.6149   76.6865  218.0396 H   0  0  0  0  0  0  0  0  0  0  0  0
  140.6716   78.1477  217.7113 H   0  0  0  0  0  0  0  0  0  0  0  0
  142.9678   78.1497  219.2150 H   0  0  0  0  0  0  0  0  0  0  0  0
  141.6749   79.3252  219.4890 H   0  0  0  0  0  0  0  0  0  0  0  0
  142.5542   77.1278  221.1906 H   0  0  0  0  0  0  0  0  0  0  0  0
  143.4008   78.8960  222.2776 H   0  0  0  0  0  0  0  0  0  0  0  0
  143.0732   80.5756  224.0689 H   0  0  0  0  0  0  0  0  0  0  0  0
  140.7234   81.2420  224.6362 H   0  0  0  0  0  0  0  0  0  0  0  0
  139.2066   78.5295  221.6255 H   0  0  0  0  0  0  0  0  0  0  0  0
  139.2056   69.7600  222.6623 H   0  0  0  0  0  0  0  0  0  0  0  0
  138.8769   68.4703  224.7430 H   0  0  0  0  0  0  0  0  0  0  0  0
  139.2073   68.2797  227.1564 H   0  0  0  0  0  0  0  0  0  0  0  0
  140.1149   69.2444  229.2787 H   0  0  0  0  0  0  0  0  0  0  0  0
  141.2865   71.4205  229.2548 H   0  0  0  0  0  0  0  0  0  0  0  0
  141.5730   72.6637  227.1195 H   0  0  0  0  0  0  0  0  0  0  0  0
  1  2  2  0
  2  3  1  0
  3  4  1  0
  4  5  1  0
  5  6  2  0
  5  7  1  0
  7  8  1  0
  8  9  1  0
  9 10  1  0
 10 11  1  0
 11 12  1  0
 12 13  2  0
 13 14  1  0
 14 15  2  0
 15 16  1  0
 16 17  1  0
 17 18  1  0
 17 19  1  0
 17 20  1  0
 16 21  2  0
  2 22  1  0
 22 23  2  0
 23 24  1  0
 24 25  2  0
 25 26  1  0
 26 27  2  0
 27 28  1  0
 28 29  2  0
 29 30  1  0
 30 31  2  0
 11  7  1  0
 21 12  1  0
 31 22  1  0
 30 25  1  0
  3 32  1  0
  4 33  1  0
  4 34  1  0
  8 35  1  0
  8 36  1  0
  9 37  1  0
  9 38  1  0
 10 39  1  0
 10 40  1  0
 11 41  1  1
 13 42  1  0
 14 43  1  0
 15 44  1  0
 21 45  1  0
 23 46  1  0
 24 47  1  0
 26 48  1  0
 27 49  1  0
 28 50  1  0
 29 51  1  0
M  END
>  <smiles>  (89) 
O=C(NCC(=O)N1CCCC1c1cccc(C(F)(F)F)c1)c1ccc2ccccc2n1

>  <score_type>  (89) 
oracle

>  <origin>  (89) 
autodockgpu

>  <m_score__min__energy>  (89) 
-9.1500000000000004

>  <m_primary>  (89) 
energy

>  <rmsd>  (89) 
1.6843369355528381

>  <m_score__min__rmsd>  (89) 
1.6843369355528381

>  <meeko>  (89) 
{"free_energy": -8.85, "intermolecular_energy": -10.64, "internal_energy": -1.93, "cluster_size": 27, "cluster_id": 2, "rank_in_cluster": 8}

>  <energy>  (89) 
-8.16

>  <cluster_rmsd>  (89) 
1.29

>  <cluster>  (89) 
3

$$$$

     RDKit          3D

 51 54  0  0  0  0  0  0  0  0999 V2000
  140.7060   71.4150  221.2610 O   0  0  0  0  0  0  0  0  0  0  0  0
  140.2870   72.0210  222.2930 C   0  0  0  0  0  0  0  0  0  0  0  0
  139.9260   73.3910  222.2260 N   0  0  0  0  0  0  0  0  0  0  0  0
  140.0150   74.1540  220.9990 C   0  0  0  0  0  0  0  0  0  0  0  0
  140.2120   75.5980  221.3360 C   0  0  0  0  0  0  0  0  0  0  0  0
  139.9330   76.0200  222.5060 O   0  0  0  0  0  0  0  0  0  0  0  0
  140.7040   76.5290  220.3890 N   0  0  0  0  0  0  0  0  0  0  0  0
  140.1500   76.6810  219.0620 C   0  0  0  0  0  0  0  0  0  0  0  0
  141.3760   77.1560  218.3070 C   0  0  0  0  0  0  0  0  0  0  0  0
  142.1900   77.9410  219.3000 C   0  0  0  0  0  0  0  0  0  0  0  0
  141.8010   77.4240  220.6350 C   0  0  1  0  0  0  0  0  0  0  0  0
  141.4390   78.5030  221.5940 C   0  0  0  0  0  0  0  0  0  0  0  0
  141.7530   78.3180  222.9110 C   0  0  0  0  0  0  0  0  0  0  0  0
  141.4700   79.2420  223.8930 C   0  0  0  0  0  0  0  0  0  0  0  0
  140.8380   80.4030  223.4930 C   0  0  0  0  0  0  0  0  0  0  0  0
  140.5170   80.5960  222.1510 C   0  0  0  0  0  0  0  0  0  0  0  0
  139.8380   81.8790  221.8210 C   0  0  0  0  0  0  0  0  0  0  0  0
  139.3950   81.8660  220.5300 F   0  0  0  0  0  0  0  0  0  0  0  0
  140.7920   82.8760  221.9570 F   0  0  0  0  0  0  0  0  0  0  0  0
  138.8020   82.0740  222.6990 F   0  0  0  0  0  0  0  0  0  0  0  0
  140.8170   79.6420  221.1890 C   0  0  0  0  0  0  0  0  0  0  0  0
  140.1670   71.3300  223.5650 C   0  0  0  0  0  0  0  0  0  0  0  0
  139.5520   70.1080  223.6230 C   0  0  0  0  0  0  0  0  0  0  0  0
  139.4210   69.4260  224.8100 C   0  0  0  0  0  0  0  0  0  0  0  0
  139.9270   69.9960  225.9770 C   0  0  0  0  0  0  0  0  0  0  0  0
  139.8140   69.3420  227.1860 C   0  0  0  0  0  0  0  0  0  0  0  0
  140.3350   69.9450  228.3330 C   0  0  0  0  0  0  0  0  0  0  0  0
  140.9500   71.1750  228.2540 C   0  0  0  0  0  0  0  0  0  0  0  0
  141.0580   71.8260  227.0340 C   0  0  0  0  0  0  0  0  0  0  0  0
  140.5460   71.2330  225.8930 C   0  0  0  0  0  0  0  0  0  0  0  0
  140.6470   71.8540  224.7130 N   0  0  0  0  0  0  0  0  0  0  0  0
  139.5820   73.8600  223.1070 H   0  0  0  0  0  0  0  0  0  0  0  0
  140.8667   73.7951  220.4026 H   0  0  0  0  0  0  0  0  0  0  0  0
  139.0894   74.0313  220.4174 H   0  0  0  0  0  0  0  0  0  0  0  0
  139.7737   75.7260  218.6666 H   0  0  0  0  0  0  0  0  0  0  0  0
  139.2827   77.3548  219.0004 H   0  0  0  0  0  0  0  0  0  0  0  0
  141.9523   76.2969  217.9331 H   0  0  0  0  0  0  0  0  0  0  0  0
  141.1026   77.7671  217.4342 H   0  0  0  0  0  0  0  0  0  0  0  0
  143.2645   77.7829  219.1256 H   0  0  0  0  0  0  0  0  0  0  0  0
  142.0048   79.0218  219.2131 H   0  0  0  0  0  0  0  0  0  0  0  0
  142.6459   76.9125  221.1193 H   0  0  0  0  0  0  0  0  0  0  0  0
  142.2570   77.3845  223.2017 H   0  0  0  0  0  0  0  0  0  0  0  0
  141.7348   79.0635  224.9456 H   0  0  0  0  0  0  0  0  0  0  0  0
  140.5878   81.1760  224.2345 H   0  0  0  0  0  0  0  0  0  0  0  0
  140.5596   79.8024  220.1316 H   0  0  0  0  0  0  0  0  0  0  0  0
  139.1539   69.6619  222.6997 H   0  0  0  0  0  0  0  0  0  0  0  0
  138.9242   68.4450  224.8381 H   0  0  0  0  0  0  0  0  0  0  0  0
  139.3210   68.3605  227.2460 H   0  0  0  0  0  0  0  0  0  0  0  0
  140.2538   69.4351  229.3043 H   0  0  0  0  0  0  0  0  0  0  0  0
  141.3572   71.6430  229.1624 H   0  0  0  0  0  0  0  0  0  0  0  0
  141.5482   72.8089  226.9736 H   0  0  0  0  0  0  0  0  0  0  0  0
  1  2  2  0
  2  3  1  0
  3  4  1  0
  4  5  1  0
  5  6  2  0
  5  7  1  0
  7  8  1  0
  8  9  1  0
  9 10  1  0
 10 11  1  0
 11 12  1  0
 12 13  2  0
 13 14  1  0
 14 15  2  0
 15 16  1  0
 16 17  1  0
 17 18  1  0
 17 19  1  0
 17 20  1  0
 16 21  2  0
  2 22  1  0
 22 23  2  0
 23 24  1  0
 24 25  2  0
 25 26  1  0
 26 27  2  0
 27 28  1  0
 28 29  2  0
 29 30  1  0
 30 31  2  0
 11  7  1  0
 21 12  1  0
 31 22  1  0
 30 25  1  0
  3 32  1  0
  4 33  1  0
  4 34  1  0
  8 35  1  0
  8 36  1  0
  9 37  1  0
  9 38  1  0
 10 39  1  0
 10 40  1  0
 11 41  1  1
 13 42  1  0
 14 43  1  0
 15 44  1  0
 21 45  1  0
 23 46  1  0
 24 47  1  0
 26 48  1  0
 27 49  1  0
 28 50  1  0
 29 51  1  0
M  END
>  <smiles>  (90) 
O=C(NCC(=O)N1CCCC1c1cccc(C(F)(F)F)c1)c1ccc2ccccc2n1

>  <score_type>  (90) 
oracle

>  <origin>  (90) 
autodockgpu

>  <m_score__min__energy>  (90) 
-9.1500000000000004

>  <m_primary>  (90) 
energy

>  <rmsd>  (90) 
1.5980664882396245

>  <m_score__min__rmsd>  (90) 
1.5980664882396245

>  <meeko>  (90) 
{"free_energy": -8.5, "intermolecular_energy": -10.29, "internal_energy": -1.93, "cluster_size": 27, "cluster_id": 2, "rank_in_cluster": 21}

>  <energy>  (90) 
-8.09

>  <cluster_rmsd>  (90) 
0.61

>  <cluster>  (90) 
3

$$$$

     RDKit          3D

 51 54  0  0  0  0  0  0  0  0999 V2000
  141.0100   71.5670  221.3760 O   0  0  0  0  0  0  0  0  0  0  0  0
  140.4610   72.1300  222.3710 C   0  0  0  0  0  0  0  0  0  0  0  0
  140.0530   73.4860  222.2960 N   0  0  0  0  0  0  0  0  0  0  0  0
  140.2380   74.2840  221.1020 C   0  0  0  0  0  0  0  0  0  0  0  0
  140.1680   75.7330  221.4670 C   0  0  0  0  0  0  0  0  0  0  0  0
  139.7830   76.0750  222.6330 O   0  0  0  0  0  0  0  0  0  0  0  0
  140.5200   76.7550  220.5520 N   0  0  0  0  0  0  0  0  0  0  0  0
  139.8180   76.9870  219.3100 C   0  0  0  0  0  0  0  0  0  0  0  0
  140.9350   77.5710  218.4680 C   0  0  0  0  0  0  0  0  0  0  0  0
  141.8280   78.3100  219.4290 C   0  0  0  0  0  0  0  0  0  0  0  0
  141.6070   77.6730  220.7510 C   0  0  1  0  0  0  0  0  0  0  0  0
  141.3190   78.6580  221.8290 C   0  0  0  0  0  0  0  0  0  0  0  0
  142.3790   79.2010  222.4980 C   0  0  0  0  0  0  0  0  0  0  0  0
  142.2420   80.1210  223.5140 C   0  0  0  0  0  0  0  0  0  0  0  0
  140.9540   80.4930  223.8490 C   0  0  0  0  0  0  0  0  0  0  0  0
  139.8700   79.9420  223.1690 C   0  0  0  0  0  0  0  0  0  0  0  0
  138.5240   80.4060  223.6030 C   0  0  0  0  0  0  0  0  0  0  0  0
  138.4590   80.4760  224.9640 F   0  0  0  0  0  0  0  0  0  0  0  0
  137.6180   79.4530  223.1610 F   0  0  0  0  0  0  0  0  0  0  0  0
  138.2660   81.6240  223.0290 F   0  0  0  0  0  0  0  0  0  0  0  0
  140.0470   79.0160  222.1500 C   0  0  0  0  0  0  0  0  0  0  0  0
  140.2370   71.4030  223.6080 C   0  0  0  0  0  0  0  0  0  0  0  0
  139.5660   70.2090  223.5870 C   0  0  0  0  0  0  0  0  0  0  0  0
  139.3360   69.4940  224.7380 C   0  0  0  0  0  0  0  0  0  0  0  0
  139.7990   70.0000  225.9520 C   0  0  0  0  0  0  0  0  0  0  0  0
  139.5870   69.3110  227.1280 C   0  0  0  0  0  0  0  0  0  0  0  0
  140.0670   69.8510  228.3230 C   0  0  0  0  0  0  0  0  0  0  0  0
  140.7390   71.0530  228.3250 C   0  0  0  0  0  0  0  0  0  0  0  0
  140.9470   71.7380  227.1380 C   0  0  0  0  0  0  0  0  0  0  0  0
  140.4760   71.2100  225.9490 C   0  0  0  0  0  0  0  0  0  0  0  0
  140.6720   71.8650  224.8000 N   0  0  0  0  0  0  0  0  0  0  0  0
  139.6000   73.9190  223.1460 H   0  0  0  0  0  0  0  0  0  0  0  0
  141.2203   74.0625  220.6593 H   0  0  0  0  0  0  0  0  0  0  0  0
  139.4503   74.0470  220.3717 H   0  0  0  0  0  0  0  0  0  0  0  0
  139.4321   76.0508  218.8803 H   0  0  0  0  0  0  0  0  0  0  0  0
  138.9276   77.6267  219.3987 H   0  0  0  0  0  0  0  0  0  0  0  0
  141.4946   76.7691  217.9642 H   0  0  0  0  0  0  0  0  0  0  0  0
  140.5457   78.2361  217.6831 H   0  0  0  0  0  0  0  0  0  0  0  0
  142.8812   78.2120  219.1270 H   0  0  0  0  0  0  0  0  0  0  0  0
  141.5984   79.3855  219.4524 H   0  0  0  0  0  0  0  0  0  0  0  0
  142.5163   77.1599  221.0973 H   0  0  0  0  0  0  0  0  0  0  0  0
  143.3935   78.8876  222.2108 H   0  0  0  0  0  0  0  0  0  0  0  0
  143.1163   80.5397  224.0340 H   0  0  0  0  0  0  0  0  0  0  0  0
  140.7845   81.2245  224.6529 H   0  0  0  0  0  0  0  0  0  0  0  0
  139.1853   78.5854  221.6189 H   0  0  0  0  0  0  0  0  0  0  0  0
  139.2029   69.8134  222.6270 H   0  0  0  0  0  0  0  0  0  0  0  0
  138.7948   68.5370  224.7020 H   0  0  0  0  0  0  0  0  0  0  0  0
  139.0486   68.3518  227.1246 H   0  0  0  0  0  0  0  0  0  0  0  0
  139.9073   69.3127  229.2689 H   0  0  0  0  0  0  0  0  0  0  0  0
  141.1120   71.4709  229.2717 H   0  0  0  0  0  0  0  0  0  0  0  0
  141.4845   72.6977  227.1413 H   0  0  0  0  0  0  0  0  0  0  0  0
  1  2  2  0
  2  3  1  0
  3  4  1  0
  4  5  1  0
  5  6  2  0
  5  7  1  0
  7  8  1  0
  8  9  1  0
  9 10  1  0
 10 11  1  0
 11 12  1  0
 12 13  2  0
 13 14  1  0
 14 15  2  0
 15 16  1  0
 16 17  1  0
 17 18  1  0
 17 19  1  0
 17 20  1  0
 16 21  2  0
  2 22  1  0
 22 23  2  0
 23 24  1  0
 24 25  2  0
 25 26  1  0
 26 27  2  0
 27 28  1  0
 28 29  2  0
 29 30  1  0
 30 31  2  0
 11  7  1  0
 21 12  1  0
 31 22  1  0
 30 25  1  0
  3 32  1  0
  4 33  1  0
  4 34  1  0
  8 35  1  0
  8 36  1  0
  9 37  1  0
  9 38  1  0
 10 39  1  0
 10 40  1  0
 11 41  1  1
 13 42  1  0
 14 43  1  0
 15 44  1  0
 21 45  1  0
 23 46  1  0
 24 47  1  0
 26 48  1  0
 27 49  1  0
 28 50  1  0
 29 51  1  0
M  END
>  <smiles>  (91) 
O=C(NCC(=O)N1CCCC1c1cccc(C(F)(F)F)c1)c1ccc2ccccc2n1

>  <score_type>  (91) 
oracle

>  <origin>  (91) 
autodockgpu

>  <m_score__min__energy>  (91) 
-9.1500000000000004

>  <m_primary>  (91) 
energy

>  <rmsd>  (91) 
1.7130456909196974

>  <m_score__min__rmsd>  (91) 
1.7130456909196974

>  <meeko>  (91) 
{"free_energy": -8.8, "intermolecular_energy": -10.59, "internal_energy": -1.96, "cluster_size": 27, "cluster_id": 2, "rank_in_cluster": 16}

>  <energy>  (91) 
-8.07

>  <cluster_rmsd>  (91) 
1.35

>  <cluster>  (91) 
3

$$$$

     RDKit          3D

 51 54  0  0  0  0  0  0  0  0999 V2000
  140.5440   71.5100  221.2650 O   0  0  0  0  0  0  0  0  0  0  0  0
  140.2010   72.0880  222.3400 C   0  0  0  0  0  0  0  0  0  0  0  0
  139.8570   73.4640  222.3390 N   0  0  0  0  0  0  0  0  0  0  0  0
  139.8790   74.2660  221.1340 C   0  0  0  0  0  0  0  0  0  0  0  0
  139.9880   75.7090  221.5090 C   0  0  0  0  0  0  0  0  0  0  0  0
  139.6570   76.0860  222.6810 O   0  0  0  0  0  0  0  0  0  0  0  0
  140.4520   76.6890  220.5980 N   0  0  0  0  0  0  0  0  0  0  0  0
  139.8360   76.9340  219.3130 C   0  0  0  0  0  0  0  0  0  0  0  0
  141.0330   77.4330  218.5270 C   0  0  0  0  0  0  0  0  0  0  0  0
  141.9110   78.1400  219.5240 C   0  0  0  0  0  0  0  0  0  0  0  0
  141.5780   77.5470  220.8430 C   0  0  1  0  0  0  0  0  0  0  0  0
  141.2870   78.5700  221.8840 C   0  0  0  0  0  0  0  0  0  0  0  0
  142.3460   79.1250  222.5470 C   0  0  0  0  0  0  0  0  0  0  0  0
  142.2060   80.0800  223.5300 C   0  0  0  0  0  0  0  0  0  0  0  0
  140.9190   80.4750  223.8370 C   0  0  0  0  0  0  0  0  0  0  0  0
  139.8370   79.9120  223.1630 C   0  0  0  0  0  0  0  0  0  0  0  0
  138.4900   80.4030  223.5660 C   0  0  0  0  0  0  0  0  0  0  0  0
  137.5190   79.5560  223.1170 F   0  0  0  0  0  0  0  0  0  0  0  0
  138.3230   81.6370  222.9570 F   0  0  0  0  0  0  0  0  0  0  0  0
  138.4500   80.5250  224.9310 F   0  0  0  0  0  0  0  0  0  0  0  0
  140.0160   78.9510  222.1780 C   0  0  0  0  0  0  0  0  0  0  0  0
  140.1510   71.3590  223.5950 C   0  0  0  0  0  0  0  0  0  0  0  0
  139.6320   70.0920  223.6280 C   0  0  0  0  0  0  0  0  0  0  0  0
  139.5690   69.3720  224.7980 C   0  0  0  0  0  0  0  0  0  0  0  0
  140.0470   69.9500  225.9740 C   0  0  0  0  0  0  0  0  0  0  0  0
  140.0000   69.2590  227.1670 C   0  0  0  0  0  0  0  0  0  0  0  0
  140.4880   69.8710  228.3230 C   0  0  0  0  0  0  0  0  0  0  0  0
  141.0070   71.1460  228.2700 C   0  0  0  0  0  0  0  0  0  0  0  0
  141.0480   71.8340  227.0660 C   0  0  0  0  0  0  0  0  0  0  0  0
  140.5680   71.2330  225.9150 C   0  0  0  0  0  0  0  0  0  0  0  0
  140.6050   71.8890  224.7510 N   0  0  0  0  0  0  0  0  0  0  0  0
  139.5760   73.9090  223.2550 H   0  0  0  0  0  0  0  0  0  0  0  0
  140.7431   73.9795  220.5166 H   0  0  0  0  0  0  0  0  0  0  0  0
  138.9543   74.1006  220.5617 H   0  0  0  0  0  0  0  0  0  0  0  0
  139.4201   76.0127  218.8792 H   0  0  0  0  0  0  0  0  0  0  0  0
  138.9813   77.6260  219.3375 H   0  0  0  0  0  0  0  0  0  0  0  0
  141.5721   76.5887  218.0725 H   0  0  0  0  0  0  0  0  0  0  0  0
  140.7299   78.1018  217.7079 H   0  0  0  0  0  0  0  0  0  0  0  0
  142.9721   77.9746  219.2859 H   0  0  0  0  0  0  0  0  0  0  0  0
  141.7438   79.2272  219.5135 H   0  0  0  0  0  0  0  0  0  0  0  0
  142.4348   76.9911  221.2514 H   0  0  0  0  0  0  0  0  0  0  0  0
  143.3606   78.7924  222.2823 H   0  0  0  0  0  0  0  0  0  0  0  0
  143.0783   80.5077  224.0460 H   0  0  0  0  0  0  0  0  0  0  0  0
  140.7477   81.2345  224.6141 H   0  0  0  0  0  0  0  0  0  0  0  0
  139.1560   78.5113  221.6516 H   0  0  0  0  0  0  0  0  0  0  0  0
  139.2571   69.6401  222.6978 H   0  0  0  0  0  0  0  0  0  0  0  0
  139.1481   68.3558  224.8063 H   0  0  0  0  0  0  0  0  0  0  0  0
  139.5844   68.2413  227.2069 H   0  0  0  0  0  0  0  0  0  0  0  0
  140.4579   69.3321  229.2815 H   0  0  0  0  0  0  0  0  0  0  0  0
  141.3903   71.6202  229.1856 H   0  0  0  0  0  0  0  0  0  0  0  0
  141.4603   72.8530  227.0261 H   0  0  0  0  0  0  0  0  0  0  0  0
  1  2  2  0
  2  3  1  0
  3  4  1  0
  4  5  1  0
  5  6  2  0
  5  7  1  0
  7  8  1  0
  8  9  1  0
  9 10  1  0
 10 11  1  0
 11 12  1  0
 12 13  2  0
 13 14  1  0
 14 15  2  0
 15 16  1  0
 16 17  1  0
 17 18  1  0
 17 19  1  0
 17 20  1  0
 16 21  2  0
  2 22  1  0
 22 23  2  0
 23 24  1  0
 24 25  2  0
 25 26  1  0
 26 27  2  0
 27 28  1  0
 28 29  2  0
 29 30  1  0
 30 31  2  0
 11  7  1  0
 21 12  1  0
 31 22  1  0
 30 25  1  0
  3 32  1  0
  4 33  1  0
  4 34  1  0
  8 35  1  0
  8 36  1  0
  9 37  1  0
  9 38  1  0
 10 39  1  0
 10 40  1  0
 11 41  1  1
 13 42  1  0
 14 43  1  0
 15 44  1  0
 21 45  1  0
 23 46  1  0
 24 47  1  0
 26 48  1  0
 27 49  1  0
 28 50  1  0
 29 51  1  0
M  END
>  <smiles>  (92) 
O=C(NCC(=O)N1CCCC1c1cccc(C(F)(F)F)c1)c1ccc2ccccc2n1

>  <score_type>  (92) 
oracle

>  <origin>  (92) 
autodockgpu

>  <m_score__min__energy>  (92) 
-9.1500000000000004

>  <m_primary>  (92) 
energy

>  <rmsd>  (92) 
1.6194066728082073

>  <m_score__min__rmsd>  (92) 
1.6194066728082073

>  <meeko>  (92) 
{"free_energy": -8.81, "intermolecular_energy": -10.6, "internal_energy": -1.97, "cluster_size": 27, "cluster_id": 2, "rank_in_cluster": 15}

>  <energy>  (92) 
-8.0

>  <cluster_rmsd>  (92) 
1.27

>  <cluster>  (92) 
3

$$$$

     RDKit          3D

 51 54  0  0  0  0  0  0  0  0999 V2000
  133.8200   69.9700  226.3360 O   0  0  0  0  0  0  0  0  0  0  0  0
  133.8310   71.0630  225.6940 C   0  0  0  0  0  0  0  0  0  0  0  0
  134.3810   71.1250  224.3880 N   0  0  0  0  0  0  0  0  0  0  0  0
  134.9480   69.9650  223.7330 C   0  0  0  0  0  0  0  0  0  0  0  0
  136.2980   69.6870  224.3140 C   0  0  0  0  0  0  0  0  0  0  0  0
  136.4060   68.9180  225.3250 O   0  0  0  0  0  0  0  0  0  0  0  0
  137.4790   70.2540  223.7750 N   0  0  0  0  0  0  0  0  0  0  0  0
  137.5200   71.5550  223.1460 C   0  0  0  0  0  0  0  0  0  0  0  0
  138.6640   71.3520  222.1730 C   0  0  0  0  0  0  0  0  0  0  0  0
  139.5980   70.3750  222.8350 C   0  0  0  0  0  0  0  0  0  0  0  0
  138.7610   69.6070  223.7910 C   0  0  1  0  0  0  0  0  0  0  0  0
  139.3440   69.5510  225.1590 C   0  0  0  0  0  0  0  0  0  0  0  0
  139.3170   68.3530  225.8160 C   0  0  0  0  0  0  0  0  0  0  0  0
  139.8240   68.1750  227.0840 C   0  0  0  0  0  0  0  0  0  0  0  0
  140.3800   69.2820  227.6950 C   0  0  0  0  0  0  0  0  0  0  0  0
  140.4100   70.5050  227.0290 C   0  0  0  0  0  0  0  0  0  0  0  0
  141.0300   71.6370  227.7700 C   0  0  0  0  0  0  0  0  0  0  0  0
  140.0670   72.4770  228.2510 F   0  0  0  0  0  0  0  0  0  0  0  0
  141.8090   72.3280  226.8540 F   0  0  0  0  0  0  0  0  0  0  0  0
  141.8030   71.1350  228.7850 F   0  0  0  0  0  0  0  0  0  0  0  0
  139.8890   70.6480  225.7500 C   0  0  0  0  0  0  0  0  0  0  0  0
  133.2820   72.2740  226.2760 C   0  0  0  0  0  0  0  0  0  0  0  0
  132.1650   72.2070  227.0660 C   0  0  0  0  0  0  0  0  0  0  0  0
  131.6180   73.3340  227.6340 C   0  0  0  0  0  0  0  0  0  0  0  0
  132.2190   74.5700  227.3980 C   0  0  0  0  0  0  0  0  0  0  0  0
  131.6990   75.7220  227.9510 C   0  0  0  0  0  0  0  0  0  0  0  0
  132.3300   76.9400  227.6910 C   0  0  0  0  0  0  0  0  0  0  0  0
  133.4530   76.9880  226.8950 C   0  0  0  0  0  0  0  0  0  0  0  0
  133.9680   75.8240  226.3440 C   0  0  0  0  0  0  0  0  0  0  0  0
  133.3490   74.6120  226.5970 C   0  0  0  0  0  0  0  0  0  0  0  0
  133.8400   73.4860  226.0690 N   0  0  0  0  0  0  0  0  0  0  0  0
  134.3710   72.0540  223.8860 H   0  0  0  0  0  0  0  0  0  0  0  0
  134.2928   69.0957  223.8909 H   0  0  0  0  0  0  0  0  0  0  0  0
  135.0409   70.1568  222.6538 H   0  0  0  0  0  0  0  0  0  0  0  0
  136.5789   71.7845  222.6249 H   0  0  0  0  0  0  0  0  0  0  0  0
  137.6518   72.3975  223.8409 H   0  0  0  0  0  0  0  0  0  0  0  0
  138.2906   70.9414  221.2233 H   0  0  0  0  0  0  0  0  0  0  0  0
  139.1698   72.3006  221.9397 H   0  0  0  0  0  0  0  0  0  0  0  0
  140.0425   69.7018  222.0872 H   0  0  0  0  0  0  0  0  0  0  0  0
  140.4294   70.8866  223.3420 H   0  0  0  0  0  0  0  0  0  0  0  0
  138.6897   68.5511  223.4910 H   0  0  0  0  0  0  0  0  0  0  0  0
  138.8679   67.4877  225.3066 H   0  0  0  0  0  0  0  0  0  0  0  0
  139.7879   67.1972  227.5866 H   0  0  0  0  0  0  0  0  0  0  0  0
  140.7994   69.1977  228.7084 H   0  0  0  0  0  0  0  0  0  0  0  0
  139.9162   71.6176  225.2312 H   0  0  0  0  0  0  0  0  0  0  0  0
  131.6948   71.2298  227.2503 H   0  0  0  0  0  0  0  0  0  0  0  0
  130.7199   73.2614  228.2650 H   0  0  0  0  0  0  0  0  0  0  0  0
  130.8020   75.6816  228.5864 H   0  0  0  0  0  0  0  0  0  0  0  0
  131.9276   77.8674  228.1247 H   0  0  0  0  0  0  0  0  0  0  0  0
  133.9430   77.9525  226.6957 H   0  0  0  0  0  0  0  0  0  0  0  0
  134.8649   75.8638  225.7084 H   0  0  0  0  0  0  0  0  0  0  0  0
  1  2  2  0
  2  3  1  0
  3  4  1  0
  4  5  1  0
  5  6  2  0
  5  7  1  0
  7  8  1  0
  8  9  1  0
  9 10  1  0
 10 11  1  0
 11 12  1  0
 12 13  2  0
 13 14  1  0
 14 15  2  0
 15 16  1  0
 16 17  1  0
 17 18  1  0
 17 19  1  0
 17 20  1  0
 16 21  2  0
  2 22  1  0
 22 23  2  0
 23 24  1  0
 24 25  2  0
 25 26  1  0
 26 27  2  0
 27 28  1  0
 28 29  2  0
 29 30  1  0
 30 31  2  0
 11  7  1  0
 21 12  1  0
 31 22  1  0
 30 25  1  0
  3 32  1  0
  4 33  1  0
  4 34  1  0
  8 35  1  0
  8 36  1  0
  9 37  1  0
  9 38  1  0
 10 39  1  0
 10 40  1  0
 11 41  1  6
 13 42  1  0
 14 43  1  0
 15 44  1  0
 21 45  1  0
 23 46  1  0
 24 47  1  0
 26 48  1  0
 27 49  1  0
 28 50  1  0
 29 51  1  0
M  END
>  <smiles>  (93) 
O=C(NCC(=O)N1CCCC1c1cccc(C(F)(F)F)c1)c1ccc2ccccc2n1

>  <score_type>  (93) 
oracle

>  <origin>  (93) 
autodockgpu

>  <m_score__min__energy>  (93) 
-9.1500000000000004

>  <m_primary>  (93) 
energy

>  <rmsd>  (93) 
8.102924350390184

>  <m_score__min__rmsd>  (93) 
8.102924350390184

>  <meeko>  (93) 
{"free_energy": -8.23, "intermolecular_energy": -10.02, "internal_energy": -1.62, "cluster_size": 1, "cluster_id": 5, "rank_in_cluster": 1}

>  <energy>  (93) 
-7.84

>  <cluster_rmsd>  (93) 
1.4

>  <cluster>  (93) 
3

$$$$

     RDKit          3D

 51 54  0  0  0  0  0  0  0  0999 V2000
  140.8030   71.5480  221.3160 O   0  0  0  0  0  0  0  0  0  0  0  0
  140.3500   72.1180  222.3540 C   0  0  0  0  0  0  0  0  0  0  0  0
  139.9620   73.4810  222.3150 N   0  0  0  0  0  0  0  0  0  0  0  0
  140.0610   74.2790  221.1110 C   0  0  0  0  0  0  0  0  0  0  0  0
  140.0900   75.7270  221.4850 C   0  0  0  0  0  0  0  0  0  0  0  0
  139.7250   76.0870  222.6520 O   0  0  0  0  0  0  0  0  0  0  0  0
  140.5150   76.7280  220.5780 N   0  0  0  0  0  0  0  0  0  0  0  0
  139.8730   76.9730  219.3070 C   0  0  0  0  0  0  0  0  0  0  0  0
  141.0440   77.5100  218.5080 C   0  0  0  0  0  0  0  0  0  0  0  0
  141.9210   78.2270  219.4990 C   0  0  0  0  0  0  0  0  0  0  0  0
  141.6230   77.6100  220.8160 C   0  0  1  0  0  0  0  0  0  0  0  0
  141.3250   78.6140  221.8730 C   0  0  0  0  0  0  0  0  0  0  0  0
  142.3790   79.1660  222.5450 C   0  0  0  0  0  0  0  0  0  0  0  0
  142.2320   80.1040  223.5440 C   0  0  0  0  0  0  0  0  0  0  0  0
  140.9420   80.4840  223.8580 C   0  0  0  0  0  0  0  0  0  0  0  0
  139.8640   79.9230  223.1750 C   0  0  0  0  0  0  0  0  0  0  0  0
  138.5140   80.3960  223.5860 C   0  0  0  0  0  0  0  0  0  0  0  0
  138.4340   80.4900  224.9450 F   0  0  0  0  0  0  0  0  0  0  0  0
  137.6110   79.4380  223.1500 F   0  0  0  0  0  0  0  0  0  0  0  0
  138.2650   81.6060  222.9890 F   0  0  0  0  0  0  0  0  0  0  0  0
  140.0500   78.9800  222.1740 C   0  0  0  0  0  0  0  0  0  0  0  0
  140.2170   71.3910  223.6040 C   0  0  0  0  0  0  0  0  0  0  0  0
  139.6020   70.1670  223.6210 C   0  0  0  0  0  0  0  0  0  0  0  0
  139.4590   69.4510  224.7860 C   0  0  0  0  0  0  0  0  0  0  0  0
  139.9520   69.9880  225.9750 C   0  0  0  0  0  0  0  0  0  0  0  0
  139.8270   69.3000  227.1630 C   0  0  0  0  0  0  0  0  0  0  0  0
  140.3340   69.8710  228.3320 C   0  0  0  0  0  0  0  0  0  0  0  0
  140.9490   71.1030  228.2960 C   0  0  0  0  0  0  0  0  0  0  0  0
  141.0700   71.7880  227.0960 C   0  0  0  0  0  0  0  0  0  0  0  0
  140.5710   71.2280  225.9330 C   0  0  0  0  0  0  0  0  0  0  0  0
  140.6840   71.8820  224.7720 N   0  0  0  0  0  0  0  0  0  0  0  0
  139.5890   73.9200  223.2010 H   0  0  0  0  0  0  0  0  0  0  0  0
  140.9839   74.0192  220.5717 H   0  0  0  0  0  0  0  0  0  0  0  0
  139.1948   74.0808  220.4626 H   0  0  0  0  0  0  0  0  0  0  0  0
  139.4723   76.0470  218.8688 H   0  0  0  0  0  0  0  0  0  0  0  0
  139.0025   77.6439  219.3538 H   0  0  0  0  0  0  0  0  0  0  0  0
  141.5959   76.6844  218.0349 H   0  0  0  0  0  0  0  0  0  0  0  0
  140.7112   78.1805  217.7020 H   0  0  0  0  0  0  0  0  0  0  0  0
  142.9818   78.0902  219.2422 H   0  0  0  0  0  0  0  0  0  0  0  0
  141.7282   79.3100  219.5041 H   0  0  0  0  0  0  0  0  0  0  0  0
  142.4985   77.0694  221.2048 H   0  0  0  0  0  0  0  0  0  0  0  0
  143.3961   78.8456  222.2750 H   0  0  0  0  0  0  0  0  0  0  0  0
  143.1012   80.5299  224.0666 H   0  0  0  0  0  0  0  0  0  0  0  0
  140.7651   81.2295  224.6472 H   0  0  0  0  0  0  0  0  0  0  0  0
  139.1933   78.5423  221.6407 H   0  0  0  0  0  0  0  0  0  0  0  0
  139.2138   69.7475  222.6812 H   0  0  0  0  0  0  0  0  0  0  0  0
  138.9631   68.4691  224.7804 H   0  0  0  0  0  0  0  0  0  0  0  0
  139.3354   68.3163  227.1896 H   0  0  0  0  0  0  0  0  0  0  0  0
  140.2417   69.3337  229.2874 H   0  0  0  0  0  0  0  0  0  0  0  0
  141.3455   71.5451  229.2220 H   0  0  0  0  0  0  0  0  0  0  0  0
  141.5605   72.7722  227.0689 H   0  0  0  0  0  0  0  0  0  0  0  0
  1  2  2  0
  2  3  1  0
  3  4  1  0
  4  5  1  0
  5  6  2  0
  5  7  1  0
  7  8  1  0
  8  9  1  0
  9 10  1  0
 10 11  1  0
 11 12  1  0
 12 13  2  0
 13 14  1  0
 14 15  2  0
 15 16  1  0
 16 17  1  0
 17 18  1  0
 17 19  1  0
 17 20  1  0
 16 21  2  0
  2 22  1  0
 22 23  2  0
 23 24  1  0
 24 25  2  0
 25 26  1  0
 26 27  2  0
 27 28  1  0
 28 29  2  0
 29 30  1  0
 30 31  2  0
 11  7  1  0
 21 12  1  0
 31 22  1  0
 30 25  1  0
  3 32  1  0
  4 33  1  0
  4 34  1  0
  8 35  1  0
  8 36  1  0
  9 37  1  0
  9 38  1  0
 10 39  1  0
 10 40  1  0
 11 41  1  1
 13 42  1  0
 14 43  1  0
 15 44  1  0
 21 45  1  0
 23 46  1  0
 24 47  1  0
 26 48  1  0
 27 49  1  0
 28 50  1  0
 29 51  1  0
M  END
>  <smiles>  (94) 
O=C(NCC(=O)N1CCCC1c1cccc(C(F)(F)F)c1)c1ccc2ccccc2n1

>  <score_type>  (94) 
oracle

>  <origin>  (94) 
autodockgpu

>  <m_score__min__energy>  (94) 
-9.1500000000000004

>  <m_primary>  (94) 
energy

>  <rmsd>  (94) 
1.6813113532483417

>  <m_score__min__rmsd>  (94) 
1.6813113532483417

>  <meeko>  (94) 
{"free_energy": -8.83, "intermolecular_energy": -10.62, "internal_energy": -1.95, "cluster_size": 27, "cluster_id": 2, "rank_in_cluster": 14}

>  <energy>  (94) 
-7.8

>  <cluster_rmsd>  (94) 
1.39

>  <cluster>  (94) 
3

$$$$

     RDKit          3D

 51 54  0  0  0  0  0  0  0  0999 V2000
  139.7610   70.8350  221.2990 O   0  0  0  0  0  0  0  0  0  0  0  0
  139.7310   71.4790  222.3910 C   0  0  0  0  0  0  0  0  0  0  0  0
  139.6040   72.8910  222.3910 N   0  0  0  0  0  0  0  0  0  0  0  0
  139.5050   73.6580  221.1670 C   0  0  0  0  0  0  0  0  0  0  0  0
  139.6470   75.1110  221.4880 C   0  0  0  0  0  0  0  0  0  0  0  0
  139.5030   75.5120  222.6890 O   0  0  0  0  0  0  0  0  0  0  0  0
  139.9420   76.0750  220.4920 N   0  0  0  0  0  0  0  0  0  0  0  0
  139.1540   76.2440  219.2930 C   0  0  0  0  0  0  0  0  0  0  0  0
  140.2130   76.7630  218.3410 C   0  0  0  0  0  0  0  0  0  0  0  0
  141.1790   77.5440  219.1900 C   0  0  0  0  0  0  0  0  0  0  0  0
  141.0480   76.9880  220.5590 C   0  0  1  0  0  0  0  0  0  0  0  0
  140.8480   78.0370  221.5960 C   0  0  0  0  0  0  0  0  0  0  0  0
  139.5930   78.1910  222.1140 C   0  0  0  0  0  0  0  0  0  0  0  0
  139.2820   79.1260  223.0770 C   0  0  0  0  0  0  0  0  0  0  0  0
  140.3120   79.9320  223.5190 C   0  0  0  0  0  0  0  0  0  0  0  0
  141.5930   79.7790  222.9930 C   0  0  0  0  0  0  0  0  0  0  0  0
  142.6350   80.6940  223.5340 C   0  0  0  0  0  0  0  0  0  0  0  0
  142.2040   81.9880  223.4860 F   0  0  0  0  0  0  0  0  0  0  0  0
  143.7420   80.5610  222.7100 F   0  0  0  0  0  0  0  0  0  0  0  0
  142.9360   80.3180  224.8180 F   0  0  0  0  0  0  0  0  0  0  0  0
  141.8700   78.8250  222.0230 C   0  0  0  0  0  0  0  0  0  0  0  0
  139.8260   70.7880  223.6650 C   0  0  0  0  0  0  0  0  0  0  0  0
  139.4250   69.4820  223.7660 C   0  0  0  0  0  0  0  0  0  0  0  0
  139.5010   68.7970  224.9560 C   0  0  0  0  0  0  0  0  0  0  0  0
  139.9970   69.4520  226.0820 C   0  0  0  0  0  0  0  0  0  0  0  0
  140.0880   68.7980  227.2940 C   0  0  0  0  0  0  0  0  0  0  0  0
  140.5910   69.4880  228.3980 C   0  0  0  0  0  0  0  0  0  0  0  0
  140.9890   70.8010  228.2780 C   0  0  0  0  0  0  0  0  0  0  0  0
  140.8940   71.4500  227.0560 C   0  0  0  0  0  0  0  0  0  0  0  0
  140.3970   70.7730  225.9560 C   0  0  0  0  0  0  0  0  0  0  0  0
  140.3020   71.3920  224.7750 N   0  0  0  0  0  0  0  0  0  0  0  0
  139.5840   73.3910  223.3210 H   0  0  0  0  0  0  0  0  0  0  0  0
  140.3047   73.3535  220.4757 H   0  0  0  0  0  0  0  0  0  0  0  0
  138.5288   73.4765  220.6937 H   0  0  0  0  0  0  0  0  0  0  0  0
  138.7293   75.2898  218.9477 H   0  0  0  0  0  0  0  0  0  0  0  0
  138.2780   76.8994  219.4074 H   0  0  0  0  0  0  0  0  0  0  0  0
  140.7275   75.9257  217.8468 H   0  0  0  0  0  0  0  0  0  0  0  0
  139.7745   77.3867  217.5481 H   0  0  0  0  0  0  0  0  0  0  0  0
  142.2068   77.4146  218.8199 H   0  0  0  0  0  0  0  0  0  0  0  0
  140.9616   78.6220  219.1664 H   0  0  0  0  0  0  0  0  0  0  0  0
  141.9754   76.4841  220.8690 H   0  0  0  0  0  0  0  0  0  0  0  0
  138.7909   77.5357  221.7436 H   0  0  0  0  0  0  0  0  0  0  0  0
  138.2613   79.2256  223.4748 H   0  0  0  0  0  0  0  0  0  0  0  0
  140.1211   80.6958  224.2872 H   0  0  0  0  0  0  0  0  0  0  0  0
  142.8843   78.7105  221.6130 H   0  0  0  0  0  0  0  0  0  0  0  0
  139.0333   68.9696  222.8749 H   0  0  0  0  0  0  0  0  0  0  0  0
  139.1754   67.7482  225.0183 H   0  0  0  0  0  0  0  0  0  0  0  0
  139.7691   67.7495  227.3884 H   0  0  0  0  0  0  0  0  0  0  0  0
  140.6701   68.9798  229.3703 H   0  0  0  0  0  0  0  0  0  0  0  0
  141.3834   71.3366  229.1541 H   0  0  0  0  0  0  0  0  0  0  0  0
  141.2124   72.4987  226.9615 H   0  0  0  0  0  0  0  0  0  0  0  0
  1  2  2  0
  2  3  1  0
  3  4  1  0
  4  5  1  0
  5  6  2  0
  5  7  1  0
  7  8  1  0
  8  9  1  0
  9 10  1  0
 10 11  1  0
 11 12  1  0
 12 13  2  0
 13 14  1  0
 14 15  2  0
 15 16  1  0
 16 17  1  0
 17 18  1  0
 17 19  1  0
 17 20  1  0
 16 21  2  0
  2 22  1  0
 22 23  2  0
 23 24  1  0
 24 25  2  0
 25 26  1  0
 26 27  2  0
 27 28  1  0
 28 29  2  0
 29 30  1  0
 30 31  2  0
 11  7  1  0
 21 12  1  0
 31 22  1  0
 30 25  1  0
  3 32  1  0
  4 33  1  0
  4 34  1  0
  8 35  1  0
  8 36  1  0
  9 37  1  0
  9 38  1  0
 10 39  1  0
 10 40  1  0
 11 41  1  1
 13 42  1  0
 14 43  1  0
 15 44  1  0
 21 45  1  0
 23 46  1  0
 24 47  1  0
 26 48  1  0
 27 49  1  0
 28 50  1  0
 29 51  1  0
M  END
>  <smiles>  (95) 
O=C(NCC(=O)N1CCCC1c1cccc(C(F)(F)F)c1)c1ccc2ccccc2n1

>  <score_type>  (95) 
oracle

>  <origin>  (95) 
autodockgpu

>  <m_score__min__energy>  (95) 
-9.1500000000000004

>  <m_primary>  (95) 
energy

>  <rmsd>  (95) 
1.1232581099245234

>  <m_score__min__rmsd>  (95) 
1.1232581099245234

>  <meeko>  (95) 
{"free_energy": -8.32, "intermolecular_energy": -10.11, "internal_energy": -1.93, "cluster_size": 27, "cluster_id": 2, "rank_in_cluster": 25}

>  <energy>  (95) 
-8.42

>  <cluster_rmsd>  (95) 
0.0

>  <cluster>  (95) 
4

$$$$

     RDKit          3D

 51 54  0  0  0  0  0  0  0  0999 V2000
  140.1780   71.4250  221.1970 O   0  0  0  0  0  0  0  0  0  0  0  0
  139.9820   72.0350  222.2910 C   0  0  0  0  0  0  0  0  0  0  0  0
  139.7270   73.4300  222.3010 N   0  0  0  0  0  0  0  0  0  0  0  0
  139.6780   74.2150  221.0860 C   0  0  0  0  0  0  0  0  0  0  0  0
  139.7820   75.6650  221.4360 C   0  0  0  0  0  0  0  0  0  0  0  0
  139.3350   76.0800  222.5550 O   0  0  0  0  0  0  0  0  0  0  0  0
  140.3690   76.6100  220.5590 N   0  0  0  0  0  0  0  0  0  0  0  0
  139.8630   76.8850  219.2340 C   0  0  0  0  0  0  0  0  0  0  0  0
  141.1400   77.3050  218.5340 C   0  0  0  0  0  0  0  0  0  0  0  0
  141.9880   77.9620  219.5900 C   0  0  0  0  0  0  0  0  0  0  0  0
  141.5260   77.3980  220.8820 C   0  0  1  0  0  0  0  0  0  0  0  0
  141.2270   78.4420  221.8990 C   0  0  0  0  0  0  0  0  0  0  0  0
  142.2800   79.0220  222.5480 C   0  0  0  0  0  0  0  0  0  0  0  0
  142.1320   79.9990  223.5080 C   0  0  0  0  0  0  0  0  0  0  0  0
  140.8410   80.3890  223.8070 C   0  0  0  0  0  0  0  0  0  0  0  0
  139.7640   79.8010  223.1480 C   0  0  0  0  0  0  0  0  0  0  0  0
  138.4140   80.2880  223.5400 C   0  0  0  0  0  0  0  0  0  0  0  0
  138.3620   80.5220  224.8830 F   0  0  0  0  0  0  0  0  0  0  0  0
  137.5230   79.2730  223.2280 F   0  0  0  0  0  0  0  0  0  0  0  0
  138.1250   81.4230  222.8260 F   0  0  0  0  0  0  0  0  0  0  0  0
  139.9520   78.8180  222.1850 C   0  0  0  0  0  0  0  0  0  0  0  0
  140.0130   71.3240  223.5560 C   0  0  0  0  0  0  0  0  0  0  0  0
  139.5510   70.0370  223.6280 C   0  0  0  0  0  0  0  0  0  0  0  0
  139.5650   69.3330  224.8100 C   0  0  0  0  0  0  0  0  0  0  0  0
  140.0640   69.9480  225.9570 C   0  0  0  0  0  0  0  0  0  0  0  0
  140.0950   69.2750  227.1600 C   0  0  0  0  0  0  0  0  0  0  0  0
  140.6020   69.9250  228.2870 C   0  0  0  0  0  0  0  0  0  0  0  0
  141.0640   71.2200  228.1950 C   0  0  0  0  0  0  0  0  0  0  0  0
  141.0280   71.8890  226.9810 C   0  0  0  0  0  0  0  0  0  0  0  0
  140.5280   71.2510  225.8600 C   0  0  0  0  0  0  0  0  0  0  0  0
  140.4900   71.8900  224.6860 N   0  0  0  0  0  0  0  0  0  0  0  0
  139.5690   73.9020  223.2320 H   0  0  0  0  0  0  0  0  0  0  0  0
  140.5157   73.9331  220.4312 H   0  0  0  0  0  0  0  0  0  0  0  0
  138.7295   74.0274  220.5615 H   0  0  0  0  0  0  0  0  0  0  0  0
  139.4229   75.9885  218.7729 H   0  0  0  0  0  0  0  0  0  0  0  0
  139.0534   77.6288  219.1971 H   0  0  0  0  0  0  0  0  0  0  0  0
  141.6565   76.4267  218.1193 H   0  0  0  0  0  0  0  0  0  0  0  0
  140.9370   77.9868  217.6950 H   0  0  0  0  0  0  0  0  0  0  0  0
  143.0509   77.7297  219.4280 H   0  0  0  0  0  0  0  0  0  0  0  0
  141.8905   79.0574  219.5664 H   0  0  0  0  0  0  0  0  0  0  0  0
  142.3156   76.7920  221.3503 H   0  0  0  0  0  0  0  0  0  0  0  0
  143.2975   78.6923  222.2911 H   0  0  0  0  0  0  0  0  0  0  0  0
  143.0007   80.4473  224.0125 H   0  0  0  0  0  0  0  0  0  0  0  0
  140.6634   81.1648  224.5664 H   0  0  0  0  0  0  0  0  0  0  0  0
  139.0960   78.3579  221.6697 H   0  0  0  0  0  0  0  0  0  0  0  0
  139.1597   69.5549  222.7200 H   0  0  0  0  0  0  0  0  0  0  0  0
  139.1881   68.3003  224.8492 H   0  0  0  0  0  0  0  0  0  0  0  0
  139.7258   68.2413  227.2309 H   0  0  0  0  0  0  0  0  0  0  0  0
  140.6328   69.4005  229.2534 H   0  0  0  0  0  0  0  0  0  0  0  0
  141.4626   71.7246  229.0875 H   0  0  0  0  0  0  0  0  0  0  0  0
  141.3957   72.9233  226.9096 H   0  0  0  0  0  0  0  0  0  0  0  0
  1  2  2  0
  2  3  1  0
  3  4  1  0
  4  5  1  0
  5  6  2  0
  5  7  1  0
  7  8  1  0
  8  9  1  0
  9 10  1  0
 10 11  1  0
 11 12  1  0
 12 13  2  0
 13 14  1  0
 14 15  2  0
 15 16  1  0
 16 17  1  0
 17 18  1  0
 17 19  1  0
 17 20  1  0
 16 21  2  0
  2 22  1  0
 22 23  2  0
 23 24  1  0
 24 25  2  0
 25 26  1  0
 26 27  2  0
 27 28  1  0
 28 29  2  0
 29 30  1  0
 30 31  2  0
 11  7  1  0
 21 12  1  0
 31 22  1  0
 30 25  1  0
  3 32  1  0
  4 33  1  0
  4 34  1  0
  8 35  1  0
  8 36  1  0
  9 37  1  0
  9 38  1  0
 10 39  1  0
 10 40  1  0
 11 41  1  1
 13 42  1  0
 14 43  1  0
 15 44  1  0
 21 45  1  0
 23 46  1  0
 24 47  1  0
 26 48  1  0
 27 49  1  0
 28 50  1  0
 29 51  1  0
M  END
>  <smiles>  (96) 
O=C(NCC(=O)N1CCCC1c1cccc(C(F)(F)F)c1)c1ccc2ccccc2n1

>  <score_type>  (96) 
oracle

>  <origin>  (96) 
autodockgpu

>  <m_score__min__energy>  (96) 
-9.1500000000000004

>  <m_primary>  (96) 
energy

>  <rmsd>  (96) 
1.5603285384417684

>  <m_score__min__rmsd>  (96) 
1.5603285384417684

>  <meeko>  (96) 
{"free_energy": -8.68, "intermolecular_energy": -10.47, "internal_energy": -1.92, "cluster_size": 27, "cluster_id": 2, "rank_in_cluster": 17}

>  <energy>  (96) 
-8.41

>  <cluster_rmsd>  (96) 
0.05

>  <cluster>  (96) 
4

$$$$

     RDKit          3D

 51 54  0  0  0  0  0  0  0  0999 V2000
  140.9080   71.5810  221.3640 O   0  0  0  0  0  0  0  0  0  0  0  0
  140.3980   72.1390  222.3820 C   0  0  0  0  0  0  0  0  0  0  0  0
  139.9890   73.4960  222.3290 N   0  0  0  0  0  0  0  0  0  0  0  0
  140.1300   74.3000  221.1340 C   0  0  0  0  0  0  0  0  0  0  0  0
  140.2200   75.7410  221.5220 C   0  0  0  0  0  0  0  0  0  0  0  0
  139.9480   76.0940  222.7160 O   0  0  0  0  0  0  0  0  0  0  0  0
  140.6030   76.7450  220.5980 N   0  0  0  0  0  0  0  0  0  0  0  0
  139.9380   76.9540  219.3320 C   0  0  0  0  0  0  0  0  0  0  0  0
  141.0820   77.5190  218.5130 C   0  0  0  0  0  0  0  0  0  0  0  0
  141.9480   78.2740  219.4850 C   0  0  0  0  0  0  0  0  0  0  0  0
  141.6860   77.6640  220.8120 C   0  0  1  0  0  0  0  0  0  0  0  0
  141.3700   78.6700  221.8620 C   0  0  0  0  0  0  0  0  0  0  0  0
  142.4140   79.2560  222.5200 C   0  0  0  0  0  0  0  0  0  0  0  0
  142.2500   80.1990  223.5110 C   0  0  0  0  0  0  0  0  0  0  0  0
  140.9520   80.5490  223.8300 C   0  0  0  0  0  0  0  0  0  0  0  0
  139.8840   79.9540  223.1610 C   0  0  0  0  0  0  0  0  0  0  0  0
  138.5250   80.3960  223.5770 C   0  0  0  0  0  0  0  0  0  0  0  0
  138.4680   80.5510  224.9320 F   0  0  0  0  0  0  0  0  0  0  0  0
  137.6510   79.3860  223.2050 F   0  0  0  0  0  0  0  0  0  0  0  0
  138.2200   81.5660  222.9300 F   0  0  0  0  0  0  0  0  0  0  0  0
  140.0880   79.0050  222.1680 C   0  0  0  0  0  0  0  0  0  0  0  0
  140.2200   71.4060  223.6230 C   0  0  0  0  0  0  0  0  0  0  0  0
  139.5910   70.1900  223.6130 C   0  0  0  0  0  0  0  0  0  0  0  0
  139.4050   69.4680  224.7690 C   0  0  0  0  0  0  0  0  0  0  0  0
  139.8710   69.9900  225.9750 C   0  0  0  0  0  0  0  0  0  0  0  0
  139.7040   69.2960  227.1540 C   0  0  0  0  0  0  0  0  0  0  0  0
  140.1850   69.8520  228.3410 C   0  0  0  0  0  0  0  0  0  0  0  0
  140.8160   71.0760  228.3310 C   0  0  0  0  0  0  0  0  0  0  0  0
  140.9790   71.7680  227.1400 C   0  0  0  0  0  0  0  0  0  0  0  0
  140.5060   71.2230  225.9590 C   0  0  0  0  0  0  0  0  0  0  0  0
  140.6600   71.8830  224.8070 N   0  0  0  0  0  0  0  0  0  0  0  0
  139.5690   73.9250  223.1980 H   0  0  0  0  0  0  0  0  0  0  0  0
  141.0439   74.0052  220.5974 H   0  0  0  0  0  0  0  0  0  0  0  0
  139.2599   74.1462  220.4789 H   0  0  0  0  0  0  0  0  0  0  0  0
  139.5624   76.0105  218.9093 H   0  0  0  0  0  0  0  0  0  0  0  0
  139.0467   77.5968  219.3815 H   0  0  0  0  0  0  0  0  0  0  0  0
  141.6539   76.7060  218.0418 H   0  0  0  0  0  0  0  0  0  0  0  0
  140.7183   78.1700  217.7044 H   0  0  0  0  0  0  0  0  0  0  0  0
  143.0094   78.1673  219.2164 H   0  0  0  0  0  0  0  0  0  0  0  0
  141.7211   79.3503  219.4805 H   0  0  0  0  0  0  0  0  0  0  0  0
  142.5831   77.1559  221.1956 H   0  0  0  0  0  0  0  0  0  0  0  0
  143.4371   78.9601  222.2448 H   0  0  0  0  0  0  0  0  0  0  0  0
  143.1114   80.6517  224.0238 H   0  0  0  0  0  0  0  0  0  0  0  0
  140.7614   81.2980  224.6128 H   0  0  0  0  0  0  0  0  0  0  0  0
  139.2396   78.5390  221.6455 H   0  0  0  0  0  0  0  0  0  0  0  0
  139.2262   69.7812  222.6592 H   0  0  0  0  0  0  0  0  0  0  0  0
  138.8961   68.4932  224.7424 H   0  0  0  0  0  0  0  0  0  0  0  0
  139.1993   68.3186  227.1597 H   0  0  0  0  0  0  0  0  0  0  0  0
  140.0592   69.3093  229.2895 H   0  0  0  0  0  0  0  0  0  0  0  0
  141.1921   71.5064  229.2708 H   0  0  0  0  0  0  0  0  0  0  0  0
  141.4822   72.7461  227.1341 H   0  0  0  0  0  0  0  0  0  0  0  0
  1  2  2  0
  2  3  1  0
  3  4  1  0
  4  5  1  0
  5  6  2  0
  5  7  1  0
  7  8  1  0
  8  9  1  0
  9 10  1  0
 10 11  1  0
 11 12  1  0
 12 13  2  0
 13 14  1  0
 14 15  2  0
 15 16  1  0
 16 17  1  0
 17 18  1  0
 17 19  1  0
 17 20  1  0
 16 21  2  0
  2 22  1  0
 22 23  2  0
 23 24  1  0
 24 25  2  0
 25 26  1  0
 26 27  2  0
 27 28  1  0
 28 29  2  0
 29 30  1  0
 30 31  2  0
 11  7  1  0
 21 12  1  0
 31 22  1  0
 30 25  1  0
  3 32  1  0
  4 33  1  0
  4 34  1  0
  8 35  1  0
  8 36  1  0
  9 37  1  0
  9 38  1  0
 10 39  1  0
 10 40  1  0
 11 41  1  1
 13 42  1  0
 14 43  1  0
 15 44  1  0
 21 45  1  0
 23 46  1  0
 24 47  1  0
 26 48  1  0
 27 49  1  0
 28 50  1  0
 29 51  1  0
M  END
>  <smiles>  (97) 
O=C(NCC(=O)N1CCCC1c1cccc(C(F)(F)F)c1)c1ccc2ccccc2n1

>  <score_type>  (97) 
oracle

>  <origin>  (97) 
autodockgpu

>  <m_score__min__energy>  (97) 
-9.1500000000000004

>  <m_primary>  (97) 
energy

>  <rmsd>  (97) 
1.7077727857625375

>  <m_score__min__rmsd>  (97) 
1.7077727857625375

>  <meeko>  (97) 
{"free_energy": -8.88, "intermolecular_energy": -10.67, "internal_energy": -1.93, "cluster_size": 27, "cluster_id": 2, "rank_in_cluster": 3}

>  <energy>  (97) 
-8.23

>  <cluster_rmsd>  (97) 
0.0

>  <cluster>  (97) 
5

$$$$

     RDKit          3D

 51 54  0  0  0  0  0  0  0  0999 V2000
  140.8570   71.2010  221.2570 O   0  0  0  0  0  0  0  0  0  0  0  0
  140.4400   71.8490  222.2640 C   0  0  0  0  0  0  0  0  0  0  0  0
  140.1470   73.2330  222.1580 N   0  0  0  0  0  0  0  0  0  0  0  0
  140.3050   73.9640  220.9180 C   0  0  0  0  0  0  0  0  0  0  0  0
  140.8450   75.3250  221.2190 C   0  0  0  0  0  0  0  0  0  0  0  0
  140.5150   75.9130  222.3010 O   0  0  0  0  0  0  0  0  0  0  0  0
  141.7240   75.9970  220.3340 N   0  0  0  0  0  0  0  0  0  0  0  0
  142.0710   77.3940  220.4680 C   0  0  0  0  0  0  0  0  0  0  0  0
  142.3470   77.7470  219.0200 C   0  0  0  0  0  0  0  0  0  0  0  0
  142.8880   76.4920  218.3890 C   0  0  0  0  0  0  0  0  0  0  0  0
  142.3670   75.3730  219.2120 C   0  0  1  0  0  0  0  0  0  0  0  0
  143.4290   74.4190  219.6330 C   0  0  0  0  0  0  0  0  0  0  0  0
  144.4570   74.9020  220.3930 C   0  0  0  0  0  0  0  0  0  0  0  0
  145.4980   74.1200  220.8430 C   0  0  0  0  0  0  0  0  0  0  0  0
  145.4710   72.7840  220.4920 C   0  0  0  0  0  0  0  0  0  0  0  0
  144.4240   72.2870  219.7180 C   0  0  0  0  0  0  0  0  0  0  0  0
  144.4850   70.8360  219.3930 C   0  0  0  0  0  0  0  0  0  0  0  0
  143.8290   70.5810  218.2240 F   0  0  0  0  0  0  0  0  0  0  0  0
  143.8350   70.1740  220.4230 F   0  0  0  0  0  0  0  0  0  0  0  0
  145.7990   70.4500  219.3190 F   0  0  0  0  0  0  0  0  0  0  0  0
  143.3920   73.1060  219.2810 C   0  0  0  0  0  0  0  0  0  0  0  0
  140.2520   71.1940  223.5460 C   0  0  0  0  0  0  0  0  0  0  0  0
  139.5990   69.9920  223.6100 C   0  0  0  0  0  0  0  0  0  0  0  0
  139.4030   69.3440  224.8060 C   0  0  0  0  0  0  0  0  0  0  0  0
  139.8840   69.9270  225.9780 C   0  0  0  0  0  0  0  0  0  0  0  0
  139.7070   69.3060  227.1970 C   0  0  0  0  0  0  0  0  0  0  0  0
  140.2030   69.9220  228.3480 C   0  0  0  0  0  0  0  0  0  0  0  0
  140.8580   71.1310  228.2640 C   0  0  0  0  0  0  0  0  0  0  0  0
  141.0310   71.7480  227.0340 C   0  0  0  0  0  0  0  0  0  0  0  0
  140.5430   71.1430  225.8880 C   0  0  0  0  0  0  0  0  0  0  0  0
  140.7050   71.7310  224.6990 N   0  0  0  0  0  0  0  0  0  0  0  0
  139.8020   73.7380  223.0190 H   0  0  0  0  0  0  0  0  0  0  0  0
  141.0045   73.4272  220.2603 H   0  0  0  0  0  0  0  0  0  0  0  0
  139.3314   74.0543  220.4140 H   0  0  0  0  0  0  0  0  0  0  0  0
  141.2371   77.9826  220.8782 H   0  0  0  0  0  0  0  0  0  0  0  0
  142.9040   77.5965  221.1572 H   0  0  0  0  0  0  0  0  0  0  0  0
  141.4193   78.0591  218.5181 H   0  0  0  0  0  0  0  0  0  0  0  0
  143.0577   78.5823  218.9348 H   0  0  0  0  0  0  0  0  0  0  0  0
  142.5351   76.4016  217.3511 H   0  0  0  0  0  0  0  0  0  0  0  0
  143.9875   76.4949  218.3566 H   0  0  0  0  0  0  0  0  0  0  0  0
  141.6672   74.7515  218.6340 H   0  0  0  0  0  0  0  0  0  0  0  0
  144.4530   75.9694  220.6589 H   0  0  0  0  0  0  0  0  0  0  0  0
  146.3119   74.5393  221.4527 H   0  0  0  0  0  0  0  0  0  0  0  0
  146.2764   72.1122  220.8237 H   0  0  0  0  0  0  0  0  0  0  0  0
  142.5702   72.7056  218.6693 H   0  0  0  0  0  0  0  0  0  0  0  0
  139.2228   69.5347  222.6830 H   0  0  0  0  0  0  0  0  0  0  0  0
  138.8746   68.3798  224.8384 H   0  0  0  0  0  0  0  0  0  0  0  0
  139.1834   68.3408  227.2614 H   0  0  0  0  0  0  0  0  0  0  0  0
  140.0699   69.4390  229.3273 H   0  0  0  0  0  0  0  0  0  0  0  0
  141.2453   71.6088  229.1760 H   0  0  0  0  0  0  0  0  0  0  0  0
  141.5536   72.7138  226.9691 H   0  0  0  0  0  0  0  0  0  0  0  0
  1  2  2  0
  2  3  1  0
  3  4  1  0
  4  5  1  0
  5  6  2  0
  5  7  1  0
  7  8  1  0
  8  9  1  0
  9 10  1  0
 10 11  1  0
 11 12  1  0
 12 13  2  0
 13 14  1  0
 14 15  2  0
 15 16  1  0
 16 17  1  0
 17 18  1  0
 17 19  1  0
 17 20  1  0
 16 21  2  0
  2 22  1  0
 22 23  2  0
 23 24  1  0
 24 25  2  0
 25 26  1  0
 26 27  2  0
 27 28  1  0
 28 29  2  0
 29 30  1  0
 30 31  2  0
 11  7  1  0
 21 12  1  0
 31 22  1  0
 30 25  1  0
  3 32  1  0
  4 33  1  0
  4 34  1  0
  8 35  1  0
  8 36  1  0
  9 37  1  0
  9 38  1  0
 10 39  1  0
 10 40  1  0
 11 41  1  6
 13 42  1  0
 14 43  1  0
 15 44  1  0
 21 45  1  0
 23 46  1  0
 24 47  1  0
 26 48  1  0
 27 49  1  0
 28 50  1  0
 29 51  1  0
M  END
>  <smiles>  (98) 
O=C(NCC(=O)N1CCCC1c1cccc(C(F)(F)F)c1)c1ccc2ccccc2n1

>  <score_type>  (98) 
oracle

>  <origin>  (98) 
autodockgpu

>  <m_score__min__energy>  (98) 
-9.1500000000000004

>  <m_primary>  (98) 
energy

>  <rmsd>  (98) 
2.30657481786767

>  <m_score__min__rmsd>  (98) 
2.30657481786767

>  <meeko>  (98) 
{"free_energy": -8.51, "intermolecular_energy": -10.3, "internal_energy": -2.14, "cluster_size": 12, "cluster_id": 3, "rank_in_cluster": 2}

>  <energy>  (98) 
-8.05

>  <cluster_rmsd>  (98) 
0.0

>  <cluster>  (98) 
6

$$$$

     RDKit          3D

 51 54  0  0  0  0  0  0  0  0999 V2000
  140.8930   71.5860  221.3590 O   0  0  0  0  0  0  0  0  0  0  0  0
  140.3880   72.1420  222.3800 C   0  0  0  0  0  0  0  0  0  0  0  0
  139.9770   73.4980  222.3320 N   0  0  0  0  0  0  0  0  0  0  0  0
  140.1100   74.3040  221.1360 C   0  0  0  0  0  0  0  0  0  0  0  0
  140.2190   75.7430  221.5270 C   0  0  0  0  0  0  0  0  0  0  0  0
  139.9630   76.0950  222.7250 O   0  0  0  0  0  0  0  0  0  0  0  0
  140.6010   76.7450  220.6020 N   0  0  0  0  0  0  0  0  0  0  0  0
  139.9330   76.9560  219.3380 C   0  0  0  0  0  0  0  0  0  0  0  0
  141.0750   77.5180  218.5150 C   0  0  0  0  0  0  0  0  0  0  0  0
  141.9460   78.2700  219.4840 C   0  0  0  0  0  0  0  0  0  0  0  0
  141.6870   77.6610  220.8120 C   0  0  1  0  0  0  0  0  0  0  0  0
  141.3770   78.6690  221.8630 C   0  0  0  0  0  0  0  0  0  0  0  0
  142.4240   79.2440  222.5250 C   0  0  0  0  0  0  0  0  0  0  0  0
  142.2660   80.1870  223.5170 C   0  0  0  0  0  0  0  0  0  0  0  0
  140.9700   80.5480  223.8330 C   0  0  0  0  0  0  0  0  0  0  0  0
  139.8990   79.9640  223.1600 C   0  0  0  0  0  0  0  0  0  0  0  0
  138.5430   80.4180  223.5730 C   0  0  0  0  0  0  0  0  0  0  0  0
  138.4550   80.4820  224.9330 F   0  0  0  0  0  0  0  0  0  0  0  0
  137.6510   79.4630  223.1110 F   0  0  0  0  0  0  0  0  0  0  0  0
  138.2880   81.6380  223.0000 F   0  0  0  0  0  0  0  0  0  0  0  0
  140.0970   79.0150  222.1660 C   0  0  0  0  0  0  0  0  0  0  0  0
  140.2180   71.4060  223.6200 C   0  0  0  0  0  0  0  0  0  0  0  0
  139.5800   70.1940  223.6140 C   0  0  0  0  0  0  0  0  0  0  0  0
  139.4020   69.4700  224.7700 C   0  0  0  0  0  0  0  0  0  0  0  0
  139.8840   69.9860  225.9720 C   0  0  0  0  0  0  0  0  0  0  0  0
  139.7230   69.2890  227.1520 C   0  0  0  0  0  0  0  0  0  0  0  0
  140.2200   69.8390  228.3350 C   0  0  0  0  0  0  0  0  0  0  0  0
  140.8590   71.0600  228.3210 C   0  0  0  0  0  0  0  0  0  0  0  0
  141.0150   71.7530  227.1310 C   0  0  0  0  0  0  0  0  0  0  0  0
  140.5260   71.2140  225.9530 C   0  0  0  0  0  0  0  0  0  0  0  0
  140.6730   71.8770  224.8010 N   0  0  0  0  0  0  0  0  0  0  0  0
  139.5600   73.9250  223.2040 H   0  0  0  0  0  0  0  0  0  0  0  0
  141.0138   74.0019  220.5865 H   0  0  0  0  0  0  0  0  0  0  0  0
  139.2301   74.1601  220.4917 H   0  0  0  0  0  0  0  0  0  0  0  0
  139.5536   76.0135  218.9165 H   0  0  0  0  0  0  0  0  0  0  0  0
  139.0438   77.6014  219.3906 H   0  0  0  0  0  0  0  0  0  0  0  0
  141.6430   76.7037  218.0414 H   0  0  0  0  0  0  0  0  0  0  0  0
  140.7102   78.1701  217.7077 H   0  0  0  0  0  0  0  0  0  0  0  0
  143.0061   78.1602  219.2118 H   0  0  0  0  0  0  0  0  0  0  0  0
  141.7219   79.3469  219.4803 H   0  0  0  0  0  0  0  0  0  0  0  0
  142.5838   77.1504  221.1928 H   0  0  0  0  0  0  0  0  0  0  0  0
  143.4451   78.9388  222.2524 H   0  0  0  0  0  0  0  0  0  0  0  0
  143.1301   80.6312  224.0328 H   0  0  0  0  0  0  0  0  0  0  0  0
  140.7838   81.2972  224.6166 H   0  0  0  0  0  0  0  0  0  0  0  0
  139.2458   78.5576  221.6403 H   0  0  0  0  0  0  0  0  0  0  0  0
  139.2014   69.7905  222.6633 H   0  0  0  0  0  0  0  0  0  0  0  0
  138.8870   68.4983  224.7463 H   0  0  0  0  0  0  0  0  0  0  0  0
  139.2111   68.3154  227.1604 H   0  0  0  0  0  0  0  0  0  0  0  0
  140.1009   69.2948  229.2835 H   0  0  0  0  0  0  0  0  0  0  0  0
  141.2467   71.4862  229.2580 H   0  0  0  0  0  0  0  0  0  0  0  0
  141.5253   72.7274  227.1223 H   0  0  0  0  0  0  0  0  0  0  0  0
  1  2  2  0
  2  3  1  0
  3  4  1  0
  4  5  1  0
  5  6  2  0
  5  7  1  0
  7  8  1  0
  8  9  1  0
  9 10  1  0
 10 11  1  0
 11 12  1  0
 12 13  2  0
 13 14  1  0
 14 15  2  0
 15 16  1  0
 16 17  1  0
 17 18  1  0
 17 19  1  0
 17 20  1  0
 16 21  2  0
  2 22  1  0
 22 23  2  0
 23 24  1  0
 24 25  2  0
 25 26  1  0
 26 27  2  0
 27 28  1  0
 28 29  2  0
 29 30  1  0
 30 31  2  0
 11  7  1  0
 21 12  1  0
 31 22  1  0
 30 25  1  0
  3 32  1  0
  4 33  1  0
  4 34  1  0
  8 35  1  0
  8 36  1  0
  9 37  1  0
  9 38  1  0
 10 39  1  0
 10 40  1  0
 11 41  1  1
 13 42  1  0
 14 43  1  0
 15 44  1  0
 21 45  1  0
 23 46  1  0
 24 47  1  0
 26 48  1  0
 27 49  1  0
 28 50  1  0
 29 51  1  0
M  END
>  <smiles>  (99) 
O=C(NCC(=O)N1CCCC1c1cccc(C(F)(F)F)c1)c1ccc2ccccc2n1

>  <score_type>  (99) 
oracle

>  <origin>  (99) 
autodockgpu

>  <m_score__min__energy>  (99) 
-9.1500000000000004

>  <m_primary>  (99) 
energy

>  <rmsd>  (99) 
1.7021398949017952

>  <m_score__min__rmsd>  (99) 
1.7021398949017952

>  <meeko>  (99) 
{"free_energy": -8.88, "intermolecular_energy": -10.67, "internal_energy": -1.92, "cluster_size": 27, "cluster_id": 2, "rank_in_cluster": 2}

>  <energy>  (99) 
-7.25

>  <cluster_rmsd>  (99) 
0.0

>  <cluster>  (99) 
7

$$$$

     RDKit          3D

 51 54  0  0  0  0  0  0  0  0999 V2000
  137.2080   76.1630  222.2870 O   0  0  0  0  0  0  0  0  0  0  0  0
  138.4650   76.2710  222.4080 C   0  0  0  0  0  0  0  0  0  0  0  0
  139.3040   75.1390  222.2480 N   0  0  0  0  0  0  0  0  0  0  0  0
  138.7780   73.8250  221.9440 C   0  0  0  0  0  0  0  0  0  0  0  0
  139.8370   72.8020  222.2080 C   0  0  0  0  0  0  0  0  0  0  0  0
  141.0460   73.1700  222.3750 O   0  0  0  0  0  0  0  0  0  0  0  0
  139.5430   71.4190  222.2800 N   0  0  0  0  0  0  0  0  0  0  0  0
  139.9620   70.4640  221.2800 C   0  0  0  0  0  0  0  0  0  0  0  0
  138.8580   69.4330  221.4060 C   0  0  0  0  0  0  0  0  0  0  0  0
  138.4350   69.4600  222.8500 C   0  0  0  0  0  0  0  0  0  0  0  0
  138.8000   70.8090  223.3480 C   0  0  1  0  0  0  0  0  0  0  0  0
  139.5750   70.7700  224.6190 C   0  0  0  0  0  0  0  0  0  0  0  0
  140.4240   71.8080  224.8810 C   0  0  0  0  0  0  0  0  0  0  0  0
  141.1950   71.8850  226.0210 C   0  0  0  0  0  0  0  0  0  0  0  0
  141.0800   70.8450  226.9230 C   0  0  0  0  0  0  0  0  0  0  0  0
  140.2150   69.7850  226.6590 C   0  0  0  0  0  0  0  0  0  0  0  0
  140.1620   68.7140  227.6910 C   0  0  0  0  0  0  0  0  0  0  0  0
  139.6150   67.5770  227.1720 F   0  0  0  0  0  0  0  0  0  0  0  0
  139.3390   69.1840  228.7040 F   0  0  0  0  0  0  0  0  0  0  0  0
  141.4290   68.4850  228.1620 F   0  0  0  0  0  0  0  0  0  0  0  0
  139.4540   69.7400  225.4990 C   0  0  0  0  0  0  0  0  0  0  0  0
  139.0760   77.5530  222.7130 C   0  0  0  0  0  0  0  0  0  0  0  0
  138.2880   78.6300  223.0210 C   0  0  0  0  0  0  0  0  0  0  0  0
  138.8320   79.8580  223.3150 C   0  0  0  0  0  0  0  0  0  0  0  0
  140.2180   80.0050  223.2980 C   0  0  0  0  0  0  0  0  0  0  0  0
  140.8000   81.2210  223.5870 C   0  0  0  0  0  0  0  0  0  0  0  0
  142.1920   81.3280  223.5600 C   0  0  0  0  0  0  0  0  0  0  0  0
  142.9690   80.2340  223.2480 C   0  0  0  0  0  0  0  0  0  0  0  0
  142.3750   79.0150  222.9580 C   0  0  0  0  0  0  0  0  0  0  0  0
  140.9960   78.9010  222.9840 C   0  0  0  0  0  0  0  0  0  0  0  0
  140.4150   77.7290  222.7060 N   0  0  0  0  0  0  0  0  0  0  0  0
  140.3460   75.2700  222.3570 H   0  0  0  0  0  0  0  0  0  0  0  0
  137.9031   73.6222  222.5792 H   0  0  0  0  0  0  0  0  0  0  0  0
  138.4755   73.7818  220.8873 H   0  0  0  0  0  0  0  0  0  0  0  0
  139.9872   70.9118  220.2756 H   0  0  0  0  0  0  0  0  0  0  0  0
  140.9785   70.0679  221.4208 H   0  0  0  0  0  0  0  0  0  0  0  0
  138.0120   69.6960  220.7540 H   0  0  0  0  0  0  0  0  0  0  0  0
  139.2015   68.4328  221.1033 H   0  0  0  0  0  0  0  0  0  0  0  0
  137.3501   69.2999  222.9353 H   0  0  0  0  0  0  0  0  0  0  0  0
  138.9243   68.6653  223.4322 H   0  0  0  0  0  0  0  0  0  0  0  0
  137.9012   71.3892  223.6040 H   0  0  0  0  0  0  0  0  0  0  0  0
  140.4958   72.6228  224.1455 H   0  0  0  0  0  0  0  0  0  0  0  0
  141.8698   72.7342  226.2038 H   0  0  0  0  0  0  0  0  0  0  0  0
  141.6717   70.8537  227.8503 H   0  0  0  0  0  0  0  0  0  0  0  0
  138.7749   68.8984  225.2979 H   0  0  0  0  0  0  0  0  0  0  0  0
  137.1947   78.5098  223.0334 H   0  0  0  0  0  0  0  0  0  0  0  0
  138.1831   80.7118  223.5600 H   0  0  0  0  0  0  0  0  0  0  0  0
  140.1775   82.0933  223.8350 H   0  0  0  0  0  0  0  0  0  0  0  0
  142.6709   82.2914  223.7892 H   0  0  0  0  0  0  0  0  0  0  0  0
  144.0648   80.3278  223.2289 H   0  0  0  0  0  0  0  0  0  0  0  0
  142.9970   78.1427  222.7084 H   0  0  0  0  0  0  0  0  0  0  0  0
  1  2  2  0
  2  3  1  0
  3  4  1  0
  4  5  1  0
  5  6  2  0
  5  7  1  0
  7  8  1  0
  8  9  1  0
  9 10  1  0
 10 11  1  0
 11 12  1  0
 12 13  2  0
 13 14  1  0
 14 15  2  0
 15 16  1  0
 16 17  1  0
 17 18  1  0
 17 19  1  0
 17 20  1  0
 16 21  2  0
  2 22  1  0
 22 23  2  0
 23 24  1  0
 24 25  2  0
 25 26  1  0
 26 27  2  0
 27 28  1  0
 28 29  2  0
 29 30  1  0
 30 31  2  0
 11  7  1  0
 21 12  1  0
 31 22  1  0
 30 25  1  0
  3 32  1  0
  4 33  1  0
  4 34  1  0
  8 35  1  0
  8 36  1  0
  9 37  1  0
  9 38  1  0
 10 39  1  0
 10 40  1  0
 11 41  1  1
 13 42  1  0
 14 43  1  0
 15 44  1  0
 21 45  1  0
 23 46  1  0
 24 47  1  0
 26 48  1  0
 27 49  1  0
 28 50  1  0
 29 51  1  0
M  END
>  <smiles>  (100) 
O=C(NCC(=O)N1CCCC1c1cccc(C(F)(F)F)c1)c1ccc2ccccc2n1

>  <score_type>  (100) 
oracle

>  <origin>  (100) 
autodockgpu

>  <m_score__min__energy>  (100) 
-9.1500000000000004

>  <m_primary>  (100) 
energy

>  <rmsd>  (100) 
8.318249389590207

>  <m_score__min__rmsd>  (100) 
8.318249389590207

>  <meeko>  (100) 
{"free_energy": -8.42, "intermolecular_energy": -10.21, "internal_energy": -2.0, "cluster_size": 5, "cluster_id": 1, "rank_in_cluster": 4}

>  <energy>  (100) 
-7.22

>  <cluster_rmsd>  (100) 
0.17

>  <cluster>  (100) 
7

$$$$
