
     RDKit          3D

 63 67  0  0  0  0  0  0  0  0999 V2000
  140.5970   81.7020  222.5370 C   0  0  0  0  0  0  0  0  0  0  0  0
  141.5360   81.1500  223.3860 C   0  0  0  0  0  0  0  0  0  0  0  0
  141.7180   79.7760  223.4620 C   0  0  0  0  0  0  0  0  0  0  0  0
  140.9610   78.9100  222.6870 C   0  0  0  0  0  0  0  0  0  0  0  0
  140.0210   79.4650  221.8380 C   0  0  0  0  0  0  0  0  0  0  0  0
  139.8470   80.8340  221.7690 C   0  0  0  0  0  0  0  0  0  0  0  0
  139.2130   78.5680  221.0120 C   0  0  0  0  0  0  0  0  0  0  0  0
  139.9300   77.3060  220.6160 C   0  0  0  0  0  0  0  0  0  0  0  0
  140.6610   76.7050  221.7150 N   0  0  0  0  0  0  0  0  0  0  0  0
  140.8670   75.2930  221.7380 C   0  0  0  0  0  0  0  0  0  0  0  0
  139.9770   74.4370  222.2770 N   0  0  0  0  0  0  0  0  0  0  0  0
  140.1490   73.1020  222.3100 C   0  0  0  0  0  0  0  0  0  0  0  0
  139.1860   72.2200  222.8890 N   0  0  0  0  0  0  0  0  0  0  0  0
  139.5620   70.8570  223.1590 C   0  0  0  0  0  0  0  0  0  0  0  0
  139.6020   70.6790  224.6650 C   0  0  0  0  0  0  0  0  0  0  0  0
  139.7350   69.2090  225.0020 C   0  0  0  0  0  0  0  0  0  0  0  0
  139.4270   69.0260  226.4540 C   0  0  0  0  0  0  0  0  0  0  0  0
  139.9620   70.1900  227.2310 C   0  0  0  0  0  0  0  0  0  0  0  0
  141.1470   70.8530  226.5400 C   0  0  0  0  0  0  0  0  0  0  0  0
  140.6980   71.5140  225.2470 C   0  0  0  0  0  0  0  0  0  0  0  0
  141.2950   72.6170  221.7630 N   0  0  0  0  0  0  0  0  0  0  0  0
  142.2210   73.4260  221.2100 C   0  0  0  0  0  0  0  0  0  0  0  0
  143.4270   72.9400  220.6310 N   0  0  0  0  0  0  0  0  0  0  0  0
  143.6020   71.5380  220.3500 C   0  0  0  0  0  0  0  0  0  0  0  0
  144.7040   71.2580  219.3870 C   0  0  0  0  0  0  0  0  0  0  0  0
  145.9280   71.8950  219.7570 N   0  0  0  0  0  0  0  0  0  0  0  0
  145.7880   73.0720  220.5600 C   0  0  0  0  0  0  0  0  0  0  0  0
  144.5120   73.8460  220.3080 C   0  0  0  0  0  0  0  0  0  0  0  0
  141.9810   74.7490  221.2130 N   0  0  0  0  0  0  0  0  0  0  0  0
  141.2080   77.4730  222.8190 C   0  0  0  0  0  0  0  0  0  0  0  0
  140.4524   82.7907  222.4751 H   0  0  0  0  0  0  0  0  0  0  0  0
  142.1511   81.8115  224.0137 H   0  0  0  0  0  0  0  0  0  0  0  0
  142.4747   79.3674  224.1479 H   0  0  0  0  0  0  0  0  0  0  0  0
  139.0903   81.2433  221.0835 H   0  0  0  0  0  0  0  0  0  0  0  0
  138.3106   78.2926  221.5776 H   0  0  0  0  0  0  0  0  0  0  0  0
  138.9757   79.1093  220.0843 H   0  0  0  0  0  0  0  0  0  0  0  0
  139.1884   76.5810  220.2493 H   0  0  0  0  0  0  0  0  0  0  0  0
  140.6613   77.5714  219.8384 H   0  0  0  0  0  0  0  0  0  0  0  0
  138.2450   72.6160  223.0880 H   0  0  0  0  0  0  0  0  0  0  0  0
  138.8229   70.1706  222.7202 H   0  0  0  0  0  0  0  0  0  0  0  0
  140.5450   70.6342  222.7186 H   0  0  0  0  0  0  0  0  0  0  0  0
  138.6617   71.0287  225.1161 H   0  0  0  0  0  0  0  0  0  0  0  0
  139.0278   68.6238  224.3959 H   0  0  0  0  0  0  0  0  0  0  0  0
  140.7570   68.8636  224.7867 H   0  0  0  0  0  0  0  0  0  0  0  0
  138.3375   68.9631  226.5922 H   0  0  0  0  0  0  0  0  0  0  0  0
  139.8975   68.0990  226.8136 H   0  0  0  0  0  0  0  0  0  0  0  0
  139.1606   70.9340  227.3498 H   0  0  0  0  0  0  0  0  0  0  0  0
  140.3088   69.8130  228.2045 H   0  0  0  0  0  0  0  0  0  0  0  0
  141.5771   71.6146  227.2071 H   0  0  0  0  0  0  0  0  0  0  0  0
  141.9019   70.0872  226.3083 H   0  0  0  0  0  0  0  0  0  0  0  0
  140.3262   72.5283  225.4544 H   0  0  0  0  0  0  0  0  0  0  0  0
  141.5389   71.5911  224.5420 H   0  0  0  0  0  0  0  0  0  0  0  0
  143.8242   71.0188  221.2940 H   0  0  0  0  0  0  0  0  0  0  0  0
  142.6697   71.1818  219.8874 H   0  0  0  0  0  0  0  0  0  0  0  0
  144.8698   70.1713  219.3467 H   0  0  0  0  0  0  0  0  0  0  0  0
  144.4019   71.6572  218.4075 H   0  0  0  0  0  0  0  0  0  0  0  0
  146.5450   71.2380  220.3040 H   0  0  0  0  0  0  0  0  0  0  0  0
  145.8064   72.7720  221.6182 H   0  0  0  0  0  0  0  0  0  0  0  0
  146.6207   73.7388  220.2919 H   0  0  0  0  0  0  0  0  0  0  0  0
  144.4713   74.7367  220.9522 H   0  0  0  0  0  0  0  0  0  0  0  0
  144.4503   74.1948  219.2666 H   0  0  0  0  0  0  0  0  0  0  0  0
  140.7474   77.1215  223.7541 H   0  0  0  0  0  0  0  0  0  0  0  0
  142.2977   77.3226  222.8196 H   0  0  0  0  0  0  0  0  0  0  0  0
  1  2  2  0
  2  3  1  0
  3  4  2  0
  4  5  1  0
  5  6  2  0
  5  7  1  0
  7  8  1  0
  8  9  1  0
  9 10  1  0
 10 11  2  0
 11 12  1  0
 12 13  1  0
 13 14  1  0
 14 15  1  0
 15 16  1  0
 16 17  1  0
 17 18  1  0
 18 19  1  0
 19 20  1  0
 12 21  2  0
 21 22  1  0
 22 23  1  0
 23 24  1  0
 24 25  1  0
 25 26  1  0
 26 27  1  0
 27 28  1  0
 22 29  2  0
  9 30  1  0
  6  1  1  0
 29 10  1  0
 30  4  1  0
 20 15  1  0
 28 23  1  0
  1 31  1  0
  2 32  1  0
  3 33  1  0
  6 34  1  0
  7 35  1  0
  7 36  1  0
  8 37  1  0
  8 38  1  0
 13 39  1  0
 14 40  1  0
 14 41  1  0
 15 42  1  0
 16 43  1  0
 16 44  1  0
 17 45  1  0
 17 46  1  0
 18 47  1  0
 18 48  1  0
 19 49  1  0
 19 50  1  0
 20 51  1  0
 20 52  1  0
 24 53  1  0
 24 54  1  0
 25 55  1  0
 25 56  1  0
 26 57  1  0
 27 58  1  0
 27 59  1  0
 28 60  1  0
 28 61  1  0
 30 62  1  0
 30 63  1  0
M  END
>  <smiles>  (1) 
c1ccc2c(c1)CCN(c1nc(NCC3CCCCC3)nc(N3CCNCC3)n1)C2

>  <score_type>  (1) 
oracle

>  <origin>  (1) 
autodockgpu

>  <m_score__min__energy>  (1) 
-9.9000000000000004

>  <m_primary>  (1) 
energy

>  <rmsd>  (1) 
10.731640492105226

>  <m_score__min__rmsd>  (1) 
10.731640492105226

>  <meeko>  (1) 
{"free_energy": -9.55, "intermolecular_energy": -11.05, "internal_energy": -0.93, "cluster_size": 11, "cluster_id": 2, "rank_in_cluster": 3}

>  <energy>  (1) 
-9.9

>  <cluster_rmsd>  (1) 
0.0

>  <cluster>  (1) 
1

$$$$

     RDKit          3D

 63 67  0  0  0  0  0  0  0  0999 V2000
  139.6060   68.5120  227.5460 C   0  0  0  0  0  0  0  0  0  0  0  0
  140.4340   69.5460  227.9360 C   0  0  0  0  0  0  0  0  0  0  0  0
  140.8770   70.4970  227.0280 C   0  0  0  0  0  0  0  0  0  0  0  0
  140.5020   70.4390  225.6930 C   0  0  0  0  0  0  0  0  0  0  0  0
  139.6730   69.4030  225.3050 C   0  0  0  0  0  0  0  0  0  0  0  0
  139.2370   68.4610  226.2170 C   0  0  0  0  0  0  0  0  0  0  0  0
  139.2670   69.3260  223.9010 C   0  0  0  0  0  0  0  0  0  0  0  0
  139.1540   70.6690  223.2340 C   0  0  0  0  0  0  0  0  0  0  0  0
  140.2620   71.5490  223.5470 N   0  0  0  0  0  0  0  0  0  0  0  0
  140.6620   72.5450  222.6060 C   0  0  0  0  0  0  0  0  0  0  0  0
  139.9170   73.6370  222.3420 N   0  0  0  0  0  0  0  0  0  0  0  0
  140.2730   74.5900  221.4600 C   0  0  0  0  0  0  0  0  0  0  0  0
  139.4610   75.7360  221.2020 N   0  0  0  0  0  0  0  0  0  0  0  0
  139.1730   76.6430  222.2830 C   0  0  0  0  0  0  0  0  0  0  0  0
  140.0540   77.8650  222.1060 C   0  0  0  0  0  0  0  0  0  0  0  0
  141.2050   77.8120  223.0890 C   0  0  0  0  0  0  0  0  0  0  0  0
  141.8480   79.1600  223.1390 C   0  0  0  0  0  0  0  0  0  0  0  0
  141.8490   79.7680  221.7700 C   0  0  0  0  0  0  0  0  0  0  0  0
  141.8270   78.7140  220.6690 C   0  0  0  0  0  0  0  0  0  0  0  0
  140.5050   77.9670  220.6840 C   0  0  0  0  0  0  0  0  0  0  0  0
  141.4550   74.4150  220.8120 N   0  0  0  0  0  0  0  0  0  0  0  0
  142.2420   73.3430  221.0350 C   0  0  0  0  0  0  0  0  0  0  0  0
  143.4830   73.1400  220.3690 N   0  0  0  0  0  0  0  0  0  0  0  0
  144.6880   73.7760  220.8380 C   0  0  0  0  0  0  0  0  0  0  0  0
  145.9330   73.1480  220.3140 C   0  0  0  0  0  0  0  0  0  0  0  0
  145.9140   73.0000  218.8920 N   0  0  0  0  0  0  0  0  0  0  0  0
  144.6120   72.9130  218.3040 C   0  0  0  0  0  0  0  0  0  0  0  0
  143.5660   72.2870  219.2010 C   0  0  0  0  0  0  0  0  0  0  0  0
  141.8210   72.4320  221.9310 N   0  0  0  0  0  0  0  0  0  0  0  0
  141.0060   71.4760  224.7910 C   0  0  0  0  0  0  0  0  0  0  0  0
  139.2543   67.7586  228.2662 H   0  0  0  0  0  0  0  0  0  0  0  0
  140.7487   69.6171  228.9876 H   0  0  0  0  0  0  0  0  0  0  0  0
  141.5351   71.3088  227.3713 H   0  0  0  0  0  0  0  0  0  0  0  0
  138.5785   67.6490  225.8748 H   0  0  0  0  0  0  0  0  0  0  0  0
  140.0120   68.7281  223.3556 H   0  0  0  0  0  0  0  0  0  0  0  0
  138.2668   68.8687  223.8784 H   0  0  0  0  0  0  0  0  0  0  0  0
  139.1222   70.5184  222.1448 H   0  0  0  0  0  0  0  0  0  0  0  0
  138.2367   71.1472  223.6080 H   0  0  0  0  0  0  0  0  0  0  0  0
  139.1120   75.8570  220.2300 H   0  0  0  0  0  0  0  0  0  0  0  0
  138.1135   76.9373  222.2531 H   0  0  0  0  0  0  0  0  0  0  0  0
  139.3707   76.1624  223.2525 H   0  0  0  0  0  0  0  0  0  0  0  0
  139.4844   78.7801  222.3255 H   0  0  0  0  0  0  0  0  0  0  0  0
  140.8286   77.5432  224.0870 H   0  0  0  0  0  0  0  0  0  0  0  0
  141.9381   77.0562  222.7707 H   0  0  0  0  0  0  0  0  0  0  0  0
  141.2857   79.8084  223.8270 H   0  0  0  0  0  0  0  0  0  0  0  0
  142.8842   79.0573  223.4936 H   0  0  0  0  0  0  0  0  0  0  0  0
  140.9596   80.4068  221.6660 H   0  0  0  0  0  0  0  0  0  0  0  0
  142.7763   80.3496  221.6607 H   0  0  0  0  0  0  0  0  0  0  0  0
  141.9557   79.2052  219.6932 H   0  0  0  0  0  0  0  0  0  0  0  0
  142.6451   77.9989  220.8405 H   0  0  0  0  0  0  0  0  0  0  0  0
  139.7578   78.5168  220.0929 H   0  0  0  0  0  0  0  0  0  0  0  0
  140.6247   76.9651  220.2460 H   0  0  0  0  0  0  0  0  0  0  0  0
  144.6706   74.8300  220.5237 H   0  0  0  0  0  0  0  0  0  0  0  0
  144.7065   73.6678  221.9325 H   0  0  0  0  0  0  0  0  0  0  0  0
  146.7903   73.7787  220.5918 H   0  0  0  0  0  0  0  0  0  0  0  0
  146.0116   72.1429  220.7540 H   0  0  0  0  0  0  0  0  0  0  0  0
  146.3960   73.8120  218.4220 H   0  0  0  0  0  0  0  0  0  0  0  0
  144.2813   73.9300  218.0463 H   0  0  0  0  0  0  0  0  0  0  0  0
  144.7058   72.2592  217.4243 H   0  0  0  0  0  0  0  0  0  0  0  0
  142.5946   72.2474  218.6863 H   0  0  0  0  0  0  0  0  0  0  0  0
  143.8322   71.2548  219.4727 H   0  0  0  0  0  0  0  0  0  0  0  0
  142.0589   71.2584  224.5586 H   0  0  0  0  0  0  0  0  0  0  0  0
  140.8927   72.4434  225.3021 H   0  0  0  0  0  0  0  0  0  0  0  0
  1  2  2  0
  2  3  1  0
  3  4  2  0
  4  5  1  0
  5  6  2  0
  5  7  1  0
  7  8  1  0
  8  9  1  0
  9 10  1  0
 10 11  2  0
 11 12  1  0
 12 13  1  0
 13 14  1  0
 14 15  1  0
 15 16  1  0
 16 17  1  0
 17 18  1  0
 18 19  1  0
 19 20  1  0
 12 21  2  0
 21 22  1  0
 22 23  1  0
 23 24  1  0
 24 25  1  0
 25 26  1  0
 26 27  1  0
 27 28  1  0
 22 29  2  0
  9 30  1  0
  6  1  1  0
 29 10  1  0
 30  4  1  0
 20 15  1  0
 28 23  1  0
  1 31  1  0
  2 32  1  0
  3 33  1  0
  6 34  1  0
  7 35  1  0
  7 36  1  0
  8 37  1  0
  8 38  1  0
 13 39  1  0
 14 40  1  0
 14 41  1  0
 15 42  1  0
 16 43  1  0
 16 44  1  0
 17 45  1  0
 17 46  1  0
 18 47  1  0
 18 48  1  0
 19 49  1  0
 19 50  1  0
 20 51  1  0
 20 52  1  0
 24 53  1  0
 24 54  1  0
 25 55  1  0
 25 56  1  0
 26 57  1  0
 27 58  1  0
 27 59  1  0
 28 60  1  0
 28 61  1  0
 30 62  1  0
 30 63  1  0
M  END
>  <smiles>  (2) 
c1ccc2c(c1)CCN(c1nc(NCC3CCCCC3)nc(N3CCNCC3)n1)C2

>  <score_type>  (2) 
oracle

>  <origin>  (2) 
autodockgpu

>  <m_score__min__energy>  (2) 
-9.9000000000000004

>  <m_primary>  (2) 
energy

>  <rmsd>  (2) 
3.9038197757754896

>  <m_score__min__rmsd>  (2) 
3.9038197757754896

>  <meeko>  (2) 
{"free_energy": -9.57, "intermolecular_energy": -11.07, "internal_energy": -1.07, "cluster_size": 39, "cluster_id": 1, "rank_in_cluster": 28}

>  <energy>  (2) 
-9.88

>  <cluster_rmsd>  (2) 
0.11

>  <cluster>  (2) 
1

$$$$

     RDKit          3D

 63 67  0  0  0  0  0  0  0  0999 V2000
  139.5710   68.5630  227.6120 C   0  0  0  0  0  0  0  0  0  0  0  0
  140.3840   69.6130  227.9900 C   0  0  0  0  0  0  0  0  0  0  0  0
  140.8190   70.5540  227.0680 C   0  0  0  0  0  0  0  0  0  0  0  0
  140.4520   70.4710  225.7330 C   0  0  0  0  0  0  0  0  0  0  0  0
  139.6380   69.4180  225.3570 C   0  0  0  0  0  0  0  0  0  0  0  0
  139.2090   68.4860  226.2820 C   0  0  0  0  0  0  0  0  0  0  0  0
  139.2390   69.3130  223.9530 C   0  0  0  0  0  0  0  0  0  0  0  0
  139.1130   70.6440  223.2630 C   0  0  0  0  0  0  0  0  0  0  0  0
  140.2090   71.5430  223.5670 N   0  0  0  0  0  0  0  0  0  0  0  0
  140.6010   72.5280  222.6120 C   0  0  0  0  0  0  0  0  0  0  0  0
  139.8400   73.6020  222.3210 N   0  0  0  0  0  0  0  0  0  0  0  0
  140.1890   74.5440  221.4250 C   0  0  0  0  0  0  0  0  0  0  0  0
  139.3600   75.6710  221.1390 N   0  0  0  0  0  0  0  0  0  0  0  0
  138.8700   76.4720  222.2310 C   0  0  0  0  0  0  0  0  0  0  0  0
  139.6850   77.7500  222.2690 C   0  0  0  0  0  0  0  0  0  0  0  0
  138.9770   78.7820  223.1200 C   0  0  0  0  0  0  0  0  0  0  0  0
  139.6030   80.1160  222.8660 C   0  0  0  0  0  0  0  0  0  0  0  0
  141.0810   79.9500  222.6800 C   0  0  0  0  0  0  0  0  0  0  0  0
  141.6190   78.7150  223.3920 C   0  0  0  0  0  0  0  0  0  0  0  0
  141.0720   77.4540  222.7430 C   0  0  0  0  0  0  0  0  0  0  0  0
  141.3800   74.3780  220.7920 N   0  0  0  0  0  0  0  0  0  0  0  0
  142.1820   73.3240  221.0420 C   0  0  0  0  0  0  0  0  0  0  0  0
  143.4330   73.1310  220.3920 N   0  0  0  0  0  0  0  0  0  0  0  0
  144.6220   73.8000  220.8570 C   0  0  0  0  0  0  0  0  0  0  0  0
  145.8830   73.1850  220.3590 C   0  0  0  0  0  0  0  0  0  0  0  0
  145.8800   73.0050  218.9400 N   0  0  0  0  0  0  0  0  0  0  0  0
  144.5860   72.8800  218.3420 C   0  0  0  0  0  0  0  0  0  0  0  0
  143.5440   72.2540  219.2440 C   0  0  0  0  0  0  0  0  0  0  0  0
  141.7680   72.4220  221.9510 N   0  0  0  0  0  0  0  0  0  0  0  0
  140.9480   71.4990  224.8160 C   0  0  0  0  0  0  0  0  0  0  0  0
  139.2251   67.8167  228.3423 H   0  0  0  0  0  0  0  0  0  0  0  0
  140.6926   69.7052  229.0418 H   0  0  0  0  0  0  0  0  0  0  0  0
  141.4654   71.3793  227.4011 H   0  0  0  0  0  0  0  0  0  0  0  0
  138.5619   67.6607  225.9501 H   0  0  0  0  0  0  0  0  0  0  0  0
  139.9933   68.7150  223.4206 H   0  0  0  0  0  0  0  0  0  0  0  0
  138.2444   68.8436  223.9339 H   0  0  0  0  0  0  0  0  0  0  0  0
  139.0887   70.4751  222.1763 H   0  0  0  0  0  0  0  0  0  0  0  0
  138.1881   71.1170  223.6245 H   0  0  0  0  0  0  0  0  0  0  0  0
  139.1480   75.8590  220.1380 H   0  0  0  0  0  0  0  0  0  0  0  0
  137.8076   76.7100  222.0735 H   0  0  0  0  0  0  0  0  0  0  0  0
  138.9655   75.9264  223.1814 H   0  0  0  0  0  0  0  0  0  0  0  0
  139.7770   78.1746  221.2584 H   0  0  0  0  0  0  0  0  0  0  0  0
  137.9106   78.8154  222.8523 H   0  0  0  0  0  0  0  0  0  0  0  0
  139.0676   78.5195  224.1844 H   0  0  0  0  0  0  0  0  0  0  0  0
  139.1670   80.5582  221.9580 H   0  0  0  0  0  0  0  0  0  0  0  0
  139.4146   80.7776  223.7244 H   0  0  0  0  0  0  0  0  0  0  0  0
  141.2941   79.8591  221.6047 H   0  0  0  0  0  0  0  0  0  0  0  0
  141.5756   80.8310  223.1149 H   0  0  0  0  0  0  0  0  0  0  0  0
  142.7172   78.7089  223.3289 H   0  0  0  0  0  0  0  0  0  0  0  0
  141.3031   78.7422  224.4453 H   0  0  0  0  0  0  0  0  0  0  0  0
  141.7055   77.1664  221.8909 H   0  0  0  0  0  0  0  0  0  0  0  0
  141.0631   76.6231  223.4638 H   0  0  0  0  0  0  0  0  0  0  0  0
  144.5876   74.8462  220.5188 H   0  0  0  0  0  0  0  0  0  0  0  0
  144.6324   73.7161  221.9537 H   0  0  0  0  0  0  0  0  0  0  0  0
  146.7255   73.8382  220.6302 H   0  0  0  0  0  0  0  0  0  0  0  0
  145.9768   72.1917  220.8223 H   0  0  0  0  0  0  0  0  0  0  0  0
  146.3510   73.8150  218.4570 H   0  0  0  0  0  0  0  0  0  0  0  0
  144.2384   73.8844  218.0585 H   0  0  0  0  0  0  0  0  0  0  0  0
  144.7004   72.2092  217.4778 H   0  0  0  0  0  0  0  0  0  0  0  0
  142.5785   72.1836  218.7217 H   0  0  0  0  0  0  0  0  0  0  0  0
  143.8282   71.2338  219.5415 H   0  0  0  0  0  0  0  0  0  0  0  0
  142.0045   71.2900  224.5920 H   0  0  0  0  0  0  0  0  0  0  0  0
  140.8206   72.4732  225.3106 H   0  0  0  0  0  0  0  0  0  0  0  0
  1  2  2  0
  2  3  1  0
  3  4  2  0
  4  5  1  0
  5  6  2  0
  5  7  1  0
  7  8  1  0
  8  9  1  0
  9 10  1  0
 10 11  2  0
 11 12  1  0
 12 13  1  0
 13 14  1  0
 14 15  1  0
 15 16  1  0
 16 17  1  0
 17 18  1  0
 18 19  1  0
 19 20  1  0
 12 21  2  0
 21 22  1  0
 22 23  1  0
 23 24  1  0
 24 25  1  0
 25 26  1  0
 26 27  1  0
 27 28  1  0
 22 29  2  0
  9 30  1  0
  6  1  1  0
 29 10  1  0
 30  4  1  0
 20 15  1  0
 28 23  1  0
  1 31  1  0
  2 32  1  0
  3 33  1  0
  6 34  1  0
  7 35  1  0
  7 36  1  0
  8 37  1  0
  8 38  1  0
 13 39  1  0
 14 40  1  0
 14 41  1  0
 15 42  1  0
 16 43  1  0
 16 44  1  0
 17 45  1  0
 17 46  1  0
 18 47  1  0
 18 48  1  0
 19 49  1  0
 19 50  1  0
 20 51  1  0
 20 52  1  0
 24 53  1  0
 24 54  1  0
 25 55  1  0
 25 56  1  0
 26 57  1  0
 27 58  1  0
 27 59  1  0
 28 60  1  0
 28 61  1  0
 30 62  1  0
 30 63  1  0
M  END
>  <smiles>  (3) 
c1ccc2c(c1)CCN(c1nc(NCC3CCCCC3)nc(N3CCNCC3)n1)C2

>  <score_type>  (3) 
oracle

>  <origin>  (3) 
autodockgpu

>  <m_score__min__energy>  (3) 
-9.9000000000000004

>  <m_primary>  (3) 
energy

>  <rmsd>  (3) 
3.9058265446626708

>  <m_score__min__rmsd>  (3) 
3.9058265446626708

>  <meeko>  (3) 
{"free_energy": -9.74, "intermolecular_energy": -11.23, "internal_energy": -0.94, "cluster_size": 39, "cluster_id": 1, "rank_in_cluster": 15}

>  <energy>  (3) 
-9.88

>  <cluster_rmsd>  (3) 
0.27

>  <cluster>  (3) 
1

$$$$

     RDKit          3D

 63 67  0  0  0  0  0  0  0  0999 V2000
  139.6360   68.1890  227.3730 C   0  0  0  0  0  0  0  0  0  0  0  0
  140.5240   69.1650  227.7760 C   0  0  0  0  0  0  0  0  0  0  0  0
  140.9690   70.1420  226.8960 C   0  0  0  0  0  0  0  0  0  0  0  0
  140.5340   70.1690  225.5790 C   0  0  0  0  0  0  0  0  0  0  0  0
  139.6440   69.1900  225.1780 C   0  0  0  0  0  0  0  0  0  0  0  0
  139.2070   68.2220  226.0610 C   0  0  0  0  0  0  0  0  0  0  0  0
  139.1740   69.2020  223.7920 C   0  0  0  0  0  0  0  0  0  0  0  0
  139.0920   70.5810  223.1980 C   0  0  0  0  0  0  0  0  0  0  0  0
  140.2500   71.3970  223.5030 N   0  0  0  0  0  0  0  0  0  0  0  0
  140.6530   72.4220  222.5950 C   0  0  0  0  0  0  0  0  0  0  0  0
  139.8990   73.5120  222.3500 N   0  0  0  0  0  0  0  0  0  0  0  0
  140.2570   74.4930  221.4990 C   0  0  0  0  0  0  0  0  0  0  0  0
  139.4360   75.6360  221.2600 N   0  0  0  0  0  0  0  0  0  0  0  0
  140.0450   76.8390  220.7540 C   0  0  0  0  0  0  0  0  0  0  0  0
  140.5830   77.6180  221.9390 C   0  0  0  0  0  0  0  0  0  0  0  0
  141.5680   78.6630  221.4590 C   0  0  0  0  0  0  0  0  0  0  0  0
  142.3310   79.1720  222.6390 C   0  0  0  0  0  0  0  0  0  0  0  0
  141.4230   79.2560  223.8270 C   0  0  0  0  0  0  0  0  0  0  0  0
  139.9630   79.4420  223.4280 C   0  0  0  0  0  0  0  0  0  0  0  0
  139.4500   78.1990  222.7220 C   0  0  0  0  0  0  0  0  0  0  0  0
  141.4500   74.3480  220.8640 N   0  0  0  0  0  0  0  0  0  0  0  0
  142.2460   73.2790  221.0700 C   0  0  0  0  0  0  0  0  0  0  0  0
  143.4980   73.1080  220.4170 N   0  0  0  0  0  0  0  0  0  0  0  0
  144.6560   73.8620  220.8260 C   0  0  0  0  0  0  0  0  0  0  0  0
  145.9420   73.2810  220.3500 C   0  0  0  0  0  0  0  0  0  0  0  0
  145.9350   73.0150  218.9450 N   0  0  0  0  0  0  0  0  0  0  0  0
  144.6430   72.7890  218.3720 C   0  0  0  0  0  0  0  0  0  0  0  0
  143.6420   72.1690  219.3230 C   0  0  0  0  0  0  0  0  0  0  0  0
  141.8220   72.3400  221.9350 N   0  0  0  0  0  0  0  0  0  0  0  0
  141.0440   71.2290  224.7070 C   0  0  0  0  0  0  0  0  0  0  0  0
  139.2834   67.4145  228.0700 H   0  0  0  0  0  0  0  0  0  0  0  0
  140.8863   69.1690  228.8146 H   0  0  0  0  0  0  0  0  0  0  0  0
  141.6773   70.9064  227.2483 H   0  0  0  0  0  0  0  0  0  0  0  0
  138.4986   67.4573  225.7098 H   0  0  0  0  0  0  0  0  0  0  0  0
  139.8671   68.6018  223.1842 H   0  0  0  0  0  0  0  0  0  0  0  0
  138.1545   68.7890  223.7927 H   0  0  0  0  0  0  0  0  0  0  0  0
  139.0065   70.4878  222.1053 H   0  0  0  0  0  0  0  0  0  0  0  0
  138.2140   71.0774  223.6369 H   0  0  0  0  0  0  0  0  0  0  0  0
  138.4220   75.5400  221.4690 H   0  0  0  0  0  0  0  0  0  0  0  0
  140.8672   76.5832  220.0695 H   0  0  0  0  0  0  0  0  0  0  0  0
  139.3084   77.4400  220.2006 H   0  0  0  0  0  0  0  0  0  0  0  0
  141.1302   76.9487  222.6192 H   0  0  0  0  0  0  0  0  0  0  0  0
  142.2623   78.2133  220.7339 H   0  0  0  0  0  0  0  0  0  0  0  0
  141.0321   79.4904  220.9709 H   0  0  0  0  0  0  0  0  0  0  0  0
  143.1618   78.4861  222.8612 H   0  0  0  0  0  0  0  0  0  0  0  0
  142.7292   80.1721  222.4125 H   0  0  0  0  0  0  0  0  0  0  0  0
  141.5150   78.3270  224.4089 H   0  0  0  0  0  0  0  0  0  0  0  0
  141.7242   80.1327  224.4192 H   0  0  0  0  0  0  0  0  0  0  0  0
  139.3599   79.6226  224.3301 H   0  0  0  0  0  0  0  0  0  0  0  0
  139.8840   80.3010  222.7454 H   0  0  0  0  0  0  0  0  0  0  0  0
  139.0935   77.4682  223.4628 H   0  0  0  0  0  0  0  0  0  0  0  0
  138.6129   78.4536  222.0554 H   0  0  0  0  0  0  0  0  0  0  0  0
  144.5659   74.8827  220.4260 H   0  0  0  0  0  0  0  0  0  0  0  0
  144.6809   73.8454  221.9256 H   0  0  0  0  0  0  0  0  0  0  0  0
  146.7530   73.9906  220.5708 H   0  0  0  0  0  0  0  0  0  0  0  0
  146.0898   72.3236  220.8711 H   0  0  0  0  0  0  0  0  0  0  0  0
  146.3600   73.8150  218.4080 H   0  0  0  0  0  0  0  0  0  0  0  0
  144.2427   73.7555  218.0318 H   0  0  0  0  0  0  0  0  0  0  0  0
  144.7832   72.0723  217.5494 H   0  0  0  0  0  0  0  0  0  0  0  0
  142.6764   72.0194  218.8178 H   0  0  0  0  0  0  0  0  0  0  0  0
  143.9795   71.1842  219.6783 H   0  0  0  0  0  0  0  0  0  0  0  0
  142.0751   70.9793  224.4162 H   0  0  0  0  0  0  0  0  0  0  0  0
  140.9963   72.1729  225.2699 H   0  0  0  0  0  0  0  0  0  0  0  0
  1  2  2  0
  2  3  1  0
  3  4  2  0
  4  5  1  0
  5  6  2  0
  5  7  1  0
  7  8  1  0
  8  9  1  0
  9 10  1  0
 10 11  2  0
 11 12  1  0
 12 13  1  0
 13 14  1  0
 14 15  1  0
 15 16  1  0
 16 17  1  0
 17 18  1  0
 18 19  1  0
 19 20  1  0
 12 21  2  0
 21 22  1  0
 22 23  1  0
 23 24  1  0
 24 25  1  0
 25 26  1  0
 26 27  1  0
 27 28  1  0
 22 29  2  0
  9 30  1  0
  6  1  1  0
 29 10  1  0
 30  4  1  0
 20 15  1  0
 28 23  1  0
  1 31  1  0
  2 32  1  0
  3 33  1  0
  6 34  1  0
  7 35  1  0
  7 36  1  0
  8 37  1  0
  8 38  1  0
 13 39  1  0
 14 40  1  0
 14 41  1  0
 15 42  1  0
 16 43  1  0
 16 44  1  0
 17 45  1  0
 17 46  1  0
 18 47  1  0
 18 48  1  0
 19 49  1  0
 19 50  1  0
 20 51  1  0
 20 52  1  0
 24 53  1  0
 24 54  1  0
 25 55  1  0
 25 56  1  0
 26 57  1  0
 27 58  1  0
 27 59  1  0
 28 60  1  0
 28 61  1  0
 30 62  1  0
 30 63  1  0
M  END
>  <smiles>  (4) 
c1ccc2c(c1)CCN(c1nc(NCC3CCCCC3)nc(N3CCNCC3)n1)C2

>  <score_type>  (4) 
oracle

>  <origin>  (4) 
autodockgpu

>  <m_score__min__energy>  (4) 
-9.9000000000000004

>  <m_primary>  (4) 
energy

>  <rmsd>  (4) 
3.895350735425318

>  <m_score__min__rmsd>  (4) 
3.895350735425318

>  <meeko>  (4) 
{"free_energy": -9.86, "intermolecular_energy": -11.35, "internal_energy": -0.94, "cluster_size": 39, "cluster_id": 1, "rank_in_cluster": 5}

>  <energy>  (4) 
-9.87

>  <cluster_rmsd>  (4) 
0.08

>  <cluster>  (4) 
1

$$$$

     RDKit          3D

 63 67  0  0  0  0  0  0  0  0999 V2000
  139.2000   68.4060  226.9180 C   0  0  0  0  0  0  0  0  0  0  0  0
  140.0460   69.3730  227.4220 C   0  0  0  0  0  0  0  0  0  0  0  0
  140.5640   70.3720  226.6100 C   0  0  0  0  0  0  0  0  0  0  0  0
  140.2460   70.4330  225.2610 C   0  0  0  0  0  0  0  0  0  0  0  0
  139.3980   69.4630  224.7580 C   0  0  0  0  0  0  0  0  0  0  0  0
  138.8890   68.4720  225.5750 C   0  0  0  0  0  0  0  0  0  0  0  0
  139.0520   69.5110  223.3370 C   0  0  0  0  0  0  0  0  0  0  0  0
  139.0180   70.9040  222.7730 C   0  0  0  0  0  0  0  0  0  0  0  0
  140.1420   71.7130  223.2000 N   0  0  0  0  0  0  0  0  0  0  0  0
  140.6200   72.7620  222.3580 C   0  0  0  0  0  0  0  0  0  0  0  0
  139.9510   73.9200  222.1880 N   0  0  0  0  0  0  0  0  0  0  0  0
  140.3800   74.9230  221.4000 C   0  0  0  0  0  0  0  0  0  0  0  0
  139.6480   76.1390  221.2420 N   0  0  0  0  0  0  0  0  0  0  0  0
  139.1720   76.8240  222.4160 C   0  0  0  0  0  0  0  0  0  0  0  0
  139.9520   78.1190  222.5410 C   0  0  0  0  0  0  0  0  0  0  0  0
  139.1790   79.0990  223.3990 C   0  0  0  0  0  0  0  0  0  0  0  0
  139.7810   80.4570  223.2270 C   0  0  0  0  0  0  0  0  0  0  0  0
  141.2680   80.3350  223.1010 C   0  0  0  0  0  0  0  0  0  0  0  0
  141.8070   79.0850  223.7880 C   0  0  0  0  0  0  0  0  0  0  0  0
  141.3230   77.8390  223.0650 C   0  0  0  0  0  0  0  0  0  0  0  0
  141.5580   74.7310  220.7490 N   0  0  0  0  0  0  0  0  0  0  0  0
  142.2700   73.5940  220.8800 C   0  0  0  0  0  0  0  0  0  0  0  0
  143.5050   73.3710  220.2090 N   0  0  0  0  0  0  0  0  0  0  0  0
  144.7550   73.7620  220.8090 C   0  0  0  0  0  0  0  0  0  0  0  0
  145.9400   73.0980  220.1970 C   0  0  0  0  0  0  0  0  0  0  0  0
  145.9590   73.2180  218.7730 N   0  0  0  0  0  0  0  0  0  0  0  0
  144.6800   73.3960  218.1560 C   0  0  0  0  0  0  0  0  0  0  0  0
  143.5360   72.7440  218.9030 C   0  0  0  0  0  0  0  0  0  0  0  0
  141.7780   72.6340  221.6850 N   0  0  0  0  0  0  0  0  0  0  0  0
  140.8280   71.5150  224.4650 C   0  0  0  0  0  0  0  0  0  0  0  0
  138.7897   67.6138  227.5615 H   0  0  0  0  0  0  0  0  0  0  0  0
  140.3150   69.3514  228.4884 H   0  0  0  0  0  0  0  0  0  0  0  0
  141.2370   71.1270  227.0425 H   0  0  0  0  0  0  0  0  0  0  0  0
  138.2177   67.7150  225.1434 H   0  0  0  0  0  0  0  0  0  0  0  0
  139.7978   68.9273  222.7775 H   0  0  0  0  0  0  0  0  0  0  0  0
  138.0374   69.0978  223.2377 H   0  0  0  0  0  0  0  0  0  0  0  0
  139.0298   70.8385  221.6750 H   0  0  0  0  0  0  0  0  0  0  0  0
  138.1028   71.3882  223.1444 H   0  0  0  0  0  0  0  0  0  0  0  0
  139.4920   76.4720  220.2690 H   0  0  0  0  0  0  0  0  0  0  0  0
  138.0985   77.0413  222.3138 H   0  0  0  0  0  0  0  0  0  0  0  0
  139.3141   76.2002  223.3108 H   0  0  0  0  0  0  0  0  0  0  0  0
  140.0787   78.5855  221.5529 H   0  0  0  0  0  0  0  0  0  0  0  0
  138.1253   79.1175  223.0838 H   0  0  0  0  0  0  0  0  0  0  0  0
  139.2281   78.7958  224.4552 H   0  0  0  0  0  0  0  0  0  0  0  0
  139.3739   80.9256  222.3189 H   0  0  0  0  0  0  0  0  0  0  0  0
  139.5383   81.0777  224.1021 H   0  0  0  0  0  0  0  0  0  0  0  0
  141.5301   80.2927  222.0335 H   0  0  0  0  0  0  0  0  0  0  0  0
  141.7199   81.2097  223.5916 H   0  0  0  0  0  0  0  0  0  0  0  0
  142.9067   79.1087  223.7748 H   0  0  0  0  0  0  0  0  0  0  0  0
  141.4444   79.0613  224.8262 H   0  0  0  0  0  0  0  0  0  0  0  0
  142.0011   77.6026  222.2317 H   0  0  0  0  0  0  0  0  0  0  0  0
  141.3041   76.9794  223.7511 H   0  0  0  0  0  0  0  0  0  0  0  0
  144.8694   74.8504  220.6979 H   0  0  0  0  0  0  0  0  0  0  0  0
  144.7189   73.4525  221.8640 H   0  0  0  0  0  0  0  0  0  0  0  0
  146.8521   73.5604  220.6023 H   0  0  0  0  0  0  0  0  0  0  0  0
  145.8869   72.0269  220.4418 H   0  0  0  0  0  0  0  0  0  0  0  0
  146.5480   74.0380  218.4720 H   0  0  0  0  0  0  0  0  0  0  0  0
  144.4770   74.4749  218.0873 H   0  0  0  0  0  0  0  0  0  0  0  0
  144.7331   72.9094  217.1709 H   0  0  0  0  0  0  0  0  0  0  0  0
  142.5869   72.9151  218.3740 H   0  0  0  0  0  0  0  0  0  0  0  0
  143.6733   71.6554  218.9811 H   0  0  0  0  0  0  0  0  0  0  0  0
  141.8813   71.2734  224.2599 H   0  0  0  0  0  0  0  0  0  0  0  0
  140.7288   72.4442  225.0453 H   0  0  0  0  0  0  0  0  0  0  0  0
  1  2  2  0
  2  3  1  0
  3  4  2  0
  4  5  1  0
  5  6  2  0
  5  7  1  0
  7  8  1  0
  8  9  1  0
  9 10  1  0
 10 11  2  0
 11 12  1  0
 12 13  1  0
 13 14  1  0
 14 15  1  0
 15 16  1  0
 16 17  1  0
 17 18  1  0
 18 19  1  0
 19 20  1  0
 12 21  2  0
 21 22  1  0
 22 23  1  0
 23 24  1  0
 24 25  1  0
 25 26  1  0
 26 27  1  0
 27 28  1  0
 22 29  2  0
  9 30  1  0
  6  1  1  0
 29 10  1  0
 30  4  1  0
 20 15  1  0
 28 23  1  0
  1 31  1  0
  2 32  1  0
  3 33  1  0
  6 34  1  0
  7 35  1  0
  7 36  1  0
  8 37  1  0
  8 38  1  0
 13 39  1  0
 14 40  1  0
 14 41  1  0
 15 42  1  0
 16 43  1  0
 16 44  1  0
 17 45  1  0
 17 46  1  0
 18 47  1  0
 18 48  1  0
 19 49  1  0
 19 50  1  0
 20 51  1  0
 20 52  1  0
 24 53  1  0
 24 54  1  0
 25 55  1  0
 25 56  1  0
 26 57  1  0
 27 58  1  0
 27 59  1  0
 28 60  1  0
 28 61  1  0
 30 62  1  0
 30 63  1  0
M  END
>  <smiles>  (5) 
c1ccc2c(c1)CCN(c1nc(NCC3CCCCC3)nc(N3CCNCC3)n1)C2

>  <score_type>  (5) 
oracle

>  <origin>  (5) 
autodockgpu

>  <m_score__min__energy>  (5) 
-9.9000000000000004

>  <m_primary>  (5) 
energy

>  <rmsd>  (5) 
3.8629362451408555

>  <m_score__min__rmsd>  (5) 
3.8629362451408555

>  <meeko>  (5) 
{"free_energy": -9.67, "intermolecular_energy": -11.16, "internal_energy": -0.9, "cluster_size": 39, "cluster_id": 1, "rank_in_cluster": 23}

>  <energy>  (5) 
-9.86

>  <cluster_rmsd>  (5) 
0.18

>  <cluster>  (5) 
1

$$$$

     RDKit          3D

 63 67  0  0  0  0  0  0  0  0999 V2000
  139.5950   68.5730  227.6130 C   0  0  0  0  0  0  0  0  0  0  0  0
  140.4110   69.6230  227.9850 C   0  0  0  0  0  0  0  0  0  0  0  0
  140.8440   70.5620  227.0610 C   0  0  0  0  0  0  0  0  0  0  0  0
  140.4710   70.4770  225.7270 C   0  0  0  0  0  0  0  0  0  0  0  0
  139.6540   69.4250  225.3560 C   0  0  0  0  0  0  0  0  0  0  0  0
  139.2280   68.4950  226.2850 C   0  0  0  0  0  0  0  0  0  0  0  0
  139.2500   69.3190  223.9540 C   0  0  0  0  0  0  0  0  0  0  0  0
  139.1230   70.6480  223.2630 C   0  0  0  0  0  0  0  0  0  0  0  0
  140.2210   71.5460  223.5610 N   0  0  0  0  0  0  0  0  0  0  0  0
  140.6100   72.5300  222.6030 C   0  0  0  0  0  0  0  0  0  0  0  0
  139.8460   73.5990  222.3070 N   0  0  0  0  0  0  0  0  0  0  0  0
  140.1920   74.5400  221.4080 C   0  0  0  0  0  0  0  0  0  0  0  0
  139.3580   75.6630  221.1160 N   0  0  0  0  0  0  0  0  0  0  0  0
  138.8680   76.4680  222.2050 C   0  0  0  0  0  0  0  0  0  0  0  0
  139.6970   77.7370  222.2510 C   0  0  0  0  0  0  0  0  0  0  0  0
  138.9950   78.7760  223.0990 C   0  0  0  0  0  0  0  0  0  0  0  0
  139.6380   80.1030  222.8520 C   0  0  0  0  0  0  0  0  0  0  0  0
  141.1140   79.9200  222.6750 C   0  0  0  0  0  0  0  0  0  0  0  0
  141.6340   78.6780  223.3890 C   0  0  0  0  0  0  0  0  0  0  0  0
  141.0780   77.4250  222.7330 C   0  0  0  0  0  0  0  0  0  0  0  0
  141.3840   74.3770  220.7770 N   0  0  0  0  0  0  0  0  0  0  0  0
  142.1910   73.3270  221.0320 C   0  0  0  0  0  0  0  0  0  0  0  0
  143.4430   73.1360  220.3850 N   0  0  0  0  0  0  0  0  0  0  0  0
  144.6200   73.8410  220.8250 C   0  0  0  0  0  0  0  0  0  0  0  0
  145.8920   73.2340  220.3420 C   0  0  0  0  0  0  0  0  0  0  0  0
  145.8880   73.0100  218.9300 N   0  0  0  0  0  0  0  0  0  0  0  0
  144.5950   72.8420  218.3400 C   0  0  0  0  0  0  0  0  0  0  0  0
  143.5680   72.2250  219.2640 C   0  0  0  0  0  0  0  0  0  0  0  0
  141.7790   72.4260  221.9440 N   0  0  0  0  0  0  0  0  0  0  0  0
  140.9650   71.5030  224.8070 C   0  0  0  0  0  0  0  0  0  0  0  0
  139.2512   67.8284  228.3460 H   0  0  0  0  0  0  0  0  0  0  0  0
  140.7238   69.7165  229.0354 H   0  0  0  0  0  0  0  0  0  0  0  0
  141.4930   71.3868  227.3904 H   0  0  0  0  0  0  0  0  0  0  0  0
  138.5786   67.6700  225.9570 H   0  0  0  0  0  0  0  0  0  0  0  0
  140.0017   68.7195  223.4197 H   0  0  0  0  0  0  0  0  0  0  0  0
  138.2547   68.8509  223.9392 H   0  0  0  0  0  0  0  0  0  0  0  0
  139.0941   70.4774  222.1767 H   0  0  0  0  0  0  0  0  0  0  0  0
  138.2001   71.1227  223.6276 H   0  0  0  0  0  0  0  0  0  0  0  0
  139.1450   75.8430  220.1150 H   0  0  0  0  0  0  0  0  0  0  0  0
  137.8097   76.7179  222.0393 H   0  0  0  0  0  0  0  0  0  0  0  0
  138.9496   75.9203  223.1555 H   0  0  0  0  0  0  0  0  0  0  0  0
  139.8001   78.1622  221.2418 H   0  0  0  0  0  0  0  0  0  0  0  0
  137.9310   78.8223  222.8239 H   0  0  0  0  0  0  0  0  0  0  0  0
  139.0752   78.5106  224.1635 H   0  0  0  0  0  0  0  0  0  0  0  0
  139.2130   80.5523  221.9423 H   0  0  0  0  0  0  0  0  0  0  0  0
  139.4520   80.7649  223.7106 H   0  0  0  0  0  0  0  0  0  0  0  0
  141.3324   79.8277  221.6009 H   0  0  0  0  0  0  0  0  0  0  0  0
  141.6160   80.7948  223.1141 H   0  0  0  0  0  0  0  0  0  0  0  0
  142.7325   78.6602  223.3340 H   0  0  0  0  0  0  0  0  0  0  0  0
  141.3114   78.7065  224.4403 H   0  0  0  0  0  0  0  0  0  0  0  0
  141.7138   77.1332  221.8841 H   0  0  0  0  0  0  0  0  0  0  0  0
  141.0558   76.5922  223.4513 H   0  0  0  0  0  0  0  0  0  0  0  0
  144.5651   74.8753  220.4545 H   0  0  0  0  0  0  0  0  0  0  0  0
  144.6348   73.7915  221.9238 H   0  0  0  0  0  0  0  0  0  0  0  0
  146.7228   73.9110  220.5898 H   0  0  0  0  0  0  0  0  0  0  0  0
  146.0062   72.2577  220.8358 H   0  0  0  0  0  0  0  0  0  0  0  0
  146.3430   73.8130  218.4200 H   0  0  0  0  0  0  0  0  0  0  0  0
  144.2276   73.8303  218.0265 H   0  0  0  0  0  0  0  0  0  0  0  0
  144.7199   72.1470  217.4965 H   0  0  0  0  0  0  0  0  0  0  0  0
  142.6027   72.1197  218.7472 H   0  0  0  0  0  0  0  0  0  0  0  0
  143.8725   71.2203  219.5924 H   0  0  0  0  0  0  0  0  0  0  0  0
  142.0203   71.2922  224.5792 H   0  0  0  0  0  0  0  0  0  0  0  0
  140.8413   72.4782  225.3007 H   0  0  0  0  0  0  0  0  0  0  0  0
  1  2  2  0
  2  3  1  0
  3  4  2  0
  4  5  1  0
  5  6  2  0
  5  7  1  0
  7  8  1  0
  8  9  1  0
  9 10  1  0
 10 11  2  0
 11 12  1  0
 12 13  1  0
 13 14  1  0
 14 15  1  0
 15 16  1  0
 16 17  1  0
 17 18  1  0
 18 19  1  0
 19 20  1  0
 12 21  2  0
 21 22  1  0
 22 23  1  0
 23 24  1  0
 24 25  1  0
 25 26  1  0
 26 27  1  0
 27 28  1  0
 22 29  2  0
  9 30  1  0
  6  1  1  0
 29 10  1  0
 30  4  1  0
 20 15  1  0
 28 23  1  0
  1 31  1  0
  2 32  1  0
  3 33  1  0
  6 34  1  0
  7 35  1  0
  7 36  1  0
  8 37  1  0
  8 38  1  0
 13 39  1  0
 14 40  1  0
 14 41  1  0
 15 42  1  0
 16 43  1  0
 16 44  1  0
 17 45  1  0
 17 46  1  0
 18 47  1  0
 18 48  1  0
 19 49  1  0
 19 50  1  0
 20 51  1  0
 20 52  1  0
 24 53  1  0
 24 54  1  0
 25 55  1  0
 25 56  1  0
 26 57  1  0
 27 58  1  0
 27 59  1  0
 28 60  1  0
 28 61  1  0
 30 62  1  0
 30 63  1  0
M  END
>  <smiles>  (6) 
c1ccc2c(c1)CCN(c1nc(NCC3CCCCC3)nc(N3CCNCC3)n1)C2

>  <score_type>  (6) 
oracle

>  <origin>  (6) 
autodockgpu

>  <m_score__min__energy>  (6) 
-9.9000000000000004

>  <m_primary>  (6) 
energy

>  <rmsd>  (6) 
3.906709246847379

>  <m_score__min__rmsd>  (6) 
3.906709246847379

>  <meeko>  (6) 
{"free_energy": -9.74, "intermolecular_energy": -11.23, "internal_energy": -0.94, "cluster_size": 39, "cluster_id": 1, "rank_in_cluster": 16}

>  <energy>  (6) 
-9.86

>  <cluster_rmsd>  (6) 
0.25

>  <cluster>  (6) 
1

$$$$

     RDKit          3D

 63 67  0  0  0  0  0  0  0  0999 V2000
  139.5860   68.4990  227.4800 C   0  0  0  0  0  0  0  0  0  0  0  0
  140.4300   69.5140  227.8830 C   0  0  0  0  0  0  0  0  0  0  0  0
  140.8820   70.4730  226.9870 C   0  0  0  0  0  0  0  0  0  0  0  0
  140.5000   70.4410  225.6530 C   0  0  0  0  0  0  0  0  0  0  0  0
  139.6540   69.4230  225.2530 C   0  0  0  0  0  0  0  0  0  0  0  0
  139.2100   68.4740  226.1530 C   0  0  0  0  0  0  0  0  0  0  0  0
  139.2400   69.3740  223.8500 C   0  0  0  0  0  0  0  0  0  0  0  0
  139.1430   70.7280  223.2040 C   0  0  0  0  0  0  0  0  0  0  0  0
  140.2660   71.5880  223.5250 N   0  0  0  0  0  0  0  0  0  0  0  0
  140.6750   72.5920  222.5980 C   0  0  0  0  0  0  0  0  0  0  0  0
  139.9470   73.7000  222.3570 N   0  0  0  0  0  0  0  0  0  0  0  0
  140.3120   74.6620  221.4880 C   0  0  0  0  0  0  0  0  0  0  0  0
  139.5180   75.8250  221.2560 N   0  0  0  0  0  0  0  0  0  0  0  0
  140.1570   77.0200  220.7710 C   0  0  0  0  0  0  0  0  0  0  0  0
  140.7040   77.7700  221.9700 C   0  0  0  0  0  0  0  0  0  0  0  0
  141.6550   78.8530  221.5050 C   0  0  0  0  0  0  0  0  0  0  0  0
  142.4340   79.3380  222.6850 C   0  0  0  0  0  0  0  0  0  0  0  0
  141.5510   79.3620  223.8950 C   0  0  0  0  0  0  0  0  0  0  0  0
  140.0800   79.5290  223.5340 C   0  0  0  0  0  0  0  0  0  0  0  0
  139.5770   78.2990  222.7970 C   0  0  0  0  0  0  0  0  0  0  0  0
  141.4870   74.4780  220.8290 N   0  0  0  0  0  0  0  0  0  0  0  0
  142.2570   73.3900  221.0280 C   0  0  0  0  0  0  0  0  0  0  0  0
  143.4890   73.1770  220.3500 N   0  0  0  0  0  0  0  0  0  0  0  0
  144.7090   73.7820  220.8220 C   0  0  0  0  0  0  0  0  0  0  0  0
  145.9390   73.1420  220.2770 C   0  0  0  0  0  0  0  0  0  0  0  0
  145.9070   73.0220  218.8530 N   0  0  0  0  0  0  0  0  0  0  0  0
  144.6000   72.9690  218.2720 C   0  0  0  0  0  0  0  0  0  0  0  0
  143.5500   72.3450  219.1650 C   0  0  0  0  0  0  0  0  0  0  0  0
  141.8270   72.4710  221.9130 N   0  0  0  0  0  0  0  0  0  0  0  0
  141.0150   71.4850  224.7650 C   0  0  0  0  0  0  0  0  0  0  0  0
  139.2269   67.7392  228.1897 H   0  0  0  0  0  0  0  0  0  0  0  0
  140.7505   69.5639  228.9341 H   0  0  0  0  0  0  0  0  0  0  0  0
  141.5530   71.2702  227.3394 H   0  0  0  0  0  0  0  0  0  0  0  0
  138.5384   67.6767  225.8021 H   0  0  0  0  0  0  0  0  0  0  0  0
  139.9736   68.7739  223.2916 H   0  0  0  0  0  0  0  0  0  0  0  0
  138.2330   68.9319  223.8258 H   0  0  0  0  0  0  0  0  0  0  0  0
  139.1039   70.5943  222.1128 H   0  0  0  0  0  0  0  0  0  0  0  0
  138.2344   71.2135  223.5897 H   0  0  0  0  0  0  0  0  0  0  0  0
  138.5000   75.7470  221.4530 H   0  0  0  0  0  0  0  0  0  0  0  0
  140.9780   76.7551  220.0885 H   0  0  0  0  0  0  0  0  0  0  0  0
  139.4380   77.6450  220.2211 H   0  0  0  0  0  0  0  0  0  0  0  0
  141.2803   77.0899  222.6145 H   0  0  0  0  0  0  0  0  0  0  0  0
  142.3419   78.4443  220.7493 H   0  0  0  0  0  0  0  0  0  0  0  0
  141.0902   79.6846  221.0583 H   0  0  0  0  0  0  0  0  0  0  0  0
  143.2837   78.6630  222.8652 H   0  0  0  0  0  0  0  0  0  0  0  0
  142.8064   80.3534  222.4844 H   0  0  0  0  0  0  0  0  0  0  0  0
  141.6757   78.4163  224.4428 H   0  0  0  0  0  0  0  0  0  0  0  0
  141.8466   80.2245  224.5104 H   0  0  0  0  0  0  0  0  0  0  0  0
  139.4934   79.6662  224.4544 H   0  0  0  0  0  0  0  0  0  0  0  0
  139.9682   80.4082  222.8825 H   0  0  0  0  0  0  0  0  0  0  0  0
  139.2529   77.5359  223.5200 H   0  0  0  0  0  0  0  0  0  0  0  0
  138.7196   78.5574  222.1582 H   0  0  0  0  0  0  0  0  0  0  0  0
  144.7085   74.8420  220.5280 H   0  0  0  0  0  0  0  0  0  0  0  0
  144.7333   73.6521  221.9140 H   0  0  0  0  0  0  0  0  0  0  0  0
  146.8095   73.7518  220.5604 H   0  0  0  0  0  0  0  0  0  0  0  0
  146.0028   72.1274  220.6972 H   0  0  0  0  0  0  0  0  0  0  0  0
  146.4010   73.8330  218.3950 H   0  0  0  0  0  0  0  0  0  0  0  0
  144.2856   73.9962  218.0354 H   0  0  0  0  0  0  0  0  0  0  0  0
  144.6762   72.3307  217.3794 H   0  0  0  0  0  0  0  0  0  0  0  0
  142.5746   72.3316  218.6566 H   0  0  0  0  0  0  0  0  0  0  0  0
  143.8010   71.3038  219.4158 H   0  0  0  0  0  0  0  0  0  0  0  0
  142.0637   71.2561  224.5244 H   0  0  0  0  0  0  0  0  0  0  0  0
  140.9180   72.4458  225.2917 H   0  0  0  0  0  0  0  0  0  0  0  0
  1  2  2  0
  2  3  1  0
  3  4  2  0
  4  5  1  0
  5  6  2  0
  5  7  1  0
  7  8  1  0
  8  9  1  0
  9 10  1  0
 10 11  2  0
 11 12  1  0
 12 13  1  0
 13 14  1  0
 14 15  1  0
 15 16  1  0
 16 17  1  0
 17 18  1  0
 18 19  1  0
 19 20  1  0
 12 21  2  0
 21 22  1  0
 22 23  1  0
 23 24  1  0
 24 25  1  0
 25 26  1  0
 26 27  1  0
 27 28  1  0
 22 29  2  0
  9 30  1  0
  6  1  1  0
 29 10  1  0
 30  4  1  0
 20 15  1  0
 28 23  1  0
  1 31  1  0
  2 32  1  0
  3 33  1  0
  6 34  1  0
  7 35  1  0
  7 36  1  0
  8 37  1  0
  8 38  1  0
 13 39  1  0
 14 40  1  0
 14 41  1  0
 15 42  1  0
 16 43  1  0
 16 44  1  0
 17 45  1  0
 17 46  1  0
 18 47  1  0
 18 48  1  0
 19 49  1  0
 19 50  1  0
 20 51  1  0
 20 52  1  0
 24 53  1  0
 24 54  1  0
 25 55  1  0
 25 56  1  0
 26 57  1  0
 27 58  1  0
 27 59  1  0
 28 60  1  0
 28 61  1  0
 30 62  1  0
 30 63  1  0
M  END
>  <smiles>  (7) 
c1ccc2c(c1)CCN(c1nc(NCC3CCCCC3)nc(N3CCNCC3)n1)C2

>  <score_type>  (7) 
oracle

>  <origin>  (7) 
autodockgpu

>  <m_score__min__energy>  (7) 
-9.9000000000000004

>  <m_primary>  (7) 
energy

>  <rmsd>  (7) 
3.897317357999485

>  <m_score__min__rmsd>  (7) 
3.897317357999485

>  <meeko>  (7) 
{"free_energy": -9.86, "intermolecular_energy": -11.35, "internal_energy": -0.94, "cluster_size": 39, "cluster_id": 1, "rank_in_cluster": 7}

>  <energy>  (7) 
-9.86

>  <cluster_rmsd>  (7) 
0.24

>  <cluster>  (7) 
1

$$$$

     RDKit          3D

 63 67  0  0  0  0  0  0  0  0999 V2000
  139.2380   68.2770  226.7170 C   0  0  0  0  0  0  0  0  0  0  0  0
  140.0530   69.2380  227.2800 C   0  0  0  0  0  0  0  0  0  0  0  0
  140.5800   70.2730  226.5190 C   0  0  0  0  0  0  0  0  0  0  0  0
  140.3020   70.3750  225.1630 C   0  0  0  0  0  0  0  0  0  0  0  0
  139.4850   69.4110  224.6020 C   0  0  0  0  0  0  0  0  0  0  0  0
  138.9660   68.3850  225.3680 C   0  0  0  0  0  0  0  0  0  0  0  0
  139.1820   69.5030  223.1730 C   0  0  0  0  0  0  0  0  0  0  0  0
  139.1430   70.9140  222.6560 C   0  0  0  0  0  0  0  0  0  0  0  0
  140.2420   71.7240  223.1450 N   0  0  0  0  0  0  0  0  0  0  0  0
  140.7280   72.8080  222.3540 C   0  0  0  0  0  0  0  0  0  0  0  0
  140.1030   74.0000  222.2920 N   0  0  0  0  0  0  0  0  0  0  0  0
  140.5420   75.0380  221.5540 C   0  0  0  0  0  0  0  0  0  0  0  0
  139.8570   76.2890  221.5090 N   0  0  0  0  0  0  0  0  0  0  0  0
  140.3950   77.3500  220.6980 C   0  0  0  0  0  0  0  0  0  0  0  0
  141.3040   78.1880  221.5770 C   0  0  0  0  0  0  0  0  0  0  0  0
  141.1170   79.6550  221.2540 C   0  0  0  0  0  0  0  0  0  0  0  0
  142.2440   80.4230  221.8660 C   0  0  0  0  0  0  0  0  0  0  0  0
  142.6000   79.8220  223.1910 C   0  0  0  0  0  0  0  0  0  0  0  0
  141.4240   79.0970  223.8330 C   0  0  0  0  0  0  0  0  0  0  0  0
  141.0540   77.8700  223.0160 C   0  0  0  0  0  0  0  0  0  0  0  0
  141.6830   74.8430  220.8400 N   0  0  0  0  0  0  0  0  0  0  0  0
  142.3500   73.6720  220.8630 C   0  0  0  0  0  0  0  0  0  0  0  0
  143.5450   73.4460  220.1250 N   0  0  0  0  0  0  0  0  0  0  0  0
  144.8380   73.6810  220.7170 C   0  0  0  0  0  0  0  0  0  0  0  0
  145.9540   73.0140  219.9900 C   0  0  0  0  0  0  0  0  0  0  0  0
  145.9390   73.2970  218.5890 N   0  0  0  0  0  0  0  0  0  0  0  0
  144.6570   73.6290  218.0450 C   0  0  0  0  0  0  0  0  0  0  0  0
  143.4930   72.9730  218.7560 C   0  0  0  0  0  0  0  0  0  0  0  0
  141.8510   72.6800  221.6240 N   0  0  0  0  0  0  0  0  0  0  0  0
  140.8910   71.4920  224.4230 C   0  0  0  0  0  0  0  0  0  0  0  0
  138.8213   67.4567  227.3199 H   0  0  0  0  0  0  0  0  0  0  0  0
  140.2898   69.1829  228.3528 H   0  0  0  0  0  0  0  0  0  0  0  0
  141.2271   71.0228  226.9977 H   0  0  0  0  0  0  0  0  0  0  0  0
  138.3190   67.6345  224.8903 H   0  0  0  0  0  0  0  0  0  0  0  0
  139.9539   68.9502  222.6175 H   0  0  0  0  0  0  0  0  0  0  0  0
  138.1777   69.0783  223.0281 H   0  0  0  0  0  0  0  0  0  0  0  0
  139.1886   70.8868  221.5573 H   0  0  0  0  0  0  0  0  0  0  0  0
  138.2096   71.3719  223.0153 H   0  0  0  0  0  0  0  0  0  0  0  0
  138.9890   76.3720  222.0760 H   0  0  0  0  0  0  0  0  0  0  0  0
  140.9696   76.9269  219.8609 H   0  0  0  0  0  0  0  0  0  0  0  0
  139.5840   77.9672  220.2841 H   0  0  0  0  0  0  0  0  0  0  0  0
  142.3581   77.9464  221.3758 H   0  0  0  0  0  0  0  0  0  0  0  0
  141.1197   79.7980  220.1633 H   0  0  0  0  0  0  0  0  0  0  0  0
  140.1568   80.0100  221.6564 H   0  0  0  0  0  0  0  0  0  0  0  0
  143.1182   80.3839  221.1995 H   0  0  0  0  0  0  0  0  0  0  0  0
  141.9374   81.4695  222.0099 H   0  0  0  0  0  0  0  0  0  0  0  0
  143.4206   79.1042  223.0446 H   0  0  0  0  0  0  0  0  0  0  0  0
  142.8970   80.6410  223.8626 H   0  0  0  0  0  0  0  0  0  0  0  0
  141.7011   78.7856  224.8510 H   0  0  0  0  0  0  0  0  0  0  0  0
  140.5602   79.7771  223.8701 H   0  0  0  0  0  0  0  0  0  0  0  0
  141.6736   77.0147  223.3235 H   0  0  0  0  0  0  0  0  0  0  0  0
  139.9976   77.6070  223.1739 H   0  0  0  0  0  0  0  0  0  0  0  0
  145.0258   74.7648  220.7245 H   0  0  0  0  0  0  0  0  0  0  0  0
  144.8120   73.2553  221.7310 H   0  0  0  0  0  0  0  0  0  0  0  0
  146.9083   73.3637  220.4107 H   0  0  0  0  0  0  0  0  0  0  0  0
  145.8324   71.9278  220.1136 H   0  0  0  0  0  0  0  0  0  0  0  0
  146.5750   74.1060  218.3600 H   0  0  0  0  0  0  0  0  0  0  0  0
  144.5282   74.7197  218.1060 H   0  0  0  0  0  0  0  0  0  0  0  0
  144.6463   73.2561  217.0102 H   0  0  0  0  0  0  0  0  0  0  0  0
  142.5429   73.2667  218.2857 H   0  0  0  0  0  0  0  0  0  0  0  0
  143.5558   71.8760  218.7055 H   0  0  0  0  0  0  0  0  0  0  0  0
  141.9538   71.2730  224.2430 H   0  0  0  0  0  0  0  0  0  0  0  0
  140.7590   72.3989  225.0313 H   0  0  0  0  0  0  0  0  0  0  0  0
  1  2  2  0
  2  3  1  0
  3  4  2  0
  4  5  1  0
  5  6  2  0
  5  7  1  0
  7  8  1  0
  8  9  1  0
  9 10  1  0
 10 11  2  0
 11 12  1  0
 12 13  1  0
 13 14  1  0
 14 15  1  0
 15 16  1  0
 16 17  1  0
 17 18  1  0
 18 19  1  0
 19 20  1  0
 12 21  2  0
 21 22  1  0
 22 23  1  0
 23 24  1  0
 24 25  1  0
 25 26  1  0
 26 27  1  0
 27 28  1  0
 22 29  2  0
  9 30  1  0
  6  1  1  0
 29 10  1  0
 30  4  1  0
 20 15  1  0
 28 23  1  0
  1 31  1  0
  2 32  1  0
  3 33  1  0
  6 34  1  0
  7 35  1  0
  7 36  1  0
  8 37  1  0
  8 38  1  0
 13 39  1  0
 14 40  1  0
 14 41  1  0
 15 42  1  0
 16 43  1  0
 16 44  1  0
 17 45  1  0
 17 46  1  0
 18 47  1  0
 18 48  1  0
 19 49  1  0
 19 50  1  0
 20 51  1  0
 20 52  1  0
 24 53  1  0
 24 54  1  0
 25 55  1  0
 25 56  1  0
 26 57  1  0
 27 58  1  0
 27 59  1  0
 28 60  1  0
 28 61  1  0
 30 62  1  0
 30 63  1  0
M  END
>  <smiles>  (8) 
c1ccc2c(c1)CCN(c1nc(NCC3CCCCC3)nc(N3CCNCC3)n1)C2

>  <score_type>  (8) 
oracle

>  <origin>  (8) 
autodockgpu

>  <m_score__min__energy>  (8) 
-9.9000000000000004

>  <m_primary>  (8) 
energy

>  <rmsd>  (8) 
3.866250105118127

>  <m_score__min__rmsd>  (8) 
3.866250105118127

>  <meeko>  (8) 
{"free_energy": -9.69, "intermolecular_energy": -11.19, "internal_energy": -0.93, "cluster_size": 39, "cluster_id": 1, "rank_in_cluster": 19}

>  <energy>  (8) 
-9.83

>  <cluster_rmsd>  (8) 
0.22

>  <cluster>  (8) 
1

$$$$

     RDKit          3D

 63 67  0  0  0  0  0  0  0  0999 V2000
  139.5930   81.0140  223.3850 C   0  0  0  0  0  0  0  0  0  0  0  0
  140.9410   80.7190  223.4080 C   0  0  0  0  0  0  0  0  0  0  0  0
  141.4000   79.4270  223.1920 C   0  0  0  0  0  0  0  0  0  0  0  0
  140.5160   78.3870  222.9450 C   0  0  0  0  0  0  0  0  0  0  0  0
  139.1660   78.6850  222.9220 C   0  0  0  0  0  0  0  0  0  0  0  0
  138.7190   79.9740  223.1390 C   0  0  0  0  0  0  0  0  0  0  0  0
  138.2190   77.6000  222.6630 C   0  0  0  0  0  0  0  0  0  0  0  0
  138.7660   76.5260  221.7640 C   0  0  0  0  0  0  0  0  0  0  0  0
  140.1220   76.1430  222.1050 N   0  0  0  0  0  0  0  0  0  0  0  0
  140.5740   74.8170  221.8270 C   0  0  0  0  0  0  0  0  0  0  0  0
  139.8540   73.7230  222.1440 N   0  0  0  0  0  0  0  0  0  0  0  0
  140.2580   72.4640  221.8920 C   0  0  0  0  0  0  0  0  0  0  0  0
  139.4710   71.3240  222.2400 N   0  0  0  0  0  0  0  0  0  0  0  0
  138.7920   71.3070  223.5100 C   0  0  0  0  0  0  0  0  0  0  0  0
  139.6540   70.5260  224.4830 C   0  0  0  0  0  0  0  0  0  0  0  0
  140.3230   71.4780  225.4520 C   0  0  0  0  0  0  0  0  0  0  0  0
  141.4140   70.7430  226.1620 C   0  0  0  0  0  0  0  0  0  0  0  0
  140.9810   69.3340  226.4260 C   0  0  0  0  0  0  0  0  0  0  0  0
  139.4660   69.2010  226.5180 C   0  0  0  0  0  0  0  0  0  0  0  0
  138.8310   69.4810  225.1660 C   0  0  0  0  0  0  0  0  0  0  0  0
  141.4650   72.3160  221.2840 N   0  0  0  0  0  0  0  0  0  0  0  0
  142.2280   73.3740  220.9450 C   0  0  0  0  0  0  0  0  0  0  0  0
  143.4940   73.2430  220.3070 N   0  0  0  0  0  0  0  0  0  0  0  0
  144.6610   73.9050  220.8340 C   0  0  0  0  0  0  0  0  0  0  0  0
  145.9420   73.3450  220.3230 C   0  0  0  0  0  0  0  0  0  0  0  0
  145.9680   73.2500  218.8970 N   0  0  0  0  0  0  0  0  0  0  0  0
  144.6870   73.1370  218.2680 C   0  0  0  0  0  0  0  0  0  0  0  0
  143.6420   72.4380  219.1110 C   0  0  0  0  0  0  0  0  0  0  0  0
  141.7590   74.6030  221.2280 N   0  0  0  0  0  0  0  0  0  0  0  0
  141.0710   77.0500  222.7250 C   0  0  0  0  0  0  0  0  0  0  0  0
  139.2291   82.0379  223.5560 H   0  0  0  0  0  0  0  0  0  0  0  0
  141.6658   81.5235  223.6013 H   0  0  0  0  0  0  0  0  0  0  0  0
  142.4810   79.2248  223.2171 H   0  0  0  0  0  0  0  0  0  0  0  0
  137.6382   80.1771  223.1152 H   0  0  0  0  0  0  0  0  0  0  0  0
  137.9434   77.1419  223.6244 H   0  0  0  0  0  0  0  0  0  0  0  0
  137.3539   78.0427  222.1476 H   0  0  0  0  0  0  0  0  0  0  0  0
  138.1201   75.6391  221.8431 H   0  0  0  0  0  0  0  0  0  0  0  0
  138.7837   76.9288  220.7406 H   0  0  0  0  0  0  0  0  0  0  0  0
  139.4290   70.5500  221.5460 H   0  0  0  0  0  0  0  0  0  0  0  0
  138.6533   72.3355  223.8745 H   0  0  0  0  0  0  0  0  0  0  0  0
  137.8015   70.8389  223.4112 H   0  0  0  0  0  0  0  0  0  0  0  0
  140.4555   69.9994  223.9442 H   0  0  0  0  0  0  0  0  0  0  0  0
  140.7473   72.3305  224.9014 H   0  0  0  0  0  0  0  0  0  0  0  0
  139.5878   71.8549  226.1783 H   0  0  0  0  0  0  0  0  0  0  0  0
  142.3187   70.7369  225.5363 H   0  0  0  0  0  0  0  0  0  0  0  0
  141.6304   71.2438  227.1172 H   0  0  0  0  0  0  0  0  0  0  0  0
  141.3431   68.6938  225.6081 H   0  0  0  0  0  0  0  0  0  0  0  0
  141.4045   69.0281  227.3940 H   0  0  0  0  0  0  0  0  0  0  0  0
  139.2096   68.1794  226.8352 H   0  0  0  0  0  0  0  0  0  0  0  0
  139.0859   69.9284  227.2504 H   0  0  0  0  0  0  0  0  0  0  0  0
  138.8164   68.5619  224.5617 H   0  0  0  0  0  0  0  0  0  0  0  0
  137.7952   69.8291  225.2923 H   0  0  0  0  0  0  0  0  0  0  0  0
  144.6118   74.9690  220.5592 H   0  0  0  0  0  0  0  0  0  0  0  0
  144.6539   73.7552  221.9237 H   0  0  0  0  0  0  0  0  0  0  0  0
  146.7664   73.9966  220.6482 H   0  0  0  0  0  0  0  0  0  0  0  0
  146.0468   72.3275  220.7276 H   0  0  0  0  0  0  0  0  0  0  0  0
  146.4310   74.0960  218.4710 H   0  0  0  0  0  0  0  0  0  0  0  0
  144.3245   74.1500  218.0389 H   0  0  0  0  0  0  0  0  0  0  0  0
  144.8300   72.5220  217.3673 H   0  0  0  0  0  0  0  0  0  0  0  0
  142.6873   72.3809  218.5675 H   0  0  0  0  0  0  0  0  0  0  0  0
  143.9406   71.4071  219.3521 H   0  0  0  0  0  0  0  0  0  0  0  0
  141.3749   76.6313  223.6958 H   0  0  0  0  0  0  0  0  0  0  0  0
  141.9258   77.1543  222.0406 H   0  0  0  0  0  0  0  0  0  0  0  0
  1  2  2  0
  2  3  1  0
  3  4  2  0
  4  5  1  0
  5  6  2  0
  5  7  1  0
  7  8  1  0
  8  9  1  0
  9 10  1  0
 10 11  2  0
 11 12  1  0
 12 13  1  0
 13 14  1  0
 14 15  1  0
 15 16  1  0
 16 17  1  0
 17 18  1  0
 18 19  1  0
 19 20  1  0
 12 21  2  0
 21 22  1  0
 22 23  1  0
 23 24  1  0
 24 25  1  0
 25 26  1  0
 26 27  1  0
 27 28  1  0
 22 29  2  0
  9 30  1  0
  6  1  1  0
 29 10  1  0
 30  4  1  0
 20 15  1  0
 28 23  1  0
  1 31  1  0
  2 32  1  0
  3 33  1  0
  6 34  1  0
  7 35  1  0
  7 36  1  0
  8 37  1  0
  8 38  1  0
 13 39  1  0
 14 40  1  0
 14 41  1  0
 15 42  1  0
 16 43  1  0
 16 44  1  0
 17 45  1  0
 17 46  1  0
 18 47  1  0
 18 48  1  0
 19 49  1  0
 19 50  1  0
 20 51  1  0
 20 52  1  0
 24 53  1  0
 24 54  1  0
 25 55  1  0
 25 56  1  0
 26 57  1  0
 27 58  1  0
 27 59  1  0
 28 60  1  0
 28 61  1  0
 30 62  1  0
 30 63  1  0
M  END
>  <smiles>  (9) 
c1ccc2c(c1)CCN(c1nc(NCC3CCCCC3)nc(N3CCNCC3)n1)C2

>  <score_type>  (9) 
oracle

>  <origin>  (9) 
autodockgpu

>  <m_score__min__energy>  (9) 
-9.9000000000000004

>  <m_primary>  (9) 
energy

>  <rmsd>  (9) 
9.85494932988941

>  <m_score__min__rmsd>  (9) 
9.85494932988941

>  <meeko>  (9) 
{"free_energy": -9.55, "intermolecular_energy": -11.04, "internal_energy": -0.96, "cluster_size": 11, "cluster_id": 2, "rank_in_cluster": 4}

>  <energy>  (9) 
-9.83

>  <cluster_rmsd>  (9) 
0.18

>  <cluster>  (9) 
1

$$$$

     RDKit          3D

 63 67  0  0  0  0  0  0  0  0999 V2000
  139.2820   68.4340  226.9480 C   0  0  0  0  0  0  0  0  0  0  0  0
  140.2220   69.3350  227.4070 C   0  0  0  0  0  0  0  0  0  0  0  0
  140.7420   70.3180  226.5770 C   0  0  0  0  0  0  0  0  0  0  0  0
  140.3330   70.4280  225.2560 C   0  0  0  0  0  0  0  0  0  0  0  0
  139.3910   69.5250  224.7990 C   0  0  0  0  0  0  0  0  0  0  0  0
  138.8790   68.5490  225.6330 C   0  0  0  0  0  0  0  0  0  0  0  0
  138.9480   69.6260  223.4080 C   0  0  0  0  0  0  0  0  0  0  0  0
  138.9620   71.0310  222.8740 C   0  0  0  0  0  0  0  0  0  0  0  0
  140.1630   71.7580  223.2310 N   0  0  0  0  0  0  0  0  0  0  0  0
  140.6450   72.7940  222.3750 C   0  0  0  0  0  0  0  0  0  0  0  0
  139.9780   73.9490  222.1850 N   0  0  0  0  0  0  0  0  0  0  0  0
  140.4110   74.9400  221.3840 C   0  0  0  0  0  0  0  0  0  0  0  0
  139.6800   76.1540  221.2040 N   0  0  0  0  0  0  0  0  0  0  0  0
  140.3190   77.2610  220.5410 C   0  0  0  0  0  0  0  0  0  0  0  0
  140.4190   78.4000  221.5370 C   0  0  0  0  0  0  0  0  0  0  0  0
  139.5480   78.1040  222.7400 C   0  0  0  0  0  0  0  0  0  0  0  0
  139.3880   79.3630  223.5300 C   0  0  0  0  0  0  0  0  0  0  0  0
  140.6690   80.1390  223.5030 C   0  0  0  0  0  0  0  0  0  0  0  0
  141.8840   79.2450  223.2890 C   0  0  0  0  0  0  0  0  0  0  0  0
  141.8500   78.6390  221.8960 C   0  0  0  0  0  0  0  0  0  0  0  0
  141.5910   74.7370  220.7410 N   0  0  0  0  0  0  0  0  0  0  0  0
  142.3020   73.6020  220.8920 C   0  0  0  0  0  0  0  0  0  0  0  0
  143.5400   73.3680  220.2290 N   0  0  0  0  0  0  0  0  0  0  0  0
  144.7890   73.7480  220.8380 C   0  0  0  0  0  0  0  0  0  0  0  0
  145.9730   73.0740  220.2350 C   0  0  0  0  0  0  0  0  0  0  0  0
  146.0030   73.1930  218.8110 N   0  0  0  0  0  0  0  0  0  0  0  0
  144.7290   73.3820  218.1860 C   0  0  0  0  0  0  0  0  0  0  0  0
  143.5750   72.7400  218.9240 C   0  0  0  0  0  0  0  0  0  0  0  0
  141.8060   72.6550  221.7100 N   0  0  0  0  0  0  0  0  0  0  0  0
  140.9240   71.4900  224.4390 C   0  0  0  0  0  0  0  0  0  0  0  0
  138.8699   67.6542  227.6053 H   0  0  0  0  0  0  0  0  0  0  0  0
  140.5652   69.2725  228.4502 H   0  0  0  0  0  0  0  0  0  0  0  0
  141.4900   71.0208  226.9726 H   0  0  0  0  0  0  0  0  0  0  0  0
  138.1309   67.8457  225.2385 H   0  0  0  0  0  0  0  0  0  0  0  0
  139.6136   69.0103  222.7852 H   0  0  0  0  0  0  0  0  0  0  0  0
  137.9050   69.2780  223.3749 H   0  0  0  0  0  0  0  0  0  0  0  0
  138.8894   70.9903  221.7771 H   0  0  0  0  0  0  0  0  0  0  0  0
  138.1092   71.5626  223.3214 H   0  0  0  0  0  0  0  0  0  0  0  0
  138.7070   76.1760  221.5680 H   0  0  0  0  0  0  0  0  0  0  0  0
  141.3246   76.9670  220.2059 H   0  0  0  0  0  0  0  0  0  0  0  0
  139.7374   77.5699  219.6599 H   0  0  0  0  0  0  0  0  0  0  0  0
  140.0441   79.3322  221.0894 H   0  0  0  0  0  0  0  0  0  0  0  0
  138.5624   77.7476  222.4060 H   0  0  0  0  0  0  0  0  0  0  0  0
  140.0148   77.3255  223.3613 H   0  0  0  0  0  0  0  0  0  0  0  0
  138.5826   79.9705  223.0915 H   0  0  0  0  0  0  0  0  0  0  0  0
  139.1348   79.1118  224.5706 H   0  0  0  0  0  0  0  0  0  0  0  0
  140.6210   80.8721  222.6843 H   0  0  0  0  0  0  0  0  0  0  0  0
  140.7832   80.6328  224.4793 H   0  0  0  0  0  0  0  0  0  0  0  0
  142.8000   79.8433  223.4028 H   0  0  0  0  0  0  0  0  0  0  0  0
  141.8697   78.4353  224.0334 H   0  0  0  0  0  0  0  0  0  0  0  0
  142.3059   79.3331  221.1747 H   0  0  0  0  0  0  0  0  0  0  0  0
  142.4148   77.6953  221.8734 H   0  0  0  0  0  0  0  0  0  0  0  0
  144.9136   74.8353  220.7278 H   0  0  0  0  0  0  0  0  0  0  0  0
  144.7424   73.4384  221.8925 H   0  0  0  0  0  0  0  0  0  0  0  0
  146.8859   73.5292  220.6465 H   0  0  0  0  0  0  0  0  0  0  0  0
  145.9097   72.0035  220.4801 H   0  0  0  0  0  0  0  0  0  0  0  0
  146.6010   74.0090  218.5130 H   0  0  0  0  0  0  0  0  0  0  0  0
  144.5357   74.4627  218.1167 H   0  0  0  0  0  0  0  0  0  0  0  0
  144.7846   72.8950  217.2013 H   0  0  0  0  0  0  0  0  0  0  0  0
  142.6312   72.9186  218.3879 H   0  0  0  0  0  0  0  0  0  0  0  0
  143.7024   71.6503  219.0034 H   0  0  0  0  0  0  0  0  0  0  0  0
  141.9426   71.1886  224.1535 H   0  0  0  0  0  0  0  0  0  0  0  0
  140.9256   72.4104  225.0414 H   0  0  0  0  0  0  0  0  0  0  0  0
  1  2  2  0
  2  3  1  0
  3  4  2  0
  4  5  1  0
  5  6  2  0
  5  7  1  0
  7  8  1  0
  8  9  1  0
  9 10  1  0
 10 11  2  0
 11 12  1  0
 12 13  1  0
 13 14  1  0
 14 15  1  0
 15 16  1  0
 16 17  1  0
 17 18  1  0
 18 19  1  0
 19 20  1  0
 12 21  2  0
 21 22  1  0
 22 23  1  0
 23 24  1  0
 24 25  1  0
 25 26  1  0
 26 27  1  0
 27 28  1  0
 22 29  2  0
  9 30  1  0
  6  1  1  0
 29 10  1  0
 30  4  1  0
 20 15  1  0
 28 23  1  0
  1 31  1  0
  2 32  1  0
  3 33  1  0
  6 34  1  0
  7 35  1  0
  7 36  1  0
  8 37  1  0
  8 38  1  0
 13 39  1  0
 14 40  1  0
 14 41  1  0
 15 42  1  0
 16 43  1  0
 16 44  1  0
 17 45  1  0
 17 46  1  0
 18 47  1  0
 18 48  1  0
 19 49  1  0
 19 50  1  0
 20 51  1  0
 20 52  1  0
 24 53  1  0
 24 54  1  0
 25 55  1  0
 25 56  1  0
 26 57  1  0
 27 58  1  0
 27 59  1  0
 28 60  1  0
 28 61  1  0
 30 62  1  0
 30 63  1  0
M  END
>  <smiles>  (10) 
c1ccc2c(c1)CCN(c1nc(NCC3CCCCC3)nc(N3CCNCC3)n1)C2

>  <score_type>  (10) 
oracle

>  <origin>  (10) 
autodockgpu

>  <m_score__min__energy>  (10) 
-9.9000000000000004

>  <m_primary>  (10) 
energy

>  <rmsd>  (10) 
3.8598179751547765

>  <m_score__min__rmsd>  (10) 
3.8598179751547765

>  <meeko>  (10) 
{"free_energy": -9.38, "intermolecular_energy": -10.87, "internal_energy": -0.96, "cluster_size": 39, "cluster_id": 1, "rank_in_cluster": 39}

>  <energy>  (10) 
-9.83

>  <cluster_rmsd>  (10) 
0.24

>  <cluster>  (10) 
1

$$$$

     RDKit          3D

 63 67  0  0  0  0  0  0  0  0999 V2000
  139.4470   80.9130  223.1530 C   0  0  0  0  0  0  0  0  0  0  0  0
  140.8020   80.6650  223.2350 C   0  0  0  0  0  0  0  0  0  0  0  0
  141.3100   79.3820  223.0890 C   0  0  0  0  0  0  0  0  0  0  0  0
  140.4700   78.3030  222.8530 C   0  0  0  0  0  0  0  0  0  0  0  0
  139.1130   78.5540  222.7710 C   0  0  0  0  0  0  0  0  0  0  0  0
  138.6170   79.8350  222.9190 C   0  0  0  0  0  0  0  0  0  0  0  0
  138.2110   77.4280  222.5230 C   0  0  0  0  0  0  0  0  0  0  0  0
  138.8250   76.3390  221.6890 C   0  0  0  0  0  0  0  0  0  0  0  0
  140.1800   76.0150  222.0920 N   0  0  0  0  0  0  0  0  0  0  0  0
  140.6830   74.6960  221.8850 C   0  0  0  0  0  0  0  0  0  0  0  0
  140.0490   73.5960  222.3380 N   0  0  0  0  0  0  0  0  0  0  0  0
  140.5040   72.3420  222.1560 C   0  0  0  0  0  0  0  0  0  0  0  0
  139.8080   71.1970  222.6490 N   0  0  0  0  0  0  0  0  0  0  0  0
  139.2160   71.2520  223.9600 C   0  0  0  0  0  0  0  0  0  0  0  0
  139.9220   70.2290  224.8290 C   0  0  0  0  0  0  0  0  0  0  0  0
  140.0940   70.7790  226.2290 C   0  0  0  0  0  0  0  0  0  0  0  0
  141.0780   69.9220  226.9580 C   0  0  0  0  0  0  0  0  0  0  0  0
  140.8880   68.4900  226.5600 C   0  0  0  0  0  0  0  0  0  0  0  0
  139.4650   68.2010  226.0980 C   0  0  0  0  0  0  0  0  0  0  0  0
  139.1770   68.9330  224.7970 C   0  0  0  0  0  0  0  0  0  0  0  0
  141.6710   72.2060  221.4730 N   0  0  0  0  0  0  0  0  0  0  0  0
  142.3490   73.2700  220.9970 C   0  0  0  0  0  0  0  0  0  0  0  0
  143.5720   73.1510  220.2790 N   0  0  0  0  0  0  0  0  0  0  0  0
  144.8110   73.6300  220.8400 C   0  0  0  0  0  0  0  0  0  0  0  0
  146.0200   73.0670  220.1780 C   0  0  0  0  0  0  0  0  0  0  0  0
  145.9780   73.2040  218.7560 N   0  0  0  0  0  0  0  0  0  0  0  0
  144.6670   73.2890  218.1870 C   0  0  0  0  0  0  0  0  0  0  0  0
  143.6050   72.5420  218.9640 C   0  0  0  0  0  0  0  0  0  0  0  0
  141.8340   74.4930  221.2180 N   0  0  0  0  0  0  0  0  0  0  0  0
  141.0750   76.9780  222.7080 C   0  0  0  0  0  0  0  0  0  0  0  0
  139.0440   81.9299  223.2695 H   0  0  0  0  0  0  0  0  0  0  0  0
  141.4929   81.5008  223.4197 H   0  0  0  0  0  0  0  0  0  0  0  0
  142.3952   79.2177  223.1615 H   0  0  0  0  0  0  0  0  0  0  0  0
  137.5318   80.0003  222.8485 H   0  0  0  0  0  0  0  0  0  0  0  0
  137.9150   76.9993  223.4918 H   0  0  0  0  0  0  0  0  0  0  0  0
  137.3515   77.8206  221.9598 H   0  0  0  0  0  0  0  0  0  0  0  0
  138.2056   75.4347  221.7815 H   0  0  0  0  0  0  0  0  0  0  0  0
  138.8672   76.7021  220.6515 H   0  0  0  0  0  0  0  0  0  0  0  0
  139.7650   70.3670  222.0240 H   0  0  0  0  0  0  0  0  0  0  0  0
  139.3438   72.2578  224.3867 H   0  0  0  0  0  0  0  0  0  0  0  0
  138.1393   71.0334  223.9056 H   0  0  0  0  0  0  0  0  0  0  0  0
  140.9297   70.0262  224.4374 H   0  0  0  0  0  0  0  0  0  0  0  0
  140.4679   71.8123  226.1783 H   0  0  0  0  0  0  0  0  0  0  0  0
  139.1286   70.7761  226.7562 H   0  0  0  0  0  0  0  0  0  0  0  0
  142.0998   70.2403  226.7038 H   0  0  0  0  0  0  0  0  0  0  0  0
  140.9197   70.0244  228.0417 H   0  0  0  0  0  0  0  0  0  0  0  0
  141.5808   68.2566  225.7381 H   0  0  0  0  0  0  0  0  0  0  0  0
  141.0876   67.8663  227.4438 H   0  0  0  0  0  0  0  0  0  0  0  0
  139.3469   67.1188  225.9400 H   0  0  0  0  0  0  0  0  0  0  0  0
  138.7601   68.5469  226.8683 H   0  0  0  0  0  0  0  0  0  0  0  0
  139.5158   68.3273  223.9436 H   0  0  0  0  0  0  0  0  0  0  0  0
  138.0973   69.1123  224.6871 H   0  0  0  0  0  0  0  0  0  0  0  0
  144.8378   74.7252  220.7405 H   0  0  0  0  0  0  0  0  0  0  0  0
  144.8370   73.3056  221.8908 H   0  0  0  0  0  0  0  0  0  0  0  0
  146.9078   73.5941  220.5573 H   0  0  0  0  0  0  0  0  0  0  0  0
  146.0586   71.9924  220.4097 H   0  0  0  0  0  0  0  0  0  0  0  0
  146.4910   74.0710  218.4450 H   0  0  0  0  0  0  0  0  0  0  0  0
  144.3789   74.3496  218.1408 H   0  0  0  0  0  0  0  0  0  0  0  0
  144.7219   72.8191  217.1939 H   0  0  0  0  0  0  0  0  0  0  0  0
  142.6272   72.6440  218.4706 H   0  0  0  0  0  0  0  0  0  0  0  0
  143.8292   71.4667  219.0227 H   0  0  0  0  0  0  0  0  0  0  0  0
  141.3558   76.6088  223.7054 H   0  0  0  0  0  0  0  0  0  0  0  0
  141.9506   77.0839  222.0506 H   0  0  0  0  0  0  0  0  0  0  0  0
  1  2  2  0
  2  3  1  0
  3  4  2  0
  4  5  1  0
  5  6  2  0
  5  7  1  0
  7  8  1  0
  8  9  1  0
  9 10  1  0
 10 11  2  0
 11 12  1  0
 12 13  1  0
 13 14  1  0
 14 15  1  0
 15 16  1  0
 16 17  1  0
 17 18  1  0
 18 19  1  0
 19 20  1  0
 12 21  2  0
 21 22  1  0
 22 23  1  0
 23 24  1  0
 24 25  1  0
 25 26  1  0
 26 27  1  0
 27 28  1  0
 22 29  2  0
  9 30  1  0
  6  1  1  0
 29 10  1  0
 30  4  1  0
 20 15  1  0
 28 23  1  0
  1 31  1  0
  2 32  1  0
  3 33  1  0
  6 34  1  0
  7 35  1  0
  7 36  1  0
  8 37  1  0
  8 38  1  0
 13 39  1  0
 14 40  1  0
 14 41  1  0
 15 42  1  0
 16 43  1  0
 16 44  1  0
 17 45  1  0
 17 46  1  0
 18 47  1  0
 18 48  1  0
 19 49  1  0
 19 50  1  0
 20 51  1  0
 20 52  1  0
 24 53  1  0
 24 54  1  0
 25 55  1  0
 25 56  1  0
 26 57  1  0
 27 58  1  0
 27 59  1  0
 28 60  1  0
 28 61  1  0
 30 62  1  0
 30 63  1  0
M  END
>  <smiles>  (11) 
c1ccc2c(c1)CCN(c1nc(NCC3CCCCC3)nc(N3CCNCC3)n1)C2

>  <score_type>  (11) 
oracle

>  <origin>  (11) 
autodockgpu

>  <m_score__min__energy>  (11) 
-9.9000000000000004

>  <m_primary>  (11) 
energy

>  <rmsd>  (11) 
9.801687173496997

>  <m_score__min__rmsd>  (11) 
9.801687173496997

>  <meeko>  (11) 
{"free_energy": -9.65, "intermolecular_energy": -11.14, "internal_energy": -0.82, "cluster_size": 11, "cluster_id": 2, "rank_in_cluster": 1}

>  <energy>  (11) 
-9.81

>  <cluster_rmsd>  (11) 
0.31

>  <cluster>  (11) 
1

$$$$

     RDKit          3D

 63 67  0  0  0  0  0  0  0  0999 V2000
  140.5800   81.7490  222.5550 C   0  0  0  0  0  0  0  0  0  0  0  0
  141.5310   81.1980  223.3900 C   0  0  0  0  0  0  0  0  0  0  0  0
  141.7170   79.8250  223.4650 C   0  0  0  0  0  0  0  0  0  0  0  0
  140.9500   78.9580  222.7000 C   0  0  0  0  0  0  0  0  0  0  0  0
  139.9990   79.5110  221.8640 C   0  0  0  0  0  0  0  0  0  0  0  0
  139.8210   80.8800  221.7970 C   0  0  0  0  0  0  0  0  0  0  0  0
  139.1800   78.6120  221.0490 C   0  0  0  0  0  0  0  0  0  0  0  0
  139.8940   77.3520  220.6450 C   0  0  0  0  0  0  0  0  0  0  0  0
  140.6400   76.7520  221.7330 N   0  0  0  0  0  0  0  0  0  0  0  0
  140.8480   75.3400  221.7540 C   0  0  0  0  0  0  0  0  0  0  0  0
  139.9630   74.4820  222.2970 N   0  0  0  0  0  0  0  0  0  0  0  0
  140.1370   73.1470  222.3280 C   0  0  0  0  0  0  0  0  0  0  0  0
  139.1780   72.2640  222.9120 N   0  0  0  0  0  0  0  0  0  0  0  0
  139.5610   70.9030  223.1870 C   0  0  0  0  0  0  0  0  0  0  0  0
  139.6010   70.7310  224.6930 C   0  0  0  0  0  0  0  0  0  0  0  0
  139.7300   69.2610  225.0350 C   0  0  0  0  0  0  0  0  0  0  0  0
  139.4230   69.0850  226.4880 C   0  0  0  0  0  0  0  0  0  0  0  0
  139.9620   70.2490  227.2610 C   0  0  0  0  0  0  0  0  0  0  0  0
  141.1490   70.9060  226.5660 C   0  0  0  0  0  0  0  0  0  0  0  0
  140.7000   71.5640  225.2710 C   0  0  0  0  0  0  0  0  0  0  0  0
  141.2800   72.6650  221.7750 N   0  0  0  0  0  0  0  0  0  0  0  0
  142.2020   73.4750  221.2170 C   0  0  0  0  0  0  0  0  0  0  0  0
  143.4060   72.9920  220.6310 N   0  0  0  0  0  0  0  0  0  0  0  0
  143.5670   71.5950  220.3140 C   0  0  0  0  0  0  0  0  0  0  0  0
  144.6700   71.3290  219.3480 C   0  0  0  0  0  0  0  0  0  0  0  0
  145.8990   71.9430  219.7410 N   0  0  0  0  0  0  0  0  0  0  0  0
  145.7680   73.1000  220.5740 C   0  0  0  0  0  0  0  0  0  0  0  0
  144.5010   73.8940  220.3370 C   0  0  0  0  0  0  0  0  0  0  0  0
  141.9600   74.7980  221.2220 N   0  0  0  0  0  0  0  0  0  0  0  0
  141.2010   77.5210  222.8290 C   0  0  0  0  0  0  0  0  0  0  0  0
  140.4327   82.8375  222.4959 H   0  0  0  0  0  0  0  0  0  0  0  0
  142.1541   81.8608  224.0085 H   0  0  0  0  0  0  0  0  0  0  0  0
  142.4836   79.4180  224.1407 H   0  0  0  0  0  0  0  0  0  0  0  0
  139.0543   81.2879  221.1219 H   0  0  0  0  0  0  0  0  0  0  0  0
  138.2858   78.3356  221.6269 H   0  0  0  0  0  0  0  0  0  0  0  0
  138.9283   79.1522  220.1244 H   0  0  0  0  0  0  0  0  0  0  0  0
  139.1490   76.6257  220.2880 H   0  0  0  0  0  0  0  0  0  0  0  0
  140.6153   77.6194  219.8587 H   0  0  0  0  0  0  0  0  0  0  0  0
  138.2360   72.6560  223.1110 H   0  0  0  0  0  0  0  0  0  0  0  0
  138.8256   70.2113  222.7503 H   0  0  0  0  0  0  0  0  0  0  0  0
  140.5453   70.6834  222.7477 H   0  0  0  0  0  0  0  0  0  0  0  0
  138.6622   71.0857  225.1434 H   0  0  0  0  0  0  0  0  0  0  0  0
  139.0202   68.6757  224.4319 H   0  0  0  0  0  0  0  0  0  0  0  0
  140.7504   68.9113  224.8195 H   0  0  0  0  0  0  0  0  0  0  0  0
  138.3334   69.0263  226.6273 H   0  0  0  0  0  0  0  0  0  0  0  0
  139.8915   68.1580  226.8502 H   0  0  0  0  0  0  0  0  0  0  0  0
  139.1631   70.9960  227.3783 H   0  0  0  0  0  0  0  0  0  0  0  0
  140.3082   69.8742  228.2355 H   0  0  0  0  0  0  0  0  0  0  0  0
  141.5824   71.6685  227.2299 H   0  0  0  0  0  0  0  0  0  0  0  0
  141.9013   70.1371  226.3362 H   0  0  0  0  0  0  0  0  0  0  0  0
  140.3316   72.5801  225.4756 H   0  0  0  0  0  0  0  0  0  0  0  0
  141.5402   71.6358  224.5647 H   0  0  0  0  0  0  0  0  0  0  0  0
  143.7798   71.0488  221.2448 H   0  0  0  0  0  0  0  0  0  0  0  0
  142.6328   71.2608  219.8391 H   0  0  0  0  0  0  0  0  0  0  0  0
  144.8245   70.2421  219.2790 H   0  0  0  0  0  0  0  0  0  0  0  0
  144.3766   71.7572  218.3782 H   0  0  0  0  0  0  0  0  0  0  0  0
  146.5070   71.2650  220.2730 H   0  0  0  0  0  0  0  0  0  0  0  0
  145.7786   72.7723  221.6240 H   0  0  0  0  0  0  0  0  0  0  0  0
  146.6089   73.7647  220.3270 H   0  0  0  0  0  0  0  0  0  0  0  0
  144.4666   74.7678  221.0044 H   0  0  0  0  0  0  0  0  0  0  0  0
  144.4478   74.2708  219.3049 H   0  0  0  0  0  0  0  0  0  0  0  0
  140.7539   77.1691  223.7704 H   0  0  0  0  0  0  0  0  0  0  0  0
  142.2908   77.3723  222.8146 H   0  0  0  0  0  0  0  0  0  0  0  0
  1  2  2  0
  2  3  1  0
  3  4  2  0
  4  5  1  0
  5  6  2  0
  5  7  1  0
  7  8  1  0
  8  9  1  0
  9 10  1  0
 10 11  2  0
 11 12  1  0
 12 13  1  0
 13 14  1  0
 14 15  1  0
 15 16  1  0
 16 17  1  0
 17 18  1  0
 18 19  1  0
 19 20  1  0
 12 21  2  0
 21 22  1  0
 22 23  1  0
 23 24  1  0
 24 25  1  0
 25 26  1  0
 26 27  1  0
 27 28  1  0
 22 29  2  0
  9 30  1  0
  6  1  1  0
 29 10  1  0
 30  4  1  0
 20 15  1  0
 28 23  1  0
  1 31  1  0
  2 32  1  0
  3 33  1  0
  6 34  1  0
  7 35  1  0
  7 36  1  0
  8 37  1  0
  8 38  1  0
 13 39  1  0
 14 40  1  0
 14 41  1  0
 15 42  1  0
 16 43  1  0
 16 44  1  0
 17 45  1  0
 17 46  1  0
 18 47  1  0
 18 48  1  0
 19 49  1  0
 19 50  1  0
 20 51  1  0
 20 52  1  0
 24 53  1  0
 24 54  1  0
 25 55  1  0
 25 56  1  0
 26 57  1  0
 27 58  1  0
 27 59  1  0
 28 60  1  0
 28 61  1  0
 30 62  1  0
 30 63  1  0
M  END
>  <smiles>  (12) 
c1ccc2c(c1)CCN(c1nc(NCC3CCCCC3)nc(N3CCNCC3)n1)C2

>  <score_type>  (12) 
oracle

>  <origin>  (12) 
autodockgpu

>  <m_score__min__energy>  (12) 
-9.9000000000000004

>  <m_primary>  (12) 
energy

>  <rmsd>  (12) 
10.762564484551435

>  <m_score__min__rmsd>  (12) 
10.762564484551435

>  <meeko>  (12) 
{"free_energy": -9.56, "intermolecular_energy": -11.05, "internal_energy": -0.93, "cluster_size": 11, "cluster_id": 2, "rank_in_cluster": 2}

>  <energy>  (12) 
-9.81

>  <cluster_rmsd>  (12) 
0.19

>  <cluster>  (12) 
1

$$$$

     RDKit          3D

 63 67  0  0  0  0  0  0  0  0999 V2000
  139.5800   68.1150  227.1410 C   0  0  0  0  0  0  0  0  0  0  0  0
  140.4660   69.0720  227.5930 C   0  0  0  0  0  0  0  0  0  0  0  0
  140.9340   70.0740  226.7550 C   0  0  0  0  0  0  0  0  0  0  0  0
  140.5260   70.1470  225.4310 C   0  0  0  0  0  0  0  0  0  0  0  0
  139.6390   69.1870  224.9800 C   0  0  0  0  0  0  0  0  0  0  0  0
  139.1790   68.1930  225.8230 C   0  0  0  0  0  0  0  0  0  0  0  0
  139.1980   69.2470  223.5860 C   0  0  0  0  0  0  0  0  0  0  0  0
  139.1360   70.6450  223.0350 C   0  0  0  0  0  0  0  0  0  0  0  0
  140.2930   71.4430  223.3910 N   0  0  0  0  0  0  0  0  0  0  0  0
  140.7200   72.4940  222.5250 C   0  0  0  0  0  0  0  0  0  0  0  0
  140.0200   73.6350  222.3670 N   0  0  0  0  0  0  0  0  0  0  0  0
  140.4020   74.6410  221.5570 C   0  0  0  0  0  0  0  0  0  0  0  0
  139.6370   75.8380  221.4120 N   0  0  0  0  0  0  0  0  0  0  0  0
  140.2710   77.0060  220.8560 C   0  0  0  0  0  0  0  0  0  0  0  0
  140.8180   77.8260  222.0080 C   0  0  0  0  0  0  0  0  0  0  0  0
  141.7970   78.8550  221.4830 C   0  0  0  0  0  0  0  0  0  0  0  0
  142.5710   79.4050  222.6370 C   0  0  0  0  0  0  0  0  0  0  0  0
  141.6740   79.5300  223.8300 C   0  0  0  0  0  0  0  0  0  0  0  0
  140.2110   79.7010  223.4390 C   0  0  0  0  0  0  0  0  0  0  0  0
  139.6920   78.4330  222.7820 C   0  0  0  0  0  0  0  0  0  0  0  0
  141.5630   74.4690  220.8710 N   0  0  0  0  0  0  0  0  0  0  0  0
  142.3040   73.3490  220.9890 C   0  0  0  0  0  0  0  0  0  0  0  0
  143.5220   73.1480  220.2820 N   0  0  0  0  0  0  0  0  0  0  0  0
  144.7790   73.5950  220.8280 C   0  0  0  0  0  0  0  0  0  0  0  0
  145.9640   72.9530  220.1930 C   0  0  0  0  0  0  0  0  0  0  0  0
  145.9310   73.0350  218.7660 N   0  0  0  0  0  0  0  0  0  0  0  0
  144.6260   73.1540  218.1900 C   0  0  0  0  0  0  0  0  0  0  0  0
  143.5300   72.4860  218.9930 C   0  0  0  0  0  0  0  0  0  0  0  0
  141.8590   72.3860  221.8180 N   0  0  0  0  0  0  0  0  0  0  0  0
  141.0610   71.2310  224.6040 C   0  0  0  0  0  0  0  0  0  0  0  0
  139.2081   67.3212  227.8055 H   0  0  0  0  0  0  0  0  0  0  0  0
  140.8078   69.0397  228.6381 H   0  0  0  0  0  0  0  0  0  0  0  0
  141.6393   70.8219  227.1464 H   0  0  0  0  0  0  0  0  0  0  0  0
  138.4743   67.4440  225.4327 H   0  0  0  0  0  0  0  0  0  0  0  0
  139.9001   68.6624  222.9734 H   0  0  0  0  0  0  0  0  0  0  0  0
  138.1762   68.8409  223.5526 H   0  0  0  0  0  0  0  0  0  0  0  0
  139.0730   70.5877  221.9383 H   0  0  0  0  0  0  0  0  0  0  0  0
  138.2515   71.1328  223.4706 H   0  0  0  0  0  0  0  0  0  0  0  0
  138.6450   75.8040  221.7210 H   0  0  0  0  0  0  0  0  0  0  0  0
  141.0913   76.7048  220.1879 H   0  0  0  0  0  0  0  0  0  0  0  0
  139.5486   77.5955  220.2724 H   0  0  0  0  0  0  0  0  0  0  0  0
  141.3718   77.1806  222.7057 H   0  0  0  0  0  0  0  0  0  0  0  0
  142.4847   78.3814  220.7669 H   0  0  0  0  0  0  0  0  0  0  0  0
  141.2551   79.6647  220.9724 H   0  0  0  0  0  0  0  0  0  0  0  0
  143.4043   78.7276  222.8750 H   0  0  0  0  0  0  0  0  0  0  0  0
  142.9666   80.3966  222.3720 H   0  0  0  0  0  0  0  0  0  0  0  0
  141.7724   78.6220  224.4431 H   0  0  0  0  0  0  0  0  0  0  0  0
  141.9799   80.4271  224.3882 H   0  0  0  0  0  0  0  0  0  0  0  0
  139.6165   79.9130  224.3399 H   0  0  0  0  0  0  0  0  0  0  0  0
  140.1247   80.5353  222.7273 H   0  0  0  0  0  0  0  0  0  0  0  0
  139.3441   77.7282  223.5515 H   0  0  0  0  0  0  0  0  0  0  0  0
  138.8476   78.6632  222.1156 H   0  0  0  0  0  0  0  0  0  0  0  0
  144.8538   74.6831  220.6846 H   0  0  0  0  0  0  0  0  0  0  0  0
  144.7888   73.3130  221.8912 H   0  0  0  0  0  0  0  0  0  0  0  0
  146.8735   73.4552  220.5544 H   0  0  0  0  0  0  0  0  0  0  0  0
  145.9546   71.8878  220.4673 H   0  0  0  0  0  0  0  0  0  0  0  0
  146.4810   73.8660  218.4230 H   0  0  0  0  0  0  0  0  0  0  0  0
  144.3848   74.2235  218.1000 H   0  0  0  0  0  0  0  0  0  0  0  0
  144.6620   72.6419  217.2171 H   0  0  0  0  0  0  0  0  0  0  0  0
  142.5585   72.6113  218.4925 H   0  0  0  0  0  0  0  0  0  0  0  0
  143.7061   71.4050  219.0953 H   0  0  0  0  0  0  0  0  0  0  0  0
  142.0961   70.9833  224.3261 H   0  0  0  0  0  0  0  0  0  0  0  0
  141.0085   72.1567  225.1959 H   0  0  0  0  0  0  0  0  0  0  0  0
  1  2  2  0
  2  3  1  0
  3  4  2  0
  4  5  1  0
  5  6  2  0
  5  7  1  0
  7  8  1  0
  8  9  1  0
  9 10  1  0
 10 11  2  0
 11 12  1  0
 12 13  1  0
 13 14  1  0
 14 15  1  0
 15 16  1  0
 16 17  1  0
 17 18  1  0
 18 19  1  0
 19 20  1  0
 12 21  2  0
 21 22  1  0
 22 23  1  0
 23 24  1  0
 24 25  1  0
 25 26  1  0
 26 27  1  0
 27 28  1  0
 22 29  2  0
  9 30  1  0
  6  1  1  0
 29 10  1  0
 30  4  1  0
 20 15  1  0
 28 23  1  0
  1 31  1  0
  2 32  1  0
  3 33  1  0
  6 34  1  0
  7 35  1  0
  7 36  1  0
  8 37  1  0
  8 38  1  0
 13 39  1  0
 14 40  1  0
 14 41  1  0
 15 42  1  0
 16 43  1  0
 16 44  1  0
 17 45  1  0
 17 46  1  0
 18 47  1  0
 18 48  1  0
 19 49  1  0
 19 50  1  0
 20 51  1  0
 20 52  1  0
 24 53  1  0
 24 54  1  0
 25 55  1  0
 25 56  1  0
 26 57  1  0
 27 58  1  0
 27 59  1  0
 28 60  1  0
 28 61  1  0
 30 62  1  0
 30 63  1  0
M  END
>  <smiles>  (13) 
c1ccc2c(c1)CCN(c1nc(NCC3CCCCC3)nc(N3CCNCC3)n1)C2

>  <score_type>  (13) 
oracle

>  <origin>  (13) 
autodockgpu

>  <m_score__min__energy>  (13) 
-9.9000000000000004

>  <m_primary>  (13) 
energy

>  <rmsd>  (13) 
3.884564838307187

>  <m_score__min__rmsd>  (13) 
3.884564838307187

>  <meeko>  (13) 
{"free_energy": -9.88, "intermolecular_energy": -11.37, "internal_energy": -0.91, "cluster_size": 39, "cluster_id": 1, "rank_in_cluster": 2}

>  <energy>  (13) 
-9.79

>  <cluster_rmsd>  (13) 
0.34

>  <cluster>  (13) 
1

$$$$

     RDKit          3D

 63 67  0  0  0  0  0  0  0  0999 V2000
  139.5770   68.5840  227.6030 C   0  0  0  0  0  0  0  0  0  0  0  0
  140.4020   69.6240  227.9840 C   0  0  0  0  0  0  0  0  0  0  0  0
  140.8440   70.5660  227.0660 C   0  0  0  0  0  0  0  0  0  0  0  0
  140.4700   70.4950  225.7320 C   0  0  0  0  0  0  0  0  0  0  0  0
  139.6440   69.4540  225.3530 C   0  0  0  0  0  0  0  0  0  0  0  0
  139.2100   68.5200  226.2740 C   0  0  0  0  0  0  0  0  0  0  0  0
  139.2390   69.3620  223.9500 C   0  0  0  0  0  0  0  0  0  0  0  0
  139.1240   70.6980  223.2690 C   0  0  0  0  0  0  0  0  0  0  0  0
  140.2300   71.5840  223.5750 N   0  0  0  0  0  0  0  0  0  0  0  0
  140.6290   72.5710  222.6240 C   0  0  0  0  0  0  0  0  0  0  0  0
  139.8780   73.6540  222.3430 N   0  0  0  0  0  0  0  0  0  0  0  0
  140.2330   74.6000  221.4520 C   0  0  0  0  0  0  0  0  0  0  0  0
  139.4140   75.7370  221.1770 N   0  0  0  0  0  0  0  0  0  0  0  0
  139.1080   76.6510  222.2460 C   0  0  0  0  0  0  0  0  0  0  0  0
  139.9970   77.8680  222.0820 C   0  0  0  0  0  0  0  0  0  0  0  0
  141.1410   77.8020  223.0720 C   0  0  0  0  0  0  0  0  0  0  0  0
  141.7930   79.1460  223.1340 C   0  0  0  0  0  0  0  0  0  0  0  0
  141.8060   79.7620  221.7680 C   0  0  0  0  0  0  0  0  0  0  0  0
  141.7850   78.7140  220.6610 C   0  0  0  0  0  0  0  0  0  0  0  0
  140.4570   77.9750  220.6640 C   0  0  0  0  0  0  0  0  0  0  0  0
  141.4200   74.4250  220.8130 N   0  0  0  0  0  0  0  0  0  0  0  0
  142.2120   73.3610  221.0530 C   0  0  0  0  0  0  0  0  0  0  0  0
  143.4580   73.1590  220.3970 N   0  0  0  0  0  0  0  0  0  0  0  0
  144.6540   73.8180  220.8580 C   0  0  0  0  0  0  0  0  0  0  0  0
  145.9080   73.1940  220.3520 C   0  0  0  0  0  0  0  0  0  0  0  0
  145.8970   73.0170  218.9330 N   0  0  0  0  0  0  0  0  0  0  0  0
  144.5990   72.9030  218.3410 C   0  0  0  0  0  0  0  0  0  0  0  0
  143.5570   72.2840  219.2460 C   0  0  0  0  0  0  0  0  0  0  0  0
  141.7920   72.4580  221.9580 N   0  0  0  0  0  0  0  0  0  0  0  0
  140.9740   71.5240  224.8200 C   0  0  0  0  0  0  0  0  0  0  0  0
  139.2263   67.8364  228.3298 H   0  0  0  0  0  0  0  0  0  0  0  0
  140.7147   69.7072  229.0353 H   0  0  0  0  0  0  0  0  0  0  0  0
  141.5012   71.3818  227.4013 H   0  0  0  0  0  0  0  0  0  0  0  0
  138.5541   67.7030  225.9389 H   0  0  0  0  0  0  0  0  0  0  0  0
  139.9853   68.7598  223.4111 H   0  0  0  0  0  0  0  0  0  0  0  0
  138.2396   68.9028  223.9316 H   0  0  0  0  0  0  0  0  0  0  0  0
  139.0944   70.5362  222.1814 H   0  0  0  0  0  0  0  0  0  0  0  0
  138.2050   71.1779  223.6365 H   0  0  0  0  0  0  0  0  0  0  0  0
  139.0750   75.8480  220.2000 H   0  0  0  0  0  0  0  0  0  0  0  0
  138.0507   76.9496  222.1922 H   0  0  0  0  0  0  0  0  0  0  0  0
  139.2839   76.1746  223.2218 H   0  0  0  0  0  0  0  0  0  0  0  0
  139.4322   78.7856  222.3033 H   0  0  0  0  0  0  0  0  0  0  0  0
  140.7563   77.5301  224.0660 H   0  0  0  0  0  0  0  0  0  0  0  0
  141.8712   77.0432  222.7541 H   0  0  0  0  0  0  0  0  0  0  0  0
  141.2309   79.7941  223.8225 H   0  0  0  0  0  0  0  0  0  0  0  0
  142.8263   79.0344  223.4942 H   0  0  0  0  0  0  0  0  0  0  0  0
  140.9208   80.4064  221.6620 H   0  0  0  0  0  0  0  0  0  0  0  0
  142.7371   80.3391  221.6677 H   0  0  0  0  0  0  0  0  0  0  0  0
  141.9230   79.2095  219.6887 H   0  0  0  0  0  0  0  0  0  0  0  0
  142.5977   77.9930  220.8334 H   0  0  0  0  0  0  0  0  0  0  0  0
  139.7169   78.5330  220.0716 H   0  0  0  0  0  0  0  0  0  0  0  0
  140.5728   76.9748  220.2211 H   0  0  0  0  0  0  0  0  0  0  0  0
  144.6261   74.8652  220.5224 H   0  0  0  0  0  0  0  0  0  0  0  0
  144.6690   73.7319  221.9545 H   0  0  0  0  0  0  0  0  0  0  0  0
  146.7569   73.8400  220.6205 H   0  0  0  0  0  0  0  0  0  0  0  0
  145.9960   72.1989  220.8126 H   0  0  0  0  0  0  0  0  0  0  0  0
  146.3720   73.8240  218.4490 H   0  0  0  0  0  0  0  0  0  0  0  0
  144.2579   73.9106  218.0609 H   0  0  0  0  0  0  0  0  0  0  0  0
  144.7042   72.2326  217.4753 H   0  0  0  0  0  0  0  0  0  0  0  0
  142.5886   72.2226  218.7280 H   0  0  0  0  0  0  0  0  0  0  0  0
  143.8347   71.2610  219.5399 H   0  0  0  0  0  0  0  0  0  0  0  0
  142.0272   71.3049  224.5901 H   0  0  0  0  0  0  0  0  0  0  0  0
  140.8602   72.4963  225.3216 H   0  0  0  0  0  0  0  0  0  0  0  0
  1  2  2  0
  2  3  1  0
  3  4  2  0
  4  5  1  0
  5  6  2  0
  5  7  1  0
  7  8  1  0
  8  9  1  0
  9 10  1  0
 10 11  2  0
 11 12  1  0
 12 13  1  0
 13 14  1  0
 14 15  1  0
 15 16  1  0
 16 17  1  0
 17 18  1  0
 18 19  1  0
 19 20  1  0
 12 21  2  0
 21 22  1  0
 22 23  1  0
 23 24  1  0
 24 25  1  0
 25 26  1  0
 26 27  1  0
 27 28  1  0
 22 29  2  0
  9 30  1  0
  6  1  1  0
 29 10  1  0
 30  4  1  0
 20 15  1  0
 28 23  1  0
  1 31  1  0
  2 32  1  0
  3 33  1  0
  6 34  1  0
  7 35  1  0
  7 36  1  0
  8 37  1  0
  8 38  1  0
 13 39  1  0
 14 40  1  0
 14 41  1  0
 15 42  1  0
 16 43  1  0
 16 44  1  0
 17 45  1  0
 17 46  1  0
 18 47  1  0
 18 48  1  0
 19 49  1  0
 19 50  1  0
 20 51  1  0
 20 52  1  0
 24 53  1  0
 24 54  1  0
 25 55  1  0
 25 56  1  0
 26 57  1  0
 27 58  1  0
 27 59  1  0
 28 60  1  0
 28 61  1  0
 30 62  1  0
 30 63  1  0
M  END
>  <smiles>  (14) 
c1ccc2c(c1)CCN(c1nc(NCC3CCCCC3)nc(N3CCNCC3)n1)C2

>  <score_type>  (14) 
oracle

>  <origin>  (14) 
autodockgpu

>  <m_score__min__energy>  (14) 
-9.9000000000000004

>  <m_primary>  (14) 
energy

>  <rmsd>  (14) 
3.9065002277907026

>  <m_score__min__rmsd>  (14) 
3.9065002277907026

>  <meeko>  (14) 
{"free_energy": -9.55, "intermolecular_energy": -11.05, "internal_energy": -1.08, "cluster_size": 39, "cluster_id": 1, "rank_in_cluster": 31}

>  <energy>  (14) 
-9.74

>  <cluster_rmsd>  (14) 
0.68

>  <cluster>  (14) 
1

$$$$

     RDKit          3D

 63 67  0  0  0  0  0  0  0  0999 V2000
  139.5750   68.5710  227.6110 C   0  0  0  0  0  0  0  0  0  0  0  0
  140.3860   69.6200  227.9960 C   0  0  0  0  0  0  0  0  0  0  0  0
  140.8290   70.5630  227.0790 C   0  0  0  0  0  0  0  0  0  0  0  0
  140.4700   70.4820  225.7420 C   0  0  0  0  0  0  0  0  0  0  0  0
  139.6580   69.4310  225.3580 C   0  0  0  0  0  0  0  0  0  0  0  0
  139.2220   68.4970  226.2790 C   0  0  0  0  0  0  0  0  0  0  0  0
  139.2690   69.3290  223.9510 C   0  0  0  0  0  0  0  0  0  0  0  0
  139.1480   70.6610  223.2630 C   0  0  0  0  0  0  0  0  0  0  0  0
  140.2430   71.5580  223.5760 N   0  0  0  0  0  0  0  0  0  0  0  0
  140.6430   72.5450  222.6260 C   0  0  0  0  0  0  0  0  0  0  0  0
  139.8860   73.6210  222.3340 N   0  0  0  0  0  0  0  0  0  0  0  0
  140.2410   74.5650  221.4420 C   0  0  0  0  0  0  0  0  0  0  0  0
  139.4160   75.6950  221.1540 N   0  0  0  0  0  0  0  0  0  0  0  0
  139.0910   76.6100  222.2170 C   0  0  0  0  0  0  0  0  0  0  0  0
  139.9980   77.8170  222.0810 C   0  0  0  0  0  0  0  0  0  0  0  0
  141.1200   77.7300  223.0950 C   0  0  0  0  0  0  0  0  0  0  0  0
  141.7860   79.0650  223.1810 C   0  0  0  0  0  0  0  0  0  0  0  0
  141.8370   79.6900  221.8200 C   0  0  0  0  0  0  0  0  0  0  0  0
  141.8260   78.6510  220.7050 C   0  0  0  0  0  0  0  0  0  0  0  0
  140.4900   77.9280  220.6740 C   0  0  0  0  0  0  0  0  0  0  0  0
  141.4350   74.3980  220.8140 N   0  0  0  0  0  0  0  0  0  0  0  0
  142.2340   73.3420  221.0670 C   0  0  0  0  0  0  0  0  0  0  0  0
  143.4880   73.1470  220.4230 N   0  0  0  0  0  0  0  0  0  0  0  0
  144.6650   73.8510  220.8650 C   0  0  0  0  0  0  0  0  0  0  0  0
  145.9370   73.2400  220.3860 C   0  0  0  0  0  0  0  0  0  0  0  0
  145.9370   73.0130  218.9750 N   0  0  0  0  0  0  0  0  0  0  0  0
  144.6450   72.8470  218.3820 C   0  0  0  0  0  0  0  0  0  0  0  0
  143.6130   72.2340  219.3040 C   0  0  0  0  0  0  0  0  0  0  0  0
  141.8130   72.4390  221.9710 N   0  0  0  0  0  0  0  0  0  0  0  0
  140.9730   71.5110  224.8300 C   0  0  0  0  0  0  0  0  0  0  0  0
  139.2240   67.8235  228.3376 H   0  0  0  0  0  0  0  0  0  0  0  0
  140.6869   69.7101  229.0502 H   0  0  0  0  0  0  0  0  0  0  0  0
  141.4744   71.3868  227.4178 H   0  0  0  0  0  0  0  0  0  0  0  0
  138.5765   67.6729  225.9412 H   0  0  0  0  0  0  0  0  0  0  0  0
  140.0270   68.7321  223.4228 H   0  0  0  0  0  0  0  0  0  0  0  0
  138.2745   68.8598  223.9239 H   0  0  0  0  0  0  0  0  0  0  0  0
  139.1303   70.4944  222.1758 H   0  0  0  0  0  0  0  0  0  0  0  0
  138.2210   71.1341  223.6192 H   0  0  0  0  0  0  0  0  0  0  0  0
  139.0860   75.8000  220.1730 H   0  0  0  0  0  0  0  0  0  0  0  0
  138.0391   76.9209  222.1349 H   0  0  0  0  0  0  0  0  0  0  0  0
  139.2344   76.1292  223.1959 H   0  0  0  0  0  0  0  0  0  0  0  0
  139.4397   78.7399  222.2968 H   0  0  0  0  0  0  0  0  0  0  0  0
  140.7108   77.4554  224.0785 H   0  0  0  0  0  0  0  0  0  0  0  0
  141.8478   76.9649  222.7870 H   0  0  0  0  0  0  0  0  0  0  0  0
  141.2163   79.7152  223.8613 H   0  0  0  0  0  0  0  0  0  0  0  0
  142.8096   78.9386  223.5635 H   0  0  0  0  0  0  0  0  0  0  0  0
  140.9631   80.3472  221.6997 H   0  0  0  0  0  0  0  0  0  0  0  0
  142.7780   80.2546  221.7443 H   0  0  0  0  0  0  0  0  0  0  0  0
  141.9903   79.1523  219.7397 H   0  0  0  0  0  0  0  0  0  0  0  0
  142.6260   77.9188  220.8891 H   0  0  0  0  0  0  0  0  0  0  0  0
  139.7696   78.4987  220.0696 H   0  0  0  0  0  0  0  0  0  0  0  0
  140.6037   76.9295  220.2267 H   0  0  0  0  0  0  0  0  0  0  0  0
  144.6131   74.8847  220.4924 H   0  0  0  0  0  0  0  0  0  0  0  0
  144.6769   73.8043  221.9639 H   0  0  0  0  0  0  0  0  0  0  0  0
  146.7686   73.9156  220.6347 H   0  0  0  0  0  0  0  0  0  0  0  0
  146.0470   72.2643  220.8818 H   0  0  0  0  0  0  0  0  0  0  0  0
  146.3940   73.8140  218.4650 H   0  0  0  0  0  0  0  0  0  0  0  0
  144.2810   73.8357  218.0657 H   0  0  0  0  0  0  0  0  0  0  0  0
  144.7708   72.1498  217.5405 H   0  0  0  0  0  0  0  0  0  0  0  0
  142.6489   72.1311  218.7846 H   0  0  0  0  0  0  0  0  0  0  0  0
  143.9130   71.2286  219.6345 H   0  0  0  0  0  0  0  0  0  0  0  0
  142.0308   71.3014  224.6130 H   0  0  0  0  0  0  0  0  0  0  0  0
  140.8427   72.4845  225.3254 H   0  0  0  0  0  0  0  0  0  0  0  0
  1  2  2  0
  2  3  1  0
  3  4  2  0
  4  5  1  0
  5  6  2  0
  5  7  1  0
  7  8  1  0
  8  9  1  0
  9 10  1  0
 10 11  2  0
 11 12  1  0
 12 13  1  0
 13 14  1  0
 14 15  1  0
 15 16  1  0
 16 17  1  0
 17 18  1  0
 18 19  1  0
 19 20  1  0
 12 21  2  0
 21 22  1  0
 22 23  1  0
 23 24  1  0
 24 25  1  0
 25 26  1  0
 26 27  1  0
 27 28  1  0
 22 29  2  0
  9 30  1  0
  6  1  1  0
 29 10  1  0
 30  4  1  0
 20 15  1  0
 28 23  1  0
  1 31  1  0
  2 32  1  0
  3 33  1  0
  6 34  1  0
  7 35  1  0
  7 36  1  0
  8 37  1  0
  8 38  1  0
 13 39  1  0
 14 40  1  0
 14 41  1  0
 15 42  1  0
 16 43  1  0
 16 44  1  0
 17 45  1  0
 17 46  1  0
 18 47  1  0
 18 48  1  0
 19 49  1  0
 19 50  1  0
 20 51  1  0
 20 52  1  0
 24 53  1  0
 24 54  1  0
 25 55  1  0
 25 56  1  0
 26 57  1  0
 27 58  1  0
 27 59  1  0
 28 60  1  0
 28 61  1  0
 30 62  1  0
 30 63  1  0
M  END
>  <smiles>  (15) 
c1ccc2c(c1)CCN(c1nc(NCC3CCCCC3)nc(N3CCNCC3)n1)C2

>  <score_type>  (15) 
oracle

>  <origin>  (15) 
autodockgpu

>  <m_score__min__energy>  (15) 
-9.9000000000000004

>  <m_primary>  (15) 
energy

>  <rmsd>  (15) 
3.908948297805106

>  <m_score__min__rmsd>  (15) 
3.908948297805106

>  <meeko>  (15) 
{"free_energy": -9.55, "intermolecular_energy": -11.05, "internal_energy": -1.09, "cluster_size": 39, "cluster_id": 1, "rank_in_cluster": 32}

>  <energy>  (15) 
-9.74

>  <cluster_rmsd>  (15) 
0.67

>  <cluster>  (15) 
1

$$$$

     RDKit          3D

 63 67  0  0  0  0  0  0  0  0999 V2000
  139.5800   68.5710  227.6090 C   0  0  0  0  0  0  0  0  0  0  0  0
  140.4070   69.6110  227.9840 C   0  0  0  0  0  0  0  0  0  0  0  0
  140.8470   70.5500  227.0620 C   0  0  0  0  0  0  0  0  0  0  0  0
  140.4700   70.4750  225.7300 C   0  0  0  0  0  0  0  0  0  0  0  0
  139.6420   69.4320  225.3560 C   0  0  0  0  0  0  0  0  0  0  0  0
  139.2090   68.5020  226.2820 C   0  0  0  0  0  0  0  0  0  0  0  0
  139.2330   69.3360  223.9540 C   0  0  0  0  0  0  0  0  0  0  0  0
  139.1170   70.6700  223.2690 C   0  0  0  0  0  0  0  0  0  0  0  0
  140.2250   71.5560  223.5690 N   0  0  0  0  0  0  0  0  0  0  0  0
  140.6220   72.5400  222.6140 C   0  0  0  0  0  0  0  0  0  0  0  0
  139.8600   73.6090  222.3130 N   0  0  0  0  0  0  0  0  0  0  0  0
  140.2130   74.5500  221.4170 C   0  0  0  0  0  0  0  0  0  0  0  0
  139.3820   75.6730  221.1190 N   0  0  0  0  0  0  0  0  0  0  0  0
  139.9970   76.8970  220.6740 C   0  0  0  0  0  0  0  0  0  0  0  0
  140.5360   77.6140  221.8960 C   0  0  0  0  0  0  0  0  0  0  0  0
  141.5200   78.6830  221.4690 C   0  0  0  0  0  0  0  0  0  0  0  0
  142.2850   79.1310  222.6730 C   0  0  0  0  0  0  0  0  0  0  0  0
  141.3780   79.1550  223.8640 C   0  0  0  0  0  0  0  0  0  0  0  0
  139.9180   79.3610  223.4770 C   0  0  0  0  0  0  0  0  0  0  0  0
  139.4040   78.1550  222.7090 C   0  0  0  0  0  0  0  0  0  0  0  0
  141.4100   74.3870  220.7950 N   0  0  0  0  0  0  0  0  0  0  0  0
  142.2140   73.3370  221.0560 C   0  0  0  0  0  0  0  0  0  0  0  0
  143.4720   73.1460  220.4170 N   0  0  0  0  0  0  0  0  0  0  0  0
  144.6430   73.8610  220.8590 C   0  0  0  0  0  0  0  0  0  0  0  0
  145.9200   73.2550  220.3890 C   0  0  0  0  0  0  0  0  0  0  0  0
  145.9260   73.0180  218.9790 N   0  0  0  0  0  0  0  0  0  0  0  0
  144.6380   72.8390  218.3830 C   0  0  0  0  0  0  0  0  0  0  0  0
  143.6070   72.2260  219.3060 C   0  0  0  0  0  0  0  0  0  0  0  0
  141.7950   72.4360  221.9630 N   0  0  0  0  0  0  0  0  0  0  0  0
  140.9720   71.5000  224.8130 C   0  0  0  0  0  0  0  0  0  0  0  0
  139.2306   67.8266  228.3396 H   0  0  0  0  0  0  0  0  0  0  0  0
  140.7232   69.6969  229.0341 H   0  0  0  0  0  0  0  0  0  0  0  0
  141.5053   71.3667  227.3932 H   0  0  0  0  0  0  0  0  0  0  0  0
  138.5508   67.6847  225.9521 H   0  0  0  0  0  0  0  0  0  0  0  0
  139.9774   68.7316  223.4150 H   0  0  0  0  0  0  0  0  0  0  0  0
  138.2332   68.8776  223.9398 H   0  0  0  0  0  0  0  0  0  0  0  0
  139.0839   70.5048  222.1820 H   0  0  0  0  0  0  0  0  0  0  0  0
  138.1995   71.1520  223.6376 H   0  0  0  0  0  0  0  0  0  0  0  0
  138.3570   75.5470  221.2440 H   0  0  0  0  0  0  0  0  0  0  0  0
  140.8193   76.6718  219.9789 H   0  0  0  0  0  0  0  0  0  0  0  0
  139.2638   77.5277  220.1500 H   0  0  0  0  0  0  0  0  0  0  0  0
  141.0838   76.9103  222.5400 H   0  0  0  0  0  0  0  0  0  0  0  0
  142.2133   78.2717  220.7206 H   0  0  0  0  0  0  0  0  0  0  0  0
  140.9830   79.5342  221.0251 H   0  0  0  0  0  0  0  0  0  0  0  0
  143.1155   78.4341  222.8593 H   0  0  0  0  0  0  0  0  0  0  0  0
  142.6841   80.1409  222.4973 H   0  0  0  0  0  0  0  0  0  0  0  0
  141.4705   78.1978  224.3981 H   0  0  0  0  0  0  0  0  0  0  0  0
  141.6798   80.0010  224.4990 H   0  0  0  0  0  0  0  0  0  0  0  0
  139.3161   79.4954  224.3878 H   0  0  0  0  0  0  0  0  0  0  0  0
  139.8381   80.2536  222.8392 H   0  0  0  0  0  0  0  0  0  0  0  0
  139.0481   77.3876  223.4121 H   0  0  0  0  0  0  0  0  0  0  0  0
  138.5663   78.4434  222.0570 H   0  0  0  0  0  0  0  0  0  0  0  0
  144.5859   74.8918  220.4792 H   0  0  0  0  0  0  0  0  0  0  0  0
  144.6509   73.8221  221.9583 H   0  0  0  0  0  0  0  0  0  0  0  0
  146.7465   73.9377  220.6357 H   0  0  0  0  0  0  0  0  0  0  0  0
  146.0347   72.2836  220.8922 H   0  0  0  0  0  0  0  0  0  0  0  0
  146.3800   73.8190  218.4640 H   0  0  0  0  0  0  0  0  0  0  0  0
  144.2685   73.8228  218.0580 H   0  0  0  0  0  0  0  0  0  0  0  0
  144.7714   72.1365  217.5471 H   0  0  0  0  0  0  0  0  0  0  0  0
  142.6454   72.1126  218.7840 H   0  0  0  0  0  0  0  0  0  0  0  0
  143.9126   71.2252  219.6451 H   0  0  0  0  0  0  0  0  0  0  0  0
  142.0245   71.2795  224.5814 H   0  0  0  0  0  0  0  0  0  0  0  0
  140.8595   72.4742  225.3113 H   0  0  0  0  0  0  0  0  0  0  0  0
  1  2  2  0
  2  3  1  0
  3  4  2  0
  4  5  1  0
  5  6  2  0
  5  7  1  0
  7  8  1  0
  8  9  1  0
  9 10  1  0
 10 11  2  0
 11 12  1  0
 12 13  1  0
 13 14  1  0
 14 15  1  0
 15 16  1  0
 16 17  1  0
 17 18  1  0
 18 19  1  0
 19 20  1  0
 12 21  2  0
 21 22  1  0
 22 23  1  0
 23 24  1  0
 24 25  1  0
 25 26  1  0
 26 27  1  0
 27 28  1  0
 22 29  2  0
  9 30  1  0
  6  1  1  0
 29 10  1  0
 30  4  1  0
 20 15  1  0
 28 23  1  0
  1 31  1  0
  2 32  1  0
  3 33  1  0
  6 34  1  0
  7 35  1  0
  7 36  1  0
  8 37  1  0
  8 38  1  0
 13 39  1  0
 14 40  1  0
 14 41  1  0
 15 42  1  0
 16 43  1  0
 16 44  1  0
 17 45  1  0
 17 46  1  0
 18 47  1  0
 18 48  1  0
 19 49  1  0
 19 50  1  0
 20 51  1  0
 20 52  1  0
 24 53  1  0
 24 54  1  0
 25 55  1  0
 25 56  1  0
 26 57  1  0
 27 58  1  0
 27 59  1  0
 28 60  1  0
 28 61  1  0
 30 62  1  0
 30 63  1  0
M  END
>  <smiles>  (16) 
c1ccc2c(c1)CCN(c1nc(NCC3CCCCC3)nc(N3CCNCC3)n1)C2

>  <score_type>  (16) 
oracle

>  <origin>  (16) 
autodockgpu

>  <m_score__min__energy>  (16) 
-9.9000000000000004

>  <m_primary>  (16) 
energy

>  <rmsd>  (16) 
3.907106596947669

>  <m_score__min__rmsd>  (16) 
3.907106596947669

>  <meeko>  (16) 
{"free_energy": -9.79, "intermolecular_energy": -11.28, "internal_energy": -0.97, "cluster_size": 39, "cluster_id": 1, "rank_in_cluster": 13}

>  <energy>  (16) 
-9.74

>  <cluster_rmsd>  (16) 
0.68

>  <cluster>  (16) 
1

$$$$

     RDKit          3D

 63 67  0  0  0  0  0  0  0  0999 V2000
  139.5800   68.4960  227.5140 C   0  0  0  0  0  0  0  0  0  0  0  0
  140.4110   69.5240  227.9130 C   0  0  0  0  0  0  0  0  0  0  0  0
  140.8610   70.4780  227.0120 C   0  0  0  0  0  0  0  0  0  0  0  0
  140.4890   70.4310  225.6760 C   0  0  0  0  0  0  0  0  0  0  0  0
  139.6570   69.4000  225.2790 C   0  0  0  0  0  0  0  0  0  0  0  0
  139.2150   68.4550  226.1840 C   0  0  0  0  0  0  0  0  0  0  0  0
  139.2540   69.3340  223.8730 C   0  0  0  0  0  0  0  0  0  0  0  0
  139.1490   70.6810  223.2140 C   0  0  0  0  0  0  0  0  0  0  0  0
  140.2600   71.5550  223.5350 N   0  0  0  0  0  0  0  0  0  0  0  0
  140.6670   72.5550  222.6020 C   0  0  0  0  0  0  0  0  0  0  0  0
  139.9290   73.6520  222.3440 N   0  0  0  0  0  0  0  0  0  0  0  0
  140.2910   74.6090  221.4690 C   0  0  0  0  0  0  0  0  0  0  0  0
  139.4860   75.7610  221.2180 N   0  0  0  0  0  0  0  0  0  0  0  0
  140.1180   76.9620  220.7380 C   0  0  0  0  0  0  0  0  0  0  0  0
  140.6600   77.7100  221.9420 C   0  0  0  0  0  0  0  0  0  0  0  0
  141.6310   78.7780  221.4840 C   0  0  0  0  0  0  0  0  0  0  0  0
  142.4010   79.2580  222.6720 C   0  0  0  0  0  0  0  0  0  0  0  0
  141.5040   79.2980  223.8710 C   0  0  0  0  0  0  0  0  0  0  0  0
  140.0390   79.4830  223.4910 C   0  0  0  0  0  0  0  0  0  0  0  0
  139.5300   78.2570  222.7530 C   0  0  0  0  0  0  0  0  0  0  0  0
  141.4730   74.4320  220.8210 N   0  0  0  0  0  0  0  0  0  0  0  0
  142.2530   73.3540  221.0390 C   0  0  0  0  0  0  0  0  0  0  0  0
  143.4940   73.1490  220.3730 N   0  0  0  0  0  0  0  0  0  0  0  0
  144.6980   73.7910  220.8360 C   0  0  0  0  0  0  0  0  0  0  0  0
  145.9440   73.1620  220.3160 C   0  0  0  0  0  0  0  0  0  0  0  0
  145.9240   73.0030  218.8950 N   0  0  0  0  0  0  0  0  0  0  0  0
  144.6220   72.9070  218.3080 C   0  0  0  0  0  0  0  0  0  0  0  0
  143.5790   72.2860  219.2120 C   0  0  0  0  0  0  0  0  0  0  0  0
  141.8260   72.4390  221.9280 N   0  0  0  0  0  0  0  0  0  0  0  0
  141.0010   71.4710  224.7810 C   0  0  0  0  0  0  0  0  0  0  0  0
  139.2230   67.7395  228.2283 H   0  0  0  0  0  0  0  0  0  0  0  0
  140.7223   69.5878  228.9661 H   0  0  0  0  0  0  0  0  0  0  0  0
  141.5228   71.2840  227.3619 H   0  0  0  0  0  0  0  0  0  0  0  0
  138.5541   67.6479  225.8351 H   0  0  0  0  0  0  0  0  0  0  0  0
  139.9975   68.7359  223.3257 H   0  0  0  0  0  0  0  0  0  0  0  0
  138.2516   68.8819  223.8453 H   0  0  0  0  0  0  0  0  0  0  0  0
  139.1196   70.5369  222.1239 H   0  0  0  0  0  0  0  0  0  0  0  0
  138.2329   71.1609  223.5888 H   0  0  0  0  0  0  0  0  0  0  0  0
  138.4650   75.6710  221.3980 H   0  0  0  0  0  0  0  0  0  0  0  0
  140.9409   76.7051  220.0548 H   0  0  0  0  0  0  0  0  0  0  0  0
  139.3959   77.5851  220.1899 H   0  0  0  0  0  0  0  0  0  0  0  0
  141.2188   77.0253  222.5969 H   0  0  0  0  0  0  0  0  0  0  0  0
  142.3221   78.3567  220.7391 H   0  0  0  0  0  0  0  0  0  0  0  0
  141.0833   79.6148  221.0259 H   0  0  0  0  0  0  0  0  0  0  0  0
  143.2399   78.5732  222.8653 H   0  0  0  0  0  0  0  0  0  0  0  0
  142.7880   80.2681  222.4721 H   0  0  0  0  0  0  0  0  0  0  0  0
  141.6096   78.3527  224.4236 H   0  0  0  0  0  0  0  0  0  0  0  0
  141.8034   80.1587  224.4870 H   0  0  0  0  0  0  0  0  0  0  0  0
  139.4428   79.6315  224.4034 H   0  0  0  0  0  0  0  0  0  0  0  0
  139.9464   80.3611  222.8350 H   0  0  0  0  0  0  0  0  0  0  0  0
  139.1873   77.5011  223.4750 H   0  0  0  0  0  0  0  0  0  0  0  0
  138.6841   78.5238  222.1024 H   0  0  0  0  0  0  0  0  0  0  0  0
  144.6780   74.8425  220.5137 H   0  0  0  0  0  0  0  0  0  0  0  0
  144.7176   73.6909  221.9313 H   0  0  0  0  0  0  0  0  0  0  0  0
  146.8000   73.7969  220.5881 H   0  0  0  0  0  0  0  0  0  0  0  0
  146.0255   72.1606  220.7638 H   0  0  0  0  0  0  0  0  0  0  0  0
  146.4040   73.8110  218.4180 H   0  0  0  0  0  0  0  0  0  0  0  0
  144.2881   73.9206  218.0412 H   0  0  0  0  0  0  0  0  0  0  0  0
  144.7170   72.2461  217.4338 H   0  0  0  0  0  0  0  0  0  0  0  0
  142.6073   72.2386  218.6987 H   0  0  0  0  0  0  0  0  0  0  0  0
  143.8492   71.2573  219.4928 H   0  0  0  0  0  0  0  0  0  0  0  0
  142.0533   71.2492  224.5500 H   0  0  0  0  0  0  0  0  0  0  0  0
  140.8917   72.4361  225.2974 H   0  0  0  0  0  0  0  0  0  0  0  0
  1  2  2  0
  2  3  1  0
  3  4  2  0
  4  5  1  0
  5  6  2  0
  5  7  1  0
  7  8  1  0
  8  9  1  0
  9 10  1  0
 10 11  2  0
 11 12  1  0
 12 13  1  0
 13 14  1  0
 14 15  1  0
 15 16  1  0
 16 17  1  0
 17 18  1  0
 18 19  1  0
 19 20  1  0
 12 21  2  0
 21 22  1  0
 22 23  1  0
 23 24  1  0
 24 25  1  0
 25 26  1  0
 26 27  1  0
 27 28  1  0
 22 29  2  0
  9 30  1  0
  6  1  1  0
 29 10  1  0
 30  4  1  0
 20 15  1  0
 28 23  1  0
  1 31  1  0
  2 32  1  0
  3 33  1  0
  6 34  1  0
  7 35  1  0
  7 36  1  0
  8 37  1  0
  8 38  1  0
 13 39  1  0
 14 40  1  0
 14 41  1  0
 15 42  1  0
 16 43  1  0
 16 44  1  0
 17 45  1  0
 17 46  1  0
 18 47  1  0
 18 48  1  0
 19 49  1  0
 19 50  1  0
 20 51  1  0
 20 52  1  0
 24 53  1  0
 24 54  1  0
 25 55  1  0
 25 56  1  0
 26 57  1  0
 27 58  1  0
 27 59  1  0
 28 60  1  0
 28 61  1  0
 30 62  1  0
 30 63  1  0
M  END
>  <smiles>  (17) 
c1ccc2c(c1)CCN(c1nc(NCC3CCCCC3)nc(N3CCNCC3)n1)C2

>  <score_type>  (17) 
oracle

>  <origin>  (17) 
autodockgpu

>  <m_score__min__energy>  (17) 
-9.9000000000000004

>  <m_primary>  (17) 
energy

>  <rmsd>  (17) 
3.900560339298905

>  <m_score__min__rmsd>  (17) 
3.900560339298905

>  <meeko>  (17) 
{"free_energy": -9.86, "intermolecular_energy": -11.35, "internal_energy": -0.95, "cluster_size": 39, "cluster_id": 1, "rank_in_cluster": 6}

>  <energy>  (17) 
-9.7

>  <cluster_rmsd>  (17) 
0.64

>  <cluster>  (17) 
1

$$$$

     RDKit          3D

 63 67  0  0  0  0  0  0  0  0999 V2000
  139.6060   68.5240  227.4070 C   0  0  0  0  0  0  0  0  0  0  0  0
  140.4500   69.5390  227.8120 C   0  0  0  0  0  0  0  0  0  0  0  0
  140.8990   70.5020  226.9190 C   0  0  0  0  0  0  0  0  0  0  0  0
  140.5140   70.4760  225.5860 C   0  0  0  0  0  0  0  0  0  0  0  0
  139.6690   69.4580  225.1840 C   0  0  0  0  0  0  0  0  0  0  0  0
  139.2270   68.5050  226.0800 C   0  0  0  0  0  0  0  0  0  0  0  0
  139.2520   69.4140  223.7820 C   0  0  0  0  0  0  0  0  0  0  0  0
  139.1520   70.7710  223.1410 C   0  0  0  0  0  0  0  0  0  0  0  0
  140.2740   71.6310  223.4640 N   0  0  0  0  0  0  0  0  0  0  0  0
  140.6810   72.6390  222.5390 C   0  0  0  0  0  0  0  0  0  0  0  0
  139.9580   73.7540  222.3150 N   0  0  0  0  0  0  0  0  0  0  0  0
  140.3200   74.7190  221.4490 C   0  0  0  0  0  0  0  0  0  0  0  0
  139.5310   75.8900  221.2340 N   0  0  0  0  0  0  0  0  0  0  0  0
  139.1120   76.6670  222.3710 C   0  0  0  0  0  0  0  0  0  0  0  0
  139.9040   77.9600  222.3640 C   0  0  0  0  0  0  0  0  0  0  0  0
  139.1610   79.0190  223.1510 C   0  0  0  0  0  0  0  0  0  0  0  0
  139.7690   80.3500  222.8450 C   0  0  0  0  0  0  0  0  0  0  0  0
  141.2520   80.2030  222.6950 C   0  0  0  0  0  0  0  0  0  0  0  0
  141.7980   79.0130  223.4760 C   0  0  0  0  0  0  0  0  0  0  0  0
  141.2870   77.7140  222.8770 C   0  0  0  0  0  0  0  0  0  0  0  0
  141.4860   74.5330  220.7760 N   0  0  0  0  0  0  0  0  0  0  0  0
  142.2510   73.4380  220.9590 C   0  0  0  0  0  0  0  0  0  0  0  0
  143.4750   73.2230  220.2660 N   0  0  0  0  0  0  0  0  0  0  0  0
  144.7340   73.6170  220.8460 C   0  0  0  0  0  0  0  0  0  0  0  0
  145.9110   72.9600  220.2120 C   0  0  0  0  0  0  0  0  0  0  0  0
  145.9050   73.0840  218.7880 N   0  0  0  0  0  0  0  0  0  0  0  0
  144.6140   73.2580  218.1940 C   0  0  0  0  0  0  0  0  0  0  0  0
  143.4860   72.5990  218.9580 C   0  0  0  0  0  0  0  0  0  0  0  0
  141.8250   72.5150  221.8410 N   0  0  0  0  0  0  0  0  0  0  0  0
  141.0260   71.5230  224.7010 C   0  0  0  0  0  0  0  0  0  0  0  0
  139.2497   67.7605  228.1142 H   0  0  0  0  0  0  0  0  0  0  0  0
  140.7727   69.5853  228.8626 H   0  0  0  0  0  0  0  0  0  0  0  0
  141.5704   71.2981  227.2734 H   0  0  0  0  0  0  0  0  0  0  0  0
  138.5547   67.7092  225.7267 H   0  0  0  0  0  0  0  0  0  0  0  0
  139.9850   68.8169  223.2197 H   0  0  0  0  0  0  0  0  0  0  0  0
  138.2454   68.9710  223.7584 H   0  0  0  0  0  0  0  0  0  0  0  0
  139.1117   70.6416  222.0494 H   0  0  0  0  0  0  0  0  0  0  0  0
  138.2431   71.2537  223.5295 H   0  0  0  0  0  0  0  0  0  0  0  0
  139.2950   76.1240  220.2490 H   0  0  0  0  0  0  0  0  0  0  0  0
  138.0365   76.8862  222.2989 H   0  0  0  0  0  0  0  0  0  0  0  0
  139.2902   76.1115  223.3036 H   0  0  0  0  0  0  0  0  0  0  0  0
  140.0086   78.3368  221.3358 H   0  0  0  0  0  0  0  0  0  0  0  0
  138.0998   79.0203  222.8616 H   0  0  0  0  0  0  0  0  0  0  0  0
  139.2345   78.8094  224.2283 H   0  0  0  0  0  0  0  0  0  0  0  0
  139.3433   80.7403  221.9088 H   0  0  0  0  0  0  0  0  0  0  0  0
  139.5526   81.0479  223.6672 H   0  0  0  0  0  0  0  0  0  0  0  0
  141.4877   80.0649  221.6295 H   0  0  0  0  0  0  0  0  0  0  0  0
  141.7224   81.1129  223.0962 H   0  0  0  0  0  0  0  0  0  0  0  0
  142.8972   79.0246  223.4347 H   0  0  0  0  0  0  0  0  0  0  0  0
  141.4609   79.0838  224.5207 H   0  0  0  0  0  0  0  0  0  0  0  0
  141.9420   77.3996  222.0511 H   0  0  0  0  0  0  0  0  0  0  0  0
  141.2793   76.9178  223.6359 H   0  0  0  0  0  0  0  0  0  0  0  0
  144.8422   74.7062  220.7366 H   0  0  0  0  0  0  0  0  0  0  0  0
  144.7171   73.3036  221.9003 H   0  0  0  0  0  0  0  0  0  0  0  0
  146.8279   73.4253  220.6029 H   0  0  0  0  0  0  0  0  0  0  0  0
  145.8668   71.8880  220.4547 H   0  0  0  0  0  0  0  0  0  0  0  0
  146.4850   73.9080  218.4790 H   0  0  0  0  0  0  0  0  0  0  0  0
  144.4051   74.3362  218.1322 H   0  0  0  0  0  0  0  0  0  0  0  0
  144.6523   72.7742  217.2068 H   0  0  0  0  0  0  0  0  0  0  0  0
  142.5272   72.7672  218.4456 H   0  0  0  0  0  0  0  0  0  0  0  0
  143.6289   71.5107  219.0307 H   0  0  0  0  0  0  0  0  0  0  0  0
  142.0740   71.2952  224.4565 H   0  0  0  0  0  0  0  0  0  0  0  0
  140.9301   72.4817  225.2318 H   0  0  0  0  0  0  0  0  0  0  0  0
  1  2  2  0
  2  3  1  0
  3  4  2  0
  4  5  1  0
  5  6  2  0
  5  7  1  0
  7  8  1  0
  8  9  1  0
  9 10  1  0
 10 11  2  0
 11 12  1  0
 12 13  1  0
 13 14  1  0
 14 15  1  0
 15 16  1  0
 16 17  1  0
 17 18  1  0
 18 19  1  0
 19 20  1  0
 12 21  2  0
 21 22  1  0
 22 23  1  0
 23 24  1  0
 24 25  1  0
 25 26  1  0
 26 27  1  0
 27 28  1  0
 22 29  2  0
  9 30  1  0
  6  1  1  0
 29 10  1  0
 30  4  1  0
 20 15  1  0
 28 23  1  0
  1 31  1  0
  2 32  1  0
  3 33  1  0
  6 34  1  0
  7 35  1  0
  7 36  1  0
  8 37  1  0
  8 38  1  0
 13 39  1  0
 14 40  1  0
 14 41  1  0
 15 42  1  0
 16 43  1  0
 16 44  1  0
 17 45  1  0
 17 46  1  0
 18 47  1  0
 18 48  1  0
 19 49  1  0
 19 50  1  0
 20 51  1  0
 20 52  1  0
 24 53  1  0
 24 54  1  0
 25 55  1  0
 25 56  1  0
 26 57  1  0
 27 58  1  0
 27 59  1  0
 28 60  1  0
 28 61  1  0
 30 62  1  0
 30 63  1  0
M  END
>  <smiles>  (18) 
c1ccc2c(c1)CCN(c1nc(NCC3CCCCC3)nc(N3CCNCC3)n1)C2

>  <score_type>  (18) 
oracle

>  <origin>  (18) 
autodockgpu

>  <m_score__min__energy>  (18) 
-9.9000000000000004

>  <m_primary>  (18) 
energy

>  <rmsd>  (18) 
3.890739285636182

>  <m_score__min__rmsd>  (18) 
3.890739285636182

>  <meeko>  (18) 
{"free_energy": -9.69, "intermolecular_energy": -11.18, "internal_energy": -0.91, "cluster_size": 39, "cluster_id": 1, "rank_in_cluster": 20}

>  <energy>  (18) 
-9.7

>  <cluster_rmsd>  (18) 
0.39

>  <cluster>  (18) 
1

$$$$

     RDKit          3D

 63 67  0  0  0  0  0  0  0  0999 V2000
  139.5870   68.5380  227.5710 C   0  0  0  0  0  0  0  0  0  0  0  0
  140.4080   69.5760  227.9620 C   0  0  0  0  0  0  0  0  0  0  0  0
  140.8540   70.5250  227.0530 C   0  0  0  0  0  0  0  0  0  0  0  0
  140.4860   70.4610  225.7160 C   0  0  0  0  0  0  0  0  0  0  0  0
  139.6630   69.4210  225.3270 C   0  0  0  0  0  0  0  0  0  0  0  0
  139.2250   68.4810  226.2400 C   0  0  0  0  0  0  0  0  0  0  0  0
  139.2650   69.3370  223.9210 C   0  0  0  0  0  0  0  0  0  0  0  0
  139.1510   70.6770  223.2480 C   0  0  0  0  0  0  0  0  0  0  0  0
  140.2550   71.5620  223.5640 N   0  0  0  0  0  0  0  0  0  0  0  0
  140.6570   72.5560  222.6220 C   0  0  0  0  0  0  0  0  0  0  0  0
  139.9140   73.6470  222.3550 N   0  0  0  0  0  0  0  0  0  0  0  0
  140.2720   74.5980  221.4710 C   0  0  0  0  0  0  0  0  0  0  0  0
  139.4610   75.7440  221.2100 N   0  0  0  0  0  0  0  0  0  0  0  0
  139.1690   76.6520  222.2890 C   0  0  0  0  0  0  0  0  0  0  0  0
  140.0450   77.8770  222.1120 C   0  0  0  0  0  0  0  0  0  0  0  0
  141.1960   77.8270  223.0950 C   0  0  0  0  0  0  0  0  0  0  0  0
  141.8350   79.1780  223.1450 C   0  0  0  0  0  0  0  0  0  0  0  0
  141.8330   79.7860  221.7750 C   0  0  0  0  0  0  0  0  0  0  0  0
  141.8150   78.7320  220.6740 C   0  0  0  0  0  0  0  0  0  0  0  0
  140.4950   77.9800  220.6900 C   0  0  0  0  0  0  0  0  0  0  0  0
  141.4540   74.4210  220.8250 N   0  0  0  0  0  0  0  0  0  0  0  0
  142.2390   73.3480  221.0510 C   0  0  0  0  0  0  0  0  0  0  0  0
  143.4810   73.1430  220.3870 N   0  0  0  0  0  0  0  0  0  0  0  0
  144.6850   73.7860  220.8510 C   0  0  0  0  0  0  0  0  0  0  0  0
  145.9310   73.1560  220.3320 C   0  0  0  0  0  0  0  0  0  0  0  0
  145.9130   72.9970  218.9120 N   0  0  0  0  0  0  0  0  0  0  0  0
  144.6110   72.9010  218.3240 C   0  0  0  0  0  0  0  0  0  0  0  0
  143.5670   72.2800  219.2260 C   0  0  0  0  0  0  0  0  0  0  0  0
  141.8170   72.4400  221.9490 N   0  0  0  0  0  0  0  0  0  0  0  0
  140.9930   71.4960  224.8130 C   0  0  0  0  0  0  0  0  0  0  0  0
  139.2348   67.7854  228.2917 H   0  0  0  0  0  0  0  0  0  0  0  0
  140.7151   69.6527  229.0155 H   0  0  0  0  0  0  0  0  0  0  0  0
  141.5085   71.3396  227.3968 H   0  0  0  0  0  0  0  0  0  0  0  0
  138.5707   67.6658  225.8974 H   0  0  0  0  0  0  0  0  0  0  0  0
  140.0151   68.7395  223.3821 H   0  0  0  0  0  0  0  0  0  0  0  0
  138.2666   68.8761  223.8947 H   0  0  0  0  0  0  0  0  0  0  0  0
  139.1257   70.5221  222.1593 H   0  0  0  0  0  0  0  0  0  0  0  0
  138.2300   71.1537  223.6148 H   0  0  0  0  0  0  0  0  0  0  0  0
  139.1160   75.8660  220.2360 H   0  0  0  0  0  0  0  0  0  0  0  0
  138.1085   76.9423  222.2575 H   0  0  0  0  0  0  0  0  0  0  0  0
  139.3682   76.1734  223.2592 H   0  0  0  0  0  0  0  0  0  0  0  0
  139.4730   78.7906  222.3313 H   0  0  0  0  0  0  0  0  0  0  0  0
  140.8204   77.5568  224.0930 H   0  0  0  0  0  0  0  0  0  0  0  0
  141.9314   77.0733  222.7769 H   0  0  0  0  0  0  0  0  0  0  0  0
  141.2709   79.8246  223.8333 H   0  0  0  0  0  0  0  0  0  0  0  0
  142.8717   79.0790  223.4993 H   0  0  0  0  0  0  0  0  0  0  0  0
  140.9409   80.4211  221.6712 H   0  0  0  0  0  0  0  0  0  0  0  0
  142.7579   80.3712  221.6653 H   0  0  0  0  0  0  0  0  0  0  0  0
  141.9415   79.2236  219.6981 H   0  0  0  0  0  0  0  0  0  0  0  0
  142.6360   78.0201  220.8447 H   0  0  0  0  0  0  0  0  0  0  0  0
  139.7456   78.5269  220.0990 H   0  0  0  0  0  0  0  0  0  0  0  0
  140.6181   76.9783  220.2524 H   0  0  0  0  0  0  0  0  0  0  0  0
  144.6654   74.8373  220.5279 H   0  0  0  0  0  0  0  0  0  0  0  0
  144.7038   73.6874  221.9464 H   0  0  0  0  0  0  0  0  0  0  0  0
  146.7872   73.7902  220.6052 H   0  0  0  0  0  0  0  0  0  0  0  0
  146.0107   72.1544  220.7796 H   0  0  0  0  0  0  0  0  0  0  0  0
  146.3930   73.8050  218.4350 H   0  0  0  0  0  0  0  0  0  0  0  0
  144.2774   73.9147  218.0573 H   0  0  0  0  0  0  0  0  0  0  0  0
  144.7070   72.2400  217.4500 H   0  0  0  0  0  0  0  0  0  0  0  0
  142.5959   72.2330  218.7114 H   0  0  0  0  0  0  0  0  0  0  0  0
  143.8363   71.2511  219.5067 H   0  0  0  0  0  0  0  0  0  0  0  0
  142.0477   71.2800  224.5873 H   0  0  0  0  0  0  0  0  0  0  0  0
  140.8751   72.4652  225.3197 H   0  0  0  0  0  0  0  0  0  0  0  0
  1  2  2  0
  2  3  1  0
  3  4  2  0
  4  5  1  0
  5  6  2  0
  5  7  1  0
  7  8  1  0
  8  9  1  0
  9 10  1  0
 10 11  2  0
 11 12  1  0
 12 13  1  0
 13 14  1  0
 14 15  1  0
 15 16  1  0
 16 17  1  0
 17 18  1  0
 18 19  1  0
 19 20  1  0
 12 21  2  0
 21 22  1  0
 22 23  1  0
 23 24  1  0
 24 25  1  0
 25 26  1  0
 26 27  1  0
 27 28  1  0
 22 29  2  0
  9 30  1  0
  6  1  1  0
 29 10  1  0
 30  4  1  0
 20 15  1  0
 28 23  1  0
  1 31  1  0
  2 32  1  0
  3 33  1  0
  6 34  1  0
  7 35  1  0
  7 36  1  0
  8 37  1  0
  8 38  1  0
 13 39  1  0
 14 40  1  0
 14 41  1  0
 15 42  1  0
 16 43  1  0
 16 44  1  0
 17 45  1  0
 17 46  1  0
 18 47  1  0
 18 48  1  0
 19 49  1  0
 19 50  1  0
 20 51  1  0
 20 52  1  0
 24 53  1  0
 24 54  1  0
 25 55  1  0
 25 56  1  0
 26 57  1  0
 27 58  1  0
 27 59  1  0
 28 60  1  0
 28 61  1  0
 30 62  1  0
 30 63  1  0
M  END
>  <smiles>  (19) 
c1ccc2c(c1)CCN(c1nc(NCC3CCCCC3)nc(N3CCNCC3)n1)C2

>  <score_type>  (19) 
oracle

>  <origin>  (19) 
autodockgpu

>  <m_score__min__energy>  (19) 
-9.9000000000000004

>  <m_primary>  (19) 
energy

>  <rmsd>  (19) 
3.905833845216

>  <m_score__min__rmsd>  (19) 
3.905833845216

>  <meeko>  (19) 
{"free_energy": -9.59, "intermolecular_energy": -11.08, "internal_energy": -1.07, "cluster_size": 39, "cluster_id": 1, "rank_in_cluster": 26}

>  <energy>  (19) 
-9.69

>  <cluster_rmsd>  (19) 
0.62

>  <cluster>  (19) 
1

$$$$

     RDKit          3D

 63 67  0  0  0  0  0  0  0  0999 V2000
  139.5900   68.4990  227.4720 C   0  0  0  0  0  0  0  0  0  0  0  0
  140.4230   69.5240  227.8750 C   0  0  0  0  0  0  0  0  0  0  0  0
  140.8670   70.4860  226.9780 C   0  0  0  0  0  0  0  0  0  0  0  0
  140.4880   70.4490  225.6440 C   0  0  0  0  0  0  0  0  0  0  0  0
  139.6540   69.4210  225.2430 C   0  0  0  0  0  0  0  0  0  0  0  0
  139.2170   68.4680  226.1440 C   0  0  0  0  0  0  0  0  0  0  0  0
  139.2430   69.3650  223.8400 C   0  0  0  0  0  0  0  0  0  0  0  0
  139.1340   70.7180  223.1920 C   0  0  0  0  0  0  0  0  0  0  0  0
  140.2460   71.5890  223.5140 N   0  0  0  0  0  0  0  0  0  0  0  0
  140.6480   72.5970  222.5860 C   0  0  0  0  0  0  0  0  0  0  0  0
  139.9160   73.7050  222.3540 N   0  0  0  0  0  0  0  0  0  0  0  0
  140.2740   74.6690  221.4850 C   0  0  0  0  0  0  0  0  0  0  0  0
  139.4760   75.8320  221.2620 N   0  0  0  0  0  0  0  0  0  0  0  0
  140.0530   76.9490  220.5590 C   0  0  0  0  0  0  0  0  0  0  0  0
  140.1210   78.1160  221.5250 C   0  0  0  0  0  0  0  0  0  0  0  0
  139.1170   77.9160  222.6400 C   0  0  0  0  0  0  0  0  0  0  0  0
  138.9560   79.2110  223.3700 C   0  0  0  0  0  0  0  0  0  0  0  0
  140.2780   79.9090  223.4530 C   0  0  0  0  0  0  0  0  0  0  0  0
  141.4510   78.9370  223.3930 C   0  0  0  0  0  0  0  0  0  0  0  0
  141.5210   78.2840  222.0230 C   0  0  0  0  0  0  0  0  0  0  0  0
  141.4430   74.4880  220.8150 N   0  0  0  0  0  0  0  0  0  0  0  0
  142.2150   73.3990  221.0060 C   0  0  0  0  0  0  0  0  0  0  0  0
  143.4420   73.1900  220.3160 N   0  0  0  0  0  0  0  0  0  0  0  0
  144.6820   73.7130  220.8340 C   0  0  0  0  0  0  0  0  0  0  0  0
  145.8890   73.0680  220.2470 C   0  0  0  0  0  0  0  0  0  0  0  0
  145.8600   73.0510  218.8180 N   0  0  0  0  0  0  0  0  0  0  0  0
  144.5550   73.0900  218.2320 C   0  0  0  0  0  0  0  0  0  0  0  0
  143.4770   72.4440  219.0750 C   0  0  0  0  0  0  0  0  0  0  0  0
  141.7940   72.4780  221.8910 N   0  0  0  0  0  0  0  0  0  0  0  0
  140.9940   71.4960  224.7550 C   0  0  0  0  0  0  0  0  0  0  0  0
  139.2374   67.7367  228.1823 H   0  0  0  0  0  0  0  0  0  0  0  0
  140.7407   69.5793  228.9267 H   0  0  0  0  0  0  0  0  0  0  0  0
  141.5297   71.2901  227.3305 H   0  0  0  0  0  0  0  0  0  0  0  0
  138.5542   67.6635  225.7928 H   0  0  0  0  0  0  0  0  0  0  0  0
  139.9833   68.7712  223.2838 H   0  0  0  0  0  0  0  0  0  0  0  0
  138.2407   68.9124  223.8144 H   0  0  0  0  0  0  0  0  0  0  0  0
  139.0988   70.5827  222.1009 H   0  0  0  0  0  0  0  0  0  0  0  0
  138.2198   71.1947  223.5754 H   0  0  0  0  0  0  0  0  0  0  0  0
  138.5020   75.8130  221.6260 H   0  0  0  0  0  0  0  0  0  0  0  0
  141.0642   76.6910  220.2113 H   0  0  0  0  0  0  0  0  0  0  0  0
  139.4421   77.2096  219.6821 H   0  0  0  0  0  0  0  0  0  0  0  0
  139.8508   79.0511  221.0125 H   0  0  0  0  0  0  0  0  0  0  0  0
  138.1501   77.6053  222.2176 H   0  0  0  0  0  0  0  0  0  0  0  0
  139.4698   77.1353  223.3299 H   0  0  0  0  0  0  0  0  0  0  0  0
  138.2389   79.8480  222.8315 H   0  0  0  0  0  0  0  0  0  0  0  0
  138.5829   79.0136  224.3858 H   0  0  0  0  0  0  0  0  0  0  0  0
  140.3593   80.6136  222.6122 H   0  0  0  0  0  0  0  0  0  0  0  0
  140.3227   80.4306  224.4205 H   0  0  0  0  0  0  0  0  0  0  0  0
  142.3863   79.4839  223.5832 H   0  0  0  0  0  0  0  0  0  0  0  0
  141.3106   78.1571  224.1559 H   0  0  0  0  0  0  0  0  0  0  0  0
  142.0897   78.9237  221.3321 H   0  0  0  0  0  0  0  0  0  0  0  0
  142.0257   77.3087  222.0874 H   0  0  0  0  0  0  0  0  0  0  0  0
  144.7229   74.7907  220.6176 H   0  0  0  0  0  0  0  0  0  0  0  0
  144.6958   73.5039  221.9139 H   0  0  0  0  0  0  0  0  0  0  0  0
  146.7804   73.6228  220.5752 H   0  0  0  0  0  0  0  0  0  0  0  0
  145.9122   72.0242  220.5934 H   0  0  0  0  0  0  0  0  0  0  0  0
  146.3860   73.8740  218.4210 H   0  0  0  0  0  0  0  0  0  0  0  0
  144.2812   74.1429  218.0694 H   0  0  0  0  0  0  0  0  0  0  0  0
  144.6114   72.5149  217.2960 H   0  0  0  0  0  0  0  0  0  0  0  0
  142.5045   72.5049  218.5646 H   0  0  0  0  0  0  0  0  0  0  0  0
  143.6863   71.3785  219.2505 H   0  0  0  0  0  0  0  0  0  0  0  0
  142.0452   71.2770  224.5164 H   0  0  0  0  0  0  0  0  0  0  0  0
  140.8869   72.4569  225.2796 H   0  0  0  0  0  0  0  0  0  0  0  0
  1  2  2  0
  2  3  1  0
  3  4  2  0
  4  5  1  0
  5  6  2  0
  5  7  1  0
  7  8  1  0
  8  9  1  0
  9 10  1  0
 10 11  2  0
 11 12  1  0
 12 13  1  0
 13 14  1  0
 14 15  1  0
 15 16  1  0
 16 17  1  0
 17 18  1  0
 18 19  1  0
 19 20  1  0
 12 21  2  0
 21 22  1  0
 22 23  1  0
 23 24  1  0
 24 25  1  0
 25 26  1  0
 26 27  1  0
 27 28  1  0
 22 29  2  0
  9 30  1  0
  6  1  1  0
 29 10  1  0
 30  4  1  0
 20 15  1  0
 28 23  1  0
  1 31  1  0
  2 32  1  0
  3 33  1  0
  6 34  1  0
  7 35  1  0
  7 36  1  0
  8 37  1  0
  8 38  1  0
 13 39  1  0
 14 40  1  0
 14 41  1  0
 15 42  1  0
 16 43  1  0
 16 44  1  0
 17 45  1  0
 17 46  1  0
 18 47  1  0
 18 48  1  0
 19 49  1  0
 19 50  1  0
 20 51  1  0
 20 52  1  0
 24 53  1  0
 24 54  1  0
 25 55  1  0
 25 56  1  0
 26 57  1  0
 27 58  1  0
 27 59  1  0
 28 60  1  0
 28 61  1  0
 30 62  1  0
 30 63  1  0
M  END
>  <smiles>  (20) 
c1ccc2c(c1)CCN(c1nc(NCC3CCCCC3)nc(N3CCNCC3)n1)C2

>  <score_type>  (20) 
oracle

>  <origin>  (20) 
autodockgpu

>  <m_score__min__energy>  (20) 
-9.9000000000000004

>  <m_primary>  (20) 
energy

>  <rmsd>  (20) 
3.8942045803483256

>  <m_score__min__rmsd>  (20) 
3.8942045803483256

>  <meeko>  (20) 
{"free_energy": -9.45, "intermolecular_energy": -10.94, "internal_energy": -0.97, "cluster_size": 39, "cluster_id": 1, "rank_in_cluster": 38}

>  <energy>  (20) 
-9.69

>  <cluster_rmsd>  (20) 
0.66

>  <cluster>  (20) 
1

$$$$

     RDKit          3D

 63 67  0  0  0  0  0  0  0  0999 V2000
  139.5480   68.3320  227.2310 C   0  0  0  0  0  0  0  0  0  0  0  0
  140.3900   69.3310  227.6790 C   0  0  0  0  0  0  0  0  0  0  0  0
  140.8570   70.3180  226.8220 C   0  0  0  0  0  0  0  0  0  0  0  0
  140.4920   70.3340  225.4840 C   0  0  0  0  0  0  0  0  0  0  0  0
  139.6490   69.3330  225.0380 C   0  0  0  0  0  0  0  0  0  0  0  0
  139.1890   68.3540  225.8990 C   0  0  0  0  0  0  0  0  0  0  0  0
  139.2520   69.3340  223.6290 C   0  0  0  0  0  0  0  0  0  0  0  0
  139.1680   70.7100  223.0290 C   0  0  0  0  0  0  0  0  0  0  0  0
  140.2890   71.5540  223.3940 N   0  0  0  0  0  0  0  0  0  0  0  0
  140.7140   72.5880  222.5070 C   0  0  0  0  0  0  0  0  0  0  0  0
  140.0170   73.7280  222.3340 N   0  0  0  0  0  0  0  0  0  0  0  0
  140.3970   74.7180  221.5040 C   0  0  0  0  0  0  0  0  0  0  0  0
  139.6350   75.9160  221.3420 N   0  0  0  0  0  0  0  0  0  0  0  0
  140.2850   77.0890  220.8170 C   0  0  0  0  0  0  0  0  0  0  0  0
  140.8590   77.8610  221.9890 C   0  0  0  0  0  0  0  0  0  0  0  0
  141.7940   78.9390  221.4820 C   0  0  0  0  0  0  0  0  0  0  0  0
  142.6010   79.4480  222.6330 C   0  0  0  0  0  0  0  0  0  0  0  0
  141.7480   79.4890  223.8640 C   0  0  0  0  0  0  0  0  0  0  0  0
  140.2680   79.6440  223.5390 C   0  0  0  0  0  0  0  0  0  0  0  0
  139.7510   78.4000  222.8360 C   0  0  0  0  0  0  0  0  0  0  0  0
  141.5530   74.5300  220.8140 N   0  0  0  0  0  0  0  0  0  0  0  0
  142.2910   73.4100  220.9470 C   0  0  0  0  0  0  0  0  0  0  0  0
  143.5040   73.1930  220.2350 N   0  0  0  0  0  0  0  0  0  0  0  0
  144.7780   73.5210  220.8240 C   0  0  0  0  0  0  0  0  0  0  0  0
  145.9310   72.8610  220.1500 C   0  0  0  0  0  0  0  0  0  0  0  0
  145.9200   73.0540  218.7340 N   0  0  0  0  0  0  0  0  0  0  0  0
  144.6320   73.2940  218.1590 C   0  0  0  0  0  0  0  0  0  0  0  0
  143.4890   72.6330  218.8980 C   0  0  0  0  0  0  0  0  0  0  0  0
  141.8480   72.4640  221.7950 N   0  0  0  0  0  0  0  0  0  0  0  0
  141.0220   71.4050  224.6390 C   0  0  0  0  0  0  0  0  0  0  0  0
  139.1781   67.5494  227.9097 H   0  0  0  0  0  0  0  0  0  0  0  0
  140.6964   69.3447  228.7354 H   0  0  0  0  0  0  0  0  0  0  0  0
  141.5269   71.0995  227.2100 H   0  0  0  0  0  0  0  0  0  0  0  0
  138.5192   67.5720  225.5119 H   0  0  0  0  0  0  0  0  0  0  0  0
  139.9901   68.7505  223.0592 H   0  0  0  0  0  0  0  0  0  0  0  0
  138.2438   68.8971  223.5773 H   0  0  0  0  0  0  0  0  0  0  0  0
  139.1428   70.6143  221.9335 H   0  0  0  0  0  0  0  0  0  0  0  0
  138.2560   71.1853  223.4195 H   0  0  0  0  0  0  0  0  0  0  0  0
  138.6330   75.8780  221.6170 H   0  0  0  0  0  0  0  0  0  0  0  0
  141.0926   76.7944  220.1308 H   0  0  0  0  0  0  0  0  0  0  0  0
  139.5681   77.7103  220.2602 H   0  0  0  0  0  0  0  0  0  0  0  0
  141.4539   77.1939  222.6302 H   0  0  0  0  0  0  0  0  0  0  0  0
  142.4633   78.5195  220.7165 H   0  0  0  0  0  0  0  0  0  0  0  0
  141.2146   79.7607  221.0358 H   0  0  0  0  0  0  0  0  0  0  0  0
  143.4581   78.7799  222.8033 H   0  0  0  0  0  0  0  0  0  0  0  0
  142.9641   80.4611  222.4056 H   0  0  0  0  0  0  0  0  0  0  0  0
  141.8907   78.5531  224.4242 H   0  0  0  0  0  0  0  0  0  0  0  0
  142.0551   80.3636  224.4563 H   0  0  0  0  0  0  0  0  0  0  0  0
  139.7051   79.7943  224.4720 H   0  0  0  0  0  0  0  0  0  0  0  0
  140.1355   80.5117  222.8760 H   0  0  0  0  0  0  0  0  0  0  0  0
  139.4486   77.6481  223.5798 H   0  0  0  0  0  0  0  0  0  0  0  0
  138.8764   78.6445  222.2153 H   0  0  0  0  0  0  0  0  0  0  0  0
  144.9181   74.6105  220.7666 H   0  0  0  0  0  0  0  0  0  0  0  0
  144.7582   73.1574  221.8620 H   0  0  0  0  0  0  0  0  0  0  0  0
  146.8638   73.2795  220.5559 H   0  0  0  0  0  0  0  0  0  0  0  0
  145.8562   71.7803  220.3409 H   0  0  0  0  0  0  0  0  0  0  0  0
  146.5220   73.8750  218.4600 H   0  0  0  0  0  0  0  0  0  0  0  0
  144.4551   74.3796  218.1504 H   0  0  0  0  0  0  0  0  0  0  0  0
  144.6503   72.8567  217.1498 H   0  0  0  0  0  0  0  0  0  0  0  0
  142.5330   72.8545  218.4010 H   0  0  0  0  0  0  0  0  0  0  0  0
  143.5994   71.5387  218.9171 H   0  0  0  0  0  0  0  0  0  0  0  0
  142.0726   71.1797  224.4036 H   0  0  0  0  0  0  0  0  0  0  0  0
  140.9222   72.3476  225.1972 H   0  0  0  0  0  0  0  0  0  0  0  0
  1  2  2  0
  2  3  1  0
  3  4  2  0
  4  5  1  0
  5  6  2  0
  5  7  1  0
  7  8  1  0
  8  9  1  0
  9 10  1  0
 10 11  2  0
 11 12  1  0
 12 13  1  0
 13 14  1  0
 14 15  1  0
 15 16  1  0
 16 17  1  0
 17 18  1  0
 18 19  1  0
 19 20  1  0
 12 21  2  0
 21 22  1  0
 22 23  1  0
 23 24  1  0
 24 25  1  0
 25 26  1  0
 26 27  1  0
 27 28  1  0
 22 29  2  0
  9 30  1  0
  6  1  1  0
 29 10  1  0
 30  4  1  0
 20 15  1  0
 28 23  1  0
  1 31  1  0
  2 32  1  0
  3 33  1  0
  6 34  1  0
  7 35  1  0
  7 36  1  0
  8 37  1  0
  8 38  1  0
 13 39  1  0
 14 40  1  0
 14 41  1  0
 15 42  1  0
 16 43  1  0
 16 44  1  0
 17 45  1  0
 17 46  1  0
 18 47  1  0
 18 48  1  0
 19 49  1  0
 19 50  1  0
 20 51  1  0
 20 52  1  0
 24 53  1  0
 24 54  1  0
 25 55  1  0
 25 56  1  0
 26 57  1  0
 27 58  1  0
 27 59  1  0
 28 60  1  0
 28 61  1  0
 30 62  1  0
 30 63  1  0
M  END
>  <smiles>  (21) 
c1ccc2c(c1)CCN(c1nc(NCC3CCCCC3)nc(N3CCNCC3)n1)C2

>  <score_type>  (21) 
oracle

>  <origin>  (21) 
autodockgpu

>  <m_score__min__energy>  (21) 
-9.9000000000000004

>  <m_primary>  (21) 
energy

>  <rmsd>  (21) 
3.8819900265881713

>  <m_score__min__rmsd>  (21) 
3.8819900265881713

>  <meeko>  (21) 
{"free_energy": -9.83, "intermolecular_energy": -11.32, "internal_energy": -0.92, "cluster_size": 39, "cluster_id": 1, "rank_in_cluster": 8}

>  <energy>  (21) 
-9.67

>  <cluster_rmsd>  (21) 
0.75

>  <cluster>  (21) 
1

$$$$

     RDKit          3D

 63 67  0  0  0  0  0  0  0  0999 V2000
  139.5550   68.3750  227.3860 C   0  0  0  0  0  0  0  0  0  0  0  0
  140.4760   69.3250  227.7810 C   0  0  0  0  0  0  0  0  0  0  0  0
  140.9410   70.2890  226.8980 C   0  0  0  0  0  0  0  0  0  0  0  0
  140.4940   70.3310  225.5850 C   0  0  0  0  0  0  0  0  0  0  0  0
  139.5730   69.3780  225.1920 C   0  0  0  0  0  0  0  0  0  0  0  0
  139.1160   68.4220  226.0790 C   0  0  0  0  0  0  0  0  0  0  0  0
  139.0900   69.4060  223.8100 C   0  0  0  0  0  0  0  0  0  0  0  0
  139.0430   70.7870  223.2180 C   0  0  0  0  0  0  0  0  0  0  0  0
  140.2280   71.5680  223.5130 N   0  0  0  0  0  0  0  0  0  0  0  0
  140.6510   72.5830  222.6020 C   0  0  0  0  0  0  0  0  0  0  0  0
  139.9310   73.6970  222.3700 N   0  0  0  0  0  0  0  0  0  0  0  0
  140.3100   74.6680  221.5160 C   0  0  0  0  0  0  0  0  0  0  0  0
  139.5230   75.8380  221.2910 N   0  0  0  0  0  0  0  0  0  0  0  0
  140.1690   77.0280  220.8020 C   0  0  0  0  0  0  0  0  0  0  0  0
  140.7400   77.7680  221.9960 C   0  0  0  0  0  0  0  0  0  0  0  0
  141.6640   78.8700  221.5210 C   0  0  0  0  0  0  0  0  0  0  0  0
  142.4690   79.3490  222.6860 C   0  0  0  0  0  0  0  0  0  0  0  0
  141.6200   79.3420  223.9210 C   0  0  0  0  0  0  0  0  0  0  0  0
  140.1370   79.4950  223.6040 C   0  0  0  0  0  0  0  0  0  0  0  0
  139.6300   78.2690  222.8630 C   0  0  0  0  0  0  0  0  0  0  0  0
  141.4890   74.4860  220.8650 N   0  0  0  0  0  0  0  0  0  0  0  0
  142.2510   73.3910  221.0580 C   0  0  0  0  0  0  0  0  0  0  0  0
  143.4890   73.1810  220.3880 N   0  0  0  0  0  0  0  0  0  0  0  0
  144.6940   73.8330  220.8350 C   0  0  0  0  0  0  0  0  0  0  0  0
  145.9390   73.2010  220.3160 C   0  0  0  0  0  0  0  0  0  0  0  0
  145.9110   73.0220  218.8980 N   0  0  0  0  0  0  0  0  0  0  0  0
  144.6060   72.9150  218.3200 C   0  0  0  0  0  0  0  0  0  0  0  0
  143.5700   72.3020  219.2380 C   0  0  0  0  0  0  0  0  0  0  0  0
  141.8090   72.4630  221.9260 N   0  0  0  0  0  0  0  0  0  0  0  0
  141.0270   71.3760  224.7090 C   0  0  0  0  0  0  0  0  0  0  0  0
  139.1859   67.6109  228.0859 H   0  0  0  0  0  0  0  0  0  0  0  0
  140.8484   69.3174  228.8160 H   0  0  0  0  0  0  0  0  0  0  0  0
  141.6752   71.0313  227.2441 H   0  0  0  0  0  0  0  0  0  0  0  0
  138.3825   67.6785  225.7337 H   0  0  0  0  0  0  0  0  0  0  0  0
  139.7591   68.7863  223.1949 H   0  0  0  0  0  0  0  0  0  0  0  0
  138.0586   69.0237  223.8204 H   0  0  0  0  0  0  0  0  0  0  0  0
  138.9445   70.6976  222.1261 H   0  0  0  0  0  0  0  0  0  0  0  0
  138.1841   71.3087  223.6653 H   0  0  0  0  0  0  0  0  0  0  0  0
  138.5060   75.7690  221.4970 H   0  0  0  0  0  0  0  0  0  0  0  0
  140.9780   76.7565  220.1079 H   0  0  0  0  0  0  0  0  0  0  0  0
  139.4496   77.6629  220.2640 H   0  0  0  0  0  0  0  0  0  0  0  0
  141.3434   77.0866  222.6138 H   0  0  0  0  0  0  0  0  0  0  0  0
  142.3351   78.4811  220.7410 H   0  0  0  0  0  0  0  0  0  0  0  0
  141.0764   79.7002  221.1021 H   0  0  0  0  0  0  0  0  0  0  0  0
  143.3330   78.6841  222.8320 H   0  0  0  0  0  0  0  0  0  0  0  0
  142.8209   80.3727  222.4905 H   0  0  0  0  0  0  0  0  0  0  0  0
  141.7723   78.3895  224.4497 H   0  0  0  0  0  0  0  0  0  0  0  0
  141.9217   80.1985  224.5418 H   0  0  0  0  0  0  0  0  0  0  0  0
  139.5748   79.6108  224.5424 H   0  0  0  0  0  0  0  0  0  0  0  0
  139.9951   80.3823  222.9695 H   0  0  0  0  0  0  0  0  0  0  0  0
  139.3373   77.4908  223.5833 H   0  0  0  0  0  0  0  0  0  0  0  0
  138.7512   78.5248  222.2528 H   0  0  0  0  0  0  0  0  0  0  0  0
  144.6687   74.8800  220.4987 H   0  0  0  0  0  0  0  0  0  0  0  0
  144.7205   73.7476  221.9314 H   0  0  0  0  0  0  0  0  0  0  0  0
  146.7945   73.8426  220.5739 H   0  0  0  0  0  0  0  0  0  0  0  0
  146.0266   72.2062  220.7772 H   0  0  0  0  0  0  0  0  0  0  0  0
  146.3850   73.8260  218.4070 H   0  0  0  0  0  0  0  0  0  0  0  0
  144.2675   73.9242  218.0428 H   0  0  0  0  0  0  0  0  0  0  0  0
  144.6978   72.2437  217.4534 H   0  0  0  0  0  0  0  0  0  0  0  0
  142.5955   72.2444  218.7309 H   0  0  0  0  0  0  0  0  0  0  0  0
  143.8449   71.2779  219.5308 H   0  0  0  0  0  0  0  0  0  0  0  0
  142.0476   71.0963  224.4088 H   0  0  0  0  0  0  0  0  0  0  0  0
  141.0121   72.3205  225.2727 H   0  0  0  0  0  0  0  0  0  0  0  0
  1  2  2  0
  2  3  1  0
  3  4  2  0
  4  5  1  0
  5  6  2  0
  5  7  1  0
  7  8  1  0
  8  9  1  0
  9 10  1  0
 10 11  2  0
 11 12  1  0
 12 13  1  0
 13 14  1  0
 14 15  1  0
 15 16  1  0
 16 17  1  0
 17 18  1  0
 18 19  1  0
 19 20  1  0
 12 21  2  0
 21 22  1  0
 22 23  1  0
 23 24  1  0
 24 25  1  0
 25 26  1  0
 26 27  1  0
 27 28  1  0
 22 29  2  0
  9 30  1  0
  6  1  1  0
 29 10  1  0
 30  4  1  0
 20 15  1  0
 28 23  1  0
  1 31  1  0
  2 32  1  0
  3 33  1  0
  6 34  1  0
  7 35  1  0
  7 36  1  0
  8 37  1  0
  8 38  1  0
 13 39  1  0
 14 40  1  0
 14 41  1  0
 15 42  1  0
 16 43  1  0
 16 44  1  0
 17 45  1  0
 17 46  1  0
 18 47  1  0
 18 48  1  0
 19 49  1  0
 19 50  1  0
 20 51  1  0
 20 52  1  0
 24 53  1  0
 24 54  1  0
 25 55  1  0
 25 56  1  0
 26 57  1  0
 27 58  1  0
 27 59  1  0
 28 60  1  0
 28 61  1  0
 30 62  1  0
 30 63  1  0
M  END
>  <smiles>  (22) 
c1ccc2c(c1)CCN(c1nc(NCC3CCCCC3)nc(N3CCNCC3)n1)C2

>  <score_type>  (22) 
oracle

>  <origin>  (22) 
autodockgpu

>  <m_score__min__energy>  (22) 
-9.9000000000000004

>  <m_primary>  (22) 
energy

>  <rmsd>  (22) 
3.8835787792223186

>  <m_score__min__rmsd>  (22) 
3.8835787792223186

>  <meeko>  (22) 
{"free_energy": -9.81, "intermolecular_energy": -11.3, "internal_energy": -0.94, "cluster_size": 39, "cluster_id": 1, "rank_in_cluster": 12}

>  <energy>  (22) 
-9.67

>  <cluster_rmsd>  (22) 
0.76

>  <cluster>  (22) 
1

$$$$

     RDKit          3D

 63 67  0  0  0  0  0  0  0  0999 V2000
  139.6090   68.5520  227.5810 C   0  0  0  0  0  0  0  0  0  0  0  0
  140.4410   69.5860  227.9630 C   0  0  0  0  0  0  0  0  0  0  0  0
  140.8810   70.5310  227.0480 C   0  0  0  0  0  0  0  0  0  0  0  0
  140.4980   70.4690  225.7160 C   0  0  0  0  0  0  0  0  0  0  0  0
  139.6650   69.4340  225.3360 C   0  0  0  0  0  0  0  0  0  0  0  0
  139.2320   68.4970  226.2540 C   0  0  0  0  0  0  0  0  0  0  0  0
  139.2510   69.3520  223.9350 C   0  0  0  0  0  0  0  0  0  0  0  0
  139.1370   70.6920  223.2620 C   0  0  0  0  0  0  0  0  0  0  0  0
  140.2500   71.5710  223.5660 N   0  0  0  0  0  0  0  0  0  0  0  0
  140.6470   72.5620  222.6180 C   0  0  0  0  0  0  0  0  0  0  0  0
  139.9000   73.6500  222.3480 N   0  0  0  0  0  0  0  0  0  0  0  0
  140.2530   74.5990  221.4600 C   0  0  0  0  0  0  0  0  0  0  0  0
  139.4380   75.7410  221.1960 N   0  0  0  0  0  0  0  0  0  0  0  0
  139.1440   76.6510  222.2730 C   0  0  0  0  0  0  0  0  0  0  0  0
  140.0290   77.8710  222.1010 C   0  0  0  0  0  0  0  0  0  0  0  0
  141.1860   77.8030  223.0750 C   0  0  0  0  0  0  0  0  0  0  0  0
  141.8360   79.1480  223.1340 C   0  0  0  0  0  0  0  0  0  0  0  0
  141.8310   79.7680  221.7700 C   0  0  0  0  0  0  0  0  0  0  0  0
  141.7960   78.7250  220.6600 C   0  0  0  0  0  0  0  0  0  0  0  0
  140.4700   77.9830  220.6770 C   0  0  0  0  0  0  0  0  0  0  0  0
  141.4350   74.4220  220.8120 N   0  0  0  0  0  0  0  0  0  0  0  0
  142.2230   73.3530  221.0410 C   0  0  0  0  0  0  0  0  0  0  0  0
  143.4640   73.1490  220.3750 N   0  0  0  0  0  0  0  0  0  0  0  0
  144.6690   73.7890  220.8400 C   0  0  0  0  0  0  0  0  0  0  0  0
  145.9140   73.1600  220.3180 C   0  0  0  0  0  0  0  0  0  0  0  0
  145.8940   73.0050  218.8980 N   0  0  0  0  0  0  0  0  0  0  0  0
  144.5930   72.9130  218.3100 C   0  0  0  0  0  0  0  0  0  0  0  0
  143.5480   72.2900  219.2110 C   0  0  0  0  0  0  0  0  0  0  0  0
  141.8050   72.4470  221.9430 N   0  0  0  0  0  0  0  0  0  0  0  0
  141.0010   71.5010  224.8060 C   0  0  0  0  0  0  0  0  0  0  0  0
  139.2603   67.8015  228.3057 H   0  0  0  0  0  0  0  0  0  0  0  0
  140.7608   69.6616  229.0128 H   0  0  0  0  0  0  0  0  0  0  0  0
  141.5439   71.3421  227.3837 H   0  0  0  0  0  0  0  0  0  0  0  0
  138.5693   67.6855  225.9188 H   0  0  0  0  0  0  0  0  0  0  0  0
  139.9916   68.7500  223.3881 H   0  0  0  0  0  0  0  0  0  0  0  0
  138.2495   68.8972  223.9204 H   0  0  0  0  0  0  0  0  0  0  0  0
  139.0993   70.5365  222.1737 H   0  0  0  0  0  0  0  0  0  0  0  0
  138.2224   71.1742  223.6377 H   0  0  0  0  0  0  0  0  0  0  0  0
  139.0920   75.8590  220.2220 H   0  0  0  0  0  0  0  0  0  0  0  0
  138.0855   76.9477  222.2343 H   0  0  0  0  0  0  0  0  0  0  0  0
  139.3335   76.1717  223.2448 H   0  0  0  0  0  0  0  0  0  0  0  0
  139.4660   78.7871  222.3327 H   0  0  0  0  0  0  0  0  0  0  0  0
  140.8152   77.5260  224.0729 H   0  0  0  0  0  0  0  0  0  0  0  0
  141.9134   77.0471  222.7441 H   0  0  0  0  0  0  0  0  0  0  0  0
  141.2810   79.7927  223.8314 H   0  0  0  0  0  0  0  0  0  0  0  0
  142.8737   79.0377  223.4817 H   0  0  0  0  0  0  0  0  0  0  0  0
  140.9443   80.4124  221.6778 H   0  0  0  0  0  0  0  0  0  0  0  0
  142.7609   80.3452  221.6597 H   0  0  0  0  0  0  0  0  0  0  0  0
  141.9200   79.2249  219.6880 H   0  0  0  0  0  0  0  0  0  0  0  0
  142.6119   78.0046  220.8193 H   0  0  0  0  0  0  0  0  0  0  0  0
  139.7211   78.5411  220.0959 H   0  0  0  0  0  0  0  0  0  0  0  0
  140.5819   76.9846  220.2291 H   0  0  0  0  0  0  0  0  0  0  0  0
  144.6500   74.8414  220.5206 H   0  0  0  0  0  0  0  0  0  0  0  0
  144.6886   73.6862  221.9350 H   0  0  0  0  0  0  0  0  0  0  0  0
  146.7708   73.7931  220.5918 H   0  0  0  0  0  0  0  0  0  0  0  0
  145.9941   72.1572  220.7629 H   0  0  0  0  0  0  0  0  0  0  0  0
  146.3750   73.8150  218.4230 H   0  0  0  0  0  0  0  0  0  0  0  0
  144.2608   73.9280  218.0467 H   0  0  0  0  0  0  0  0  0  0  0  0
  144.6878   72.2551  217.4335 H   0  0  0  0  0  0  0  0  0  0  0  0
  142.5765   72.2462  218.6969 H   0  0  0  0  0  0  0  0  0  0  0  0
  143.8160   71.2597  219.4879 H   0  0  0  0  0  0  0  0  0  0  0  0
  142.0518   71.2786  224.5686 H   0  0  0  0  0  0  0  0  0  0  0  0
  140.8943   72.4711  225.3134 H   0  0  0  0  0  0  0  0  0  0  0  0
  1  2  2  0
  2  3  1  0
  3  4  2  0
  4  5  1  0
  5  6  2  0
  5  7  1  0
  7  8  1  0
  8  9  1  0
  9 10  1  0
 10 11  2  0
 11 12  1  0
 12 13  1  0
 13 14  1  0
 14 15  1  0
 15 16  1  0
 16 17  1  0
 17 18  1  0
 18 19  1  0
 19 20  1  0
 12 21  2  0
 21 22  1  0
 22 23  1  0
 23 24  1  0
 24 25  1  0
 25 26  1  0
 26 27  1  0
 27 28  1  0
 22 29  2  0
  9 30  1  0
  6  1  1  0
 29 10  1  0
 30  4  1  0
 20 15  1  0
 28 23  1  0
  1 31  1  0
  2 32  1  0
  3 33  1  0
  6 34  1  0
  7 35  1  0
  7 36  1  0
  8 37  1  0
  8 38  1  0
 13 39  1  0
 14 40  1  0
 14 41  1  0
 15 42  1  0
 16 43  1  0
 16 44  1  0
 17 45  1  0
 17 46  1  0
 18 47  1  0
 18 48  1  0
 19 49  1  0
 19 50  1  0
 20 51  1  0
 20 52  1  0
 24 53  1  0
 24 54  1  0
 25 55  1  0
 25 56  1  0
 26 57  1  0
 27 58  1  0
 27 59  1  0
 28 60  1  0
 28 61  1  0
 30 62  1  0
 30 63  1  0
M  END
>  <smiles>  (23) 
c1ccc2c(c1)CCN(c1nc(NCC3CCCCC3)nc(N3CCNCC3)n1)C2

>  <score_type>  (23) 
oracle

>  <origin>  (23) 
autodockgpu

>  <m_score__min__energy>  (23) 
-9.9000000000000004

>  <m_primary>  (23) 
energy

>  <rmsd>  (23) 
3.906228374650912

>  <m_score__min__rmsd>  (23) 
3.906228374650912

>  <meeko>  (23) 
{"free_energy": -9.57, "intermolecular_energy": -11.06, "internal_energy": -1.07, "cluster_size": 39, "cluster_id": 1, "rank_in_cluster": 29}

>  <energy>  (23) 
-9.67

>  <cluster_rmsd>  (23) 
0.7

>  <cluster>  (23) 
1

$$$$

     RDKit          3D

 63 67  0  0  0  0  0  0  0  0999 V2000
  139.4960   80.8710  223.1650 C   0  0  0  0  0  0  0  0  0  0  0  0
  140.8530   80.6170  223.1500 C   0  0  0  0  0  0  0  0  0  0  0  0
  141.3440   79.3280  222.9940 C   0  0  0  0  0  0  0  0  0  0  0  0
  140.4840   78.2500  222.8470 C   0  0  0  0  0  0  0  0  0  0  0  0
  139.1260   78.5060  222.8620 C   0  0  0  0  0  0  0  0  0  0  0  0
  138.6470   79.7930  223.0190 C   0  0  0  0  0  0  0  0  0  0  0  0
  138.2040   77.3800  222.7090 C   0  0  0  0  0  0  0  0  0  0  0  0
  138.7490   76.2690  221.8550 C   0  0  0  0  0  0  0  0  0  0  0  0
  140.1290   75.9470  222.1620 N   0  0  0  0  0  0  0  0  0  0  0  0
  140.6100   74.6210  221.9470 C   0  0  0  0  0  0  0  0  0  0  0  0
  139.9330   73.5280  222.3480 N   0  0  0  0  0  0  0  0  0  0  0  0
  140.3660   72.2670  222.1570 C   0  0  0  0  0  0  0  0  0  0  0  0
  139.6230   71.1280  222.5940 N   0  0  0  0  0  0  0  0  0  0  0  0
  138.6550   71.2900  223.6480 C   0  0  0  0  0  0  0  0  0  0  0  0
  139.2580   70.7230  224.9190 C   0  0  0  0  0  0  0  0  0  0  0  0
  139.4870   69.2350  224.7560 C   0  0  0  0  0  0  0  0  0  0  0  0
  139.7470   68.6450  226.1050 C   0  0  0  0  0  0  0  0  0  0  0  0
  140.5520   69.6040  226.9260 C   0  0  0  0  0  0  0  0  0  0  0  0
  141.3980   70.5350  226.0660 C   0  0  0  0  0  0  0  0  0  0  0  0
  140.5040   71.4710  225.2700 C   0  0  0  0  0  0  0  0  0  0  0  0
  141.5580   72.1180  221.5210 N   0  0  0  0  0  0  0  0  0  0  0  0
  142.2800   73.1750  221.0980 C   0  0  0  0  0  0  0  0  0  0  0  0
  143.5290   73.0420  220.4300 N   0  0  0  0  0  0  0  0  0  0  0  0
  144.6690   73.8300  220.8260 C   0  0  0  0  0  0  0  0  0  0  0  0
  145.9660   73.2880  220.3340 C   0  0  0  0  0  0  0  0  0  0  0  0
  145.9500   73.0230  218.9300 N   0  0  0  0  0  0  0  0  0  0  0  0
  144.6590   72.7590  218.3710 C   0  0  0  0  0  0  0  0  0  0  0  0
  143.6880   72.1080  219.3330 C   0  0  0  0  0  0  0  0  0  0  0  0
  141.7830   74.4050  221.3240 N   0  0  0  0  0  0  0  0  0  0  0  0
  141.0720   76.9180  222.6870 C   0  0  0  0  0  0  0  0  0  0  0  0
  139.1069   81.8925  223.2885 H   0  0  0  0  0  0  0  0  0  0  0  0
  141.5591   81.4527  223.2639 H   0  0  0  0  0  0  0  0  0  0  0  0
  142.4309   79.1592  222.9869 H   0  0  0  0  0  0  0  0  0  0  0  0
  137.5602   79.9624  223.0278 H   0  0  0  0  0  0  0  0  0  0  0  0
  137.9813   76.9745  223.7070 H   0  0  0  0  0  0  0  0  0  0  0  0
  137.3054   77.7645  222.2042 H   0  0  0  0  0  0  0  0  0  0  0  0
  138.1350   75.3703  222.0142 H   0  0  0  0  0  0  0  0  0  0  0  0
  138.7138   76.6085  220.8093 H   0  0  0  0  0  0  0  0  0  0  0  0
  139.8250   70.2240  222.1210 H   0  0  0  0  0  0  0  0  0  0  0  0
  138.4260   72.3571  223.7856 H   0  0  0  0  0  0  0  0  0  0  0  0
  137.7211   70.7656  223.3973 H   0  0  0  0  0  0  0  0  0  0  0  0
  138.5623   70.8515  225.7613 H   0  0  0  0  0  0  0  0  0  0  0  0
  138.5949   68.7686  224.3126 H   0  0  0  0  0  0  0  0  0  0  0  0
  140.3471   69.0561  224.0940 H   0  0  0  0  0  0  0  0  0  0  0  0
  138.7893   68.4463  226.6084 H   0  0  0  0  0  0  0  0  0  0  0  0
  140.3051   67.7040  225.9907 H   0  0  0  0  0  0  0  0  0  0  0  0
  139.8656   70.2112  227.5345 H   0  0  0  0  0  0  0  0  0  0  0  0
  141.2351   69.0156  227.5562 H   0  0  0  0  0  0  0  0  0  0  0  0
  142.0591   71.1283  226.7148 H   0  0  0  0  0  0  0  0  0  0  0  0
  141.9984   69.9326  225.3684 H   0  0  0  0  0  0  0  0  0  0  0  0
  140.2525   72.3539  225.8761 H   0  0  0  0  0  0  0  0  0  0  0  0
  141.0178   71.8113  224.3589 H   0  0  0  0  0  0  0  0  0  0  0  0
  144.5437   74.8479  220.4282 H   0  0  0  0  0  0  0  0  0  0  0  0
  144.7076   73.8133  221.9252 H   0  0  0  0  0  0  0  0  0  0  0  0
  146.7581   74.0214  220.5457 H   0  0  0  0  0  0  0  0  0  0  0  0
  146.1487   72.3351  220.8523 H   0  0  0  0  0  0  0  0  0  0  0  0
  146.3440   73.8370  218.3880 H   0  0  0  0  0  0  0  0  0  0  0  0
  144.2260   73.7134  218.0368 H   0  0  0  0  0  0  0  0  0  0  0  0
  144.8111   72.0480  217.5456 H   0  0  0  0  0  0  0  0  0  0  0  0
  142.7214   71.9299  218.8390 H   0  0  0  0  0  0  0  0  0  0  0  0
  144.0587   71.1333  219.6830 H   0  0  0  0  0  0  0  0  0  0  0  0
  141.4257   76.5695  223.6686 H   0  0  0  0  0  0  0  0  0  0  0  0
  141.8964   77.0042  221.9638 H   0  0  0  0  0  0  0  0  0  0  0  0
  1  2  2  0
  2  3  1  0
  3  4  2  0
  4  5  1  0
  5  6  2  0
  5  7  1  0
  7  8  1  0
  8  9  1  0
  9 10  1  0
 10 11  2  0
 11 12  1  0
 12 13  1  0
 13 14  1  0
 14 15  1  0
 15 16  1  0
 16 17  1  0
 17 18  1  0
 18 19  1  0
 19 20  1  0
 12 21  2  0
 21 22  1  0
 22 23  1  0
 23 24  1  0
 24 25  1  0
 25 26  1  0
 26 27  1  0
 27 28  1  0
 22 29  2  0
  9 30  1  0
  6  1  1  0
 29 10  1  0
 30  4  1  0
 20 15  1  0
 28 23  1  0
  1 31  1  0
  2 32  1  0
  3 33  1  0
  6 34  1  0
  7 35  1  0
  7 36  1  0
  8 37  1  0
  8 38  1  0
 13 39  1  0
 14 40  1  0
 14 41  1  0
 15 42  1  0
 16 43  1  0
 16 44  1  0
 17 45  1  0
 17 46  1  0
 18 47  1  0
 18 48  1  0
 19 49  1  0
 19 50  1  0
 20 51  1  0
 20 52  1  0
 24 53  1  0
 24 54  1  0
 25 55  1  0
 25 56  1  0
 26 57  1  0
 27 58  1  0
 27 59  1  0
 28 60  1  0
 28 61  1  0
 30 62  1  0
 30 63  1  0
M  END
>  <smiles>  (24) 
c1ccc2c(c1)CCN(c1nc(NCC3CCCCC3)nc(N3CCNCC3)n1)C2

>  <score_type>  (24) 
oracle

>  <origin>  (24) 
autodockgpu

>  <m_score__min__energy>  (24) 
-9.9000000000000004

>  <m_primary>  (24) 
energy

>  <rmsd>  (24) 
9.729350343506917

>  <m_score__min__rmsd>  (24) 
9.729350343506917

>  <meeko>  (24) 
{"free_energy": -9.46, "intermolecular_energy": -10.95, "internal_energy": -1.01, "cluster_size": 11, "cluster_id": 2, "rank_in_cluster": 9}

>  <energy>  (24) 
-9.64

>  <cluster_rmsd>  (24) 
0.66

>  <cluster>  (24) 
1

$$$$

     RDKit          3D

 63 67  0  0  0  0  0  0  0  0999 V2000
  139.5670   68.3640  227.3360 C   0  0  0  0  0  0  0  0  0  0  0  0
  140.4910   69.3110  227.7330 C   0  0  0  0  0  0  0  0  0  0  0  0
  140.9550   70.2780  226.8540 C   0  0  0  0  0  0  0  0  0  0  0  0
  140.5050   70.3270  225.5420 C   0  0  0  0  0  0  0  0  0  0  0  0
  139.5810   69.3780  225.1460 C   0  0  0  0  0  0  0  0  0  0  0  0
  139.1250   68.4180  226.0300 C   0  0  0  0  0  0  0  0  0  0  0  0
  139.0950   69.4130  223.7670 C   0  0  0  0  0  0  0  0  0  0  0  0
  139.0480   70.7970  223.1810 C   0  0  0  0  0  0  0  0  0  0  0  0
  140.2350   71.5750  223.4770 N   0  0  0  0  0  0  0  0  0  0  0  0
  140.6590   72.5930  222.5700 C   0  0  0  0  0  0  0  0  0  0  0  0
  139.9410   73.7110  222.3470 N   0  0  0  0  0  0  0  0  0  0  0  0
  140.3200   74.6850  221.4970 C   0  0  0  0  0  0  0  0  0  0  0  0
  139.5370   75.8600  221.2830 N   0  0  0  0  0  0  0  0  0  0  0  0
  140.1850   77.0520  220.8010 C   0  0  0  0  0  0  0  0  0  0  0  0
  140.7480   77.7890  222.0010 C   0  0  0  0  0  0  0  0  0  0  0  0
  141.6850   78.8840  221.5360 C   0  0  0  0  0  0  0  0  0  0  0  0
  142.4800   79.3580  222.7090 C   0  0  0  0  0  0  0  0  0  0  0  0
  141.6170   79.3590  223.9340 C   0  0  0  0  0  0  0  0  0  0  0  0
  140.1390   79.5220  223.6000 C   0  0  0  0  0  0  0  0  0  0  0  0
  139.6310   78.2990  222.8550 C   0  0  0  0  0  0  0  0  0  0  0  0
  141.4950   74.5030  220.8390 N   0  0  0  0  0  0  0  0  0  0  0  0
  142.2540   73.4040  221.0220 C   0  0  0  0  0  0  0  0  0  0  0  0
  143.4880   73.1930  220.3450 N   0  0  0  0  0  0  0  0  0  0  0  0
  144.7160   73.7520  220.8500 C   0  0  0  0  0  0  0  0  0  0  0  0
  145.9360   73.1090  220.2900 C   0  0  0  0  0  0  0  0  0  0  0  0
  145.9140   73.0460  218.8620 N   0  0  0  0  0  0  0  0  0  0  0  0
  144.6110   73.0440  218.2690 C   0  0  0  0  0  0  0  0  0  0  0  0
  143.5410   72.4070  219.1280 C   0  0  0  0  0  0  0  0  0  0  0  0
  141.8120   72.4730  221.8870 N   0  0  0  0  0  0  0  0  0  0  0  0
  141.0380   71.3750  224.6700 C   0  0  0  0  0  0  0  0  0  0  0  0
  139.1982   67.5973  228.0333 H   0  0  0  0  0  0  0  0  0  0  0  0
  140.8662   69.2978  228.7670 H   0  0  0  0  0  0  0  0  0  0  0  0
  141.6911   71.0176  227.2020 H   0  0  0  0  0  0  0  0  0  0  0  0
  138.3898   67.6770  225.6829 H   0  0  0  0  0  0  0  0  0  0  0  0
  139.7617   68.7953  223.1474 H   0  0  0  0  0  0  0  0  0  0  0  0
  138.0631   69.0320  223.7785 H   0  0  0  0  0  0  0  0  0  0  0  0
  138.9468   70.7126  222.0889 H   0  0  0  0  0  0  0  0  0  0  0  0
  138.1906   71.3178  223.6322 H   0  0  0  0  0  0  0  0  0  0  0  0
  138.5200   75.7930  221.4910 H   0  0  0  0  0  0  0  0  0  0  0  0
  140.9985   76.7832  220.1111 H   0  0  0  0  0  0  0  0  0  0  0  0
  139.4686   77.6878  220.2601 H   0  0  0  0  0  0  0  0  0  0  0  0
  141.3397   77.1039  222.6259 H   0  0  0  0  0  0  0  0  0  0  0  0
  142.3620   78.4898  220.7638 H   0  0  0  0  0  0  0  0  0  0  0  0
  141.1079   79.7180  221.1102 H   0  0  0  0  0  0  0  0  0  0  0  0
  143.3372   78.6866  222.8656 H   0  0  0  0  0  0  0  0  0  0  0  0
  142.8420   80.3787  222.5164 H   0  0  0  0  0  0  0  0  0  0  0  0
  141.7565   78.4063  224.4658 H   0  0  0  0  0  0  0  0  0  0  0  0
  141.9176   80.2144  224.5568 H   0  0  0  0  0  0  0  0  0  0  0  0
  139.5672   79.6432  224.5319 H   0  0  0  0  0  0  0  0  0  0  0  0
  140.0110   80.4092  222.9625 H   0  0  0  0  0  0  0  0  0  0  0  0
  139.3244   77.5239  223.5728 H   0  0  0  0  0  0  0  0  0  0  0  0
  138.7608   78.5601  222.2349 H   0  0  0  0  0  0  0  0  0  0  0  0
  144.7403   74.8227  220.5988 H   0  0  0  0  0  0  0  0  0  0  0  0
  144.7281   73.5777  221.9360 H   0  0  0  0  0  0  0  0  0  0  0  0
  146.8164   73.6888  220.6042 H   0  0  0  0  0  0  0  0  0  0  0  0
  145.9751   72.0775  220.6700 H   0  0  0  0  0  0  0  0  0  0  0  0
  146.4280   73.8640  218.4400 H   0  0  0  0  0  0  0  0  0  0  0  0
  144.3200   74.0863  218.0715 H   0  0  0  0  0  0  0  0  0  0  0  0
  144.6815   72.4408  217.3519 H   0  0  0  0  0  0  0  0  0  0  0  0
  142.5698   72.4344  218.6123 H   0  0  0  0  0  0  0  0  0  0  0  0
  143.7677   71.3514  219.3387 H   0  0  0  0  0  0  0  0  0  0  0  0
  142.0569   71.0943  224.3651 H   0  0  0  0  0  0  0  0  0  0  0  0
  141.0277   72.3166  225.2385 H   0  0  0  0  0  0  0  0  0  0  0  0
  1  2  2  0
  2  3  1  0
  3  4  2  0
  4  5  1  0
  5  6  2  0
  5  7  1  0
  7  8  1  0
  8  9  1  0
  9 10  1  0
 10 11  2  0
 11 12  1  0
 12 13  1  0
 13 14  1  0
 14 15  1  0
 15 16  1  0
 16 17  1  0
 17 18  1  0
 18 19  1  0
 19 20  1  0
 12 21  2  0
 21 22  1  0
 22 23  1  0
 23 24  1  0
 24 25  1  0
 25 26  1  0
 26 27  1  0
 27 28  1  0
 22 29  2  0
  9 30  1  0
  6  1  1  0
 29 10  1  0
 30  4  1  0
 20 15  1  0
 28 23  1  0
  1 31  1  0
  2 32  1  0
  3 33  1  0
  6 34  1  0
  7 35  1  0
  7 36  1  0
  8 37  1  0
  8 38  1  0
 13 39  1  0
 14 40  1  0
 14 41  1  0
 15 42  1  0
 16 43  1  0
 16 44  1  0
 17 45  1  0
 17 46  1  0
 18 47  1  0
 18 48  1  0
 19 49  1  0
 19 50  1  0
 20 51  1  0
 20 52  1  0
 24 53  1  0
 24 54  1  0
 25 55  1  0
 25 56  1  0
 26 57  1  0
 27 58  1  0
 27 59  1  0
 28 60  1  0
 28 61  1  0
 30 62  1  0
 30 63  1  0
M  END
>  <smiles>  (25) 
c1ccc2c(c1)CCN(c1nc(NCC3CCCCC3)nc(N3CCNCC3)n1)C2

>  <score_type>  (25) 
oracle

>  <origin>  (25) 
autodockgpu

>  <m_score__min__energy>  (25) 
-9.9000000000000004

>  <m_primary>  (25) 
energy

>  <rmsd>  (25) 
3.879907059642112

>  <m_score__min__rmsd>  (25) 
3.879907059642112

>  <meeko>  (25) 
{"free_energy": -9.83, "intermolecular_energy": -11.32, "internal_energy": -0.94, "cluster_size": 39, "cluster_id": 1, "rank_in_cluster": 9}

>  <energy>  (25) 
-9.64

>  <cluster_rmsd>  (25) 
0.65

>  <cluster>  (25) 
1

$$$$

     RDKit          3D

 63 67  0  0  0  0  0  0  0  0999 V2000
  139.6090   68.5270  227.5810 C   0  0  0  0  0  0  0  0  0  0  0  0
  140.4350   69.5650  227.9630 C   0  0  0  0  0  0  0  0  0  0  0  0
  140.8760   70.5090  227.0470 C   0  0  0  0  0  0  0  0  0  0  0  0
  140.5010   70.4410  225.7130 C   0  0  0  0  0  0  0  0  0  0  0  0
  139.6740   69.4000  225.3330 C   0  0  0  0  0  0  0  0  0  0  0  0
  139.2400   68.4650  226.2530 C   0  0  0  0  0  0  0  0  0  0  0  0
  139.2680   69.3110  223.9300 C   0  0  0  0  0  0  0  0  0  0  0  0
  139.1530   70.6480  223.2510 C   0  0  0  0  0  0  0  0  0  0  0  0
  140.2600   71.5330  223.5570 N   0  0  0  0  0  0  0  0  0  0  0  0
  140.6580   72.5210  222.6080 C   0  0  0  0  0  0  0  0  0  0  0  0
  139.9080   73.6050  222.3300 N   0  0  0  0  0  0  0  0  0  0  0  0
  140.2620   74.5520  221.4400 C   0  0  0  0  0  0  0  0  0  0  0  0
  139.4440   75.6900  221.1670 N   0  0  0  0  0  0  0  0  0  0  0  0
  138.8530   76.4040  222.2690 C   0  0  0  0  0  0  0  0  0  0  0  0
  139.8040   77.5190  222.6590 C   0  0  0  0  0  0  0  0  0  0  0  0
  140.7210   77.8380  221.4970 C   0  0  0  0  0  0  0  0  0  0  0  0
  141.8530   78.6740  222.0020 C   0  0  0  0  0  0  0  0  0  0  0  0
  141.3500   79.6200  223.0500 C   0  0  0  0  0  0  0  0  0  0  0  0
  139.8710   79.9440  222.8760 C   0  0  0  0  0  0  0  0  0  0  0  0
  139.0290   78.7060  223.1340 C   0  0  0  0  0  0  0  0  0  0  0  0
  141.4480   74.3780  220.7990 N   0  0  0  0  0  0  0  0  0  0  0  0
  142.2400   73.3130  221.0370 C   0  0  0  0  0  0  0  0  0  0  0  0
  143.4850   73.1110  220.3790 N   0  0  0  0  0  0  0  0  0  0  0  0
  144.6830   73.7640  220.8430 C   0  0  0  0  0  0  0  0  0  0  0  0
  145.9360   73.1390  220.3330 C   0  0  0  0  0  0  0  0  0  0  0  0
  145.9240   72.9710  218.9130 N   0  0  0  0  0  0  0  0  0  0  0  0
  144.6250   72.8630  218.3210 C   0  0  0  0  0  0  0  0  0  0  0  0
  143.5810   72.2410  219.2230 C   0  0  0  0  0  0  0  0  0  0  0  0
  141.8210   72.4080  221.9400 N   0  0  0  0  0  0  0  0  0  0  0  0
  141.0040   71.4710  224.8020 C   0  0  0  0  0  0  0  0  0  0  0  0
  139.2587   67.7786  228.3070 H   0  0  0  0  0  0  0  0  0  0  0  0
  140.7496   69.6452  229.0140 H   0  0  0  0  0  0  0  0  0  0  0  0
  141.5333   71.3242  227.3837 H   0  0  0  0  0  0  0  0  0  0  0  0
  138.5826   67.6493  225.9177 H   0  0  0  0  0  0  0  0  0  0  0  0
  140.0137   68.7094  223.3896 H   0  0  0  0  0  0  0  0  0  0  0  0
  138.2682   68.8526  223.9117 H   0  0  0  0  0  0  0  0  0  0  0  0
  139.1220   70.4878  222.1632 H   0  0  0  0  0  0  0  0  0  0  0  0
  138.2347   71.1280  223.6203 H   0  0  0  0  0  0  0  0  0  0  0  0
  139.3140   75.9480  220.1680 H   0  0  0  0  0  0  0  0  0  0  0  0
  137.8842   76.8271  221.9649 H   0  0  0  0  0  0  0  0  0  0  0  0
  138.6830   75.7275  223.1196 H   0  0  0  0  0  0  0  0  0  0  0  0
  140.4430   77.2002  223.4956 H   0  0  0  0  0  0  0  0  0  0  0  0
  141.1124   76.9047  221.0660 H   0  0  0  0  0  0  0  0  0  0  0  0
  140.1674   78.3835  220.7186 H   0  0  0  0  0  0  0  0  0  0  0  0
  142.6243   78.0216  222.4374 H   0  0  0  0  0  0  0  0  0  0  0  0
  142.2841   79.2476  221.1683 H   0  0  0  0  0  0  0  0  0  0  0  0
  141.4978   79.1626  224.0394 H   0  0  0  0  0  0  0  0  0  0  0  0
  141.9136   80.5596  222.9531 H   0  0  0  0  0  0  0  0  0  0  0  0
  139.5855   80.7325  223.5879 H   0  0  0  0  0  0  0  0  0  0  0  0
  139.6976   80.2878  221.8456 H   0  0  0  0  0  0  0  0  0  0  0  0
  138.8223   78.6117  224.2103 H   0  0  0  0  0  0  0  0  0  0  0  0
  138.0691   78.7764  222.6014 H   0  0  0  0  0  0  0  0  0  0  0  0
  144.6579   74.8131  220.5131 H   0  0  0  0  0  0  0  0  0  0  0  0
  144.6981   73.6717  221.9390 H   0  0  0  0  0  0  0  0  0  0  0  0
  146.7868   73.7808  220.6054 H   0  0  0  0  0  0  0  0  0  0  0  0
  146.0214   72.1409  220.7875 H   0  0  0  0  0  0  0  0  0  0  0  0
  146.4000   73.7790  218.4330 H   0  0  0  0  0  0  0  0  0  0  0  0
  144.2861   73.8729  218.0466 H   0  0  0  0  0  0  0  0  0  0  0  0
  144.7286   72.1968  217.4518 H   0  0  0  0  0  0  0  0  0  0  0  0
  142.6123   72.1849  218.7049 H   0  0  0  0  0  0  0  0  0  0  0  0
  143.8556   71.2155  219.5111 H   0  0  0  0  0  0  0  0  0  0  0  0
  142.0571   71.2524  224.5715 H   0  0  0  0  0  0  0  0  0  0  0  0
  140.8894   72.4425  225.3050 H   0  0  0  0  0  0  0  0  0  0  0  0
  1  2  2  0
  2  3  1  0
  3  4  2  0
  4  5  1  0
  5  6  2  0
  5  7  1  0
  7  8  1  0
  8  9  1  0
  9 10  1  0
 10 11  2  0
 11 12  1  0
 12 13  1  0
 13 14  1  0
 14 15  1  0
 15 16  1  0
 16 17  1  0
 17 18  1  0
 18 19  1  0
 19 20  1  0
 12 21  2  0
 21 22  1  0
 22 23  1  0
 23 24  1  0
 24 25  1  0
 25 26  1  0
 26 27  1  0
 27 28  1  0
 22 29  2  0
  9 30  1  0
  6  1  1  0
 29 10  1  0
 30  4  1  0
 20 15  1  0
 28 23  1  0
  1 31  1  0
  2 32  1  0
  3 33  1  0
  6 34  1  0
  7 35  1  0
  7 36  1  0
  8 37  1  0
  8 38  1  0
 13 39  1  0
 14 40  1  0
 14 41  1  0
 15 42  1  0
 16 43  1  0
 16 44  1  0
 17 45  1  0
 17 46  1  0
 18 47  1  0
 18 48  1  0
 19 49  1  0
 19 50  1  0
 20 51  1  0
 20 52  1  0
 24 53  1  0
 24 54  1  0
 25 55  1  0
 25 56  1  0
 26 57  1  0
 27 58  1  0
 27 59  1  0
 28 60  1  0
 28 61  1  0
 30 62  1  0
 30 63  1  0
M  END
>  <smiles>  (26) 
c1ccc2c(c1)CCN(c1nc(NCC3CCCCC3)nc(N3CCNCC3)n1)C2

>  <score_type>  (26) 
oracle

>  <origin>  (26) 
autodockgpu

>  <m_score__min__energy>  (26) 
-9.9000000000000004

>  <m_primary>  (26) 
energy

>  <rmsd>  (26) 
3.9076472065472796

>  <m_score__min__rmsd>  (26) 
3.9076472065472796

>  <meeko>  (26) 
{"free_energy": -9.55, "intermolecular_energy": -11.04, "internal_energy": -0.97, "cluster_size": 39, "cluster_id": 1, "rank_in_cluster": 34}

>  <energy>  (26) 
-9.59

>  <cluster_rmsd>  (26) 
0.65

>  <cluster>  (26) 
1

$$$$

     RDKit          3D

 63 67  0  0  0  0  0  0  0  0999 V2000
  139.5930   68.5530  227.5950 C   0  0  0  0  0  0  0  0  0  0  0  0
  140.4330   69.5810  227.9740 C   0  0  0  0  0  0  0  0  0  0  0  0
  140.8780   70.5230  227.0580 C   0  0  0  0  0  0  0  0  0  0  0  0
  140.4930   70.4630  225.7270 C   0  0  0  0  0  0  0  0  0  0  0  0
  139.6520   69.4330  225.3490 C   0  0  0  0  0  0  0  0  0  0  0  0
  139.2140   68.4990  226.2680 C   0  0  0  0  0  0  0  0  0  0  0  0
  139.2350   69.3530  223.9480 C   0  0  0  0  0  0  0  0  0  0  0  0
  139.1300   70.6930  223.2750 C   0  0  0  0  0  0  0  0  0  0  0  0
  140.2480   71.5650  223.5760 N   0  0  0  0  0  0  0  0  0  0  0  0
  140.6510   72.5530  222.6280 C   0  0  0  0  0  0  0  0  0  0  0  0
  139.9040   73.6390  222.3480 N   0  0  0  0  0  0  0  0  0  0  0  0
  140.2620   74.5840  221.4590 C   0  0  0  0  0  0  0  0  0  0  0  0
  139.4470   75.7240  221.1840 N   0  0  0  0  0  0  0  0  0  0  0  0
  139.0110   76.5500  222.2810 C   0  0  0  0  0  0  0  0  0  0  0  0
  139.8770   77.7950  222.2940 C   0  0  0  0  0  0  0  0  0  0  0  0
  141.1370   77.5320  223.0910 C   0  0  0  0  0  0  0  0  0  0  0  0
  141.7960   78.8420  223.3810 C   0  0  0  0  0  0  0  0  0  0  0  0
  141.6380   79.7560  222.2050 C   0  0  0  0  0  0  0  0  0  0  0  0
  141.4720   78.9920  220.8960 C   0  0  0  0  0  0  0  0  0  0  0  0
  140.1530   78.2380  220.8930 C   0  0  0  0  0  0  0  0  0  0  0  0
  141.4490   74.4070  220.8200 N   0  0  0  0  0  0  0  0  0  0  0  0
  142.2380   73.3400  221.0590 C   0  0  0  0  0  0  0  0  0  0  0  0
  143.4830   73.1350  220.4030 N   0  0  0  0  0  0  0  0  0  0  0  0
  144.6790   73.8010  220.8570 C   0  0  0  0  0  0  0  0  0  0  0  0
  145.9340   73.1750  220.3560 C   0  0  0  0  0  0  0  0  0  0  0  0
  145.9210   72.9860  218.9390 N   0  0  0  0  0  0  0  0  0  0  0  0
  144.6230   72.8640  218.3490 C   0  0  0  0  0  0  0  0  0  0  0  0
  143.5830   72.2500  219.2600 C   0  0  0  0  0  0  0  0  0  0  0  0
  141.8140   72.4370  221.9620 N   0  0  0  0  0  0  0  0  0  0  0  0
  141.0010   71.4910  224.8160 C   0  0  0  0  0  0  0  0  0  0  0  0
  139.2395   67.8063  228.3213 H   0  0  0  0  0  0  0  0  0  0  0  0
  140.7558   69.6546  229.0230 H   0  0  0  0  0  0  0  0  0  0  0  0
  141.5465   71.3300  227.3925 H   0  0  0  0  0  0  0  0  0  0  0  0
  138.5460   67.6913  225.9341 H   0  0  0  0  0  0  0  0  0  0  0  0
  139.9703   68.7452  223.4003 H   0  0  0  0  0  0  0  0  0  0  0  0
  138.2303   68.9054  223.9351 H   0  0  0  0  0  0  0  0  0  0  0  0
  139.0897   70.5370  222.1869 H   0  0  0  0  0  0  0  0  0  0  0  0
  138.2196   71.1814  223.6527 H   0  0  0  0  0  0  0  0  0  0  0  0
  139.2060   75.9030  220.1890 H   0  0  0  0  0  0  0  0  0  0  0  0
  137.9559   76.8291  222.1435 H   0  0  0  0  0  0  0  0  0  0  0  0
  139.1037   76.0065  223.2328 H   0  0  0  0  0  0  0  0  0  0  0  0
  139.3488   78.6223  222.7906 H   0  0  0  0  0  0  0  0  0  0  0  0
  140.8809   77.0284  224.0348 H   0  0  0  0  0  0  0  0  0  0  0  0
  141.8180   76.8859  222.5176 H   0  0  0  0  0  0  0  0  0  0  0  0
  141.3281   79.2992  224.2653 H   0  0  0  0  0  0  0  0  0  0  0  0
  142.8663   78.6773  223.5740 H   0  0  0  0  0  0  0  0  0  0  0  0
  140.7493   80.3848  222.3627 H   0  0  0  0  0  0  0  0  0  0  0  0
  142.5515   80.3637  222.1262 H   0  0  0  0  0  0  0  0  0  0  0  0
  141.4865   79.7023  220.0562 H   0  0  0  0  0  0  0  0  0  0  0  0
  142.2974   78.2723  220.7930 H   0  0  0  0  0  0  0  0  0  0  0  0
  139.3455   78.8979  220.5432 H   0  0  0  0  0  0  0  0  0  0  0  0
  140.2079   77.3702  220.2193 H   0  0  0  0  0  0  0  0  0  0  0  0
  144.6487   74.8449  220.5116 H   0  0  0  0  0  0  0  0  0  0  0  0
  144.6951   73.7249  221.9542 H   0  0  0  0  0  0  0  0  0  0  0  0
  146.7819   73.8250  220.6179 H   0  0  0  0  0  0  0  0  0  0  0  0
  146.0253   72.1845  220.8256 H   0  0  0  0  0  0  0  0  0  0  0  0
  146.3940   73.7900  218.4470 H   0  0  0  0  0  0  0  0  0  0  0  0
  144.2793   73.8684  218.0607 H   0  0  0  0  0  0  0  0  0  0  0  0
  144.7292   72.1867  217.4888 H   0  0  0  0  0  0  0  0  0  0  0  0
  142.6143   72.1817  218.7433 H   0  0  0  0  0  0  0  0  0  0  0  0
  143.8631   71.2302  219.5625 H   0  0  0  0  0  0  0  0  0  0  0  0
  142.0500   71.2619  224.5772 H   0  0  0  0  0  0  0  0  0  0  0  0
  140.9011   72.4620  225.3230 H   0  0  0  0  0  0  0  0  0  0  0  0
  1  2  2  0
  2  3  1  0
  3  4  2  0
  4  5  1  0
  5  6  2  0
  5  7  1  0
  7  8  1  0
  8  9  1  0
  9 10  1  0
 10 11  2  0
 11 12  1  0
 12 13  1  0
 13 14  1  0
 14 15  1  0
 15 16  1  0
 16 17  1  0
 17 18  1  0
 18 19  1  0
 19 20  1  0
 12 21  2  0
 21 22  1  0
 22 23  1  0
 23 24  1  0
 24 25  1  0
 25 26  1  0
 26 27  1  0
 27 28  1  0
 22 29  2  0
  9 30  1  0
  6  1  1  0
 29 10  1  0
 30  4  1  0
 20 15  1  0
 28 23  1  0
  1 31  1  0
  2 32  1  0
  3 33  1  0
  6 34  1  0
  7 35  1  0
  7 36  1  0
  8 37  1  0
  8 38  1  0
 13 39  1  0
 14 40  1  0
 14 41  1  0
 15 42  1  0
 16 43  1  0
 16 44  1  0
 17 45  1  0
 17 46  1  0
 18 47  1  0
 18 48  1  0
 19 49  1  0
 19 50  1  0
 20 51  1  0
 20 52  1  0
 24 53  1  0
 24 54  1  0
 25 55  1  0
 25 56  1  0
 26 57  1  0
 27 58  1  0
 27 59  1  0
 28 60  1  0
 28 61  1  0
 30 62  1  0
 30 63  1  0
M  END
>  <smiles>  (27) 
c1ccc2c(c1)CCN(c1nc(NCC3CCCCC3)nc(N3CCNCC3)n1)C2

>  <score_type>  (27) 
oracle

>  <origin>  (27) 
autodockgpu

>  <m_score__min__energy>  (27) 
-9.9000000000000004

>  <m_primary>  (27) 
energy

>  <rmsd>  (27) 
3.907936496106097

>  <m_score__min__rmsd>  (27) 
3.907936496106097

>  <meeko>  (27) 
{"free_energy": -9.52, "intermolecular_energy": -11.01, "internal_energy": -1.07, "cluster_size": 39, "cluster_id": 1, "rank_in_cluster": 36}

>  <energy>  (27) 
-9.58

>  <cluster_rmsd>  (27) 
0.65

>  <cluster>  (27) 
1

$$$$

     RDKit          3D

 63 67  0  0  0  0  0  0  0  0999 V2000
  139.6240   81.0110  223.3710 C   0  0  0  0  0  0  0  0  0  0  0  0
  140.9720   80.7130  223.3770 C   0  0  0  0  0  0  0  0  0  0  0  0
  141.4250   79.4190  223.1590 C   0  0  0  0  0  0  0  0  0  0  0  0
  140.5350   78.3800  222.9290 C   0  0  0  0  0  0  0  0  0  0  0  0
  139.1850   78.6810  222.9240 C   0  0  0  0  0  0  0  0  0  0  0  0
  138.7450   79.9730  223.1420 C   0  0  0  0  0  0  0  0  0  0  0  0
  138.2320   77.5980  222.6830 C   0  0  0  0  0  0  0  0  0  0  0  0
  138.7630   76.5190  221.7810 C   0  0  0  0  0  0  0  0  0  0  0  0
  140.1230   76.1340  222.1030 N   0  0  0  0  0  0  0  0  0  0  0  0
  140.5670   74.8060  221.8250 C   0  0  0  0  0  0  0  0  0  0  0  0
  139.8270   73.7170  222.1100 N   0  0  0  0  0  0  0  0  0  0  0  0
  140.2230   72.4550  221.8560 C   0  0  0  0  0  0  0  0  0  0  0  0
  139.4140   71.3210  222.1710 N   0  0  0  0  0  0  0  0  0  0  0  0
  138.8060   71.2390  223.4730 C   0  0  0  0  0  0  0  0  0  0  0  0
  139.7800   70.5280  224.3940 C   0  0  0  0  0  0  0  0  0  0  0  0
  140.2520   71.4820  225.4710 C   0  0  0  0  0  0  0  0  0  0  0  0
  141.4470   70.8840  226.1420 C   0  0  0  0  0  0  0  0  0  0  0  0
  141.2720   69.4000  226.2530 C   0  0  0  0  0  0  0  0  0  0  0  0
  139.8040   68.9920  226.2830 C   0  0  0  0  0  0  0  0  0  0  0  0
  139.1490   69.2900  224.9440 C   0  0  0  0  0  0  0  0  0  0  0  0
  141.4450   72.3000  221.2810 N   0  0  0  0  0  0  0  0  0  0  0  0
  142.2290   73.3530  220.9730 C   0  0  0  0  0  0  0  0  0  0  0  0
  143.5110   73.2140  220.3700 N   0  0  0  0  0  0  0  0  0  0  0  0
  144.6360   73.9870  220.8330 C   0  0  0  0  0  0  0  0  0  0  0  0
  145.9510   73.4360  220.4030 C   0  0  0  0  0  0  0  0  0  0  0  0
  146.0060   73.1840  218.9970 N   0  0  0  0  0  0  0  0  0  0  0  0
  144.7430   72.9390  218.3700 C   0  0  0  0  0  0  0  0  0  0  0  0
  143.7180   72.2890  219.2740 C   0  0  0  0  0  0  0  0  0  0  0  0
  141.7660   74.5840  221.2560 N   0  0  0  0  0  0  0  0  0  0  0  0
  141.0830   77.0410  222.7070 C   0  0  0  0  0  0  0  0  0  0  0  0
  139.2648   82.0365  223.5422 H   0  0  0  0  0  0  0  0  0  0  0  0
  141.7012   81.5164  223.5580 H   0  0  0  0  0  0  0  0  0  0  0  0
  142.5058   79.2145  223.1688 H   0  0  0  0  0  0  0  0  0  0  0  0
  137.6645   80.1790  223.1326 H   0  0  0  0  0  0  0  0  0  0  0  0
  137.9689   77.1446  223.6501 H   0  0  0  0  0  0  0  0  0  0  0  0
  137.3610   78.0411  222.1780 H   0  0  0  0  0  0  0  0  0  0  0  0
  138.1163   75.6340  221.8738 H   0  0  0  0  0  0  0  0  0  0  0  0
  138.7664   76.9175  220.7557 H   0  0  0  0  0  0  0  0  0  0  0  0
  139.3050   70.6000  221.4300 H   0  0  0  0  0  0  0  0  0  0  0  0
  138.5999   72.2500  223.8544 H   0  0  0  0  0  0  0  0  0  0  0  0
  137.8550   70.6887  223.4198 H   0  0  0  0  0  0  0  0  0  0  0  0
  140.6713   70.2079  223.8345 H   0  0  0  0  0  0  0  0  0  0  0  0
  140.5242   72.4471  225.0188 H   0  0  0  0  0  0  0  0  0  0  0  0
  139.4504   71.6484  226.2057 H   0  0  0  0  0  0  0  0  0  0  0  0
  142.3473   71.1030  225.5492 H   0  0  0  0  0  0  0  0  0  0  0  0
  141.5544   71.3151  227.1483 H   0  0  0  0  0  0  0  0  0  0  0  0
  141.7548   68.9211  225.3884 H   0  0  0  0  0  0  0  0  0  0  0  0
  141.7308   69.0766  227.1990 H   0  0  0  0  0  0  0  0  0  0  0  0
  139.7305   67.9145  226.4917 H   0  0  0  0  0  0  0  0  0  0  0  0
  139.2888   69.5628  227.0696 H   0  0  0  0  0  0  0  0  0  0  0  0
  139.3096   68.4492  224.2532 H   0  0  0  0  0  0  0  0  0  0  0  0
  138.0655   69.4331  225.0689 H   0  0  0  0  0  0  0  0  0  0  0  0
  144.5414   75.0099  220.4397 H   0  0  0  0  0  0  0  0  0  0  0  0
  144.6172   73.9602  221.9325 H   0  0  0  0  0  0  0  0  0  0  0  0
  146.7383   74.1590  220.6628 H   0  0  0  0  0  0  0  0  0  0  0  0
  146.0963   72.4762  220.9203 H   0  0  0  0  0  0  0  0  0  0  0  0
  146.4350   73.9990  218.4850 H   0  0  0  0  0  0  0  0  0  0  0  0
  144.3372   73.9010  218.0239 H   0  0  0  0  0  0  0  0  0  0  0  0
  144.9302   72.2346  217.5461 H   0  0  0  0  0  0  0  0  0  0  0  0
  142.7767   72.1248  218.7290 H   0  0  0  0  0  0  0  0  0  0  0  0
  144.0613   71.3077  219.6334 H   0  0  0  0  0  0  0  0  0  0  0  0
  141.3985   76.6252  223.6753 H   0  0  0  0  0  0  0  0  0  0  0  0
  141.9289   77.1401  222.0109 H   0  0  0  0  0  0  0  0  0  0  0  0
  1  2  2  0
  2  3  1  0
  3  4  2  0
  4  5  1  0
  5  6  2  0
  5  7  1  0
  7  8  1  0
  8  9  1  0
  9 10  1  0
 10 11  2  0
 11 12  1  0
 12 13  1  0
 13 14  1  0
 14 15  1  0
 15 16  1  0
 16 17  1  0
 17 18  1  0
 18 19  1  0
 19 20  1  0
 12 21  2  0
 21 22  1  0
 22 23  1  0
 23 24  1  0
 24 25  1  0
 25 26  1  0
 26 27  1  0
 27 28  1  0
 22 29  2  0
  9 30  1  0
  6  1  1  0
 29 10  1  0
 30  4  1  0
 20 15  1  0
 28 23  1  0
  1 31  1  0
  2 32  1  0
  3 33  1  0
  6 34  1  0
  7 35  1  0
  7 36  1  0
  8 37  1  0
  8 38  1  0
 13 39  1  0
 14 40  1  0
 14 41  1  0
 15 42  1  0
 16 43  1  0
 16 44  1  0
 17 45  1  0
 17 46  1  0
 18 47  1  0
 18 48  1  0
 19 49  1  0
 19 50  1  0
 20 51  1  0
 20 52  1  0
 24 53  1  0
 24 54  1  0
 25 55  1  0
 25 56  1  0
 26 57  1  0
 27 58  1  0
 27 59  1  0
 28 60  1  0
 28 61  1  0
 30 62  1  0
 30 63  1  0
M  END
>  <smiles>  (28) 
c1ccc2c(c1)CCN(c1nc(NCC3CCCCC3)nc(N3CCNCC3)n1)C2

>  <score_type>  (28) 
oracle

>  <origin>  (28) 
autodockgpu

>  <m_score__min__energy>  (28) 
-9.9000000000000004

>  <m_primary>  (28) 
energy

>  <rmsd>  (28) 
9.848807000883719

>  <m_score__min__rmsd>  (28) 
9.848807000883719

>  <meeko>  (28) 
{"free_energy": -9.5, "intermolecular_energy": -10.99, "internal_energy": -0.99, "cluster_size": 11, "cluster_id": 2, "rank_in_cluster": 7}

>  <energy>  (28) 
-9.57

>  <cluster_rmsd>  (28) 
0.64

>  <cluster>  (28) 
1

$$$$

     RDKit          3D

 63 67  0  0  0  0  0  0  0  0999 V2000
  139.6820   68.5900  227.6670 C   0  0  0  0  0  0  0  0  0  0  0  0
  140.4770   69.6580  228.0330 C   0  0  0  0  0  0  0  0  0  0  0  0
  140.8990   70.5950  227.1010 C   0  0  0  0  0  0  0  0  0  0  0  0
  140.5350   70.4890  225.7660 C   0  0  0  0  0  0  0  0  0  0  0  0
  139.7390   69.4190  225.4020 C   0  0  0  0  0  0  0  0  0  0  0  0
  139.3240   68.4910  226.3380 C   0  0  0  0  0  0  0  0  0  0  0  0
  139.3450   69.2910  223.9980 C   0  0  0  0  0  0  0  0  0  0  0  0
  139.1990   70.6100  223.2930 C   0  0  0  0  0  0  0  0  0  0  0  0
  140.2790   71.5310  223.5880 N   0  0  0  0  0  0  0  0  0  0  0  0
  140.6570   72.5110  222.6210 C   0  0  0  0  0  0  0  0  0  0  0  0
  139.8830   73.5720  222.3210 N   0  0  0  0  0  0  0  0  0  0  0  0
  140.2180   74.5100  221.4150 C   0  0  0  0  0  0  0  0  0  0  0  0
  139.3740   75.6240  221.1190 N   0  0  0  0  0  0  0  0  0  0  0  0
  139.0570   76.5560  222.1700 C   0  0  0  0  0  0  0  0  0  0  0  0
  139.9770   77.7520  222.0190 C   0  0  0  0  0  0  0  0  0  0  0  0
  141.0930   77.6690  223.0400 C   0  0  0  0  0  0  0  0  0  0  0  0
  141.7730   78.9990  223.1080 C   0  0  0  0  0  0  0  0  0  0  0  0
  141.8360   79.6020  221.7380 C   0  0  0  0  0  0  0  0  0  0  0  0
  141.8200   78.5460  220.6390 C   0  0  0  0  0  0  0  0  0  0  0  0
  140.4770   77.8360  220.6130 C   0  0  0  0  0  0  0  0  0  0  0  0
  141.4090   74.3510  220.7800 N   0  0  0  0  0  0  0  0  0  0  0  0
  142.2250   73.3090  221.0390 C   0  0  0  0  0  0  0  0  0  0  0  0
  143.4760   73.1240  220.3870 N   0  0  0  0  0  0  0  0  0  0  0  0
  144.6740   73.7450  220.8930 C   0  0  0  0  0  0  0  0  0  0  0  0
  145.9270   73.1310  220.3710 C   0  0  0  0  0  0  0  0  0  0  0  0
  145.9300   73.0240  218.9460 N   0  0  0  0  0  0  0  0  0  0  0  0
  144.6380   72.9540  218.3340 C   0  0  0  0  0  0  0  0  0  0  0  0
  143.5780   72.3040  219.1970 C   0  0  0  0  0  0  0  0  0  0  0  0
  141.8240   72.4120  221.9580 N   0  0  0  0  0  0  0  0  0  0  0  0
  141.0160   71.5140  224.8380 C   0  0  0  0  0  0  0  0  0  0  0  0
  139.3471   67.8471  228.4060 H   0  0  0  0  0  0  0  0  0  0  0  0
  140.7817   69.7680  229.0842 H   0  0  0  0  0  0  0  0  0  0  0  0
  141.5316   71.4345  227.4250 H   0  0  0  0  0  0  0  0  0  0  0  0
  138.6914   67.6510  226.0151 H   0  0  0  0  0  0  0  0  0  0  0  0
  140.1103   68.6993  223.4743 H   0  0  0  0  0  0  0  0  0  0  0  0
  138.3583   68.8051  223.9822 H   0  0  0  0  0  0  0  0  0  0  0  0
  139.1798   70.4278  222.2084 H   0  0  0  0  0  0  0  0  0  0  0  0
  138.2658   71.0718  223.6477 H   0  0  0  0  0  0  0  0  0  0  0  0
  139.0260   75.7050  220.1430 H   0  0  0  0  0  0  0  0  0  0  0  0
  138.0084   76.8766  222.0826 H   0  0  0  0  0  0  0  0  0  0  0  0
  139.1941   76.0866  223.1553 H   0  0  0  0  0  0  0  0  0  0  0  0
  139.4271   78.6839  222.2168 H   0  0  0  0  0  0  0  0  0  0  0  0
  140.6762   77.4144  224.0256 H   0  0  0  0  0  0  0  0  0  0  0  0
  141.8141   76.8913  222.7481 H   0  0  0  0  0  0  0  0  0  0  0  0
  141.2074   79.6656  223.7757 H   0  0  0  0  0  0  0  0  0  0  0  0
  142.7937   78.8679  223.4967 H   0  0  0  0  0  0  0  0  0  0  0  0
  140.9690   80.2655  221.6035 H   0  0  0  0  0  0  0  0  0  0  0  0
  142.7828   80.1562  221.6579 H   0  0  0  0  0  0  0  0  0  0  0  0
  141.9937   79.0306  219.6669 H   0  0  0  0  0  0  0  0  0  0  0  0
  142.6119   77.8089  220.8380 H   0  0  0  0  0  0  0  0  0  0  0  0
  139.7653   78.4042  219.9961 H   0  0  0  0  0  0  0  0  0  0  0  0
  140.5829   76.8294  220.1822 H   0  0  0  0  0  0  0  0  0  0  0  0
  144.6622   74.8076  220.6088 H   0  0  0  0  0  0  0  0  0  0  0  0
  144.6751   73.6053  221.9841 H   0  0  0  0  0  0  0  0  0  0  0  0
  146.7802   73.7527  220.6801 H   0  0  0  0  0  0  0  0  0  0  0  0
  145.9984   72.1137  220.7833 H   0  0  0  0  0  0  0  0  0  0  0  0
  146.4200   73.8470  218.5070 H   0  0  0  0  0  0  0  0  0  0  0  0
  144.3116   73.9778  218.0989 H   0  0  0  0  0  0  0  0  0  0  0  0
  144.7459   72.3252  217.4379 H   0  0  0  0  0  0  0  0  0  0  0  0
  142.6149   72.2789  218.6661 H   0  0  0  0  0  0  0  0  0  0  0  0
  143.8404   71.2648  219.4443 H   0  0  0  0  0  0  0  0  0  0  0  0
  142.0762   71.3197  224.6183 H   0  0  0  0  0  0  0  0  0  0  0  0
  140.8720   72.4918  225.3208 H   0  0  0  0  0  0  0  0  0  0  0  0
  1  2  2  0
  2  3  1  0
  3  4  2  0
  4  5  1  0
  5  6  2  0
  5  7  1  0
  7  8  1  0
  8  9  1  0
  9 10  1  0
 10 11  2  0
 11 12  1  0
 12 13  1  0
 13 14  1  0
 14 15  1  0
 15 16  1  0
 16 17  1  0
 17 18  1  0
 18 19  1  0
 19 20  1  0
 12 21  2  0
 21 22  1  0
 22 23  1  0
 23 24  1  0
 24 25  1  0
 25 26  1  0
 26 27  1  0
 27 28  1  0
 22 29  2  0
  9 30  1  0
  6  1  1  0
 29 10  1  0
 30  4  1  0
 20 15  1  0
 28 23  1  0
  1 31  1  0
  2 32  1  0
  3 33  1  0
  6 34  1  0
  7 35  1  0
  7 36  1  0
  8 37  1  0
  8 38  1  0
 13 39  1  0
 14 40  1  0
 14 41  1  0
 15 42  1  0
 16 43  1  0
 16 44  1  0
 17 45  1  0
 17 46  1  0
 18 47  1  0
 18 48  1  0
 19 49  1  0
 19 50  1  0
 20 51  1  0
 20 52  1  0
 24 53  1  0
 24 54  1  0
 25 55  1  0
 25 56  1  0
 26 57  1  0
 27 58  1  0
 27 59  1  0
 28 60  1  0
 28 61  1  0
 30 62  1  0
 30 63  1  0
M  END
>  <smiles>  (29) 
c1ccc2c(c1)CCN(c1nc(NCC3CCCCC3)nc(N3CCNCC3)n1)C2

>  <score_type>  (29) 
oracle

>  <origin>  (29) 
autodockgpu

>  <m_score__min__energy>  (29) 
-9.9000000000000004

>  <m_primary>  (29) 
energy

>  <rmsd>  (29) 
3.918973434031662

>  <m_score__min__rmsd>  (29) 
3.918973434031662

>  <meeko>  (29) 
{"free_energy": -9.49, "intermolecular_energy": -10.98, "internal_energy": -1.1, "cluster_size": 39, "cluster_id": 1, "rank_in_cluster": 37}

>  <energy>  (29) 
-9.57

>  <cluster_rmsd>  (29) 
0.65

>  <cluster>  (29) 
1

$$$$

     RDKit          3D

 63 67  0  0  0  0  0  0  0  0999 V2000
  139.5640   68.5530  227.5490 C   0  0  0  0  0  0  0  0  0  0  0  0
  140.4010   69.5780  227.9440 C   0  0  0  0  0  0  0  0  0  0  0  0
  140.8550   70.5270  227.0400 C   0  0  0  0  0  0  0  0  0  0  0  0
  140.4820   70.4780  225.7050 C   0  0  0  0  0  0  0  0  0  0  0  0
  139.6440   69.4510  225.3110 C   0  0  0  0  0  0  0  0  0  0  0  0
  139.1970   68.5110  226.2190 C   0  0  0  0  0  0  0  0  0  0  0  0
  139.2400   69.3830  223.9060 C   0  0  0  0  0  0  0  0  0  0  0  0
  139.1410   70.7290  223.2430 C   0  0  0  0  0  0  0  0  0  0  0  0
  140.2570   71.5980  223.5610 N   0  0  0  0  0  0  0  0  0  0  0  0
  140.6690   72.5930  222.6240 C   0  0  0  0  0  0  0  0  0  0  0  0
  139.9390   73.6960  222.3690 N   0  0  0  0  0  0  0  0  0  0  0  0
  140.3060   74.6490  221.4910 C   0  0  0  0  0  0  0  0  0  0  0  0
  139.5100   75.8080  221.2420 N   0  0  0  0  0  0  0  0  0  0  0  0
  140.1480   76.9980  220.7420 C   0  0  0  0  0  0  0  0  0  0  0  0
  140.6780   77.7730  221.9340 C   0  0  0  0  0  0  0  0  0  0  0  0
  141.6380   78.8440  221.4610 C   0  0  0  0  0  0  0  0  0  0  0  0
  142.4000   79.3530  222.6420 C   0  0  0  0  0  0  0  0  0  0  0  0
  141.4980   79.4040  223.8370 C   0  0  0  0  0  0  0  0  0  0  0  0
  140.0330   79.5650  223.4510 C   0  0  0  0  0  0  0  0  0  0  0  0
  139.5390   78.3200  222.7330 C   0  0  0  0  0  0  0  0  0  0  0  0
  141.4830   74.4610  220.8380 N   0  0  0  0  0  0  0  0  0  0  0  0
  142.2550   73.3760  221.0530 C   0  0  0  0  0  0  0  0  0  0  0  0
  143.4900   73.1590  220.3820 N   0  0  0  0  0  0  0  0  0  0  0  0
  144.7050   73.7800  220.8460 C   0  0  0  0  0  0  0  0  0  0  0  0
  145.9400   73.1370  220.3160 C   0  0  0  0  0  0  0  0  0  0  0  0
  145.9130   72.9910  218.8950 N   0  0  0  0  0  0  0  0  0  0  0  0
  144.6080   72.9200  218.3110 C   0  0  0  0  0  0  0  0  0  0  0  0
  143.5590   72.3050  219.2120 C   0  0  0  0  0  0  0  0  0  0  0  0
  141.8230   72.4660  221.9450 N   0  0  0  0  0  0  0  0  0  0  0  0
  140.9980   71.5130  224.8070 C   0  0  0  0  0  0  0  0  0  0  0  0
  139.2041   67.8001  228.2657 H   0  0  0  0  0  0  0  0  0  0  0  0
  140.7139   69.6431  228.9965 H   0  0  0  0  0  0  0  0  0  0  0  0
  141.5210   71.3307  227.3871 H   0  0  0  0  0  0  0  0  0  0  0  0
  138.5306   67.7072  225.8729 H   0  0  0  0  0  0  0  0  0  0  0  0
  139.9803   68.7798  223.3600 H   0  0  0  0  0  0  0  0  0  0  0  0
  138.2354   68.9357  223.8802 H   0  0  0  0  0  0  0  0  0  0  0  0
  139.1100   70.5821  222.1533 H   0  0  0  0  0  0  0  0  0  0  0  0
  138.2275   71.2147  223.6167 H   0  0  0  0  0  0  0  0  0  0  0  0
  138.4920   75.7320  221.4400 H   0  0  0  0  0  0  0  0  0  0  0  0
  140.9778   76.7254  220.0734 H   0  0  0  0  0  0  0  0  0  0  0  0
  139.4318   77.6089  220.1729 H   0  0  0  0  0  0  0  0  0  0  0  0
  141.2434   77.1064  222.6018 H   0  0  0  0  0  0  0  0  0  0  0  0
  142.3356   78.4181  220.7248 H   0  0  0  0  0  0  0  0  0  0  0  0
  141.0816   79.6668  220.9883 H   0  0  0  0  0  0  0  0  0  0  0  0
  143.2455   78.6807  222.8498 H   0  0  0  0  0  0  0  0  0  0  0  0
  142.7778   80.3632  222.4257 H   0  0  0  0  0  0  0  0  0  0  0  0
  141.6129   78.4700  224.4067 H   0  0  0  0  0  0  0  0  0  0  0  0
  141.7853   80.2797  224.4376 H   0  0  0  0  0  0  0  0  0  0  0  0
  139.4332   79.7225  224.3595 H   0  0  0  0  0  0  0  0  0  0  0  0
  139.9320   80.4303  222.7793 H   0  0  0  0  0  0  0  0  0  0  0  0
  139.2035   77.5726  223.4671 H   0  0  0  0  0  0  0  0  0  0  0  0
  138.6911   78.5652  222.0766 H   0  0  0  0  0  0  0  0  0  0  0  0
  144.6991   74.8343  220.5323 H   0  0  0  0  0  0  0  0  0  0  0  0
  144.7271   73.6709  221.9403 H   0  0  0  0  0  0  0  0  0  0  0  0
  146.8063   73.7567  220.5907 H   0  0  0  0  0  0  0  0  0  0  0  0
  146.0080   72.1305  220.7546 H   0  0  0  0  0  0  0  0  0  0  0  0
  146.4030   73.7970  218.4230 H   0  0  0  0  0  0  0  0  0  0  0  0
  144.2881   73.9410  218.0556 H   0  0  0  0  0  0  0  0  0  0  0  0
  144.6906   72.2670  217.4297 H   0  0  0  0  0  0  0  0  0  0  0  0
  142.5852   72.2762  218.7013 H   0  0  0  0  0  0  0  0  0  0  0  0
  143.8151   71.2699  219.4820 H   0  0  0  0  0  0  0  0  0  0  0  0
  142.0491   71.2855  224.5759 H   0  0  0  0  0  0  0  0  0  0  0  0
  140.8930   72.4797  225.3212 H   0  0  0  0  0  0  0  0  0  0  0  0
  1  2  2  0
  2  3  1  0
  3  4  2  0
  4  5  1  0
  5  6  2  0
  5  7  1  0
  7  8  1  0
  8  9  1  0
  9 10  1  0
 10 11  2  0
 11 12  1  0
 12 13  1  0
 13 14  1  0
 14 15  1  0
 15 16  1  0
 16 17  1  0
 17 18  1  0
 18 19  1  0
 19 20  1  0
 12 21  2  0
 21 22  1  0
 22 23  1  0
 23 24  1  0
 24 25  1  0
 25 26  1  0
 26 27  1  0
 27 28  1  0
 22 29  2  0
  9 30  1  0
  6  1  1  0
 29 10  1  0
 30  4  1  0
 20 15  1  0
 28 23  1  0
  1 31  1  0
  2 32  1  0
  3 33  1  0
  6 34  1  0
  7 35  1  0
  7 36  1  0
  8 37  1  0
  8 38  1  0
 13 39  1  0
 14 40  1  0
 14 41  1  0
 15 42  1  0
 16 43  1  0
 16 44  1  0
 17 45  1  0
 17 46  1  0
 18 47  1  0
 18 48  1  0
 19 49  1  0
 19 50  1  0
 20 51  1  0
 20 52  1  0
 24 53  1  0
 24 54  1  0
 25 55  1  0
 25 56  1  0
 26 57  1  0
 27 58  1  0
 27 59  1  0
 28 60  1  0
 28 61  1  0
 30 62  1  0
 30 63  1  0
M  END
>  <smiles>  (30) 
c1ccc2c(c1)CCN(c1nc(NCC3CCCCC3)nc(N3CCNCC3)n1)C2

>  <score_type>  (30) 
oracle

>  <origin>  (30) 
autodockgpu

>  <m_score__min__energy>  (30) 
-9.9000000000000004

>  <m_primary>  (30) 
energy

>  <rmsd>  (30) 
3.9034460354480847

>  <m_score__min__rmsd>  (30) 
3.9034460354480847

>  <meeko>  (30) 
{"free_energy": -9.88, "intermolecular_energy": -11.37, "internal_energy": -0.94, "cluster_size": 39, "cluster_id": 1, "rank_in_cluster": 3}

>  <energy>  (30) 
-9.56

>  <cluster_rmsd>  (30) 
0.6

>  <cluster>  (30) 
1

$$$$

     RDKit          3D

 63 67  0  0  0  0  0  0  0  0999 V2000
  139.5860   68.5450  227.6220 C   0  0  0  0  0  0  0  0  0  0  0  0
  140.4080   69.5890  227.9980 C   0  0  0  0  0  0  0  0  0  0  0  0
  140.8440   70.5300  227.0760 C   0  0  0  0  0  0  0  0  0  0  0  0
  140.4670   70.4530  225.7430 C   0  0  0  0  0  0  0  0  0  0  0  0
  139.6440   69.4070  225.3690 C   0  0  0  0  0  0  0  0  0  0  0  0
  139.2160   68.4750  226.2940 C   0  0  0  0  0  0  0  0  0  0  0  0
  139.2370   69.3100  223.9670 C   0  0  0  0  0  0  0  0  0  0  0  0
  139.1150   70.6430  223.2830 C   0  0  0  0  0  0  0  0  0  0  0  0
  140.2180   71.5340  223.5830 N   0  0  0  0  0  0  0  0  0  0  0  0
  140.6110   72.5200  222.6290 C   0  0  0  0  0  0  0  0  0  0  0  0
  139.8470   73.5890  222.3320 N   0  0  0  0  0  0  0  0  0  0  0  0
  140.1960   74.5330  221.4370 C   0  0  0  0  0  0  0  0  0  0  0  0
  139.3630   75.6550  221.1440 N   0  0  0  0  0  0  0  0  0  0  0  0
  138.8800   76.4670  222.2310 C   0  0  0  0  0  0  0  0  0  0  0  0
  139.7070   77.7380  222.2610 C   0  0  0  0  0  0  0  0  0  0  0  0
  139.0140   78.7780  223.1160 C   0  0  0  0  0  0  0  0  0  0  0  0
  139.6500   80.1060  222.8550 C   0  0  0  0  0  0  0  0  0  0  0  0
  141.1240   79.9260  222.6570 C   0  0  0  0  0  0  0  0  0  0  0  0
  141.6570   78.6870  223.3670 C   0  0  0  0  0  0  0  0  0  0  0  0
  141.0950   77.4310  222.7240 C   0  0  0  0  0  0  0  0  0  0  0  0
  141.3910   74.3720  220.8100 N   0  0  0  0  0  0  0  0  0  0  0  0
  142.1970   73.3220  221.0670 C   0  0  0  0  0  0  0  0  0  0  0  0
  143.4530   73.1340  220.4240 N   0  0  0  0  0  0  0  0  0  0  0  0
  144.6190   73.8690  220.8450 C   0  0  0  0  0  0  0  0  0  0  0  0
  145.9000   73.2700  220.3780 C   0  0  0  0  0  0  0  0  0  0  0  0
  145.9000   73.0080  218.9730 N   0  0  0  0  0  0  0  0  0  0  0  0
  144.6100   72.8040  218.3880 C   0  0  0  0  0  0  0  0  0  0  0  0
  143.5920   72.1960  219.3280 C   0  0  0  0  0  0  0  0  0  0  0  0
  141.7820   72.4190  221.9740 N   0  0  0  0  0  0  0  0  0  0  0  0
  140.9650   71.4810  224.8270 C   0  0  0  0  0  0  0  0  0  0  0  0
  139.2397   67.7986  228.3520 H   0  0  0  0  0  0  0  0  0  0  0  0
  140.7231   69.6763  229.0483 H   0  0  0  0  0  0  0  0  0  0  0  0
  141.4986   71.3496  227.4071 H   0  0  0  0  0  0  0  0  0  0  0  0
  138.5623   67.6544  225.9634 H   0  0  0  0  0  0  0  0  0  0  0  0
  139.9850   68.7097  223.4283 H   0  0  0  0  0  0  0  0  0  0  0  0
  138.2395   68.8467  223.9516 H   0  0  0  0  0  0  0  0  0  0  0  0
  139.0828   70.4780  222.1959 H   0  0  0  0  0  0  0  0  0  0  0  0
  138.1953   71.1204  223.6521 H   0  0  0  0  0  0  0  0  0  0  0  0
  139.1430   75.8310  220.1430 H   0  0  0  0  0  0  0  0  0  0  0  0
  137.8199   76.7137  222.0719 H   0  0  0  0  0  0  0  0  0  0  0  0
  138.9701   75.9265  223.1848 H   0  0  0  0  0  0  0  0  0  0  0  0
  139.7953   78.1602  221.2491 H   0  0  0  0  0  0  0  0  0  0  0  0
  137.9460   78.8204  222.8561 H   0  0  0  0  0  0  0  0  0  0  0  0
  139.1100   78.5164  224.1801 H   0  0  0  0  0  0  0  0  0  0  0  0
  139.2105   80.5510  221.9501 H   0  0  0  0  0  0  0  0  0  0  0  0
  139.4748   80.7705  223.7139 H   0  0  0  0  0  0  0  0  0  0  0  0
  141.3271   79.8312  221.5801 H   0  0  0  0  0  0  0  0  0  0  0  0
  141.6303   80.8032  223.0861 H   0  0  0  0  0  0  0  0  0  0  0  0
  142.7546   78.6715  223.2960 H   0  0  0  0  0  0  0  0  0  0  0  0
  141.3492   78.7181  224.4226 H   0  0  0  0  0  0  0  0  0  0  0  0
  141.7192   77.1376  221.8671 H   0  0  0  0  0  0  0  0  0  0  0  0
  141.0851   76.6008  223.4455 H   0  0  0  0  0  0  0  0  0  0  0  0
  144.5478   74.8922  220.4474 H   0  0  0  0  0  0  0  0  0  0  0  0
  144.6345   73.8486  221.9447 H   0  0  0  0  0  0  0  0  0  0  0  0
  146.7198   73.9667  220.6072 H   0  0  0  0  0  0  0  0  0  0  0  0
  146.0295   72.3092  220.8978 H   0  0  0  0  0  0  0  0  0  0  0  0
  146.3420   73.8040  218.4410 H   0  0  0  0  0  0  0  0  0  0  0  0
  144.2274   73.7777  218.0481 H   0  0  0  0  0  0  0  0  0  0  0  0
  144.7462   72.0884  217.5637 H   0  0  0  0  0  0  0  0  0  0  0  0
  142.6286   72.0625  218.8142 H   0  0  0  0  0  0  0  0  0  0  0  0
  143.9114   71.2050  219.6828 H   0  0  0  0  0  0  0  0  0  0  0  0
  142.0186   71.2654  224.5957 H   0  0  0  0  0  0  0  0  0  0  0  0
  140.8484   72.4545  225.3258 H   0  0  0  0  0  0  0  0  0  0  0  0
  1  2  2  0
  2  3  1  0
  3  4  2  0
  4  5  1  0
  5  6  2  0
  5  7  1  0
  7  8  1  0
  8  9  1  0
  9 10  1  0
 10 11  2  0
 11 12  1  0
 12 13  1  0
 13 14  1  0
 14 15  1  0
 15 16  1  0
 16 17  1  0
 17 18  1  0
 18 19  1  0
 19 20  1  0
 12 21  2  0
 21 22  1  0
 22 23  1  0
 23 24  1  0
 24 25  1  0
 25 26  1  0
 26 27  1  0
 27 28  1  0
 22 29  2  0
  9 30  1  0
  6  1  1  0
 29 10  1  0
 30  4  1  0
 20 15  1  0
 28 23  1  0
  1 31  1  0
  2 32  1  0
  3 33  1  0
  6 34  1  0
  7 35  1  0
  7 36  1  0
  8 37  1  0
  8 38  1  0
 13 39  1  0
 14 40  1  0
 14 41  1  0
 15 42  1  0
 16 43  1  0
 16 44  1  0
 17 45  1  0
 17 46  1  0
 18 47  1  0
 18 48  1  0
 19 49  1  0
 19 50  1  0
 20 51  1  0
 20 52  1  0
 24 53  1  0
 24 54  1  0
 25 55  1  0
 25 56  1  0
 26 57  1  0
 27 58  1  0
 27 59  1  0
 28 60  1  0
 28 61  1  0
 30 62  1  0
 30 63  1  0
M  END
>  <smiles>  (31) 
c1ccc2c(c1)CCN(c1nc(NCC3CCCCC3)nc(N3CCNCC3)n1)C2

>  <score_type>  (31) 
oracle

>  <origin>  (31) 
autodockgpu

>  <m_score__min__energy>  (31) 
-9.9000000000000004

>  <m_primary>  (31) 
energy

>  <rmsd>  (31) 
3.9080274497920633

>  <m_score__min__rmsd>  (31) 
3.9080274497920633

>  <meeko>  (31) 
{"free_energy": -9.74, "intermolecular_energy": -11.24, "internal_energy": -0.94, "cluster_size": 39, "cluster_id": 1, "rank_in_cluster": 14}

>  <energy>  (31) 
-9.55

>  <cluster_rmsd>  (31) 
0.66

>  <cluster>  (31) 
1

$$$$

     RDKit          3D

 63 67  0  0  0  0  0  0  0  0999 V2000
  140.8710   81.8530  222.7160 C   0  0  0  0  0  0  0  0  0  0  0  0
  141.9100   81.2630  223.4070 C   0  0  0  0  0  0  0  0  0  0  0  0
  142.0690   79.8850  223.4300 C   0  0  0  0  0  0  0  0  0  0  0  0
  141.1850   79.0520  222.7590 C   0  0  0  0  0  0  0  0  0  0  0  0
  140.1450   79.6450  222.0680 C   0  0  0  0  0  0  0  0  0  0  0  0
  139.9960   81.0190  222.0500 C   0  0  0  0  0  0  0  0  0  0  0  0
  139.2030   78.7830  221.3530 C   0  0  0  0  0  0  0  0  0  0  0  0
  139.8240   77.5160  220.8340 C   0  0  0  0  0  0  0  0  0  0  0  0
  140.6920   76.8750  221.8020 N   0  0  0  0  0  0  0  0  0  0  0  0
  140.8660   75.4590  221.7690 C   0  0  0  0  0  0  0  0  0  0  0  0
  139.9340   74.6020  222.2300 N   0  0  0  0  0  0  0  0  0  0  0  0
  140.0740   73.2620  222.2090 C   0  0  0  0  0  0  0  0  0  0  0  0
  139.0680   72.3800  222.7060 N   0  0  0  0  0  0  0  0  0  0  0  0
  139.3950   70.9920  222.9070 C   0  0  0  0  0  0  0  0  0  0  0  0
  139.5040   70.7560  224.4010 C   0  0  0  0  0  0  0  0  0  0  0  0
  139.5540   69.2690  224.6810 C   0  0  0  0  0  0  0  0  0  0  0  0
  139.3130   69.0520  226.1400 C   0  0  0  0  0  0  0  0  0  0  0  0
  139.9670   70.1480  226.9250 C   0  0  0  0  0  0  0  0  0  0  0  0
  141.1550   70.7570  226.1910 C   0  0  0  0  0  0  0  0  0  0  0  0
  140.6830   71.4940  224.9490 C   0  0  0  0  0  0  0  0  0  0  0  0
  141.2320   72.7750  221.6880 N   0  0  0  0  0  0  0  0  0  0  0  0
  142.1990   73.5850  221.2130 C   0  0  0  0  0  0  0  0  0  0  0  0
  143.4170   73.0960  220.6630 N   0  0  0  0  0  0  0  0  0  0  0  0
  143.6380   71.6830  220.4900 C   0  0  0  0  0  0  0  0  0  0  0  0
  144.7430   71.3670  219.5420 C   0  0  0  0  0  0  0  0  0  0  0  0
  145.9480   72.0710  219.8520 N   0  0  0  0  0  0  0  0  0  0  0  0
  145.7710   73.3010  220.5630 C   0  0  0  0  0  0  0  0  0  0  0  0
  144.4690   74.0100  220.2620 C   0  0  0  0  0  0  0  0  0  0  0  0
  141.9880   74.9120  221.2660 N   0  0  0  0  0  0  0  0  0  0  0  0
  141.4140   77.6070  222.8270 C   0  0  0  0  0  0  0  0  0  0  0  0
  140.7452   82.9456  222.6969 H   0  0  0  0  0  0  0  0  0  0  0  0
  142.6258   81.8977  223.9500 H   0  0  0  0  0  0  0  0  0  0  0  0
  142.9087   79.4460  223.9887 H   0  0  0  0  0  0  0  0  0  0  0  0
  139.1579   81.4594  221.4901 H   0  0  0  0  0  0  0  0  0  0  0  0
  138.3866   78.5146  222.0397 H   0  0  0  0  0  0  0  0  0  0  0  0
  138.8453   79.3489  220.4802 H   0  0  0  0  0  0  0  0  0  0  0  0
  139.0196   76.8153  220.5658 H   0  0  0  0  0  0  0  0  0  0  0  0
  140.4413   77.7836  219.9637 H   0  0  0  0  0  0  0  0  0  0  0  0
  138.1330   72.7930  222.8990 H   0  0  0  0  0  0  0  0  0  0  0  0
  138.6039   70.3556  222.4839 H   0  0  0  0  0  0  0  0  0  0  0  0
  140.3428   70.7431  222.4073 H   0  0  0  0  0  0  0  0  0  0  0  0
  138.6152   71.1506  224.9151 H   0  0  0  0  0  0  0  0  0  0  0  0
  138.7768   68.7551  224.0962 H   0  0  0  0  0  0  0  0  0  0  0  0
  140.5372   68.8653  224.3976 H   0  0  0  0  0  0  0  0  0  0  0  0
  138.2308   69.0559  226.3370 H   0  0  0  0  0  0  0  0  0  0  0  0
  139.7381   68.0830  226.4407 H   0  0  0  0  0  0  0  0  0  0  0  0
  139.2255   70.9382  227.1143 H   0  0  0  0  0  0  0  0  0  0  0  0
  140.3395   69.7125  227.8639 H   0  0  0  0  0  0  0  0  0  0  0  0
  141.6712   71.4630  226.8582 H   0  0  0  0  0  0  0  0  0  0  0  0
  141.8424   69.9523  225.8912 H   0  0  0  0  0  0  0  0  0  0  0  0
  140.3922   72.5219  225.2115 H   0  0  0  0  0  0  0  0  0  0  0  0
  141.4882   71.5420  224.2011 H   0  0  0  0  0  0  0  0  0  0  0  0
  143.8836   71.2464  221.4693 H   0  0  0  0  0  0  0  0  0  0  0  0
  142.7156   71.2605  220.0649 H   0  0  0  0  0  0  0  0  0  0  0  0
  144.9451   70.2865  219.5832 H   0  0  0  0  0  0  0  0  0  0  0  0
  144.4217   71.6802  218.5377 H   0  0  0  0  0  0  0  0  0  0  0  0
  146.5890   71.4790  220.4430 H   0  0  0  0  0  0  0  0  0  0  0  0
  145.8044   73.0842  221.6409 H   0  0  0  0  0  0  0  0  0  0  0  0
  146.5790   73.9729  220.2379 H   0  0  0  0  0  0  0  0  0  0  0  0
  144.4016   74.9462  220.8355 H   0  0  0  0  0  0  0  0  0  0  0  0
  144.3900   74.2747  219.1972 H   0  0  0  0  0  0  0  0  0  0  0  0
  141.0877   77.2453  223.8132 H   0  0  0  0  0  0  0  0  0  0  0  0
  142.4879   77.4335  222.6641 H   0  0  0  0  0  0  0  0  0  0  0  0
  1  2  2  0
  2  3  1  0
  3  4  2  0
  4  5  1  0
  5  6  2  0
  5  7  1  0
  7  8  1  0
  8  9  1  0
  9 10  1  0
 10 11  2  0
 11 12  1  0
 12 13  1  0
 13 14  1  0
 14 15  1  0
 15 16  1  0
 16 17  1  0
 17 18  1  0
 18 19  1  0
 19 20  1  0
 12 21  2  0
 21 22  1  0
 22 23  1  0
 23 24  1  0
 24 25  1  0
 25 26  1  0
 26 27  1  0
 27 28  1  0
 22 29  2  0
  9 30  1  0
  6  1  1  0
 29 10  1  0
 30  4  1  0
 20 15  1  0
 28 23  1  0
  1 31  1  0
  2 32  1  0
  3 33  1  0
  6 34  1  0
  7 35  1  0
  7 36  1  0
  8 37  1  0
  8 38  1  0
 13 39  1  0
 14 40  1  0
 14 41  1  0
 15 42  1  0
 16 43  1  0
 16 44  1  0
 17 45  1  0
 17 46  1  0
 18 47  1  0
 18 48  1  0
 19 49  1  0
 19 50  1  0
 20 51  1  0
 20 52  1  0
 24 53  1  0
 24 54  1  0
 25 55  1  0
 25 56  1  0
 26 57  1  0
 27 58  1  0
 27 59  1  0
 28 60  1  0
 28 61  1  0
 30 62  1  0
 30 63  1  0
M  END
>  <smiles>  (32) 
c1ccc2c(c1)CCN(c1nc(NCC3CCCCC3)nc(N3CCNCC3)n1)C2

>  <score_type>  (32) 
oracle

>  <origin>  (32) 
autodockgpu

>  <m_score__min__energy>  (32) 
-9.9000000000000004

>  <m_primary>  (32) 
energy

>  <rmsd>  (32) 
10.81926722811112

>  <m_score__min__rmsd>  (32) 
10.81926722811112

>  <meeko>  (32) 
{"free_energy": -9.49, "intermolecular_energy": -10.98, "internal_energy": -0.96, "cluster_size": 11, "cluster_id": 2, "rank_in_cluster": 8}

>  <energy>  (32) 
-9.55

>  <cluster_rmsd>  (32) 
0.65

>  <cluster>  (32) 
1

$$$$

     RDKit          3D

 63 67  0  0  0  0  0  0  0  0999 V2000
  139.5950   68.5230  227.5380 C   0  0  0  0  0  0  0  0  0  0  0  0
  140.4250   69.5540  227.9330 C   0  0  0  0  0  0  0  0  0  0  0  0
  140.8690   70.5080  227.0280 C   0  0  0  0  0  0  0  0  0  0  0  0
  140.4940   70.4570  225.6930 C   0  0  0  0  0  0  0  0  0  0  0  0
  139.6630   69.4230  225.3000 C   0  0  0  0  0  0  0  0  0  0  0  0
  139.2260   68.4780  226.2090 C   0  0  0  0  0  0  0  0  0  0  0  0
  139.2560   69.3530  223.8970 C   0  0  0  0  0  0  0  0  0  0  0  0
  139.1450   70.6980  223.2350 C   0  0  0  0  0  0  0  0  0  0  0  0
  140.2550   71.5760  223.5510 N   0  0  0  0  0  0  0  0  0  0  0  0
  140.6570   72.5750  222.6140 C   0  0  0  0  0  0  0  0  0  0  0  0
  139.9170   73.6710  222.3590 N   0  0  0  0  0  0  0  0  0  0  0  0
  140.2740   74.6270  221.4810 C   0  0  0  0  0  0  0  0  0  0  0  0
  139.4670   75.7790  221.2320 N   0  0  0  0  0  0  0  0  0  0  0  0
  139.1850   76.6800  222.3200 C   0  0  0  0  0  0  0  0  0  0  0  0
  140.0430   77.9160  222.1280 C   0  0  0  0  0  0  0  0  0  0  0  0
  141.2050   77.8850  223.0990 C   0  0  0  0  0  0  0  0  0  0  0  0
  141.8270   79.2450  223.1370 C   0  0  0  0  0  0  0  0  0  0  0  0
  141.8030   79.8460  221.7650 C   0  0  0  0  0  0  0  0  0  0  0  0
  141.7870   78.7880  220.6690 C   0  0  0  0  0  0  0  0  0  0  0  0
  140.4770   78.0190  220.7010 C   0  0  0  0  0  0  0  0  0  0  0  0
  141.4530   74.4500  220.8270 N   0  0  0  0  0  0  0  0  0  0  0  0
  142.2340   73.3730  221.0420 C   0  0  0  0  0  0  0  0  0  0  0  0
  143.4720   73.1680  220.3700 N   0  0  0  0  0  0  0  0  0  0  0  0
  144.6930   73.7460  220.8720 C   0  0  0  0  0  0  0  0  0  0  0  0
  145.9220   73.1090  220.3210 C   0  0  0  0  0  0  0  0  0  0  0  0
  145.9040   73.0310  218.8940 N   0  0  0  0  0  0  0  0  0  0  0  0
  144.6030   73.0090  218.2990 C   0  0  0  0  0  0  0  0  0  0  0  0
  143.5360   72.3700  219.1620 C   0  0  0  0  0  0  0  0  0  0  0  0
  141.8120   72.4590  221.9340 N   0  0  0  0  0  0  0  0  0  0  0  0
  141.0000   71.4960  224.7950 C   0  0  0  0  0  0  0  0  0  0  0  0
  139.2419   67.7672  228.2549 H   0  0  0  0  0  0  0  0  0  0  0  0
  140.7401   69.6202  228.9848 H   0  0  0  0  0  0  0  0  0  0  0  0
  141.5286   71.3173  227.3745 H   0  0  0  0  0  0  0  0  0  0  0  0
  138.5663   67.6682  225.8638 H   0  0  0  0  0  0  0  0  0  0  0  0
  139.9993   68.7557  223.3486 H   0  0  0  0  0  0  0  0  0  0  0  0
  138.2546   68.8983  223.8738 H   0  0  0  0  0  0  0  0  0  0  0  0
  139.1128   70.5512  222.1453 H   0  0  0  0  0  0  0  0  0  0  0  0
  138.2285   71.1763  223.6110 H   0  0  0  0  0  0  0  0  0  0  0  0
  139.1170   75.9080  220.2620 H   0  0  0  0  0  0  0  0  0  0  0  0
  138.1206   76.9574  222.3106 H   0  0  0  0  0  0  0  0  0  0  0  0
  139.4085   76.2014  223.2849 H   0  0  0  0  0  0  0  0  0  0  0  0
  139.4610   78.8229  222.3490 H   0  0  0  0  0  0  0  0  0  0  0  0
  140.8436   77.6139  224.1019 H   0  0  0  0  0  0  0  0  0  0  0  0
  141.9468   77.1397  222.7760 H   0  0  0  0  0  0  0  0  0  0  0  0
  141.2614   79.8872  223.8281 H   0  0  0  0  0  0  0  0  0  0  0  0
  142.8683   79.1614  223.4815 H   0  0  0  0  0  0  0  0  0  0  0  0
  140.9018   80.4693  221.6678 H   0  0  0  0  0  0  0  0  0  0  0  0
  142.7195   80.4419  221.6433 H   0  0  0  0  0  0  0  0  0  0  0  0
  141.8973   79.2773  219.6900 H   0  0  0  0  0  0  0  0  0  0  0  0
  142.6186   78.0873  220.8345 H   0  0  0  0  0  0  0  0  0  0  0  0
  139.7146   78.5538  220.1156 H   0  0  0  0  0  0  0  0  0  0  0  0
  140.6084   77.0173  220.2658 H   0  0  0  0  0  0  0  0  0  0  0  0
  144.7065   74.8140  220.6091 H   0  0  0  0  0  0  0  0  0  0  0  0
  144.7044   73.5842  221.9600 H   0  0  0  0  0  0  0  0  0  0  0  0
  146.7957   73.7009  220.6312 H   0  0  0  0  0  0  0  0  0  0  0  0
  145.9706   72.0819  220.7118 H   0  0  0  0  0  0  0  0  0  0  0  0
  146.4100   73.8500  218.4650 H   0  0  0  0  0  0  0  0  0  0  0  0
  144.3019   74.0461  218.0898 H   0  0  0  0  0  0  0  0  0  0  0  0
  144.6822   72.3960  217.3891 H   0  0  0  0  0  0  0  0  0  0  0  0
  142.5661   72.3825  218.6433 H   0  0  0  0  0  0  0  0  0  0  0  0
  143.7721   71.3189  219.3843 H   0  0  0  0  0  0  0  0  0  0  0  0
  142.0522   71.2765  224.5611 H   0  0  0  0  0  0  0  0  0  0  0  0
  140.8894   72.4617  225.3101 H   0  0  0  0  0  0  0  0  0  0  0  0
  1  2  2  0
  2  3  1  0
  3  4  2  0
  4  5  1  0
  5  6  2  0
  5  7  1  0
  7  8  1  0
  8  9  1  0
  9 10  1  0
 10 11  2  0
 11 12  1  0
 12 13  1  0
 13 14  1  0
 14 15  1  0
 15 16  1  0
 16 17  1  0
 17 18  1  0
 18 19  1  0
 19 20  1  0
 12 21  2  0
 21 22  1  0
 22 23  1  0
 23 24  1  0
 24 25  1  0
 25 26  1  0
 26 27  1  0
 27 28  1  0
 22 29  2  0
  9 30  1  0
  6  1  1  0
 29 10  1  0
 30  4  1  0
 20 15  1  0
 28 23  1  0
  1 31  1  0
  2 32  1  0
  3 33  1  0
  6 34  1  0
  7 35  1  0
  7 36  1  0
  8 37  1  0
  8 38  1  0
 13 39  1  0
 14 40  1  0
 14 41  1  0
 15 42  1  0
 16 43  1  0
 16 44  1  0
 17 45  1  0
 17 46  1  0
 18 47  1  0
 18 48  1  0
 19 49  1  0
 19 50  1  0
 20 51  1  0
 20 52  1  0
 24 53  1  0
 24 54  1  0
 25 55  1  0
 25 56  1  0
 26 57  1  0
 27 58  1  0
 27 59  1  0
 28 60  1  0
 28 61  1  0
 30 62  1  0
 30 63  1  0
M  END
>  <smiles>  (33) 
c1ccc2c(c1)CCN(c1nc(NCC3CCCCC3)nc(N3CCNCC3)n1)C2

>  <score_type>  (33) 
oracle

>  <origin>  (33) 
autodockgpu

>  <m_score__min__energy>  (33) 
-9.9000000000000004

>  <m_primary>  (33) 
energy

>  <rmsd>  (33) 
3.9020474664634492

>  <m_score__min__rmsd>  (33) 
3.9020474664634492

>  <meeko>  (33) 
{"free_energy": -9.58, "intermolecular_energy": -11.07, "internal_energy": -1.06, "cluster_size": 39, "cluster_id": 1, "rank_in_cluster": 27}

>  <energy>  (33) 
-9.55

>  <cluster_rmsd>  (33) 
0.65

>  <cluster>  (33) 
1

$$$$

     RDKit          3D

 63 67  0  0  0  0  0  0  0  0999 V2000
  139.5920   68.5460  227.4990 C   0  0  0  0  0  0  0  0  0  0  0  0
  140.4330   69.5670  227.8920 C   0  0  0  0  0  0  0  0  0  0  0  0
  140.8790   70.5210  226.9880 C   0  0  0  0  0  0  0  0  0  0  0  0
  140.4930   70.4790  225.6560 C   0  0  0  0  0  0  0  0  0  0  0  0
  139.6510   69.4550  225.2650 C   0  0  0  0  0  0  0  0  0  0  0  0
  139.2120   68.5100  226.1730 C   0  0  0  0  0  0  0  0  0  0  0  0
  139.2330   69.3950  223.8640 C   0  0  0  0  0  0  0  0  0  0  0  0
  139.1290   70.7440  223.2090 C   0  0  0  0  0  0  0  0  0  0  0  0
  140.2490   71.6100  223.5210 N   0  0  0  0  0  0  0  0  0  0  0  0
  140.6520   72.6100  222.5860 C   0  0  0  0  0  0  0  0  0  0  0  0
  139.9160   73.7100  222.3350 N   0  0  0  0  0  0  0  0  0  0  0  0
  140.2750   74.6670  221.4590 C   0  0  0  0  0  0  0  0  0  0  0  0
  139.4720   75.8230  221.2150 N   0  0  0  0  0  0  0  0  0  0  0  0
  139.1420   76.6870  222.3190 C   0  0  0  0  0  0  0  0  0  0  0  0
  140.0620   77.8900  222.2540 C   0  0  0  0  0  0  0  0  0  0  0  0
  139.3160   79.1290  222.7030 C   0  0  0  0  0  0  0  0  0  0  0  0
  140.1120   80.3310  222.3090 C   0  0  0  0  0  0  0  0  0  0  0  0
  141.5730   80.0410  222.4710 C   0  0  0  0  0  0  0  0  0  0  0  0
  141.8380   78.9710  223.5230 C   0  0  0  0  0  0  0  0  0  0  0  0
  141.2970   77.6300  223.0550 C   0  0  0  0  0  0  0  0  0  0  0  0
  141.4520   74.4870  220.8020 N   0  0  0  0  0  0  0  0  0  0  0  0
  142.2300   73.4060  221.0120 C   0  0  0  0  0  0  0  0  0  0  0  0
  143.4640   73.1970  220.3360 N   0  0  0  0  0  0  0  0  0  0  0  0
  144.6850   73.7880  220.8240 C   0  0  0  0  0  0  0  0  0  0  0  0
  145.9140   73.1500  220.2760 C   0  0  0  0  0  0  0  0  0  0  0  0
  145.8900   73.0520  218.8500 N   0  0  0  0  0  0  0  0  0  0  0  0
  144.5850   73.0150  218.2620 C   0  0  0  0  0  0  0  0  0  0  0  0
  143.5270   72.3830  219.1390 C   0  0  0  0  0  0  0  0  0  0  0  0
  141.8060   72.4920  221.9030 N   0  0  0  0  0  0  0  0  0  0  0  0
  141.0020   71.5190  224.7590 C   0  0  0  0  0  0  0  0  0  0  0  0
  139.2381   67.7899  228.2153 H   0  0  0  0  0  0  0  0  0  0  0  0
  140.7561   69.6259  228.9418 H   0  0  0  0  0  0  0  0  0  0  0  0
  141.5487   71.3226  227.3328 H   0  0  0  0  0  0  0  0  0  0  0  0
  138.5420   67.7080  225.8295 H   0  0  0  0  0  0  0  0  0  0  0  0
  139.9671   68.7938  223.3075 H   0  0  0  0  0  0  0  0  0  0  0  0
  138.2276   68.9492  223.8460 H   0  0  0  0  0  0  0  0  0  0  0  0
  139.0875   70.6027  222.1189 H   0  0  0  0  0  0  0  0  0  0  0  0
  138.2195   71.2287  223.5937 H   0  0  0  0  0  0  0  0  0  0  0  0
  139.1610   75.9830  220.2360 H   0  0  0  0  0  0  0  0  0  0  0  0
  138.0941   77.0121  222.2400 H   0  0  0  0  0  0  0  0  0  0  0  0
  139.2684   76.1566  223.2744 H   0  0  0  0  0  0  0  0  0  0  0  0
  140.3856   78.0669  221.2177 H   0  0  0  0  0  0  0  0  0  0  0  0
  138.3286   79.1631  222.2195 H   0  0  0  0  0  0  0  0  0  0  0  0
  139.1768   79.1103  223.7940 H   0  0  0  0  0  0  0  0  0  0  0  0
  139.9025   80.5806  221.2584 H   0  0  0  0  0  0  0  0  0  0  0  0
  139.8345   81.1798  222.9513 H   0  0  0  0  0  0  0  0  0  0  0  0
  141.9740   79.6957  221.5066 H   0  0  0  0  0  0  0  0  0  0  0  0
  142.0648   80.9674  222.8025 H   0  0  0  0  0  0  0  0  0  0  0  0
  142.9219   78.8870  223.6910 H   0  0  0  0  0  0  0  0  0  0  0  0
  141.3340   79.2548  224.4587 H   0  0  0  0  0  0  0  0  0  0  0  0
  142.0469   77.1208  222.4318 H   0  0  0  0  0  0  0  0  0  0  0  0
  141.0675   76.9862  223.9169 H   0  0  0  0  0  0  0  0  0  0  0  0
  144.6919   74.8524  220.5465 H   0  0  0  0  0  0  0  0  0  0  0  0
  144.7026   73.6411  221.9140 H   0  0  0  0  0  0  0  0  0  0  0  0
  146.7861   73.7506  220.5738 H   0  0  0  0  0  0  0  0  0  0  0  0
  145.9695   72.1286  220.6806 H   0  0  0  0  0  0  0  0  0  0  0  0
  146.3900   73.8670  218.4080 H   0  0  0  0  0  0  0  0  0  0  0  0
  144.2773   74.0475  218.0400 H   0  0  0  0  0  0  0  0  0  0  0  0
  144.6625   72.3899  217.3602 H   0  0  0  0  0  0  0  0  0  0  0  0
  142.5544   72.3827  218.6251 H   0  0  0  0  0  0  0  0  0  0  0  0
  143.7708   71.3366  219.3750 H   0  0  0  0  0  0  0  0  0  0  0  0
  142.0508   71.2923  224.5169 H   0  0  0  0  0  0  0  0  0  0  0  0
  140.9034   72.4832  225.2791 H   0  0  0  0  0  0  0  0  0  0  0  0
  1  2  2  0
  2  3  1  0
  3  4  2  0
  4  5  1  0
  5  6  2  0
  5  7  1  0
  7  8  1  0
  8  9  1  0
  9 10  1  0
 10 11  2  0
 11 12  1  0
 12 13  1  0
 13 14  1  0
 14 15  1  0
 15 16  1  0
 16 17  1  0
 17 18  1  0
 18 19  1  0
 19 20  1  0
 12 21  2  0
 21 22  1  0
 22 23  1  0
 23 24  1  0
 24 25  1  0
 25 26  1  0
 26 27  1  0
 27 28  1  0
 22 29  2  0
  9 30  1  0
  6  1  1  0
 29 10  1  0
 30  4  1  0
 20 15  1  0
 28 23  1  0
  1 31  1  0
  2 32  1  0
  3 33  1  0
  6 34  1  0
  7 35  1  0
  7 36  1  0
  8 37  1  0
  8 38  1  0
 13 39  1  0
 14 40  1  0
 14 41  1  0
 15 42  1  0
 16 43  1  0
 16 44  1  0
 17 45  1  0
 17 46  1  0
 18 47  1  0
 18 48  1  0
 19 49  1  0
 19 50  1  0
 20 51  1  0
 20 52  1  0
 24 53  1  0
 24 54  1  0
 25 55  1  0
 25 56  1  0
 26 57  1  0
 27 58  1  0
 27 59  1  0
 28 60  1  0
 28 61  1  0
 30 62  1  0
 30 63  1  0
M  END
>  <smiles>  (34) 
c1ccc2c(c1)CCN(c1nc(NCC3CCCCC3)nc(N3CCNCC3)n1)C2

>  <score_type>  (34) 
oracle

>  <origin>  (34) 
autodockgpu

>  <m_score__min__energy>  (34) 
-9.9000000000000004

>  <m_primary>  (34) 
energy

>  <rmsd>  (34) 
3.896843239238467

>  <m_score__min__rmsd>  (34) 
3.896843239238467

>  <meeko>  (34) 
{"free_energy": -9.64, "intermolecular_energy": -11.13, "internal_energy": -0.93, "cluster_size": 39, "cluster_id": 1, "rank_in_cluster": 24}

>  <energy>  (34) 
-9.55

>  <cluster_rmsd>  (34) 
0.62

>  <cluster>  (34) 
1

$$$$

     RDKit          3D

 63 67  0  0  0  0  0  0  0  0999 V2000
  139.4830   80.8990  223.1820 C   0  0  0  0  0  0  0  0  0  0  0  0
  140.8400   80.6450  223.1820 C   0  0  0  0  0  0  0  0  0  0  0  0
  141.3330   79.3570  223.0280 C   0  0  0  0  0  0  0  0  0  0  0  0
  140.4750   78.2790  222.8670 C   0  0  0  0  0  0  0  0  0  0  0  0
  139.1160   78.5350  222.8670 C   0  0  0  0  0  0  0  0  0  0  0  0
  138.6360   79.8210  223.0220 C   0  0  0  0  0  0  0  0  0  0  0  0
  138.1960   77.4100  222.6980 C   0  0  0  0  0  0  0  0  0  0  0  0
  138.7510   76.3010  221.8480 C   0  0  0  0  0  0  0  0  0  0  0  0
  140.1270   75.9790  222.1690 N   0  0  0  0  0  0  0  0  0  0  0  0
  140.6120   74.6530  221.9560 C   0  0  0  0  0  0  0  0  0  0  0  0
  139.9260   73.5580  222.3380 N   0  0  0  0  0  0  0  0  0  0  0  0
  140.3610   72.2980  222.1480 C   0  0  0  0  0  0  0  0  0  0  0  0
  139.6100   71.1580  222.5650 N   0  0  0  0  0  0  0  0  0  0  0  0
  138.6680   71.3010  223.6450 C   0  0  0  0  0  0  0  0  0  0  0  0
  139.3090   70.7310  224.8950 C   0  0  0  0  0  0  0  0  0  0  0  0
  139.5820   69.2540  224.7020 C   0  0  0  0  0  0  0  0  0  0  0  0
  139.8830   68.6490  226.0350 C   0  0  0  0  0  0  0  0  0  0  0  0
  140.6710   69.6190  226.8610 C   0  0  0  0  0  0  0  0  0  0  0  0
  141.4720   70.5910  226.0040 C   0  0  0  0  0  0  0  0  0  0  0  0
  140.5360   71.5120  225.2400 C   0  0  0  0  0  0  0  0  0  0  0  0
  141.5640   72.1520  221.5330 N   0  0  0  0  0  0  0  0  0  0  0  0
  142.2950   73.2100  221.1280 C   0  0  0  0  0  0  0  0  0  0  0  0
  143.5560   73.0800  220.4820 N   0  0  0  0  0  0  0  0  0  0  0  0
  144.6650   73.9250  220.8450 C   0  0  0  0  0  0  0  0  0  0  0  0
  145.9850   73.3970  220.3980 C   0  0  0  0  0  0  0  0  0  0  0  0
  145.9940   73.0540  219.0100 N   0  0  0  0  0  0  0  0  0  0  0  0
  144.7180   72.7180  218.4540 C   0  0  0  0  0  0  0  0  0  0  0  0
  143.7570   72.0920  219.4410 C   0  0  0  0  0  0  0  0  0  0  0  0
  141.7950   74.4390  221.3520 N   0  0  0  0  0  0  0  0  0  0  0  0
  141.0640   76.9480  222.7090 C   0  0  0  0  0  0  0  0  0  0  0  0
  139.0923   81.9199  223.3047 H   0  0  0  0  0  0  0  0  0  0  0  0
  141.5446   81.4804  223.3066 H   0  0  0  0  0  0  0  0  0  0  0  0
  142.4200   79.1884  223.0337 H   0  0  0  0  0  0  0  0  0  0  0  0
  137.5492   79.9905  223.0178 H   0  0  0  0  0  0  0  0  0  0  0  0
  137.9598   77.0016  223.6917 H   0  0  0  0  0  0  0  0  0  0  0  0
  137.3049   77.7968  222.1820 H   0  0  0  0  0  0  0  0  0  0  0  0
  138.1357   75.4017  221.9988 H   0  0  0  0  0  0  0  0  0  0  0  0
  138.7272   76.6428  220.8027 H   0  0  0  0  0  0  0  0  0  0  0  0
  139.7870   70.2660  222.0600 H   0  0  0  0  0  0  0  0  0  0  0  0
  138.4312   72.3644  223.7971 H   0  0  0  0  0  0  0  0  0  0  0  0
  137.7338   70.7682  223.4141 H   0  0  0  0  0  0  0  0  0  0  0  0
  138.6232   70.8222  225.7502 H   0  0  0  0  0  0  0  0  0  0  0  0
  138.6977   68.7673  224.2648 H   0  0  0  0  0  0  0  0  0  0  0  0
  140.4363   69.1143  224.0232 H   0  0  0  0  0  0  0  0  0  0  0  0
  138.9407   68.4107  226.5500 H   0  0  0  0  0  0  0  0  0  0  0  0
  140.4689   67.7287  225.8945 H   0  0  0  0  0  0  0  0  0  0  0  0
  139.9760   70.1931  227.4914 H   0  0  0  0  0  0  0  0  0  0  0  0
  141.3826   69.0421  227.4699 H   0  0  0  0  0  0  0  0  0  0  0  0
  142.1253   71.1935  226.6522 H   0  0  0  0  0  0  0  0  0  0  0  0
  142.0786   70.0200  225.2857 H   0  0  0  0  0  0  0  0  0  0  0  0
  140.2665   72.3752  225.8663 H   0  0  0  0  0  0  0  0  0  0  0  0
  141.0237   71.8851  224.3274 H   0  0  0  0  0  0  0  0  0  0  0  0
  144.5130   74.9143  220.3888 H   0  0  0  0  0  0  0  0  0  0  0  0
  144.6902   73.9721  221.9437 H   0  0  0  0  0  0  0  0  0  0  0  0
  146.7516   74.1654  220.5768 H   0  0  0  0  0  0  0  0  0  0  0  0
  146.1908   72.4808  220.9709 H   0  0  0  0  0  0  0  0  0  0  0  0
  146.3690   73.8480  218.4280 H   0  0  0  0  0  0  0  0  0  0  0  0
  144.2595   73.6378  218.0620 H   0  0  0  0  0  0  0  0  0  0  0  0
  144.9018   71.9668  217.6718 H   0  0  0  0  0  0  0  0  0  0  0  0
  142.8023   71.8560  218.9482 H   0  0  0  0  0  0  0  0  0  0  0  0
  144.1539   71.1508  219.8491 H   0  0  0  0  0  0  0  0  0  0  0  0
  141.4058   76.5957  223.6934 H   0  0  0  0  0  0  0  0  0  0  0  0
  141.8968   77.0367  221.9959 H   0  0  0  0  0  0  0  0  0  0  0  0
  1  2  2  0
  2  3  1  0
  3  4  2  0
  4  5  1  0
  5  6  2  0
  5  7  1  0
  7  8  1  0
  8  9  1  0
  9 10  1  0
 10 11  2  0
 11 12  1  0
 12 13  1  0
 13 14  1  0
 14 15  1  0
 15 16  1  0
 16 17  1  0
 17 18  1  0
 18 19  1  0
 19 20  1  0
 12 21  2  0
 21 22  1  0
 22 23  1  0
 23 24  1  0
 24 25  1  0
 25 26  1  0
 26 27  1  0
 27 28  1  0
 22 29  2  0
  9 30  1  0
  6  1  1  0
 29 10  1  0
 30  4  1  0
 20 15  1  0
 28 23  1  0
  1 31  1  0
  2 32  1  0
  3 33  1  0
  6 34  1  0
  7 35  1  0
  7 36  1  0
  8 37  1  0
  8 38  1  0
 13 39  1  0
 14 40  1  0
 14 41  1  0
 15 42  1  0
 16 43  1  0
 16 44  1  0
 17 45  1  0
 17 46  1  0
 18 47  1  0
 18 48  1  0
 19 49  1  0
 19 50  1  0
 20 51  1  0
 20 52  1  0
 24 53  1  0
 24 54  1  0
 25 55  1  0
 25 56  1  0
 26 57  1  0
 27 58  1  0
 27 59  1  0
 28 60  1  0
 28 61  1  0
 30 62  1  0
 30 63  1  0
M  END
>  <smiles>  (35) 
c1ccc2c(c1)CCN(c1nc(NCC3CCCCC3)nc(N3CCNCC3)n1)C2

>  <score_type>  (35) 
oracle

>  <origin>  (35) 
autodockgpu

>  <m_score__min__energy>  (35) 
-9.9000000000000004

>  <m_primary>  (35) 
energy

>  <rmsd>  (35) 
9.754199042489692

>  <m_score__min__rmsd>  (35) 
9.754199042489692

>  <meeko>  (35) 
{"free_energy": -9.43, "intermolecular_energy": -10.92, "internal_energy": -1.02, "cluster_size": 11, "cluster_id": 2, "rank_in_cluster": 10}

>  <energy>  (35) 
-9.53

>  <cluster_rmsd>  (35) 
0.66

>  <cluster>  (35) 
1

$$$$

     RDKit          3D

 63 67  0  0  0  0  0  0  0  0999 V2000
  140.6960   81.8370  222.4300 C   0  0  0  0  0  0  0  0  0  0  0  0
  141.9670   81.3180  222.5810 C   0  0  0  0  0  0  0  0  0  0  0  0
  142.1900   79.9480  222.5870 C   0  0  0  0  0  0  0  0  0  0  0  0
  141.1410   79.0530  222.4400 C   0  0  0  0  0  0  0  0  0  0  0  0
  139.8690   79.5740  222.2890 C   0  0  0  0  0  0  0  0  0  0  0  0
  139.6570   80.9400  222.2850 C   0  0  0  0  0  0  0  0  0  0  0  0
  138.7500   78.6450  222.1330 C   0  0  0  0  0  0  0  0  0  0  0  0
  139.1240   77.3650  221.4380 C   0  0  0  0  0  0  0  0  0  0  0  0
  140.3750   76.8090  221.9160 N   0  0  0  0  0  0  0  0  0  0  0  0
  140.5870   75.3980  221.8650 C   0  0  0  0  0  0  0  0  0  0  0  0
  139.6820   74.5100  222.3220 N   0  0  0  0  0  0  0  0  0  0  0  0
  139.8590   73.1760  222.2850 C   0  0  0  0  0  0  0  0  0  0  0  0
  138.8800   72.2600  222.7790 N   0  0  0  0  0  0  0  0  0  0  0  0
  139.2660   70.8960  223.0280 C   0  0  0  0  0  0  0  0  0  0  0  0
  139.4810   70.7430  224.5210 C   0  0  0  0  0  0  0  0  0  0  0  0
  139.5430   69.2730  224.8800 C   0  0  0  0  0  0  0  0  0  0  0  0
  139.4080   69.1410  226.3630 C   0  0  0  0  0  0  0  0  0  0  0  0
  140.1230   70.2730  227.0360 C   0  0  0  0  0  0  0  0  0  0  0  0
  141.2580   70.8280  226.1840 C   0  0  0  0  0  0  0  0  0  0  0  0
  140.7010   71.4980  224.9400 C   0  0  0  0  0  0  0  0  0  0  0  0
  141.0260   72.7260  221.7520 N   0  0  0  0  0  0  0  0  0  0  0  0
  141.9670   73.5680  221.2790 C   0  0  0  0  0  0  0  0  0  0  0  0
  143.1940   73.1190  220.7160 N   0  0  0  0  0  0  0  0  0  0  0  0
  143.4230   71.7200  220.4560 C   0  0  0  0  0  0  0  0  0  0  0  0
  144.5420   71.4680  219.5050 C   0  0  0  0  0  0  0  0  0  0  0  0
  145.7390   72.1560  219.8750 N   0  0  0  0  0  0  0  0  0  0  0  0
  145.5490   73.3380  220.6590 C   0  0  0  0  0  0  0  0  0  0  0  0
  144.2470   74.0600  220.3870 C   0  0  0  0  0  0  0  0  0  0  0  0
  141.7200   74.8880  221.3490 N   0  0  0  0  0  0  0  0  0  0  0  0
  141.4500   77.6220  222.4550 C   0  0  0  0  0  0  0  0  0  0  0  0
  140.5187   82.9226  222.4255 H   0  0  0  0  0  0  0  0  0  0  0  0
  142.8191   82.0037  222.6988 H   0  0  0  0  0  0  0  0  0  0  0  0
  143.2143   79.5665  222.7102 H   0  0  0  0  0  0  0  0  0  0  0  0
  138.6328   81.3224  222.1630 H   0  0  0  0  0  0  0  0  0  0  0  0
  138.3611   78.3978  223.1318 H   0  0  0  0  0  0  0  0  0  0  0  0
  137.9991   79.1463  221.5046 H   0  0  0  0  0  0  0  0  0  0  0  0
  138.3251   76.6278  221.6061 H   0  0  0  0  0  0  0  0  0  0  0  0
  139.2509   77.5940  220.3696 H   0  0  0  0  0  0  0  0  0  0  0  0
  137.9220   72.6340  222.9340 H   0  0  0  0  0  0  0  0  0  0  0  0
  138.4707   70.2143  222.6922 H   0  0  0  0  0  0  0  0  0  0  0  0
  140.1868   70.6498  222.4789 H   0  0  0  0  0  0  0  0  0  0  0  0
  138.6340   71.1747  225.0744 H   0  0  0  0  0  0  0  0  0  0  0  0
  138.7223   68.7348  224.3833 H   0  0  0  0  0  0  0  0  0  0  0  0
  140.5003   68.8441  224.5490 H   0  0  0  0  0  0  0  0  0  0  0  0
  138.3430   69.1661  226.6373 H   0  0  0  0  0  0  0  0  0  0  0  0
  139.8493   68.1867  226.6863 H   0  0  0  0  0  0  0  0  0  0  0  0
  139.4016   71.0797  227.2332 H   0  0  0  0  0  0  0  0  0  0  0  0
  140.5599   69.8878  227.9691 H   0  0  0  0  0  0  0  0  0  0  0  0
  141.8255   71.5654  226.7706 H   0  0  0  0  0  0  0  0  0  0  0  0
  141.9172   70.0009  225.8815 H   0  0  0  0  0  0  0  0  0  0  0  0
  140.4363   72.5419  225.1640 H   0  0  0  0  0  0  0  0  0  0  0  0
  141.4499   71.4950  224.1343 H   0  0  0  0  0  0  0  0  0  0  0  0
  143.6570   71.2225  221.4087 H   0  0  0  0  0  0  0  0  0  0  0  0
  142.5081   71.3230  219.9919 H   0  0  0  0  0  0  0  0  0  0  0  0
  144.7487   70.3878  219.4814 H   0  0  0  0  0  0  0  0  0  0  0  0
  144.2327   71.8417  218.5177 H   0  0  0  0  0  0  0  0  0  0  0  0
  146.3760   71.5300  220.4350 H   0  0  0  0  0  0  0  0  0  0  0  0
  145.5708   73.0544  221.7216 H   0  0  0  0  0  0  0  0  0  0  0  0
  146.3581   74.0316  220.3864 H   0  0  0  0  0  0  0  0  0  0  0  0
  144.1685   74.9578  221.0176 H   0  0  0  0  0  0  0  0  0  0  0  0
  144.1800   74.3910  219.3401 H   0  0  0  0  0  0  0  0  0  0  0  0
  141.6368   77.3136  223.4942 H   0  0  0  0  0  0  0  0  0  0  0  0
  142.3336   77.4672  221.8184 H   0  0  0  0  0  0  0  0  0  0  0  0
  1  2  2  0
  2  3  1  0
  3  4  2  0
  4  5  1  0
  5  6  2  0
  5  7  1  0
  7  8  1  0
  8  9  1  0
  9 10  1  0
 10 11  2  0
 11 12  1  0
 12 13  1  0
 13 14  1  0
 14 15  1  0
 15 16  1  0
 16 17  1  0
 17 18  1  0
 18 19  1  0
 19 20  1  0
 12 21  2  0
 21 22  1  0
 22 23  1  0
 23 24  1  0
 24 25  1  0
 25 26  1  0
 26 27  1  0
 27 28  1  0
 22 29  2  0
  9 30  1  0
  6  1  1  0
 29 10  1  0
 30  4  1  0
 20 15  1  0
 28 23  1  0
  1 31  1  0
  2 32  1  0
  3 33  1  0
  6 34  1  0
  7 35  1  0
  7 36  1  0
  8 37  1  0
  8 38  1  0
 13 39  1  0
 14 40  1  0
 14 41  1  0
 15 42  1  0
 16 43  1  0
 16 44  1  0
 17 45  1  0
 17 46  1  0
 18 47  1  0
 18 48  1  0
 19 49  1  0
 19 50  1  0
 20 51  1  0
 20 52  1  0
 24 53  1  0
 24 54  1  0
 25 55  1  0
 25 56  1  0
 26 57  1  0
 27 58  1  0
 27 59  1  0
 28 60  1  0
 28 61  1  0
 30 62  1  0
 30 63  1  0
M  END
>  <smiles>  (36) 
c1ccc2c(c1)CCN(c1nc(NCC3CCCCC3)nc(N3CCNCC3)n1)C2

>  <score_type>  (36) 
oracle

>  <origin>  (36) 
autodockgpu

>  <m_score__min__energy>  (36) 
-9.9000000000000004

>  <m_primary>  (36) 
energy

>  <rmsd>  (36) 
10.693211352899038

>  <m_score__min__rmsd>  (36) 
10.693211352899038

>  <meeko>  (36) 
{"free_energy": -9.32, "intermolecular_energy": -10.81, "internal_energy": -0.98, "cluster_size": 11, "cluster_id": 2, "rank_in_cluster": 11}

>  <energy>  (36) 
-9.52

>  <cluster_rmsd>  (36) 
0.68

>  <cluster>  (36) 
1

$$$$

     RDKit          3D

 63 67  0  0  0  0  0  0  0  0999 V2000
  139.1830   68.3570  226.6750 C   0  0  0  0  0  0  0  0  0  0  0  0
  140.0600   69.2740  227.2180 C   0  0  0  0  0  0  0  0  0  0  0  0
  140.6000   70.2970  226.4500 C   0  0  0  0  0  0  0  0  0  0  0  0
  140.2750   70.4310  225.1080 C   0  0  0  0  0  0  0  0  0  0  0  0
  139.3960   69.5110  224.5670 C   0  0  0  0  0  0  0  0  0  0  0  0
  138.8640   68.4960  225.3390 C   0  0  0  0  0  0  0  0  0  0  0  0
  139.0410   69.6370  223.1520 C   0  0  0  0  0  0  0  0  0  0  0  0
  139.0430   71.0560  222.6560 C   0  0  0  0  0  0  0  0  0  0  0  0
  140.1930   71.8120  223.1120 N   0  0  0  0  0  0  0  0  0  0  0  0
  140.6940   72.8860  222.3170 C   0  0  0  0  0  0  0  0  0  0  0  0
  140.0790   74.0830  222.2420 N   0  0  0  0  0  0  0  0  0  0  0  0
  140.5320   75.1110  221.5000 C   0  0  0  0  0  0  0  0  0  0  0  0
  139.8570   76.3680  221.4410 N   0  0  0  0  0  0  0  0  0  0  0  0
  139.8380   77.2050  222.6130 C   0  0  0  0  0  0  0  0  0  0  0  0
  140.9570   78.2200  222.4730 C   0  0  0  0  0  0  0  0  0  0  0  0
  140.4860   79.3850  221.6280 C   0  0  0  0  0  0  0  0  0  0  0  0
  141.6810   80.1860  221.2190 C   0  0  0  0  0  0  0  0  0  0  0  0
  142.6730   80.2180  222.3410 C   0  0  0  0  0  0  0  0  0  0  0  0
  142.0120   80.0380  223.7030 C   0  0  0  0  0  0  0  0  0  0  0  0
  141.4390   78.6360  223.8260 C   0  0  0  0  0  0  0  0  0  0  0  0
  141.6750   74.9030  220.7950 N   0  0  0  0  0  0  0  0  0  0  0  0
  142.3330   73.7260  220.8320 C   0  0  0  0  0  0  0  0  0  0  0  0
  143.5320   73.4860  220.1040 N   0  0  0  0  0  0  0  0  0  0  0  0
  144.8200   73.7860  220.6770 C   0  0  0  0  0  0  0  0  0  0  0  0
  145.9500   73.1040  219.9860 C   0  0  0  0  0  0  0  0  0  0  0  0
  145.9250   73.3020  218.5700 N   0  0  0  0  0  0  0  0  0  0  0  0
  144.6340   73.5720  218.0130 C   0  0  0  0  0  0  0  0  0  0  0  0
  143.4880   72.9320  218.7650 C   0  0  0  0  0  0  0  0  0  0  0  0
  141.8210   72.7440  221.5960 N   0  0  0  0  0  0  0  0  0  0  0  0
  140.8810   71.5340  224.3600 C   0  0  0  0  0  0  0  0  0  0  0  0
  138.7547   67.5467  227.2832 H   0  0  0  0  0  0  0  0  0  0  0  0
  140.3365   69.1929  228.2796 H   0  0  0  0  0  0  0  0  0  0  0  0
  141.2961   71.0121  226.9127 H   0  0  0  0  0  0  0  0  0  0  0  0
  138.1682   67.7801  224.8771 H   0  0  0  0  0  0  0  0  0  0  0  0
  139.7657   69.0601  222.5588 H   0  0  0  0  0  0  0  0  0  0  0  0
  138.0144   69.2577  223.0416 H   0  0  0  0  0  0  0  0  0  0  0  0
  139.0452   71.0432  221.5561 H   0  0  0  0  0  0  0  0  0  0  0  0
  138.1447   71.5473  223.0582 H   0  0  0  0  0  0  0  0  0  0  0  0
  139.4040   76.6190  220.5390 H   0  0  0  0  0  0  0  0  0  0  0  0
  138.8702   77.7223  222.6883 H   0  0  0  0  0  0  0  0  0  0  0  0
  139.9780   76.5999  223.5209 H   0  0  0  0  0  0  0  0  0  0  0  0
  141.8167   77.7719  221.9532 H   0  0  0  0  0  0  0  0  0  0  0  0
  139.9670   79.0093  220.7339 H   0  0  0  0  0  0  0  0  0  0  0  0
  139.7900   80.0124  222.2042 H   0  0  0  0  0  0  0  0  0  0  0  0
  142.1444   79.7260  220.3337 H   0  0  0  0  0  0  0  0  0  0  0  0
  141.3677   81.2128  220.9792 H   0  0  0  0  0  0  0  0  0  0  0  0
  143.4021   79.4079  222.1918 H   0  0  0  0  0  0  0  0  0  0  0  0
  143.1605   81.2040  222.3312 H   0  0  0  0  0  0  0  0  0  0  0  0
  142.7601   80.1956  224.4938 H   0  0  0  0  0  0  0  0  0  0  0  0
  141.1971   80.7696  223.8064 H   0  0  0  0  0  0  0  0  0  0  0  0
  142.2180   77.9425  224.1755 H   0  0  0  0  0  0  0  0  0  0  0  0
  140.6115   78.6209  224.5506 H   0  0  0  0  0  0  0  0  0  0  0  0
  144.9819   74.8726  220.6205 H   0  0  0  0  0  0  0  0  0  0  0  0
  144.8063   73.4202  221.7143 H   0  0  0  0  0  0  0  0  0  0  0  0
  146.8966   73.5012  220.3812 H   0  0  0  0  0  0  0  0  0  0  0  0
  145.8546   72.0245  220.1745 H   0  0  0  0  0  0  0  0  0  0  0  0
  146.5410   74.1110  218.2920 H   0  0  0  0  0  0  0  0  0  0  0  0
  144.4800   74.6612  218.0113 H   0  0  0  0  0  0  0  0  0  0  0  0
  144.6293   73.1393  217.0017 H   0  0  0  0  0  0  0  0  0  0  0  0
  142.5302   73.1751  218.2817 H   0  0  0  0  0  0  0  0  0  0  0  0
  143.5765   71.8356  218.7787 H   0  0  0  0  0  0  0  0  0  0  0  0
  141.9259   71.2739  224.1350 H   0  0  0  0  0  0  0  0  0  0  0  0
  140.8108   72.4363  224.9852 H   0  0  0  0  0  0  0  0  0  0  0  0
  1  2  2  0
  2  3  1  0
  3  4  2  0
  4  5  1  0
  5  6  2  0
  5  7  1  0
  7  8  1  0
  8  9  1  0
  9 10  1  0
 10 11  2  0
 11 12  1  0
 12 13  1  0
 13 14  1  0
 14 15  1  0
 15 16  1  0
 16 17  1  0
 17 18  1  0
 18 19  1  0
 19 20  1  0
 12 21  2  0
 21 22  1  0
 22 23  1  0
 23 24  1  0
 24 25  1  0
 25 26  1  0
 26 27  1  0
 27 28  1  0
 22 29  2  0
  9 30  1  0
  6  1  1  0
 29 10  1  0
 30  4  1  0
 20 15  1  0
 28 23  1  0
  1 31  1  0
  2 32  1  0
  3 33  1  0
  6 34  1  0
  7 35  1  0
  7 36  1  0
  8 37  1  0
  8 38  1  0
 13 39  1  0
 14 40  1  0
 14 41  1  0
 15 42  1  0
 16 43  1  0
 16 44  1  0
 17 45  1  0
 17 46  1  0
 18 47  1  0
 18 48  1  0
 19 49  1  0
 19 50  1  0
 20 51  1  0
 20 52  1  0
 24 53  1  0
 24 54  1  0
 25 55  1  0
 25 56  1  0
 26 57  1  0
 27 58  1  0
 27 59  1  0
 28 60  1  0
 28 61  1  0
 30 62  1  0
 30 63  1  0
M  END
>  <smiles>  (37) 
c1ccc2c(c1)CCN(c1nc(NCC3CCCCC3)nc(N3CCNCC3)n1)C2

>  <score_type>  (37) 
oracle

>  <origin>  (37) 
autodockgpu

>  <m_score__min__energy>  (37) 
-9.9000000000000004

>  <m_primary>  (37) 
energy

>  <rmsd>  (37) 
3.8659244964956874

>  <m_score__min__rmsd>  (37) 
3.8659244964956874

>  <meeko>  (37) 
{"free_energy": -9.67, "intermolecular_energy": -11.16, "internal_energy": -0.89, "cluster_size": 39, "cluster_id": 1, "rank_in_cluster": 22}

>  <energy>  (37) 
-9.49

>  <cluster_rmsd>  (37) 
0.66

>  <cluster>  (37) 
1

$$$$

     RDKit          3D

 63 67  0  0  0  0  0  0  0  0999 V2000
  139.6800   68.6370  227.6570 C   0  0  0  0  0  0  0  0  0  0  0  0
  140.5310   69.6700  227.9980 C   0  0  0  0  0  0  0  0  0  0  0  0
  140.9580   70.5930  227.0550 C   0  0  0  0  0  0  0  0  0  0  0  0
  140.5430   70.5100  225.7340 C   0  0  0  0  0  0  0  0  0  0  0  0
  139.6910   69.4750  225.3940 C   0  0  0  0  0  0  0  0  0  0  0  0
  139.2720   68.5600  226.3400 C   0  0  0  0  0  0  0  0  0  0  0  0
  139.2430   69.3710  224.0050 C   0  0  0  0  0  0  0  0  0  0  0  0
  139.1270   70.6990  223.3100 C   0  0  0  0  0  0  0  0  0  0  0  0
  140.2540   71.5730  223.5700 N   0  0  0  0  0  0  0  0  0  0  0  0
  140.6380   72.5420  222.5940 C   0  0  0  0  0  0  0  0  0  0  0  0
  139.8620   73.5950  222.2710 N   0  0  0  0  0  0  0  0  0  0  0  0
  140.2020   74.5220  221.3560 C   0  0  0  0  0  0  0  0  0  0  0  0
  139.3560   75.6270  221.0350 N   0  0  0  0  0  0  0  0  0  0  0  0
  139.9580   76.8640  220.6090 C   0  0  0  0  0  0  0  0  0  0  0  0
  140.5290   77.5460  221.8380 C   0  0  0  0  0  0  0  0  0  0  0  0
  141.4690   78.6550  221.4150 C   0  0  0  0  0  0  0  0  0  0  0  0
  142.2720   79.0740  222.6050 C   0  0  0  0  0  0  0  0  0  0  0  0
  141.4150   79.0270  223.8320 C   0  0  0  0  0  0  0  0  0  0  0  0
  139.9360   79.2110  223.5120 C   0  0  0  0  0  0  0  0  0  0  0  0
  139.4190   78.0240  222.7180 C   0  0  0  0  0  0  0  0  0  0  0  0
  141.4020   74.3610  220.7370 N   0  0  0  0  0  0  0  0  0  0  0  0
  142.2200   73.3270  221.0200 C   0  0  0  0  0  0  0  0  0  0  0  0
  143.4790   73.1400  220.3850 N   0  0  0  0  0  0  0  0  0  0  0  0
  144.6450   73.8650  220.8240 C   0  0  0  0  0  0  0  0  0  0  0  0
  145.9270   73.2640  220.3610 C   0  0  0  0  0  0  0  0  0  0  0  0
  145.9380   73.0180  218.9520 N   0  0  0  0  0  0  0  0  0  0  0  0
  144.6510   72.8270  218.3550 C   0  0  0  0  0  0  0  0  0  0  0  0
  143.6230   72.2130  219.2800 C   0  0  0  0  0  0  0  0  0  0  0  0
  141.8130   72.4400  221.9460 N   0  0  0  0  0  0  0  0  0  0  0  0
  141.0340   71.5190  224.7930 C   0  0  0  0  0  0  0  0  0  0  0  0
  139.3408   67.9049  228.4046 H   0  0  0  0  0  0  0  0  0  0  0  0
  140.8770   69.7625  229.0381 H   0  0  0  0  0  0  0  0  0  0  0  0
  141.6364   71.4036  227.3594 H   0  0  0  0  0  0  0  0  0  0  0  0
  138.5950   67.7480  226.0361 H   0  0  0  0  0  0  0  0  0  0  0  0
  139.9641   68.7509  223.4523 H   0  0  0  0  0  0  0  0  0  0  0  0
  138.2369   68.9267  224.0225 H   0  0  0  0  0  0  0  0  0  0  0  0
  139.0621   70.5232  222.2261 H   0  0  0  0  0  0  0  0  0  0  0  0
  138.2267   71.1972  223.6990 H   0  0  0  0  0  0  0  0  0  0  0  0
  138.3310   75.4780  221.1280 H   0  0  0  0  0  0  0  0  0  0  0  0
  140.7617   76.6602  219.8862 H   0  0  0  0  0  0  0  0  0  0  0  0
  139.2111   77.5086  220.1225 H   0  0  0  0  0  0  0  0  0  0  0  0
  141.1190   76.8320  222.4314 H   0  0  0  0  0  0  0  0  0  0  0  0
  142.1405   78.2909  220.6234 H   0  0  0  0  0  0  0  0  0  0  0  0
  140.8947   79.5093  221.0272 H   0  0  0  0  0  0  0  0  0  0  0  0
  143.1260   78.3919  222.7288 H   0  0  0  0  0  0  0  0  0  0  0  0
  142.6387   80.1002  222.4550 H   0  0  0  0  0  0  0  0  0  0  0  0
  141.5522   78.0519  224.3222 H   0  0  0  0  0  0  0  0  0  0  0  0
  141.7225   79.8538  224.4892 H   0  0  0  0  0  0  0  0  0  0  0  0
  139.3689   79.2948  224.4508 H   0  0  0  0  0  0  0  0  0  0  0  0
  139.8095   80.1253  222.9136 H   0  0  0  0  0  0  0  0  0  0  0  0
  139.1119   77.2202  223.4033 H   0  0  0  0  0  0  0  0  0  0  0  0
  138.5473   78.3156  222.1137 H   0  0  0  0  0  0  0  0  0  0  0  0
  144.5823   74.8927  220.4369 H   0  0  0  0  0  0  0  0  0  0  0  0
  144.6510   73.8333  221.9235 H   0  0  0  0  0  0  0  0  0  0  0  0
  146.7486   73.9534  220.6054 H   0  0  0  0  0  0  0  0  0  0  0  0
  146.0465   72.2965  220.8707 H   0  0  0  0  0  0  0  0  0  0  0  0
  146.3880   73.8170  218.4330 H   0  0  0  0  0  0  0  0  0  0  0  0
  144.2756   73.8065  218.0238 H   0  0  0  0  0  0  0  0  0  0  0  0
  144.7900   72.1204  217.5235 H   0  0  0  0  0  0  0  0  0  0  0  0
  142.6633   72.0890  218.7570 H   0  0  0  0  0  0  0  0  0  0  0  0
  143.9353   71.2168  219.6266 H   0  0  0  0  0  0  0  0  0  0  0  0
  142.0766   71.2814  224.5349 H   0  0  0  0  0  0  0  0  0  0  0  0
  140.9491   72.4996  225.2841 H   0  0  0  0  0  0  0  0  0  0  0  0
  1  2  2  0
  2  3  1  0
  3  4  2  0
  4  5  1  0
  5  6  2  0
  5  7  1  0
  7  8  1  0
  8  9  1  0
  9 10  1  0
 10 11  2  0
 11 12  1  0
 12 13  1  0
 13 14  1  0
 14 15  1  0
 15 16  1  0
 16 17  1  0
 17 18  1  0
 18 19  1  0
 19 20  1  0
 12 21  2  0
 21 22  1  0
 22 23  1  0
 23 24  1  0
 24 25  1  0
 25 26  1  0
 26 27  1  0
 27 28  1  0
 22 29  2  0
  9 30  1  0
  6  1  1  0
 29 10  1  0
 30  4  1  0
 20 15  1  0
 28 23  1  0
  1 31  1  0
  2 32  1  0
  3 33  1  0
  6 34  1  0
  7 35  1  0
  7 36  1  0
  8 37  1  0
  8 38  1  0
 13 39  1  0
 14 40  1  0
 14 41  1  0
 15 42  1  0
 16 43  1  0
 16 44  1  0
 17 45  1  0
 17 46  1  0
 18 47  1  0
 18 48  1  0
 19 49  1  0
 19 50  1  0
 20 51  1  0
 20 52  1  0
 24 53  1  0
 24 54  1  0
 25 55  1  0
 25 56  1  0
 26 57  1  0
 27 58  1  0
 27 59  1  0
 28 60  1  0
 28 61  1  0
 30 62  1  0
 30 63  1  0
M  END
>  <smiles>  (38) 
c1ccc2c(c1)CCN(c1nc(NCC3CCCCC3)nc(N3CCNCC3)n1)C2

>  <score_type>  (38) 
oracle

>  <origin>  (38) 
autodockgpu

>  <m_score__min__energy>  (38) 
-9.9000000000000004

>  <m_primary>  (38) 
energy

>  <rmsd>  (38) 
3.9152028677207933

>  <m_score__min__rmsd>  (38) 
3.9152028677207933

>  <meeko>  (38) 
{"free_energy": -9.7, "intermolecular_energy": -11.19, "internal_energy": -0.99, "cluster_size": 39, "cluster_id": 1, "rank_in_cluster": 18}

>  <energy>  (38) 
-9.45

>  <cluster_rmsd>  (38) 
0.43

>  <cluster>  (38) 
1

$$$$

     RDKit          3D

 63 67  0  0  0  0  0  0  0  0999 V2000
  139.6790   68.1470  227.4100 C   0  0  0  0  0  0  0  0  0  0  0  0
  140.5700   69.1260  227.8000 C   0  0  0  0  0  0  0  0  0  0  0  0
  141.0070   70.0990  226.9120 C   0  0  0  0  0  0  0  0  0  0  0  0
  140.5600   70.1200  225.5990 C   0  0  0  0  0  0  0  0  0  0  0  0
  139.6670   69.1380  225.2100 C   0  0  0  0  0  0  0  0  0  0  0  0
  139.2390   68.1740  226.1020 C   0  0  0  0  0  0  0  0  0  0  0  0
  139.1840   69.1440  223.8290 C   0  0  0  0  0  0  0  0  0  0  0  0
  139.0960   70.5190  223.2290 C   0  0  0  0  0  0  0  0  0  0  0  0
  140.2570   71.3370  223.5200 N   0  0  0  0  0  0  0  0  0  0  0  0
  140.6510   72.3580  222.6030 C   0  0  0  0  0  0  0  0  0  0  0  0
  139.8840   73.4350  222.3410 N   0  0  0  0  0  0  0  0  0  0  0  0
  140.2330   74.4110  221.4820 C   0  0  0  0  0  0  0  0  0  0  0  0
  139.3970   75.5400  221.2250 N   0  0  0  0  0  0  0  0  0  0  0  0
  139.1370   76.4710  222.2920 C   0  0  0  0  0  0  0  0  0  0  0  0
  140.0270   77.6800  222.0760 C   0  0  0  0  0  0  0  0  0  0  0  0
  141.1580   77.6690  223.0830 C   0  0  0  0  0  0  0  0  0  0  0  0
  141.8060   79.0160  223.0830 C   0  0  0  0  0  0  0  0  0  0  0  0
  141.8370   79.5590  221.6870 C   0  0  0  0  0  0  0  0  0  0  0  0
  141.8320   78.4550  220.6360 C   0  0  0  0  0  0  0  0  0  0  0  0
  140.5060   77.7140  220.6600 C   0  0  0  0  0  0  0  0  0  0  0  0
  141.4330   74.2770  220.8560 N   0  0  0  0  0  0  0  0  0  0  0  0
  142.2420   73.2210  221.0790 C   0  0  0  0  0  0  0  0  0  0  0  0
  143.5010   73.0610  220.4360 N   0  0  0  0  0  0  0  0  0  0  0  0
  144.6400   73.8530  220.8290 C   0  0  0  0  0  0  0  0  0  0  0  0
  145.9410   73.2880  220.3740 C   0  0  0  0  0  0  0  0  0  0  0  0
  145.9460   72.9830  218.9780 N   0  0  0  0  0  0  0  0  0  0  0  0
  144.6620   72.7120  218.4060 C   0  0  0  0  0  0  0  0  0  0  0  0
  143.6720   72.0950  219.3700 C   0  0  0  0  0  0  0  0  0  0  0  0
  141.8260   72.2850  221.9510 N   0  0  0  0  0  0  0  0  0  0  0  0
  141.0620   71.1750  224.7170 C   0  0  0  0  0  0  0  0  0  0  0  0
  139.3331   67.3756  228.1137 H   0  0  0  0  0  0  0  0  0  0  0  0
  140.9413   69.1354  228.8354 H   0  0  0  0  0  0  0  0  0  0  0  0
  141.7184   70.8649  227.2545 H   0  0  0  0  0  0  0  0  0  0  0  0
  138.5282   67.4070  225.7607 H   0  0  0  0  0  0  0  0  0  0  0  0
  139.8713   68.5410  223.2175 H   0  0  0  0  0  0  0  0  0  0  0  0
  138.1644   68.7315  223.8418 H   0  0  0  0  0  0  0  0  0  0  0  0
  139.0009   70.4202  222.1376 H   0  0  0  0  0  0  0  0  0  0  0  0
  138.2215   71.0174  223.6727 H   0  0  0  0  0  0  0  0  0  0  0  0
  139.0120   75.6320  220.2640 H   0  0  0  0  0  0  0  0  0  0  0  0
  138.0802   76.7757  222.2741 H   0  0  0  0  0  0  0  0  0  0  0  0
  139.3466   76.0076  223.2674 H   0  0  0  0  0  0  0  0  0  0  0  0
  139.4576   78.6065  222.2415 H   0  0  0  0  0  0  0  0  0  0  0  0
  140.7608   77.4483  224.0848 H   0  0  0  0  0  0  0  0  0  0  0  0
  141.8939   76.8967  222.8148 H   0  0  0  0  0  0  0  0  0  0  0  0
  141.2329   79.6979  223.7284 H   0  0  0  0  0  0  0  0  0  0  0  0
  142.8344   78.9266  223.4630 H   0  0  0  0  0  0  0  0  0  0  0  0
  140.9528   80.1955  221.5354 H   0  0  0  0  0  0  0  0  0  0  0  0
  142.7692   80.1311  221.5693 H   0  0  0  0  0  0  0  0  0  0  0  0
  141.9818   78.8997  219.6411 H   0  0  0  0  0  0  0  0  0  0  0  0
  142.6435   77.7459  220.8564 H   0  0  0  0  0  0  0  0  0  0  0  0
  139.7729   78.2383  220.0295 H   0  0  0  0  0  0  0  0  0  0  0  0
  140.6297   76.6923  220.2716 H   0  0  0  0  0  0  0  0  0  0  0  0
  144.5286   74.8600  220.4005 H   0  0  0  0  0  0  0  0  0  0  0  0
  144.6602   73.8680  221.9287 H   0  0  0  0  0  0  0  0  0  0  0  0
  146.7349   74.0216  220.5778 H   0  0  0  0  0  0  0  0  0  0  0  0
  146.1080   72.3491  220.9222 H   0  0  0  0  0  0  0  0  0  0  0  0
  146.3550   73.7780  218.4200 H   0  0  0  0  0  0  0  0  0  0  0  0
  144.2411   73.6594  218.0384 H   0  0  0  0  0  0  0  0  0  0  0  0
  144.8219   71.9772  217.6032 H   0  0  0  0  0  0  0  0  0  0  0  0
  142.7125   71.9080  218.8656 H   0  0  0  0  0  0  0  0  0  0  0  0
  144.0310   71.1288  219.7543 H   0  0  0  0  0  0  0  0  0  0  0  0
  142.0902   70.9235  224.4178 H   0  0  0  0  0  0  0  0  0  0  0  0
  141.0199   72.1218  225.2754 H   0  0  0  0  0  0  0  0  0  0  0  0
  1  2  2  0
  2  3  1  0
  3  4  2  0
  4  5  1  0
  5  6  2  0
  5  7  1  0
  7  8  1  0
  8  9  1  0
  9 10  1  0
 10 11  2  0
 11 12  1  0
 12 13  1  0
 13 14  1  0
 14 15  1  0
 15 16  1  0
 16 17  1  0
 17 18  1  0
 18 19  1  0
 19 20  1  0
 12 21  2  0
 21 22  1  0
 22 23  1  0
 23 24  1  0
 24 25  1  0
 25 26  1  0
 26 27  1  0
 27 28  1  0
 22 29  2  0
  9 30  1  0
  6  1  1  0
 29 10  1  0
 30  4  1  0
 20 15  1  0
 28 23  1  0
  1 31  1  0
  2 32  1  0
  3 33  1  0
  6 34  1  0
  7 35  1  0
  7 36  1  0
  8 37  1  0
  8 38  1  0
 13 39  1  0
 14 40  1  0
 14 41  1  0
 15 42  1  0
 16 43  1  0
 16 44  1  0
 17 45  1  0
 17 46  1  0
 18 47  1  0
 18 48  1  0
 19 49  1  0
 19 50  1  0
 20 51  1  0
 20 52  1  0
 24 53  1  0
 24 54  1  0
 25 55  1  0
 25 56  1  0
 26 57  1  0
 27 58  1  0
 27 59  1  0
 28 60  1  0
 28 61  1  0
 30 62  1  0
 30 63  1  0
M  END
>  <smiles>  (39) 
c1ccc2c(c1)CCN(c1nc(NCC3CCCCC3)nc(N3CCNCC3)n1)C2

>  <score_type>  (39) 
oracle

>  <origin>  (39) 
autodockgpu

>  <m_score__min__energy>  (39) 
-9.9000000000000004

>  <m_primary>  (39) 
energy

>  <rmsd>  (39) 
3.903597033064855

>  <m_score__min__rmsd>  (39) 
3.903597033064855

>  <meeko>  (39) 
{"free_energy": -9.56, "intermolecular_energy": -11.05, "internal_energy": -1.08, "cluster_size": 39, "cluster_id": 1, "rank_in_cluster": 30}

>  <energy>  (39) 
-9.38

>  <cluster_rmsd>  (39) 
0.47

>  <cluster>  (39) 
1

$$$$

     RDKit          3D

 63 67  0  0  0  0  0  0  0  0999 V2000
  139.5930   81.0330  223.3270 C   0  0  0  0  0  0  0  0  0  0  0  0
  140.9420   80.7400  223.3450 C   0  0  0  0  0  0  0  0  0  0  0  0
  141.4020   79.4480  223.1330 C   0  0  0  0  0  0  0  0  0  0  0  0
  140.5190   78.4050  222.8960 C   0  0  0  0  0  0  0  0  0  0  0  0
  139.1690   78.7000  222.8780 C   0  0  0  0  0  0  0  0  0  0  0  0
  138.7200   79.9900  223.0900 C   0  0  0  0  0  0  0  0  0  0  0  0
  138.2220   77.6120  222.6300 C   0  0  0  0  0  0  0  0  0  0  0  0
  138.7670   76.5340  221.7340 C   0  0  0  0  0  0  0  0  0  0  0  0
  140.1250   76.1560  222.0700 N   0  0  0  0  0  0  0  0  0  0  0  0
  140.5780   74.8290  221.7970 C   0  0  0  0  0  0  0  0  0  0  0  0
  139.8570   73.7360  222.1150 N   0  0  0  0  0  0  0  0  0  0  0  0
  140.2620   72.4760  221.8670 C   0  0  0  0  0  0  0  0  0  0  0  0
  139.4750   71.3370  222.2160 N   0  0  0  0  0  0  0  0  0  0  0  0
  138.7870   71.3260  223.4810 C   0  0  0  0  0  0  0  0  0  0  0  0
  139.6390   70.5460  224.4630 C   0  0  0  0  0  0  0  0  0  0  0  0
  140.3590   71.5040  225.3890 C   0  0  0  0  0  0  0  0  0  0  0  0
  141.4370   70.7530  226.1030 C   0  0  0  0  0  0  0  0  0  0  0  0
  140.9600   69.3690  226.4190 C   0  0  0  0  0  0  0  0  0  0  0  0
  139.4420   69.2930  226.5430 C   0  0  0  0  0  0  0  0  0  0  0  0
  138.7930   69.5530  225.1940 C   0  0  0  0  0  0  0  0  0  0  0  0
  141.4710   72.3270  221.2640 N   0  0  0  0  0  0  0  0  0  0  0  0
  142.2360   73.3850  220.9240 C   0  0  0  0  0  0  0  0  0  0  0  0
  143.5030   73.2530  220.2900 N   0  0  0  0  0  0  0  0  0  0  0  0
  144.6630   73.9380  220.8030 C   0  0  0  0  0  0  0  0  0  0  0  0
  145.9500   73.3790  220.3050 C   0  0  0  0  0  0  0  0  0  0  0  0
  145.9780   73.2530  218.8820 N   0  0  0  0  0  0  0  0  0  0  0  0
  144.6990   73.1120  218.2550 C   0  0  0  0  0  0  0  0  0  0  0  0
  143.6610   72.4220  219.1130 C   0  0  0  0  0  0  0  0  0  0  0  0
  141.7650   74.6140  221.2020 N   0  0  0  0  0  0  0  0  0  0  0  0
  141.0750   77.0680  222.6810 C   0  0  0  0  0  0  0  0  0  0  0  0
  139.2281   82.0570  223.4949 H   0  0  0  0  0  0  0  0  0  0  0  0
  141.6665   81.5465  223.5311 H   0  0  0  0  0  0  0  0  0  0  0  0
  142.4835   79.2480  223.1532 H   0  0  0  0  0  0  0  0  0  0  0  0
  137.6387   80.1909  223.0693 H   0  0  0  0  0  0  0  0  0  0  0  0
  137.9520   77.1588  223.5953 H   0  0  0  0  0  0  0  0  0  0  0  0
  137.3533   78.0502  222.1169 H   0  0  0  0  0  0  0  0  0  0  0  0
  138.1235   75.6461  221.8213 H   0  0  0  0  0  0  0  0  0  0  0  0
  138.7786   76.9312  220.7083 H   0  0  0  0  0  0  0  0  0  0  0  0
  139.4400   70.5590  221.5270 H   0  0  0  0  0  0  0  0  0  0  0  0
  138.6486   72.3561  223.8411 H   0  0  0  0  0  0  0  0  0  0  0  0
  137.7960   70.8601  223.3763 H   0  0  0  0  0  0  0  0  0  0  0  0
  140.4111   69.9743  223.9273 H   0  0  0  0  0  0  0  0  0  0  0  0
  140.8024   72.3231  224.8038 H   0  0  0  0  0  0  0  0  0  0  0  0
  139.6513   71.9297  226.1156 H   0  0  0  0  0  0  0  0  0  0  0  0
  142.3292   70.6954  225.4621 H   0  0  0  0  0  0  0  0  0  0  0  0
  141.6885   71.2752  227.0379 H   0  0  0  0  0  0  0  0  0  0  0  0
  141.2834   68.6914  225.6151 H   0  0  0  0  0  0  0  0  0  0  0  0
  141.3913   69.0781  227.3882 H   0  0  0  0  0  0  0  0  0  0  0  0
  139.1558   68.2917  226.8972 H   0  0  0  0  0  0  0  0  0  0  0  0
  139.1012   70.0555  227.2588 H   0  0  0  0  0  0  0  0  0  0  0  0
  138.7351   68.6164  224.6200 H   0  0  0  0  0  0  0  0  0  0  0  0
  137.7728   69.9420  225.3273 H   0  0  0  0  0  0  0  0  0  0  0  0
  144.6036   74.9951  220.5046 H   0  0  0  0  0  0  0  0  0  0  0  0
  144.6565   73.8126  221.8958 H   0  0  0  0  0  0  0  0  0  0  0  0
  146.7679   74.0454  220.6162 H   0  0  0  0  0  0  0  0  0  0  0  0
  146.0642   72.3717  220.7319 H   0  0  0  0  0  0  0  0  0  0  0  0
  146.4330   74.0940  218.4370 H   0  0  0  0  0  0  0  0  0  0  0  0
  144.3261   74.1155  218.0023 H   0  0  0  0  0  0  0  0  0  0  0  0
  144.8493   72.4779  217.3688 H   0  0  0  0  0  0  0  0  0  0  0  0
  142.7076   72.3420  218.5702 H   0  0  0  0  0  0  0  0  0  0  0  0
  143.9705   71.4003  219.3783 H   0  0  0  0  0  0  0  0  0  0  0  0
  141.3837   76.6551  223.6527 H   0  0  0  0  0  0  0  0  0  0  0  0
  141.9267   77.1699  221.9923 H   0  0  0  0  0  0  0  0  0  0  0  0
  1  2  2  0
  2  3  1  0
  3  4  2  0
  4  5  1  0
  5  6  2  0
  5  7  1  0
  7  8  1  0
  8  9  1  0
  9 10  1  0
 10 11  2  0
 11 12  1  0
 12 13  1  0
 13 14  1  0
 14 15  1  0
 15 16  1  0
 16 17  1  0
 17 18  1  0
 18 19  1  0
 19 20  1  0
 12 21  2  0
 21 22  1  0
 22 23  1  0
 23 24  1  0
 24 25  1  0
 25 26  1  0
 26 27  1  0
 27 28  1  0
 22 29  2  0
  9 30  1  0
  6  1  1  0
 29 10  1  0
 30  4  1  0
 20 15  1  0
 28 23  1  0
  1 31  1  0
  2 32  1  0
  3 33  1  0
  6 34  1  0
  7 35  1  0
  7 36  1  0
  8 37  1  0
  8 38  1  0
 13 39  1  0
 14 40  1  0
 14 41  1  0
 15 42  1  0
 16 43  1  0
 16 44  1  0
 17 45  1  0
 17 46  1  0
 18 47  1  0
 18 48  1  0
 19 49  1  0
 19 50  1  0
 20 51  1  0
 20 52  1  0
 24 53  1  0
 24 54  1  0
 25 55  1  0
 25 56  1  0
 26 57  1  0
 27 58  1  0
 27 59  1  0
 28 60  1  0
 28 61  1  0
 30 62  1  0
 30 63  1  0
M  END
>  <smiles>  (40) 
c1ccc2c(c1)CCN(c1nc(NCC3CCCCC3)nc(N3CCNCC3)n1)C2

>  <score_type>  (40) 
oracle

>  <origin>  (40) 
autodockgpu

>  <m_score__min__energy>  (40) 
-9.9000000000000004

>  <m_primary>  (40) 
energy

>  <rmsd>  (40) 
9.877676096513648

>  <m_score__min__rmsd>  (40) 
9.877676096513648

>  <meeko>  (40) 
{"free_energy": -9.54, "intermolecular_energy": -11.03, "internal_energy": -0.96, "cluster_size": 11, "cluster_id": 2, "rank_in_cluster": 5}

>  <energy>  (40) 
-9.65

>  <cluster_rmsd>  (40) 
0.0

>  <cluster>  (40) 
2

$$$$

     RDKit          3D

 63 67  0  0  0  0  0  0  0  0999 V2000
  139.6060   68.4970  227.5480 C   0  0  0  0  0  0  0  0  0  0  0  0
  140.4350   69.5280  227.9420 C   0  0  0  0  0  0  0  0  0  0  0  0
  140.8780   70.4820  227.0370 C   0  0  0  0  0  0  0  0  0  0  0  0
  140.5010   70.4310  225.7030 C   0  0  0  0  0  0  0  0  0  0  0  0
  139.6710   69.3980  225.3100 C   0  0  0  0  0  0  0  0  0  0  0  0
  139.2360   68.4520  226.2190 C   0  0  0  0  0  0  0  0  0  0  0  0
  139.2630   69.3280  223.9070 C   0  0  0  0  0  0  0  0  0  0  0  0
  139.1500   70.6740  223.2460 C   0  0  0  0  0  0  0  0  0  0  0  0
  140.2600   71.5520  223.5620 N   0  0  0  0  0  0  0  0  0  0  0  0
  140.6600   72.5520  222.6250 C   0  0  0  0  0  0  0  0  0  0  0  0
  139.9170   73.6460  222.3690 N   0  0  0  0  0  0  0  0  0  0  0  0
  140.2730   74.6030  221.4900 C   0  0  0  0  0  0  0  0  0  0  0  0
  139.4620   75.7520  221.2410 N   0  0  0  0  0  0  0  0  0  0  0  0
  139.1280   76.6210  222.3390 C   0  0  0  0  0  0  0  0  0  0  0  0
  140.0650   77.8130  222.2860 C   0  0  0  0  0  0  0  0  0  0  0  0
  139.3300   79.0600  222.7280 C   0  0  0  0  0  0  0  0  0  0  0  0
  140.1460   80.2530  222.3440 C   0  0  0  0  0  0  0  0  0  0  0  0
  141.6010   79.9440  222.5210 C   0  0  0  0  0  0  0  0  0  0  0  0
  141.8410   78.8690  223.5750 C   0  0  0  0  0  0  0  0  0  0  0  0
  141.2880   77.5360  223.1000 C   0  0  0  0  0  0  0  0  0  0  0  0
  141.4520   74.4290  220.8380 N   0  0  0  0  0  0  0  0  0  0  0  0
  142.2370   73.3540  221.0540 C   0  0  0  0  0  0  0  0  0  0  0  0
  143.4760   73.1520  220.3840 N   0  0  0  0  0  0  0  0  0  0  0  0
  144.6840   73.7790  220.8540 C   0  0  0  0  0  0  0  0  0  0  0  0
  145.9260   73.1510  220.3230 C   0  0  0  0  0  0  0  0  0  0  0  0
  145.9030   73.0140  218.9000 N   0  0  0  0  0  0  0  0  0  0  0  0
  144.5990   72.9360  218.3140 C   0  0  0  0  0  0  0  0  0  0  0  0
  143.5540   72.3060  219.2090 C   0  0  0  0  0  0  0  0  0  0  0  0
  141.8160   72.4390  221.9460 N   0  0  0  0  0  0  0  0  0  0  0  0
  141.0060   71.4720  224.8050 C   0  0  0  0  0  0  0  0  0  0  0  0
  139.2540   67.7408  228.2651 H   0  0  0  0  0  0  0  0  0  0  0  0
  140.7505   69.5946  228.9937 H   0  0  0  0  0  0  0  0  0  0  0  0
  141.5382   71.2911  227.3827 H   0  0  0  0  0  0  0  0  0  0  0  0
  138.5772   67.6415  225.8740 H   0  0  0  0  0  0  0  0  0  0  0  0
  140.0067   68.7320  223.3577 H   0  0  0  0  0  0  0  0  0  0  0  0
  138.2623   68.8718  223.8840 H   0  0  0  0  0  0  0  0  0  0  0  0
  139.1167   70.5283  222.1562 H   0  0  0  0  0  0  0  0  0  0  0  0
  138.2334   71.1513  223.6229 H   0  0  0  0  0  0  0  0  0  0  0  0
  139.1490   75.9040  220.2610 H   0  0  0  0  0  0  0  0  0  0  0  0
  138.0856   76.9595  222.2451 H   0  0  0  0  0  0  0  0  0  0  0  0
  139.2343   76.0900  223.2965 H   0  0  0  0  0  0  0  0  0  0  0  0
  140.4028   77.9872  221.2537 H   0  0  0  0  0  0  0  0  0  0  0  0
  138.3485   79.1071  222.2336 H   0  0  0  0  0  0  0  0  0  0  0  0
  139.1783   79.0419  223.8173 H   0  0  0  0  0  0  0  0  0  0  0  0
  139.9509   80.5067  221.2916 H   0  0  0  0  0  0  0  0  0  0  0  0
  139.8726   81.1044  222.9845 H   0  0  0  0  0  0  0  0  0  0  0  0
  142.0076   79.5945  221.5605 H   0  0  0  0  0  0  0  0  0  0  0  0
  142.1013   80.8636  222.8588 H   0  0  0  0  0  0  0  0  0  0  0  0
  142.9218   78.7709  223.7544 H   0  0  0  0  0  0  0  0  0  0  0  0
  141.3307   79.1583  224.5055 H   0  0  0  0  0  0  0  0  0  0  0  0
  142.0379   77.0177  222.4844 H   0  0  0  0  0  0  0  0  0  0  0  0
  141.0410   76.8944  223.9587 H   0  0  0  0  0  0  0  0  0  0  0  0
  144.6697   74.8353  220.5475 H   0  0  0  0  0  0  0  0  0  0  0  0
  144.7046   73.6615  221.9475 H   0  0  0  0  0  0  0  0  0  0  0  0
  146.7859   73.7769  220.6036 H   0  0  0  0  0  0  0  0  0  0  0  0
  146.0027   72.1425  220.7555 H   0  0  0  0  0  0  0  0  0  0  0  0
  146.3860   73.8270  218.4350 H   0  0  0  0  0  0  0  0  0  0  0  0
  144.2708   73.9560  218.0654 H   0  0  0  0  0  0  0  0  0  0  0  0
  144.6883   72.2896  217.4284 H   0  0  0  0  0  0  0  0  0  0  0  0
  142.5813   72.2721  218.6965 H   0  0  0  0  0  0  0  0  0  0  0  0
  143.8183   71.2713  219.4727 H   0  0  0  0  0  0  0  0  0  0  0  0
  142.0582   71.2537  224.5701 H   0  0  0  0  0  0  0  0  0  0  0  0
  140.8953   72.4372  225.3209 H   0  0  0  0  0  0  0  0  0  0  0  0
  1  2  2  0
  2  3  1  0
  3  4  2  0
  4  5  1  0
  5  6  2  0
  5  7  1  0
  7  8  1  0
  8  9  1  0
  9 10  1  0
 10 11  2  0
 11 12  1  0
 12 13  1  0
 13 14  1  0
 14 15  1  0
 15 16  1  0
 16 17  1  0
 17 18  1  0
 18 19  1  0
 19 20  1  0
 12 21  2  0
 21 22  1  0
 22 23  1  0
 23 24  1  0
 24 25  1  0
 25 26  1  0
 26 27  1  0
 27 28  1  0
 22 29  2  0
  9 30  1  0
  6  1  1  0
 29 10  1  0
 30  4  1  0
 20 15  1  0
 28 23  1  0
  1 31  1  0
  2 32  1  0
  3 33  1  0
  6 34  1  0
  7 35  1  0
  7 36  1  0
  8 37  1  0
  8 38  1  0
 13 39  1  0
 14 40  1  0
 14 41  1  0
 15 42  1  0
 16 43  1  0
 16 44  1  0
 17 45  1  0
 17 46  1  0
 18 47  1  0
 18 48  1  0
 19 49  1  0
 19 50  1  0
 20 51  1  0
 20 52  1  0
 24 53  1  0
 24 54  1  0
 25 55  1  0
 25 56  1  0
 26 57  1  0
 27 58  1  0
 27 59  1  0
 28 60  1  0
 28 61  1  0
 30 62  1  0
 30 63  1  0
M  END
>  <smiles>  (41) 
c1ccc2c(c1)CCN(c1nc(NCC3CCCCC3)nc(N3CCNCC3)n1)C2

>  <score_type>  (41) 
oracle

>  <origin>  (41) 
autodockgpu

>  <m_score__min__energy>  (41) 
-9.9000000000000004

>  <m_primary>  (41) 
energy

>  <rmsd>  (41) 
3.90386162538864

>  <m_score__min__rmsd>  (41) 
3.90386162538864

>  <meeko>  (41) 
{"free_energy": -9.64, "intermolecular_energy": -11.13, "internal_energy": -0.94, "cluster_size": 39, "cluster_id": 1, "rank_in_cluster": 25}

>  <energy>  (41) 
-9.56

>  <cluster_rmsd>  (41) 
1.34

>  <cluster>  (41) 
2

$$$$

     RDKit          3D

 63 67  0  0  0  0  0  0  0  0999 V2000
  139.6160   81.0110  223.3760 C   0  0  0  0  0  0  0  0  0  0  0  0
  140.9650   80.7150  223.3820 C   0  0  0  0  0  0  0  0  0  0  0  0
  141.4190   79.4230  223.1580 C   0  0  0  0  0  0  0  0  0  0  0  0
  140.5310   78.3840  222.9200 C   0  0  0  0  0  0  0  0  0  0  0  0
  139.1820   78.6830  222.9140 C   0  0  0  0  0  0  0  0  0  0  0  0
  138.7390   79.9730  223.1380 C   0  0  0  0  0  0  0  0  0  0  0  0
  138.2300   77.6000  222.6650 C   0  0  0  0  0  0  0  0  0  0  0  0
  138.7650   76.5270  221.7580 C   0  0  0  0  0  0  0  0  0  0  0  0
  140.1250   76.1420  222.0810 N   0  0  0  0  0  0  0  0  0  0  0  0
  140.5710   74.8160  221.7960 C   0  0  0  0  0  0  0  0  0  0  0  0
  139.8420   73.7230  222.0950 N   0  0  0  0  0  0  0  0  0  0  0  0
  140.2410   72.4640  221.8350 C   0  0  0  0  0  0  0  0  0  0  0  0
  139.4440   71.3260  222.1650 N   0  0  0  0  0  0  0  0  0  0  0  0
  138.7910   71.2790  223.4480 C   0  0  0  0  0  0  0  0  0  0  0  0
  139.6970   70.5200  224.3980 C   0  0  0  0  0  0  0  0  0  0  0  0
  140.3030   71.4790  225.4020 C   0  0  0  0  0  0  0  0  0  0  0  0
  141.4350   70.7890  226.0920 C   0  0  0  0  0  0  0  0  0  0  0  0
  141.0900   69.3470  226.3060 C   0  0  0  0  0  0  0  0  0  0  0  0
  139.5860   69.1180  226.3860 C   0  0  0  0  0  0  0  0  0  0  0  0
  138.9390   69.4030  225.0410 C   0  0  0  0  0  0  0  0  0  0  0  0
  141.4530   72.3150  221.2390 N   0  0  0  0  0  0  0  0  0  0  0  0
  142.2260   73.3710  220.9170 C   0  0  0  0  0  0  0  0  0  0  0  0
  143.4970   73.2390  220.2920 N   0  0  0  0  0  0  0  0  0  0  0  0
  144.6480   73.9480  220.7930 C   0  0  0  0  0  0  0  0  0  0  0  0
  145.9440   73.3920  220.3130 C   0  0  0  0  0  0  0  0  0  0  0  0
  145.9780   73.2350  218.8930 N   0  0  0  0  0  0  0  0  0  0  0  0
  144.7030   73.0670  218.2640 C   0  0  0  0  0  0  0  0  0  0  0  0
  143.6690   72.3850  219.1330 C   0  0  0  0  0  0  0  0  0  0  0  0
  141.7610   74.6000  221.2060 N   0  0  0  0  0  0  0  0  0  0  0  0
  141.0820   77.0460  222.6910 C   0  0  0  0  0  0  0  0  0  0  0  0
  139.2549   82.0347  223.5541 H   0  0  0  0  0  0  0  0  0  0  0  0
  141.6931   81.5184  223.5678 H   0  0  0  0  0  0  0  0  0  0  0  0
  142.4999   79.2194  223.1693 H   0  0  0  0  0  0  0  0  0  0  0  0
  137.6582   80.1774  223.1262 H   0  0  0  0  0  0  0  0  0  0  0  0
  137.9652   77.1409  223.6289 H   0  0  0  0  0  0  0  0  0  0  0  0
  137.3592   78.0446  222.1611 H   0  0  0  0  0  0  0  0  0  0  0  0
  138.1194   75.6406  221.8440 H   0  0  0  0  0  0  0  0  0  0  0  0
  138.7704   76.9316  220.7351 H   0  0  0  0  0  0  0  0  0  0  0  0
  139.3750   70.5750  221.4480 H   0  0  0  0  0  0  0  0  0  0  0  0
  138.6265   72.3001  223.8225 H   0  0  0  0  0  0  0  0  0  0  0  0
  137.8142   70.7800  223.3654 H   0  0  0  0  0  0  0  0  0  0  0  0
  140.5311   70.0623  223.8459 H   0  0  0  0  0  0  0  0  0  0  0  0
  140.6753   72.3742  224.8823 H   0  0  0  0  0  0  0  0  0  0  0  0
  139.5439   71.7855  226.1367 H   0  0  0  0  0  0  0  0  0  0  0  0
  142.3402   70.8605  225.4711 H   0  0  0  0  0  0  0  0  0  0  0  0
  141.6165   71.2691  227.0649 H   0  0  0  0  0  0  0  0  0  0  0  0
  141.4933   68.7587  225.4686 H   0  0  0  0  0  0  0  0  0  0  0  0
  141.5294   69.0346  227.2648 H   0  0  0  0  0  0  0  0  0  0  0  0
  139.3922   68.0726  226.6681 H   0  0  0  0  0  0  0  0  0  0  0  0
  139.1595   69.7959  227.1400 H   0  0  0  0  0  0  0  0  0  0  0  0
  138.9841   68.5058  224.4062 H   0  0  0  0  0  0  0  0  0  0  0  0
  137.8829   69.6808  225.1733 H   0  0  0  0  0  0  0  0  0  0  0  0
  144.5783   74.9972  220.4700 H   0  0  0  0  0  0  0  0  0  0  0  0
  144.6386   73.8470  221.8883 H   0  0  0  0  0  0  0  0  0  0  0  0
  146.7533   74.0742  220.6123 H   0  0  0  0  0  0  0  0  0  0  0  0
  146.0685   72.3961  220.7632 H   0  0  0  0  0  0  0  0  0  0  0  0
  146.4260   74.0710  218.4320 H   0  0  0  0  0  0  0  0  0  0  0  0
  144.3207   74.0608  217.9880 H   0  0  0  0  0  0  0  0  0  0  0  0
  144.8634   72.4155  217.3923 H   0  0  0  0  0  0  0  0  0  0  0  0
  142.7187   72.2834  218.5884 H   0  0  0  0  0  0  0  0  0  0  0  0
  143.9887   71.3728  219.4215 H   0  0  0  0  0  0  0  0  0  0  0  0
  141.3968   76.6252  223.6573 H   0  0  0  0  0  0  0  0  0  0  0  0
  141.9289   77.1503  221.9968 H   0  0  0  0  0  0  0  0  0  0  0  0
  1  2  2  0
  2  3  1  0
  3  4  2  0
  4  5  1  0
  5  6  2  0
  5  7  1  0
  7  8  1  0
  8  9  1  0
  9 10  1  0
 10 11  2  0
 11 12  1  0
 12 13  1  0
 13 14  1  0
 14 15  1  0
 15 16  1  0
 16 17  1  0
 17 18  1  0
 18 19  1  0
 19 20  1  0
 12 21  2  0
 21 22  1  0
 22 23  1  0
 23 24  1  0
 24 25  1  0
 25 26  1  0
 26 27  1  0
 27 28  1  0
 22 29  2  0
  9 30  1  0
  6  1  1  0
 29 10  1  0
 30  4  1  0
 20 15  1  0
 28 23  1  0
  1 31  1  0
  2 32  1  0
  3 33  1  0
  6 34  1  0
  7 35  1  0
  7 36  1  0
  8 37  1  0
  8 38  1  0
 13 39  1  0
 14 40  1  0
 14 41  1  0
 15 42  1  0
 16 43  1  0
 16 44  1  0
 17 45  1  0
 17 46  1  0
 18 47  1  0
 18 48  1  0
 19 49  1  0
 19 50  1  0
 20 51  1  0
 20 52  1  0
 24 53  1  0
 24 54  1  0
 25 55  1  0
 25 56  1  0
 26 57  1  0
 27 58  1  0
 27 59  1  0
 28 60  1  0
 28 61  1  0
 30 62  1  0
 30 63  1  0
M  END
>  <smiles>  (42) 
c1ccc2c(c1)CCN(c1nc(NCC3CCCCC3)nc(N3CCNCC3)n1)C2

>  <score_type>  (42) 
oracle

>  <origin>  (42) 
autodockgpu

>  <m_score__min__energy>  (42) 
-9.9000000000000004

>  <m_primary>  (42) 
energy

>  <rmsd>  (42) 
9.853430507655608

>  <m_score__min__rmsd>  (42) 
9.853430507655608

>  <meeko>  (42) 
{"free_energy": -9.53, "intermolecular_energy": -11.02, "internal_energy": -0.97, "cluster_size": 11, "cluster_id": 2, "rank_in_cluster": 6}

>  <energy>  (42) 
-9.55

>  <cluster_rmsd>  (42) 
1.34

>  <cluster>  (42) 
2

$$$$

     RDKit          3D

 63 67  0  0  0  0  0  0  0  0999 V2000
  139.5610   68.5040  227.4320 C   0  0  0  0  0  0  0  0  0  0  0  0
  140.4090   69.5140  227.8420 C   0  0  0  0  0  0  0  0  0  0  0  0
  140.8640   70.4770  226.9530 C   0  0  0  0  0  0  0  0  0  0  0  0
  140.4820   70.4580  225.6200 C   0  0  0  0  0  0  0  0  0  0  0  0
  139.6330   69.4460  225.2120 C   0  0  0  0  0  0  0  0  0  0  0  0
  139.1850   68.4910  226.1040 C   0  0  0  0  0  0  0  0  0  0  0  0
  139.2180   69.4090  223.8090 C   0  0  0  0  0  0  0  0  0  0  0  0
  139.1260   70.7680  223.1730 C   0  0  0  0  0  0  0  0  0  0  0  0
  140.2520   71.6210  223.5010 N   0  0  0  0  0  0  0  0  0  0  0  0
  140.6650   72.6320  222.5810 C   0  0  0  0  0  0  0  0  0  0  0  0
  139.9420   73.7450  222.3510 N   0  0  0  0  0  0  0  0  0  0  0  0
  140.3110   74.7120  221.4900 C   0  0  0  0  0  0  0  0  0  0  0  0
  139.5210   75.8810  221.2680 N   0  0  0  0  0  0  0  0  0  0  0  0
  139.1150   76.6730  222.4000 C   0  0  0  0  0  0  0  0  0  0  0  0
  139.9750   77.9220  222.4210 C   0  0  0  0  0  0  0  0  0  0  0  0
  139.2260   79.0460  223.1050 C   0  0  0  0  0  0  0  0  0  0  0  0
  139.9310   80.3320  222.8130 C   0  0  0  0  0  0  0  0  0  0  0  0
  141.4110   80.1020  222.7990 C   0  0  0  0  0  0  0  0  0  0  0  0
  141.8210   78.9150  223.6620 C   0  0  0  0  0  0  0  0  0  0  0  0
  141.2920   77.6230  223.0620 C   0  0  0  0  0  0  0  0  0  0  0  0
  141.4830   74.5280  220.8270 N   0  0  0  0  0  0  0  0  0  0  0  0
  142.2480   73.4340  221.0160 C   0  0  0  0  0  0  0  0  0  0  0  0
  143.4780   73.2210  220.3340 N   0  0  0  0  0  0  0  0  0  0  0  0
  144.7110   73.7690  220.8410 C   0  0  0  0  0  0  0  0  0  0  0  0
  145.9260   73.1220  220.2720 C   0  0  0  0  0  0  0  0  0  0  0  0
  145.9000   73.0730  218.8430 N   0  0  0  0  0  0  0  0  0  0  0  0
  144.5960   73.0850  218.2540 C   0  0  0  0  0  0  0  0  0  0  0  0
  143.5230   72.4470  219.1100 C   0  0  0  0  0  0  0  0  0  0  0  0
  141.8150   72.5100  221.8930 N   0  0  0  0  0  0  0  0  0  0  0  0
  141.0010   71.5060  224.7390 C   0  0  0  0  0  0  0  0  0  0  0  0
  139.1995   67.7400  228.1360 H   0  0  0  0  0  0  0  0  0  0  0  0
  140.7297   69.5557  228.8934 H   0  0  0  0  0  0  0  0  0  0  0  0
  141.5387   71.2685  227.3113 H   0  0  0  0  0  0  0  0  0  0  0  0
  138.5106   67.6990  225.7464 H   0  0  0  0  0  0  0  0  0  0  0  0
  139.9488   68.8101  223.2458 H   0  0  0  0  0  0  0  0  0  0  0  0
  138.2092   68.9712  223.7822 H   0  0  0  0  0  0  0  0  0  0  0  0
  139.0868   70.6427  222.0809 H   0  0  0  0  0  0  0  0  0  0  0  0
  138.2189   71.2540  223.5616 H   0  0  0  0  0  0  0  0  0  0  0  0
  139.2750   76.1030  220.2820 H   0  0  0  0  0  0  0  0  0  0  0  0
  138.0548   76.9497  222.3027 H   0  0  0  0  0  0  0  0  0  0  0  0
  139.2394   76.1038  223.3330 H   0  0  0  0  0  0  0  0  0  0  0  0
  140.1891   78.2549  221.3947 H   0  0  0  0  0  0  0  0  0  0  0  0
  138.1958   79.0923  222.7222 H   0  0  0  0  0  0  0  0  0  0  0  0
  139.1937   78.8717  224.1906 H   0  0  0  0  0  0  0  0  0  0  0  0
  139.6101   80.7107  221.8313 H   0  0  0  0  0  0  0  0  0  0  0  0
  139.6833   81.0691  223.5910 H   0  0  0  0  0  0  0  0  0  0  0  0
  141.7296   79.9129  221.7633 H   0  0  0  0  0  0  0  0  0  0  0  0
  141.8946   81.0000  223.2110 H   0  0  0  0  0  0  0  0  0  0  0  0
  142.9186   78.8675  223.7170 H   0  0  0  0  0  0  0  0  0  0  0  0
  141.3999   79.0416  224.6703 H   0  0  0  0  0  0  0  0  0  0  0  0
  141.9977   77.2442  222.3080 H   0  0  0  0  0  0  0  0  0  0  0  0
  141.1741   76.8570  223.8426 H   0  0  0  0  0  0  0  0  0  0  0  0
  144.7414   74.8415  220.5983 H   0  0  0  0  0  0  0  0  0  0  0  0
  144.7247   73.5867  221.9257 H   0  0  0  0  0  0  0  0  0  0  0  0
  146.8113   73.6923  220.5897 H   0  0  0  0  0  0  0  0  0  0  0  0
  145.9587   72.0867  220.6422 H   0  0  0  0  0  0  0  0  0  0  0  0
  146.4180   73.8920  218.4280 H   0  0  0  0  0  0  0  0  0  0  0  0
  144.3115   74.1310  218.0669 H   0  0  0  0  0  0  0  0  0  0  0  0
  144.6602   72.4894  217.3314 H   0  0  0  0  0  0  0  0  0  0  0  0
  142.5508   72.4860  218.5968 H   0  0  0  0  0  0  0  0  0  0  0  0
  143.7431   71.3880  219.3101 H   0  0  0  0  0  0  0  0  0  0  0  0
  142.0485   71.2742  224.4960 H   0  0  0  0  0  0  0  0  0  0  0  0
  140.9086   72.4635  225.2726 H   0  0  0  0  0  0  0  0  0  0  0  0
  1  2  2  0
  2  3  1  0
  3  4  2  0
  4  5  1  0
  5  6  2  0
  5  7  1  0
  7  8  1  0
  8  9  1  0
  9 10  1  0
 10 11  2  0
 11 12  1  0
 12 13  1  0
 13 14  1  0
 14 15  1  0
 15 16  1  0
 16 17  1  0
 17 18  1  0
 18 19  1  0
 19 20  1  0
 12 21  2  0
 21 22  1  0
 22 23  1  0
 23 24  1  0
 24 25  1  0
 25 26  1  0
 26 27  1  0
 27 28  1  0
 22 29  2  0
  9 30  1  0
  6  1  1  0
 29 10  1  0
 30  4  1  0
 20 15  1  0
 28 23  1  0
  1 31  1  0
  2 32  1  0
  3 33  1  0
  6 34  1  0
  7 35  1  0
  7 36  1  0
  8 37  1  0
  8 38  1  0
 13 39  1  0
 14 40  1  0
 14 41  1  0
 15 42  1  0
 16 43  1  0
 16 44  1  0
 17 45  1  0
 17 46  1  0
 18 47  1  0
 18 48  1  0
 19 49  1  0
 19 50  1  0
 20 51  1  0
 20 52  1  0
 24 53  1  0
 24 54  1  0
 25 55  1  0
 25 56  1  0
 26 57  1  0
 27 58  1  0
 27 59  1  0
 28 60  1  0
 28 61  1  0
 30 62  1  0
 30 63  1  0
M  END
>  <smiles>  (43) 
c1ccc2c(c1)CCN(c1nc(NCC3CCCCC3)nc(N3CCNCC3)n1)C2

>  <score_type>  (43) 
oracle

>  <origin>  (43) 
autodockgpu

>  <m_score__min__energy>  (43) 
-9.9000000000000004

>  <m_primary>  (43) 
energy

>  <rmsd>  (43) 
3.8907656879086283

>  <m_score__min__rmsd>  (43) 
3.8907656879086283

>  <meeko>  (43) 
{"free_energy": -9.7, "intermolecular_energy": -11.19, "internal_energy": -0.93, "cluster_size": 39, "cluster_id": 1, "rank_in_cluster": 17}

>  <energy>  (43) 
-9.55

>  <cluster_rmsd>  (43) 
0.48

>  <cluster>  (43) 
2

$$$$

     RDKit          3D

 63 67  0  0  0  0  0  0  0  0999 V2000
  139.5540   68.0660  227.1950 C   0  0  0  0  0  0  0  0  0  0  0  0
  140.4540   69.0130  227.6400 C   0  0  0  0  0  0  0  0  0  0  0  0
  140.9220   70.0140  226.7990 C   0  0  0  0  0  0  0  0  0  0  0  0
  140.4990   70.0940  225.4800 C   0  0  0  0  0  0  0  0  0  0  0  0
  139.5980   69.1440  225.0370 C   0  0  0  0  0  0  0  0  0  0  0  0
  139.1380   68.1520  225.8820 C   0  0  0  0  0  0  0  0  0  0  0  0
  139.1400   69.2130  223.6490 C   0  0  0  0  0  0  0  0  0  0  0  0
  139.0850   70.6140  223.1030 C   0  0  0  0  0  0  0  0  0  0  0  0
  140.2540   71.3990  223.4470 N   0  0  0  0  0  0  0  0  0  0  0  0
  140.6800   72.4500  222.5800 C   0  0  0  0  0  0  0  0  0  0  0  0
  139.9690   73.5800  222.4030 N   0  0  0  0  0  0  0  0  0  0  0  0
  140.3500   74.5850  221.5910 C   0  0  0  0  0  0  0  0  0  0  0  0
  139.5730   75.7710  221.4250 N   0  0  0  0  0  0  0  0  0  0  0  0
  140.1990   76.9430  220.8700 C   0  0  0  0  0  0  0  0  0  0  0  0
  140.7380   77.7680  222.0230 C   0  0  0  0  0  0  0  0  0  0  0  0
  141.7270   78.7890  221.5010 C   0  0  0  0  0  0  0  0  0  0  0  0
  142.4920   79.3430  222.6600 C   0  0  0  0  0  0  0  0  0  0  0  0
  141.5820   79.4790  223.8430 C   0  0  0  0  0  0  0  0  0  0  0  0
  140.1240   79.6540  223.4350 C   0  0  0  0  0  0  0  0  0  0  0  0
  139.6070   78.3840  222.7800 C   0  0  0  0  0  0  0  0  0  0  0  0
  141.5230   74.4220  220.9240 N   0  0  0  0  0  0  0  0  0  0  0  0
  142.2760   73.3130  221.0610 C   0  0  0  0  0  0  0  0  0  0  0  0
  143.5070   73.1220  220.3730 N   0  0  0  0  0  0  0  0  0  0  0  0
  144.7220   73.7400  220.8430 C   0  0  0  0  0  0  0  0  0  0  0  0
  145.9570   73.1200  220.2850 C   0  0  0  0  0  0  0  0  0  0  0  0
  145.9180   73.0100  218.8610 N   0  0  0  0  0  0  0  0  0  0  0  0
  144.6080   72.9440  218.2880 C   0  0  0  0  0  0  0  0  0  0  0  0
  143.5710   72.2990  219.1820 C   0  0  0  0  0  0  0  0  0  0  0  0
  141.8320   72.3510  221.8900 N   0  0  0  0  0  0  0  0  0  0  0  0
  141.0340   71.1760  224.6510 C   0  0  0  0  0  0  0  0  0  0  0  0
  139.1826   67.2733  227.8612 H   0  0  0  0  0  0  0  0  0  0  0  0
  140.8074   68.9741  228.6810 H   0  0  0  0  0  0  0  0  0  0  0  0
  141.6386   70.7544  227.1842 H   0  0  0  0  0  0  0  0  0  0  0  0
  138.4212   67.4113  225.4978 H   0  0  0  0  0  0  0  0  0  0  0  0
  139.8284   68.6234  223.0257 H   0  0  0  0  0  0  0  0  0  0  0  0
  138.1139   68.8173  223.6273 H   0  0  0  0  0  0  0  0  0  0  0  0
  139.0078   70.5609  222.0070 H   0  0  0  0  0  0  0  0  0  0  0  0
  138.2109   71.1092  223.5511 H   0  0  0  0  0  0  0  0  0  0  0  0
  138.5760   75.7270  221.7200 H   0  0  0  0  0  0  0  0  0  0  0  0
  141.0227   76.6476  220.2035 H   0  0  0  0  0  0  0  0  0  0  0  0
  139.4732   77.5268  220.2849 H   0  0  0  0  0  0  0  0  0  0  0  0
  141.2818   77.1255  222.7311 H   0  0  0  0  0  0  0  0  0  0  0  0
  142.4197   78.3076  220.7950 H   0  0  0  0  0  0  0  0  0  0  0  0
  141.1943   79.5978  220.9794 H   0  0  0  0  0  0  0  0  0  0  0  0
  143.3198   78.6635  222.9109 H   0  0  0  0  0  0  0  0  0  0  0  0
  142.8952   80.3311  222.3933 H   0  0  0  0  0  0  0  0  0  0  0  0
  141.6697   78.5742  224.4624 H   0  0  0  0  0  0  0  0  0  0  0  0
  141.8857   80.3781  224.3992 H   0  0  0  0  0  0  0  0  0  0  0  0
  139.5206   79.8740  224.3280 H   0  0  0  0  0  0  0  0  0  0  0  0
  140.0489   80.4844  222.7175 H   0  0  0  0  0  0  0  0  0  0  0  0
  139.2475   77.6854  223.5499 H   0  0  0  0  0  0  0  0  0  0  0  0
  138.7711   78.6136  222.1028 H   0  0  0  0  0  0  0  0  0  0  0  0
  144.7057   74.8022  220.5574 H   0  0  0  0  0  0  0  0  0  0  0  0
  144.7547   73.6025  221.9339 H   0  0  0  0  0  0  0  0  0  0  0  0
  146.8213   73.7391  220.5676 H   0  0  0  0  0  0  0  0  0  0  0  0
  146.0363   72.1031  220.6970 H   0  0  0  0  0  0  0  0  0  0  0  0
  146.3970   73.8310  218.4060 H   0  0  0  0  0  0  0  0  0  0  0  0
  144.2786   73.9688  218.0615 H   0  0  0  0  0  0  0  0  0  0  0  0
  144.6873   72.3133  217.3903 H   0  0  0  0  0  0  0  0  0  0  0  0
  142.5929   72.2767  218.6792 H   0  0  0  0  0  0  0  0  0  0  0  0
  143.8361   71.2590  219.4232 H   0  0  0  0  0  0  0  0  0  0  0  0
  142.0637   70.9203  224.3606 H   0  0  0  0  0  0  0  0  0  0  0  0
  140.9962   72.1000  225.2466 H   0  0  0  0  0  0  0  0  0  0  0  0
  1  2  2  0
  2  3  1  0
  3  4  2  0
  4  5  1  0
  5  6  2  0
  5  7  1  0
  7  8  1  0
  8  9  1  0
  9 10  1  0
 10 11  2  0
 11 12  1  0
 12 13  1  0
 13 14  1  0
 14 15  1  0
 15 16  1  0
 16 17  1  0
 17 18  1  0
 18 19  1  0
 19 20  1  0
 12 21  2  0
 21 22  1  0
 22 23  1  0
 23 24  1  0
 24 25  1  0
 25 26  1  0
 26 27  1  0
 27 28  1  0
 22 29  2  0
  9 30  1  0
  6  1  1  0
 29 10  1  0
 30  4  1  0
 20 15  1  0
 28 23  1  0
  1 31  1  0
  2 32  1  0
  3 33  1  0
  6 34  1  0
  7 35  1  0
  7 36  1  0
  8 37  1  0
  8 38  1  0
 13 39  1  0
 14 40  1  0
 14 41  1  0
 15 42  1  0
 16 43  1  0
 16 44  1  0
 17 45  1  0
 17 46  1  0
 18 47  1  0
 18 48  1  0
 19 49  1  0
 19 50  1  0
 20 51  1  0
 20 52  1  0
 24 53  1  0
 24 54  1  0
 25 55  1  0
 25 56  1  0
 26 57  1  0
 27 58  1  0
 27 59  1  0
 28 60  1  0
 28 61  1  0
 30 62  1  0
 30 63  1  0
M  END
>  <smiles>  (44) 
c1ccc2c(c1)CCN(c1nc(NCC3CCCCC3)nc(N3CCNCC3)n1)C2

>  <score_type>  (44) 
oracle

>  <origin>  (44) 
autodockgpu

>  <m_score__min__energy>  (44) 
-9.9000000000000004

>  <m_primary>  (44) 
energy

>  <rmsd>  (44) 
3.8864680532381177

>  <m_score__min__rmsd>  (44) 
3.8864680532381177

>  <meeko>  (44) 
{"free_energy": -9.9, "intermolecular_energy": -11.4, "internal_energy": -0.91, "cluster_size": 39, "cluster_id": 1, "rank_in_cluster": 1}

>  <energy>  (44) 
-9.54

>  <cluster_rmsd>  (44) 
0.5

>  <cluster>  (44) 
2

$$$$

     RDKit          3D

 63 67  0  0  0  0  0  0  0  0999 V2000
  139.2170   68.4170  226.8560 C   0  0  0  0  0  0  0  0  0  0  0  0
  140.1160   69.3420  227.3490 C   0  0  0  0  0  0  0  0  0  0  0  0
  140.6410   70.3380  226.5380 C   0  0  0  0  0  0  0  0  0  0  0  0
  140.2800   70.4380  225.2030 C   0  0  0  0  0  0  0  0  0  0  0  0
  139.3800   69.5100  224.7110 C   0  0  0  0  0  0  0  0  0  0  0  0
  138.8620   68.5220  225.5260 C   0  0  0  0  0  0  0  0  0  0  0  0
  138.9860   69.6000  223.3050 C   0  0  0  0  0  0  0  0  0  0  0  0
  138.9840   71.0050  222.7690 C   0  0  0  0  0  0  0  0  0  0  0  0
  140.1520   71.7630  223.1720 N   0  0  0  0  0  0  0  0  0  0  0  0
  140.6380   72.8110  222.3330 C   0  0  0  0  0  0  0  0  0  0  0  0
  139.9810   73.9760  222.1710 N   0  0  0  0  0  0  0  0  0  0  0  0
  140.4190   74.9790  221.3860 C   0  0  0  0  0  0  0  0  0  0  0  0
  139.6990   76.2030  221.2350 N   0  0  0  0  0  0  0  0  0  0  0  0
  139.6140   77.1050  222.3540 C   0  0  0  0  0  0  0  0  0  0  0  0
  140.7070   78.1430  222.1940 C   0  0  0  0  0  0  0  0  0  0  0  0
  140.1070   79.4460  221.7080 C   0  0  0  0  0  0  0  0  0  0  0  0
  141.2150   80.3290  221.2310 C   0  0  0  0  0  0  0  0  0  0  0  0
  142.4130   80.1530  222.1140 C   0  0  0  0  0  0  0  0  0  0  0  0
  142.0350   79.6970  223.5180 C   0  0  0  0  0  0  0  0  0  0  0  0
  141.4620   78.2900  223.4760 C   0  0  0  0  0  0  0  0  0  0  0  0
  141.5940   74.7780  220.7320 N   0  0  0  0  0  0  0  0  0  0  0  0
  142.2940   73.6330  220.8560 C   0  0  0  0  0  0  0  0  0  0  0  0
  143.5260   73.4010  220.1820 N   0  0  0  0  0  0  0  0  0  0  0  0
  144.7820   73.7720  220.7830 C   0  0  0  0  0  0  0  0  0  0  0  0
  145.9580   73.0990  220.1650 C   0  0  0  0  0  0  0  0  0  0  0  0
  145.9770   73.2290  218.7420 N   0  0  0  0  0  0  0  0  0  0  0  0
  144.6990   73.4270  218.1280 C   0  0  0  0  0  0  0  0  0  0  0  0
  143.5480   72.7830  218.8710 C   0  0  0  0  0  0  0  0  0  0  0  0
  141.7940   72.6750  221.6580 N   0  0  0  0  0  0  0  0  0  0  0  0
  140.8730   71.5140  224.4070 C   0  0  0  0  0  0  0  0  0  0  0  0
  138.7999   67.6272  227.4981 H   0  0  0  0  0  0  0  0  0  0  0  0
  140.4216   69.2883  228.4043 H   0  0  0  0  0  0  0  0  0  0  0  0
  141.3551   71.0599  226.9610 H   0  0  0  0  0  0  0  0  0  0  0  0
  138.1477   67.7998  225.1039 H   0  0  0  0  0  0  0  0  0  0  0  0
  139.6892   69.0010  222.7078 H   0  0  0  0  0  0  0  0  0  0  0  0
  137.9537   69.2265  223.2348 H   0  0  0  0  0  0  0  0  0  0  0  0
  138.9554   70.9617  221.6702 H   0  0  0  0  0  0  0  0  0  0  0  0
  138.1007   71.5148  223.1811 H   0  0  0  0  0  0  0  0  0  0  0  0
  139.2640   76.3820  220.3070 H   0  0  0  0  0  0  0  0  0  0  0  0
  138.6298   77.5961  222.3653 H   0  0  0  0  0  0  0  0  0  0  0  0
  139.7383   76.5577  223.3000 H   0  0  0  0  0  0  0  0  0  0  0  0
  141.4323   77.8186  221.4332 H   0  0  0  0  0  0  0  0  0  0  0  0
  139.4086   79.2476  220.8816 H   0  0  0  0  0  0  0  0  0  0  0  0
  139.5589   79.9370  222.5256 H   0  0  0  0  0  0  0  0  0  0  0  0
  141.4790   80.0595  220.1977 H   0  0  0  0  0  0  0  0  0  0  0  0
  140.8867   81.3783  221.2652 H   0  0  0  0  0  0  0  0  0  0  0  0
  143.0764   79.3997  221.6641 H   0  0  0  0  0  0  0  0  0  0  0  0
  142.9133   81.1288  222.2005 H   0  0  0  0  0  0  0  0  0  0  0  0
  142.9307   79.7057  224.1564 H   0  0  0  0  0  0  0  0  0  0  0  0
  141.2767   80.3815  223.9259 H   0  0  0  0  0  0  0  0  0  0  0  0
  142.2771   77.5525  223.5171 H   0  0  0  0  0  0  0  0  0  0  0  0
  140.7971   78.1197  224.3356 H   0  0  0  0  0  0  0  0  0  0  0  0
  144.9094   74.8597  220.6800 H   0  0  0  0  0  0  0  0  0  0  0  0
  144.7435   73.4543  221.8354 H   0  0  0  0  0  0  0  0  0  0  0  0
  146.8759   73.5478  220.5726 H   0  0  0  0  0  0  0  0  0  0  0  0
  145.8925   72.0268  220.4020 H   0  0  0  0  0  0  0  0  0  0  0  0
  146.5750   74.0460  218.4460 H   0  0  0  0  0  0  0  0  0  0  0  0
  144.5089   74.5088  218.0680 H   0  0  0  0  0  0  0  0  0  0  0  0
  144.7453   72.9473  217.1392 H   0  0  0  0  0  0  0  0  0  0  0  0
  142.6005   72.9693  218.3442 H   0  0  0  0  0  0  0  0  0  0  0  0
  143.6721   71.6923  218.9407 H   0  0  0  0  0  0  0  0  0  0  0  0
  141.9088   71.2384  224.1598 H   0  0  0  0  0  0  0  0  0  0  0  0
  140.8279   72.4341  225.0081 H   0  0  0  0  0  0  0  0  0  0  0  0
  1  2  2  0
  2  3  1  0
  3  4  2  0
  4  5  1  0
  5  6  2  0
  5  7  1  0
  7  8  1  0
  8  9  1  0
  9 10  1  0
 10 11  2  0
 11 12  1  0
 12 13  1  0
 13 14  1  0
 14 15  1  0
 15 16  1  0
 16 17  1  0
 17 18  1  0
 18 19  1  0
 19 20  1  0
 12 21  2  0
 21 22  1  0
 22 23  1  0
 23 24  1  0
 24 25  1  0
 25 26  1  0
 26 27  1  0
 27 28  1  0
 22 29  2  0
  9 30  1  0
  6  1  1  0
 29 10  1  0
 30  4  1  0
 20 15  1  0
 28 23  1  0
  1 31  1  0
  2 32  1  0
  3 33  1  0
  6 34  1  0
  7 35  1  0
  7 36  1  0
  8 37  1  0
  8 38  1  0
 13 39  1  0
 14 40  1  0
 14 41  1  0
 15 42  1  0
 16 43  1  0
 16 44  1  0
 17 45  1  0
 17 46  1  0
 18 47  1  0
 18 48  1  0
 19 49  1  0
 19 50  1  0
 20 51  1  0
 20 52  1  0
 24 53  1  0
 24 54  1  0
 25 55  1  0
 25 56  1  0
 26 57  1  0
 27 58  1  0
 27 59  1  0
 28 60  1  0
 28 61  1  0
 30 62  1  0
 30 63  1  0
M  END
>  <smiles>  (45) 
c1ccc2c(c1)CCN(c1nc(NCC3CCCCC3)nc(N3CCNCC3)n1)C2

>  <score_type>  (45) 
oracle

>  <origin>  (45) 
autodockgpu

>  <m_score__min__energy>  (45) 
-9.9000000000000004

>  <m_primary>  (45) 
energy

>  <rmsd>  (45) 
3.8624575315222276

>  <m_score__min__rmsd>  (45) 
3.8624575315222276

>  <meeko>  (45) 
{"free_energy": -9.67, "intermolecular_energy": -11.17, "internal_energy": -0.9, "cluster_size": 39, "cluster_id": 1, "rank_in_cluster": 21}

>  <energy>  (45) 
-9.53

>  <cluster_rmsd>  (45) 
0.5

>  <cluster>  (45) 
2

$$$$

     RDKit          3D

 63 67  0  0  0  0  0  0  0  0999 V2000
  139.6350   68.5370  227.5890 C   0  0  0  0  0  0  0  0  0  0  0  0
  140.4530   69.5820  227.9710 C   0  0  0  0  0  0  0  0  0  0  0  0
  140.8870   70.5290  227.0550 C   0  0  0  0  0  0  0  0  0  0  0  0
  140.5120   70.4580  225.7210 C   0  0  0  0  0  0  0  0  0  0  0  0
  139.6920   69.4110  225.3410 C   0  0  0  0  0  0  0  0  0  0  0  0
  139.2660   68.4730  226.2610 C   0  0  0  0  0  0  0  0  0  0  0  0
  139.2860   69.3200  223.9380 C   0  0  0  0  0  0  0  0  0  0  0  0
  139.1600   70.6560  223.2610 C   0  0  0  0  0  0  0  0  0  0  0  0
  140.2610   71.5490  223.5660 N   0  0  0  0  0  0  0  0  0  0  0  0
  140.6510   72.5410  222.6170 C   0  0  0  0  0  0  0  0  0  0  0  0
  139.9000   73.6280  222.3520 N   0  0  0  0  0  0  0  0  0  0  0  0
  140.2470   74.5780  221.4620 C   0  0  0  0  0  0  0  0  0  0  0  0
  139.4290   75.7190  221.2030 N   0  0  0  0  0  0  0  0  0  0  0  0
  139.1430   76.6300  222.2810 C   0  0  0  0  0  0  0  0  0  0  0  0
  140.0240   77.8520  222.0980 C   0  0  0  0  0  0  0  0  0  0  0  0
  141.1800   77.7970  223.0740 C   0  0  0  0  0  0  0  0  0  0  0  0
  141.8250   79.1450  223.1210 C   0  0  0  0  0  0  0  0  0  0  0  0
  141.8190   79.7520  221.7510 C   0  0  0  0  0  0  0  0  0  0  0  0
  141.7890   78.6990  220.6510 C   0  0  0  0  0  0  0  0  0  0  0  0
  140.4660   77.9530  220.6740 C   0  0  0  0  0  0  0  0  0  0  0  0
  141.4260   74.4040  220.8080 N   0  0  0  0  0  0  0  0  0  0  0  0
  142.2180   73.3360  221.0330 C   0  0  0  0  0  0  0  0  0  0  0  0
  143.4560   73.1350  220.3600 N   0  0  0  0  0  0  0  0  0  0  0  0
  144.6740   73.7230  220.8580 C   0  0  0  0  0  0  0  0  0  0  0  0
  145.9060   73.0900  220.3090 C   0  0  0  0  0  0  0  0  0  0  0  0
  145.8870   73.0040  218.8820 N   0  0  0  0  0  0  0  0  0  0  0  0
  144.5850   72.9710  218.2880 C   0  0  0  0  0  0  0  0  0  0  0  0
  143.5230   72.3310  219.1560 C   0  0  0  0  0  0  0  0  0  0  0  0
  141.8060   72.4290  221.9360 N   0  0  0  0  0  0  0  0  0  0  0  0
  141.0060   71.4920  224.8110 C   0  0  0  0  0  0  0  0  0  0  0  0
  139.2912   67.7853  228.3148 H   0  0  0  0  0  0  0  0  0  0  0  0
  140.7665   69.6650  229.0221 H   0  0  0  0  0  0  0  0  0  0  0  0
  141.5385   71.3490  227.3914 H   0  0  0  0  0  0  0  0  0  0  0  0
  138.6147   67.6524  225.9258 H   0  0  0  0  0  0  0  0  0  0  0  0
  140.0362   68.7250  223.3966 H   0  0  0  0  0  0  0  0  0  0  0  0
  138.2900   68.8535  223.9197 H   0  0  0  0  0  0  0  0  0  0  0  0
  139.1283   70.4966  222.1731 H   0  0  0  0  0  0  0  0  0  0  0  0
  138.2388   71.1288  223.6324 H   0  0  0  0  0  0  0  0  0  0  0  0
  139.0750   75.8340  220.2320 H   0  0  0  0  0  0  0  0  0  0  0  0
  138.0835   76.9242  222.2518 H   0  0  0  0  0  0  0  0  0  0  0  0
  139.3425   76.1530  223.2519 H   0  0  0  0  0  0  0  0  0  0  0  0
  139.4572   78.7682  222.3201 H   0  0  0  0  0  0  0  0  0  0  0  0
  140.8090   77.5280  224.0740 H   0  0  0  0  0  0  0  0  0  0  0  0
  141.9104   77.0405  222.7512 H   0  0  0  0  0  0  0  0  0  0  0  0
  141.2669   79.7942  223.8117 H   0  0  0  0  0  0  0  0  0  0  0  0
  142.8628   79.0419  223.4708 H   0  0  0  0  0  0  0  0  0  0  0  0
  140.9300   80.3922  221.6519 H   0  0  0  0  0  0  0  0  0  0  0  0
  142.7469   80.3314  221.6362 H   0  0  0  0  0  0  0  0  0  0  0  0
  141.9121   79.1902  219.6745 H   0  0  0  0  0  0  0  0  0  0  0  0
  142.6074   77.9831  220.8174 H   0  0  0  0  0  0  0  0  0  0  0  0
  139.7157   78.5033  220.0873 H   0  0  0  0  0  0  0  0  0  0  0  0
  140.5819   76.9509  220.2354 H   0  0  0  0  0  0  0  0  0  0  0  0
  144.6811   74.7897  220.5895 H   0  0  0  0  0  0  0  0  0  0  0  0
  144.6874   73.5674  221.9469 H   0  0  0  0  0  0  0  0  0  0  0  0
  146.7767   73.6886  220.6149 H   0  0  0  0  0  0  0  0  0  0  0  0
  145.9608   72.0653  220.7053 H   0  0  0  0  0  0  0  0  0  0  0  0
  146.3880   73.8240  218.4480 H   0  0  0  0  0  0  0  0  0  0  0  0
  144.2777   74.0051  218.0729 H   0  0  0  0  0  0  0  0  0  0  0  0
  144.6668   72.3533  217.3815 H   0  0  0  0  0  0  0  0  0  0  0  0
  142.5523   72.3353  218.6386 H   0  0  0  0  0  0  0  0  0  0  0  0
  143.7655   71.2825  219.3837 H   0  0  0  0  0  0  0  0  0  0  0  0
  142.0608   71.2821  224.5800 H   0  0  0  0  0  0  0  0  0  0  0  0
  140.8836   72.4622  225.3147 H   0  0  0  0  0  0  0  0  0  0  0  0
  1  2  2  0
  2  3  1  0
  3  4  2  0
  4  5  1  0
  5  6  2  0
  5  7  1  0
  7  8  1  0
  8  9  1  0
  9 10  1  0
 10 11  2  0
 11 12  1  0
 12 13  1  0
 13 14  1  0
 14 15  1  0
 15 16  1  0
 16 17  1  0
 17 18  1  0
 18 19  1  0
 19 20  1  0
 12 21  2  0
 21 22  1  0
 22 23  1  0
 23 24  1  0
 24 25  1  0
 25 26  1  0
 26 27  1  0
 27 28  1  0
 22 29  2  0
  9 30  1  0
  6  1  1  0
 29 10  1  0
 30  4  1  0
 20 15  1  0
 28 23  1  0
  1 31  1  0
  2 32  1  0
  3 33  1  0
  6 34  1  0
  7 35  1  0
  7 36  1  0
  8 37  1  0
  8 38  1  0
 13 39  1  0
 14 40  1  0
 14 41  1  0
 15 42  1  0
 16 43  1  0
 16 44  1  0
 17 45  1  0
 17 46  1  0
 18 47  1  0
 18 48  1  0
 19 49  1  0
 19 50  1  0
 20 51  1  0
 20 52  1  0
 24 53  1  0
 24 54  1  0
 25 55  1  0
 25 56  1  0
 26 57  1  0
 27 58  1  0
 27 59  1  0
 28 60  1  0
 28 61  1  0
 30 62  1  0
 30 63  1  0
M  END
>  <smiles>  (46) 
c1ccc2c(c1)CCN(c1nc(NCC3CCCCC3)nc(N3CCNCC3)n1)C2

>  <score_type>  (46) 
oracle

>  <origin>  (46) 
autodockgpu

>  <m_score__min__energy>  (46) 
-9.9000000000000004

>  <m_primary>  (46) 
energy

>  <rmsd>  (46) 
3.908196188736489

>  <m_score__min__rmsd>  (46) 
3.908196188736489

>  <meeko>  (46) 
{"free_energy": -9.55, "intermolecular_energy": -11.04, "internal_energy": -1.07, "cluster_size": 39, "cluster_id": 1, "rank_in_cluster": 33}

>  <energy>  (46) 
-9.5

>  <cluster_rmsd>  (46) 
0.5

>  <cluster>  (46) 
2

$$$$

     RDKit          3D

 63 67  0  0  0  0  0  0  0  0999 V2000
  139.6280   68.4770  227.4850 C   0  0  0  0  0  0  0  0  0  0  0  0
  140.4770   69.4900  227.8830 C   0  0  0  0  0  0  0  0  0  0  0  0
  140.9250   70.4490  226.9850 C   0  0  0  0  0  0  0  0  0  0  0  0
  140.5320   70.4210  225.6550 C   0  0  0  0  0  0  0  0  0  0  0  0
  139.6810   69.4060  225.2590 C   0  0  0  0  0  0  0  0  0  0  0  0
  139.2410   68.4560  226.1600 C   0  0  0  0  0  0  0  0  0  0  0  0
  139.2560   69.3600  223.8600 C   0  0  0  0  0  0  0  0  0  0  0  0
  139.1580   70.7160  223.2170 C   0  0  0  0  0  0  0  0  0  0  0  0
  140.2850   71.5720  223.5310 N   0  0  0  0  0  0  0  0  0  0  0  0
  140.6900   72.5780  222.6020 C   0  0  0  0  0  0  0  0  0  0  0  0
  139.9520   73.6770  222.3540 N   0  0  0  0  0  0  0  0  0  0  0  0
  140.3130   74.6390  221.4830 C   0  0  0  0  0  0  0  0  0  0  0  0
  139.5080   75.7940  221.2420 N   0  0  0  0  0  0  0  0  0  0  0  0
  140.1370   76.9900  220.7450 C   0  0  0  0  0  0  0  0  0  0  0  0
  140.6860   77.7520  221.9360 C   0  0  0  0  0  0  0  0  0  0  0  0
  141.5880   78.8700  221.4550 C   0  0  0  0  0  0  0  0  0  0  0  0
  142.3770   79.3760  222.6190 C   0  0  0  0  0  0  0  0  0  0  0  0
  141.5230   79.3620  223.8500 C   0  0  0  0  0  0  0  0  0  0  0  0
  140.0380   79.4800  223.5250 C   0  0  0  0  0  0  0  0  0  0  0  0
  139.5610   78.2370  222.7930 C   0  0  0  0  0  0  0  0  0  0  0  0
  141.4930   74.4650  220.8310 N   0  0  0  0  0  0  0  0  0  0  0  0
  142.2720   73.3850  221.0390 C   0  0  0  0  0  0  0  0  0  0  0  0
  143.5100   73.1820  220.3680 N   0  0  0  0  0  0  0  0  0  0  0  0
  144.7180   73.8160  220.8330 C   0  0  0  0  0  0  0  0  0  0  0  0
  145.9600   73.1880  220.3030 C   0  0  0  0  0  0  0  0  0  0  0  0
  145.9360   73.0430  218.8810 N   0  0  0  0  0  0  0  0  0  0  0  0
  144.6320   72.9570  218.2980 C   0  0  0  0  0  0  0  0  0  0  0  0
  143.5890   72.3310  219.1980 C   0  0  0  0  0  0  0  0  0  0  0  0
  141.8460   72.4650  221.9240 N   0  0  0  0  0  0  0  0  0  0  0  0
  141.0430   71.4650  224.7640 C   0  0  0  0  0  0  0  0  0  0  0  0
  139.2736   67.7161  228.1959 H   0  0  0  0  0  0  0  0  0  0  0  0
  140.8048   69.5382  228.9319 H   0  0  0  0  0  0  0  0  0  0  0  0
  141.6018   71.2431  227.3333 H   0  0  0  0  0  0  0  0  0  0  0  0
  138.5642   67.6615  225.8125 H   0  0  0  0  0  0  0  0  0  0  0  0
  139.9834   68.7586  223.2949 H   0  0  0  0  0  0  0  0  0  0  0  0
  138.2477   68.9206  223.8428 H   0  0  0  0  0  0  0  0  0  0  0  0
  139.1104   70.5845  222.1259 H   0  0  0  0  0  0  0  0  0  0  0  0
  138.2537   71.2033  223.6104 H   0  0  0  0  0  0  0  0  0  0  0  0
  138.4910   75.7100  221.4440 H   0  0  0  0  0  0  0  0  0  0  0  0
  140.9558   76.7255  220.0598 H   0  0  0  0  0  0  0  0  0  0  0  0
  139.4111   77.6066  220.1947 H   0  0  0  0  0  0  0  0  0  0  0  0
  141.3004   77.0890  222.5629 H   0  0  0  0  0  0  0  0  0  0  0  0
  142.2708   78.4891  220.6812 H   0  0  0  0  0  0  0  0  0  0  0  0
  140.9844   79.6836  221.0263 H   0  0  0  0  0  0  0  0  0  0  0  0
  143.2542   78.7308  222.7748 H   0  0  0  0  0  0  0  0  0  0  0  0
  142.7079   80.4052  222.4160 H   0  0  0  0  0  0  0  0  0  0  0  0
  141.6935   78.4179  224.3882 H   0  0  0  0  0  0  0  0  0  0  0  0
  141.8033   80.2305  224.4641 H   0  0  0  0  0  0  0  0  0  0  0  0
  139.4692   79.5920  224.4598 H   0  0  0  0  0  0  0  0  0  0  0  0
  139.8799   80.3583  222.8819 H   0  0  0  0  0  0  0  0  0  0  0  0
  139.2813   77.4593  223.5189 H   0  0  0  0  0  0  0  0  0  0  0  0
  138.6800   78.4683  222.1763 H   0  0  0  0  0  0  0  0  0  0  0  0
  144.7003   74.8705  220.5205 H   0  0  0  0  0  0  0  0  0  0  0  0
  144.7410   73.7056  221.9272 H   0  0  0  0  0  0  0  0  0  0  0  0
  146.8190   73.8172  220.5790 H   0  0  0  0  0  0  0  0  0  0  0  0
  146.0388   72.1818  220.7404 H   0  0  0  0  0  0  0  0  0  0  0  0
  146.4160   73.8550  218.4110 H   0  0  0  0  0  0  0  0  0  0  0  0
  144.3009   73.9743  218.0423 H   0  0  0  0  0  0  0  0  0  0  0  0
  144.7224   72.3037  217.4177 H   0  0  0  0  0  0  0  0  0  0  0  0
  142.6159   72.2927  218.6866 H   0  0  0  0  0  0  0  0  0  0  0  0
  143.8561   71.2985  219.4675 H   0  0  0  0  0  0  0  0  0  0  0  0
  142.0890   71.2334  224.5146 H   0  0  0  0  0  0  0  0  0  0  0  0
  140.9529   72.4253  225.2928 H   0  0  0  0  0  0  0  0  0  0  0  0
  1  2  2  0
  2  3  1  0
  3  4  2  0
  4  5  1  0
  5  6  2  0
  5  7  1  0
  7  8  1  0
  8  9  1  0
  9 10  1  0
 10 11  2  0
 11 12  1  0
 12 13  1  0
 13 14  1  0
 14 15  1  0
 15 16  1  0
 16 17  1  0
 17 18  1  0
 18 19  1  0
 19 20  1  0
 12 21  2  0
 21 22  1  0
 22 23  1  0
 23 24  1  0
 24 25  1  0
 25 26  1  0
 26 27  1  0
 27 28  1  0
 22 29  2  0
  9 30  1  0
  6  1  1  0
 29 10  1  0
 30  4  1  0
 20 15  1  0
 28 23  1  0
  1 31  1  0
  2 32  1  0
  3 33  1  0
  6 34  1  0
  7 35  1  0
  7 36  1  0
  8 37  1  0
  8 38  1  0
 13 39  1  0
 14 40  1  0
 14 41  1  0
 15 42  1  0
 16 43  1  0
 16 44  1  0
 17 45  1  0
 17 46  1  0
 18 47  1  0
 18 48  1  0
 19 49  1  0
 19 50  1  0
 20 51  1  0
 20 52  1  0
 24 53  1  0
 24 54  1  0
 25 55  1  0
 25 56  1  0
 26 57  1  0
 27 58  1  0
 27 59  1  0
 28 60  1  0
 28 61  1  0
 30 62  1  0
 30 63  1  0
M  END
>  <smiles>  (47) 
c1ccc2c(c1)CCN(c1nc(NCC3CCCCC3)nc(N3CCNCC3)n1)C2

>  <score_type>  (47) 
oracle

>  <origin>  (47) 
autodockgpu

>  <m_score__min__energy>  (47) 
-9.9000000000000004

>  <m_primary>  (47) 
energy

>  <rmsd>  (47) 
3.8997307715409333

>  <m_score__min__rmsd>  (47) 
3.8997307715409333

>  <meeko>  (47) 
{"free_energy": -9.83, "intermolecular_energy": -11.32, "internal_energy": -0.94, "cluster_size": 39, "cluster_id": 1, "rank_in_cluster": 10}

>  <energy>  (47) 
-9.49

>  <cluster_rmsd>  (47) 
1.36

>  <cluster>  (47) 
2

$$$$

     RDKit          3D

 63 67  0  0  0  0  0  0  0  0999 V2000
  139.6070   68.5830  227.5840 C   0  0  0  0  0  0  0  0  0  0  0  0
  140.4500   69.6100  227.9570 C   0  0  0  0  0  0  0  0  0  0  0  0
  140.8930   70.5490  227.0360 C   0  0  0  0  0  0  0  0  0  0  0  0
  140.5020   70.4860  225.7060 C   0  0  0  0  0  0  0  0  0  0  0  0
  139.6570   69.4570  225.3350 C   0  0  0  0  0  0  0  0  0  0  0  0
  139.2210   68.5260  226.2600 C   0  0  0  0  0  0  0  0  0  0  0  0
  139.2330   69.3740  223.9370 C   0  0  0  0  0  0  0  0  0  0  0  0
  139.1270   70.7130  223.2610 C   0  0  0  0  0  0  0  0  0  0  0  0
  140.2490   71.5830  223.5540 N   0  0  0  0  0  0  0  0  0  0  0  0
  140.6490   72.5670  222.6010 C   0  0  0  0  0  0  0  0  0  0  0  0
  139.9000   73.6510  222.3170 N   0  0  0  0  0  0  0  0  0  0  0  0
  140.2560   74.5930  221.4230 C   0  0  0  0  0  0  0  0  0  0  0  0
  139.4390   75.7300  221.1450 N   0  0  0  0  0  0  0  0  0  0  0  0
  140.0660   76.9440  220.6890 C   0  0  0  0  0  0  0  0  0  0  0  0
  140.6190   77.6620  221.9050 C   0  0  0  0  0  0  0  0  0  0  0  0
  141.6010   78.7280  221.4650 C   0  0  0  0  0  0  0  0  0  0  0  0
  142.3790   79.1770  222.6610 C   0  0  0  0  0  0  0  0  0  0  0  0
  141.4830   79.2050  223.8610 C   0  0  0  0  0  0  0  0  0  0  0  0
  140.0210   79.4130  223.4890 C   0  0  0  0  0  0  0  0  0  0  0  0
  139.4960   78.2060  222.7290 C   0  0  0  0  0  0  0  0  0  0  0  0
  141.4420   74.4150  220.7850 N   0  0  0  0  0  0  0  0  0  0  0  0
  142.2330   73.3500  221.0280 C   0  0  0  0  0  0  0  0  0  0  0  0
  143.4790   73.1450  220.3720 N   0  0  0  0  0  0  0  0  0  0  0  0
  144.6750   73.8080  220.8280 C   0  0  0  0  0  0  0  0  0  0  0  0
  145.9290   73.1810  220.3250 C   0  0  0  0  0  0  0  0  0  0  0  0
  145.9170   72.9950  218.9080 N   0  0  0  0  0  0  0  0  0  0  0  0
  144.6190   72.8760  218.3170 C   0  0  0  0  0  0  0  0  0  0  0  0
  143.5780   72.2610  219.2270 C   0  0  0  0  0  0  0  0  0  0  0  0
  141.8120   72.4500  221.9350 N   0  0  0  0  0  0  0  0  0  0  0  0
  141.0070   71.5100  224.7900 C   0  0  0  0  0  0  0  0  0  0  0  0
  139.2562   67.8385  228.3138 H   0  0  0  0  0  0  0  0  0  0  0  0
  140.7771   69.6858  229.0045 H   0  0  0  0  0  0  0  0  0  0  0  0
  141.5644   71.3556  227.3654 H   0  0  0  0  0  0  0  0  0  0  0  0
  138.5491   67.7191  225.9321 H   0  0  0  0  0  0  0  0  0  0  0  0
  139.9644   68.7635  223.3872 H   0  0  0  0  0  0  0  0  0  0  0  0
  138.2275   68.9280  223.9302 H   0  0  0  0  0  0  0  0  0  0  0  0
  139.0803   70.5545  222.1735 H   0  0  0  0  0  0  0  0  0  0  0  0
  138.2197   71.2045  223.6422 H   0  0  0  0  0  0  0  0  0  0  0  0
  138.4150   75.6220  221.2890 H   0  0  0  0  0  0  0  0  0  0  0  0
  140.8824   76.7050  219.9916 H   0  0  0  0  0  0  0  0  0  0  0  0
  139.3381   77.5800  220.1639 H   0  0  0  0  0  0  0  0  0  0  0  0
  141.1719   76.9590  222.5454 H   0  0  0  0  0  0  0  0  0  0  0  0
  142.2859   78.3134  220.7107 H   0  0  0  0  0  0  0  0  0  0  0  0
  141.0617   79.5793  221.0240 H   0  0  0  0  0  0  0  0  0  0  0  0
  143.2099   78.4789  222.8406 H   0  0  0  0  0  0  0  0  0  0  0  0
  142.7786   80.1857  222.4795 H   0  0  0  0  0  0  0  0  0  0  0  0
  141.5788   78.2486  224.3958 H   0  0  0  0  0  0  0  0  0  0  0  0
  141.7926   80.0519  224.4911 H   0  0  0  0  0  0  0  0  0  0  0  0
  139.4289   79.5509  224.4057 H   0  0  0  0  0  0  0  0  0  0  0  0
  139.9365   80.3042  222.8498 H   0  0  0  0  0  0  0  0  0  0  0  0
  139.1465   77.4405  223.4375 H   0  0  0  0  0  0  0  0  0  0  0  0
  138.6514   78.4940  222.0858 H   0  0  0  0  0  0  0  0  0  0  0  0
  144.6463   74.8529  220.4855 H   0  0  0  0  0  0  0  0  0  0  0  0
  144.6908   73.7295  221.9251 H   0  0  0  0  0  0  0  0  0  0  0  0
  146.7779   73.8290  220.5887 H   0  0  0  0  0  0  0  0  0  0  0  0
  146.0176   72.1889  220.7919 H   0  0  0  0  0  0  0  0  0  0  0  0
  146.3910   73.7990  218.4180 H   0  0  0  0  0  0  0  0  0  0  0  0
  144.2766   73.8814  218.0308 H   0  0  0  0  0  0  0  0  0  0  0  0
  144.7244   72.2008  217.4550 H   0  0  0  0  0  0  0  0  0  0  0  0
  142.6093   72.1944  218.7101 H   0  0  0  0  0  0  0  0  0  0  0  0
  143.8568   71.2403  219.5277 H   0  0  0  0  0  0  0  0  0  0  0  0
  142.0544   71.2781  224.5467 H   0  0  0  0  0  0  0  0  0  0  0  0
  140.9109   72.4824  225.2951 H   0  0  0  0  0  0  0  0  0  0  0  0
  1  2  2  0
  2  3  1  0
  3  4  2  0
  4  5  1  0
  5  6  2  0
  5  7  1  0
  7  8  1  0
  8  9  1  0
  9 10  1  0
 10 11  2  0
 11 12  1  0
 12 13  1  0
 13 14  1  0
 14 15  1  0
 15 16  1  0
 16 17  1  0
 17 18  1  0
 18 19  1  0
 19 20  1  0
 12 21  2  0
 21 22  1  0
 22 23  1  0
 23 24  1  0
 24 25  1  0
 25 26  1  0
 26 27  1  0
 27 28  1  0
 22 29  2  0
  9 30  1  0
  6  1  1  0
 29 10  1  0
 30  4  1  0
 20 15  1  0
 28 23  1  0
  1 31  1  0
  2 32  1  0
  3 33  1  0
  6 34  1  0
  7 35  1  0
  7 36  1  0
  8 37  1  0
  8 38  1  0
 13 39  1  0
 14 40  1  0
 14 41  1  0
 15 42  1  0
 16 43  1  0
 16 44  1  0
 17 45  1  0
 17 46  1  0
 18 47  1  0
 18 48  1  0
 19 49  1  0
 19 50  1  0
 20 51  1  0
 20 52  1  0
 24 53  1  0
 24 54  1  0
 25 55  1  0
 25 56  1  0
 26 57  1  0
 27 58  1  0
 27 59  1  0
 28 60  1  0
 28 61  1  0
 30 62  1  0
 30 63  1  0
M  END
>  <smiles>  (48) 
c1ccc2c(c1)CCN(c1nc(NCC3CCCCC3)nc(N3CCNCC3)n1)C2

>  <score_type>  (48) 
oracle

>  <origin>  (48) 
autodockgpu

>  <m_score__min__energy>  (48) 
-9.9000000000000004

>  <m_primary>  (48) 
energy

>  <rmsd>  (48) 
3.906408477770344

>  <m_score__min__rmsd>  (48) 
3.906408477770344

>  <meeko>  (48) 
{"free_energy": -9.81, "intermolecular_energy": -11.3, "internal_energy": -0.96, "cluster_size": 39, "cluster_id": 1, "rank_in_cluster": 11}

>  <energy>  (48) 
-9.46

>  <cluster_rmsd>  (48) 
0.44

>  <cluster>  (48) 
2

$$$$

     RDKit          3D

 63 67  0  0  0  0  0  0  0  0999 V2000
  139.6120   68.0740  227.1530 C   0  0  0  0  0  0  0  0  0  0  0  0
  140.5490   68.9980  227.5700 C   0  0  0  0  0  0  0  0  0  0  0  0
  141.0100   69.9920  226.7180 C   0  0  0  0  0  0  0  0  0  0  0  0
  140.5430   70.0890  225.4160 C   0  0  0  0  0  0  0  0  0  0  0  0
  139.6050   69.1620  225.0000 C   0  0  0  0  0  0  0  0  0  0  0  0
  139.1530   68.1770  225.8560 C   0  0  0  0  0  0  0  0  0  0  0  0
  139.1010   69.2490  223.6290 C   0  0  0  0  0  0  0  0  0  0  0  0
  139.0590   70.6530  223.0920 C   0  0  0  0  0  0  0  0  0  0  0  0
  140.2560   71.4110  223.3980 N   0  0  0  0  0  0  0  0  0  0  0  0
  140.6760   72.4560  222.5210 C   0  0  0  0  0  0  0  0  0  0  0  0
  139.9570   73.5800  222.3340 N   0  0  0  0  0  0  0  0  0  0  0  0
  140.3320   74.5790  221.5130 C   0  0  0  0  0  0  0  0  0  0  0  0
  139.5480   75.7590  221.3360 N   0  0  0  0  0  0  0  0  0  0  0  0
  140.1740   76.9390  220.7990 C   0  0  0  0  0  0  0  0  0  0  0  0
  140.7230   77.7410  221.9640 C   0  0  0  0  0  0  0  0  0  0  0  0
  141.6670   78.8080  221.4500 C   0  0  0  0  0  0  0  0  0  0  0  0
  142.4490   79.3450  222.6050 C   0  0  0  0  0  0  0  0  0  0  0  0
  141.5710   79.4150  223.8170 C   0  0  0  0  0  0  0  0  0  0  0  0
  140.0970   79.5600  223.4570 C   0  0  0  0  0  0  0  0  0  0  0  0
  139.5970   78.2980  222.7740 C   0  0  0  0  0  0  0  0  0  0  0  0
  141.5060   74.4180  220.8470 N   0  0  0  0  0  0  0  0  0  0  0  0
  142.2660   73.3150  220.9940 C   0  0  0  0  0  0  0  0  0  0  0  0
  143.4980   73.1250  220.3080 N   0  0  0  0  0  0  0  0  0  0  0  0
  144.7080   73.7600  220.7670 C   0  0  0  0  0  0  0  0  0  0  0  0
  145.9470   73.1440  220.2170 C   0  0  0  0  0  0  0  0  0  0  0  0
  145.9080   73.0140  218.7940 N   0  0  0  0  0  0  0  0  0  0  0  0
  144.5980   72.9280  218.2240 C   0  0  0  0  0  0  0  0  0  0  0  0
  143.5680   72.2870  219.1280 C   0  0  0  0  0  0  0  0  0  0  0  0
  141.8280   72.3580  221.8320 N   0  0  0  0  0  0  0  0  0  0  0  0
  141.0730   71.1630  224.5730 C   0  0  0  0  0  0  0  0  0  0  0  0
  139.2457   67.2866  227.8282 H   0  0  0  0  0  0  0  0  0  0  0  0
  140.9379   68.9455  228.5976 H   0  0  0  0  0  0  0  0  0  0  0  0
  141.7568   70.7134  227.0810 H   0  0  0  0  0  0  0  0  0  0  0  0
  138.4066   67.4548  225.4938 H   0  0  0  0  0  0  0  0  0  0  0  0
  139.7539   68.6474  222.9795 H   0  0  0  0  0  0  0  0  0  0  0  0
  138.0660   68.8767  223.6411 H   0  0  0  0  0  0  0  0  0  0  0  0
  138.9426   70.6072  221.9991 H   0  0  0  0  0  0  0  0  0  0  0  0
  138.2126   71.1649  223.5733 H   0  0  0  0  0  0  0  0  0  0  0  0
  138.5460   75.7050  221.6110 H   0  0  0  0  0  0  0  0  0  0  0  0
  140.9926   76.6536  220.1219 H   0  0  0  0  0  0  0  0  0  0  0  0
  139.4463   77.5358  220.2295 H   0  0  0  0  0  0  0  0  0  0  0  0
  141.3056   77.0913  222.6336 H   0  0  0  0  0  0  0  0  0  0  0  0
  142.3524   78.3713  220.7087 H   0  0  0  0  0  0  0  0  0  0  0  0
  141.0964   79.6178  220.9719 H   0  0  0  0  0  0  0  0  0  0  0  0
  143.3026   78.6819  222.8091 H   0  0  0  0  0  0  0  0  0  0  0  0
  142.8159   80.3529  222.3609 H   0  0  0  0  0  0  0  0  0  0  0  0
  141.7029   78.4934  224.4029 H   0  0  0  0  0  0  0  0  0  0  0  0
  141.8651   80.3040  224.3942 H   0  0  0  0  0  0  0  0  0  0  0  0
  139.5143   79.7321  224.3739 H   0  0  0  0  0  0  0  0  0  0  0  0
  139.9772   80.4111  222.7706 H   0  0  0  0  0  0  0  0  0  0  0  0
  139.2804   77.5638  223.5295 H   0  0  0  0  0  0  0  0  0  0  0  0
  138.7352   78.5253  222.1293 H   0  0  0  0  0  0  0  0  0  0  0  0
  144.6819   74.8178  220.4662 H   0  0  0  0  0  0  0  0  0  0  0  0
  144.7433   73.6379  221.8596 H   0  0  0  0  0  0  0  0  0  0  0  0
  146.8059   73.7746  220.4903 H   0  0  0  0  0  0  0  0  0  0  0  0
  146.0356   72.1336  220.6428 H   0  0  0  0  0  0  0  0  0  0  0  0
  146.3800   73.8330  218.3270 H   0  0  0  0  0  0  0  0  0  0  0  0
  144.2593   73.9465  217.9832 H   0  0  0  0  0  0  0  0  0  0  0  0
  144.6820   72.2849  217.3355 H   0  0  0  0  0  0  0  0  0  0  0  0
  142.5895   72.2496  218.6268 H   0  0  0  0  0  0  0  0  0  0  0  0
  143.8426   71.2528  219.3831 H   0  0  0  0  0  0  0  0  0  0  0  0
  142.0855   70.8852  224.2449 H   0  0  0  0  0  0  0  0  0  0  0  0
  141.0774   72.0843  225.1739 H   0  0  0  0  0  0  0  0  0  0  0  0
  1  2  2  0
  2  3  1  0
  3  4  2  0
  4  5  1  0
  5  6  2  0
  5  7  1  0
  7  8  1  0
  8  9  1  0
  9 10  1  0
 10 11  2  0
 11 12  1  0
 12 13  1  0
 13 14  1  0
 14 15  1  0
 15 16  1  0
 16 17  1  0
 17 18  1  0
 18 19  1  0
 19 20  1  0
 12 21  2  0
 21 22  1  0
 22 23  1  0
 23 24  1  0
 24 25  1  0
 25 26  1  0
 26 27  1  0
 27 28  1  0
 22 29  2  0
  9 30  1  0
  6  1  1  0
 29 10  1  0
 30  4  1  0
 20 15  1  0
 28 23  1  0
  1 31  1  0
  2 32  1  0
  3 33  1  0
  6 34  1  0
  7 35  1  0
  7 36  1  0
  8 37  1  0
  8 38  1  0
 13 39  1  0
 14 40  1  0
 14 41  1  0
 15 42  1  0
 16 43  1  0
 16 44  1  0
 17 45  1  0
 17 46  1  0
 18 47  1  0
 18 48  1  0
 19 49  1  0
 19 50  1  0
 20 51  1  0
 20 52  1  0
 24 53  1  0
 24 54  1  0
 25 55  1  0
 25 56  1  0
 26 57  1  0
 27 58  1  0
 27 59  1  0
 28 60  1  0
 28 61  1  0
 30 62  1  0
 30 63  1  0
M  END
>  <smiles>  (49) 
c1ccc2c(c1)CCN(c1nc(NCC3CCCCC3)nc(N3CCNCC3)n1)C2

>  <score_type>  (49) 
oracle

>  <origin>  (49) 
autodockgpu

>  <m_score__min__energy>  (49) 
-9.9000000000000004

>  <m_primary>  (49) 
energy

>  <rmsd>  (49) 
3.8811616761882726

>  <m_score__min__rmsd>  (49) 
3.8811616761882726

>  <meeko>  (49) 
{"free_energy": -9.87, "intermolecular_energy": -11.36, "internal_energy": -0.92, "cluster_size": 39, "cluster_id": 1, "rank_in_cluster": 4}

>  <energy>  (49) 
-9.43

>  <cluster_rmsd>  (49) 
0.46

>  <cluster>  (49) 
2

$$$$

     RDKit          3D

 63 67  0  0  0  0  0  0  0  0999 V2000
  139.6310   68.5750  227.6330 C   0  0  0  0  0  0  0  0  0  0  0  0
  140.4420   69.6270  228.0080 C   0  0  0  0  0  0  0  0  0  0  0  0
  140.8740   70.5680  227.0850 C   0  0  0  0  0  0  0  0  0  0  0  0
  140.5050   70.4820  225.7500 C   0  0  0  0  0  0  0  0  0  0  0  0
  139.6930   69.4270  225.3770 C   0  0  0  0  0  0  0  0  0  0  0  0
  139.2680   68.4950  226.3040 C   0  0  0  0  0  0  0  0  0  0  0  0
  139.2940   69.3190  223.9730 C   0  0  0  0  0  0  0  0  0  0  0  0
  139.1640   70.6480  223.2820 C   0  0  0  0  0  0  0  0  0  0  0  0
  140.2580   71.5500  223.5830 N   0  0  0  0  0  0  0  0  0  0  0  0
  140.6470   72.5350  222.6260 C   0  0  0  0  0  0  0  0  0  0  0  0
  139.8800   73.6030  222.3300 N   0  0  0  0  0  0  0  0  0  0  0  0
  140.2260   74.5450  221.4320 C   0  0  0  0  0  0  0  0  0  0  0  0
  139.3900   75.6660  221.1400 N   0  0  0  0  0  0  0  0  0  0  0  0
  139.0630   76.5860  222.1980 C   0  0  0  0  0  0  0  0  0  0  0  0
  139.9830   77.7840  222.0700 C   0  0  0  0  0  0  0  0  0  0  0  0
  141.1040   77.6780  223.0820 C   0  0  0  0  0  0  0  0  0  0  0  0
  141.7850   79.0060  223.1760 C   0  0  0  0  0  0  0  0  0  0  0  0
  141.8410   79.6390  221.8200 C   0  0  0  0  0  0  0  0  0  0  0  0
  141.8190   78.6080  220.6980 C   0  0  0  0  0  0  0  0  0  0  0  0
  140.4750   77.9000  220.6630 C   0  0  0  0  0  0  0  0  0  0  0  0
  141.4200   74.3850  220.8030 N   0  0  0  0  0  0  0  0  0  0  0  0
  142.2280   73.3360  221.0590 C   0  0  0  0  0  0  0  0  0  0  0  0
  143.4820   73.1490  220.4130 N   0  0  0  0  0  0  0  0  0  0  0  0
  144.6570   73.8560  220.8560 C   0  0  0  0  0  0  0  0  0  0  0  0
  145.9300   73.2510  220.3740 C   0  0  0  0  0  0  0  0  0  0  0  0
  145.9290   73.0290  218.9620 N   0  0  0  0  0  0  0  0  0  0  0  0
  144.6370   72.8590  218.3700 C   0  0  0  0  0  0  0  0  0  0  0  0
  143.6090   72.2390  219.2910 C   0  0  0  0  0  0  0  0  0  0  0  0
  141.8160   72.4350  221.9690 N   0  0  0  0  0  0  0  0  0  0  0  0
  140.9980   71.5100  224.8310 C   0  0  0  0  0  0  0  0  0  0  0  0
  139.2874   67.8293  228.3650 H   0  0  0  0  0  0  0  0  0  0  0  0
  140.7518   69.7210  229.0593 H   0  0  0  0  0  0  0  0  0  0  0  0
  141.5190   71.3952  227.4164 H   0  0  0  0  0  0  0  0  0  0  0  0
  138.6232   67.6672  225.9740 H   0  0  0  0  0  0  0  0  0  0  0  0
  140.0500   68.7226  223.4412 H   0  0  0  0  0  0  0  0  0  0  0  0
  138.3008   68.8465  223.9545 H   0  0  0  0  0  0  0  0  0  0  0  0
  139.1384   70.4776  222.1956 H   0  0  0  0  0  0  0  0  0  0  0  0
  138.2385   71.1193  223.6445 H   0  0  0  0  0  0  0  0  0  0  0  0
  139.0550   75.7610  220.1600 H   0  0  0  0  0  0  0  0  0  0  0  0
  138.0151   76.9071  222.1043 H   0  0  0  0  0  0  0  0  0  0  0  0
  139.1917   76.1054  223.1790 H   0  0  0  0  0  0  0  0  0  0  0  0
  139.4349   78.7113  222.2930 H   0  0  0  0  0  0  0  0  0  0  0  0
  140.6926   77.4016  224.0640 H   0  0  0  0  0  0  0  0  0  0  0  0
  141.8231   76.9068  222.7687 H   0  0  0  0  0  0  0  0  0  0  0  0
  141.2233   79.6578  223.8613 H   0  0  0  0  0  0  0  0  0  0  0  0
  142.8076   78.8660  223.5563 H   0  0  0  0  0  0  0  0  0  0  0  0
  140.9735   80.3054  221.7048 H   0  0  0  0  0  0  0  0  0  0  0  0
  142.7876   80.1947  221.7473 H   0  0  0  0  0  0  0  0  0  0  0  0
  141.9884   79.1140  219.7361 H   0  0  0  0  0  0  0  0  0  0  0  0
  142.6113   77.8661  220.8764 H   0  0  0  0  0  0  0  0  0  0  0  0
  139.7604   78.4831  220.0635 H   0  0  0  0  0  0  0  0  0  0  0  0
  140.5772   76.9036  220.2082 H   0  0  0  0  0  0  0  0  0  0  0  0
  144.6011   74.8906  220.4865 H   0  0  0  0  0  0  0  0  0  0  0  0
  144.6702   73.8063  221.9548 H   0  0  0  0  0  0  0  0  0  0  0  0
  146.7597   73.9284  220.6242 H   0  0  0  0  0  0  0  0  0  0  0  0
  146.0438   72.2740  220.8664 H   0  0  0  0  0  0  0  0  0  0  0  0
  146.3830   73.8330  218.4530 H   0  0  0  0  0  0  0  0  0  0  0  0
  144.2683   73.8470  218.0570 H   0  0  0  0  0  0  0  0  0  0  0  0
  144.7649   72.1647  217.5264 H   0  0  0  0  0  0  0  0  0  0  0  0
  142.6446   72.1336  218.7725 H   0  0  0  0  0  0  0  0  0  0  0  0
  143.9132   71.2338  219.6181 H   0  0  0  0  0  0  0  0  0  0  0  0
  142.0548   71.3032  224.6065 H   0  0  0  0  0  0  0  0  0  0  0  0
  140.8689   72.4848  225.3241 H   0  0  0  0  0  0  0  0  0  0  0  0
  1  2  2  0
  2  3  1  0
  3  4  2  0
  4  5  1  0
  5  6  2  0
  5  7  1  0
  7  8  1  0
  8  9  1  0
  9 10  1  0
 10 11  2  0
 11 12  1  0
 12 13  1  0
 13 14  1  0
 14 15  1  0
 15 16  1  0
 16 17  1  0
 17 18  1  0
 18 19  1  0
 19 20  1  0
 12 21  2  0
 21 22  1  0
 22 23  1  0
 23 24  1  0
 24 25  1  0
 25 26  1  0
 26 27  1  0
 27 28  1  0
 22 29  2  0
  9 30  1  0
  6  1  1  0
 29 10  1  0
 30  4  1  0
 20 15  1  0
 28 23  1  0
  1 31  1  0
  2 32  1  0
  3 33  1  0
  6 34  1  0
  7 35  1  0
  7 36  1  0
  8 37  1  0
  8 38  1  0
 13 39  1  0
 14 40  1  0
 14 41  1  0
 15 42  1  0
 16 43  1  0
 16 44  1  0
 17 45  1  0
 17 46  1  0
 18 47  1  0
 18 48  1  0
 19 49  1  0
 19 50  1  0
 20 51  1  0
 20 52  1  0
 24 53  1  0
 24 54  1  0
 25 55  1  0
 25 56  1  0
 26 57  1  0
 27 58  1  0
 27 59  1  0
 28 60  1  0
 28 61  1  0
 30 62  1  0
 30 63  1  0
M  END
>  <smiles>  (50) 
c1ccc2c(c1)CCN(c1nc(NCC3CCCCC3)nc(N3CCNCC3)n1)C2

>  <score_type>  (50) 
oracle

>  <origin>  (50) 
autodockgpu

>  <m_score__min__energy>  (50) 
-9.9000000000000004

>  <m_primary>  (50) 
energy

>  <rmsd>  (50) 
3.912693618638679

>  <m_score__min__rmsd>  (50) 
3.912693618638679

>  <meeko>  (50) 
{"free_energy": -9.53, "intermolecular_energy": -11.02, "internal_energy": -1.1, "cluster_size": 39, "cluster_id": 1, "rank_in_cluster": 35}

>  <energy>  (50) 
-9.32

>  <cluster_rmsd>  (50) 
1.32

>  <cluster>  (50) 
2

$$$$
