
     RDKit          3D

 49 52  0  0  0  0  0  0  0  0999 V2000
  140.2130   73.6920  220.4880 O   0  0  0  0  0  0  0  0  0  0  0  0
  139.8250   73.8020  221.6820 C   0  0  0  0  0  0  0  0  0  0  0  0
  139.5270   75.1460  222.1640 N   0  0  0  0  0  0  0  0  0  0  0  0
  139.7110   76.1830  221.2260 C   0  0  0  0  0  0  0  0  0  0  0  0
  139.4080   77.5610  221.4950 C   0  0  0  0  0  0  0  0  0  0  0  0
  138.2330   77.9230  221.0090 O   0  0  0  0  0  0  0  0  0  0  0  0
  140.0760   78.5960  222.1540 N   0  0  0  0  0  0  0  0  0  0  0  0
  139.8360   79.2880  223.4240 C   0  0  0  0  0  0  0  0  0  0  0  0
  141.2760   79.2920  224.0140 C   0  0  0  0  0  0  0  0  0  0  0  0
  142.1960   79.0140  222.8090 C   0  0  2  0  0  0  0  0  0  0  0  0
  143.2920   79.8470  222.9010 O   0  0  0  0  0  0  0  0  0  0  0  0
  141.2750   79.3310  221.6700 C   0  0  1  0  0  0  0  0  0  0  0  0
  141.7240   79.0480  220.3380 C   0  0  0  0  0  0  0  0  0  0  0  0
  142.1400   77.8260  219.8550 C   0  0  0  0  0  0  0  0  0  0  0  0
  142.5610   77.6310  218.5630 C   0  0  0  0  0  0  0  0  0  0  0  0
  142.5890   78.6690  217.6710 C   0  0  0  0  0  0  0  0  0  0  0  0
  142.1850   79.9040  218.1110 C   0  0  0  0  0  0  0  0  0  0  0  0
  141.7620   80.0990  219.4070 C   0  0  0  0  0  0  0  0  0  0  0  0
  139.6660   72.6660  222.5750 C   0  0  0  0  0  0  0  0  0  0  0  0
  138.5780   71.8450  222.3630 C   0  0  0  0  0  0  0  0  0  0  0  0
  138.3840   70.7540  223.1840 C   0  0  0  0  0  0  0  0  0  0  0  0
  139.2710   70.4730  224.2200 C   0  0  0  0  0  0  0  0  0  0  0  0
  139.0760   69.3830  225.0400 C   0  0  0  0  0  0  0  0  0  0  0  0
  139.9930   69.1530  226.0550 C   0  0  0  0  0  0  0  0  0  0  0  0
  139.7980   67.7710  227.1410 Cl  0  0  0  0  0  0  0  0  0  0  0  0
  141.0690   70.0120  226.2230 C   0  0  0  0  0  0  0  0  0  0  0  0
  141.2650   71.1000  225.4080 C   0  0  0  0  0  0  0  0  0  0  0  0
  140.3550   71.3300  224.3960 C   0  0  0  0  0  0  0  0  0  0  0  0
  140.5350   72.4030  223.5790 N   0  0  0  0  0  0  0  0  0  0  0  0
  139.2050   75.1650  223.1340 H   0  0  0  0  0  0  0  0  0  0  0  0
  140.7769   76.1573  220.9555 H   0  0  0  0  0  0  0  0  0  0  0  0
  138.9401   75.9364  220.4811 H   0  0  0  0  0  0  0  0  0  0  0  0
  139.4578   80.3088  223.2663 H   0  0  0  0  0  0  0  0  0  0  0  0
  139.0759   78.8203  224.0671 H   0  0  0  0  0  0  0  0  0  0  0  0
  141.5086   80.2695  224.4617 H   0  0  0  0  0  0  0  0  0  0  0  0
  141.3998   78.5451  224.8120 H   0  0  0  0  0  0  0  0  0  0  0  0
  142.6196   78.0028  222.7192 H   0  0  0  0  0  0  0  0  0  0  0  0
  143.9950   79.5700  222.2360 H   0  0  0  0  0  0  0  0  0  0  0  0
  141.1304   80.4054  221.4838 H   0  0  0  0  0  0  0  0  0  0  0  0
  142.1344   76.9643  220.5387 H   0  0  0  0  0  0  0  0  0  0  0  0
  142.8796   76.6287  218.2407 H   0  0  0  0  0  0  0  0  0  0  0  0
  142.9247   78.5177  216.6345 H   0  0  0  0  0  0  0  0  0  0  0  0
  142.1992   80.7555  217.4147 H   0  0  0  0  0  0  0  0  0  0  0  0
  141.4455   81.1045  219.7214 H   0  0  0  0  0  0  0  0  0  0  0  0
  137.8719   72.0584  221.5470 H   0  0  0  0  0  0  0  0  0  0  0  0
  137.5173   70.0972  223.0183 H   0  0  0  0  0  0  0  0  0  0  0  0
  138.2160   68.7130  224.8936 H   0  0  0  0  0  0  0  0  0  0  0  0
  141.7868   69.8160  227.0332 H   0  0  0  0  0  0  0  0  0  0  0  0
  142.1243   71.7702  225.5578 H   0  0  0  0  0  0  0  0  0  0  0  0
  1  2  2  0
  2  3  1  0
  3  4  1  0
  4  5  1  0
  5  6  2  0
  5  7  1  0
  7  8  1  0
  8  9  1  0
  9 10  1  0
 10 11  1  0
 10 12  1  0
 12 13  1  0
 13 14  2  0
 14 15  1  0
 15 16  2  0
 16 17  1  0
 17 18  2  0
  2 19  1  0
 19 20  2  0
 20 21  1  0
 21 22  2  0
 22 23  1  0
 23 24  2  0
 24 25  1  0
 24 26  1  0
 26 27  2  0
 27 28  1  0
 28 29  2  0
 12  7  1  0
 18 13  1  0
 29 19  1  0
 28 22  1  0
  3 30  1  0
  4 31  1  0
  4 32  1  0
  8 33  1  0
  8 34  1  0
  9 35  1  0
  9 36  1  0
 10 37  1  6
 11 38  1  0
 12 39  1  6
 14 40  1  0
 15 41  1  0
 16 42  1  0
 17 43  1  0
 18 44  1  0
 20 45  1  0
 21 46  1  0
 23 47  1  0
 26 48  1  0
 27 49  1  0
M  END
>  <smiles>  (1) 
O=C(NCC(=O)N1CC[C@H](O)[C@H]1c1ccccc1)c1ccc2cc(Cl)ccc2n1

>  <score_type>  (1) 
oracle

>  <origin>  (1) 
autodockgpu

>  <m_score__min__energy>  (1) 
-8.5600000000000005

>  <m_primary>  (1) 
energy

>  <rmsd>  (1) 
4.352829828742846

>  <m_score__min__rmsd>  (1) 
4.352829828742846

>  <meeko>  (1) 
{"free_energy": -8.13, "intermolecular_energy": -9.92, "internal_energy": -1.22, "cluster_size": 12, "cluster_id": 2, "rank_in_cluster": 3}

>  <energy>  (1) 
-8.56

>  <cluster_rmsd>  (1) 
0.0

>  <cluster>  (1) 
1

$$$$

     RDKit          3D

 49 52  0  0  0  0  0  0  0  0999 V2000
  139.6690   72.0100  220.8750 O   0  0  0  0  0  0  0  0  0  0  0  0
  139.6820   72.4000  222.0740 C   0  0  0  0  0  0  0  0  0  0  0  0
  139.5470   73.8330  222.3090 N   0  0  0  0  0  0  0  0  0  0  0  0
  139.4150   74.6300  221.1540 C   0  0  0  0  0  0  0  0  0  0  0  0
  140.4410   75.5130  220.6750 C   0  0  0  0  0  0  0  0  0  0  0  0
  141.0490   76.1570  221.6570 O   0  0  0  0  0  0  0  0  0  0  0  0
  140.9360   75.8380  219.4100 N   0  0  0  0  0  0  0  0  0  0  0  0
  140.4070   76.6500  218.3100 C   0  0  0  0  0  0  0  0  0  0  0  0
  141.6690   77.4850  217.9490 C   0  0  0  0  0  0  0  0  0  0  0  0
  142.8450   76.7150  218.5810 C   0  0  2  0  0  0  0  0  0  0  0  0
  143.8900   76.7050  217.6790 O   0  0  0  0  0  0  0  0  0  0  0  0
  142.2150   75.3740  218.8100 C   0  0  1  0  0  0  0  0  0  0  0  0
  142.9630   74.3920  219.5370 C   0  0  0  0  0  0  0  0  0  0  0  0
  144.1780   74.5810  220.1620 C   0  0  0  0  0  0  0  0  0  0  0  0
  144.8390   73.5890  220.8410 C   0  0  0  0  0  0  0  0  0  0  0  0
  144.3090   72.3300  220.9310 C   0  0  0  0  0  0  0  0  0  0  0  0
  143.1020   72.0970  220.3250 C   0  0  0  0  0  0  0  0  0  0  0  0
  142.4380   73.0930  219.6430 C   0  0  0  0  0  0  0  0  0  0  0  0
  139.8230   71.4950  223.2030 C   0  0  0  0  0  0  0  0  0  0  0  0
  139.4240   70.1890  223.0170 C   0  0  0  0  0  0  0  0  0  0  0  0
  139.5390   69.2920  224.0590 C   0  0  0  0  0  0  0  0  0  0  0  0
  140.0510   69.6900  225.2910 C   0  0  0  0  0  0  0  0  0  0  0  0
  140.1650   68.7940  226.3310 C   0  0  0  0  0  0  0  0  0  0  0  0
  140.6820   69.2480  227.5350 C   0  0  0  0  0  0  0  0  0  0  0  0
  140.8530   68.1460  228.9080 Cl  0  0  0  0  0  0  0  0  0  0  0  0
  141.0670   70.5740  227.6660 C   0  0  0  0  0  0  0  0  0  0  0  0
  140.9540   71.4690  226.6310 C   0  0  0  0  0  0  0  0  0  0  0  0
  140.4410   71.0200  225.4320 C   0  0  0  0  0  0  0  0  0  0  0  0
  140.3220   71.8940  224.3960 N   0  0  0  0  0  0  0  0  0  0  0  0
  139.5520   74.0820  223.3010 H   0  0  0  0  0  0  0  0  0  0  0  0
  139.2116   73.9312  220.3292 H   0  0  0  0  0  0  0  0  0  0  0  0
  138.6491   75.3498  221.4784 H   0  0  0  0  0  0  0  0  0  0  0  0
  140.0765   76.0264  217.4662 H   0  0  0  0  0  0  0  0  0  0  0  0
  139.5178   77.2458  218.5638 H   0  0  0  0  0  0  0  0  0  0  0  0
  141.7909   77.5509  216.8578 H   0  0  0  0  0  0  0  0  0  0  0  0
  141.6027   78.5186  218.3194 H   0  0  0  0  0  0  0  0  0  0  0  0
  143.2780   77.1234  219.5060 H   0  0  0  0  0  0  0  0  0  0  0  0
  144.5400   75.9730  217.9110 H   0  0  0  0  0  0  0  0  0  0  0  0
  142.1171   74.7535  217.9070 H   0  0  0  0  0  0  0  0  0  0  0  0
  144.6405   75.5779  220.1135 H   0  0  0  0  0  0  0  0  0  0  0  0
  145.8056   73.8076  221.3184 H   0  0  0  0  0  0  0  0  0  0  0  0
  144.8354   71.5304  221.4728 H   0  0  0  0  0  0  0  0  0  0  0  0
  142.6542   71.0940  220.3844 H   0  0  0  0  0  0  0  0  0  0  0  0
  141.4717   72.8654  219.1692 H   0  0  0  0  0  0  0  0  0  0  0  0
  139.0179   69.8650  222.0474 H   0  0  0  0  0  0  0  0  0  0  0  0
  139.2220   68.2486  223.9145 H   0  0  0  0  0  0  0  0  0  0  0  0
  139.8541   67.7459  226.2096 H   0  0  0  0  0  0  0  0  0  0  0  0
  141.4750   70.9188  228.6276 H   0  0  0  0  0  0  0  0  0  0  0  0
  141.2645   72.5170  226.7548 H   0  0  0  0  0  0  0  0  0  0  0  0
  1  2  2  0
  2  3  1  0
  3  4  1  0
  4  5  1  0
  5  6  2  0
  5  7  1  0
  7  8  1  0
  8  9  1  0
  9 10  1  0
 10 11  1  0
 10 12  1  0
 12 13  1  0
 13 14  2  0
 14 15  1  0
 15 16  2  0
 16 17  1  0
 17 18  2  0
  2 19  1  0
 19 20  2  0
 20 21  1  0
 21 22  2  0
 22 23  1  0
 23 24  2  0
 24 25  1  0
 24 26  1  0
 26 27  2  0
 27 28  1  0
 28 29  2  0
 12  7  1  0
 18 13  1  0
 29 19  1  0
 28 22  1  0
  3 30  1  0
  4 31  1  0
  4 32  1  0
  8 33  1  0
  8 34  1  0
  9 35  1  0
  9 36  1  0
 10 37  1  1
 11 38  1  0
 12 39  1  6
 14 40  1  0
 15 41  1  0
 16 42  1  0
 17 43  1  0
 18 44  1  0
 20 45  1  0
 21 46  1  0
 23 47  1  0
 26 48  1  0
 27 49  1  0
M  END
>  <smiles>  (2) 
O=C(NCC(=O)N1CC[C@H](O)[C@H]1c1ccccc1)c1ccc2cc(Cl)ccc2n1

>  <score_type>  (2) 
oracle

>  <origin>  (2) 
autodockgpu

>  <m_score__min__energy>  (2) 
-8.5600000000000005

>  <m_primary>  (2) 
energy

>  <rmsd>  (2) 
1.8052135524595747

>  <m_score__min__rmsd>  (2) 
1.8052135524595747

>  <meeko>  (2) 
{"free_energy": -7.71, "intermolecular_energy": -9.5, "internal_energy": -1.98, "cluster_size": 11, "cluster_id": 5, "rank_in_cluster": 10}

>  <energy>  (2) 
-8.49

>  <cluster_rmsd>  (2) 
0.3

>  <cluster>  (2) 
1

$$$$

     RDKit          3D

 49 52  0  0  0  0  0  0  0  0999 V2000
  138.3630   79.1740  220.6300 O   0  0  0  0  0  0  0  0  0  0  0  0
  138.1140   79.0920  221.8630 C   0  0  0  0  0  0  0  0  0  0  0  0
  138.2370   77.7750  222.4800 N   0  0  0  0  0  0  0  0  0  0  0  0
  138.6260   76.7320  221.6160 C   0  0  0  0  0  0  0  0  0  0  0  0
  139.9790   76.2690  221.4870 C   0  0  0  0  0  0  0  0  0  0  0  0
  140.2610   75.2940  222.3350 O   0  0  0  0  0  0  0  0  0  0  0  0
  141.0550   76.6170  220.6680 N   0  0  0  0  0  0  0  0  0  0  0  0
  141.7440   75.9210  219.5760 C   0  0  0  0  0  0  0  0  0  0  0  0
  141.8340   77.0670  218.5280 C   0  0  0  0  0  0  0  0  0  0  0  0
  141.5970   78.3580  219.3360 C   0  0  2  0  0  0  0  0  0  0  0  0
  142.4920   79.3130  218.8960 O   0  0  0  0  0  0  0  0  0  0  0  0
  141.8530   77.8710  220.7300 C   0  0  1  0  0  0  0  0  0  0  0  0
  141.5850   78.7650  221.8180 C   0  0  0  0  0  0  0  0  0  0  0  0
  141.4550   78.4240  223.1470 C   0  0  0  0  0  0  0  0  0  0  0  0
  141.1950   79.3380  224.1380 C   0  0  0  0  0  0  0  0  0  0  0  0
  141.0460   80.6660  223.8430 C   0  0  0  0  0  0  0  0  0  0  0  0
  141.1670   81.0500  222.5320 C   0  0  0  0  0  0  0  0  0  0  0  0
  141.4280   80.1320  221.5390 C   0  0  0  0  0  0  0  0  0  0  0  0
  137.7180   80.2320  222.6730 C   0  0  0  0  0  0  0  0  0  0  0  0
  137.4240   81.4040  222.0100 C   0  0  0  0  0  0  0  0  0  0  0  0
  137.0430   82.5150  222.7350 C   0  0  0  0  0  0  0  0  0  0  0  0
  136.9530   82.4640  224.1230 C   0  0  0  0  0  0  0  0  0  0  0  0
  136.5730   83.5740  224.8460 C   0  0  0  0  0  0  0  0  0  0  0  0
  136.5000   83.4640  226.2270 C   0  0  0  0  0  0  0  0  0  0  0  0
  136.0190   84.8530  227.2110 Cl  0  0  0  0  0  0  0  0  0  0  0  0
  136.8080   82.2600  226.8420 C   0  0  0  0  0  0  0  0  0  0  0  0
  137.1870   81.1520  226.1230 C   0  0  0  0  0  0  0  0  0  0  0  0
  137.2590   81.2580  224.7500 C   0  0  0  0  0  0  0  0  0  0  0  0
  137.6340   80.1710  224.0230 N   0  0  0  0  0  0  0  0  0  0  0  0
  138.0340   77.7790  223.4820 H   0  0  0  0  0  0  0  0  0  0  0  0
  138.0365   75.8546  221.9205 H   0  0  0  0  0  0  0  0  0  0  0  0
  138.4659   77.1988  220.6329 H   0  0  0  0  0  0  0  0  0  0  0  0
  142.7407   75.5702  219.8819 H   0  0  0  0  0  0  0  0  0  0  0  0
  141.2397   75.0105  219.2201 H   0  0  0  0  0  0  0  0  0  0  0  0
  142.8270   77.0826  218.0550 H   0  0  0  0  0  0  0  0  0  0  0  0
  141.1027   76.9453  217.7154 H   0  0  0  0  0  0  0  0  0  0  0  0
  140.6101   78.8358  219.2474 H   0  0  0  0  0  0  0  0  0  0  0  0
  143.4330   78.9650  218.9690 H   0  0  0  0  0  0  0  0  0  0  0  0
  142.9161   77.7453  220.9830 H   0  0  0  0  0  0  0  0  0  0  0  0
  141.5651   77.3662  223.4279 H   0  0  0  0  0  0  0  0  0  0  0  0
  141.1055   78.9991  225.1806 H   0  0  0  0  0  0  0  0  0  0  0  0
  140.8358   81.4024  224.6327 H   0  0  0  0  0  0  0  0  0  0  0  0
  141.0534   82.1119  222.2684 H   0  0  0  0  0  0  0  0  0  0  0  0
  141.5158   80.4793  220.4990 H   0  0  0  0  0  0  0  0  0  0  0  0
  137.4923   81.4535  220.9132 H   0  0  0  0  0  0  0  0  0  0  0  0
  136.8076   83.4522  222.2094 H   0  0  0  0  0  0  0  0  0  0  0  0
  136.3340   84.5218  224.3416 H   0  0  0  0  0  0  0  0  0  0  0  0
  136.7471   82.1897  227.9381 H   0  0  0  0  0  0  0  0  0  0  0  0
  137.4267   80.2054  226.6294 H   0  0  0  0  0  0  0  0  0  0  0  0
  1  2  2  0
  2  3  1  0
  3  4  1  0
  4  5  1  0
  5  6  2  0
  5  7  1  0
  7  8  1  0
  8  9  1  0
  9 10  1  0
 10 11  1  0
 10 12  1  0
 12 13  1  0
 13 14  2  0
 14 15  1  0
 15 16  2  0
 16 17  1  0
 17 18  2  0
  2 19  1  0
 19 20  2  0
 20 21  1  0
 21 22  2  0
 22 23  1  0
 23 24  2  0
 24 25  1  0
 24 26  1  0
 26 27  2  0
 27 28  1  0
 28 29  2  0
 12  7  1  0
 18 13  1  0
 29 19  1  0
 28 22  1  0
  3 30  1  0
  4 31  1  0
  4 32  1  0
  8 33  1  0
  8 34  1  0
  9 35  1  0
  9 36  1  0
 10 37  1  1
 11 38  1  0
 12 39  1  6
 14 40  1  0
 15 41  1  0
 16 42  1  0
 17 43  1  0
 18 44  1  0
 20 45  1  0
 21 46  1  0
 23 47  1  0
 26 48  1  0
 27 49  1  0
M  END
>  <smiles>  (3) 
O=C(NCC(=O)N1CC[C@H](O)[C@H]1c1ccccc1)c1ccc2cc(Cl)ccc2n1

>  <score_type>  (3) 
oracle

>  <origin>  (3) 
autodockgpu

>  <m_score__min__energy>  (3) 
-8.5600000000000005

>  <m_primary>  (3) 
energy

>  <rmsd>  (3) 
8.94550166638299

>  <m_score__min__rmsd>  (3) 
8.94550166638299

>  <meeko>  (3) 
{"free_energy": -6.35, "intermolecular_energy": -8.14, "internal_energy": -2.77, "cluster_size": 3, "cluster_id": 10, "rank_in_cluster": 3}

>  <energy>  (3) 
-8.48

>  <cluster_rmsd>  (3) 
0.3

>  <cluster>  (3) 
1

$$$$

     RDKit          3D

 49 52  0  0  0  0  0  0  0  0999 V2000
  138.3100   79.5890  220.8160 O   0  0  0  0  0  0  0  0  0  0  0  0
  138.0280   79.4540  222.0380 C   0  0  0  0  0  0  0  0  0  0  0  0
  138.0900   78.1060  222.5900 N   0  0  0  0  0  0  0  0  0  0  0  0
  138.4640   77.0930  221.6840 C   0  0  0  0  0  0  0  0  0  0  0  0
  139.7280   76.4140  221.7270 C   0  0  0  0  0  0  0  0  0  0  0  0
  139.7970   75.5400  222.7180 O   0  0  0  0  0  0  0  0  0  0  0  0
  140.8930   76.4690  220.9580 N   0  0  0  0  0  0  0  0  0  0  0  0
  141.5720   75.4890  220.1040 C   0  0  0  0  0  0  0  0  0  0  0  0
  141.8670   76.3680  218.8540 C   0  0  0  0  0  0  0  0  0  0  0  0
  141.7250   77.8200  219.3520 C   0  0  2  0  0  0  0  0  0  0  0  0
  142.7530   78.5640  218.8090 O   0  0  0  0  0  0  0  0  0  0  0  0
  141.8230   77.6230  220.8340 C   0  0  1  0  0  0  0  0  0  0  0  0
  141.5840   78.7520  221.6830 C   0  0  0  0  0  0  0  0  0  0  0  0
  141.4010   80.0570  221.2800 C   0  0  0  0  0  0  0  0  0  0  0  0
  141.1780   81.0920  222.1540 C   0  0  0  0  0  0  0  0  0  0  0  0
  141.1270   80.8690  223.5040 C   0  0  0  0  0  0  0  0  0  0  0  0
  141.3050   79.5840  223.9500 C   0  0  0  0  0  0  0  0  0  0  0  0
  141.5280   78.5470  223.0720 C   0  0  0  0  0  0  0  0  0  0  0  0
  137.6520   80.5660  222.8940 C   0  0  0  0  0  0  0  0  0  0  0  0
  137.4820   81.7950  222.2930 C   0  0  0  0  0  0  0  0  0  0  0  0
  137.1250   82.8820  223.0650 C   0  0  0  0  0  0  0  0  0  0  0  0
  136.9350   82.7520  224.4380 C   0  0  0  0  0  0  0  0  0  0  0  0
  136.5790   83.8380  225.2070 C   0  0  0  0  0  0  0  0  0  0  0  0
  136.4040   83.6480  226.5700 C   0  0  0  0  0  0  0  0  0  0  0  0
  135.9470   85.0020  227.6110 Cl  0  0  0  0  0  0  0  0  0  0  0  0
  136.5890   82.3890  227.1220 C   0  0  0  0  0  0  0  0  0  0  0  0
  136.9450   81.3050  226.3570 C   0  0  0  0  0  0  0  0  0  0  0  0
  137.1180   81.4910  225.0010 C   0  0  0  0  0  0  0  0  0  0  0  0
  137.4710   80.4280  224.2290 N   0  0  0  0  0  0  0  0  0  0  0  0
  137.8640   78.0670  223.5860 H   0  0  0  0  0  0  0  0  0  0  0  0
  137.6989   76.3084  221.7789 H   0  0  0  0  0  0  0  0  0  0  0  0
  138.5628   77.6676  220.7512 H   0  0  0  0  0  0  0  0  0  0  0  0
  142.4975   75.1169  220.5677 H   0  0  0  0  0  0  0  0  0  0  0  0
  140.9928   74.5765  219.8994 H   0  0  0  0  0  0  0  0  0  0  0  0
  142.8857   76.1836  218.4822 H   0  0  0  0  0  0  0  0  0  0  0  0
  141.1850   76.1463  218.0199 H   0  0  0  0  0  0  0  0  0  0  0  0
  140.8090   78.3625  219.0751 H   0  0  0  0  0  0  0  0  0  0  0  0
  143.6360   78.2590  219.1830 H   0  0  0  0  0  0  0  0  0  0  0  0
  142.8437   77.4521  221.2068 H   0  0  0  0  0  0  0  0  0  0  0  0
  141.4353   80.2808  220.2035 H   0  0  0  0  0  0  0  0  0  0  0  0
  141.0388   82.1116  221.7655 H   0  0  0  0  0  0  0  0  0  0  0  0
  140.9489   81.6945  224.2089 H   0  0  0  0  0  0  0  0  0  0  0  0
  141.2689   79.3780  225.0299 H   0  0  0  0  0  0  0  0  0  0  0  0
  141.6661   77.5304  223.4688 H   0  0  0  0  0  0  0  0  0  0  0  0
  137.6294   81.9082  221.2088 H   0  0  0  0  0  0  0  0  0  0  0  0
  136.9888   83.8643  222.5890 H   0  0  0  0  0  0  0  0  0  0  0  0
  136.4372   84.8296  224.7524 H   0  0  0  0  0  0  0  0  0  0  0  0
  136.4464   82.2546  228.2044 H   0  0  0  0  0  0  0  0  0  0  0  0
  137.0884   80.3146  226.8137 H   0  0  0  0  0  0  0  0  0  0  0  0
  1  2  2  0
  2  3  1  0
  3  4  1  0
  4  5  1  0
  5  6  2  0
  5  7  1  0
  7  8  1  0
  8  9  1  0
  9 10  1  0
 10 11  1  0
 10 12  1  0
 12 13  1  0
 13 14  2  0
 14 15  1  0
 15 16  2  0
 16 17  1  0
 17 18  2  0
  2 19  1  0
 19 20  2  0
 20 21  1  0
 21 22  2  0
 22 23  1  0
 23 24  2  0
 24 25  1  0
 24 26  1  0
 26 27  2  0
 27 28  1  0
 28 29  2  0
 12  7  1  0
 18 13  1  0
 29 19  1  0
 28 22  1  0
  3 30  1  0
  4 31  1  0
  4 32  1  0
  8 33  1  0
  8 34  1  0
  9 35  1  0
  9 36  1  0
 10 37  1  1
 11 38  1  0
 12 39  1  6
 14 40  1  0
 15 41  1  0
 16 42  1  0
 17 43  1  0
 18 44  1  0
 20 45  1  0
 21 46  1  0
 23 47  1  0
 26 48  1  0
 27 49  1  0
M  END
>  <smiles>  (4) 
O=C(NCC(=O)N1CC[C@H](O)[C@H]1c1ccccc1)c1ccc2cc(Cl)ccc2n1

>  <score_type>  (4) 
oracle

>  <origin>  (4) 
autodockgpu

>  <m_score__min__energy>  (4) 
-8.5600000000000005

>  <m_primary>  (4) 
energy

>  <rmsd>  (4) 
9.129463374163786

>  <m_score__min__rmsd>  (4) 
9.129463374163786

>  <meeko>  (4) 
{"free_energy": -6.52, "intermolecular_energy": -8.31, "internal_energy": -2.63, "cluster_size": 3, "cluster_id": 10, "rank_in_cluster": 2}

>  <energy>  (4) 
-8.46

>  <cluster_rmsd>  (4) 
0.31

>  <cluster>  (4) 
1

$$$$

     RDKit          3D

 49 52  0  0  0  0  0  0  0  0999 V2000
  134.3070   69.2800  226.4620 O   0  0  0  0  0  0  0  0  0  0  0  0
  134.5970   70.4170  226.0000 C   0  0  0  0  0  0  0  0  0  0  0  0
  135.6910   70.4850  225.0390 N   0  0  0  0  0  0  0  0  0  0  0  0
  136.3090   69.2560  224.7310 C   0  0  0  0  0  0  0  0  0  0  0  0
  137.7190   69.1080  224.5080 C   0  0  0  0  0  0  0  0  0  0  0  0
  138.2710   68.2320  225.3310 O   0  0  0  0  0  0  0  0  0  0  0  0
  138.6310   69.6790  223.6170 N   0  0  0  0  0  0  0  0  0  0  0  0
  138.6770   69.7650  222.1540 C   0  0  0  0  0  0  0  0  0  0  0  0
  139.0460   71.2660  221.9750 C   0  0  0  0  0  0  0  0  0  0  0  0
  139.5990   71.7010  223.3460 C   0  0  2  0  0  0  0  0  0  0  0  0
  140.7100   72.4930  223.1320 O   0  0  0  0  0  0  0  0  0  0  0  0
  139.9020   70.3700  223.9660 C   0  0  1  0  0  0  0  0  0  0  0  0
  140.3090   70.3410  225.3400 C   0  0  0  0  0  0  0  0  0  0  0  0
  140.6770   69.2270  226.0630 C   0  0  0  0  0  0  0  0  0  0  0  0
  141.0540   69.2750  227.3820 C   0  0  0  0  0  0  0  0  0  0  0  0
  141.0820   70.4650  228.0580 C   0  0  0  0  0  0  0  0  0  0  0  0
  140.7230   71.6000  227.3770 C   0  0  0  0  0  0  0  0  0  0  0  0
  140.3440   71.5500  226.0530 C   0  0  0  0  0  0  0  0  0  0  0  0
  133.8970   71.6320  226.3820 C   0  0  0  0  0  0  0  0  0  0  0  0
  132.7270   71.4870  227.0970 C   0  0  0  0  0  0  0  0  0  0  0  0
  132.0260   72.6120  227.4820 C   0  0  0  0  0  0  0  0  0  0  0  0
  132.4850   73.8850  227.1580 C   0  0  0  0  0  0  0  0  0  0  0  0
  131.7840   75.0070  227.5430 C   0  0  0  0  0  0  0  0  0  0  0  0
  132.2910   76.2500  227.1910 C   0  0  0  0  0  0  0  0  0  0  0  0
  131.4370   77.7270  227.6560 Cl  0  0  0  0  0  0  0  0  0  0  0  0
  133.4720   76.3360  226.4700 C   0  0  0  0  0  0  0  0  0  0  0  0
  134.1720   75.2190  226.0850 C   0  0  0  0  0  0  0  0  0  0  0  0
  133.6720   73.9820  226.4340 C   0  0  0  0  0  0  0  0  0  0  0  0
  134.3530   72.8650  226.0610 N   0  0  0  0  0  0  0  0  0  0  0  0
  135.8670   71.4310  224.6940 H   0  0  0  0  0  0  0  0  0  0  0  0
  136.0648   68.5806  225.5642 H   0  0  0  0  0  0  0  0  0  0  0  0
  135.9131   69.0658  223.7225 H   0  0  0  0  0  0  0  0  0  0  0  0
  139.4475   69.1033  221.7315 H   0  0  0  0  0  0  0  0  0  0  0  0
  137.7525   69.4544  221.6453 H   0  0  0  0  0  0  0  0  0  0  0  0
  139.8100   71.3867  221.1929 H   0  0  0  0  0  0  0  0  0  0  0  0
  138.1822   71.8720  221.6642 H   0  0  0  0  0  0  0  0  0  0  0  0
  138.9414   72.3068  223.9868 H   0  0  0  0  0  0  0  0  0  0  0  0
  140.9600   72.4810  222.1570 H   0  0  0  0  0  0  0  0  0  0  0  0
  140.8204   69.8904  223.5966 H   0  0  0  0  0  0  0  0  0  0  0  0
  140.6682   68.2500  225.5576 H   0  0  0  0  0  0  0  0  0  0  0  0
  141.3366   68.3474  227.9013 H   0  0  0  0  0  0  0  0  0  0  0  0
  141.3832   70.5095  229.1150 H   0  0  0  0  0  0  0  0  0  0  0  0
  140.7379   72.5689  227.8976 H   0  0  0  0  0  0  0  0  0  0  0  0
  140.0614   72.4818  225.5413 H   0  0  0  0  0  0  0  0  0  0  0  0
  132.3560   70.4849  227.3580 H   0  0  0  0  0  0  0  0  0  0  0  0
  131.0921   72.5007  228.0525 H   0  0  0  0  0  0  0  0  0  0  0  0
  130.8478   74.9199  228.1139 H   0  0  0  0  0  0  0  0  0  0  0  0
  133.8600   77.3287  226.1982 H   0  0  0  0  0  0  0  0  0  0  0  0
  135.1073   75.3086  225.5130 H   0  0  0  0  0  0  0  0  0  0  0  0
  1  2  2  0
  2  3  1  0
  3  4  1  0
  4  5  1  0
  5  6  2  0
  5  7  1  0
  7  8  1  0
  8  9  1  0
  9 10  1  0
 10 11  1  0
 10 12  1  0
 12 13  1  0
 13 14  2  0
 14 15  1  0
 15 16  2  0
 16 17  1  0
 17 18  2  0
  2 19  1  0
 19 20  2  0
 20 21  1  0
 21 22  2  0
 22 23  1  0
 23 24  2  0
 24 25  1  0
 24 26  1  0
 26 27  2  0
 27 28  1  0
 28 29  2  0
 12  7  1  0
 18 13  1  0
 29 19  1  0
 28 22  1  0
  3 30  1  0
  4 31  1  0
  4 32  1  0
  8 33  1  0
  8 34  1  0
  9 35  1  0
  9 36  1  0
 10 37  1  1
 11 38  1  0
 12 39  1  6
 14 40  1  0
 15 41  1  0
 16 42  1  0
 17 43  1  0
 18 44  1  0
 20 45  1  0
 21 46  1  0
 23 47  1  0
 26 48  1  0
 27 49  1  0
M  END
>  <smiles>  (5) 
O=C(NCC(=O)N1CC[C@H](O)[C@H]1c1ccccc1)c1ccc2cc(Cl)ccc2n1

>  <score_type>  (5) 
oracle

>  <origin>  (5) 
autodockgpu

>  <m_score__min__energy>  (5) 
-8.5600000000000005

>  <m_primary>  (5) 
energy

>  <rmsd>  (5) 
7.693509580882789

>  <m_score__min__rmsd>  (5) 
7.693509580882789

>  <meeko>  (5) 
{"free_energy": -8.48, "intermolecular_energy": -10.27, "internal_energy": -1.41, "cluster_size": 9, "cluster_id": 1, "rank_in_cluster": 3}

>  <energy>  (5) 
-8.45

>  <cluster_rmsd>  (5) 
0.42

>  <cluster>  (5) 
1

$$$$

     RDKit          3D

 49 52  0  0  0  0  0  0  0  0999 V2000
  140.1280   72.4600  220.6810 O   0  0  0  0  0  0  0  0  0  0  0  0
  139.9420   72.8100  221.8780 C   0  0  0  0  0  0  0  0  0  0  0  0
  139.6480   74.2180  222.1200 N   0  0  0  0  0  0  0  0  0  0  0  0
  139.6040   75.0370  220.9740 C   0  0  0  0  0  0  0  0  0  0  0  0
  140.7740   75.5580  220.3230 C   0  0  0  0  0  0  0  0  0  0  0  0
  141.6270   76.0980  221.1760 O   0  0  0  0  0  0  0  0  0  0  0  0
  141.2070   75.6170  218.9960 N   0  0  0  0  0  0  0  0  0  0  0  0
  140.5870   76.1190  217.7660 C   0  0  0  0  0  0  0  0  0  0  0  0
  141.7720   76.9320  217.1690 C   0  0  0  0  0  0  0  0  0  0  0  0
  143.0190   76.4060  217.9050 C   0  0  2  0  0  0  0  0  0  0  0  0
  144.0350   76.2600  216.9820 O   0  0  0  0  0  0  0  0  0  0  0  0
  142.4990   75.1140  218.4590 C   0  0  1  0  0  0  0  0  0  0  0  0
  143.3390   74.3760  219.3550 C   0  0  0  0  0  0  0  0  0  0  0  0
  144.4530   74.8500  220.0130 C   0  0  0  0  0  0  0  0  0  0  0  0
  145.2140   74.0800  220.8580 C   0  0  0  0  0  0  0  0  0  0  0  0
  144.8920   72.7700  221.0910 C   0  0  0  0  0  0  0  0  0  0  0  0
  143.7910   72.2570  220.4560 C   0  0  0  0  0  0  0  0  0  0  0  0
  143.0280   73.0300  219.6090 C   0  0  0  0  0  0  0  0  0  0  0  0
  140.0090   71.8860  222.9970 C   0  0  0  0  0  0  0  0  0  0  0  0
  139.5600   70.6000  222.7800 C   0  0  0  0  0  0  0  0  0  0  0  0
  139.6030   69.6850  223.8120 C   0  0  0  0  0  0  0  0  0  0  0  0
  140.0930   70.0450  225.0650 C   0  0  0  0  0  0  0  0  0  0  0  0
  140.1350   69.1300  226.0940 C   0  0  0  0  0  0  0  0  0  0  0  0
  140.6330   69.5460  227.3210 C   0  0  0  0  0  0  0  0  0  0  0  0
  140.7130   68.4190  228.6820 Cl  0  0  0  0  0  0  0  0  0  0  0  0
  141.0700   70.8520  227.4830 C   0  0  0  0  0  0  0  0  0  0  0  0
  141.0290   71.7650  226.4580 C   0  0  0  0  0  0  0  0  0  0  0  0
  140.5350   71.3550  225.2370 C   0  0  0  0  0  0  0  0  0  0  0  0
  140.4870   72.2460  224.2110 N   0  0  0  0  0  0  0  0  0  0  0  0
  139.4960   74.4350  223.1080 H   0  0  0  0  0  0  0  0  0  0  0  0
  139.0696   74.4543  220.2092 H   0  0  0  0  0  0  0  0  0  0  0  0
  139.1620   75.9563  221.3858 H   0  0  0  0  0  0  0  0  0  0  0  0
  140.2803   75.2985  217.1007 H   0  0  0  0  0  0  0  0  0  0  0  0
  139.6632   76.6963  217.9185 H   0  0  0  0  0  0  0  0  0  0  0  0
  141.8572   76.7551  216.0867 H   0  0  0  0  0  0  0  0  0  0  0  0
  141.6393   78.0162  217.2987 H   0  0  0  0  0  0  0  0  0  0  0  0
  143.4460   77.0423  218.6941 H   0  0  0  0  0  0  0  0  0  0  0  0
  144.8870   75.9890  217.4450 H   0  0  0  0  0  0  0  0  0  0  0  0
  142.4226   74.2985  217.7248 H   0  0  0  0  0  0  0  0  0  0  0  0
  144.7476   75.8977  219.8535 H   0  0  0  0  0  0  0  0  0  0  0  0
  146.0919   74.5207  221.3530 H   0  0  0  0  0  0  0  0  0  0  0  0
  145.4979   72.1485  221.7667 H   0  0  0  0  0  0  0  0  0  0  0  0
  143.5111   71.2069  220.6262 H   0  0  0  0  0  0  0  0  0  0  0  0
  142.1517   72.5813  219.1184 H   0  0  0  0  0  0  0  0  0  0  0  0
  139.1713   70.3066  221.7937 H   0  0  0  0  0  0  0  0  0  0  0  0
  139.2458   68.6584  223.6429 H   0  0  0  0  0  0  0  0  0  0  0  0
  139.7835   68.0980  225.9473 H   0  0  0  0  0  0  0  0  0  0  0  0
  141.4613   71.1661  228.4619 H   0  0  0  0  0  0  0  0  0  0  0  0
  141.3810   72.7965  226.6067 H   0  0  0  0  0  0  0  0  0  0  0  0
  1  2  2  0
  2  3  1  0
  3  4  1  0
  4  5  1  0
  5  6  2  0
  5  7  1  0
  7  8  1  0
  8  9  1  0
  9 10  1  0
 10 11  1  0
 10 12  1  0
 12 13  1  0
 13 14  2  0
 14 15  1  0
 15 16  2  0
 16 17  1  0
 17 18  2  0
  2 19  1  0
 19 20  2  0
 20 21  1  0
 21 22  2  0
 22 23  1  0
 23 24  2  0
 24 25  1  0
 24 26  1  0
 26 27  2  0
 27 28  1  0
 28 29  2  0
 12  7  1  0
 18 13  1  0
 29 19  1  0
 28 22  1  0
  3 30  1  0
  4 31  1  0
  4 32  1  0
  8 33  1  0
  8 34  1  0
  9 35  1  0
  9 36  1  0
 10 37  1  1
 11 38  1  0
 12 39  1  6
 14 40  1  0
 15 41  1  0
 16 42  1  0
 17 43  1  0
 18 44  1  0
 20 45  1  0
 21 46  1  0
 23 47  1  0
 26 48  1  0
 27 49  1  0
M  END
>  <smiles>  (6) 
O=C(NCC(=O)N1CC[C@H](O)[C@H]1c1ccccc1)c1ccc2cc(Cl)ccc2n1

>  <score_type>  (6) 
oracle

>  <origin>  (6) 
autodockgpu

>  <m_score__min__energy>  (6) 
-8.5600000000000005

>  <m_primary>  (6) 
energy

>  <rmsd>  (6) 
1.9726966482666606

>  <m_score__min__rmsd>  (6) 
1.9726966482666606

>  <meeko>  (6) 
{"free_energy": -7.87, "intermolecular_energy": -9.66, "internal_energy": -1.96, "cluster_size": 11, "cluster_id": 5, "rank_in_cluster": 7}

>  <energy>  (6) 
-8.43

>  <cluster_rmsd>  (6) 
0.4

>  <cluster>  (6) 
1

$$$$

     RDKit          3D

 49 52  0  0  0  0  0  0  0  0999 V2000
  140.4750   72.9930  220.4730 O   0  0  0  0  0  0  0  0  0  0  0  0
  140.1260   73.2720  221.6520 C   0  0  0  0  0  0  0  0  0  0  0  0
  139.8830   74.6770  221.9600 N   0  0  0  0  0  0  0  0  0  0  0  0
  140.0680   75.5750  220.8890 C   0  0  0  0  0  0  0  0  0  0  0  0
  141.3570   75.9560  220.3840 C   0  0  0  0  0  0  0  0  0  0  0  0
  142.2960   75.0750  220.6840 O   0  0  0  0  0  0  0  0  0  0  0  0
  141.8340   77.0430  219.6480 N   0  0  0  0  0  0  0  0  0  0  0  0
  142.5030   77.1510  218.3480 C   0  0  0  0  0  0  0  0  0  0  0  0
  141.6970   78.3240  217.7180 C   0  0  0  0  0  0  0  0  0  0  0  0
  140.9980   79.0060  218.9090 C   0  0  2  0  0  0  0  0  0  0  0  0
  141.0900   80.3730  218.7380 O   0  0  0  0  0  0  0  0  0  0  0  0
  141.8050   78.4740  220.0550 C   0  0  1  0  0  0  0  0  0  0  0  0
  141.3650   78.7680  221.3860 C   0  0  0  0  0  0  0  0  0  0  0  0
  140.0600   78.8120  221.8280 C   0  0  0  0  0  0  0  0  0  0  0  0
  139.7120   79.1050  223.1230 C   0  0  0  0  0  0  0  0  0  0  0  0
  140.6720   79.3760  224.0610 C   0  0  0  0  0  0  0  0  0  0  0  0
  141.9840   79.3440  223.6650 C   0  0  0  0  0  0  0  0  0  0  0  0
  142.3320   79.0500  222.3650 C   0  0  0  0  0  0  0  0  0  0  0  0
  139.9610   72.2690  222.6910 C   0  0  0  0  0  0  0  0  0  0  0  0
  139.0080   71.2960  222.4820 C   0  0  0  0  0  0  0  0  0  0  0  0
  138.8140   70.3210  223.4400 C   0  0  0  0  0  0  0  0  0  0  0  0
  139.5690   70.3100  224.6100 C   0  0  0  0  0  0  0  0  0  0  0  0
  139.3740   69.3370  225.5660 C   0  0  0  0  0  0  0  0  0  0  0  0
  140.1550   69.3770  226.7120 C   0  0  0  0  0  0  0  0  0  0  0  0
  139.9530   68.1570  227.9750 Cl  0  0  0  0  0  0  0  0  0  0  0  0
  141.0990   70.3810  226.8700 C   0  0  0  0  0  0  0  0  0  0  0  0
  141.2940   71.3520  225.9190 C   0  0  0  0  0  0  0  0  0  0  0  0
  140.5200   71.3140  224.7780 C   0  0  0  0  0  0  0  0  0  0  0  0
  140.7000   72.2690  223.8260 N   0  0  0  0  0  0  0  0  0  0  0  0
  139.5910   74.8340  222.9270 H   0  0  0  0  0  0  0  0  0  0  0  0
  139.5284   75.1389  220.0354 H   0  0  0  0  0  0  0  0  0  0  0  0
  139.7290   76.5187  221.3413 H   0  0  0  0  0  0  0  0  0  0  0  0
  143.5683   77.4019  218.4580 H   0  0  0  0  0  0  0  0  0  0  0  0
  142.5088   76.2249  217.7545 H   0  0  0  0  0  0  0  0  0  0  0  0
  142.3716   79.0285  217.2095 H   0  0  0  0  0  0  0  0  0  0  0  0
  140.9800   77.9751  216.9603 H   0  0  0  0  0  0  0  0  0  0  0  0
  139.9239   78.8108  219.0436 H   0  0  0  0  0  0  0  0  0  0  0  0
  142.0060   80.6190  218.4020 H   0  0  0  0  0  0  0  0  0  0  0  0
  142.7874   78.9516  220.1843 H   0  0  0  0  0  0  0  0  0  0  0  0
  139.2569   78.6016  221.1063 H   0  0  0  0  0  0  0  0  0  0  0  0
  138.6504   79.1223  223.4104 H   0  0  0  0  0  0  0  0  0  0  0  0
  140.3989   79.6121  225.1001 H   0  0  0  0  0  0  0  0  0  0  0  0
  142.7744   79.5573  224.3997 H   0  0  0  0  0  0  0  0  0  0  0  0
  143.3959   79.0357  222.0860 H   0  0  0  0  0  0  0  0  0  0  0  0
  138.4074   71.2961  221.5604 H   0  0  0  0  0  0  0  0  0  0  0  0
  138.0535   69.5431  223.2770 H   0  0  0  0  0  0  0  0  0  0  0  0
  138.6192   68.5495  225.4243 H   0  0  0  0  0  0  0  0  0  0  0  0
  141.7097   70.3998  227.7847 H   0  0  0  0  0  0  0  0  0  0  0  0
  142.0480   72.1398  226.0634 H   0  0  0  0  0  0  0  0  0  0  0  0
  1  2  2  0
  2  3  1  0
  3  4  1  0
  4  5  1  0
  5  6  2  0
  5  7  1  0
  7  8  1  0
  8  9  1  0
  9 10  1  0
 10 11  1  0
 10 12  1  0
 12 13  1  0
 13 14  2  0
 14 15  1  0
 15 16  2  0
 16 17  1  0
 17 18  2  0
  2 19  1  0
 19 20  2  0
 20 21  1  0
 21 22  2  0
 22 23  1  0
 23 24  2  0
 24 25  1  0
 24 26  1  0
 26 27  2  0
 27 28  1  0
 28 29  2  0
 12  7  1  0
 18 13  1  0
 29 19  1  0
 28 22  1  0
  3 30  1  0
  4 31  1  0
  4 32  1  0
  8 33  1  0
  8 34  1  0
  9 35  1  0
  9 36  1  0
 10 37  1  1
 11 38  1  0
 12 39  1  6
 14 40  1  0
 15 41  1  0
 16 42  1  0
 17 43  1  0
 18 44  1  0
 20 45  1  0
 21 46  1  0
 23 47  1  0
 26 48  1  0
 27 49  1  0
M  END
>  <smiles>  (7) 
O=C(NCC(=O)N1CC[C@H](O)[C@H]1c1ccccc1)c1ccc2cc(Cl)ccc2n1

>  <score_type>  (7) 
oracle

>  <origin>  (7) 
autodockgpu

>  <m_score__min__energy>  (7) 
-8.5600000000000005

>  <m_primary>  (7) 
energy

>  <rmsd>  (7) 
2.8468115878265206

>  <m_score__min__rmsd>  (7) 
2.8468115878265206

>  <meeko>  (7) 
{"free_energy": -7.54, "intermolecular_energy": -9.33, "internal_energy": -1.36, "cluster_size": 4, "cluster_id": 3, "rank_in_cluster": 4}

>  <energy>  (7) 
-8.41

>  <cluster_rmsd>  (7) 
0.32

>  <cluster>  (7) 
1

$$$$

     RDKit          3D

 49 52  0  0  0  0  0  0  0  0999 V2000
  139.9840   72.3070  220.7240 O   0  0  0  0  0  0  0  0  0  0  0  0
  139.8670   72.6660  221.9270 C   0  0  0  0  0  0  0  0  0  0  0  0
  139.6330   74.0830  222.1790 N   0  0  0  0  0  0  0  0  0  0  0  0
  139.5630   74.9010  221.0330 C   0  0  0  0  0  0  0  0  0  0  0  0
  140.7070   75.5270  220.4320 C   0  0  0  0  0  0  0  0  0  0  0  0
  141.4910   76.1080  221.3250 O   0  0  0  0  0  0  0  0  0  0  0  0
  141.1740   75.6550  219.1220 N   0  0  0  0  0  0  0  0  0  0  0  0
  140.5910   76.2360  217.9080 C   0  0  0  0  0  0  0  0  0  0  0  0
  141.8010   77.0630  217.3870 C   0  0  0  0  0  0  0  0  0  0  0  0
  143.0230   76.4770  218.1210 C   0  0  2  0  0  0  0  0  0  0  0  0
  144.0590   76.3670  217.2150 O   0  0  0  0  0  0  0  0  0  0  0  0
  142.4710   75.1640  218.5870 C   0  0  1  0  0  0  0  0  0  0  0  0
  143.2790   74.3630  219.4590 C   0  0  0  0  0  0  0  0  0  0  0  0
  144.4350   74.7560  220.0980 C   0  0  0  0  0  0  0  0  0  0  0  0
  145.1610   73.9300  220.9200 C   0  0  0  0  0  0  0  0  0  0  0  0
  144.7580   72.6420  221.1490 C   0  0  0  0  0  0  0  0  0  0  0  0
  143.6120   72.2080  220.5330 C   0  0  0  0  0  0  0  0  0  0  0  0
  142.8850   73.0380  219.7090 C   0  0  0  0  0  0  0  0  0  0  0  0
  139.9540   71.7410  223.0450 C   0  0  0  0  0  0  0  0  0  0  0  0
  139.5120   70.4520  222.8330 C   0  0  0  0  0  0  0  0  0  0  0  0
  139.5750   69.5370  223.8640 C   0  0  0  0  0  0  0  0  0  0  0  0
  140.0770   69.9000  225.1110 C   0  0  0  0  0  0  0  0  0  0  0  0
  140.1380   68.9850  226.1390 C   0  0  0  0  0  0  0  0  0  0  0  0
  140.6480   69.4040  227.3600 C   0  0  0  0  0  0  0  0  0  0  0  0
  140.7520   68.2770  228.7190 Cl  0  0  0  0  0  0  0  0  0  0  0  0
  141.0770   70.7130  227.5180 C   0  0  0  0  0  0  0  0  0  0  0  0
  141.0160   71.6260  226.4940 C   0  0  0  0  0  0  0  0  0  0  0  0
  140.5110   71.2130  225.2780 C   0  0  0  0  0  0  0  0  0  0  0  0
  140.4430   72.1050  224.2540 N   0  0  0  0  0  0  0  0  0  0  0  0
  139.5340   74.3060  223.1720 H   0  0  0  0  0  0  0  0  0  0  0  0
  139.1144   74.2770  220.2460 H   0  0  0  0  0  0  0  0  0  0  0  0
  139.0242   75.7751  221.4275 H   0  0  0  0  0  0  0  0  0  0  0  0
  140.2892   75.4596  217.1896 H   0  0  0  0  0  0  0  0  0  0  0  0
  139.6719   76.8178  218.0715 H   0  0  0  0  0  0  0  0  0  0  0  0
  141.9101   76.9467  216.2986 H   0  0  0  0  0  0  0  0  0  0  0  0
  141.6802   78.1400  217.5756 H   0  0  0  0  0  0  0  0  0  0  0  0
  143.4399   77.0611  218.9547 H   0  0  0  0  0  0  0  0  0  0  0  0
  144.7970   75.8030  217.6010 H   0  0  0  0  0  0  0  0  0  0  0  0
  142.4003   74.3935  217.8051 H   0  0  0  0  0  0  0  0  0  0  0  0
  144.7944   75.7838  219.9415 H   0  0  0  0  0  0  0  0  0  0  0  0
  146.0762   74.3072  221.3996 H   0  0  0  0  0  0  0  0  0  0  0  0
  145.3354   71.9757  221.8067 H   0  0  0  0  0  0  0  0  0  0  0  0
  143.2669   71.1770  220.7004 H   0  0  0  0  0  0  0  0  0  0  0  0
  141.9708   72.6529  219.2336 H   0  0  0  0  0  0  0  0  0  0  0  0
  139.1131   70.1561  221.8515 H   0  0  0  0  0  0  0  0  0  0  0  0
  139.2241   68.5077  223.6986 H   0  0  0  0  0  0  0  0  0  0  0  0
  139.7920   67.9507  225.9961 H   0  0  0  0  0  0  0  0  0  0  0  0
  141.4780   71.0295  228.4922 H   0  0  0  0  0  0  0  0  0  0  0  0
  141.3610   72.6603  226.6394 H   0  0  0  0  0  0  0  0  0  0  0  0
  1  2  2  0
  2  3  1  0
  3  4  1  0
  4  5  1  0
  5  6  2  0
  5  7  1  0
  7  8  1  0
  8  9  1  0
  9 10  1  0
 10 11  1  0
 10 12  1  0
 12 13  1  0
 13 14  2  0
 14 15  1  0
 15 16  2  0
 16 17  1  0
 17 18  2  0
  2 19  1  0
 19 20  2  0
 20 21  1  0
 21 22  2  0
 22 23  1  0
 23 24  2  0
 24 25  1  0
 24 26  1  0
 26 27  2  0
 27 28  1  0
 28 29  2  0
 12  7  1  0
 18 13  1  0
 29 19  1  0
 28 22  1  0
  3 30  1  0
  4 31  1  0
  4 32  1  0
  8 33  1  0
  8 34  1  0
  9 35  1  0
  9 36  1  0
 10 37  1  1
 11 38  1  0
 12 39  1  6
 14 40  1  0
 15 41  1  0
 16 42  1  0
 17 43  1  0
 18 44  1  0
 20 45  1  0
 21 46  1  0
 23 47  1  0
 26 48  1  0
 27 49  1  0
M  END
>  <smiles>  (8) 
O=C(NCC(=O)N1CC[C@H](O)[C@H]1c1ccccc1)c1ccc2cc(Cl)ccc2n1

>  <score_type>  (8) 
oracle

>  <origin>  (8) 
autodockgpu

>  <m_score__min__energy>  (8) 
-8.5600000000000005

>  <m_primary>  (8) 
energy

>  <rmsd>  (8) 
1.9133291342227292

>  <m_score__min__rmsd>  (8) 
1.9133291342227292

>  <meeko>  (8) 
{"free_energy": -7.87, "intermolecular_energy": -9.66, "internal_energy": -1.97, "cluster_size": 11, "cluster_id": 5, "rank_in_cluster": 6}

>  <energy>  (8) 
-8.34

>  <cluster_rmsd>  (8) 
0.3

>  <cluster>  (8) 
1

$$$$

     RDKit          3D

 49 52  0  0  0  0  0  0  0  0999 V2000
  136.7310   77.6610  222.6850 O   0  0  0  0  0  0  0  0  0  0  0  0
  136.7190   76.4640  223.0810 C   0  0  0  0  0  0  0  0  0  0  0  0
  137.8290   75.6150  222.6660 N   0  0  0  0  0  0  0  0  0  0  0  0
  138.8030   76.2370  221.8590 C   0  0  0  0  0  0  0  0  0  0  0  0
  140.1090   75.6890  221.6230 C   0  0  0  0  0  0  0  0  0  0  0  0
  140.3130   74.5660  222.2920 O   0  0  0  0  0  0  0  0  0  0  0  0
  141.2040   76.0760  220.8470 N   0  0  0  0  0  0  0  0  0  0  0  0
  142.0750   75.3490  219.9170 C   0  0  0  0  0  0  0  0  0  0  0  0
  142.1140   76.3550  218.7310 C   0  0  0  0  0  0  0  0  0  0  0  0
  141.6420   77.6930  219.3330 C   0  0  2  0  0  0  0  0  0  0  0  0
  142.4440   78.6990  218.8340 O   0  0  0  0  0  0  0  0  0  0  0  0
  141.8260   77.4260  220.7960 C   0  0  1  0  0  0  0  0  0  0  0  0
  141.3460   78.4050  221.7270 C   0  0  0  0  0  0  0  0  0  0  0  0
  141.4440   78.3480  223.1010 C   0  0  0  0  0  0  0  0  0  0  0  0
  140.9570   79.3250  223.9330 C   0  0  0  0  0  0  0  0  0  0  0  0
  140.3340   80.4320  223.4210 C   0  0  0  0  0  0  0  0  0  0  0  0
  140.2150   80.5300  222.0590 C   0  0  0  0  0  0  0  0  0  0  0  0
  140.7040   79.5480  221.2250 C   0  0  0  0  0  0  0  0  0  0  0  0
  135.6640   75.9140  223.9150 C   0  0  0  0  0  0  0  0  0  0  0  0
  134.7000   76.7870  224.3700 C   0  0  0  0  0  0  0  0  0  0  0  0
  133.6770   76.3120  225.1660 C   0  0  0  0  0  0  0  0  0  0  0  0
  133.6090   74.9660  225.5130 C   0  0  0  0  0  0  0  0  0  0  0  0
  132.5880   74.4930  226.3070 C   0  0  0  0  0  0  0  0  0  0  0  0
  132.5730   73.1410  226.6200 C   0  0  0  0  0  0  0  0  0  0  0  0
  131.2880   72.4730  227.6360 Cl  0  0  0  0  0  0  0  0  0  0  0  0
  133.5690   72.3080  226.1360 C   0  0  0  0  0  0  0  0  0  0  0  0
  134.5890   72.7770  225.3440 C   0  0  0  0  0  0  0  0  0  0  0  0
  134.6060   74.1210  225.0300 C   0  0  0  0  0  0  0  0  0  0  0  0
  135.6080   74.6020  224.2470 N   0  0  0  0  0  0  0  0  0  0  0  0
  137.7670   74.6620  223.0300 H   0  0  0  0  0  0  0  0  0  0  0  0
  138.3420   76.3511  220.8668 H   0  0  0  0  0  0  0  0  0  0  0  0
  139.0494   77.1208  222.4658 H   0  0  0  0  0  0  0  0  0  0  0  0
  143.0756   75.1819  220.3424 H   0  0  0  0  0  0  0  0  0  0  0  0
  141.7273   74.3392  219.6537 H   0  0  0  0  0  0  0  0  0  0  0  0
  143.1361   76.4475  218.3350 H   0  0  0  0  0  0  0  0  0  0  0  0
  141.4811   76.0315  217.8915 H   0  0  0  0  0  0  0  0  0  0  0  0
  140.6153   78.0155  219.1052 H   0  0  0  0  0  0  0  0  0  0  0  0
  143.4140   78.4700  218.9750 H   0  0  0  0  0  0  0  0  0  0  0  0
  142.8680   77.4816  221.1442 H   0  0  0  0  0  0  0  0  0  0  0  0
  141.9375   77.4752  223.5534 H   0  0  0  0  0  0  0  0  0  0  0  0
  141.0682   79.2178  225.0221 H   0  0  0  0  0  0  0  0  0  0  0  0
  139.9412   81.2183  224.0824 H   0  0  0  0  0  0  0  0  0  0  0  0
  139.7193   81.4099  221.6231 H   0  0  0  0  0  0  0  0  0  0  0  0
  140.5882   79.6628  220.1372 H   0  0  0  0  0  0  0  0  0  0  0  0
  134.7451   77.8528  224.1014 H   0  0  0  0  0  0  0  0  0  0  0  0
  132.9057   77.0063  225.5307 H   0  0  0  0  0  0  0  0  0  0  0  0
  131.8055   75.1685  226.6830 H   0  0  0  0  0  0  0  0  0  0  0  0
  133.5422   71.2389  226.3937 H   0  0  0  0  0  0  0  0  0  0  0  0
  135.3710   72.0997  224.9702 H   0  0  0  0  0  0  0  0  0  0  0  0
  1  2  2  0
  2  3  1  0
  3  4  1  0
  4  5  1  0
  5  6  2  0
  5  7  1  0
  7  8  1  0
  8  9  1  0
  9 10  1  0
 10 11  1  0
 10 12  1  0
 12 13  1  0
 13 14  2  0
 14 15  1  0
 15 16  2  0
 16 17  1  0
 17 18  2  0
  2 19  1  0
 19 20  2  0
 20 21  1  0
 21 22  2  0
 22 23  1  0
 23 24  2  0
 24 25  1  0
 24 26  1  0
 26 27  2  0
 27 28  1  0
 28 29  2  0
 12  7  1  0
 18 13  1  0
 29 19  1  0
 28 22  1  0
  3 30  1  0
  4 31  1  0
  4 32  1  0
  8 33  1  0
  8 34  1  0
  9 35  1  0
  9 36  1  0
 10 37  1  1
 11 38  1  0
 12 39  1  6
 14 40  1  0
 15 41  1  0
 16 42  1  0
 17 43  1  0
 18 44  1  0
 20 45  1  0
 21 46  1  0
 23 47  1  0
 26 48  1  0
 27 49  1  0
M  END
>  <smiles>  (9) 
O=C(NCC(=O)N1CC[C@H](O)[C@H]1c1ccccc1)c1ccc2cc(Cl)ccc2n1

>  <score_type>  (9) 
oracle

>  <origin>  (9) 
autodockgpu

>  <m_score__min__energy>  (9) 
-8.5600000000000005

>  <m_primary>  (9) 
energy

>  <rmsd>  (9) 
6.076154570029586

>  <m_score__min__rmsd>  (9) 
6.076154570029586

>  <meeko>  (9) 
{"free_energy": -7.36, "intermolecular_energy": -9.15, "internal_energy": -1.83, "cluster_size": 2, "cluster_id": 8, "rank_in_cluster": 1}

>  <energy>  (9) 
-7.75

>  <cluster_rmsd>  (9) 
1.09

>  <cluster>  (9) 
1

$$$$

     RDKit          3D

 49 52  0  0  0  0  0  0  0  0999 V2000
  140.1870   72.4900  220.7090 O   0  0  0  0  0  0  0  0  0  0  0  0
  139.9490   72.8300  221.9000 C   0  0  0  0  0  0  0  0  0  0  0  0
  139.5920   74.2240  222.1350 N   0  0  0  0  0  0  0  0  0  0  0  0
  139.5540   75.0440  220.9890 C   0  0  0  0  0  0  0  0  0  0  0  0
  140.7250   75.5900  220.3620 C   0  0  0  0  0  0  0  0  0  0  0  0
  141.5720   76.1050  221.2370 O   0  0  0  0  0  0  0  0  0  0  0  0
  141.1650   75.6930  219.0400 N   0  0  0  0  0  0  0  0  0  0  0  0
  140.5500   76.2310  217.8230 C   0  0  0  0  0  0  0  0  0  0  0  0
  141.7350   77.0670  217.2590 C   0  0  0  0  0  0  0  0  0  0  0  0
  142.9800   76.5230  217.9850 C   0  0  2  0  0  0  0  0  0  0  0  0
  144.0020   76.4100  217.0640 O   0  0  0  0  0  0  0  0  0  0  0  0
  142.4620   75.2120  218.4940 C   0  0  1  0  0  0  0  0  0  0  0  0
  143.3000   74.4490  219.3720 C   0  0  0  0  0  0  0  0  0  0  0  0
  144.4100   74.9060  220.0490 C   0  0  0  0  0  0  0  0  0  0  0  0
  145.1690   74.1130  220.8740 C   0  0  0  0  0  0  0  0  0  0  0  0
  144.8500   72.7960  221.0660 C   0  0  0  0  0  0  0  0  0  0  0  0
  143.7530   72.2990  220.4100 C   0  0  0  0  0  0  0  0  0  0  0  0
  142.9920   73.0950  219.5830 C   0  0  0  0  0  0  0  0  0  0  0  0
  140.0150   71.9050  223.0190 C   0  0  0  0  0  0  0  0  0  0  0  0
  139.5600   70.6220  222.8040 C   0  0  0  0  0  0  0  0  0  0  0  0
  139.6020   69.7060  223.8360 C   0  0  0  0  0  0  0  0  0  0  0  0
  140.0970   70.0640  225.0870 C   0  0  0  0  0  0  0  0  0  0  0  0
  140.1380   69.1500  226.1170 C   0  0  0  0  0  0  0  0  0  0  0  0
  140.6410   69.5640  227.3420 C   0  0  0  0  0  0  0  0  0  0  0  0
  140.7200   68.4370  228.7030 Cl  0  0  0  0  0  0  0  0  0  0  0  0
  141.0840   70.8680  227.5030 C   0  0  0  0  0  0  0  0  0  0  0  0
  141.0430   71.7810  226.4780 C   0  0  0  0  0  0  0  0  0  0  0  0
  140.5440   71.3720  225.2580 C   0  0  0  0  0  0  0  0  0  0  0  0
  140.4970   72.2640  224.2320 N   0  0  0  0  0  0  0  0  0  0  0  0
  139.3990   74.4320  223.1170 H   0  0  0  0  0  0  0  0  0  0  0  0
  139.0470   74.4516  220.2131 H   0  0  0  0  0  0  0  0  0  0  0  0
  139.0853   75.9533  221.3933 H   0  0  0  0  0  0  0  0  0  0  0  0
  140.2505   75.4307  217.1303 H   0  0  0  0  0  0  0  0  0  0  0  0
  139.6229   76.7995  217.9882 H   0  0  0  0  0  0  0  0  0  0  0  0
  141.8270   76.9248  216.1721 H   0  0  0  0  0  0  0  0  0  0  0  0
  141.5971   78.1460  217.4223 H   0  0  0  0  0  0  0  0  0  0  0  0
  143.3999   77.1358  218.7963 H   0  0  0  0  0  0  0  0  0  0  0  0
  144.8180   76.0130  217.4990 H   0  0  0  0  0  0  0  0  0  0  0  0
  142.3930   74.4204  217.7333 H   0  0  0  0  0  0  0  0  0  0  0  0
  144.7026   75.9587  219.9221 H   0  0  0  0  0  0  0  0  0  0  0  0
  146.0432   74.5411  221.3863 H   0  0  0  0  0  0  0  0  0  0  0  0
  145.4545   72.1562  221.7257 H   0  0  0  0  0  0  0  0  0  0  0  0
  143.4754   71.2435  220.5471 H   0  0  0  0  0  0  0  0  0  0  0  0
  142.1198   72.6588  219.0742 H   0  0  0  0  0  0  0  0  0  0  0  0
  139.1669   70.3304  221.8189 H   0  0  0  0  0  0  0  0  0  0  0  0
  139.2400   68.6810  223.6678 H   0  0  0  0  0  0  0  0  0  0  0  0
  139.7815   68.1195  225.9721 H   0  0  0  0  0  0  0  0  0  0  0  0
  141.4799   71.1804  228.4806 H   0  0  0  0  0  0  0  0  0  0  0  0
  141.3986   72.8114  226.6255 H   0  0  0  0  0  0  0  0  0  0  0  0
  1  2  2  0
  2  3  1  0
  3  4  1  0
  4  5  1  0
  5  6  2  0
  5  7  1  0
  7  8  1  0
  8  9  1  0
  9 10  1  0
 10 11  1  0
 10 12  1  0
 12 13  1  0
 13 14  2  0
 14 15  1  0
 15 16  2  0
 16 17  1  0
 17 18  2  0
  2 19  1  0
 19 20  2  0
 20 21  1  0
 21 22  2  0
 22 23  1  0
 23 24  2  0
 24 25  1  0
 24 26  1  0
 26 27  2  0
 27 28  1  0
 28 29  2  0
 12  7  1  0
 18 13  1  0
 29 19  1  0
 28 22  1  0
  3 30  1  0
  4 31  1  0
  4 32  1  0
  8 33  1  0
  8 34  1  0
  9 35  1  0
  9 36  1  0
 10 37  1  1
 11 38  1  0
 12 39  1  6
 14 40  1  0
 15 41  1  0
 16 42  1  0
 17 43  1  0
 18 44  1  0
 20 45  1  0
 21 46  1  0
 23 47  1  0
 26 48  1  0
 27 49  1  0
M  END
>  <smiles>  (10) 
O=C(NCC(=O)N1CC[C@H](O)[C@H]1c1ccccc1)c1ccc2cc(Cl)ccc2n1

>  <score_type>  (10) 
oracle

>  <origin>  (10) 
autodockgpu

>  <m_score__min__energy>  (10) 
-8.5600000000000005

>  <m_primary>  (10) 
energy

>  <rmsd>  (10) 
1.9646449013915013

>  <m_score__min__rmsd>  (10) 
1.9646449013915013

>  <meeko>  (10) 
{"free_energy": -7.9, "intermolecular_energy": -9.69, "internal_energy": -1.94, "cluster_size": 11, "cluster_id": 5, "rank_in_cluster": 5}

>  <energy>  (10) 
-8.21

>  <cluster_rmsd>  (10) 
0.0

>  <cluster>  (10) 
2

$$$$

     RDKit          3D

 49 52  0  0  0  0  0  0  0  0999 V2000
  134.2070   69.1970  226.4700 O   0  0  0  0  0  0  0  0  0  0  0  0
  134.5740   70.3400  226.0850 C   0  0  0  0  0  0  0  0  0  0  0  0
  135.7680   70.4100  225.2510 N   0  0  0  0  0  0  0  0  0  0  0  0
  136.3840   69.1750  224.9660 C   0  0  0  0  0  0  0  0  0  0  0  0
  137.7590   69.0430  224.5730 C   0  0  0  0  0  0  0  0  0  0  0  0
  138.3820   68.0810  225.2330 O   0  0  0  0  0  0  0  0  0  0  0  0
  138.5790   69.7020  223.6530 N   0  0  0  0  0  0  0  0  0  0  0  0
  138.5680   69.7860  222.1890 C   0  0  0  0  0  0  0  0  0  0  0  0
  138.7760   71.3160  221.9980 C   0  0  0  0  0  0  0  0  0  0  0  0
  139.3260   71.8100  223.3500 C   0  0  2  0  0  0  0  0  0  0  0  0
  140.3430   72.7100  223.0990 O   0  0  0  0  0  0  0  0  0  0  0  0
  139.7830   70.5200  223.9590 C   0  0  1  0  0  0  0  0  0  0  0  0
  140.2350   70.5370  225.3190 C   0  0  0  0  0  0  0  0  0  0  0  0
  140.5780   69.4430  226.0840 C   0  0  0  0  0  0  0  0  0  0  0  0
  141.0020   69.5360  227.3860 C   0  0  0  0  0  0  0  0  0  0  0  0
  141.1060   70.7550  228.0020 C   0  0  0  0  0  0  0  0  0  0  0  0
  140.7750   71.8710  227.2780 C   0  0  0  0  0  0  0  0  0  0  0  0
  140.3490   71.7760  225.9710 C   0  0  0  0  0  0  0  0  0  0  0  0
  133.8670   71.5610  226.4340 C   0  0  0  0  0  0  0  0  0  0  0  0
  132.6880   71.4290  227.1360 C   0  0  0  0  0  0  0  0  0  0  0  0
  131.9810   72.5590  227.4910 C   0  0  0  0  0  0  0  0  0  0  0  0
  132.4430   73.8270  227.1490 C   0  0  0  0  0  0  0  0  0  0  0  0
  131.7360   74.9550  227.5030 C   0  0  0  0  0  0  0  0  0  0  0  0
  132.2450   76.1910  227.1350 C   0  0  0  0  0  0  0  0  0  0  0  0
  131.3840   77.6760  227.5600 Cl  0  0  0  0  0  0  0  0  0  0  0  0
  133.4360   76.2660  226.4280 C   0  0  0  0  0  0  0  0  0  0  0  0
  134.1420   75.1430  226.0730 C   0  0  0  0  0  0  0  0  0  0  0  0
  133.6390   73.9120  226.4390 C   0  0  0  0  0  0  0  0  0  0  0  0
  134.3260   72.7900  226.0960 N   0  0  0  0  0  0  0  0  0  0  0  0
  136.0040   71.3620  224.9620 H   0  0  0  0  0  0  0  0  0  0  0  0
  136.2727   68.5674  225.8762 H   0  0  0  0  0  0  0  0  0  0  0  0
  135.8689   68.8898  224.0369 H   0  0  0  0  0  0  0  0  0  0  0  0
  139.3877   69.2047  221.7416 H   0  0  0  0  0  0  0  0  0  0  0  0
  137.6641   69.3805  221.7109 H   0  0  0  0  0  0  0  0  0  0  0  0
  139.4979   71.5112  221.1913 H   0  0  0  0  0  0  0  0  0  0  0  0
  137.8452   71.8296  221.7156 H   0  0  0  0  0  0  0  0  0  0  0  0
  138.6315   72.3478  224.0121 H   0  0  0  0  0  0  0  0  0  0  0  0
  140.6810   72.5960  222.1580 H   0  0  0  0  0  0  0  0  0  0  0  0
  140.7330   70.1359  223.5589 H   0  0  0  0  0  0  0  0  0  0  0  0
  140.5084   68.4445  225.6278 H   0  0  0  0  0  0  0  0  0  0  0  0
  141.2610   68.6221  227.9406 H   0  0  0  0  0  0  0  0  0  0  0  0
  141.4447   70.8359  229.0454 H   0  0  0  0  0  0  0  0  0  0  0  0
  140.8509   72.8618  227.7497 H   0  0  0  0  0  0  0  0  0  0  0  0
  140.0914   72.6947  225.4237 H   0  0  0  0  0  0  0  0  0  0  0  0
  132.3143   70.4315  227.4106 H   0  0  0  0  0  0  0  0  0  0  0  0
  131.0401   72.4569  228.0515 H   0  0  0  0  0  0  0  0  0  0  0  0
  130.7924   74.8772  228.0630 H   0  0  0  0  0  0  0  0  0  0  0  0
  133.8265   77.2542  226.1433 H   0  0  0  0  0  0  0  0  0  0  0  0
  135.0843   75.2231  225.5112 H   0  0  0  0  0  0  0  0  0  0  0  0
  1  2  2  0
  2  3  1  0
  3  4  1  0
  4  5  1  0
  5  6  2  0
  5  7  1  0
  7  8  1  0
  8  9  1  0
  9 10  1  0
 10 11  1  0
 10 12  1  0
 12 13  1  0
 13 14  2  0
 14 15  1  0
 15 16  2  0
 16 17  1  0
 17 18  2  0
  2 19  1  0
 19 20  2  0
 20 21  1  0
 21 22  2  0
 22 23  1  0
 23 24  2  0
 24 25  1  0
 24 26  1  0
 26 27  2  0
 27 28  1  0
 28 29  2  0
 12  7  1  0
 18 13  1  0
 29 19  1  0
 28 22  1  0
  3 30  1  0
  4 31  1  0
  4 32  1  0
  8 33  1  0
  8 34  1  0
  9 35  1  0
  9 36  1  0
 10 37  1  1
 11 38  1  0
 12 39  1  6
 14 40  1  0
 15 41  1  0
 16 42  1  0
 17 43  1  0
 18 44  1  0
 20 45  1  0
 21 46  1  0
 23 47  1  0
 26 48  1  0
 27 49  1  0
M  END
>  <smiles>  (11) 
O=C(NCC(=O)N1CC[C@H](O)[C@H]1c1ccccc1)c1ccc2cc(Cl)ccc2n1

>  <score_type>  (11) 
oracle

>  <origin>  (11) 
autodockgpu

>  <m_score__min__energy>  (11) 
-8.5600000000000005

>  <m_primary>  (11) 
energy

>  <rmsd>  (11) 
7.708872976743896

>  <m_score__min__rmsd>  (11) 
7.708872976743896

>  <meeko>  (11) 
{"free_energy": -8.34, "intermolecular_energy": -10.13, "internal_energy": -1.44, "cluster_size": 9, "cluster_id": 1, "rank_in_cluster": 8}

>  <energy>  (11) 
-8.14

>  <cluster_rmsd>  (11) 
0.36

>  <cluster>  (11) 
2

$$$$

     RDKit          3D

 49 52  0  0  0  0  0  0  0  0999 V2000
  140.2760   72.4950  220.7340 O   0  0  0  0  0  0  0  0  0  0  0  0
  139.9780   72.8220  221.9150 C   0  0  0  0  0  0  0  0  0  0  0  0
  139.5710   74.2050  222.1400 N   0  0  0  0  0  0  0  0  0  0  0  0
  139.5570   75.0290  220.9960 C   0  0  0  0  0  0  0  0  0  0  0  0
  140.7440   75.5390  220.3690 C   0  0  0  0  0  0  0  0  0  0  0  0
  141.6150   76.0100  221.2460 O   0  0  0  0  0  0  0  0  0  0  0  0
  141.1810   75.6440  219.0460 N   0  0  0  0  0  0  0  0  0  0  0  0
  140.5580   76.1740  217.8290 C   0  0  0  0  0  0  0  0  0  0  0  0
  141.7340   77.0190  217.2610 C   0  0  0  0  0  0  0  0  0  0  0  0
  142.9860   76.4880  217.9850 C   0  0  2  0  0  0  0  0  0  0  0  0
  144.0070   76.3820  217.0620 O   0  0  0  0  0  0  0  0  0  0  0  0
  142.4810   75.1730  218.4980 C   0  0  1  0  0  0  0  0  0  0  0  0
  143.3280   74.4190  219.3750 C   0  0  0  0  0  0  0  0  0  0  0  0
  144.4110   74.8980  220.0810 C   0  0  0  0  0  0  0  0  0  0  0  0
  145.1810   74.1130  220.9030 C   0  0  0  0  0  0  0  0  0  0  0  0
  144.9010   72.7820  221.0630 C   0  0  0  0  0  0  0  0  0  0  0  0
  143.8310   72.2640  220.3790 C   0  0  0  0  0  0  0  0  0  0  0  0
  143.0590   73.0530  219.5540 C   0  0  0  0  0  0  0  0  0  0  0  0
  140.0230   71.8940  223.0330 C   0  0  0  0  0  0  0  0  0  0  0  0
  139.5500   70.6190  222.8120 C   0  0  0  0  0  0  0  0  0  0  0  0
  139.5720   69.7010  223.8430 C   0  0  0  0  0  0  0  0  0  0  0  0
  140.0650   70.0490  225.0980 C   0  0  0  0  0  0  0  0  0  0  0  0
  140.0860   69.1320  226.1260 C   0  0  0  0  0  0  0  0  0  0  0  0
  140.5900   69.5350  227.3540 C   0  0  0  0  0  0  0  0  0  0  0  0
  140.6440   68.4050  228.7130 Cl  0  0  0  0  0  0  0  0  0  0  0  0
  141.0520   70.8320  227.5190 C   0  0  0  0  0  0  0  0  0  0  0  0
  141.0320   71.7480  226.4960 C   0  0  0  0  0  0  0  0  0  0  0  0
  140.5330   71.3490  225.2730 C   0  0  0  0  0  0  0  0  0  0  0  0
  140.5050   72.2440  224.2490 N   0  0  0  0  0  0  0  0  0  0  0  0
  139.3300   74.4020  223.1140 H   0  0  0  0  0  0  0  0  0  0  0  0
  139.0303   74.4551  220.2193 H   0  0  0  0  0  0  0  0  0  0  0  0
  139.1176   75.9516  221.4030 H   0  0  0  0  0  0  0  0  0  0  0  0
  140.2641   75.3696  217.1387 H   0  0  0  0  0  0  0  0  0  0  0  0
  139.6261   76.7344  217.9950 H   0  0  0  0  0  0  0  0  0  0  0  0
  141.8248   76.8754  216.1742 H   0  0  0  0  0  0  0  0  0  0  0  0
  141.5867   78.0970  217.4229 H   0  0  0  0  0  0  0  0  0  0  0  0
  143.4022   77.1067  218.7937 H   0  0  0  0  0  0  0  0  0  0  0  0
  144.8220   75.9800  217.4920 H   0  0  0  0  0  0  0  0  0  0  0  0
  142.4172   74.3789  217.7394 H   0  0  0  0  0  0  0  0  0  0  0  0
  144.6711   75.9621  219.9807 H   0  0  0  0  0  0  0  0  0  0  0  0
  146.0323   74.5580  221.4390 H   0  0  0  0  0  0  0  0  0  0  0  0
  145.5151   72.1482  221.7196 H   0  0  0  0  0  0  0  0  0  0  0  0
  143.5842   71.1979  220.4911 H   0  0  0  0  0  0  0  0  0  0  0  0
  142.2095   72.6003  219.0216 H   0  0  0  0  0  0  0  0  0  0  0  0
  139.1587   70.3352  221.8239 H   0  0  0  0  0  0  0  0  0  0  0  0
  139.1954   68.6819  223.6709 H   0  0  0  0  0  0  0  0  0  0  0  0
  139.7132   68.1079  225.9771 H   0  0  0  0  0  0  0  0  0  0  0  0
  141.4467   71.1366  228.4995 H   0  0  0  0  0  0  0  0  0  0  0  0
  141.4037   72.7721  226.6475 H   0  0  0  0  0  0  0  0  0  0  0  0
  1  2  2  0
  2  3  1  0
  3  4  1  0
  4  5  1  0
  5  6  2  0
  5  7  1  0
  7  8  1  0
  8  9  1  0
  9 10  1  0
 10 11  1  0
 10 12  1  0
 12 13  1  0
 13 14  2  0
 14 15  1  0
 15 16  2  0
 16 17  1  0
 17 18  2  0
  2 19  1  0
 19 20  2  0
 20 21  1  0
 21 22  2  0
 22 23  1  0
 23 24  2  0
 24 25  1  0
 24 26  1  0
 26 27  2  0
 27 28  1  0
 28 29  2  0
 12  7  1  0
 18 13  1  0
 29 19  1  0
 28 22  1  0
  3 30  1  0
  4 31  1  0
  4 32  1  0
  8 33  1  0
  8 34  1  0
  9 35  1  0
  9 36  1  0
 10 37  1  1
 11 38  1  0
 12 39  1  6
 14 40  1  0
 15 41  1  0
 16 42  1  0
 17 43  1  0
 18 44  1  0
 20 45  1  0
 21 46  1  0
 23 47  1  0
 26 48  1  0
 27 49  1  0
M  END
>  <smiles>  (12) 
O=C(NCC(=O)N1CC[C@H](O)[C@H]1c1ccccc1)c1ccc2cc(Cl)ccc2n1

>  <score_type>  (12) 
oracle

>  <origin>  (12) 
autodockgpu

>  <m_score__min__energy>  (12) 
-8.5600000000000005

>  <m_primary>  (12) 
energy

>  <rmsd>  (12) 
1.9580558660098137

>  <m_score__min__rmsd>  (12) 
1.9580558660098137

>  <meeko>  (12) 
{"free_energy": -7.93, "intermolecular_energy": -9.72, "internal_energy": -1.9, "cluster_size": 11, "cluster_id": 5, "rank_in_cluster": 3}

>  <energy>  (12) 
-8.13

>  <cluster_rmsd>  (12) 
1.07

>  <cluster>  (12) 
2

$$$$

     RDKit          3D

 49 52  0  0  0  0  0  0  0  0999 V2000
  134.0040   69.5250  226.4550 O   0  0  0  0  0  0  0  0  0  0  0  0
  134.3870   70.6570  226.0530 C   0  0  0  0  0  0  0  0  0  0  0  0
  135.5470   70.6920  225.1700 N   0  0  0  0  0  0  0  0  0  0  0  0
  136.1160   69.4400  224.8630 C   0  0  0  0  0  0  0  0  0  0  0  0
  137.5150   69.2440  224.6010 C   0  0  0  0  0  0  0  0  0  0  0  0
  138.0600   68.3560  225.4160 O   0  0  0  0  0  0  0  0  0  0  0  0
  138.4190   69.7780  223.6810 N   0  0  0  0  0  0  0  0  0  0  0  0
  138.4090   69.8850  222.2190 C   0  0  0  0  0  0  0  0  0  0  0  0
  138.8550   71.3660  222.0460 C   0  0  0  0  0  0  0  0  0  0  0  0
  139.4890   71.7460  223.3980 C   0  0  2  0  0  0  0  0  0  0  0  0
  140.6330   72.4770  223.1480 O   0  0  0  0  0  0  0  0  0  0  0  0
  139.7400   70.3900  223.9850 C   0  0  1  0  0  0  0  0  0  0  0  0
  140.2020   70.3150  225.3400 C   0  0  0  0  0  0  0  0  0  0  0  0
  140.6150   69.1800  226.0040 C   0  0  0  0  0  0  0  0  0  0  0  0
  141.0440   69.1840  227.3080 C   0  0  0  0  0  0  0  0  0  0  0  0
  141.0810   70.3470  228.0290 C   0  0  0  0  0  0  0  0  0  0  0  0
  140.6780   71.5010  227.4070 C   0  0  0  0  0  0  0  0  0  0  0  0
  140.2490   71.4960  226.0980 C   0  0  0  0  0  0  0  0  0  0  0  0
  133.7300   71.8980  226.4280 C   0  0  0  0  0  0  0  0  0  0  0  0
  132.5630   71.7980  227.1560 C   0  0  0  0  0  0  0  0  0  0  0  0
  131.9020   72.9490  227.5360 C   0  0  0  0  0  0  0  0  0  0  0  0
  132.3990   74.2040  227.1940 C   0  0  0  0  0  0  0  0  0  0  0  0
  131.7380   75.3510  227.5730 C   0  0  0  0  0  0  0  0  0  0  0  0
  132.2810   76.5730  227.2040 C   0  0  0  0  0  0  0  0  0  0  0  0
  131.4800   78.0820  227.6610 Cl  0  0  0  0  0  0  0  0  0  0  0  0
  133.4580   76.6140  226.4720 C   0  0  0  0  0  0  0  0  0  0  0  0
  134.1180   75.4710  226.0920 C   0  0  0  0  0  0  0  0  0  0  0  0
  133.5810   74.2540  226.4580 C   0  0  0  0  0  0  0  0  0  0  0  0
  134.2220   73.1130  226.0900 N   0  0  0  0  0  0  0  0  0  0  0  0
  135.7980   71.6370  224.8700 H   0  0  0  0  0  0  0  0  0  0  0  0
  135.8755   68.7847  225.7132 H   0  0  0  0  0  0  0  0  0  0  0  0
  135.6844   69.2478  223.8696 H   0  0  0  0  0  0  0  0  0  0  0  0
  139.1225   69.1882  221.7549 H   0  0  0  0  0  0  0  0  0  0  0  0
  137.4481   69.6350  221.7454 H   0  0  0  0  0  0  0  0  0  0  0  0
  139.5910   71.4568  221.2336 H   0  0  0  0  0  0  0  0  0  0  0  0
  138.0147   72.0247  221.7814 H   0  0  0  0  0  0  0  0  0  0  0  0
  138.8952   72.3775  224.0752 H   0  0  0  0  0  0  0  0  0  0  0  0
  141.3030   71.9130  222.6530 H   0  0  0  0  0  0  0  0  0  0  0  0
  140.6129   69.8652  223.5695 H   0  0  0  0  0  0  0  0  0  0  0  0
  140.6001   68.2230  225.4619 H   0  0  0  0  0  0  0  0  0  0  0  0
  141.3616   68.2420  227.7788 H   0  0  0  0  0  0  0  0  0  0  0  0
  141.4232   70.3557  229.0744 H   0  0  0  0  0  0  0  0  0  0  0  0
  140.6977   72.4491  227.9643 H   0  0  0  0  0  0  0  0  0  0  0  0
  139.9348   72.4426  225.6341 H   0  0  0  0  0  0  0  0  0  0  0  0
  132.1628   70.8110  227.4312 H   0  0  0  0  0  0  0  0  0  0  0  0
  130.9706   72.8737  228.1164 H   0  0  0  0  0  0  0  0  0  0  0  0
  130.8046   75.2996  228.1527 H   0  0  0  0  0  0  0  0  0  0  0  0
  133.8755   77.5910  226.1872 H   0  0  0  0  0  0  0  0  0  0  0  0
  135.0505   75.5245  225.5110 H   0  0  0  0  0  0  0  0  0  0  0  0
  1  2  2  0
  2  3  1  0
  3  4  1  0
  4  5  1  0
  5  6  2  0
  5  7  1  0
  7  8  1  0
  8  9  1  0
  9 10  1  0
 10 11  1  0
 10 12  1  0
 12 13  1  0
 13 14  2  0
 14 15  1  0
 15 16  2  0
 16 17  1  0
 17 18  2  0
  2 19  1  0
 19 20  2  0
 20 21  1  0
 21 22  2  0
 22 23  1  0
 23 24  2  0
 24 25  1  0
 24 26  1  0
 26 27  2  0
 27 28  1  0
 28 29  2  0
 12  7  1  0
 18 13  1  0
 29 19  1  0
 28 22  1  0
  3 30  1  0
  4 31  1  0
  4 32  1  0
  8 33  1  0
  8 34  1  0
  9 35  1  0
  9 36  1  0
 10 37  1  1
 11 38  1  0
 12 39  1  6
 14 40  1  0
 15 41  1  0
 16 42  1  0
 17 43  1  0
 18 44  1  0
 20 45  1  0
 21 46  1  0
 23 47  1  0
 26 48  1  0
 27 49  1  0
M  END
>  <smiles>  (13) 
O=C(NCC(=O)N1CC[C@H](O)[C@H]1c1ccccc1)c1ccc2cc(Cl)ccc2n1

>  <score_type>  (13) 
oracle

>  <origin>  (13) 
autodockgpu

>  <m_score__min__energy>  (13) 
-8.5600000000000005

>  <m_primary>  (13) 
energy

>  <rmsd>  (13) 
7.833586379945267

>  <m_score__min__rmsd>  (13) 
7.833586379945267

>  <meeko>  (13) 
{"free_energy": -8.43, "intermolecular_energy": -10.22, "internal_energy": -1.46, "cluster_size": 9, "cluster_id": 1, "rank_in_cluster": 6}

>  <energy>  (13) 
-8.12

>  <cluster_rmsd>  (13) 
0.25

>  <cluster>  (13) 
2

$$$$

     RDKit          3D

 49 52  0  0  0  0  0  0  0  0999 V2000
  134.1190   69.2940  226.5030 O   0  0  0  0  0  0  0  0  0  0  0  0
  134.4720   70.4300  226.0850 C   0  0  0  0  0  0  0  0  0  0  0  0
  135.6270   70.4820  225.1960 N   0  0  0  0  0  0  0  0  0  0  0  0
  136.2240   69.2390  224.9010 C   0  0  0  0  0  0  0  0  0  0  0  0
  137.6180   69.0790  224.5970 C   0  0  0  0  0  0  0  0  0  0  0  0
  138.1980   68.1650  225.3570 O   0  0  0  0  0  0  0  0  0  0  0  0
  138.4920   69.6700  223.6810 N   0  0  0  0  0  0  0  0  0  0  0  0
  138.4860   69.7690  222.2190 C   0  0  0  0  0  0  0  0  0  0  0  0
  138.8300   71.2770  222.0410 C   0  0  0  0  0  0  0  0  0  0  0  0
  139.4250   71.7070  223.3960 C   0  0  2  0  0  0  0  0  0  0  0  0
  140.5170   72.5140  223.1510 O   0  0  0  0  0  0  0  0  0  0  0  0
  139.7650   70.3740  223.9920 C   0  0  1  0  0  0  0  0  0  0  0  0
  140.2190   70.3380  225.3510 C   0  0  0  0  0  0  0  0  0  0  0  0
  140.6240   69.2220  226.0520 C   0  0  0  0  0  0  0  0  0  0  0  0
  141.0450   69.2640  227.3580 C   0  0  0  0  0  0  0  0  0  0  0  0
  141.0830   70.4490  228.0430 C   0  0  0  0  0  0  0  0  0  0  0  0
  140.6890   71.5840  227.3840 C   0  0  0  0  0  0  0  0  0  0  0  0
  140.2660   71.5420  226.0740 C   0  0  0  0  0  0  0  0  0  0  0  0
  133.7870   71.6590  226.4480 C   0  0  0  0  0  0  0  0  0  0  0  0
  132.6130   71.5400  227.1600 C   0  0  0  0  0  0  0  0  0  0  0  0
  131.9250   72.6780  227.5280 C   0  0  0  0  0  0  0  0  0  0  0  0
  132.4040   73.9410  227.1900 C   0  0  0  0  0  0  0  0  0  0  0  0
  131.7170   75.0770  227.5580 C   0  0  0  0  0  0  0  0  0  0  0  0
  132.2420   76.3090  227.1930 C   0  0  0  0  0  0  0  0  0  0  0  0
  131.4070   77.8030  227.6360 Cl  0  0  0  0  0  0  0  0  0  0  0  0
  133.4280   76.3700  226.4770 C   0  0  0  0  0  0  0  0  0  0  0  0
  134.1140   75.2380  226.1080 C   0  0  0  0  0  0  0  0  0  0  0  0
  133.5950   74.0120  226.4710 C   0  0  0  0  0  0  0  0  0  0  0  0
  134.2620   72.8820  226.1140 N   0  0  0  0  0  0  0  0  0  0  0  0
  135.8530   71.4280  224.8820 H   0  0  0  0  0  0  0  0  0  0  0  0
  136.0321   68.5991  225.7749 H   0  0  0  0  0  0  0  0  0  0  0  0
  135.7656   69.0077  223.9282 H   0  0  0  0  0  0  0  0  0  0  0  0
  139.2495   69.1209  221.7640 H   0  0  0  0  0  0  0  0  0  0  0  0
  137.5484   69.4509  221.7398 H   0  0  0  0  0  0  0  0  0  0  0  0
  139.5647   71.4143  221.2340 H   0  0  0  0  0  0  0  0  0  0  0  0
  137.9484   71.8746  221.7660 H   0  0  0  0  0  0  0  0  0  0  0  0
  138.7834   72.2990  224.0652 H   0  0  0  0  0  0  0  0  0  0  0  0
  140.2250   73.4730  223.0610 H   0  0  0  0  0  0  0  0  0  0  0  0
  140.6756   69.9094  223.5859 H   0  0  0  0  0  0  0  0  0  0  0  0
  140.6090   68.2490  225.5390 H   0  0  0  0  0  0  0  0  0  0  0  0
  141.3552   68.3355  227.8597 H   0  0  0  0  0  0  0  0  0  0  0  0
  141.4193   70.4886  229.0896 H   0  0  0  0  0  0  0  0  0  0  0  0
  140.7110   72.5486  227.9122 H   0  0  0  0  0  0  0  0  0  0  0  0
  139.9569   72.4754  225.5808 H   0  0  0  0  0  0  0  0  0  0  0  0
  132.2278   70.5464  227.4326 H   0  0  0  0  0  0  0  0  0  0  0  0
  130.9869   72.5864  228.0951 H   0  0  0  0  0  0  0  0  0  0  0  0
  130.7774   75.0095  228.1260 H   0  0  0  0  0  0  0  0  0  0  0  0
  133.8317   77.3539  226.1961 H   0  0  0  0  0  0  0  0  0  0  0  0
  135.0523   75.3073  225.5382 H   0  0  0  0  0  0  0  0  0  0  0  0
  1  2  2  0
  2  3  1  0
  3  4  1  0
  4  5  1  0
  5  6  2  0
  5  7  1  0
  7  8  1  0
  8  9  1  0
  9 10  1  0
 10 11  1  0
 10 12  1  0
 12 13  1  0
 13 14  2  0
 14 15  1  0
 15 16  2  0
 16 17  1  0
 17 18  2  0
  2 19  1  0
 19 20  2  0
 20 21  1  0
 21 22  2  0
 22 23  1  0
 23 24  2  0
 24 25  1  0
 24 26  1  0
 26 27  2  0
 27 28  1  0
 28 29  2  0
 12  7  1  0
 18 13  1  0
 29 19  1  0
 28 22  1  0
  3 30  1  0
  4 31  1  0
  4 32  1  0
  8 33  1  0
  8 34  1  0
  9 35  1  0
  9 36  1  0
 10 37  1  1
 11 38  1  0
 12 39  1  6
 14 40  1  0
 15 41  1  0
 16 42  1  0
 17 43  1  0
 18 44  1  0
 20 45  1  0
 21 46  1  0
 23 47  1  0
 26 48  1  0
 27 49  1  0
M  END
>  <smiles>  (14) 
O=C(NCC(=O)N1CC[C@H](O)[C@H]1c1ccccc1)c1ccc2cc(Cl)ccc2n1

>  <score_type>  (14) 
oracle

>  <origin>  (14) 
autodockgpu

>  <m_score__min__energy>  (14) 
-8.5600000000000005

>  <m_primary>  (14) 
energy

>  <rmsd>  (14) 
7.7922912342396335

>  <m_score__min__rmsd>  (14) 
7.7922912342396335

>  <meeko>  (14) 
{"free_energy": -8.56, "intermolecular_energy": -10.35, "internal_energy": -1.45, "cluster_size": 9, "cluster_id": 1, "rank_in_cluster": 1}

>  <energy>  (14) 
-8.12

>  <cluster_rmsd>  (14) 
0.17

>  <cluster>  (14) 
2

$$$$

     RDKit          3D

 49 52  0  0  0  0  0  0  0  0999 V2000
  138.6220   81.3430  223.4920 O   0  0  0  0  0  0  0  0  0  0  0  0
  137.4430   80.9770  223.7510 C   0  0  0  0  0  0  0  0  0  0  0  0
  136.7080   80.3000  222.6870 N   0  0  0  0  0  0  0  0  0  0  0  0
  137.4100   80.1290  221.4770 C   0  0  0  0  0  0  0  0  0  0  0  0
  138.1120   78.9260  221.1270 C   0  0  0  0  0  0  0  0  0  0  0  0
  138.5230   78.9300  219.8700 O   0  0  0  0  0  0  0  0  0  0  0  0
  138.4560   77.7620  221.8170 N   0  0  0  0  0  0  0  0  0  0  0  0
  137.7150   76.5390  222.1430 C   0  0  0  0  0  0  0  0  0  0  0  0
  138.7730   75.4640  221.7620 C   0  0  0  0  0  0  0  0  0  0  0  0
  140.1100   76.2290  221.7080 C   0  0  2  0  0  0  0  0  0  0  0  0
  141.0790   75.4480  222.3070 O   0  0  0  0  0  0  0  0  0  0  0  0
  139.7580   77.4690  222.4730 C   0  0  1  0  0  0  0  0  0  0  0  0
  140.7220   78.5290  222.5220 C   0  0  0  0  0  0  0  0  0  0  0  0
  141.2990   79.1630  221.4430 C   0  0  0  0  0  0  0  0  0  0  0  0
  142.2210   80.1730  221.5660 C   0  0  0  0  0  0  0  0  0  0  0  0
  142.6190   80.6090  222.8010 C   0  0  0  0  0  0  0  0  0  0  0  0
  142.0700   80.0060  223.9030 C   0  0  0  0  0  0  0  0  0  0  0  0
  141.1450   78.9920  223.7780 C   0  0  0  0  0  0  0  0  0  0  0  0
  136.8050   81.2000  225.0370 C   0  0  0  0  0  0  0  0  0  0  0  0
  137.4740   81.9950  225.9430 C   0  0  0  0  0  0  0  0  0  0  0  0
  136.9090   82.2360  227.1790 C   0  0  0  0  0  0  0  0  0  0  0  0
  135.6750   81.6880  227.5190 C   0  0  0  0  0  0  0  0  0  0  0  0
  135.1120   81.9300  228.7530 C   0  0  0  0  0  0  0  0  0  0  0  0
  133.8810   81.3570  229.0350 C   0  0  0  0  0  0  0  0  0  0  0  0
  133.1060   81.6290  230.6010 Cl  0  0  0  0  0  0  0  0  0  0  0  0
  133.2520   80.5650  228.0860 C   0  0  0  0  0  0  0  0  0  0  0  0
  133.8120   80.3230  226.8550 C   0  0  0  0  0  0  0  0  0  0  0  0
  135.0360   80.8920  226.5710 C   0  0  0  0  0  0  0  0  0  0  0  0
  135.6050   80.6620  225.3570 N   0  0  0  0  0  0  0  0  0  0  0  0
  135.7660   80.0190  222.9640 H   0  0  0  0  0  0  0  0  0  0  0  0
  136.6721   80.2890  220.6771 H   0  0  0  0  0  0  0  0  0  0  0  0
  138.2459   80.8306  221.6151 H   0  0  0  0  0  0  0  0  0  0  0  0
  137.4544   76.4933  223.2107 H   0  0  0  0  0  0  0  0  0  0  0  0
  136.7477   76.4357  221.6295 H   0  0  0  0  0  0  0  0  0  0  0  0
  138.8109   74.6708  222.5232 H   0  0  0  0  0  0  0  0  0  0  0  0
  138.5382   74.9705  220.8074 H   0  0  0  0  0  0  0  0  0  0  0  0
  140.5168   76.4670  220.7141 H   0  0  0  0  0  0  0  0  0  0  0  0
  141.8770   76.0120  222.5480 H   0  0  0  0  0  0  0  0  0  0  0  0
  139.7203   77.3391  223.5647 H   0  0  0  0  0  0  0  0  0  0  0  0
  141.0061   78.8437  220.4319 H   0  0  0  0  0  0  0  0  0  0  0  0
  142.6442   80.6366  220.6627 H   0  0  0  0  0  0  0  0  0  0  0  0
  143.3566   81.4183  222.9060 H   0  0  0  0  0  0  0  0  0  0  0  0
  142.3738   80.3380  224.9067 H   0  0  0  0  0  0  0  0  0  0  0  0
  140.7271   78.5334  224.6863 H   0  0  0  0  0  0  0  0  0  0  0  0
  138.4490   82.4332  225.6833 H   0  0  0  0  0  0  0  0  0  0  0  0
  137.4404   82.8691  227.9048 H   0  0  0  0  0  0  0  0  0  0  0  0
  135.6249   82.5605  229.4943 H   0  0  0  0  0  0  0  0  0  0  0  0
  132.2762   80.1175  228.3259 H   0  0  0  0  0  0  0  0  0  0  0  0
  133.2977   79.6920  226.1152 H   0  0  0  0  0  0  0  0  0  0  0  0
  1  2  2  0
  2  3  1  0
  3  4  1  0
  4  5  1  0
  5  6  2  0
  5  7  1  0
  7  8  1  0
  8  9  1  0
  9 10  1  0
 10 11  1  0
 10 12  1  0
 12 13  1  0
 13 14  2  0
 14 15  1  0
 15 16  2  0
 16 17  1  0
 17 18  2  0
  2 19  1  0
 19 20  2  0
 20 21  1  0
 21 22  2  0
 22 23  1  0
 23 24  2  0
 24 25  1  0
 24 26  1  0
 26 27  2  0
 27 28  1  0
 28 29  2  0
 12  7  1  0
 18 13  1  0
 29 19  1  0
 28 22  1  0
  3 30  1  0
  4 31  1  0
  4 32  1  0
  8 33  1  0
  8 34  1  0
  9 35  1  0
  9 36  1  0
 10 37  1  6
 11 38  1  0
 12 39  1  1
 14 40  1  0
 15 41  1  0
 16 42  1  0
 17 43  1  0
 18 44  1  0
 20 45  1  0
 21 46  1  0
 23 47  1  0
 26 48  1  0
 27 49  1  0
M  END
>  <smiles>  (15) 
O=C(NCC(=O)N1CC[C@H](O)[C@H]1c1ccccc1)c1ccc2cc(Cl)ccc2n1

>  <score_type>  (15) 
oracle

>  <origin>  (15) 
autodockgpu

>  <m_score__min__energy>  (15) 
-8.5600000000000005

>  <m_primary>  (15) 
energy

>  <rmsd>  (15) 
9.698259341781236

>  <m_score__min__rmsd>  (15) 
9.698259341781236

>  <meeko>  (15) 
{"free_energy": -7.1, "intermolecular_energy": -8.89, "internal_energy": -2.03, "cluster_size": 3, "cluster_id": 9, "rank_in_cluster": 2}

>  <energy>  (15) 
-8.01

>  <cluster_rmsd>  (15) 
0.69

>  <cluster>  (15) 
2

$$$$

     RDKit          3D

 49 52  0  0  0  0  0  0  0  0999 V2000
  139.5380   71.9790  220.6890 O   0  0  0  0  0  0  0  0  0  0  0  0
  139.3380   72.3380  221.8810 C   0  0  0  0  0  0  0  0  0  0  0  0
  138.8710   73.7030  222.0960 N   0  0  0  0  0  0  0  0  0  0  0  0
  138.6950   74.4760  220.9300 C   0  0  0  0  0  0  0  0  0  0  0  0
  139.7570   74.7880  220.0150 C   0  0  0  0  0  0  0  0  0  0  0  0
  139.3060   75.2200  218.8490 O   0  0  0  0  0  0  0  0  0  0  0  0
  141.1510   74.7390  220.0840 N   0  0  0  0  0  0  0  0  0  0  0  0
  142.1250   73.6740  219.8270 C   0  0  0  0  0  0  0  0  0  0  0  0
  143.1660   74.4500  218.9700 C   0  0  0  0  0  0  0  0  0  0  0  0
  142.8700   75.9380  219.2440 C   0  0  2  0  0  0  0  0  0  0  0  0
  144.0730   76.5970  219.3940 O   0  0  0  0  0  0  0  0  0  0  0  0
  142.0600   75.8390  220.5010 C   0  0  1  0  0  0  0  0  0  0  0  0
  141.4540   77.0340  221.0100 C   0  0  0  0  0  0  0  0  0  0  0  0
  141.4760   78.2800  220.4210 C   0  0  0  0  0  0  0  0  0  0  0  0
  140.8720   79.3840  220.9700 C   0  0  0  0  0  0  0  0  0  0  0  0
  140.2030   79.2960  222.1610 C   0  0  0  0  0  0  0  0  0  0  0  0
  140.1560   78.0750  222.7820 C   0  0  0  0  0  0  0  0  0  0  0  0
  140.7620   76.9670  222.2300 C   0  0  0  0  0  0  0  0  0  0  0  0
  139.5490   71.4620  223.0210 C   0  0  0  0  0  0  0  0  0  0  0  0
  139.1510   70.1490  222.8900 C   0  0  0  0  0  0  0  0  0  0  0  0
  139.3310   69.2780  223.9450 C   0  0  0  0  0  0  0  0  0  0  0  0
  139.9080   69.7100  225.1360 C   0  0  0  0  0  0  0  0  0  0  0  0
  140.0860   68.8400  226.1890 C   0  0  0  0  0  0  0  0  0  0  0  0
  140.6660   69.3260  227.3520 C   0  0  0  0  0  0  0  0  0  0  0  0
  140.9220   68.2590  228.7380 Cl  0  0  0  0  0  0  0  0  0  0  0  0
  141.0470   70.6580  227.4290 C   0  0  0  0  0  0  0  0  0  0  0  0
  140.8690   71.5270  226.3810 C   0  0  0  0  0  0  0  0  0  0  0  0
  140.2940   71.0460  225.2230 C   0  0  0  0  0  0  0  0  0  0  0  0
  140.1110   71.8930  224.1760 N   0  0  0  0  0  0  0  0  0  0  0  0
  138.7160   73.9270  223.0810 H   0  0  0  0  0  0  0  0  0  0  0  0
  137.9311   73.9531  220.3359 H   0  0  0  0  0  0  0  0  0  0  0  0
  138.4864   75.4666  221.3603 H   0  0  0  0  0  0  0  0  0  0  0  0
  142.5678   73.2938  220.7594 H   0  0  0  0  0  0  0  0  0  0  0  0
  141.7095   72.7766  219.3454 H   0  0  0  0  0  0  0  0  0  0  0  0
  144.1902   74.1951  219.2798 H   0  0  0  0  0  0  0  0  0  0  0  0
  143.0919   74.2017  217.9010 H   0  0  0  0  0  0  0  0  0  0  0  0
  142.3384   76.5003  218.4622 H   0  0  0  0  0  0  0  0  0  0  0  0
  143.9900   77.3130  220.0960 H   0  0  0  0  0  0  0  0  0  0  0  0
  142.6480   75.6486  221.4110 H   0  0  0  0  0  0  0  0  0  0  0  0
  142.0040   78.3957  219.4630 H   0  0  0  0  0  0  0  0  0  0  0  0
  140.9263   80.3501  220.4469 H   0  0  0  0  0  0  0  0  0  0  0  0
  139.7183   80.1776  222.6058 H   0  0  0  0  0  0  0  0  0  0  0  0
  139.6241   77.9775  223.7399 H   0  0  0  0  0  0  0  0  0  0  0  0
  140.7019   76.0046  222.7593 H   0  0  0  0  0  0  0  0  0  0  0  0
  138.6940   69.7985  221.9528 H   0  0  0  0  0  0  0  0  0  0  0  0
  139.0146   68.2294  223.8437 H   0  0  0  0  0  0  0  0  0  0  0  0
  139.7764   67.7874  226.1099 H   0  0  0  0  0  0  0  0  0  0  0  0
  141.5054   71.0289  228.3576 H   0  0  0  0  0  0  0  0  0  0  0  0
  141.1770   72.5798  226.4627 H   0  0  0  0  0  0  0  0  0  0  0  0
  1  2  2  0
  2  3  1  0
  3  4  1  0
  4  5  1  0
  5  6  2  0
  5  7  1  0
  7  8  1  0
  8  9  1  0
  9 10  1  0
 10 11  1  0
 10 12  1  0
 12 13  1  0
 13 14  2  0
 14 15  1  0
 15 16  2  0
 16 17  1  0
 17 18  2  0
  2 19  1  0
 19 20  2  0
 20 21  1  0
 21 22  2  0
 22 23  1  0
 23 24  2  0
 24 25  1  0
 24 26  1  0
 26 27  2  0
 27 28  1  0
 28 29  2  0
 12  7  1  0
 18 13  1  0
 29 19  1  0
 28 22  1  0
  3 30  1  0
  4 31  1  0
  4 32  1  0
  8 33  1  0
  8 34  1  0
  9 35  1  0
  9 36  1  0
 10 37  1  6
 11 38  1  0
 12 39  1  1
 14 40  1  0
 15 41  1  0
 16 42  1  0
 17 43  1  0
 18 44  1  0
 20 45  1  0
 21 46  1  0
 23 47  1  0
 26 48  1  0
 27 49  1  0
M  END
>  <smiles>  (16) 
O=C(NCC(=O)N1CC[C@H](O)[C@H]1c1ccccc1)c1ccc2cc(Cl)ccc2n1

>  <score_type>  (16) 
oracle

>  <origin>  (16) 
autodockgpu

>  <m_score__min__energy>  (16) 
-8.5600000000000005

>  <m_primary>  (16) 
energy

>  <rmsd>  (16) 
2.244300944904334

>  <m_score__min__rmsd>  (16) 
2.244300944904334

>  <meeko>  (16) 
{"free_energy": -7.73, "intermolecular_energy": -9.52, "internal_energy": -1.68, "cluster_size": 4, "cluster_id": 3, "rank_in_cluster": 3}

>  <energy>  (16) 
-7.99

>  <cluster_rmsd>  (16) 
1.94

>  <cluster>  (16) 
2

$$$$

     RDKit          3D

 49 52  0  0  0  0  0  0  0  0999 V2000
  139.6330   72.0610  220.7280 O   0  0  0  0  0  0  0  0  0  0  0  0
  139.2760   72.3400  221.9050 C   0  0  0  0  0  0  0  0  0  0  0  0
  138.5910   73.6110  222.1090 N   0  0  0  0  0  0  0  0  0  0  0  0
  138.4030   74.3930  220.9510 C   0  0  0  0  0  0  0  0  0  0  0  0
  139.4390   75.1850  220.3490 C   0  0  0  0  0  0  0  0  0  0  0  0
  138.9690   76.2870  219.7880 O   0  0  0  0  0  0  0  0  0  0  0  0
  140.8240   75.0510  220.2280 N   0  0  0  0  0  0  0  0  0  0  0  0
  141.6830   73.9550  219.7690 C   0  0  0  0  0  0  0  0  0  0  0  0
  142.6550   74.7360  218.8370 C   0  0  0  0  0  0  0  0  0  0  0  0
  142.4960   76.2110  219.2520 C   0  0  2  0  0  0  0  0  0  0  0  0
  143.7510   76.7870  219.2850 O   0  0  0  0  0  0  0  0  0  0  0  0
  141.8510   76.0610  220.5960 C   0  0  1  0  0  0  0  0  0  0  0  0
  141.3970   77.2450  221.2640 C   0  0  0  0  0  0  0  0  0  0  0  0
  140.9200   77.3280  222.5540 C   0  0  0  0  0  0  0  0  0  0  0  0
  140.4980   78.5010  223.1280 C   0  0  0  0  0  0  0  0  0  0  0  0
  140.5320   79.6760  222.4260 C   0  0  0  0  0  0  0  0  0  0  0  0
  141.0000   79.6400  221.1370 C   0  0  0  0  0  0  0  0  0  0  0  0
  141.4230   78.4620  220.5620 C   0  0  0  0  0  0  0  0  0  0  0  0
  139.5170   71.4620  223.0380 C   0  0  0  0  0  0  0  0  0  0  0  0
  139.1130   70.1500  222.9160 C   0  0  0  0  0  0  0  0  0  0  0  0
  139.3200   69.2780  223.9660 C   0  0  0  0  0  0  0  0  0  0  0  0
  139.9310   69.7070  225.1410 C   0  0  0  0  0  0  0  0  0  0  0  0
  140.1360   68.8360  226.1880 C   0  0  0  0  0  0  0  0  0  0  0  0
  140.7490   69.3200  227.3340 C   0  0  0  0  0  0  0  0  0  0  0  0
  141.0410   68.2510  228.7120 Cl  0  0  0  0  0  0  0  0  0  0  0  0
  141.1340   70.6500  227.4030 C   0  0  0  0  0  0  0  0  0  0  0  0
  140.9300   71.5210  226.3600 C   0  0  0  0  0  0  0  0  0  0  0  0
  140.3220   71.0420  225.2180 C   0  0  0  0  0  0  0  0  0  0  0  0
  140.1110   71.8910  224.1770 N   0  0  0  0  0  0  0  0  0  0  0  0
  138.3180   73.7710  223.0810 H   0  0  0  0  0  0  0  0  0  0  0  0
  138.0661   73.6958  220.1697 H   0  0  0  0  0  0  0  0  0  0  0  0
  137.7292   75.1757  221.3296 H   0  0  0  0  0  0  0  0  0  0  0  0
  142.2157   73.4779  220.6048 H   0  0  0  0  0  0  0  0  0  0  0  0
  141.1497   73.1233  219.2854 H   0  0  0  0  0  0  0  0  0  0  0  0
  143.6914   74.4001  218.9888 H   0  0  0  0  0  0  0  0  0  0  0  0
  142.4280   74.5769  217.7725 H   0  0  0  0  0  0  0  0  0  0  0  0
  141.9055   76.8617  218.5902 H   0  0  0  0  0  0  0  0  0  0  0  0
  143.7030   77.6960  219.7150 H   0  0  0  0  0  0  0  0  0  0  0  0
  142.5378   75.7672  221.4035 H   0  0  0  0  0  0  0  0  0  0  0  0
  140.8751   76.4073  223.1543 H   0  0  0  0  0  0  0  0  0  0  0  0
  140.1282   78.4971  224.1640 H   0  0  0  0  0  0  0  0  0  0  0  0
  140.1947   80.6189  222.8811 H   0  0  0  0  0  0  0  0  0  0  0  0
  141.0382   80.5702  220.5511 H   0  0  0  0  0  0  0  0  0  0  0  0
  141.7910   78.4742  219.5255 H   0  0  0  0  0  0  0  0  0  0  0  0
  138.6304   69.8011  221.9911 H   0  0  0  0  0  0  0  0  0  0  0  0
  138.9979   68.2303  223.8730 H   0  0  0  0  0  0  0  0  0  0  0  0
  139.8218   67.7842  226.1171 H   0  0  0  0  0  0  0  0  0  0  0  0
  141.6171   71.0189  228.3198 H   0  0  0  0  0  0  0  0  0  0  0  0
  141.2433   72.5729  226.4337 H   0  0  0  0  0  0  0  0  0  0  0  0
  1  2  2  0
  2  3  1  0
  3  4  1  0
  4  5  1  0
  5  6  2  0
  5  7  1  0
  7  8  1  0
  8  9  1  0
  9 10  1  0
 10 11  1  0
 10 12  1  0
 12 13  1  0
 13 14  2  0
 14 15  1  0
 15 16  2  0
 16 17  1  0
 17 18  2  0
  2 19  1  0
 19 20  2  0
 20 21  1  0
 21 22  2  0
 22 23  1  0
 23 24  2  0
 24 25  1  0
 24 26  1  0
 26 27  2  0
 27 28  1  0
 28 29  2  0
 12  7  1  0
 18 13  1  0
 29 19  1  0
 28 22  1  0
  3 30  1  0
  4 31  1  0
  4 32  1  0
  8 33  1  0
  8 34  1  0
  9 35  1  0
  9 36  1  0
 10 37  1  6
 11 38  1  0
 12 39  1  1
 14 40  1  0
 15 41  1  0
 16 42  1  0
 17 43  1  0
 18 44  1  0
 20 45  1  0
 21 46  1  0
 23 47  1  0
 26 48  1  0
 27 49  1  0
M  END
>  <smiles>  (17) 
O=C(NCC(=O)N1CC[C@H](O)[C@H]1c1ccccc1)c1ccc2cc(Cl)ccc2n1

>  <score_type>  (17) 
oracle

>  <origin>  (17) 
autodockgpu

>  <m_score__min__energy>  (17) 
-8.5600000000000005

>  <m_primary>  (17) 
energy

>  <rmsd>  (17) 
2.023634625637131

>  <m_score__min__rmsd>  (17) 
2.023634625637131

>  <meeko>  (17) 
{"free_energy": -7.86, "intermolecular_energy": -9.65, "internal_energy": -1.58, "cluster_size": 12, "cluster_id": 2, "rank_in_cluster": 8}

>  <energy>  (17) 
-7.86

>  <cluster_rmsd>  (17) 
1.95

>  <cluster>  (17) 
2

$$$$

     RDKit          3D

 49 52  0  0  0  0  0  0  0  0999 V2000
  140.5710   72.6260  220.7980 O   0  0  0  0  0  0  0  0  0  0  0  0
  140.1820   72.9190  221.9600 C   0  0  0  0  0  0  0  0  0  0  0  0
  139.7400   74.2910  222.1870 N   0  0  0  0  0  0  0  0  0  0  0  0
  139.7970   75.1420  221.0660 C   0  0  0  0  0  0  0  0  0  0  0  0
  139.3300   76.5000  221.0730 C   0  0  0  0  0  0  0  0  0  0  0  0
  138.1670   76.6360  220.4580 O   0  0  0  0  0  0  0  0  0  0  0  0
  139.8280   77.7010  221.5840 N   0  0  0  0  0  0  0  0  0  0  0  0
  139.3100   78.6580  222.5660 C   0  0  0  0  0  0  0  0  0  0  0  0
  140.5840   78.8900  223.4280 C   0  0  0  0  0  0  0  0  0  0  0  0
  141.7490   78.3910  222.5500 C   0  0  2  0  0  0  0  0  0  0  0  0
  142.7920   79.2880  222.6660 O   0  0  0  0  0  0  0  0  0  0  0  0
  141.0990   78.3720  221.2000 C   0  0  1  0  0  0  0  0  0  0  0  0
  141.8320   77.8110  220.1040 C   0  0  0  0  0  0  0  0  0  0  0  0
  142.5300   76.6220  220.1080 C   0  0  0  0  0  0  0  0  0  0  0  0
  143.2150   76.1460  219.0170 C   0  0  0  0  0  0  0  0  0  0  0  0
  143.2370   76.8510  217.8430 C   0  0  0  0  0  0  0  0  0  0  0  0
  142.5550   78.0400  217.7950 C   0  0  0  0  0  0  0  0  0  0  0  0
  141.8690   78.5160  218.8910 C   0  0  0  0  0  0  0  0  0  0  0  0
  140.1590   71.9650  223.0560 C   0  0  0  0  0  0  0  0  0  0  0  0
  139.6150   70.7250  222.8010 C   0  0  0  0  0  0  0  0  0  0  0  0
  139.5710   69.7840  223.8090 C   0  0  0  0  0  0  0  0  0  0  0  0
  140.0680   70.0730  225.0770 C   0  0  0  0  0  0  0  0  0  0  0  0
  140.0230   69.1330  226.0840 C   0  0  0  0  0  0  0  0  0  0  0  0
  140.5330   69.4780  227.3270 C   0  0  0  0  0  0  0  0  0  0  0  0
  140.5040   68.3160  228.6590 Cl  0  0  0  0  0  0  0  0  0  0  0  0
  141.0690   70.7410  227.5280 C   0  0  0  0  0  0  0  0  0  0  0  0
  141.1140   71.6800  226.5260 C   0  0  0  0  0  0  0  0  0  0  0  0
  140.6080   71.3400  225.2890 C   0  0  0  0  0  0  0  0  0  0  0  0
  140.6450   72.2570  224.2860 N   0  0  0  0  0  0  0  0  0  0  0  0
  139.4250   74.4600  223.1450 H   0  0  0  0  0  0  0  0  0  0  0  0
  140.8582   75.1914  220.7807 H   0  0  0  0  0  0  0  0  0  0  0  0
  139.0608   74.6672  220.4007 H   0  0  0  0  0  0  0  0  0  0  0  0
  138.9680   79.5874  222.0872 H   0  0  0  0  0  0  0  0  0  0  0  0
  138.4310   78.3099  223.1284 H   0  0  0  0  0  0  0  0  0  0  0  0
  140.7047   79.9581  223.6617 H   0  0  0  0  0  0  0  0  0  0  0  0
  140.5350   78.3628  224.3922 H   0  0  0  0  0  0  0  0  0  0  0  0
  142.1898   77.4150  222.8014 H   0  0  0  0  0  0  0  0  0  0  0  0
  143.6220   78.9100  222.2420 H   0  0  0  0  0  0  0  0  0  0  0  0
  140.9906   79.3608  220.7303 H   0  0  0  0  0  0  0  0  0  0  0  0
  142.5387   76.0245  221.0316 H   0  0  0  0  0  0  0  0  0  0  0  0
  143.7517   75.1884  219.0868 H   0  0  0  0  0  0  0  0  0  0  0  0
  143.7845   76.4754  216.9660 H   0  0  0  0  0  0  0  0  0  0  0  0
  142.5557   78.6249  216.8634 H   0  0  0  0  0  0  0  0  0  0  0  0
  141.3357   79.4749  218.8132 H   0  0  0  0  0  0  0  0  0  0  0  0
  139.2193   70.4874  221.8025 H   0  0  0  0  0  0  0  0  0  0  0  0
  139.1378   68.7930  223.6083 H   0  0  0  0  0  0  0  0  0  0  0  0
  139.5940   68.1357  225.9067 H   0  0  0  0  0  0  0  0  0  0  0  0
  141.4701   70.9988  228.5193 H   0  0  0  0  0  0  0  0  0  0  0  0
  141.5425   72.6770  226.7058 H   0  0  0  0  0  0  0  0  0  0  0  0
  1  2  2  0
  2  3  1  0
  3  4  1  0
  4  5  1  0
  5  6  2  0
  5  7  1  0
  7  8  1  0
  8  9  1  0
  9 10  1  0
 10 11  1  0
 10 12  1  0
 12 13  1  0
 13 14  2  0
 14 15  1  0
 15 16  2  0
 16 17  1  0
 17 18  2  0
  2 19  1  0
 19 20  2  0
 20 21  1  0
 21 22  2  0
 22 23  1  0
 23 24  2  0
 24 25  1  0
 24 26  1  0
 26 27  2  0
 27 28  1  0
 28 29  2  0
 12  7  1  0
 18 13  1  0
 29 19  1  0
 28 22  1  0
  3 30  1  0
  4 31  1  0
  4 32  1  0
  8 33  1  0
  8 34  1  0
  9 35  1  0
  9 36  1  0
 10 37  1  1
 11 38  1  0
 12 39  1  6
 14 40  1  0
 15 41  1  0
 16 42  1  0
 17 43  1  0
 18 44  1  0
 20 45  1  0
 21 46  1  0
 23 47  1  0
 26 48  1  0
 27 49  1  0
M  END
>  <smiles>  (18) 
O=C(NCC(=O)N1CC[C@H](O)[C@H]1c1ccccc1)c1ccc2cc(Cl)ccc2n1

>  <score_type>  (18) 
oracle

>  <origin>  (18) 
autodockgpu

>  <m_score__min__energy>  (18) 
-8.5600000000000005

>  <m_primary>  (18) 
energy

>  <rmsd>  (18) 
3.6379087058706787

>  <m_score__min__rmsd>  (18) 
3.6379087058706787

>  <meeko>  (18) 
{"free_energy": -8.21, "intermolecular_energy": -10.0, "internal_energy": -1.39, "cluster_size": 12, "cluster_id": 2, "rank_in_cluster": 1}

>  <energy>  (18) 
-7.85

>  <cluster_rmsd>  (18) 
0.87

>  <cluster>  (18) 
2

$$$$

     RDKit          3D

 49 52  0  0  0  0  0  0  0  0999 V2000
  140.8790   72.1950  221.1220 O   0  0  0  0  0  0  0  0  0  0  0  0
  140.0840   72.3150  222.0930 C   0  0  0  0  0  0  0  0  0  0  0  0
  139.1140   73.4020  222.0280 N   0  0  0  0  0  0  0  0  0  0  0  0
  139.1780   74.2060  220.8710 C   0  0  0  0  0  0  0  0  0  0  0  0
  139.9820   75.3910  220.7700 C   0  0  0  0  0  0  0  0  0  0  0  0
  140.4190   75.8060  221.9470 O   0  0  0  0  0  0  0  0  0  0  0  0
  140.4050   76.1950  219.7090 N   0  0  0  0  0  0  0  0  0  0  0  0
  139.7540   77.2660  218.9480 C   0  0  0  0  0  0  0  0  0  0  0  0
  140.8940   78.3260  218.9290 C   0  0  0  0  0  0  0  0  0  0  0  0
  142.1700   77.5360  219.2790 C   0  0  2  0  0  0  0  0  0  0  0  0
  143.1870   77.9710  218.4540 O   0  0  0  0  0  0  0  0  0  0  0  0
  141.7180   76.1320  219.0120 C   0  0  1  0  0  0  0  0  0  0  0  0
  142.5980   75.0590  219.3690 C   0  0  0  0  0  0  0  0  0  0  0  0
  143.7420   75.1560  220.1310 C   0  0  0  0  0  0  0  0  0  0  0  0
  144.5410   74.0800  220.4310 C   0  0  0  0  0  0  0  0  0  0  0  0
  144.2300   72.8280  219.9730 C   0  0  0  0  0  0  0  0  0  0  0  0
  143.1000   72.6870  219.2100 C   0  0  0  0  0  0  0  0  0  0  0  0
  142.2980   73.7660  218.9100 C   0  0  0  0  0  0  0  0  0  0  0  0
  140.0970   71.4300  223.2460 C   0  0  0  0  0  0  0  0  0  0  0  0
  139.5660   70.1690  223.0790 C   0  0  0  0  0  0  0  0  0  0  0  0
  139.5560   69.2920  224.1450 C   0  0  0  0  0  0  0  0  0  0  0  0
  140.0750   69.6670  225.3820 C   0  0  0  0  0  0  0  0  0  0  0  0
  140.0640   68.7910  226.4450 C   0  0  0  0  0  0  0  0  0  0  0  0
  140.5940   69.2190  227.6530 C   0  0  0  0  0  0  0  0  0  0  0  0
  140.6090   68.1420  229.0560 Cl  0  0  0  0  0  0  0  0  0  0  0  0
  141.1140   70.5000  227.7650 C   0  0  0  0  0  0  0  0  0  0  0  0
  141.1260   71.3750  226.7060 C   0  0  0  0  0  0  0  0  0  0  0  0
  140.6000   70.9510  225.5030 C   0  0  0  0  0  0  0  0  0  0  0  0
  140.6040   71.8050  224.4440 N   0  0  0  0  0  0  0  0  0  0  0  0
  138.4910   73.4370  222.8370 H   0  0  0  0  0  0  0  0  0  0  0  0
  139.5191   73.5422  220.0629 H   0  0  0  0  0  0  0  0  0  0  0  0
  138.1647   74.6336  220.8521 H   0  0  0  0  0  0  0  0  0  0  0  0
  139.4856   76.9387  217.9327 H   0  0  0  0  0  0  0  0  0  0  0  0
  138.8030   77.6201  219.3726 H   0  0  0  0  0  0  0  0  0  0  0  0
  140.9820   78.7829  217.9323 H   0  0  0  0  0  0  0  0  0  0  0  0
  140.7081   79.1493  219.6345 H   0  0  0  0  0  0  0  0  0  0  0  0
  142.5688   77.6465  220.2982 H   0  0  0  0  0  0  0  0  0  0  0  0
  143.7920   78.6010  218.9530 H   0  0  0  0  0  0  0  0  0  0  0  0
  141.6785   75.8584  217.9473 H   0  0  0  0  0  0  0  0  0  0  0  0
  144.0296   76.1446  220.5183 H   0  0  0  0  0  0  0  0  0  0  0  0
  145.4411   74.2259  221.0463 H   0  0  0  0  0  0  0  0  0  0  0  0
  144.8666   71.9627  220.2097 H   0  0  0  0  0  0  0  0  0  0  0  0
  142.8280   71.6915  218.8293 H   0  0  0  0  0  0  0  0  0  0  0  0
  141.3993   73.6109  218.2950 H   0  0  0  0  0  0  0  0  0  0  0  0
  139.1541   69.8644  222.1055 H   0  0  0  0  0  0  0  0  0  0  0  0
  139.1330   68.2848  224.0160 H   0  0  0  0  0  0  0  0  0  0  0  0
  139.6460   67.7791  226.3386 H   0  0  0  0  0  0  0  0  0  0  0  0
  141.5291   70.8249  228.7305 H   0  0  0  0  0  0  0  0  0  0  0  0
  141.5439   72.3868  226.8143 H   0  0  0  0  0  0  0  0  0  0  0  0
  1  2  2  0
  2  3  1  0
  3  4  1  0
  4  5  1  0
  5  6  2  0
  5  7  1  0
  7  8  1  0
  8  9  1  0
  9 10  1  0
 10 11  1  0
 10 12  1  0
 12 13  1  0
 13 14  2  0
 14 15  1  0
 15 16  2  0
 16 17  1  0
 17 18  2  0
  2 19  1  0
 19 20  2  0
 20 21  1  0
 21 22  2  0
 22 23  1  0
 23 24  2  0
 24 25  1  0
 24 26  1  0
 26 27  2  0
 27 28  1  0
 28 29  2  0
 12  7  1  0
 18 13  1  0
 29 19  1  0
 28 22  1  0
  3 30  1  0
  4 31  1  0
  4 32  1  0
  8 33  1  0
  8 34  1  0
  9 35  1  0
  9 36  1  0
 10 37  1  1
 11 38  1  0
 12 39  1  6
 14 40  1  0
 15 41  1  0
 16 42  1  0
 17 43  1  0
 18 44  1  0
 20 45  1  0
 21 46  1  0
 23 47  1  0
 26 48  1  0
 27 49  1  0
M  END
>  <smiles>  (19) 
O=C(NCC(=O)N1CC[C@H](O)[C@H]1c1ccccc1)c1ccc2cc(Cl)ccc2n1

>  <score_type>  (19) 
oracle

>  <origin>  (19) 
autodockgpu

>  <m_score__min__energy>  (19) 
-8.5600000000000005

>  <m_primary>  (19) 
energy

>  <rmsd>  (19) 
1.9512799602233166

>  <m_score__min__rmsd>  (19) 
1.9512799602233166

>  <meeko>  (19) 
{"free_energy": -7.45, "intermolecular_energy": -9.24, "internal_energy": -1.7, "cluster_size": 12, "cluster_id": 2, "rank_in_cluster": 12}

>  <energy>  (19) 
-7.84

>  <cluster_rmsd>  (19) 
1.96

>  <cluster>  (19) 
2

$$$$

     RDKit          3D

 49 52  0  0  0  0  0  0  0  0999 V2000
  139.9830   72.5040  220.7490 O   0  0  0  0  0  0  0  0  0  0  0  0
  139.7750   72.8300  221.9490 C   0  0  0  0  0  0  0  0  0  0  0  0
  139.3990   74.2150  222.2070 N   0  0  0  0  0  0  0  0  0  0  0  0
  139.3110   75.0440  221.0700 C   0  0  0  0  0  0  0  0  0  0  0  0
  140.4080   75.8190  220.5630 C   0  0  0  0  0  0  0  0  0  0  0  0
  141.1800   76.2910  221.5270 O   0  0  0  0  0  0  0  0  0  0  0  0
  140.8390   76.1790  219.2840 N   0  0  0  0  0  0  0  0  0  0  0  0
  140.2320   76.9800  218.2160 C   0  0  0  0  0  0  0  0  0  0  0  0
  141.4430   77.8730  217.8170 C   0  0  0  0  0  0  0  0  0  0  0  0
  142.6740   77.1470  218.3930 C   0  0  2  0  0  0  0  0  0  0  0  0
  143.6820   77.1930  217.4510 O   0  0  0  0  0  0  0  0  0  0  0  0
  142.1120   75.7780  218.6280 C   0  0  1  0  0  0  0  0  0  0  0  0
  142.9290   74.8200  219.3130 C   0  0  0  0  0  0  0  0  0  0  0  0
  142.7020   73.4640  219.4050 C   0  0  0  0  0  0  0  0  0  0  0  0
  143.5300   72.6040  220.0830 C   0  0  0  0  0  0  0  0  0  0  0  0
  144.6510   73.0690  220.7180 C   0  0  0  0  0  0  0  0  0  0  0  0
  144.9160   74.4130  220.6520 C   0  0  0  0  0  0  0  0  0  0  0  0
  144.0840   75.2740  219.9710 C   0  0  0  0  0  0  0  0  0  0  0  0
  139.8920   71.8970  223.0580 C   0  0  0  0  0  0  0  0  0  0  0  0
  139.4920   70.5980  222.8340 C   0  0  0  0  0  0  0  0  0  0  0  0
  139.5850   69.6750  223.8560 C   0  0  0  0  0  0  0  0  0  0  0  0
  140.0760   70.0410  225.1060 C   0  0  0  0  0  0  0  0  0  0  0  0
  140.1670   69.1190  226.1250 C   0  0  0  0  0  0  0  0  0  0  0  0
  140.6640   69.5420  227.3500 C   0  0  0  0  0  0  0  0  0  0  0  0
  140.8050   68.4060  228.6980 Cl  0  0  0  0  0  0  0  0  0  0  0  0
  141.0510   70.8630  227.5200 C   0  0  0  0  0  0  0  0  0  0  0  0
  140.9600   71.7840  226.5050 C   0  0  0  0  0  0  0  0  0  0  0  0
  140.4670   71.3660  225.2860 C   0  0  0  0  0  0  0  0  0  0  0  0
  140.3710   72.2650  224.2700 N   0  0  0  0  0  0  0  0  0  0  0  0
  139.2320   74.4110  223.1970 H   0  0  0  0  0  0  0  0  0  0  0  0
  139.0006   74.3875  220.2437 H   0  0  0  0  0  0  0  0  0  0  0  0
  138.6419   75.8367  221.4361 H   0  0  0  0  0  0  0  0  0  0  0  0
  139.8952   76.3525  217.3777 H   0  0  0  0  0  0  0  0  0  0  0  0
  139.3288   77.5338  218.5119 H   0  0  0  0  0  0  0  0  0  0  0  0
  141.5191   77.9564  216.7228 H   0  0  0  0  0  0  0  0  0  0  0  0
  141.3476   78.8987  218.2029 H   0  0  0  0  0  0  0  0  0  0  0  0
  143.1247   77.5625  219.3064 H   0  0  0  0  0  0  0  0  0  0  0  0
  143.7900   78.1320  217.1050 H   0  0  0  0  0  0  0  0  0  0  0  0
  142.0060   75.1651  217.7208 H   0  0  0  0  0  0  0  0  0  0  0  0
  141.8116   73.0493  218.9098 H   0  0  0  0  0  0  0  0  0  0  0  0
  143.2908   71.5308  220.1166 H   0  0  0  0  0  0  0  0  0  0  0  0
  145.3180   72.3857  221.2640 H   0  0  0  0  0  0  0  0  0  0  0  0
  145.8107   74.8113  221.1528 H   0  0  0  0  0  0  0  0  0  0  0  0
  144.3306   76.3456  219.9416 H   0  0  0  0  0  0  0  0  0  0  0  0
  139.1021   70.2991  221.8498 H   0  0  0  0  0  0  0  0  0  0  0  0
  139.2670   68.6367  223.6804 H   0  0  0  0  0  0  0  0  0  0  0  0
  139.8543   68.0755  225.9722 H   0  0  0  0  0  0  0  0  0  0  0  0
  141.4425   71.1827  228.4970 H   0  0  0  0  0  0  0  0  0  0  0  0
  141.2720   72.8274  226.6599 H   0  0  0  0  0  0  0  0  0  0  0  0
  1  2  2  0
  2  3  1  0
  3  4  1  0
  4  5  1  0
  5  6  2  0
  5  7  1  0
  7  8  1  0
  8  9  1  0
  9 10  1  0
 10 11  1  0
 10 12  1  0
 12 13  1  0
 13 14  2  0
 14 15  1  0
 15 16  2  0
 16 17  1  0
 17 18  2  0
  2 19  1  0
 19 20  2  0
 20 21  1  0
 21 22  2  0
 22 23  1  0
 23 24  2  0
 24 25  1  0
 24 26  1  0
 26 27  2  0
 27 28  1  0
 28 29  2  0
 12  7  1  0
 18 13  1  0
 29 19  1  0
 28 22  1  0
  3 30  1  0
  4 31  1  0
  4 32  1  0
  8 33  1  0
  8 34  1  0
  9 35  1  0
  9 36  1  0
 10 37  1  1
 11 38  1  0
 12 39  1  6
 14 40  1  0
 15 41  1  0
 16 42  1  0
 17 43  1  0
 18 44  1  0
 20 45  1  0
 21 46  1  0
 23 47  1  0
 26 48  1  0
 27 49  1  0
M  END
>  <smiles>  (20) 
O=C(NCC(=O)N1CC[C@H](O)[C@H]1c1ccccc1)c1ccc2cc(Cl)ccc2n1

>  <score_type>  (20) 
oracle

>  <origin>  (20) 
autodockgpu

>  <m_score__min__energy>  (20) 
-8.5600000000000005

>  <m_primary>  (20) 
energy

>  <rmsd>  (20) 
1.9320613112664913

>  <m_score__min__rmsd>  (20) 
1.9320613112664913

>  <meeko>  (20) 
{"free_energy": -7.65, "intermolecular_energy": -9.44, "internal_energy": -1.88, "cluster_size": 11, "cluster_id": 5, "rank_in_cluster": 11}

>  <energy>  (20) 
-7.77

>  <cluster_rmsd>  (20) 
1.99

>  <cluster>  (20) 
2

$$$$

     RDKit          3D

 49 52  0  0  0  0  0  0  0  0999 V2000
  140.1660   72.4950  220.7170 O   0  0  0  0  0  0  0  0  0  0  0  0
  139.8110   72.8040  221.8870 C   0  0  0  0  0  0  0  0  0  0  0  0
  139.2900   74.1510  222.0920 N   0  0  0  0  0  0  0  0  0  0  0  0
  139.2410   74.9650  220.9420 C   0  0  0  0  0  0  0  0  0  0  0  0
  139.9080   76.2320  220.8360 C   0  0  0  0  0  0  0  0  0  0  0  0
  139.3010   77.1800  221.5300 O   0  0  0  0  0  0  0  0  0  0  0  0
  141.0490   76.6820  220.1680 N   0  0  0  0  0  0  0  0  0  0  0  0
  141.8500   76.1220  219.0750 C   0  0  0  0  0  0  0  0  0  0  0  0
  142.0150   77.3820  218.1770 C   0  0  0  0  0  0  0  0  0  0  0  0
  141.6790   78.5690  219.1010 C   0  0  2  0  0  0  0  0  0  0  0  0
  142.5910   79.5760  218.8590 O   0  0  0  0  0  0  0  0  0  0  0  0
  141.8120   77.9270  220.4480 C   0  0  1  0  0  0  0  0  0  0  0  0
  141.4260   78.6870  221.6000 C   0  0  0  0  0  0  0  0  0  0  0  0
  141.5980   78.3240  222.9190 C   0  0  0  0  0  0  0  0  0  0  0  0
  141.1980   79.1060  223.9740 C   0  0  0  0  0  0  0  0  0  0  0  0
  140.5940   80.3150  223.7600 C   0  0  0  0  0  0  0  0  0  0  0  0
  140.4020   80.7160  222.4630 C   0  0  0  0  0  0  0  0  0  0  0  0
  140.8040   79.9310  221.4040 C   0  0  0  0  0  0  0  0  0  0  0  0
  139.9010   71.8880  223.0130 C   0  0  0  0  0  0  0  0  0  0  0  0
  139.4610   70.5970  222.8120 C   0  0  0  0  0  0  0  0  0  0  0  0
  139.5260   69.6910  223.8500 C   0  0  0  0  0  0  0  0  0  0  0  0
  140.0290   70.0640  225.0940 C   0  0  0  0  0  0  0  0  0  0  0  0
  140.0930   69.1580  226.1290 C   0  0  0  0  0  0  0  0  0  0  0  0
  140.6030   69.5880  227.3460 C   0  0  0  0  0  0  0  0  0  0  0  0
  140.7120   68.4730  228.7140 Cl  0  0  0  0  0  0  0  0  0  0  0  0
  141.0310   70.8990  227.4920 C   0  0  0  0  0  0  0  0  0  0  0  0
  140.9680   71.8040  226.4610 C   0  0  0  0  0  0  0  0  0  0  0  0
  140.4620   71.3790  225.2490 C   0  0  0  0  0  0  0  0  0  0  0  0
  140.3920   72.2630  224.2180 N   0  0  0  0  0  0  0  0  0  0  0  0
  139.0090   74.3330  223.0580 H   0  0  0  0  0  0  0  0  0  0  0  0
  139.6358   74.3485  220.1210 H   0  0  0  0  0  0  0  0  0  0  0  0
  138.1867   75.2788  220.9475 H   0  0  0  0  0  0  0  0  0  0  0  0
  142.8204   75.7471  219.4324 H   0  0  0  0  0  0  0  0  0  0  0  0
  141.3991   75.2540  218.5718 H   0  0  0  0  0  0  0  0  0  0  0  0
  143.0471   77.4604  217.8048 H   0  0  0  0  0  0  0  0  0  0  0  0
  141.3651   77.3485  217.2902 H   0  0  0  0  0  0  0  0  0  0  0  0
  140.6957   79.0456  218.9747 H   0  0  0  0  0  0  0  0  0  0  0  0
  142.5110   79.8940  217.9080 H   0  0  0  0  0  0  0  0  0  0  0  0
  142.8489   77.7824  220.7855 H   0  0  0  0  0  0  0  0  0  0  0  0
  142.0799   77.3595  223.1369 H   0  0  0  0  0  0  0  0  0  0  0  0
  141.3650   78.7566  225.0036 H   0  0  0  0  0  0  0  0  0  0  0  0
  140.2725   80.9455  224.6021 H   0  0  0  0  0  0  0  0  0  0  0  0
  139.9176   81.6833  222.2638 H   0  0  0  0  0  0  0  0  0  0  0  0
  140.6332   80.2883  220.3778 H   0  0  0  0  0  0  0  0  0  0  0  0
  139.0619   70.2924  221.8332 H   0  0  0  0  0  0  0  0  0  0  0  0
  139.1759   68.6601  223.6932 H   0  0  0  0  0  0  0  0  0  0  0  0
  139.7493   68.1217  225.9949 H   0  0  0  0  0  0  0  0  0  0  0  0
  141.4331   71.2238  228.4630 H   0  0  0  0  0  0  0  0  0  0  0  0
  141.3116   72.8400  226.5973 H   0  0  0  0  0  0  0  0  0  0  0  0
  1  2  2  0
  2  3  1  0
  3  4  1  0
  4  5  1  0
  5  6  2  0
  5  7  1  0
  7  8  1  0
  8  9  1  0
  9 10  1  0
 10 11  1  0
 10 12  1  0
 12 13  1  0
 13 14  2  0
 14 15  1  0
 15 16  2  0
 16 17  1  0
 17 18  2  0
  2 19  1  0
 19 20  2  0
 20 21  1  0
 21 22  2  0
 22 23  1  0
 23 24  2  0
 24 25  1  0
 24 26  1  0
 26 27  2  0
 27 28  1  0
 28 29  2  0
 12  7  1  0
 18 13  1  0
 29 19  1  0
 28 22  1  0
  3 30  1  0
  4 31  1  0
  4 32  1  0
  8 33  1  0
  8 34  1  0
  9 35  1  0
  9 36  1  0
 10 37  1  6
 11 38  1  0
 12 39  1  1
 14 40  1  0
 15 41  1  0
 16 42  1  0
 17 43  1  0
 18 44  1  0
 20 45  1  0
 21 46  1  0
 23 47  1  0
 26 48  1  0
 27 49  1  0
M  END
>  <smiles>  (21) 
O=C(NCC(=O)N1CC[C@H](O)[C@H]1c1ccccc1)c1ccc2cc(Cl)ccc2n1

>  <score_type>  (21) 
oracle

>  <origin>  (21) 
autodockgpu

>  <m_score__min__energy>  (21) 
-8.5600000000000005

>  <m_primary>  (21) 
energy

>  <rmsd>  (21) 
2.2280544373339577

>  <m_score__min__rmsd>  (21) 
2.2280544373339577

>  <meeko>  (21) 
{"free_energy": -8.09, "intermolecular_energy": -9.88, "internal_energy": -1.13, "cluster_size": 4, "cluster_id": 3, "rank_in_cluster": 2}

>  <energy>  (21) 
-7.45

>  <cluster_rmsd>  (21) 
1.98

>  <cluster>  (21) 
2

$$$$

     RDKit          3D

 49 52  0  0  0  0  0  0  0  0999 V2000
  140.2580   72.2690  220.7430 O   0  0  0  0  0  0  0  0  0  0  0  0
  139.9610   72.5960  221.9240 C   0  0  0  0  0  0  0  0  0  0  0  0
  139.5510   73.9780  222.1490 N   0  0  0  0  0  0  0  0  0  0  0  0
  139.5330   74.8010  221.0050 C   0  0  0  0  0  0  0  0  0  0  0  0
  140.7080   75.4050  220.4420 C   0  0  0  0  0  0  0  0  0  0  0  0
  141.5140   75.8970  221.3670 O   0  0  0  0  0  0  0  0  0  0  0  0
  141.1850   75.5850  219.1410 N   0  0  0  0  0  0  0  0  0  0  0  0
  140.6070   76.2030  217.9440 C   0  0  0  0  0  0  0  0  0  0  0  0
  141.8150   77.0590  217.4630 C   0  0  0  0  0  0  0  0  0  0  0  0
  143.0350   76.4580  218.1870 C   0  0  2  0  0  0  0  0  0  0  0  0
  144.0810   76.3900  217.2880 O   0  0  0  0  0  0  0  0  0  0  0  0
  142.4920   75.1240  218.6010 C   0  0  1  0  0  0  0  0  0  0  0  0
  143.2990   74.2990  219.4510 C   0  0  0  0  0  0  0  0  0  0  0  0
  143.0800   72.9730  219.7550 C   0  0  0  0  0  0  0  0  0  0  0  0
  143.8980   72.2440  220.5830 C   0  0  0  0  0  0  0  0  0  0  0  0
  144.9980   72.8190  221.1620 C   0  0  0  0  0  0  0  0  0  0  0  0
  145.2530   74.1380  220.8870 C   0  0  0  0  0  0  0  0  0  0  0  0
  144.4320   74.8670  220.0560 C   0  0  0  0  0  0  0  0  0  0  0  0
  140.0100   71.6690  223.0430 C   0  0  0  0  0  0  0  0  0  0  0  0
  139.5280   70.3950  222.8270 C   0  0  0  0  0  0  0  0  0  0  0  0
  139.5540   69.4790  223.8580 C   0  0  0  0  0  0  0  0  0  0  0  0
  140.0600   69.8250  225.1090 C   0  0  0  0  0  0  0  0  0  0  0  0
  140.0840   68.9090  226.1370 C   0  0  0  0  0  0  0  0  0  0  0  0
  140.5990   69.3110  227.3610 C   0  0  0  0  0  0  0  0  0  0  0  0
  140.6580   68.1810  228.7210 Cl  0  0  0  0  0  0  0  0  0  0  0  0
  141.0700   70.6050  227.5220 C   0  0  0  0  0  0  0  0  0  0  0  0
  141.0450   71.5200  226.4980 C   0  0  0  0  0  0  0  0  0  0  0  0
  140.5350   71.1230  225.2790 C   0  0  0  0  0  0  0  0  0  0  0  0
  140.5030   72.0170  224.2550 N   0  0  0  0  0  0  0  0  0  0  0  0
  139.3110   74.1740  223.1230 H   0  0  0  0  0  0  0  0  0  0  0  0
  139.0959   74.1893  220.2021 H   0  0  0  0  0  0  0  0  0  0  0  0
  139.0004   75.6848  221.3862 H   0  0  0  0  0  0  0  0  0  0  0  0
  140.3182   75.4499  217.1961 H   0  0  0  0  0  0  0  0  0  0  0  0
  139.6812   76.7704  218.1198 H   0  0  0  0  0  0  0  0  0  0  0  0
  141.9348   76.9820  216.3723 H   0  0  0  0  0  0  0  0  0  0  0  0
  141.6830   78.1276  217.6880 H   0  0  0  0  0  0  0  0  0  0  0  0
  143.4380   77.0160  219.0450 H   0  0  0  0  0  0  0  0  0  0  0  0
  144.7850   75.7550  217.6230 H   0  0  0  0  0  0  0  0  0  0  0  0
  142.4365   74.3808  217.7919 H   0  0  0  0  0  0  0  0  0  0  0  0
  142.2059   72.4731  219.3122 H   0  0  0  0  0  0  0  0  0  0  0  0
  143.6673   71.1873  220.7832 H   0  0  0  0  0  0  0  0  0  0  0  0
  145.6564   72.2407  221.8269 H   0  0  0  0  0  0  0  0  0  0  0  0
  146.1306   74.6232  221.3391 H   0  0  0  0  0  0  0  0  0  0  0  0
  144.6701   75.9230  219.8607 H   0  0  0  0  0  0  0  0  0  0  0  0
  139.1269   70.1122  221.8425 H   0  0  0  0  0  0  0  0  0  0  0  0
  139.1701   68.4619  223.6902 H   0  0  0  0  0  0  0  0  0  0  0  0
  139.7052   67.8865  225.9917 H   0  0  0  0  0  0  0  0  0  0  0  0
  141.4757   70.9078  228.4986 H   0  0  0  0  0  0  0  0  0  0  0  0
  141.4218   72.5428  226.6459 H   0  0  0  0  0  0  0  0  0  0  0  0
  1  2  2  0
  2  3  1  0
  3  4  1  0
  4  5  1  0
  5  6  2  0
  5  7  1  0
  7  8  1  0
  8  9  1  0
  9 10  1  0
 10 11  1  0
 10 12  1  0
 12 13  1  0
 13 14  2  0
 14 15  1  0
 15 16  2  0
 16 17  1  0
 17 18  2  0
  2 19  1  0
 19 20  2  0
 20 21  1  0
 21 22  2  0
 22 23  1  0
 23 24  2  0
 24 25  1  0
 24 26  1  0
 26 27  2  0
 27 28  1  0
 28 29  2  0
 12  7  1  0
 18 13  1  0
 29 19  1  0
 28 22  1  0
  3 30  1  0
  4 31  1  0
  4 32  1  0
  8 33  1  0
  8 34  1  0
  9 35  1  0
  9 36  1  0
 10 37  1  1
 11 38  1  0
 12 39  1  6
 14 40  1  0
 15 41  1  0
 16 42  1  0
 17 43  1  0
 18 44  1  0
 20 45  1  0
 21 46  1  0
 23 47  1  0
 26 48  1  0
 27 49  1  0
M  END
>  <smiles>  (22) 
O=C(NCC(=O)N1CC[C@H](O)[C@H]1c1ccccc1)c1ccc2cc(Cl)ccc2n1

>  <score_type>  (22) 
oracle

>  <origin>  (22) 
autodockgpu

>  <m_score__min__energy>  (22) 
-8.5600000000000005

>  <m_primary>  (22) 
energy

>  <rmsd>  (22) 
1.8975715765708954

>  <m_score__min__rmsd>  (22) 
1.8975715765708954

>  <meeko>  (22) 
{"free_energy": -8.0, "intermolecular_energy": -9.79, "internal_energy": -1.9, "cluster_size": 11, "cluster_id": 5, "rank_in_cluster": 2}

>  <energy>  (22) 
-8.15

>  <cluster_rmsd>  (22) 
0.0

>  <cluster>  (22) 
3

$$$$

     RDKit          3D

 49 52  0  0  0  0  0  0  0  0999 V2000
  138.5630   81.4590  223.4140 O   0  0  0  0  0  0  0  0  0  0  0  0
  137.4070   81.0420  223.6940 C   0  0  0  0  0  0  0  0  0  0  0  0
  136.6900   80.3180  222.6500 N   0  0  0  0  0  0  0  0  0  0  0  0
  137.3820   80.1650  221.4310 C   0  0  0  0  0  0  0  0  0  0  0  0
  138.0820   78.9670  221.0590 C   0  0  0  0  0  0  0  0  0  0  0  0
  138.4850   78.9900  219.8000 O   0  0  0  0  0  0  0  0  0  0  0  0
  138.4300   77.7920  221.7290 N   0  0  0  0  0  0  0  0  0  0  0  0
  137.7250   76.5270  221.9560 C   0  0  0  0  0  0  0  0  0  0  0  0
  138.8550   75.5140  221.6130 C   0  0  0  0  0  0  0  0  0  0  0  0
  140.1550   76.3370  221.6820 C   0  0  2  0  0  0  0  0  0  0  0  0
  141.1150   75.5750  222.3190 O   0  0  0  0  0  0  0  0  0  0  0  0
  139.6960   77.5290  222.4650 C   0  0  1  0  0  0  0  0  0  0  0  0
  140.6040   78.6270  222.6200 C   0  0  0  0  0  0  0  0  0  0  0  0
  140.8630   79.3190  223.7840 C   0  0  0  0  0  0  0  0  0  0  0  0
  141.7480   80.3660  223.8570 C   0  0  0  0  0  0  0  0  0  0  0  0
  142.4320   80.7830  222.7470 C   0  0  0  0  0  0  0  0  0  0  0  0
  142.2050   80.1220  221.5670 C   0  0  0  0  0  0  0  0  0  0  0  0
  141.3170   79.0710  221.4950 C   0  0  0  0  0  0  0  0  0  0  0  0
  136.7760   81.2510  224.9870 C   0  0  0  0  0  0  0  0  0  0  0  0
  137.4460   82.0460  225.8930 C   0  0  0  0  0  0  0  0  0  0  0  0
  136.8880   82.2740  227.1340 C   0  0  0  0  0  0  0  0  0  0  0  0
  135.6610   81.7140  227.4800 C   0  0  0  0  0  0  0  0  0  0  0  0
  135.1060   81.9420  228.7190 C   0  0  0  0  0  0  0  0  0  0  0  0
  133.8810   81.3570  229.0070 C   0  0  0  0  0  0  0  0  0  0  0  0
  133.1160   81.6120  230.5810 Cl  0  0  0  0  0  0  0  0  0  0  0  0
  133.2530   80.5660  228.0580 C   0  0  0  0  0  0  0  0  0  0  0  0
  133.8050   80.3360  226.8210 C   0  0  0  0  0  0  0  0  0  0  0  0
  135.0220   80.9180  226.5310 C   0  0  0  0  0  0  0  0  0  0  0  0
  135.5830   80.7000  225.3120 N   0  0  0  0  0  0  0  0  0  0  0  0
  135.7660   79.9960  222.9430 H   0  0  0  0  0  0  0  0  0  0  0  0
  136.6371   80.3353  220.6397 H   0  0  0  0  0  0  0  0  0  0  0  0
  138.2181   80.8660  221.5708 H   0  0  0  0  0  0  0  0  0  0  0  0
  137.3926   76.4279  222.9999 H   0  0  0  0  0  0  0  0  0  0  0  0
  136.8019   76.4028  221.3708 H   0  0  0  0  0  0  0  0  0  0  0  0
  138.8760   74.6941  222.3460 H   0  0  0  0  0  0  0  0  0  0  0  0
  138.7101   75.0483  220.6271 H   0  0  0  0  0  0  0  0  0  0  0  0
  140.6175   76.6319  220.7285 H   0  0  0  0  0  0  0  0  0  0  0  0
  142.0110   76.0300  222.2620 H   0  0  0  0  0  0  0  0  0  0  0  0
  139.5902   77.3539  223.5458 H   0  0  0  0  0  0  0  0  0  0  0  0
  140.3341   79.0171  224.7000 H   0  0  0  0  0  0  0  0  0  0  0  0
  141.9093   80.8756  224.8184 H   0  0  0  0  0  0  0  0  0  0  0  0
  143.1415   81.6220  222.7998 H   0  0  0  0  0  0  0  0  0  0  0  0
  142.7424   80.4371  220.6604 H   0  0  0  0  0  0  0  0  0  0  0  0
  141.1625   78.5661  220.5300 H   0  0  0  0  0  0  0  0  0  0  0  0
  138.4154   82.4938  225.6289 H   0  0  0  0  0  0  0  0  0  0  0  0
  137.4196   82.9068  227.8600 H   0  0  0  0  0  0  0  0  0  0  0  0
  135.6198   82.5710  229.4608 H   0  0  0  0  0  0  0  0  0  0  0  0
  132.2831   80.1084  228.3026 H   0  0  0  0  0  0  0  0  0  0  0  0
  133.2905   79.7047  226.0816 H   0  0  0  0  0  0  0  0  0  0  0  0
  1  2  2  0
  2  3  1  0
  3  4  1  0
  4  5  1  0
  5  6  2  0
  5  7  1  0
  7  8  1  0
  8  9  1  0
  9 10  1  0
 10 11  1  0
 10 12  1  0
 12 13  1  0
 13 14  2  0
 14 15  1  0
 15 16  2  0
 16 17  1  0
 17 18  2  0
  2 19  1  0
 19 20  2  0
 20 21  1  0
 21 22  2  0
 22 23  1  0
 23 24  2  0
 24 25  1  0
 24 26  1  0
 26 27  2  0
 27 28  1  0
 28 29  2  0
 12  7  1  0
 18 13  1  0
 29 19  1  0
 28 22  1  0
  3 30  1  0
  4 31  1  0
  4 32  1  0
  8 33  1  0
  8 34  1  0
  9 35  1  0
  9 36  1  0
 10 37  1  6
 11 38  1  0
 12 39  1  1
 14 40  1  0
 15 41  1  0
 16 42  1  0
 17 43  1  0
 18 44  1  0
 20 45  1  0
 21 46  1  0
 23 47  1  0
 26 48  1  0
 27 49  1  0
M  END
>  <smiles>  (23) 
O=C(NCC(=O)N1CC[C@H](O)[C@H]1c1ccccc1)c1ccc2cc(Cl)ccc2n1

>  <score_type>  (23) 
oracle

>  <origin>  (23) 
autodockgpu

>  <m_score__min__energy>  (23) 
-8.5600000000000005

>  <m_primary>  (23) 
energy

>  <rmsd>  (23) 
9.702017567309662

>  <m_score__min__rmsd>  (23) 
9.702017567309662

>  <meeko>  (23) 
{"free_energy": -7.0, "intermolecular_energy": -8.79, "internal_energy": -2.09, "cluster_size": 3, "cluster_id": 9, "rank_in_cluster": 3}

>  <energy>  (23) 
-8.09

>  <cluster_rmsd>  (23) 
1.14

>  <cluster>  (23) 
3

$$$$

     RDKit          3D

 49 52  0  0  0  0  0  0  0  0999 V2000
  140.0090   72.1580  220.6810 O   0  0  0  0  0  0  0  0  0  0  0  0
  139.8820   72.5300  221.8790 C   0  0  0  0  0  0  0  0  0  0  0  0
  139.6480   73.9500  222.1130 N   0  0  0  0  0  0  0  0  0  0  0  0
  139.5900   74.7560  220.9590 C   0  0  0  0  0  0  0  0  0  0  0  0
  140.7400   75.3750  220.3620 C   0  0  0  0  0  0  0  0  0  0  0  0
  141.5480   75.9090  221.2620 O   0  0  0  0  0  0  0  0  0  0  0  0
  141.1910   75.5350  219.0500 N   0  0  0  0  0  0  0  0  0  0  0  0
  140.5740   76.0950  217.8440 C   0  0  0  0  0  0  0  0  0  0  0  0
  141.7410   76.9830  217.3210 C   0  0  0  0  0  0  0  0  0  0  0  0
  142.9930   76.4510  218.0440 C   0  0  2  0  0  0  0  0  0  0  0  0
  144.0280   76.3970  217.1320 O   0  0  0  0  0  0  0  0  0  0  0  0
  142.5080   75.1090  218.5040 C   0  0  1  0  0  0  0  0  0  0  0  0
  143.3580   74.3420  219.3650 C   0  0  0  0  0  0  0  0  0  0  0  0
  144.4820   74.7930  220.0230 C   0  0  0  0  0  0  0  0  0  0  0  0
  145.2520   73.9960  220.8330 C   0  0  0  0  0  0  0  0  0  0  0  0
  144.9300   72.6800  221.0300 C   0  0  0  0  0  0  0  0  0  0  0  0
  143.8180   72.1890  220.3950 C   0  0  0  0  0  0  0  0  0  0  0  0
  143.0460   72.9890  219.5820 C   0  0  0  0  0  0  0  0  0  0  0  0
  139.9580   71.6160  223.0070 C   0  0  0  0  0  0  0  0  0  0  0  0
  139.4930   70.3340  222.8120 C   0  0  0  0  0  0  0  0  0  0  0  0
  139.5440   69.4290  223.8530 C   0  0  0  0  0  0  0  0  0  0  0  0
  140.0580   69.7980  225.0940 C   0  0  0  0  0  0  0  0  0  0  0  0
  140.1080   68.8940  226.1320 C   0  0  0  0  0  0  0  0  0  0  0  0
  140.6300   69.3180  227.3460 C   0  0  0  0  0  0  0  0  0  0  0  0
  140.7220   68.2060  228.7170 Cl  0  0  0  0  0  0  0  0  0  0  0  0
  141.0830   70.6210  227.4860 C   0  0  0  0  0  0  0  0  0  0  0  0
  141.0340   71.5240  226.4520 C   0  0  0  0  0  0  0  0  0  0  0  0
  140.5160   71.1050  225.2440 C   0  0  0  0  0  0  0  0  0  0  0  0
  140.4590   71.9860  224.2090 N   0  0  0  0  0  0  0  0  0  0  0  0
  139.5400   74.1830  223.1030 H   0  0  0  0  0  0  0  0  0  0  0  0
  139.1480   74.1246  220.1742 H   0  0  0  0  0  0  0  0  0  0  0  0
  139.0490   75.6347  221.3401 H   0  0  0  0  0  0  0  0  0  0  0  0
  140.3052   75.3097  217.1222 H   0  0  0  0  0  0  0  0  0  0  0  0
  139.6292   76.6312  218.0168 H   0  0  0  0  0  0  0  0  0  0  0  0
  141.8490   76.8790  216.2313 H   0  0  0  0  0  0  0  0  0  0  0  0
  141.5703   78.0518  217.5172 H   0  0  0  0  0  0  0  0  0  0  0  0
  143.3854   77.0489  218.8798 H   0  0  0  0  0  0  0  0  0  0  0  0
  144.8240   75.9350  217.5380 H   0  0  0  0  0  0  0  0  0  0  0  0
  142.4702   74.3407  217.7177 H   0  0  0  0  0  0  0  0  0  0  0  0
  144.7769   75.8447  219.8924 H   0  0  0  0  0  0  0  0  0  0  0  0
  146.1376   74.4194  221.3293 H   0  0  0  0  0  0  0  0  0  0  0  0
  145.5440   72.0366  221.6773 H   0  0  0  0  0  0  0  0  0  0  0  0
  143.5370   71.1351  220.5379 H   0  0  0  0  0  0  0  0  0  0  0  0
  142.1620   72.5576  219.0896 H   0  0  0  0  0  0  0  0  0  0  0  0
  139.0847   70.0342  221.8355 H   0  0  0  0  0  0  0  0  0  0  0  0
  139.1744   68.4042  223.7008 H   0  0  0  0  0  0  0  0  0  0  0  0
  139.7441   67.8641  226.0023 H   0  0  0  0  0  0  0  0  0  0  0  0
  141.4942   70.9414  228.4547 H   0  0  0  0  0  0  0  0  0  0  0  0
  141.3980   72.5536  226.5837 H   0  0  0  0  0  0  0  0  0  0  0  0
  1  2  2  0
  2  3  1  0
  3  4  1  0
  4  5  1  0
  5  6  2  0
  5  7  1  0
  7  8  1  0
  8  9  1  0
  9 10  1  0
 10 11  1  0
 10 12  1  0
 12 13  1  0
 13 14  2  0
 14 15  1  0
 15 16  2  0
 16 17  1  0
 17 18  2  0
  2 19  1  0
 19 20  2  0
 20 21  1  0
 21 22  2  0
 22 23  1  0
 23 24  2  0
 24 25  1  0
 24 26  1  0
 26 27  2  0
 27 28  1  0
 28 29  2  0
 12  7  1  0
 18 13  1  0
 29 19  1  0
 28 22  1  0
  3 30  1  0
  4 31  1  0
  4 32  1  0
  8 33  1  0
  8 34  1  0
  9 35  1  0
  9 36  1  0
 10 37  1  1
 11 38  1  0
 12 39  1  6
 14 40  1  0
 15 41  1  0
 16 42  1  0
 17 43  1  0
 18 44  1  0
 20 45  1  0
 21 46  1  0
 23 47  1  0
 26 48  1  0
 27 49  1  0
M  END
>  <smiles>  (24) 
O=C(NCC(=O)N1CC[C@H](O)[C@H]1c1ccccc1)c1ccc2cc(Cl)ccc2n1

>  <score_type>  (24) 
oracle

>  <origin>  (24) 
autodockgpu

>  <m_score__min__energy>  (24) 
-8.5600000000000005

>  <m_primary>  (24) 
energy

>  <rmsd>  (24) 
1.8771365488967855

>  <m_score__min__rmsd>  (24) 
1.8771365488967855

>  <meeko>  (24) 
{"free_energy": -7.9, "intermolecular_energy": -9.69, "internal_energy": -1.91, "cluster_size": 11, "cluster_id": 5, "rank_in_cluster": 4}

>  <energy>  (24) 
-7.73

>  <cluster_rmsd>  (24) 
1.99

>  <cluster>  (24) 
3

$$$$

     RDKit          3D

 49 52  0  0  0  0  0  0  0  0999 V2000
  140.1790   72.4610  220.6930 O   0  0  0  0  0  0  0  0  0  0  0  0
  139.9700   72.8150  221.8850 C   0  0  0  0  0  0  0  0  0  0  0  0
  139.6570   74.2210  222.1170 N   0  0  0  0  0  0  0  0  0  0  0  0
  139.6230   75.0340  220.9660 C   0  0  0  0  0  0  0  0  0  0  0  0
  140.7990   75.5200  220.3000 C   0  0  0  0  0  0  0  0  0  0  0  0
  141.6610   76.0730  221.1380 O   0  0  0  0  0  0  0  0  0  0  0  0
  141.2330   75.5340  218.9730 N   0  0  0  0  0  0  0  0  0  0  0  0
  140.6170   76.0030  217.7270 C   0  0  0  0  0  0  0  0  0  0  0  0
  141.8080   76.7860  217.1060 C   0  0  0  0  0  0  0  0  0  0  0  0
  143.0520   76.2740  217.8580 C   0  0  2  0  0  0  0  0  0  0  0  0
  144.0670   76.0910  216.9400 O   0  0  0  0  0  0  0  0  0  0  0  0
  142.5210   75.0040  218.4510 C   0  0  1  0  0  0  0  0  0  0  0  0
  143.3550   74.2870  219.3700 C   0  0  0  0  0  0  0  0  0  0  0  0
  144.4620   74.7790  220.0290 C   0  0  0  0  0  0  0  0  0  0  0  0
  145.2170   74.0290  220.8970 C   0  0  0  0  0  0  0  0  0  0  0  0
  144.8970   72.7230  221.1540 C   0  0  0  0  0  0  0  0  0  0  0  0
  143.8030   72.1930  220.5200 C   0  0  0  0  0  0  0  0  0  0  0  0
  143.0460   72.9460  219.6500 C   0  0  0  0  0  0  0  0  0  0  0  0
  140.0280   71.8960  223.0090 C   0  0  0  0  0  0  0  0  0  0  0  0
  139.5750   70.6110  222.7970 C   0  0  0  0  0  0  0  0  0  0  0  0
  139.6100   69.7010  223.8340 C   0  0  0  0  0  0  0  0  0  0  0  0
  140.0960   70.0650  225.0870 C   0  0  0  0  0  0  0  0  0  0  0  0
  140.1290   69.1560  226.1210 C   0  0  0  0  0  0  0  0  0  0  0  0
  140.6240   69.5750  227.3470 C   0  0  0  0  0  0  0  0  0  0  0  0
  140.6930   68.4550  228.7140 Cl  0  0  0  0  0  0  0  0  0  0  0  0
  141.0660   70.8800  227.5050 C   0  0  0  0  0  0  0  0  0  0  0  0
  141.0330   71.7880  226.4750 C   0  0  0  0  0  0  0  0  0  0  0  0
  140.5420   71.3740  225.2540 C   0  0  0  0  0  0  0  0  0  0  0  0
  140.5020   72.2610  224.2240 N   0  0  0  0  0  0  0  0  0  0  0  0
  139.4850   74.4390  223.1010 H   0  0  0  0  0  0  0  0  0  0  0  0
  139.0657   74.4609  220.2104 H   0  0  0  0  0  0  0  0  0  0  0  0
  139.2098   75.9671  221.3765 H   0  0  0  0  0  0  0  0  0  0  0  0
  140.3033   75.1648  217.0874 H   0  0  0  0  0  0  0  0  0  0  0  0
  139.6982   76.5927  217.8611 H   0  0  0  0  0  0  0  0  0  0  0  0
  141.8916   76.5743  216.0298 H   0  0  0  0  0  0  0  0  0  0  0  0
  141.6840   77.8747  217.2024 H   0  0  0  0  0  0  0  0  0  0  0  0
  143.4847   76.9314  218.6265 H   0  0  0  0  0  0  0  0  0  0  0  0
  144.9490   75.9970  217.4150 H   0  0  0  0  0  0  0  0  0  0  0  0
  142.4375   74.1675  217.7416 H   0  0  0  0  0  0  0  0  0  0  0  0
  144.7548   75.8242  219.8505 H   0  0  0  0  0  0  0  0  0  0  0  0
  146.0886   74.4827  221.3913 H   0  0  0  0  0  0  0  0  0  0  0  0
  145.4989   72.1176  221.8477 H   0  0  0  0  0  0  0  0  0  0  0  0
  143.5244   71.1459  220.7099 H   0  0  0  0  0  0  0  0  0  0  0  0
  142.1755   72.4843  219.1610 H   0  0  0  0  0  0  0  0  0  0  0  0
  139.1893   70.3140  221.8106 H   0  0  0  0  0  0  0  0  0  0  0  0
  139.2494   68.6751  223.6685 H   0  0  0  0  0  0  0  0  0  0  0  0
  139.7723   68.1252  225.9784 H   0  0  0  0  0  0  0  0  0  0  0  0
  141.4544   71.1972  228.4840 H   0  0  0  0  0  0  0  0  0  0  0  0
  141.3889   72.8187  226.6199 H   0  0  0  0  0  0  0  0  0  0  0  0
  1  2  2  0
  2  3  1  0
  3  4  1  0
  4  5  1  0
  5  6  2  0
  5  7  1  0
  7  8  1  0
  8  9  1  0
  9 10  1  0
 10 11  1  0
 10 12  1  0
 12 13  1  0
 13 14  2  0
 14 15  1  0
 15 16  2  0
 16 17  1  0
 17 18  2  0
  2 19  1  0
 19 20  2  0
 20 21  1  0
 21 22  2  0
 22 23  1  0
 23 24  2  0
 24 25  1  0
 24 26  1  0
 26 27  2  0
 27 28  1  0
 28 29  2  0
 12  7  1  0
 18 13  1  0
 29 19  1  0
 28 22  1  0
  3 30  1  0
  4 31  1  0
  4 32  1  0
  8 33  1  0
  8 34  1  0
  9 35  1  0
  9 36  1  0
 10 37  1  1
 11 38  1  0
 12 39  1  6
 14 40  1  0
 15 41  1  0
 16 42  1  0
 17 43  1  0
 18 44  1  0
 20 45  1  0
 21 46  1  0
 23 47  1  0
 26 48  1  0
 27 49  1  0
M  END
>  <smiles>  (25) 
O=C(NCC(=O)N1CC[C@H](O)[C@H]1c1ccccc1)c1ccc2cc(Cl)ccc2n1

>  <score_type>  (25) 
oracle

>  <origin>  (25) 
autodockgpu

>  <m_score__min__energy>  (25) 
-8.5600000000000005

>  <m_primary>  (25) 
energy

>  <rmsd>  (25) 
1.983281765193692

>  <m_score__min__rmsd>  (25) 
1.983281765193692

>  <meeko>  (25) 
{"free_energy": -7.84, "intermolecular_energy": -9.63, "internal_energy": -1.97, "cluster_size": 11, "cluster_id": 5, "rank_in_cluster": 8}

>  <energy>  (25) 
-7.54

>  <cluster_rmsd>  (25) 
1.15

>  <cluster>  (25) 
3

$$$$

     RDKit          3D

 49 52  0  0  0  0  0  0  0  0999 V2000
  140.8450   73.9850  221.0710 O   0  0  0  0  0  0  0  0  0  0  0  0
  139.9300   73.8520  221.9280 C   0  0  0  0  0  0  0  0  0  0  0  0
  139.0380   74.9880  222.1300 N   0  0  0  0  0  0  0  0  0  0  0  0
  139.3040   76.1200  221.3330 C   0  0  0  0  0  0  0  0  0  0  0  0
  140.4920   76.9180  221.4550 C   0  0  0  0  0  0  0  0  0  0  0  0
  140.6790   77.3570  222.6880 O   0  0  0  0  0  0  0  0  0  0  0  0
  141.4870   77.3280  220.5650 N   0  0  0  0  0  0  0  0  0  0  0  0
  142.1680   76.6580  219.4530 C   0  0  0  0  0  0  0  0  0  0  0  0
  142.1030   77.7770  218.3740 C   0  0  0  0  0  0  0  0  0  0  0  0
  141.8070   79.0680  219.1620 C   0  0  2  0  0  0  0  0  0  0  0  0
  142.5930   80.0790  218.6470 O   0  0  0  0  0  0  0  0  0  0  0  0
  142.1800   78.6440  220.5510 C   0  0  1  0  0  0  0  0  0  0  0  0
  141.9010   79.5440  221.6300 C   0  0  0  0  0  0  0  0  0  0  0  0
  140.8420   80.4220  221.7130 C   0  0  0  0  0  0  0  0  0  0  0  0
  140.6390   81.2600  222.7820 C   0  0  0  0  0  0  0  0  0  0  0  0
  141.5040   81.2620  223.8430 C   0  0  0  0  0  0  0  0  0  0  0  0
  142.5730   80.4030  223.8020 C   0  0  0  0  0  0  0  0  0  0  0  0
  142.7750   79.5630  222.7290 C   0  0  0  0  0  0  0  0  0  0  0  0
  139.7370   72.6380  222.7030 C   0  0  0  0  0  0  0  0  0  0  0  0
  138.7300   71.7880  222.3010 C   0  0  0  0  0  0  0  0  0  0  0  0
  138.5070   70.6220  223.0060 C   0  0  0  0  0  0  0  0  0  0  0  0
  139.2850   70.2970  224.1130 C   0  0  0  0  0  0  0  0  0  0  0  0
  139.0620   69.1330  224.8160 C   0  0  0  0  0  0  0  0  0  0  0  0
  139.8690   68.8620  225.9110 C   0  0  0  0  0  0  0  0  0  0  0  0
  139.6320   67.3850  226.8530 Cl  0  0  0  0  0  0  0  0  0  0  0  0
  140.8680   69.7550  226.2710 C   0  0  0  0  0  0  0  0  0  0  0  0
  141.0920   70.9160  225.5720 C   0  0  0  0  0  0  0  0  0  0  0  0
  140.2920   71.1870  224.4820 C   0  0  0  0  0  0  0  0  0  0  0  0
  140.5000   72.3330  223.7790 N   0  0  0  0  0  0  0  0  0  0  0  0
  138.3120   74.8120  222.8270 H   0  0  0  0  0  0  0  0  0  0  0  0
  139.2871   75.7646  220.2921 H   0  0  0  0  0  0  0  0  0  0  0  0
  138.5383   76.8211  221.6966 H   0  0  0  0  0  0  0  0  0  0  0  0
  143.2060   76.3984  219.7083 H   0  0  0  0  0  0  0  0  0  0  0  0
  141.7220   75.6992  219.1500 H   0  0  0  0  0  0  0  0  0  0  0  0
  143.0626   77.8589  217.8426 H   0  0  0  0  0  0  0  0  0  0  0  0
  141.3385   77.5728  217.6099 H   0  0  0  0  0  0  0  0  0  0  0  0
  140.7809   79.4621  219.1194 H   0  0  0  0  0  0  0  0  0  0  0  0
  143.1140   79.7420  217.8550 H   0  0  0  0  0  0  0  0  0  0  0  0
  143.2622   78.6127  220.7458 H   0  0  0  0  0  0  0  0  0  0  0  0
  140.1230   80.4532  220.8811 H   0  0  0  0  0  0  0  0  0  0  0  0
  139.7720   81.9369  222.7857 H   0  0  0  0  0  0  0  0  0  0  0  0
  141.3469   81.9314  224.7016 H   0  0  0  0  0  0  0  0  0  0  0  0
  143.2826   80.3847  224.6423 H   0  0  0  0  0  0  0  0  0  0  0  0
  143.6443   78.8890  222.7332 H   0  0  0  0  0  0  0  0  0  0  0  0
  138.1098   72.0359  221.4270 H   0  0  0  0  0  0  0  0  0  0  0  0
  137.7037   69.9409  222.6884 H   0  0  0  0  0  0  0  0  0  0  0  0
  138.2647   68.4369  224.5165 H   0  0  0  0  0  0  0  0  0  0  0  0
  141.4995   69.5264  227.1422 H   0  0  0  0  0  0  0  0  0  0  0  0
  141.8889   71.6116  225.8739 H   0  0  0  0  0  0  0  0  0  0  0  0
  1  2  2  0
  2  3  1  0
  3  4  1  0
  4  5  1  0
  5  6  2  0
  5  7  1  0
  7  8  1  0
  8  9  1  0
  9 10  1  0
 10 11  1  0
 10 12  1  0
 12 13  1  0
 13 14  2  0
 14 15  1  0
 15 16  2  0
 16 17  1  0
 17 18  2  0
  2 19  1  0
 19 20  2  0
 20 21  1  0
 21 22  2  0
 22 23  1  0
 23 24  2  0
 24 25  1  0
 24 26  1  0
 26 27  2  0
 27 28  1  0
 28 29  2  0
 12  7  1  0
 18 13  1  0
 29 19  1  0
 28 22  1  0
  3 30  1  0
  4 31  1  0
  4 32  1  0
  8 33  1  0
  8 34  1  0
  9 35  1  0
  9 36  1  0
 10 37  1  1
 11 38  1  0
 12 39  1  6
 14 40  1  0
 15 41  1  0
 16 42  1  0
 17 43  1  0
 18 44  1  0
 20 45  1  0
 21 46  1  0
 23 47  1  0
 26 48  1  0
 27 49  1  0
M  END
>  <smiles>  (26) 
O=C(NCC(=O)N1CC[C@H](O)[C@H]1c1ccccc1)c1ccc2cc(Cl)ccc2n1

>  <score_type>  (26) 
oracle

>  <origin>  (26) 
autodockgpu

>  <m_score__min__energy>  (26) 
-8.5600000000000005

>  <m_primary>  (26) 
energy

>  <rmsd>  (26) 
2.936840734336216

>  <m_score__min__rmsd>  (26) 
2.936840734336216

>  <meeko>  (26) 
{"free_energy": -8.15, "intermolecular_energy": -9.94, "internal_energy": -1.22, "cluster_size": 4, "cluster_id": 3, "rank_in_cluster": 1}

>  <energy>  (26) 
-8.11

>  <cluster_rmsd>  (26) 
0.0

>  <cluster>  (26) 
4

$$$$

     RDKit          3D

 49 52  0  0  0  0  0  0  0  0999 V2000
  136.7640   77.6750  222.6910 O   0  0  0  0  0  0  0  0  0  0  0  0
  136.7690   76.4800  223.0930 C   0  0  0  0  0  0  0  0  0  0  0  0
  137.9000   75.6490  222.6960 N   0  0  0  0  0  0  0  0  0  0  0  0
  138.8720   76.2850  221.8970 C   0  0  0  0  0  0  0  0  0  0  0  0
  140.1450   75.7020  221.5790 C   0  0  0  0  0  0  0  0  0  0  0  0
  140.2800   74.4850  222.0770 O   0  0  0  0  0  0  0  0  0  0  0  0
  141.2630   76.1330  220.8610 N   0  0  0  0  0  0  0  0  0  0  0  0
  142.2110   75.4430  219.9810 C   0  0  0  0  0  0  0  0  0  0  0  0
  142.2730   76.4490  218.7960 C   0  0  0  0  0  0  0  0  0  0  0  0
  141.7150   77.7660  219.3690 C   0  0  2  0  0  0  0  0  0  0  0  0
  142.5010   78.8040  218.9110 O   0  0  0  0  0  0  0  0  0  0  0  0
  141.8310   77.5080  220.8410 C   0  0  1  0  0  0  0  0  0  0  0  0
  141.2630   78.4660  221.7420 C   0  0  0  0  0  0  0  0  0  0  0  0
  141.6000   78.6470  223.0670 C   0  0  0  0  0  0  0  0  0  0  0  0
  141.0080   79.5870  223.8730 C   0  0  0  0  0  0  0  0  0  0  0  0
  140.0300   80.4110  223.3860 C   0  0  0  0  0  0  0  0  0  0  0  0
  139.6630   80.2650  222.0730 C   0  0  0  0  0  0  0  0  0  0  0  0
  140.2570   79.3220  221.2640 C   0  0  0  0  0  0  0  0  0  0  0  0
  135.7140   75.9140  223.9170 C   0  0  0  0  0  0  0  0  0  0  0  0
  134.7440   76.7780  224.3800 C   0  0  0  0  0  0  0  0  0  0  0  0
  133.7220   76.2880  225.1670 C   0  0  0  0  0  0  0  0  0  0  0  0
  133.6590   74.9360  225.4960 C   0  0  0  0  0  0  0  0  0  0  0  0
  132.6380   74.4490  226.2820 C   0  0  0  0  0  0  0  0  0  0  0  0
  132.6270   73.0940  226.5770 C   0  0  0  0  0  0  0  0  0  0  0  0
  131.3430   72.4070  227.5810 Cl  0  0  0  0  0  0  0  0  0  0  0  0
  133.6290   72.2710  226.0850 C   0  0  0  0  0  0  0  0  0  0  0  0
  134.6490   72.7550  225.3020 C   0  0  0  0  0  0  0  0  0  0  0  0
  134.6610   74.1020  225.0060 C   0  0  0  0  0  0  0  0  0  0  0  0
  135.6630   74.5980  224.2320 N   0  0  0  0  0  0  0  0  0  0  0  0
  137.8500   74.6960  223.0640 H   0  0  0  0  0  0  0  0  0  0  0  0
  138.3835   76.4839  220.9317 H   0  0  0  0  0  0  0  0  0  0  0  0
  139.1753   77.1159  222.5510 H   0  0  0  0  0  0  0  0  0  0  0  0
  143.1933   75.3172  220.4599 H   0  0  0  0  0  0  0  0  0  0  0  0
  141.9191   74.4199  219.7016 H   0  0  0  0  0  0  0  0  0  0  0  0
  143.3103   76.5832  218.4554 H   0  0  0  0  0  0  0  0  0  0  0  0
  141.7005   76.0997  217.9241 H   0  0  0  0  0  0  0  0  0  0  0  0
  140.6894   78.0453  219.0861 H   0  0  0  0  0  0  0  0  0  0  0  0
  143.4750   78.5580  218.9810 H   0  0  0  0  0  0  0  0  0  0  0  0
  142.8492   77.6071  221.2452 H   0  0  0  0  0  0  0  0  0  0  0  0
  142.3824   78.0060  223.4995 H   0  0  0  0  0  0  0  0  0  0  0  0
  141.3234   79.6791  224.9228 H   0  0  0  0  0  0  0  0  0  0  0  0
  139.5533   81.1667  224.0277 H   0  0  0  0  0  0  0  0  0  0  0  0
  138.8782   80.9142  221.6574 H   0  0  0  0  0  0  0  0  0  0  0  0
  139.9351   79.2368  220.2156 H   0  0  0  0  0  0  0  0  0  0  0  0
  134.7846   77.8471  224.1245 H   0  0  0  0  0  0  0  0  0  0  0  0
  132.9470   76.9740  225.5394 H   0  0  0  0  0  0  0  0  0  0  0  0
  131.8525   75.1169  226.6654 H   0  0  0  0  0  0  0  0  0  0  0  0
  133.6064   71.1986  226.3290 H   0  0  0  0  0  0  0  0  0  0  0  0
  135.4350   72.0861  224.9214 H   0  0  0  0  0  0  0  0  0  0  0  0
  1  2  2  0
  2  3  1  0
  3  4  1  0
  4  5  1  0
  5  6  2  0
  5  7  1  0
  7  8  1  0
  8  9  1  0
  9 10  1  0
 10 11  1  0
 10 12  1  0
 12 13  1  0
 13 14  2  0
 14 15  1  0
 15 16  2  0
 16 17  1  0
 17 18  2  0
  2 19  1  0
 19 20  2  0
 20 21  1  0
 21 22  2  0
 22 23  1  0
 23 24  2  0
 24 25  1  0
 24 26  1  0
 26 27  2  0
 27 28  1  0
 28 29  2  0
 12  7  1  0
 18 13  1  0
 29 19  1  0
 28 22  1  0
  3 30  1  0
  4 31  1  0
  4 32  1  0
  8 33  1  0
  8 34  1  0
  9 35  1  0
  9 36  1  0
 10 37  1  1
 11 38  1  0
 12 39  1  1
 14 40  1  0
 15 41  1  0
 16 42  1  0
 17 43  1  0
 18 44  1  0
 20 45  1  0
 21 46  1  0
 23 47  1  0
 26 48  1  0
 27 49  1  0
M  END
>  <smiles>  (27) 
O=C(NCC(=O)N1CC[C@H](O)[C@H]1c1ccccc1)c1ccc2cc(Cl)ccc2n1

>  <score_type>  (27) 
oracle

>  <origin>  (27) 
autodockgpu

>  <m_score__min__energy>  (27) 
-8.5600000000000005

>  <m_primary>  (27) 
energy

>  <rmsd>  (27) 
6.076980854138763

>  <m_score__min__rmsd>  (27) 
6.076980854138763

>  <meeko>  (27) 
{"free_energy": -7.35, "intermolecular_energy": -9.14, "internal_energy": -1.89, "cluster_size": 2, "cluster_id": 8, "rank_in_cluster": 2}

>  <energy>  (27) 
-8.0

>  <cluster_rmsd>  (27) 
0.22

>  <cluster>  (27) 
4

$$$$

     RDKit          3D

 49 52  0  0  0  0  0  0  0  0999 V2000
  141.6490   71.9240  221.4810 O   0  0  0  0  0  0  0  0  0  0  0  0
  141.0010   72.9080  221.9300 C   0  0  0  0  0  0  0  0  0  0  0  0
  140.0130   72.6360  222.9690 N   0  0  0  0  0  0  0  0  0  0  0  0
  139.8950   71.2860  223.3570 C   0  0  0  0  0  0  0  0  0  0  0  0
  140.0950   70.8250  224.7030 C   0  0  0  0  0  0  0  0  0  0  0  0
  139.9950   71.8010  225.5900 O   0  0  0  0  0  0  0  0  0  0  0  0
  140.3660   69.5820  225.2780 N   0  0  0  0  0  0  0  0  0  0  0  0
  141.4480   69.0970  226.1410 C   0  0  0  0  0  0  0  0  0  0  0  0
  140.6250   68.3230  227.2100 C   0  0  0  0  0  0  0  0  0  0  0  0
  139.2470   68.0960  226.5580 C   0  0  2  0  0  0  0  0  0  0  0  0
  138.8410   66.8080  226.8430 O   0  0  0  0  0  0  0  0  0  0  0  0
  139.5740   68.3340  225.1140 C   0  0  1  0  0  0  0  0  0  0  0  0
  138.4940   68.3610  224.1720 C   0  0  0  0  0  0  0  0  0  0  0  0
  138.4700   67.7560  222.9340 C   0  0  0  0  0  0  0  0  0  0  0  0
  137.3970   67.8270  222.0810 C   0  0  0  0  0  0  0  0  0  0  0  0
  136.2710   68.5230  222.4300 C   0  0  0  0  0  0  0  0  0  0  0  0
  136.2520   69.1410  223.6540 C   0  0  0  0  0  0  0  0  0  0  0  0
  137.3290   69.0680  224.5100 C   0  0  0  0  0  0  0  0  0  0  0  0
  141.1970   74.2700  221.4620 C   0  0  0  0  0  0  0  0  0  0  0  0
  141.9920   74.4460  220.3500 C   0  0  0  0  0  0  0  0  0  0  0  0
  142.2080   75.7200  219.8670 C   0  0  0  0  0  0  0  0  0  0  0  0
  141.6340   76.8260  220.4890 C   0  0  0  0  0  0  0  0  0  0  0  0
  141.8500   78.0980  220.0060 C   0  0  0  0  0  0  0  0  0  0  0  0
  141.2530   79.1610  220.6670 C   0  0  0  0  0  0  0  0  0  0  0  0
  141.4920   80.8180  220.0960 Cl  0  0  0  0  0  0  0  0  0  0  0  0
  140.4630   78.9260  221.7820 C   0  0  0  0  0  0  0  0  0  0  0  0
  140.2460   77.6590  222.2660 C   0  0  0  0  0  0  0  0  0  0  0  0
  140.8380   76.5990  221.6100 C   0  0  0  0  0  0  0  0  0  0  0  0
  140.6340   75.3380  222.0750 N   0  0  0  0  0  0  0  0  0  0  0  0
  139.5330   73.4750  223.2990 H   0  0  0  0  0  0  0  0  0  0  0  0
  138.8729   70.9839  223.0851 H   0  0  0  0  0  0  0  0  0  0  0  0
  140.7627   70.8411  222.8479 H   0  0  0  0  0  0  0  0  0  0  0  0
  142.1356   68.4326  225.5972 H   0  0  0  0  0  0  0  0  0  0  0  0
  142.1027   69.8834  226.5445 H   0  0  0  0  0  0  0  0  0  0  0  0
  141.1046   67.3618  227.4470 H   0  0  0  0  0  0  0  0  0  0  0  0
  140.5498   68.8771  228.1573 H   0  0  0  0  0  0  0  0  0  0  0  0
  138.4164   68.7328  226.8965 H   0  0  0  0  0  0  0  0  0  0  0  0
  139.6150   66.2720  227.2000 H   0  0  0  0  0  0  0  0  0  0  0  0
  140.0963   67.5020  224.6190 H   0  0  0  0  0  0  0  0  0  0  0  0
  139.3554   67.1875  222.6133 H   0  0  0  0  0  0  0  0  0  0  0  0
  137.4424   67.3191  221.1063 H   0  0  0  0  0  0  0  0  0  0  0  0
  135.4086   68.5846  221.7500 H   0  0  0  0  0  0  0  0  0  0  0  0
  135.3589   69.7064  223.9585 H   0  0  0  0  0  0  0  0  0  0  0  0
  137.2748   69.5769  225.4837 H   0  0  0  0  0  0  0  0  0  0  0  0
  142.4501   73.5786  219.8522 H   0  0  0  0  0  0  0  0  0  0  0  0
  142.8416   75.8641  218.9794 H   0  0  0  0  0  0  0  0  0  0  0  0
  142.4793   78.2660  219.1196 H   0  0  0  0  0  0  0  0  0  0  0  0
  139.9959   79.7800  222.2944 H   0  0  0  0  0  0  0  0  0  0  0  0
  139.6169   77.4936  223.1531 H   0  0  0  0  0  0  0  0  0  0  0  0
  1  2  2  0
  2  3  1  0
  3  4  1  0
  4  5  1  0
  5  6  2  0
  5  7  1  0
  7  8  1  0
  8  9  1  0
  9 10  1  0
 10 11  1  0
 10 12  1  0
 12 13  1  0
 13 14  2  0
 14 15  1  0
 15 16  2  0
 16 17  1  0
 17 18  2  0
  2 19  1  0
 19 20  2  0
 20 21  1  0
 21 22  2  0
 22 23  1  0
 23 24  2  0
 24 25  1  0
 24 26  1  0
 26 27  2  0
 27 28  1  0
 28 29  2  0
 12  7  1  0
 18 13  1  0
 29 19  1  0
 28 22  1  0
  3 30  1  0
  4 31  1  0
  4 32  1  0
  8 33  1  0
  8 34  1  0
  9 35  1  0
  9 36  1  0
 10 37  1  1
 11 38  1  0
 12 39  1  6
 14 40  1  0
 15 41  1  0
 16 42  1  0
 17 43  1  0
 18 44  1  0
 20 45  1  0
 21 46  1  0
 23 47  1  0
 26 48  1  0
 27 49  1  0
M  END
>  <smiles>  (28) 
O=C(NCC(=O)N1CC[C@H](O)[C@H]1c1ccccc1)c1ccc2cc(Cl)ccc2n1

>  <score_type>  (28) 
oracle

>  <origin>  (28) 
autodockgpu

>  <m_score__min__energy>  (28) 
-8.5600000000000005

>  <m_primary>  (28) 
energy

>  <rmsd>  (28) 
9.065031703023191

>  <m_score__min__rmsd>  (28) 
9.065031703023191

>  <meeko>  (28) 
{"free_energy": -7.64, "intermolecular_energy": -9.43, "internal_energy": -1.65, "cluster_size": 3, "cluster_id": 6, "rank_in_cluster": 3}

>  <energy>  (28) 
-8.0

>  <cluster_rmsd>  (28) 
0.0

>  <cluster>  (28) 
5

$$$$

     RDKit          3D

 49 52  0  0  0  0  0  0  0  0999 V2000
  140.5550   72.3840  220.8040 O   0  0  0  0  0  0  0  0  0  0  0  0
  140.1090   72.6640  221.9500 C   0  0  0  0  0  0  0  0  0  0  0  0
  139.5640   74.0030  222.1430 N   0  0  0  0  0  0  0  0  0  0  0  0
  139.5980   74.8430  221.0110 C   0  0  0  0  0  0  0  0  0  0  0  0
  140.8120   75.3190  220.4100 C   0  0  0  0  0  0  0  0  0  0  0  0
  141.7210   75.6560  221.3100 O   0  0  0  0  0  0  0  0  0  0  0  0
  141.2430   75.5010  219.0940 N   0  0  0  0  0  0  0  0  0  0  0  0
  140.6280   76.1290  217.9210 C   0  0  0  0  0  0  0  0  0  0  0  0
  141.8240   76.9780  217.4020 C   0  0  0  0  0  0  0  0  0  0  0  0
  143.0650   76.3640  218.0790 C   0  0  2  0  0  0  0  0  0  0  0  0
  144.0770   76.2930  217.1420 O   0  0  0  0  0  0  0  0  0  0  0  0
  142.5260   75.0330  218.5060 C   0  0  1  0  0  0  0  0  0  0  0  0
  143.3570   74.1980  219.3230 C   0  0  0  0  0  0  0  0  0  0  0  0
  143.2350   72.8360  219.4950 C   0  0  0  0  0  0  0  0  0  0  0  0
  144.0690   72.1000  220.2990 C   0  0  0  0  0  0  0  0  0  0  0  0
  145.0890   72.7020  220.9860 C   0  0  0  0  0  0  0  0  0  0  0  0
  145.2470   74.0560  220.8440 C   0  0  0  0  0  0  0  0  0  0  0  0
  144.4090   74.7940  220.0370 C   0  0  0  0  0  0  0  0  0  0  0  0
  140.1180   71.7240  223.0590 C   0  0  0  0  0  0  0  0  0  0  0  0
  139.5980   70.4690  222.8250 C   0  0  0  0  0  0  0  0  0  0  0  0
  139.5850   69.5400  223.8460 C   0  0  0  0  0  0  0  0  0  0  0  0
  140.0880   69.8570  225.1050 C   0  0  0  0  0  0  0  0  0  0  0  0
  140.0740   68.9300  226.1240 C   0  0  0  0  0  0  0  0  0  0  0  0
  140.5890   69.3020  227.3570 C   0  0  0  0  0  0  0  0  0  0  0  0
  140.5990   68.1570  228.7040 Cl  0  0  0  0  0  0  0  0  0  0  0  0
  141.0990   70.5790  227.5360 C   0  0  0  0  0  0  0  0  0  0  0  0
  141.1130   71.5050  226.5220 C   0  0  0  0  0  0  0  0  0  0  0  0
  140.6030   71.1380  225.2940 C   0  0  0  0  0  0  0  0  0  0  0  0
  140.6100   72.0430  224.2790 N   0  0  0  0  0  0  0  0  0  0  0  0
  139.2080   74.1620  223.0880 H   0  0  0  0  0  0  0  0  0  0  0  0
  139.0638   74.2993  220.2179 H   0  0  0  0  0  0  0  0  0  0  0  0
  139.1854   75.7750  221.4248 H   0  0  0  0  0  0  0  0  0  0  0  0
  140.3075   75.3817  217.1802 H   0  0  0  0  0  0  0  0  0  0  0  0
  139.7132   76.7023  218.1319 H   0  0  0  0  0  0  0  0  0  0  0  0
  141.9042   76.9060  216.3073 H   0  0  0  0  0  0  0  0  0  0  0  0
  141.7082   78.0463  217.6373 H   0  0  0  0  0  0  0  0  0  0  0  0
  143.5039   76.9138  218.9246 H   0  0  0  0  0  0  0  0  0  0  0  0
  144.8240   75.7110  217.4830 H   0  0  0  0  0  0  0  0  0  0  0  0
  142.4349   74.2941  217.6962 H   0  0  0  0  0  0  0  0  0  0  0  0
  142.4284   72.3124  218.9609 H   0  0  0  0  0  0  0  0  0  0  0  0
  143.9163   71.0147  220.3925 H   0  0  0  0  0  0  0  0  0  0  0  0
  145.7606   72.1172  221.6317 H   0  0  0  0  0  0  0  0  0  0  0  0
  146.0591   74.5636  221.3851 H   0  0  0  0  0  0  0  0  0  0  0  0
  144.5683   75.8789  219.9497 H   0  0  0  0  0  0  0  0  0  0  0  0
  139.1971   70.2102  221.8339 H   0  0  0  0  0  0  0  0  0  0  0  0
  139.1722   68.5370  223.6627 H   0  0  0  0  0  0  0  0  0  0  0  0
  139.6652   67.9214  225.9640 H   0  0  0  0  0  0  0  0  0  0  0  0
  141.5044   70.8586  228.5196 H   0  0  0  0  0  0  0  0  0  0  0  0
  141.5205   72.5137  226.6849 H   0  0  0  0  0  0  0  0  0  0  0  0
  1  2  2  0
  2  3  1  0
  3  4  1  0
  4  5  1  0
  5  6  2  0
  5  7  1  0
  7  8  1  0
  8  9  1  0
  9 10  1  0
 10 11  1  0
 10 12  1  0
 12 13  1  0
 13 14  2  0
 14 15  1  0
 15 16  2  0
 16 17  1  0
 17 18  2  0
  2 19  1  0
 19 20  2  0
 20 21  1  0
 21 22  2  0
 22 23  1  0
 23 24  2  0
 24 25  1  0
 24 26  1  0
 26 27  2  0
 27 28  1  0
 28 29  2  0
 12  7  1  0
 18 13  1  0
 29 19  1  0
 28 22  1  0
  3 30  1  0
  4 31  1  0
  4 32  1  0
  8 33  1  0
  8 34  1  0
  9 35  1  0
  9 36  1  0
 10 37  1  1
 11 38  1  0
 12 39  1  6
 14 40  1  0
 15 41  1  0
 16 42  1  0
 17 43  1  0
 18 44  1  0
 20 45  1  0
 21 46  1  0
 23 47  1  0
 26 48  1  0
 27 49  1  0
M  END
>  <smiles>  (29) 
O=C(NCC(=O)N1CC[C@H](O)[C@H]1c1ccccc1)c1ccc2cc(Cl)ccc2n1

>  <score_type>  (29) 
oracle

>  <origin>  (29) 
autodockgpu

>  <m_score__min__energy>  (29) 
-8.5600000000000005

>  <m_primary>  (29) 
energy

>  <rmsd>  (29) 
1.9409630223313563

>  <m_score__min__rmsd>  (29) 
1.9409630223313563

>  <meeko>  (29) 
{"free_energy": -8.0, "intermolecular_energy": -9.79, "internal_energy": -1.83, "cluster_size": 11, "cluster_id": 5, "rank_in_cluster": 1}

>  <energy>  (29) 
-8.0

>  <cluster_rmsd>  (29) 
0.16

>  <cluster>  (29) 
5

$$$$

     RDKit          3D

 49 52  0  0  0  0  0  0  0  0999 V2000
  139.5880   72.0190  220.6970 O   0  0  0  0  0  0  0  0  0  0  0  0
  139.2580   72.3260  221.8740 C   0  0  0  0  0  0  0  0  0  0  0  0
  138.6230   73.6250  222.0700 N   0  0  0  0  0  0  0  0  0  0  0  0
  138.4490   74.3990  220.9050 C   0  0  0  0  0  0  0  0  0  0  0  0
  139.5200   75.0810  220.2350 C   0  0  0  0  0  0  0  0  0  0  0  0
  139.0860   76.0490  219.4460 O   0  0  0  0  0  0  0  0  0  0  0  0
  140.9110   74.9490  220.2340 N   0  0  0  0  0  0  0  0  0  0  0  0
  141.8070   73.8360  219.9080 C   0  0  0  0  0  0  0  0  0  0  0  0
  142.8500   74.5710  219.0170 C   0  0  0  0  0  0  0  0  0  0  0  0
  142.6550   76.0660  219.3360 C   0  0  2  0  0  0  0  0  0  0  0  0
  143.9010   76.6510  219.4400 O   0  0  0  0  0  0  0  0  0  0  0  0
  141.9030   75.9850  220.6290 C   0  0  1  0  0  0  0  0  0  0  0  0
  141.3930   77.2010  221.1910 C   0  0  0  0  0  0  0  0  0  0  0  0
  141.4750   78.4600  220.6360 C   0  0  0  0  0  0  0  0  0  0  0  0
  140.9640   79.5830  221.2360 C   0  0  0  0  0  0  0  0  0  0  0  0
  140.3310   79.5030  222.4480 C   0  0  0  0  0  0  0  0  0  0  0  0
  140.2260   78.2690  223.0370 C   0  0  0  0  0  0  0  0  0  0  0  0
  140.7400   77.1420  222.4340 C   0  0  0  0  0  0  0  0  0  0  0  0
  139.4810   71.4550  223.0160 C   0  0  0  0  0  0  0  0  0  0  0  0
  139.0490   70.1510  222.9070 C   0  0  0  0  0  0  0  0  0  0  0  0
  139.2380   69.2840  223.9640 C   0  0  0  0  0  0  0  0  0  0  0  0
  139.8580   69.7120  225.1350 C   0  0  0  0  0  0  0  0  0  0  0  0
  140.0460   68.8470  226.1910 C   0  0  0  0  0  0  0  0  0  0  0  0
  140.6690   69.3290  227.3320 C   0  0  0  0  0  0  0  0  0  0  0  0
  140.9390   68.2680  228.7200 Cl  0  0  0  0  0  0  0  0  0  0  0  0
  141.0830   70.6520  227.3870 C   0  0  0  0  0  0  0  0  0  0  0  0
  140.8960   71.5160  226.3370 C   0  0  0  0  0  0  0  0  0  0  0  0
  140.2770   71.0390  225.2000 C   0  0  0  0  0  0  0  0  0  0  0  0
  140.0840   71.8820  224.1500 N   0  0  0  0  0  0  0  0  0  0  0  0
  138.3680   73.8080  223.0430 H   0  0  0  0  0  0  0  0  0  0  0  0
  138.0112   73.7212  220.1574 H   0  0  0  0  0  0  0  0  0  0  0  0
  137.8696   75.2474  221.2980 H   0  0  0  0  0  0  0  0  0  0  0  0
  142.2706   73.4092  220.8096 H   0  0  0  0  0  0  0  0  0  0  0  0
  141.3171   72.9754  219.4291 H   0  0  0  0  0  0  0  0  0  0  0  0
  143.8712   74.2504  219.2709 H   0  0  0  0  0  0  0  0  0  0  0  0
  142.7107   74.3526  217.9479 H   0  0  0  0  0  0  0  0  0  0  0  0
  142.1197   76.6757  218.5932 H   0  0  0  0  0  0  0  0  0  0  0  0
  143.8760   77.4020  220.1090 H   0  0  0  0  0  0  0  0  0  0  0  0
  142.5219   75.7400  221.5047 H   0  0  0  0  0  0  0  0  0  0  0  0
  141.9755   78.5699  219.6627 H   0  0  0  0  0  0  0  0  0  0  0  0
  141.0638   80.5587  220.7380 H   0  0  0  0  0  0  0  0  0  0  0  0
  139.9198   80.4003  222.9336 H   0  0  0  0  0  0  0  0  0  0  0  0
  139.7214   78.1772  224.0101 H   0  0  0  0  0  0  0  0  0  0  0  0
  140.6366   76.1702  222.9389 H   0  0  0  0  0  0  0  0  0  0  0  0
  138.5579   69.8042  221.9858 H   0  0  0  0  0  0  0  0  0  0  0  0
  138.8947   68.2423  223.8804 H   0  0  0  0  0  0  0  0  0  0  0  0
  139.7105   67.8012  226.1303 H   0  0  0  0  0  0  0  0  0  0  0  0
  141.5758   71.0195  228.2992 H   0  0  0  0  0  0  0  0  0  0  0  0
  141.2310   72.5618  226.4004 H   0  0  0  0  0  0  0  0  0  0  0  0
  1  2  2  0
  2  3  1  0
  3  4  1  0
  4  5  1  0
  5  6  2  0
  5  7  1  0
  7  8  1  0
  8  9  1  0
  9 10  1  0
 10 11  1  0
 10 12  1  0
 12 13  1  0
 13 14  2  0
 14 15  1  0
 15 16  2  0
 16 17  1  0
 17 18  2  0
  2 19  1  0
 19 20  2  0
 20 21  1  0
 21 22  2  0
 22 23  1  0
 23 24  2  0
 24 25  1  0
 24 26  1  0
 26 27  2  0
 27 28  1  0
 28 29  2  0
 12  7  1  0
 18 13  1  0
 29 19  1  0
 28 22  1  0
  3 30  1  0
  4 31  1  0
  4 32  1  0
  8 33  1  0
  8 34  1  0
  9 35  1  0
  9 36  1  0
 10 37  1  6
 11 38  1  0
 12 39  1  1
 14 40  1  0
 15 41  1  0
 16 42  1  0
 17 43  1  0
 18 44  1  0
 20 45  1  0
 21 46  1  0
 23 47  1  0
 26 48  1  0
 27 49  1  0
M  END
>  <smiles>  (30) 
O=C(NCC(=O)N1CC[C@H](O)[C@H]1c1ccccc1)c1ccc2cc(Cl)ccc2n1

>  <score_type>  (30) 
oracle

>  <origin>  (30) 
autodockgpu

>  <m_score__min__energy>  (30) 
-8.5600000000000005

>  <m_primary>  (30) 
energy

>  <rmsd>  (30) 
2.1318974032208464

>  <m_score__min__rmsd>  (30) 
2.1318974032208464

>  <meeko>  (30) 
{"free_energy": -7.84, "intermolecular_energy": -9.63, "internal_energy": -1.6, "cluster_size": 12, "cluster_id": 2, "rank_in_cluster": 10}

>  <energy>  (30) 
-7.93

>  <cluster_rmsd>  (30) 
0.22

>  <cluster>  (30) 
5

$$$$

     RDKit          3D

 49 52  0  0  0  0  0  0  0  0999 V2000
  140.2740   72.5130  220.7040 O   0  0  0  0  0  0  0  0  0  0  0  0
  140.0260   72.8620  221.8900 C   0  0  0  0  0  0  0  0  0  0  0  0
  139.7220   74.2700  222.1190 N   0  0  0  0  0  0  0  0  0  0  0  0
  139.7380   75.0910  220.9730 C   0  0  0  0  0  0  0  0  0  0  0  0
  139.2710   76.4480  220.9600 C   0  0  0  0  0  0  0  0  0  0  0  0
  138.1620   76.5920  220.2540 O   0  0  0  0  0  0  0  0  0  0  0  0
  139.7250   77.6420  221.5250 N   0  0  0  0  0  0  0  0  0  0  0  0
  139.1960   78.5090  222.5820 C   0  0  0  0  0  0  0  0  0  0  0  0
  140.4900   78.7600  223.4100 C   0  0  0  0  0  0  0  0  0  0  0  0
  141.6430   78.3790  222.4610 C   0  0  2  0  0  0  0  0  0  0  0  0
  142.6400   79.3250  222.5930 O   0  0  0  0  0  0  0  0  0  0  0  0
  140.9410   78.4050  221.1370 C   0  0  1  0  0  0  0  0  0  0  0  0
  141.6590   77.9510  219.9820 C   0  0  0  0  0  0  0  0  0  0  0  0
  141.6590   78.5350  218.7340 C   0  0  0  0  0  0  0  0  0  0  0  0
  142.3730   78.0410  217.6700 C   0  0  0  0  0  0  0  0  0  0  0  0
  143.1370   76.9130  217.8040 C   0  0  0  0  0  0  0  0  0  0  0  0
  143.1660   76.2980  219.0300 C   0  0  0  0  0  0  0  0  0  0  0  0
  142.4500   76.7960  220.0970 C   0  0  0  0  0  0  0  0  0  0  0  0
  140.0330   71.9360  223.0100 C   0  0  0  0  0  0  0  0  0  0  0  0
  139.5130   70.6790  222.7910 C   0  0  0  0  0  0  0  0  0  0  0  0
  139.4970   69.7630  223.8240 C   0  0  0  0  0  0  0  0  0  0  0  0
  140.0000   70.0950  225.0800 C   0  0  0  0  0  0  0  0  0  0  0  0
  139.9830   69.1810  226.1100 C   0  0  0  0  0  0  0  0  0  0  0  0
  140.4970   69.5670  227.3390 C   0  0  0  0  0  0  0  0  0  0  0  0
  140.5040   68.4390  228.7000 Cl  0  0  0  0  0  0  0  0  0  0  0  0
  141.0080   70.8460  227.5030 C   0  0  0  0  0  0  0  0  0  0  0  0
  141.0250   71.7600  226.4770 C   0  0  0  0  0  0  0  0  0  0  0  0
  140.5150   71.3770  225.2530 C   0  0  0  0  0  0  0  0  0  0  0  0
  140.5240   72.2700  224.2270 N   0  0  0  0  0  0  0  0  0  0  0  0
  139.5170   74.4850  223.0970 H   0  0  0  0  0  0  0  0  0  0  0  0
  140.7882   75.1322  220.6484 H   0  0  0  0  0  0  0  0  0  0  0  0
  138.9786   74.5986  220.3479 H   0  0  0  0  0  0  0  0  0  0  0  0
  138.7862   79.4447  222.1738 H   0  0  0  0  0  0  0  0  0  0  0  0
  138.3597   78.0801  223.1536 H   0  0  0  0  0  0  0  0  0  0  0  0
  140.5632   79.8174  223.7040 H   0  0  0  0  0  0  0  0  0  0  0  0
  140.5076   78.1751  224.3414 H   0  0  0  0  0  0  0  0  0  0  0  0
  142.1445   77.4156  222.6354 H   0  0  0  0  0  0  0  0  0  0  0  0
  143.4450   79.0560  222.0520 H   0  0  0  0  0  0  0  0  0  0  0  0
  140.7609   79.4126  220.7341 H   0  0  0  0  0  0  0  0  0  0  0  0
  141.0566   79.4428  218.5823 H   0  0  0  0  0  0  0  0  0  0  0  0
  142.3306   78.5573  216.6996 H   0  0  0  0  0  0  0  0  0  0  0  0
  143.7099   76.5121  216.9549 H   0  0  0  0  0  0  0  0  0  0  0  0
  143.7724   75.3900  219.1639 H   0  0  0  0  0  0  0  0  0  0  0  0
  142.4993   76.2751  221.0646 H   0  0  0  0  0  0  0  0  0  0  0  0
  139.1143   70.4077  221.8023 H   0  0  0  0  0  0  0  0  0  0  0  0
  139.0820   68.7587  223.6531 H   0  0  0  0  0  0  0  0  0  0  0  0
  139.5725   68.1713  225.9619 H   0  0  0  0  0  0  0  0  0  0  0  0
  141.4118   71.1374  228.4838 H   0  0  0  0  0  0  0  0  0  0  0  0
  141.4342   72.7700  226.6272 H   0  0  0  0  0  0  0  0  0  0  0  0
  1  2  2  0
  2  3  1  0
  3  4  1  0
  4  5  1  0
  5  6  2  0
  5  7  1  0
  7  8  1  0
  8  9  1  0
  9 10  1  0
 10 11  1  0
 10 12  1  0
 12 13  1  0
 13 14  2  0
 14 15  1  0
 15 16  2  0
 16 17  1  0
 17 18  2  0
  2 19  1  0
 19 20  2  0
 20 21  1  0
 21 22  2  0
 22 23  1  0
 23 24  2  0
 24 25  1  0
 24 26  1  0
 26 27  2  0
 27 28  1  0
 28 29  2  0
 12  7  1  0
 18 13  1  0
 29 19  1  0
 28 22  1  0
  3 30  1  0
  4 31  1  0
  4 32  1  0
  8 33  1  0
  8 34  1  0
  9 35  1  0
  9 36  1  0
 10 37  1  1
 11 38  1  0
 12 39  1  6
 14 40  1  0
 15 41  1  0
 16 42  1  0
 17 43  1  0
 18 44  1  0
 20 45  1  0
 21 46  1  0
 23 47  1  0
 26 48  1  0
 27 49  1  0
M  END
>  <smiles>  (31) 
O=C(NCC(=O)N1CC[C@H](O)[C@H]1c1ccccc1)c1ccc2cc(Cl)ccc2n1

>  <score_type>  (31) 
oracle

>  <origin>  (31) 
autodockgpu

>  <m_score__min__energy>  (31) 
-8.5600000000000005

>  <m_primary>  (31) 
energy

>  <rmsd>  (31) 
3.5888959242384955

>  <m_score__min__rmsd>  (31) 
3.5888959242384955

>  <meeko>  (31) 
{"free_energy": -8.12, "intermolecular_energy": -9.91, "internal_energy": -1.44, "cluster_size": 12, "cluster_id": 2, "rank_in_cluster": 5}

>  <energy>  (31) 
-7.9

>  <cluster_rmsd>  (31) 
0.19

>  <cluster>  (31) 
5

$$$$

     RDKit          3D

 49 52  0  0  0  0  0  0  0  0999 V2000
  138.6650   81.2580  223.5360 O   0  0  0  0  0  0  0  0  0  0  0  0
  137.4520   80.9920  223.7560 C   0  0  0  0  0  0  0  0  0  0  0  0
  136.6810   80.4390  222.6480 N   0  0  0  0  0  0  0  0  0  0  0  0
  137.3890   80.2610  221.4420 C   0  0  0  0  0  0  0  0  0  0  0  0
  138.1320   79.0740  221.1240 C   0  0  0  0  0  0  0  0  0  0  0  0
  138.6230   79.1010  219.8960 O   0  0  0  0  0  0  0  0  0  0  0  0
  138.4520   77.9070  221.8210 N   0  0  0  0  0  0  0  0  0  0  0  0
  137.6900   76.6960  222.1410 C   0  0  0  0  0  0  0  0  0  0  0  0
  138.7370   75.6040  221.7750 C   0  0  0  0  0  0  0  0  0  0  0  0
  140.0850   76.3500  221.7350 C   0  0  2  0  0  0  0  0  0  0  0  0
  141.0350   75.5570  222.3470 O   0  0  0  0  0  0  0  0  0  0  0  0
  139.7420   77.5970  222.4930 C   0  0  1  0  0  0  0  0  0  0  0  0
  140.7200   78.6430  222.5510 C   0  0  0  0  0  0  0  0  0  0  0  0
  141.2780   79.3040  221.4780 C   0  0  0  0  0  0  0  0  0  0  0  0
  142.2150   80.2990  221.6100 C   0  0  0  0  0  0  0  0  0  0  0  0
  142.6500   80.6900  222.8480 C   0  0  0  0  0  0  0  0  0  0  0  0
  142.1210   80.0580  223.9440 C   0  0  0  0  0  0  0  0  0  0  0  0
  141.1810   79.0600  223.8100 C   0  0  0  0  0  0  0  0  0  0  0  0
  136.8100   81.2120  225.0410 C   0  0  0  0  0  0  0  0  0  0  0  0
  137.4780   82.0030  225.9520 C   0  0  0  0  0  0  0  0  0  0  0  0
  136.9090   82.2410  227.1860 C   0  0  0  0  0  0  0  0  0  0  0  0
  135.6720   81.6940  227.5200 C   0  0  0  0  0  0  0  0  0  0  0  0
  135.1060   81.9330  228.7530 C   0  0  0  0  0  0  0  0  0  0  0  0
  133.8720   81.3620  229.0290 C   0  0  0  0  0  0  0  0  0  0  0  0
  133.0930   81.6300  230.5940 Cl  0  0  0  0  0  0  0  0  0  0  0  0
  133.2460   80.5740  228.0750 C   0  0  0  0  0  0  0  0  0  0  0  0
  133.8090   80.3340  226.8460 C   0  0  0  0  0  0  0  0  0  0  0  0
  135.0350   80.9020  226.5670 C   0  0  0  0  0  0  0  0  0  0  0  0
  135.6070   80.6750  225.3550 N   0  0  0  0  0  0  0  0  0  0  0  0
  135.7100   80.2340  222.8950 H   0  0  0  0  0  0  0  0  0  0  0  0
  136.6463   80.3743  220.6385 H   0  0  0  0  0  0  0  0  0  0  0  0
  138.1999   80.9948  221.5604 H   0  0  0  0  0  0  0  0  0  0  0  0
  137.4163   76.6568  223.2057 H   0  0  0  0  0  0  0  0  0  0  0  0
  136.7275   76.6054  221.6162 H   0  0  0  0  0  0  0  0  0  0  0  0
  138.7546   74.8124  222.5385 H   0  0  0  0  0  0  0  0  0  0  0  0
  138.5064   75.1109  220.8191 H   0  0  0  0  0  0  0  0  0  0  0  0
  140.5066   76.5800  220.7454 H   0  0  0  0  0  0  0  0  0  0  0  0
  141.9380   76.0000  222.2990 H   0  0  0  0  0  0  0  0  0  0  0  0
  139.6899   77.4703  223.5844 H   0  0  0  0  0  0  0  0  0  0  0  0
  140.9566   79.0202  220.4650 H   0  0  0  0  0  0  0  0  0  0  0  0
  142.6205   80.7872  220.7115 H   0  0  0  0  0  0  0  0  0  0  0  0
  143.4005   81.4864  222.9600 H   0  0  0  0  0  0  0  0  0  0  0  0
  142.4538   80.3538  224.9499 H   0  0  0  0  0  0  0  0  0  0  0  0
  140.7808   78.5768  224.7135 H   0  0  0  0  0  0  0  0  0  0  0  0
  138.4549   82.4398  225.6972 H   0  0  0  0  0  0  0  0  0  0  0  0
  137.4389   82.8709  227.9157 H   0  0  0  0  0  0  0  0  0  0  0  0
  135.6183   82.5593  229.4982 H   0  0  0  0  0  0  0  0  0  0  0  0
  132.2685   80.1276  228.3101 H   0  0  0  0  0  0  0  0  0  0  0  0
  133.2961   79.7053  226.1032 H   0  0  0  0  0  0  0  0  0  0  0  0
  1  2  2  0
  2  3  1  0
  3  4  1  0
  4  5  1  0
  5  6  2  0
  5  7  1  0
  7  8  1  0
  8  9  1  0
  9 10  1  0
 10 11  1  0
 10 12  1  0
 12 13  1  0
 13 14  2  0
 14 15  1  0
 15 16  2  0
 16 17  1  0
 17 18  2  0
  2 19  1  0
 19 20  2  0
 20 21  1  0
 21 22  2  0
 22 23  1  0
 23 24  2  0
 24 25  1  0
 24 26  1  0
 26 27  2  0
 27 28  1  0
 28 29  2  0
 12  7  1  0
 18 13  1  0
 29 19  1  0
 28 22  1  0
  3 30  1  0
  4 31  1  0
  4 32  1  0
  8 33  1  0
  8 34  1  0
  9 35  1  0
  9 36  1  0
 10 37  1  6
 11 38  1  0
 12 39  1  1
 14 40  1  0
 15 41  1  0
 16 42  1  0
 17 43  1  0
 18 44  1  0
 20 45  1  0
 21 46  1  0
 23 47  1  0
 26 48  1  0
 27 49  1  0
M  END
>  <smiles>  (32) 
O=C(NCC(=O)N1CC[C@H](O)[C@H]1c1ccccc1)c1ccc2cc(Cl)ccc2n1

>  <score_type>  (32) 
oracle

>  <origin>  (32) 
autodockgpu

>  <m_score__min__energy>  (32) 
-8.5600000000000005

>  <m_primary>  (32) 
energy

>  <rmsd>  (32) 
9.722119384736848

>  <m_score__min__rmsd>  (32) 
9.722119384736848

>  <meeko>  (32) 
{"free_energy": -7.13, "intermolecular_energy": -8.92, "internal_energy": -2.02, "cluster_size": 3, "cluster_id": 9, "rank_in_cluster": 1}

>  <energy>  (32) 
-7.9

>  <cluster_rmsd>  (32) 
0.26

>  <cluster>  (32) 
5

$$$$

     RDKit          3D

 49 52  0  0  0  0  0  0  0  0999 V2000
  138.5260   79.5590  220.8800 O   0  0  0  0  0  0  0  0  0  0  0  0
  138.0960   79.4100  222.0550 C   0  0  0  0  0  0  0  0  0  0  0  0
  137.9990   78.0440  222.5590 N   0  0  0  0  0  0  0  0  0  0  0  0
  138.4040   77.0340  221.6630 C   0  0  0  0  0  0  0  0  0  0  0  0
  139.7010   76.4200  221.6900 C   0  0  0  0  0  0  0  0  0  0  0  0
  139.8460   75.5940  222.7120 O   0  0  0  0  0  0  0  0  0  0  0  0
  140.8360   76.5000  220.8800 N   0  0  0  0  0  0  0  0  0  0  0  0
  141.4450   75.5720  219.9220 C   0  0  0  0  0  0  0  0  0  0  0  0
  141.7220   76.5400  218.7360 C   0  0  0  0  0  0  0  0  0  0  0  0
  141.6520   77.9500  219.3540 C   0  0  2  0  0  0  0  0  0  0  0  0
  142.6840   78.7030  218.8300 O   0  0  0  0  0  0  0  0  0  0  0  0
  141.8020   77.6290  220.8100 C   0  0  1  0  0  0  0  0  0  0  0  0
  141.6360   78.6930  221.7570 C   0  0  0  0  0  0  0  0  0  0  0  0
  141.5150   78.5630  223.1230 C   0  0  0  0  0  0  0  0  0  0  0  0
  141.3560   79.6320  223.9710 C   0  0  0  0  0  0  0  0  0  0  0  0
  141.3100   80.9100  223.4840 C   0  0  0  0  0  0  0  0  0  0  0  0
  141.4270   81.0850  222.1290 C   0  0  0  0  0  0  0  0  0  0  0  0
  141.5860   80.0130  221.2790 C   0  0  0  0  0  0  0  0  0  0  0  0
  137.7010   80.5200  222.9060 C   0  0  0  0  0  0  0  0  0  0  0  0
  137.5270   81.7460  222.3000 C   0  0  0  0  0  0  0  0  0  0  0  0
  137.1520   82.8320  223.0650 C   0  0  0  0  0  0  0  0  0  0  0  0
  136.9500   82.7030  224.4370 C   0  0  0  0  0  0  0  0  0  0  0  0
  136.5780   83.7880  225.2000 C   0  0  0  0  0  0  0  0  0  0  0  0
  136.3910   83.5990  226.5610 C   0  0  0  0  0  0  0  0  0  0  0  0
  135.9120   84.9520  227.5950 Cl  0  0  0  0  0  0  0  0  0  0  0  0
  136.5820   82.3430  227.1180 C   0  0  0  0  0  0  0  0  0  0  0  0
  136.9540   81.2600  226.3590 C   0  0  0  0  0  0  0  0  0  0  0  0
  137.1390   81.4450  225.0050 C   0  0  0  0  0  0  0  0  0  0  0  0
  137.5080   80.3830  224.2390 N   0  0  0  0  0  0  0  0  0  0  0  0
  137.6560   77.9920  223.5210 H   0  0  0  0  0  0  0  0  0  0  0  0
  137.6815   76.2142  221.7888 H   0  0  0  0  0  0  0  0  0  0  0  0
  138.4538   77.5951  220.7182 H   0  0  0  0  0  0  0  0  0  0  0  0
  142.3740   75.1331  220.3147 H   0  0  0  0  0  0  0  0  0  0  0  0
  140.8256   74.6989  219.6690 H   0  0  0  0  0  0  0  0  0  0  0  0
  142.7181   76.3535  218.3081 H   0  0  0  0  0  0  0  0  0  0  0  0
  141.0001   76.4096  217.9163 H   0  0  0  0  0  0  0  0  0  0  0  0
  140.7457   78.5425  219.1600 H   0  0  0  0  0  0  0  0  0  0  0  0
  143.5700   78.2870  219.0630 H   0  0  0  0  0  0  0  0  0  0  0  0
  142.8299   77.3947  221.1239 H   0  0  0  0  0  0  0  0  0  0  0  0
  141.5473   77.5526  223.5565 H   0  0  0  0  0  0  0  0  0  0  0  0
  141.2647   79.4588  225.0534 H   0  0  0  0  0  0  0  0  0  0  0  0
  141.1832   81.7698  224.1582 H   0  0  0  0  0  0  0  0  0  0  0  0
  141.3932   82.1025  221.7123 H   0  0  0  0  0  0  0  0  0  0  0  0
  141.6762   80.1952  220.1979 H   0  0  0  0  0  0  0  0  0  0  0  0
  137.6855   81.8577  221.2172 H   0  0  0  0  0  0  0  0  0  0  0  0
  137.0109   83.8117  222.5850 H   0  0  0  0  0  0  0  0  0  0  0  0
  136.4332   84.7776  224.7420 H   0  0  0  0  0  0  0  0  0  0  0  0
  136.4311   82.2102  228.1995 H   0  0  0  0  0  0  0  0  0  0  0  0
  137.1004   80.2716  226.8190 H   0  0  0  0  0  0  0  0  0  0  0  0
  1  2  2  0
  2  3  1  0
  3  4  1  0
  4  5  1  0
  5  6  2  0
  5  7  1  0
  7  8  1  0
  8  9  1  0
  9 10  1  0
 10 11  1  0
 10 12  1  0
 12 13  1  0
 13 14  2  0
 14 15  1  0
 15 16  2  0
 16 17  1  0
 17 18  2  0
  2 19  1  0
 19 20  2  0
 20 21  1  0
 21 22  2  0
 22 23  1  0
 23 24  2  0
 24 25  1  0
 24 26  1  0
 26 27  2  0
 27 28  1  0
 28 29  2  0
 12  7  1  0
 18 13  1  0
 29 19  1  0
 28 22  1  0
  3 30  1  0
  4 31  1  0
  4 32  1  0
  8 33  1  0
  8 34  1  0
  9 35  1  0
  9 36  1  0
 10 37  1  1
 11 38  1  0
 12 39  1  6
 14 40  1  0
 15 41  1  0
 16 42  1  0
 17 43  1  0
 18 44  1  0
 20 45  1  0
 21 46  1  0
 23 47  1  0
 26 48  1  0
 27 49  1  0
M  END
>  <smiles>  (33) 
O=C(NCC(=O)N1CC[C@H](O)[C@H]1c1ccccc1)c1ccc2cc(Cl)ccc2n1

>  <score_type>  (33) 
oracle

>  <origin>  (33) 
autodockgpu

>  <m_score__min__energy>  (33) 
-8.5600000000000005

>  <m_primary>  (33) 
energy

>  <rmsd>  (33) 
9.084583349879336

>  <m_score__min__rmsd>  (33) 
9.084583349879336

>  <meeko>  (33) 
{"free_energy": -6.53, "intermolecular_energy": -8.32, "internal_energy": -2.62, "cluster_size": 3, "cluster_id": 10, "rank_in_cluster": 1}

>  <energy>  (33) 
-7.87

>  <cluster_rmsd>  (33) 
0.25

>  <cluster>  (33) 
5

$$$$

     RDKit          3D

 49 52  0  0  0  0  0  0  0  0999 V2000
  140.4480   72.6240  220.8020 O   0  0  0  0  0  0  0  0  0  0  0  0
  139.7940   72.7930  221.8670 C   0  0  0  0  0  0  0  0  0  0  0  0
  138.9230   73.9610  221.9350 N   0  0  0  0  0  0  0  0  0  0  0  0
  138.9120   74.7790  220.7870 C   0  0  0  0  0  0  0  0  0  0  0  0
  138.5490   76.1680  220.8040 C   0  0  0  0  0  0  0  0  0  0  0  0
  137.3790   76.3900  220.2300 O   0  0  0  0  0  0  0  0  0  0  0  0
  139.1540   77.3290  221.2910 N   0  0  0  0  0  0  0  0  0  0  0  0
  138.6230   78.5450  221.9130 C   0  0  0  0  0  0  0  0  0  0  0  0
  139.6050   78.6960  223.1110 C   0  0  0  0  0  0  0  0  0  0  0  0
  140.8160   77.8180  222.7400 C   0  0  2  0  0  0  0  0  0  0  0  0
  141.9660   78.5030  223.0760 O   0  0  0  0  0  0  0  0  0  0  0  0
  140.6060   77.6530  221.2650 C   0  0  1  0  0  0  0  0  0  0  0  0
  141.4670   76.7530  220.5560 C   0  0  0  0  0  0  0  0  0  0  0  0
  141.9980   76.9450  219.2990 C   0  0  0  0  0  0  0  0  0  0  0  0
  142.8160   76.0340  218.6790 C   0  0  0  0  0  0  0  0  0  0  0  0
  143.1510   74.8600  219.2980 C   0  0  0  0  0  0  0  0  0  0  0  0
  142.6440   74.6270  220.5510 C   0  0  0  0  0  0  0  0  0  0  0  0
  141.8230   75.5430  221.1720 C   0  0  0  0  0  0  0  0  0  0  0  0
  139.8750   71.8880  223.0020 C   0  0  0  0  0  0  0  0  0  0  0  0
  139.3660   70.6180  222.8320 C   0  0  0  0  0  0  0  0  0  0  0  0
  139.4190   69.7220  223.8810 C   0  0  0  0  0  0  0  0  0  0  0  0
  139.9790   70.0860  225.1030 C   0  0  0  0  0  0  0  0  0  0  0  0
  140.0310   69.1910  226.1490 C   0  0  0  0  0  0  0  0  0  0  0  0
  140.6010   69.6100  227.3420 C   0  0  0  0  0  0  0  0  0  0  0  0
  140.6970   68.5070  228.7220 Cl  0  0  0  0  0  0  0  0  0  0  0  0
  141.0960   70.9000  227.4570 C   0  0  0  0  0  0  0  0  0  0  0  0
  141.0450   71.7940  226.4160 C   0  0  0  0  0  0  0  0  0  0  0  0
  140.4800   71.3800  225.2270 C   0  0  0  0  0  0  0  0  0  0  0  0
  140.4210   72.2530  224.1860 N   0  0  0  0  0  0  0  0  0  0  0  0
  138.4130   74.0330  222.8180 H   0  0  0  0  0  0  0  0  0  0  0  0
  139.9339   74.7409  220.3817 H   0  0  0  0  0  0  0  0  0  0  0  0
  138.0717   74.3459  220.2246 H   0  0  0  0  0  0  0  0  0  0  0  0
  138.6763   79.4071  221.2319 H   0  0  0  0  0  0  0  0  0  0  0  0
  137.5603   78.4930  222.1924 H   0  0  0  0  0  0  0  0  0  0  0  0
  139.9101   79.7459  223.2321 H   0  0  0  0  0  0  0  0  0  0  0  0
  139.1476   78.3915  224.0639 H   0  0  0  0  0  0  0  0  0  0  0  0
  140.9101   76.8468  223.2478 H   0  0  0  0  0  0  0  0  0  0  0  0
  142.7010   78.2870  222.4240 H   0  0  0  0  0  0  0  0  0  0  0  0
  140.8859   78.5291  220.6615 H   0  0  0  0  0  0  0  0  0  0  0  0
  141.7539   77.8755  218.7656 H   0  0  0  0  0  0  0  0  0  0  0  0
  143.2067   76.2496  217.6736 H   0  0  0  0  0  0  0  0  0  0  0  0
  143.8064   74.1263  218.8059 H   0  0  0  0  0  0  0  0  0  0  0  0
  142.8977   73.6909  221.0701 H   0  0  0  0  0  0  0  0  0  0  0  0
  141.4363   75.3200  222.1773 H   0  0  0  0  0  0  0  0  0  0  0  0
  138.9221   70.3216  221.8702 H   0  0  0  0  0  0  0  0  0  0  0  0
  139.0138   68.7078  223.7499 H   0  0  0  0  0  0  0  0  0  0  0  0
  139.6314   68.1719  226.0410 H   0  0  0  0  0  0  0  0  0  0  0  0
  141.5430   71.2168  228.4108 H   0  0  0  0  0  0  0  0  0  0  0  0
  141.4439   72.8131  226.5269 H   0  0  0  0  0  0  0  0  0  0  0  0
  1  2  2  0
  2  3  1  0
  3  4  1  0
  4  5  1  0
  5  6  2  0
  5  7  1  0
  7  8  1  0
  8  9  1  0
  9 10  1  0
 10 11  1  0
 10 12  1  0
 12 13  1  0
 13 14  2  0
 14 15  1  0
 15 16  2  0
 16 17  1  0
 17 18  2  0
  2 19  1  0
 19 20  2  0
 20 21  1  0
 21 22  2  0
 22 23  1  0
 23 24  2  0
 24 25  1  0
 24 26  1  0
 26 27  2  0
 27 28  1  0
 28 29  2  0
 12  7  1  0
 18 13  1  0
 29 19  1  0
 28 22  1  0
  3 30  1  0
  4 31  1  0
  4 32  1  0
  8 33  1  0
  8 34  1  0
  9 35  1  0
  9 36  1  0
 10 37  1  1
 11 38  1  0
 12 39  1  6
 14 40  1  0
 15 41  1  0
 16 42  1  0
 17 43  1  0
 18 44  1  0
 20 45  1  0
 21 46  1  0
 23 47  1  0
 26 48  1  0
 27 49  1  0
M  END
>  <smiles>  (34) 
O=C(NCC(=O)N1CC[C@H](O)[C@H]1c1ccccc1)c1ccc2cc(Cl)ccc2n1

>  <score_type>  (34) 
oracle

>  <origin>  (34) 
autodockgpu

>  <m_score__min__energy>  (34) 
-8.5600000000000005

>  <m_primary>  (34) 
energy

>  <rmsd>  (34) 
3.396938935243676

>  <m_score__min__rmsd>  (34) 
3.396938935243676

>  <meeko>  (34) 
{"free_energy": -7.85, "intermolecular_energy": -9.64, "internal_energy": -1.52, "cluster_size": 12, "cluster_id": 2, "rank_in_cluster": 9}

>  <energy>  (34) 
-7.87

>  <cluster_rmsd>  (34) 
0.25

>  <cluster>  (34) 
5

$$$$

     RDKit          3D

 49 52  0  0  0  0  0  0  0  0999 V2000
  141.1370   72.9190  221.0660 O   0  0  0  0  0  0  0  0  0  0  0  0
  140.4170   73.8120  221.5900 C   0  0  0  0  0  0  0  0  0  0  0  0
  139.2180   73.3710  222.2950 N   0  0  0  0  0  0  0  0  0  0  0  0
  139.0000   71.9790  222.3120 C   0  0  0  0  0  0  0  0  0  0  0  0
  138.1160   71.3240  223.2350 C   0  0  0  0  0  0  0  0  0  0  0  0
  137.3160   72.1740  223.8560 O   0  0  0  0  0  0  0  0  0  0  0  0
  137.9150   69.9960  223.6180 N   0  0  0  0  0  0  0  0  0  0  0  0
  137.0290   68.9380  223.1220 C   0  0  0  0  0  0  0  0  0  0  0  0
  138.0290   67.7480  223.0540 C   0  0  0  0  0  0  0  0  0  0  0  0
  139.2120   68.1770  223.9440 C   0  0  2  0  0  0  0  0  0  0  0  0
  139.6030   67.0880  224.6970 O   0  0  0  0  0  0  0  0  0  0  0  0
  138.5840   69.2810  224.7380 C   0  0  1  0  0  0  0  0  0  0  0  0
  139.4250   70.0570  225.6010 C   0  0  0  0  0  0  0  0  0  0  0  0
  140.3070   71.0440  225.2160 C   0  0  0  0  0  0  0  0  0  0  0  0
  141.0860   71.7460  226.1020 C   0  0  0  0  0  0  0  0  0  0  0  0
  141.0220   71.4900  227.4460 C   0  0  0  0  0  0  0  0  0  0  0  0
  140.1570   70.5150  227.8730 C   0  0  0  0  0  0  0  0  0  0  0  0
  139.3760   69.8110  226.9830 C   0  0  0  0  0  0  0  0  0  0  0  0
  140.7290   75.2290  221.5170 C   0  0  0  0  0  0  0  0  0  0  0  0
  141.6530   75.6230  220.5730 C   0  0  0  0  0  0  0  0  0  0  0  0
  141.9830   76.9590  220.4650 C   0  0  0  0  0  0  0  0  0  0  0  0
  141.3950   77.9090  221.2960 C   0  0  0  0  0  0  0  0  0  0  0  0
  141.7260   79.2420  221.1880 C   0  0  0  0  0  0  0  0  0  0  0  0
  141.1080   80.1430  222.0430 C   0  0  0  0  0  0  0  0  0  0  0  0
  141.4900   81.8670  221.9530 Cl  0  0  0  0  0  0  0  0  0  0  0  0
  140.1860   79.6900  222.9750 C   0  0  0  0  0  0  0  0  0  0  0  0
  139.8560   78.3620  223.0850 C   0  0  0  0  0  0  0  0  0  0  0  0
  140.4680   77.4640  222.2350 C   0  0  0  0  0  0  0  0  0  0  0  0
  140.1520   76.1440  222.3310 N   0  0  0  0  0  0  0  0  0  0  0  0
  138.6860   74.1410  222.7070 H   0  0  0  0  0  0  0  0  0  0  0  0
  138.6309   71.7208  221.3084 H   0  0  0  0  0  0  0  0  0  0  0  0
  139.9783   71.6140  222.6580 H   0  0  0  0  0  0  0  0  0  0  0  0
  136.2039   68.7369  223.8211 H   0  0  0  0  0  0  0  0  0  0  0  0
  136.5223   69.1686  222.1733 H   0  0  0  0  0  0  0  0  0  0  0  0
  137.5651   66.8293  223.4423 H   0  0  0  0  0  0  0  0  0  0  0  0
  138.3432   67.5279  222.0231 H   0  0  0  0  0  0  0  0  0  0  0  0
  140.1295   68.5122  223.4382 H   0  0  0  0  0  0  0  0  0  0  0  0
  140.4760   67.2820  225.1580 H   0  0  0  0  0  0  0  0  0  0  0  0
  137.9219   68.9418  225.5483 H   0  0  0  0  0  0  0  0  0  0  0  0
  140.3908   71.2810  224.1451 H   0  0  0  0  0  0  0  0  0  0  0  0
  141.7693   72.5229  225.7283 H   0  0  0  0  0  0  0  0  0  0  0  0
  141.6446   72.0487  228.1603 H   0  0  0  0  0  0  0  0  0  0  0  0
  140.0855   70.2907  228.9475 H   0  0  0  0  0  0  0  0  0  0  0  0
  138.6958   69.0354  227.3649 H   0  0  0  0  0  0  0  0  0  0  0  0
  142.1229   74.8798  219.9120 H   0  0  0  0  0  0  0  0  0  0  0  0
  142.7199   77.2772  219.7128 H   0  0  0  0  0  0  0  0  0  0  0  0
  142.4607   79.5828  220.4437 H   0  0  0  0  0  0  0  0  0  0  0  0
  139.7048   80.4167  223.6461 H   0  0  0  0  0  0  0  0  0  0  0  0
  139.1227   78.0227  223.8314 H   0  0  0  0  0  0  0  0  0  0  0  0
  1  2  2  0
  2  3  1  0
  3  4  1  0
  4  5  1  0
  5  6  2  0
  5  7  1  0
  7  8  1  0
  8  9  1  0
  9 10  1  0
 10 11  1  0
 10 12  1  0
 12 13  1  0
 13 14  2  0
 14 15  1  0
 15 16  2  0
 16 17  1  0
 17 18  2  0
  2 19  1  0
 19 20  2  0
 20 21  1  0
 21 22  2  0
 22 23  1  0
 23 24  2  0
 24 25  1  0
 24 26  1  0
 26 27  2  0
 27 28  1  0
 28 29  2  0
 12  7  1  0
 18 13  1  0
 29 19  1  0
 28 22  1  0
  3 30  1  0
  4 31  1  0
  4 32  1  0
  8 33  1  0
  8 34  1  0
  9 35  1  0
  9 36  1  0
 10 37  1  6
 11 38  1  0
 12 39  1  1
 14 40  1  0
 15 41  1  0
 16 42  1  0
 17 43  1  0
 18 44  1  0
 20 45  1  0
 21 46  1  0
 23 47  1  0
 26 48  1  0
 27 49  1  0
M  END
>  <smiles>  (35) 
O=C(NCC(=O)N1CC[C@H](O)[C@H]1c1ccccc1)c1ccc2cc(Cl)ccc2n1

>  <score_type>  (35) 
oracle

>  <origin>  (35) 
autodockgpu

>  <m_score__min__energy>  (35) 
-8.5600000000000005

>  <m_primary>  (35) 
energy

>  <rmsd>  (35) 
8.49951277032603

>  <m_score__min__rmsd>  (35) 
8.49951277032603

>  <meeko>  (35) 
{"free_energy": -8.0, "intermolecular_energy": -9.79, "internal_energy": -1.58, "cluster_size": 2, "cluster_id": 4, "rank_in_cluster": 2}

>  <energy>  (35) 
-7.84

>  <cluster_rmsd>  (35) 
0.26

>  <cluster>  (35) 
5

$$$$

     RDKit          3D

 49 52  0  0  0  0  0  0  0  0999 V2000
  139.8490   72.3000  220.6040 O   0  0  0  0  0  0  0  0  0  0  0  0
  139.6810   72.6730  221.7970 C   0  0  0  0  0  0  0  0  0  0  0  0
  139.3220   74.0700  222.0120 N   0  0  0  0  0  0  0  0  0  0  0  0
  139.2010   74.8540  220.8460 C   0  0  0  0  0  0  0  0  0  0  0  0
  138.8160   76.2370  220.8540 C   0  0  0  0  0  0  0  0  0  0  0  0
  137.6450   76.4370  220.2730 O   0  0  0  0  0  0  0  0  0  0  0  0
  139.3990   77.4100  221.3380 N   0  0  0  0  0  0  0  0  0  0  0  0
  138.8520   78.5950  222.0060 C   0  0  0  0  0  0  0  0  0  0  0  0
  139.8780   78.7600  223.1640 C   0  0  0  0  0  0  0  0  0  0  0  0
  141.1020   77.9330  222.7260 C   0  0  2  0  0  0  0  0  0  0  0  0
  142.2400   78.6540  223.0280 O   0  0  0  0  0  0  0  0  0  0  0  0
  140.8360   77.7880  221.2580 C   0  0  1  0  0  0  0  0  0  0  0  0
  141.6970   76.9330  220.4960 C   0  0  0  0  0  0  0  0  0  0  0  0
  142.0960   75.6580  220.8350 C   0  0  0  0  0  0  0  0  0  0  0  0
  142.9280   74.8950  220.0540 C   0  0  0  0  0  0  0  0  0  0  0  0
  143.4150   75.3810  218.8700 C   0  0  0  0  0  0  0  0  0  0  0  0
  143.0450   76.6460  218.4940 C   0  0  0  0  0  0  0  0  0  0  0  0
  142.2090   77.4100  219.2790 C   0  0  0  0  0  0  0  0  0  0  0  0
  139.8290   71.7840  222.9370 C   0  0  0  0  0  0  0  0  0  0  0  0
  139.4360   70.4740  222.7690 C   0  0  0  0  0  0  0  0  0  0  0  0
  139.5570   69.5910  223.8230 C   0  0  0  0  0  0  0  0  0  0  0  0
  140.0690   70.0080  225.0490 C   0  0  0  0  0  0  0  0  0  0  0  0
  140.1880   69.1260  226.1000 C   0  0  0  0  0  0  0  0  0  0  0  0
  140.7050   69.5990  227.2970 C   0  0  0  0  0  0  0  0  0  0  0  0
  140.8840   68.5160  228.6840 Cl  0  0  0  0  0  0  0  0  0  0  0  0
  141.0830   70.9280  227.4100 C   0  0  0  0  0  0  0  0  0  0  0  0
  140.9640   71.8090  226.3640 C   0  0  0  0  0  0  0  0  0  0  0  0
  140.4520   71.3420  225.1710 C   0  0  0  0  0  0  0  0  0  0  0  0
  140.3270   72.2010  224.1250 N   0  0  0  0  0  0  0  0  0  0  0  0
  139.1870   74.3060  222.9970 H   0  0  0  0  0  0  0  0  0  0  0  0
  140.1862   74.8198  220.3580 H   0  0  0  0  0  0  0  0  0  0  0  0
  138.3246   74.3916  220.3684 H   0  0  0  0  0  0  0  0  0  0  0  0
  138.8454   79.4707  221.3403 H   0  0  0  0  0  0  0  0  0  0  0  0
  137.8048   78.4992  222.3289 H   0  0  0  0  0  0  0  0  0  0  0  0
  140.1508   79.8179  223.2922 H   0  0  0  0  0  0  0  0  0  0  0  0
  139.4726   78.4225  224.1293 H   0  0  0  0  0  0  0  0  0  0  0  0
  141.2518   76.9564  223.2095 H   0  0  0  0  0  0  0  0  0  0  0  0
  142.9910   78.3890  222.4120 H   0  0  0  0  0  0  0  0  0  0  0  0
  141.0589   78.6850  220.6616 H   0  0  0  0  0  0  0  0  0  0  0  0
  141.7290   75.2300  221.7796 H   0  0  0  0  0  0  0  0  0  0  0  0
  143.2064   73.8828  220.3826 H   0  0  0  0  0  0  0  0  0  0  0  0
  144.0826   74.7748  218.2401 H   0  0  0  0  0  0  0  0  0  0  0  0
  143.4227   77.0594  217.5472 H   0  0  0  0  0  0  0  0  0  0  0  0
  141.9354   78.4210  218.9429 H   0  0  0  0  0  0  0  0  0  0  0  0
  139.0299   70.1353  221.8045 H   0  0  0  0  0  0  0  0  0  0  0  0
  139.2449   68.5443  223.6928 H   0  0  0  0  0  0  0  0  0  0  0  0
  139.8814   68.0750  225.9931 H   0  0  0  0  0  0  0  0  0  0  0  0
  141.4905   71.2873  228.3665 H   0  0  0  0  0  0  0  0  0  0  0  0
  141.2690   72.8601  226.4741 H   0  0  0  0  0  0  0  0  0  0  0  0
  1  2  2  0
  2  3  1  0
  3  4  1  0
  4  5  1  0
  5  6  2  0
  5  7  1  0
  7  8  1  0
  8  9  1  0
  9 10  1  0
 10 11  1  0
 10 12  1  0
 12 13  1  0
 13 14  2  0
 14 15  1  0
 15 16  2  0
 16 17  1  0
 17 18  2  0
  2 19  1  0
 19 20  2  0
 20 21  1  0
 21 22  2  0
 22 23  1  0
 23 24  2  0
 24 25  1  0
 24 26  1  0
 26 27  2  0
 27 28  1  0
 28 29  2  0
 12  7  1  0
 18 13  1  0
 29 19  1  0
 28 22  1  0
  3 30  1  0
  4 31  1  0
  4 32  1  0
  8 33  1  0
  8 34  1  0
  9 35  1  0
  9 36  1  0
 10 37  1  1
 11 38  1  0
 12 39  1  6
 14 40  1  0
 15 41  1  0
 16 42  1  0
 17 43  1  0
 18 44  1  0
 20 45  1  0
 21 46  1  0
 23 47  1  0
 26 48  1  0
 27 49  1  0
M  END
>  <smiles>  (36) 
O=C(NCC(=O)N1CC[C@H](O)[C@H]1c1ccccc1)c1ccc2cc(Cl)ccc2n1

>  <score_type>  (36) 
oracle

>  <origin>  (36) 
autodockgpu

>  <m_score__min__energy>  (36) 
-8.5600000000000005

>  <m_primary>  (36) 
energy

>  <rmsd>  (36) 
3.417082447015639

>  <m_score__min__rmsd>  (36) 
3.417082447015639

>  <meeko>  (36) 
{"free_energy": -8.01, "intermolecular_energy": -9.8, "internal_energy": -1.49, "cluster_size": 12, "cluster_id": 2, "rank_in_cluster": 6}

>  <energy>  (36) 
-7.73

>  <cluster_rmsd>  (36) 
0.38

>  <cluster>  (36) 
5

$$$$

     RDKit          3D

 49 52  0  0  0  0  0  0  0  0999 V2000
  139.8180   72.4580  220.6520 O   0  0  0  0  0  0  0  0  0  0  0  0
  139.7630   72.8210  221.8580 C   0  0  0  0  0  0  0  0  0  0  0  0
  139.5840   74.2450  222.1170 N   0  0  0  0  0  0  0  0  0  0  0  0
  139.4900   75.0640  220.9730 C   0  0  0  0  0  0  0  0  0  0  0  0
  139.0340   76.4250  221.0050 C   0  0  0  0  0  0  0  0  0  0  0  0
  137.8410   76.5690  220.4530 O   0  0  0  0  0  0  0  0  0  0  0  0
  139.5670   77.6220  221.4890 N   0  0  0  0  0  0  0  0  0  0  0  0
  139.0280   78.6760  222.3540 C   0  0  0  0  0  0  0  0  0  0  0  0
  140.2290   78.8810  223.3220 C   0  0  0  0  0  0  0  0  0  0  0  0
  141.4320   78.2480  222.5970 C   0  0  2  0  0  0  0  0  0  0  0  0
  142.5210   79.0810  222.7600 O   0  0  0  0  0  0  0  0  0  0  0  0
  140.9130   78.1810  221.1920 C   0  0  1  0  0  0  0  0  0  0  0  0
  141.7040   77.4990  220.2110 C   0  0  0  0  0  0  0  0  0  0  0  0
  142.2770   76.2520  220.3410 C   0  0  0  0  0  0  0  0  0  0  0  0
  143.0270   75.6610  219.3560 C   0  0  0  0  0  0  0  0  0  0  0  0
  143.2490   76.3010  218.1660 C   0  0  0  0  0  0  0  0  0  0  0  0
  142.6980   77.5450  217.9940 C   0  0  0  0  0  0  0  0  0  0  0  0
  141.9440   78.1370  218.9830 C   0  0  0  0  0  0  0  0  0  0  0  0
  139.8700   71.8940  222.9730 C   0  0  0  0  0  0  0  0  0  0  0  0
  139.4540   70.5980  222.7570 C   0  0  0  0  0  0  0  0  0  0  0  0
  139.5360   69.6810  223.7850 C   0  0  0  0  0  0  0  0  0  0  0  0
  140.0320   70.0500  225.0330 C   0  0  0  0  0  0  0  0  0  0  0  0
  140.1120   69.1340  226.0590 C   0  0  0  0  0  0  0  0  0  0  0  0
  140.6150   69.5580  227.2800 C   0  0  0  0  0  0  0  0  0  0  0  0
  140.7430   68.4300  228.6360 Cl  0  0  0  0  0  0  0  0  0  0  0  0
  141.0180   70.8760  227.4410 C   0  0  0  0  0  0  0  0  0  0  0  0
  140.9380   71.7910  226.4200 C   0  0  0  0  0  0  0  0  0  0  0  0
  140.4400   71.3710  225.2040 C   0  0  0  0  0  0  0  0  0  0  0  0
  140.3530   72.2640  224.1820 N   0  0  0  0  0  0  0  0  0  0  0  0
  139.5340   74.4710  223.1120 H   0  0  0  0  0  0  0  0  0  0  0  0
  140.5022   75.0967  220.5435 H   0  0  0  0  0  0  0  0  0  0  0  0
  138.6679   74.5764  220.4286 H   0  0  0  0  0  0  0  0  0  0  0  0
  138.8009   79.5911  221.7875 H   0  0  0  0  0  0  0  0  0  0  0  0
  138.0766   78.4264  222.8465 H   0  0  0  0  0  0  0  0  0  0  0  0
  140.4042   79.9522  223.5006 H   0  0  0  0  0  0  0  0  0  0  0  0
  140.0509   78.4245  224.3068 H   0  0  0  0  0  0  0  0  0  0  0  0
  141.7752   77.2645  222.9505 H   0  0  0  0  0  0  0  0  0  0  0  0
  143.3230   78.6970  222.2880 H   0  0  0  0  0  0  0  0  0  0  0  0
  140.9210   79.1406  220.6544 H   0  0  0  0  0  0  0  0  0  0  0  0
  142.1252   75.7031  221.2821 H   0  0  0  0  0  0  0  0  0  0  0  0
  143.4549   74.6617  219.5241 H   0  0  0  0  0  0  0  0  0  0  0  0
  143.8502   75.8322  217.3731 H   0  0  0  0  0  0  0  0  0  0  0  0
  142.8615   78.0807  217.0473 H   0  0  0  0  0  0  0  0  0  0  0  0
  141.5185   79.1359  218.8064 H   0  0  0  0  0  0  0  0  0  0  0  0
  139.0604   70.2975  221.7748 H   0  0  0  0  0  0  0  0  0  0  0  0
  139.2054   68.6455  223.6166 H   0  0  0  0  0  0  0  0  0  0  0  0
  139.7855   68.0937  225.9136 H   0  0  0  0  0  0  0  0  0  0  0  0
  141.4135   71.1976  228.4158 H   0  0  0  0  0  0  0  0  0  0  0  0
  141.2625   72.8316  226.5680 H   0  0  0  0  0  0  0  0  0  0  0  0
  1  2  2  0
  2  3  1  0
  3  4  1  0
  4  5  1  0
  5  6  2  0
  5  7  1  0
  7  8  1  0
  8  9  1  0
  9 10  1  0
 10 11  1  0
 10 12  1  0
 12 13  1  0
 13 14  2  0
 14 15  1  0
 15 16  2  0
 16 17  1  0
 17 18  2  0
  2 19  1  0
 19 20  2  0
 20 21  1  0
 21 22  2  0
 22 23  1  0
 23 24  2  0
 24 25  1  0
 24 26  1  0
 26 27  2  0
 27 28  1  0
 28 29  2  0
 12  7  1  0
 18 13  1  0
 29 19  1  0
 28 22  1  0
  3 30  1  0
  4 31  1  0
  4 32  1  0
  8 33  1  0
  8 34  1  0
  9 35  1  0
  9 36  1  0
 10 37  1  1
 11 38  1  0
 12 39  1  6
 14 40  1  0
 15 41  1  0
 16 42  1  0
 17 43  1  0
 18 44  1  0
 20 45  1  0
 21 46  1  0
 23 47  1  0
 26 48  1  0
 27 49  1  0
M  END
>  <smiles>  (37) 
O=C(NCC(=O)N1CC[C@H](O)[C@H]1c1ccccc1)c1ccc2cc(Cl)ccc2n1

>  <score_type>  (37) 
oracle

>  <origin>  (37) 
autodockgpu

>  <m_score__min__energy>  (37) 
-8.5600000000000005

>  <m_primary>  (37) 
energy

>  <rmsd>  (37) 
3.540629514981596

>  <m_score__min__rmsd>  (37) 
3.540629514981596

>  <meeko>  (37) 
{"free_energy": -8.14, "intermolecular_energy": -9.93, "internal_energy": -1.46, "cluster_size": 12, "cluster_id": 2, "rank_in_cluster": 2}

>  <energy>  (37) 
-7.71

>  <cluster_rmsd>  (37) 
0.55

>  <cluster>  (37) 
5

$$$$

     RDKit          3D

 49 52  0  0  0  0  0  0  0  0999 V2000
  141.4220   72.7520  221.0500 O   0  0  0  0  0  0  0  0  0  0  0  0
  140.7640   73.6300  221.6720 C   0  0  0  0  0  0  0  0  0  0  0  0
  139.7370   73.1610  222.5960 N   0  0  0  0  0  0  0  0  0  0  0  0
  139.5960   71.7620  222.6890 C   0  0  0  0  0  0  0  0  0  0  0  0
  139.2620   71.0760  223.9060 C   0  0  0  0  0  0  0  0  0  0  0  0
  138.1280   71.5060  224.4330 O   0  0  0  0  0  0  0  0  0  0  0  0
  139.8650   70.0590  224.6490 N   0  0  0  0  0  0  0  0  0  0  0  0
  140.9520   70.0530  225.6340 C   0  0  0  0  0  0  0  0  0  0  0  0
  140.3230   69.1560  226.7380 C   0  0  0  0  0  0  0  0  0  0  0  0
  139.1700   68.4160  226.0330 C   0  0  2  0  0  0  0  0  0  0  0  0
  139.1810   67.1000  226.4520 O   0  0  0  0  0  0  0  0  0  0  0  0
  139.5460   68.6070  224.5950 C   0  0  1  0  0  0  0  0  0  0  0  0
  138.6190   68.1770  223.5900 C   0  0  0  0  0  0  0  0  0  0  0  0
  138.8590   67.2550  222.5940 C   0  0  0  0  0  0  0  0  0  0  0  0
  137.9190   66.8920  221.6610 C   0  0  0  0  0  0  0  0  0  0  0  0
  136.6670   67.4460  221.6770 C   0  0  0  0  0  0  0  0  0  0  0  0
  136.3860   68.3690  222.6510 C   0  0  0  0  0  0  0  0  0  0  0  0
  137.3290   68.7320  223.5870 C   0  0  0  0  0  0  0  0  0  0  0  0
  140.9870   75.0560  221.5060 C   0  0  0  0  0  0  0  0  0  0  0  0
  141.7570   75.4530  220.4340 C   0  0  0  0  0  0  0  0  0  0  0  0
  141.9960   76.7980  220.2340 C   0  0  0  0  0  0  0  0  0  0  0  0
  141.4710   77.7530  221.1000 C   0  0  0  0  0  0  0  0  0  0  0  0
  141.7110   79.0950  220.8990 C   0  0  0  0  0  0  0  0  0  0  0  0
  141.1610   80.0010  221.7940 C   0  0  0  0  0  0  0  0  0  0  0  0
  141.4330   81.7360  221.5910 Cl  0  0  0  0  0  0  0  0  0  0  0  0
  140.3940   79.5450  222.8560 C   0  0  0  0  0  0  0  0  0  0  0  0
  140.1540   78.2080  223.0580 C   0  0  0  0  0  0  0  0  0  0  0  0
  140.6990   77.3040  222.1690 C   0  0  0  0  0  0  0  0  0  0  0  0
  140.4710   75.9770  222.3540 N   0  0  0  0  0  0  0  0  0  0  0  0
  139.2510   73.9200  223.0770 H   0  0  0  0  0  0  0  0  0  0  0  0
  138.8120   71.4907  221.9667 H   0  0  0  0  0  0  0  0  0  0  0  0
  140.6341   71.4321  222.5360 H   0  0  0  0  0  0  0  0  0  0  0  0
  141.8707   69.6088  225.2233 H   0  0  0  0  0  0  0  0  0  0  0  0
  141.2686   71.0495  225.9758 H   0  0  0  0  0  0  0  0  0  0  0  0
  141.0636   68.4406  227.1249 H   0  0  0  0  0  0  0  0  0  0  0  0
  139.9744   69.7421  227.6011 H   0  0  0  0  0  0  0  0  0  0  0  0
  138.1470   68.7665  226.2348 H   0  0  0  0  0  0  0  0  0  0  0  0
  139.7830   66.9970  227.2510 H   0  0  0  0  0  0  0  0  0  0  0  0
  140.3590   67.9542  224.2444 H   0  0  0  0  0  0  0  0  0  0  0  0
  139.8530   66.7866  222.5440 H   0  0  0  0  0  0  0  0  0  0  0  0
  138.1747   66.1479  220.8923 H   0  0  0  0  0  0  0  0  0  0  0  0
  135.9104   67.1595  220.9318 H   0  0  0  0  0  0  0  0  0  0  0  0
  135.3874   68.8289  222.6857 H   0  0  0  0  0  0  0  0  0  0  0  0
  137.0646   69.4764  224.3525 H   0  0  0  0  0  0  0  0  0  0  0  0
  142.1769   74.7057  219.7447 H   0  0  0  0  0  0  0  0  0  0  0  0
  142.6093   77.1191  219.3791 H   0  0  0  0  0  0  0  0  0  0  0  0
  142.3223   79.4386  220.0515 H   0  0  0  0  0  0  0  0  0  0  0  0
  139.9652   80.2760  223.5572 H   0  0  0  0  0  0  0  0  0  0  0  0
  139.5431   77.8664  223.9066 H   0  0  0  0  0  0  0  0  0  0  0  0
  1  2  2  0
  2  3  1  0
  3  4  1  0
  4  5  1  0
  5  6  2  0
  5  7  1  0
  7  8  1  0
  8  9  1  0
  9 10  1  0
 10 11  1  0
 10 12  1  0
 12 13  1  0
 13 14  2  0
 14 15  1  0
 15 16  2  0
 16 17  1  0
 17 18  2  0
  2 19  1  0
 19 20  2  0
 20 21  1  0
 21 22  2  0
 22 23  1  0
 23 24  2  0
 24 25  1  0
 24 26  1  0
 26 27  2  0
 27 28  1  0
 28 29  2  0
 12  7  1  0
 18 13  1  0
 29 19  1  0
 28 22  1  0
  3 30  1  0
  4 31  1  0
  4 32  1  0
  8 33  1  0
  8 34  1  0
  9 35  1  0
  9 36  1  0
 10 37  1  6
 11 38  1  0
 12 39  1  6
 14 40  1  0
 15 41  1  0
 16 42  1  0
 17 43  1  0
 18 44  1  0
 20 45  1  0
 21 46  1  0
 23 47  1  0
 26 48  1  0
 27 49  1  0
M  END
>  <smiles>  (38) 
O=C(NCC(=O)N1CC[C@H](O)[C@H]1c1ccccc1)c1ccc2cc(Cl)ccc2n1

>  <score_type>  (38) 
oracle

>  <origin>  (38) 
autodockgpu

>  <m_score__min__energy>  (38) 
-8.5600000000000005

>  <m_primary>  (38) 
energy

>  <rmsd>  (38) 
8.885121614151265

>  <m_score__min__rmsd>  (38) 
8.885121614151265

>  <meeko>  (38) 
{"free_energy": -7.66, "intermolecular_energy": -9.45, "internal_energy": -1.45, "cluster_size": 3, "cluster_id": 6, "rank_in_cluster": 2}

>  <energy>  (38) 
-7.65

>  <cluster_rmsd>  (38) 
0.76

>  <cluster>  (38) 
5

$$$$

     RDKit          3D

 49 52  0  0  0  0  0  0  0  0999 V2000
  134.0950   69.6020  226.4690 O   0  0  0  0  0  0  0  0  0  0  0  0
  134.3960   70.7320  225.9990 C   0  0  0  0  0  0  0  0  0  0  0  0
  135.4650   70.7780  225.0080 N   0  0  0  0  0  0  0  0  0  0  0  0
  136.0480   69.5370  224.6840 C   0  0  0  0  0  0  0  0  0  0  0  0
  137.4590   69.3440  224.5010 C   0  0  0  0  0  0  0  0  0  0  0  0
  137.9740   68.5140  225.3920 O   0  0  0  0  0  0  0  0  0  0  0  0
  138.4010   69.8340  223.5930 N   0  0  0  0  0  0  0  0  0  0  0  0
  138.4190   69.9330  222.1310 C   0  0  0  0  0  0  0  0  0  0  0  0
  138.9310   71.3920  221.9580 C   0  0  0  0  0  0  0  0  0  0  0  0
  139.5580   71.7530  223.3190 C   0  0  2  0  0  0  0  0  0  0  0  0
  140.7360   72.4340  223.0850 O   0  0  0  0  0  0  0  0  0  0  0  0
  139.7420   70.3910  223.9160 C   0  0  1  0  0  0  0  0  0  0  0  0
  140.1770   70.3040  225.2790 C   0  0  0  0  0  0  0  0  0  0  0  0
  140.5740   69.1630  225.9420 C   0  0  0  0  0  0  0  0  0  0  0  0
  140.9780   69.1560  227.2550 C   0  0  0  0  0  0  0  0  0  0  0  0
  141.0030   70.3140  227.9850 C   0  0  0  0  0  0  0  0  0  0  0  0
  140.6150   71.4730  227.3640 C   0  0  0  0  0  0  0  0  0  0  0  0
  140.2110   71.4790  226.0470 C   0  0  0  0  0  0  0  0  0  0  0  0
  133.7320   71.9620  226.4000 C   0  0  0  0  0  0  0  0  0  0  0  0
  132.5610   71.8410  227.1170 C   0  0  0  0  0  0  0  0  0  0  0  0
  131.8940   72.9800  227.5200 C   0  0  0  0  0  0  0  0  0  0  0  0
  132.3890   74.2440  227.2120 C   0  0  0  0  0  0  0  0  0  0  0  0
  131.7220   75.3800  227.6140 C   0  0  0  0  0  0  0  0  0  0  0  0
  132.2630   76.6130  227.2780 C   0  0  0  0  0  0  0  0  0  0  0  0
  131.4540   78.1080  227.7660 Cl  0  0  0  0  0  0  0  0  0  0  0  0
  133.4440   76.6750  226.5540 C   0  0  0  0  0  0  0  0  0  0  0  0
  134.1100   75.5440  226.1510 C   0  0  0  0  0  0  0  0  0  0  0  0
  133.5760   74.3170  226.4850 C   0  0  0  0  0  0  0  0  0  0  0  0
  134.2230   73.1860  226.0940 N   0  0  0  0  0  0  0  0  0  0  0  0
  135.6510   71.7210  224.6580 H   0  0  0  0  0  0  0  0  0  0  0  0
  135.7531   68.8479  225.4891 H   0  0  0  0  0  0  0  0  0  0  0  0
  135.6783   69.3895  223.6585 H   0  0  0  0  0  0  0  0  0  0  0  0
  139.1091   69.2035  221.6821 H   0  0  0  0  0  0  0  0  0  0  0  0
  137.4560   69.7219  221.6431 H   0  0  0  0  0  0  0  0  0  0  0  0
  139.6839   71.4462  221.1579 H   0  0  0  0  0  0  0  0  0  0  0  0
  138.1243   72.0845  221.6756 H   0  0  0  0  0  0  0  0  0  0  0  0
  138.9802   72.4127  223.9830 H   0  0  0  0  0  0  0  0  0  0  0  0
  141.0820   72.2190  222.1640 H   0  0  0  0  0  0  0  0  0  0  0  0
  140.5987   69.8278  223.5174 H   0  0  0  0  0  0  0  0  0  0  0  0
  140.5671   68.2102  225.3924 H   0  0  0  0  0  0  0  0  0  0  0  0
  141.2847   68.2099  227.7249 H   0  0  0  0  0  0  0  0  0  0  0  0
  141.3244   70.3144  229.0370 H   0  0  0  0  0  0  0  0  0  0  0  0
  140.6265   72.4170  227.9286 H   0  0  0  0  0  0  0  0  0  0  0  0
  139.9069   72.4297  225.5847 H   0  0  0  0  0  0  0  0  0  0  0  0
  132.1621   70.8465  227.3655 H   0  0  0  0  0  0  0  0  0  0  0  0
  130.9590   72.8878  228.0921 H   0  0  0  0  0  0  0  0  0  0  0  0
  130.7851   75.3117  228.1863 H   0  0  0  0  0  0  0  0  0  0  0  0
  133.8598   77.6599  226.2948 H   0  0  0  0  0  0  0  0  0  0  0  0
  135.0454   75.6147  225.5765 H   0  0  0  0  0  0  0  0  0  0  0  0
  1  2  2  0
  2  3  1  0
  3  4  1  0
  4  5  1  0
  5  6  2  0
  5  7  1  0
  7  8  1  0
  8  9  1  0
  9 10  1  0
 10 11  1  0
 10 12  1  0
 12 13  1  0
 13 14  2  0
 14 15  1  0
 15 16  2  0
 16 17  1  0
 17 18  2  0
  2 19  1  0
 19 20  2  0
 20 21  1  0
 21 22  2  0
 22 23  1  0
 23 24  2  0
 24 25  1  0
 24 26  1  0
 26 27  2  0
 27 28  1  0
 28 29  2  0
 12  7  1  0
 18 13  1  0
 29 19  1  0
 28 22  1  0
  3 30  1  0
  4 31  1  0
  4 32  1  0
  8 33  1  0
  8 34  1  0
  9 35  1  0
  9 36  1  0
 10 37  1  1
 11 38  1  0
 12 39  1  6
 14 40  1  0
 15 41  1  0
 16 42  1  0
 17 43  1  0
 18 44  1  0
 20 45  1  0
 21 46  1  0
 23 47  1  0
 26 48  1  0
 27 49  1  0
M  END
>  <smiles>  (39) 
O=C(NCC(=O)N1CC[C@H](O)[C@H]1c1ccccc1)c1ccc2cc(Cl)ccc2n1

>  <score_type>  (39) 
oracle

>  <origin>  (39) 
autodockgpu

>  <m_score__min__energy>  (39) 
-8.5600000000000005

>  <m_primary>  (39) 
energy

>  <rmsd>  (39) 
7.789418139313182

>  <m_score__min__rmsd>  (39) 
7.789418139313182

>  <meeko>  (39) 
{"free_energy": -8.45, "intermolecular_energy": -10.24, "internal_energy": -1.41, "cluster_size": 9, "cluster_id": 1, "rank_in_cluster": 5}

>  <energy>  (39) 
-7.69

>  <cluster_rmsd>  (39) 
0.0

>  <cluster>  (39) 
6

$$$$

     RDKit          3D

 49 52  0  0  0  0  0  0  0  0999 V2000
  140.2290   72.5110  220.6620 O   0  0  0  0  0  0  0  0  0  0  0  0
  140.0200   72.8560  221.8570 C   0  0  0  0  0  0  0  0  0  0  0  0
  139.7300   74.2640  222.1020 N   0  0  0  0  0  0  0  0  0  0  0  0
  139.7140   75.0900  220.9590 C   0  0  0  0  0  0  0  0  0  0  0  0
  139.1760   76.4210  220.9470 C   0  0  0  0  0  0  0  0  0  0  0  0
  137.9930   76.4810  220.3580 O   0  0  0  0  0  0  0  0  0  0  0  0
  139.6200   77.6580  221.4190 N   0  0  0  0  0  0  0  0  0  0  0  0
  139.0610   78.6210  222.3730 C   0  0  0  0  0  0  0  0  0  0  0  0
  140.3260   78.9360  223.2230 C   0  0  0  0  0  0  0  0  0  0  0  0
  141.5100   78.4640  222.3570 C   0  0  2  0  0  0  0  0  0  0  0  0
  142.5110   79.4100  222.4410 O   0  0  0  0  0  0  0  0  0  0  0  0
  140.8580   78.3740  221.0100 C   0  0  1  0  0  0  0  0  0  0  0  0
  141.6140   77.8120  219.9300 C   0  0  0  0  0  0  0  0  0  0  0  0
  141.6790   78.2890  218.6380 C   0  0  0  0  0  0  0  0  0  0  0  0
  142.4260   77.6950  217.6510 C   0  0  0  0  0  0  0  0  0  0  0  0
  143.1590   76.5690  217.9120 C   0  0  0  0  0  0  0  0  0  0  0  0
  143.1230   76.0590  219.1840 C   0  0  0  0  0  0  0  0  0  0  0  0
  142.3740   76.6560  220.1740 C   0  0  0  0  0  0  0  0  0  0  0  0
  140.0580   71.9250  222.9720 C   0  0  0  0  0  0  0  0  0  0  0  0
  139.5730   70.6540  222.7480 C   0  0  0  0  0  0  0  0  0  0  0  0
  139.5880   69.7330  223.7760 C   0  0  0  0  0  0  0  0  0  0  0  0
  140.0860   70.0720  225.0310 C   0  0  0  0  0  0  0  0  0  0  0  0
  140.0990   69.1530  226.0570 C   0  0  0  0  0  0  0  0  0  0  0  0
  140.6070   69.5480  227.2860 C   0  0  0  0  0  0  0  0  0  0  0  0
  140.6520   68.4130  228.6410 Cl  0  0  0  0  0  0  0  0  0  0  0  0
  141.0820   70.8400  227.4550 C   0  0  0  0  0  0  0  0  0  0  0  0
  141.0690   71.7590  226.4340 C   0  0  0  0  0  0  0  0  0  0  0  0
  140.5650   71.3680  225.2100 C   0  0  0  0  0  0  0  0  0  0  0  0
  140.5440   72.2660  224.1890 N   0  0  0  0  0  0  0  0  0  0  0  0
  139.5580   74.4760  223.0870 H   0  0  0  0  0  0  0  0  0  0  0  0
  140.7637   75.1880  220.6451 H   0  0  0  0  0  0  0  0  0  0  0  0
  138.9880   74.5610  220.3241 H   0  0  0  0  0  0  0  0  0  0  0  0
  138.6766   79.5189  221.8670 H   0  0  0  0  0  0  0  0  0  0  0  0
  138.1995   78.2518  222.9487 H   0  0  0  0  0  0  0  0  0  0  0  0
  140.3989   80.0150  223.4240 H   0  0  0  0  0  0  0  0  0  0  0  0
  140.3030   78.4361  224.2026 H   0  0  0  0  0  0  0  0  0  0  0  0
  141.9953   77.5174  222.6370 H   0  0  0  0  0  0  0  0  0  0  0  0
  143.3330   79.0880  221.9570 H   0  0  0  0  0  0  0  0  0  0  0  0
  140.7032   79.3418  220.5105 H   0  0  0  0  0  0  0  0  0  0  0  0
  141.1031   79.1914  218.3851 H   0  0  0  0  0  0  0  0  0  0  0  0
  142.4355   78.1285  216.6401 H   0  0  0  0  0  0  0  0  0  0  0  0
  143.7586   76.0880  217.1252 H   0  0  0  0  0  0  0  0  0  0  0  0
  143.7039   75.1549  219.4188 H   0  0  0  0  0  0  0  0  0  0  0  0
  142.3709   76.2160  221.1821 H   0  0  0  0  0  0  0  0  0  0  0  0
  139.1779   70.3766  221.7596 H   0  0  0  0  0  0  0  0  0  0  0  0
  139.2015   68.7181  223.6013 H   0  0  0  0  0  0  0  0  0  0  0  0
  139.7166   68.1327  225.9058 H   0  0  0  0  0  0  0  0  0  0  0  0
  141.4811   71.1377  228.4359 H   0  0  0  0  0  0  0  0  0  0  0  0
  141.4501   72.7793  226.5878 H   0  0  0  0  0  0  0  0  0  0  0  0
  1  2  2  0
  2  3  1  0
  3  4  1  0
  4  5  1  0
  5  6  2  0
  5  7  1  0
  7  8  1  0
  8  9  1  0
  9 10  1  0
 10 11  1  0
 10 12  1  0
 12 13  1  0
 13 14  2  0
 14 15  1  0
 15 16  2  0
 16 17  1  0
 17 18  2  0
  2 19  1  0
 19 20  2  0
 20 21  1  0
 21 22  2  0
 22 23  1  0
 23 24  2  0
 24 25  1  0
 24 26  1  0
 26 27  2  0
 27 28  1  0
 28 29  2  0
 12  7  1  0
 18 13  1  0
 29 19  1  0
 28 22  1  0
  3 30  1  0
  4 31  1  0
  4 32  1  0
  8 33  1  0
  8 34  1  0
  9 35  1  0
  9 36  1  0
 10 37  1  1
 11 38  1  0
 12 39  1  6
 14 40  1  0
 15 41  1  0
 16 42  1  0
 17 43  1  0
 18 44  1  0
 20 45  1  0
 21 46  1  0
 23 47  1  0
 26 48  1  0
 27 49  1  0
M  END
>  <smiles>  (40) 
O=C(NCC(=O)N1CC[C@H](O)[C@H]1c1ccccc1)c1ccc2cc(Cl)ccc2n1

>  <score_type>  (40) 
oracle

>  <origin>  (40) 
autodockgpu

>  <m_score__min__energy>  (40) 
-8.5600000000000005

>  <m_primary>  (40) 
energy

>  <rmsd>  (40) 
3.546681268268405

>  <m_score__min__rmsd>  (40) 
3.546681268268405

>  <meeko>  (40) 
{"free_energy": -8.12, "intermolecular_energy": -9.91, "internal_energy": -1.43, "cluster_size": 12, "cluster_id": 2, "rank_in_cluster": 4}

>  <energy>  (40) 
-7.66

>  <cluster_rmsd>  (40) 
0.15

>  <cluster>  (40) 
6

$$$$

     RDKit          3D

 49 52  0  0  0  0  0  0  0  0999 V2000
  133.9460   69.6280  226.5840 O   0  0  0  0  0  0  0  0  0  0  0  0
  134.3140   70.7480  226.1360 C   0  0  0  0  0  0  0  0  0  0  0  0
  135.4470   70.7570  225.2170 N   0  0  0  0  0  0  0  0  0  0  0  0
  136.0090   69.4960  224.9310 C   0  0  0  0  0  0  0  0  0  0  0  0
  136.7890   69.2210  223.7570 C   0  0  0  0  0  0  0  0  0  0  0  0
  136.3380   68.1750  223.0860 O   0  0  0  0  0  0  0  0  0  0  0  0
  137.9110   69.8120  223.1710 N   0  0  0  0  0  0  0  0  0  0  0  0
  138.1470   70.4170  221.8560 C   0  0  0  0  0  0  0  0  0  0  0  0
  138.8900   71.7170  222.2790 C   0  0  0  0  0  0  0  0  0  0  0  0
  139.3680   71.4470  223.7180 C   0  0  2  0  0  0  0  0  0  0  0  0
  140.6550   71.9300  223.8440 O   0  0  0  0  0  0  0  0  0  0  0  0
  139.2610   69.9540  223.7780 C   0  0  1  0  0  0  0  0  0  0  0  0
  139.4850   69.3100  225.0380 C   0  0  0  0  0  0  0  0  0  0  0  0
  139.4640   67.9530  225.2820 C   0  0  0  0  0  0  0  0  0  0  0  0
  139.6860   67.4060  226.5210 C   0  0  0  0  0  0  0  0  0  0  0  0
  139.9440   68.2050  227.6020 C   0  0  0  0  0  0  0  0  0  0  0  0
  139.9740   69.5620  227.4060 C   0  0  0  0  0  0  0  0  0  0  0  0
  139.7510   70.1100  226.1610 C   0  0  0  0  0  0  0  0  0  0  0  0
  133.6660   71.9990  226.4930 C   0  0  0  0  0  0  0  0  0  0  0  0
  132.4850   71.9180  227.1980 C   0  0  0  0  0  0  0  0  0  0  0  0
  131.8320   73.0780  227.5600 C   0  0  0  0  0  0  0  0  0  0  0  0
  132.3520   74.3250  227.2230 C   0  0  0  0  0  0  0  0  0  0  0  0
  131.6990   75.4830  227.5840 C   0  0  0  0  0  0  0  0  0  0  0  0
  132.2640   76.6960  227.2200 C   0  0  0  0  0  0  0  0  0  0  0  0
  131.4740   78.2170  227.6550 Cl  0  0  0  0  0  0  0  0  0  0  0  0
  133.4550   76.7180  226.5100 C   0  0  0  0  0  0  0  0  0  0  0  0
  134.1070   75.5650  226.1480 C   0  0  0  0  0  0  0  0  0  0  0  0
  133.5480   74.3570  226.5090 C   0  0  0  0  0  0  0  0  0  0  0  0
  134.1810   73.2060  226.1590 N   0  0  0  0  0  0  0  0  0  0  0  0
  135.6860   71.6920  224.8810 H   0  0  0  0  0  0  0  0  0  0  0  0
  136.6585   69.2562  225.7857 H   0  0  0  0  0  0  0  0  0  0  0  0
  135.1060   68.9003  224.7315 H   0  0  0  0  0  0  0  0  0  0  0  0
  138.7763   69.7768  221.2202 H   0  0  0  0  0  0  0  0  0  0  0  0
  137.2408   70.5791  221.2539 H   0  0  0  0  0  0  0  0  0  0  0  0
  139.7465   71.9071  221.6155 H   0  0  0  0  0  0  0  0  0  0  0  0
  138.2427   72.6041  222.2163 H   0  0  0  0  0  0  0  0  0  0  0  0
  138.8081   71.9264  224.5346 H   0  0  0  0  0  0  0  0  0  0  0  0
  141.3120   71.1680  223.8400 H   0  0  0  0  0  0  0  0  0  0  0  0
  140.0713   69.4159  223.2642 H   0  0  0  0  0  0  0  0  0  0  0  0
  139.2589   67.2744  224.4409 H   0  0  0  0  0  0  0  0  0  0  0  0
  139.6563   66.3136  226.6467 H   0  0  0  0  0  0  0  0  0  0  0  0
  140.1218   67.7720  228.5974 H   0  0  0  0  0  0  0  0  0  0  0  0
  140.1799   70.2258  228.2586 H   0  0  0  0  0  0  0  0  0  0  0  0
  139.7823   71.2033  226.0440 H   0  0  0  0  0  0  0  0  0  0  0  0
  132.0667   70.9376  227.4697 H   0  0  0  0  0  0  0  0  0  0  0  0
  130.8884   73.0171  228.1221 H   0  0  0  0  0  0  0  0  0  0  0  0
  130.7542   75.4465  228.1462 H   0  0  0  0  0  0  0  0  0  0  0  0
  133.8904   77.6881  226.2284 H   0  0  0  0  0  0  0  0  0  0  0  0
  135.0509   75.6039  225.5845 H   0  0  0  0  0  0  0  0  0  0  0  0
  1  2  2  0
  2  3  1  0
  3  4  1  0
  4  5  1  0
  5  6  2  0
  5  7  1  0
  7  8  1  0
  8  9  1  0
  9 10  1  0
 10 11  1  0
 10 12  1  0
 12 13  1  0
 13 14  2  0
 14 15  1  0
 15 16  2  0
 16 17  1  0
 17 18  2  0
  2 19  1  0
 19 20  2  0
 20 21  1  0
 21 22  2  0
 22 23  1  0
 23 24  2  0
 24 25  1  0
 24 26  1  0
 26 27  2  0
 27 28  1  0
 28 29  2  0
 12  7  1  0
 18 13  1  0
 29 19  1  0
 28 22  1  0
  3 30  1  0
  4 31  1  0
  4 32  1  0
  8 33  1  0
  8 34  1  0
  9 35  1  0
  9 36  1  0
 10 37  1  1
 11 38  1  0
 12 39  1  6
 14 40  1  0
 15 41  1  0
 16 42  1  0
 17 43  1  0
 18 44  1  0
 20 45  1  0
 21 46  1  0
 23 47  1  0
 26 48  1  0
 27 49  1  0
M  END
>  <smiles>  (41) 
O=C(NCC(=O)N1CC[C@H](O)[C@H]1c1ccccc1)c1ccc2cc(Cl)ccc2n1

>  <score_type>  (41) 
oracle

>  <origin>  (41) 
autodockgpu

>  <m_score__min__energy>  (41) 
-8.5600000000000005

>  <m_primary>  (41) 
energy

>  <rmsd>  (41) 
7.9687664208684375

>  <m_score__min__rmsd>  (41) 
7.9687664208684375

>  <meeko>  (41) 
{"free_energy": -7.75, "intermolecular_energy": -9.54, "internal_energy": -1.62, "cluster_size": 9, "cluster_id": 1, "rank_in_cluster": 9}

>  <energy>  (41) 
-7.64

>  <cluster_rmsd>  (41) 
0.92

>  <cluster>  (41) 
6

$$$$

     RDKit          3D

 49 52  0  0  0  0  0  0  0  0999 V2000
  139.7940   72.1470  220.7480 O   0  0  0  0  0  0  0  0  0  0  0  0
  139.7700   72.5160  221.9530 C   0  0  0  0  0  0  0  0  0  0  0  0
  139.6100   73.9430  222.2090 N   0  0  0  0  0  0  0  0  0  0  0  0
  139.4980   74.7580  221.0630 C   0  0  0  0  0  0  0  0  0  0  0  0
  140.5920   75.5050  220.5090 C   0  0  0  0  0  0  0  0  0  0  0  0
  141.3000   76.1250  221.4370 O   0  0  0  0  0  0  0  0  0  0  0  0
  141.0720   75.7170  219.2150 N   0  0  0  0  0  0  0  0  0  0  0  0
  140.5280   76.4300  218.0540 C   0  0  0  0  0  0  0  0  0  0  0  0
  141.7860   77.2290  217.6050 C   0  0  0  0  0  0  0  0  0  0  0  0
  142.9690   76.5160  218.2880 C   0  0  2  0  0  0  0  0  0  0  0  0
  144.0030   76.4270  217.3770 O   0  0  0  0  0  0  0  0  0  0  0  0
  142.3430   75.2010  218.6410 C   0  0  1  0  0  0  0  0  0  0  0  0
  143.1010   74.2860  219.4420 C   0  0  0  0  0  0  0  0  0  0  0  0
  144.2920   74.5490  220.0840 C   0  0  0  0  0  0  0  0  0  0  0  0
  144.9640   73.6180  220.8360 C   0  0  0  0  0  0  0  0  0  0  0  0
  144.4700   72.3500  220.9860 C   0  0  0  0  0  0  0  0  0  0  0  0
  143.2870   72.0450  220.3640 C   0  0  0  0  0  0  0  0  0  0  0  0
  142.6120   72.9800  219.6100 C   0  0  0  0  0  0  0  0  0  0  0  0
  139.8930   71.5950  223.0710 C   0  0  0  0  0  0  0  0  0  0  0  0
  139.4950   70.2920  222.8600 C   0  0  0  0  0  0  0  0  0  0  0  0
  139.5920   69.3790  223.8900 C   0  0  0  0  0  0  0  0  0  0  0  0
  140.0870   69.7580  225.1350 C   0  0  0  0  0  0  0  0  0  0  0  0
  140.1830   68.8460  226.1630 C   0  0  0  0  0  0  0  0  0  0  0  0
  140.6830   69.2810  227.3810 C   0  0  0  0  0  0  0  0  0  0  0  0
  140.8320   68.1590  228.7400 Cl  0  0  0  0  0  0  0  0  0  0  0  0
  141.0690   70.6040  227.5380 C   0  0  0  0  0  0  0  0  0  0  0  0
  140.9730   71.5150  226.5150 C   0  0  0  0  0  0  0  0  0  0  0  0
  140.4770   71.0850  225.3010 C   0  0  0  0  0  0  0  0  0  0  0  0
  140.3750   71.9750  224.2780 N   0  0  0  0  0  0  0  0  0  0  0  0
  139.5850   74.1750  223.2040 H   0  0  0  0  0  0  0  0  0  0  0  0
  139.1480   74.0961  220.2571 H   0  0  0  0  0  0  0  0  0  0  0  0
  138.8554   75.5678  221.4390 H   0  0  0  0  0  0  0  0  0  0  0  0
  140.1868   75.7350  217.2726 H   0  0  0  0  0  0  0  0  0  0  0  0
  139.6419   77.0465  218.2656 H   0  0  0  0  0  0  0  0  0  0  0  0
  141.8944   77.1984  216.5108 H   0  0  0  0  0  0  0  0  0  0  0  0
  141.7245   78.2914  217.8833 H   0  0  0  0  0  0  0  0  0  0  0  0
  143.4126   77.0028  219.1691 H   0  0  0  0  0  0  0  0  0  0  0  0
  144.8160   76.0260  217.8140 H   0  0  0  0  0  0  0  0  0  0  0  0
  142.2336   74.5039  217.7971 H   0  0  0  0  0  0  0  0  0  0  0  0
  144.7257   75.5554  219.9889 H   0  0  0  0  0  0  0  0  0  0  0  0
  145.9105   73.8939  221.3239 H   0  0  0  0  0  0  0  0  0  0  0  0
  145.0053   71.5998  221.5865 H   0  0  0  0  0  0  0  0  0  0  0  0
  142.8682   71.0333  220.4690 H   0  0  0  0  0  0  0  0  0  0  0  0
  141.6653   72.6963  219.1269 H   0  0  0  0  0  0  0  0  0  0  0  0
  139.1037   69.9831  221.8795 H   0  0  0  0  0  0  0  0  0  0  0  0
  139.2743   68.3388  223.7255 H   0  0  0  0  0  0  0  0  0  0  0  0
  139.8713   67.8006  226.0214 H   0  0  0  0  0  0  0  0  0  0  0  0
  141.4636   70.9331  228.5106 H   0  0  0  0  0  0  0  0  0  0  0  0
  141.2834   72.5604  226.6594 H   0  0  0  0  0  0  0  0  0  0  0  0
  1  2  2  0
  2  3  1  0
  3  4  1  0
  4  5  1  0
  5  6  2  0
  5  7  1  0
  7  8  1  0
  8  9  1  0
  9 10  1  0
 10 11  1  0
 10 12  1  0
 12 13  1  0
 13 14  2  0
 14 15  1  0
 15 16  2  0
 16 17  1  0
 17 18  2  0
  2 19  1  0
 19 20  2  0
 20 21  1  0
 21 22  2  0
 22 23  1  0
 23 24  2  0
 24 25  1  0
 24 26  1  0
 26 27  2  0
 27 28  1  0
 28 29  2  0
 12  7  1  0
 18 13  1  0
 29 19  1  0
 28 22  1  0
  3 30  1  0
  4 31  1  0
  4 32  1  0
  8 33  1  0
  8 34  1  0
  9 35  1  0
  9 36  1  0
 10 37  1  1
 11 38  1  0
 12 39  1  6
 14 40  1  0
 15 41  1  0
 16 42  1  0
 17 43  1  0
 18 44  1  0
 20 45  1  0
 21 46  1  0
 23 47  1  0
 26 48  1  0
 27 49  1  0
M  END
>  <smiles>  (42) 
O=C(NCC(=O)N1CC[C@H](O)[C@H]1c1ccccc1)c1ccc2cc(Cl)ccc2n1

>  <score_type>  (42) 
oracle

>  <origin>  (42) 
autodockgpu

>  <m_score__min__energy>  (42) 
-8.5600000000000005

>  <m_primary>  (42) 
energy

>  <rmsd>  (42) 
1.868656109920707

>  <m_score__min__rmsd>  (42) 
1.868656109920707

>  <meeko>  (42) 
{"free_energy": -7.73, "intermolecular_energy": -9.52, "internal_energy": -2.02, "cluster_size": 11, "cluster_id": 5, "rank_in_cluster": 9}

>  <energy>  (42) 
-7.53

>  <cluster_rmsd>  (42) 
0.0

>  <cluster>  (42) 
7

$$$$

     RDKit          3D

 49 52  0  0  0  0  0  0  0  0999 V2000
  141.5360   72.6850  221.0360 O   0  0  0  0  0  0  0  0  0  0  0  0
  140.8780   73.5580  221.6640 C   0  0  0  0  0  0  0  0  0  0  0  0
  139.8720   73.0820  222.6070 N   0  0  0  0  0  0  0  0  0  0  0  0
  139.7500   71.6810  222.7110 C   0  0  0  0  0  0  0  0  0  0  0  0
  139.3860   71.0020  223.9230 C   0  0  0  0  0  0  0  0  0  0  0  0
  138.2730   71.4800  224.4540 O   0  0  0  0  0  0  0  0  0  0  0  0
  139.9440   69.9540  224.6590 N   0  0  0  0  0  0  0  0  0  0  0  0
  141.0450   69.8890  225.6250 C   0  0  0  0  0  0  0  0  0  0  0  0
  140.3830   69.0290  226.7420 C   0  0  0  0  0  0  0  0  0  0  0  0
  139.1790   68.3540  226.0570 C   0  0  2  0  0  0  0  0  0  0  0  0
  139.1230   67.0410  226.4790 O   0  0  0  0  0  0  0  0  0  0  0  0
  139.5430   68.5230  224.6130 C   0  0  1  0  0  0  0  0  0  0  0  0
  138.5760   68.1440  223.6240 C   0  0  0  0  0  0  0  0  0  0  0  0
  137.3450   68.7270  223.4150 C   0  0  0  0  0  0  0  0  0  0  0  0
  136.4670   68.3080  222.4460 C   0  0  0  0  0  0  0  0  0  0  0  0
  136.7830   67.2610  221.6220 C   0  0  0  0  0  0  0  0  0  0  0  0
  137.9990   66.6510  221.7950 C   0  0  0  0  0  0  0  0  0  0  0  0
  138.8790   67.0730  222.7670 C   0  0  0  0  0  0  0  0  0  0  0  0
  141.0790   74.9860  221.4860 C   0  0  0  0  0  0  0  0  0  0  0  0
  141.8020   75.3880  220.3840 C   0  0  0  0  0  0  0  0  0  0  0  0
  142.0200   76.7340  220.1710 C   0  0  0  0  0  0  0  0  0  0  0  0
  141.5190   77.6870  221.0550 C   0  0  0  0  0  0  0  0  0  0  0  0
  141.7380   79.0300  220.8420 C   0  0  0  0  0  0  0  0  0  0  0  0
  141.2150   79.9330  221.7570 C   0  0  0  0  0  0  0  0  0  0  0  0
  141.4610   81.6700  221.5390 Cl  0  0  0  0  0  0  0  0  0  0  0  0
  140.4950   79.4720  222.8490 C   0  0  0  0  0  0  0  0  0  0  0  0
  140.2770   78.1330  223.0630 C   0  0  0  0  0  0  0  0  0  0  0  0
  140.7950   77.2330  222.1550 C   0  0  0  0  0  0  0  0  0  0  0  0
  140.5880   75.9030  222.3530 N   0  0  0  0  0  0  0  0  0  0  0  0
  139.3840   73.8370  223.0920 H   0  0  0  0  0  0  0  0  0  0  0  0
  138.9954   71.3895  221.9656 H   0  0  0  0  0  0  0  0  0  0  0  0
  140.7980   71.3668  222.5972 H   0  0  0  0  0  0  0  0  0  0  0  0
  141.9305   69.3933  225.2004 H   0  0  0  0  0  0  0  0  0  0  0  0
  141.4233   70.8664  225.9591 H   0  0  0  0  0  0  0  0  0  0  0  0
  141.0882   68.2735  227.1187 H   0  0  0  0  0  0  0  0  0  0  0  0
  140.0815   69.6350  227.6091 H   0  0  0  0  0  0  0  0  0  0  0  0
  138.1801   68.7606  226.2735 H   0  0  0  0  0  0  0  0  0  0  0  0
  139.7390   66.9030  227.2620 H   0  0  0  0  0  0  0  0  0  0  0  0
  140.3133   67.8265  224.2503 H   0  0  0  0  0  0  0  0  0  0  0  0
  137.0509   69.5706  224.0568 H   0  0  0  0  0  0  0  0  0  0  0  0
  135.4996   68.8188  222.3305 H   0  0  0  0  0  0  0  0  0  0  0  0
  136.0830   66.9197  220.8451 H   0  0  0  0  0  0  0  0  0  0  0  0
  138.2770   65.8083  221.1449 H   0  0  0  0  0  0  0  0  0  0  0  0
  139.8448   66.5576  222.8750 H   0  0  0  0  0  0  0  0  0  0  0  0
  142.2018   74.6429  219.6805 H   0  0  0  0  0  0  0  0  0  0  0  0
  142.5966   77.0584  219.2922 H   0  0  0  0  0  0  0  0  0  0  0  0
  142.3119   79.3775  219.9703 H   0  0  0  0  0  0  0  0  0  0  0  0
  140.0864   80.2004  223.5649 H   0  0  0  0  0  0  0  0  0  0  0  0
  139.7041   77.7872  223.9360 H   0  0  0  0  0  0  0  0  0  0  0  0
  1  2  2  0
  2  3  1  0
  3  4  1  0
  4  5  1  0
  5  6  2  0
  5  7  1  0
  7  8  1  0
  8  9  1  0
  9 10  1  0
 10 11  1  0
 10 12  1  0
 12 13  1  0
 13 14  2  0
 14 15  1  0
 15 16  2  0
 16 17  1  0
 17 18  2  0
  2 19  1  0
 19 20  2  0
 20 21  1  0
 21 22  2  0
 22 23  1  0
 23 24  2  0
 24 25  1  0
 24 26  1  0
 26 27  2  0
 27 28  1  0
 28 29  2  0
 12  7  1  0
 18 13  1  0
 29 19  1  0
 28 22  1  0
  3 30  1  0
  4 31  1  0
  4 32  1  0
  8 33  1  0
  8 34  1  0
  9 35  1  0
  9 36  1  0
 10 37  1  6
 11 38  1  0
 12 39  1  6
 14 40  1  0
 15 41  1  0
 16 42  1  0
 17 43  1  0
 18 44  1  0
 20 45  1  0
 21 46  1  0
 23 47  1  0
 26 48  1  0
 27 49  1  0
M  END
>  <smiles>  (43) 
O=C(NCC(=O)N1CC[C@H](O)[C@H]1c1ccccc1)c1ccc2cc(Cl)ccc2n1

>  <score_type>  (43) 
oracle

>  <origin>  (43) 
autodockgpu

>  <m_score__min__energy>  (43) 
-8.5600000000000005

>  <m_primary>  (43) 
energy

>  <rmsd>  (43) 
8.90737407370876

>  <m_score__min__rmsd>  (43) 
8.90737407370876

>  <meeko>  (43) 
{"free_energy": -7.69, "intermolecular_energy": -9.48, "internal_energy": -1.47, "cluster_size": 3, "cluster_id": 6, "rank_in_cluster": 1}

>  <energy>  (43) 
-7.36

>  <cluster_rmsd>  (43) 
0.0

>  <cluster>  (43) 
8

$$$$

     RDKit          3D

 49 52  0  0  0  0  0  0  0  0999 V2000
  134.2330   69.2770  226.4760 O   0  0  0  0  0  0  0  0  0  0  0  0
  134.5530   70.4160  226.0390 C   0  0  0  0  0  0  0  0  0  0  0  0
  135.6750   70.4810  225.1100 N   0  0  0  0  0  0  0  0  0  0  0  0
  136.2820   69.2460  224.8010 C   0  0  0  0  0  0  0  0  0  0  0  0
  137.6880   69.0900  224.5550 C   0  0  0  0  0  0  0  0  0  0  0  0
  138.2420   68.1900  225.3500 O   0  0  0  0  0  0  0  0  0  0  0  0
  138.5930   69.6730  223.6650 N   0  0  0  0  0  0  0  0  0  0  0  0
  138.6460   69.7470  222.2020 C   0  0  0  0  0  0  0  0  0  0  0  0
  138.9850   71.2540  222.0130 C   0  0  0  0  0  0  0  0  0  0  0  0
  139.5200   71.7120  223.3830 C   0  0  2  0  0  0  0  0  0  0  0  0
  140.6150   72.5250  223.1690 O   0  0  0  0  0  0  0  0  0  0  0  0
  139.8460   70.3930  224.0160 C   0  0  1  0  0  0  0  0  0  0  0  0
  140.2450   70.3840  225.3920 C   0  0  0  0  0  0  0  0  0  0  0  0
  140.2520   71.4620  226.2520 C   0  0  0  0  0  0  0  0  0  0  0  0
  140.6510   71.3790  227.5620 C   0  0  0  0  0  0  0  0  0  0  0  0
  141.0720   70.1880  228.0910 C   0  0  0  0  0  0  0  0  0  0  0  0
  141.0810   69.0890  227.2710 C   0  0  0  0  0  0  0  0  0  0  0  0
  140.6810   69.1740  225.9560 C   0  0  0  0  0  0  0  0  0  0  0  0
  133.8610   71.6370  226.4190 C   0  0  0  0  0  0  0  0  0  0  0  0
  132.6920   71.5020  227.1350 C   0  0  0  0  0  0  0  0  0  0  0  0
  131.9980   72.6320  227.5190 C   0  0  0  0  0  0  0  0  0  0  0  0
  132.4660   73.9020  227.1910 C   0  0  0  0  0  0  0  0  0  0  0  0
  131.7730   75.0290  227.5740 C   0  0  0  0  0  0  0  0  0  0  0  0
  132.2870   76.2670  227.2190 C   0  0  0  0  0  0  0  0  0  0  0  0
  131.4440   77.7520  227.6820 Cl  0  0  0  0  0  0  0  0  0  0  0  0
  133.4690   76.3440  226.4970 C   0  0  0  0  0  0  0  0  0  0  0  0
  134.1610   75.2220  226.1130 C   0  0  0  0  0  0  0  0  0  0  0  0
  133.6520   73.9880  226.4660 C   0  0  0  0  0  0  0  0  0  0  0  0
  134.3250   72.8670  226.0940 N   0  0  0  0  0  0  0  0  0  0  0  0
  135.8750   71.4280  224.7830 H   0  0  0  0  0  0  0  0  0  0  0  0
  136.0491   68.5783  225.6435 H   0  0  0  0  0  0  0  0  0  0  0  0
  135.8678   69.0494  223.8011 H   0  0  0  0  0  0  0  0  0  0  0  0
  139.4326   69.0979  221.7897 H   0  0  0  0  0  0  0  0  0  0  0  0
  137.7315   69.4127  221.6902 H   0  0  0  0  0  0  0  0  0  0  0  0
  139.7513   71.3841  221.2346 H   0  0  0  0  0  0  0  0  0  0  0  0
  138.1106   71.8391  221.6921 H   0  0  0  0  0  0  0  0  0  0  0  0
  138.8463   72.3095  224.0147 H   0  0  0  0  0  0  0  0  0  0  0  0
  140.9870   72.3690  222.2470 H   0  0  0  0  0  0  0  0  0  0  0  0
  140.7764   69.9293  223.6564 H   0  0  0  0  0  0  0  0  0  0  0  0
  139.9208   72.4382  225.8681 H   0  0  0  0  0  0  0  0  0  0  0  0
  140.6326   72.2789  228.1943 H   0  0  0  0  0  0  0  0  0  0  0  0
  141.3928   70.1153  229.1407 H   0  0  0  0  0  0  0  0  0  0  0  0
  141.4143   68.1203  227.6715 H   0  0  0  0  0  0  0  0  0  0  0  0
  140.7036   68.2695  225.3303 H   0  0  0  0  0  0  0  0  0  0  0  0
  132.3148   70.5028  227.3984 H   0  0  0  0  0  0  0  0  0  0  0  0
  131.0641   72.5280  228.0909 H   0  0  0  0  0  0  0  0  0  0  0  0
  130.8369   74.9491  228.1462 H   0  0  0  0  0  0  0  0  0  0  0  0
  133.8638   77.3337  226.2239 H   0  0  0  0  0  0  0  0  0  0  0  0
  135.0960   75.3040  225.5394 H   0  0  0  0  0  0  0  0  0  0  0  0
  1  2  2  0
  2  3  1  0
  3  4  1  0
  4  5  1  0
  5  6  2  0
  5  7  1  0
  7  8  1  0
  8  9  1  0
  9 10  1  0
 10 11  1  0
 10 12  1  0
 12 13  1  0
 13 14  2  0
 14 15  1  0
 15 16  2  0
 16 17  1  0
 17 18  2  0
  2 19  1  0
 19 20  2  0
 20 21  1  0
 21 22  2  0
 22 23  1  0
 23 24  2  0
 24 25  1  0
 24 26  1  0
 26 27  2  0
 27 28  1  0
 28 29  2  0
 12  7  1  0
 18 13  1  0
 29 19  1  0
 28 22  1  0
  3 30  1  0
  4 31  1  0
  4 32  1  0
  8 33  1  0
  8 34  1  0
  9 35  1  0
  9 36  1  0
 10 37  1  1
 11 38  1  0
 12 39  1  6
 14 40  1  0
 15 41  1  0
 16 42  1  0
 17 43  1  0
 18 44  1  0
 20 45  1  0
 21 46  1  0
 23 47  1  0
 26 48  1  0
 27 49  1  0
M  END
>  <smiles>  (44) 
O=C(NCC(=O)N1CC[C@H](O)[C@H]1c1ccccc1)c1ccc2cc(Cl)ccc2n1

>  <score_type>  (44) 
oracle

>  <origin>  (44) 
autodockgpu

>  <m_score__min__energy>  (44) 
-8.5600000000000005

>  <m_primary>  (44) 
energy

>  <rmsd>  (44) 
7.729798301988419

>  <m_score__min__rmsd>  (44) 
7.729798301988419

>  <meeko>  (44) 
{"free_energy": -8.46, "intermolecular_energy": -10.25, "internal_energy": -1.43, "cluster_size": 9, "cluster_id": 1, "rank_in_cluster": 4}

>  <energy>  (44) 
-7.35

>  <cluster_rmsd>  (44) 
0.2

>  <cluster>  (44) 
8

$$$$

     RDKit          3D

 49 52  0  0  0  0  0  0  0  0999 V2000
  139.7730   72.1350  220.7300 O   0  0  0  0  0  0  0  0  0  0  0  0
  139.3500   72.3940  221.8890 C   0  0  0  0  0  0  0  0  0  0  0  0
  138.6250   73.6470  222.0690 N   0  0  0  0  0  0  0  0  0  0  0  0
  138.4770   74.4350  220.9100 C   0  0  0  0  0  0  0  0  0  0  0  0
  139.4820   75.3420  220.4310 C   0  0  0  0  0  0  0  0  0  0  0  0
  138.9940   76.5410  220.1630 O   0  0  0  0  0  0  0  0  0  0  0  0
  140.8540   75.2380  220.1890 N   0  0  0  0  0  0  0  0  0  0  0  0
  141.6930   74.1650  219.6460 C   0  0  0  0  0  0  0  0  0  0  0  0
  142.5640   74.9740  218.6420 C   0  0  0  0  0  0  0  0  0  0  0  0
  142.4120   76.4420  219.0840 C   0  0  2  0  0  0  0  0  0  0  0  0
  143.6520   77.0440  219.0150 O   0  0  0  0  0  0  0  0  0  0  0  0
  141.8890   76.2670  220.4770 C   0  0  1  0  0  0  0  0  0  0  0  0
  141.4700   77.4350  221.1940 C   0  0  0  0  0  0  0  0  0  0  0  0
  141.0110   77.4800  222.4930 C   0  0  0  0  0  0  0  0  0  0  0  0
  140.6240   78.6410  223.1160 C   0  0  0  0  0  0  0  0  0  0  0  0
  140.6760   79.8390  222.4560 C   0  0  0  0  0  0  0  0  0  0  0  0
  141.1270   79.8410  221.1610 C   0  0  0  0  0  0  0  0  0  0  0  0
  141.5160   78.6760  220.5370 C   0  0  0  0  0  0  0  0  0  0  0  0
  139.5540   71.5120  223.0260 C   0  0  0  0  0  0  0  0  0  0  0  0
  139.1180   70.2100  222.9000 C   0  0  0  0  0  0  0  0  0  0  0  0
  139.2890   69.3340  223.9520 C   0  0  0  0  0  0  0  0  0  0  0  0
  139.8960   69.7480  225.1350 C   0  0  0  0  0  0  0  0  0  0  0  0
  140.0650   68.8720  226.1840 C   0  0  0  0  0  0  0  0  0  0  0  0
  140.6760   69.3420  227.3380 C   0  0  0  0  0  0  0  0  0  0  0  0
  140.9230   68.2670  228.7200 Cl  0  0  0  0  0  0  0  0  0  0  0  0
  141.0950   70.6620  227.4100 C   0  0  0  0  0  0  0  0  0  0  0  0
  140.9260   71.5370  226.3650 C   0  0  0  0  0  0  0  0  0  0  0  0
  140.3200   71.0720  225.2160 C   0  0  0  0  0  0  0  0  0  0  0  0
  140.1450   71.9260  224.1720 N   0  0  0  0  0  0  0  0  0  0  0  0
  138.2980   73.7910  223.0260 H   0  0  0  0  0  0  0  0  0  0  0  0
  138.2950   73.7275  220.0876 H   0  0  0  0  0  0  0  0  0  0  0  0
  137.6914   75.1362  221.2280 H   0  0  0  0  0  0  0  0  0  0  0  0
  142.3059   73.6925  220.4277 H   0  0  0  0  0  0  0  0  0  0  0  0
  141.1372   73.3263  219.2015 H   0  0  0  0  0  0  0  0  0  0  0  0
  143.6162   74.6587  218.7001 H   0  0  0  0  0  0  0  0  0  0  0  0
  142.2485   74.8192  217.5997 H   0  0  0  0  0  0  0  0  0  0  0  0
  141.7538   77.0855  218.4818 H   0  0  0  0  0  0  0  0  0  0  0  0
  143.8780   77.4730  219.8960 H   0  0  0  0  0  0  0  0  0  0  0  0
  142.6495   75.9812  221.2186 H   0  0  0  0  0  0  0  0  0  0  0  0
  140.9517   76.5387  223.0590 H   0  0  0  0  0  0  0  0  0  0  0  0
  140.2684   78.6079  224.1564 H   0  0  0  0  0  0  0  0  0  0  0  0
  140.3654   80.7718  222.9494 H   0  0  0  0  0  0  0  0  0  0  0  0
  141.1792   80.7914  220.6096 H   0  0  0  0  0  0  0  0  0  0  0  0
  141.8720   78.7186  219.4971 H   0  0  0  0  0  0  0  0  0  0  0  0
  138.6383   69.8729  221.9693 H   0  0  0  0  0  0  0  0  0  0  0  0
  138.9413   68.2949  223.8551 H   0  0  0  0  0  0  0  0  0  0  0  0
  139.7251   67.8285  226.1093 H   0  0  0  0  0  0  0  0  0  0  0  0
  141.5773   71.0190  228.3319 H   0  0  0  0  0  0  0  0  0  0  0  0
  141.2647   72.5807  226.4420 H   0  0  0  0  0  0  0  0  0  0  0  0
  1  2  2  0
  2  3  1  0
  3  4  1  0
  4  5  1  0
  5  6  2  0
  5  7  1  0
  7  8  1  0
  8  9  1  0
  9 10  1  0
 10 11  1  0
 10 12  1  0
 12 13  1  0
 13 14  2  0
 14 15  1  0
 15 16  2  0
 16 17  1  0
 17 18  2  0
  2 19  1  0
 19 20  2  0
 20 21  1  0
 21 22  2  0
 22 23  1  0
 23 24  2  0
 24 25  1  0
 24 26  1  0
 26 27  2  0
 27 28  1  0
 28 29  2  0
 12  7  1  0
 18 13  1  0
 29 19  1  0
 28 22  1  0
  3 30  1  0
  4 31  1  0
  4 32  1  0
  8 33  1  0
  8 34  1  0
  9 35  1  0
  9 36  1  0
 10 37  1  6
 11 38  1  0
 12 39  1  1
 14 40  1  0
 15 41  1  0
 16 42  1  0
 17 43  1  0
 18 44  1  0
 20 45  1  0
 21 46  1  0
 23 47  1  0
 26 48  1  0
 27 49  1  0
M  END
>  <smiles>  (45) 
O=C(NCC(=O)N1CC[C@H](O)[C@H]1c1ccccc1)c1ccc2cc(Cl)ccc2n1

>  <score_type>  (45) 
oracle

>  <origin>  (45) 
autodockgpu

>  <m_score__min__energy>  (45) 
-8.5600000000000005

>  <m_primary>  (45) 
energy

>  <rmsd>  (45) 
1.981054753328258

>  <m_score__min__rmsd>  (45) 
1.981054753328258

>  <meeko>  (45) 
{"free_energy": -7.99, "intermolecular_energy": -9.78, "internal_energy": -1.48, "cluster_size": 12, "cluster_id": 2, "rank_in_cluster": 7}

>  <energy>  (45) 
-7.13

>  <cluster_rmsd>  (45) 
0.0

>  <cluster>  (45) 
9

$$$$

     RDKit          3D

 49 52  0  0  0  0  0  0  0  0999 V2000
  139.3970   71.9610  220.6890 O   0  0  0  0  0  0  0  0  0  0  0  0
  139.2210   72.3230  221.8840 C   0  0  0  0  0  0  0  0  0  0  0  0
  138.7490   73.6860  222.1040 N   0  0  0  0  0  0  0  0  0  0  0  0
  138.5410   74.4530  220.9390 C   0  0  0  0  0  0  0  0  0  0  0  0
  139.5900   74.8190  220.0300 C   0  0  0  0  0  0  0  0  0  0  0  0
  139.1310   75.4370  218.9540 O   0  0  0  0  0  0  0  0  0  0  0  0
  140.9790   74.6710  220.0310 N   0  0  0  0  0  0  0  0  0  0  0  0
  141.8640   73.5650  219.6570 C   0  0  0  0  0  0  0  0  0  0  0  0
  142.9220   74.3300  218.8100 C   0  0  0  0  0  0  0  0  0  0  0  0
  142.7420   75.8100  219.2000 C   0  0  2  0  0  0  0  0  0  0  0  0
  143.9940   76.3740  219.3400 O   0  0  0  0  0  0  0  0  0  0  0  0
  141.9800   75.6740  220.4830 C   0  0  1  0  0  0  0  0  0  0  0  0
  141.4800   76.8670  221.1010 C   0  0  0  0  0  0  0  0  0  0  0  0
  140.7180   76.9400  222.2470 C   0  0  0  0  0  0  0  0  0  0  0  0
  140.2710   78.1230  222.7820 C   0  0  0  0  0  0  0  0  0  0  0  0
  140.5710   79.3170  222.1840 C   0  0  0  0  0  0  0  0  0  0  0  0
  141.3280   79.2920  221.0410 C   0  0  0  0  0  0  0  0  0  0  0  0
  141.7760   78.1040  220.5060 C   0  0  0  0  0  0  0  0  0  0  0  0
  139.4650   71.4540  223.0230 C   0  0  0  0  0  0  0  0  0  0  0  0
  139.0670   70.1390  222.9090 C   0  0  0  0  0  0  0  0  0  0  0  0
  139.2770   69.2740  223.9640 C   0  0  0  0  0  0  0  0  0  0  0  0
  139.8850   69.7140  225.1370 C   0  0  0  0  0  0  0  0  0  0  0  0
  140.0930   68.8500  226.1890 C   0  0  0  0  0  0  0  0  0  0  0  0
  140.7030   69.3440  227.3330 C   0  0  0  0  0  0  0  0  0  0  0  0
  140.9990   68.2850  228.7180 Cl  0  0  0  0  0  0  0  0  0  0  0  0
  141.0830   70.6760  227.3930 C   0  0  0  0  0  0  0  0  0  0  0  0
  140.8750   71.5400  226.3450 C   0  0  0  0  0  0  0  0  0  0  0  0
  140.2700   71.0510  225.2060 C   0  0  0  0  0  0  0  0  0  0  0  0
  140.0560   71.8920  224.1590 N   0  0  0  0  0  0  0  0  0  0  0  0
  138.6150   73.9130  223.0910 H   0  0  0  0  0  0  0  0  0  0  0  0
  137.8061   73.8953  220.3400 H   0  0  0  0  0  0  0  0  0  0  0  0
  138.2828   75.4310  221.3712 H   0  0  0  0  0  0  0  0  0  0  0  0
  142.3161   73.0891  220.5397 H   0  0  0  0  0  0  0  0  0  0  0  0
  141.3675   72.7348  219.1332 H   0  0  0  0  0  0  0  0  0  0  0  0
  143.9375   73.9853  219.0549 H   0  0  0  0  0  0  0  0  0  0  0  0
  142.7881   74.1655  217.7306 H   0  0  0  0  0  0  0  0  0  0  0  0
  142.2190   76.4621  218.4849 H   0  0  0  0  0  0  0  0  0  0  0  0
  144.5460   76.2020  218.5160 H   0  0  0  0  0  0  0  0  0  0  0  0
  142.5899   75.3786  221.3494 H   0  0  0  0  0  0  0  0  0  0  0  0
  140.4545   76.0029  222.7592 H   0  0  0  0  0  0  0  0  0  0  0  0
  139.6657   78.1109  223.7004 H   0  0  0  0  0  0  0  0  0  0  0  0
  140.2156   80.2679  222.6075 H   0  0  0  0  0  0  0  0  0  0  0  0
  141.5825   80.2385  220.5416 H   0  0  0  0  0  0  0  0  0  0  0  0
  142.3818   78.1251  219.5881 H   0  0  0  0  0  0  0  0  0  0  0  0
  138.5866   69.7824  221.9859 H   0  0  0  0  0  0  0  0  0  0  0  0
  138.9602   68.2242  223.8771 H   0  0  0  0  0  0  0  0  0  0  0  0
  139.7838   67.7964  226.1240 H   0  0  0  0  0  0  0  0  0  0  0  0
  141.5655   71.0525  228.3071 H   0  0  0  0  0  0  0  0  0  0  0  0
  141.1829   72.5939  226.4126 H   0  0  0  0  0  0  0  0  0  0  0  0
  1  2  2  0
  2  3  1  0
  3  4  1  0
  4  5  1  0
  5  6  2  0
  5  7  1  0
  7  8  1  0
  8  9  1  0
  9 10  1  0
 10 11  1  0
 10 12  1  0
 12 13  1  0
 13 14  2  0
 14 15  1  0
 15 16  2  0
 16 17  1  0
 17 18  2  0
  2 19  1  0
 19 20  2  0
 20 21  1  0
 21 22  2  0
 22 23  1  0
 23 24  2  0
 24 25  1  0
 24 26  1  0
 26 27  2  0
 27 28  1  0
 28 29  2  0
 12  7  1  0
 18 13  1  0
 29 19  1  0
 28 22  1  0
  3 30  1  0
  4 31  1  0
  4 32  1  0
  8 33  1  0
  8 34  1  0
  9 35  1  0
  9 36  1  0
 10 37  1  6
 11 38  1  0
 12 39  1  1
 14 40  1  0
 15 41  1  0
 16 42  1  0
 17 43  1  0
 18 44  1  0
 20 45  1  0
 21 46  1  0
 23 47  1  0
 26 48  1  0
 27 49  1  0
M  END
>  <smiles>  (46) 
O=C(NCC(=O)N1CC[C@H](O)[C@H]1c1ccccc1)c1ccc2cc(Cl)ccc2n1

>  <score_type>  (46) 
oracle

>  <origin>  (46) 
autodockgpu

>  <m_score__min__energy>  (46) 
-8.5600000000000005

>  <m_primary>  (46) 
energy

>  <rmsd>  (46) 
2.093970458619753

>  <m_score__min__rmsd>  (46) 
2.093970458619753

>  <meeko>  (46) 
{"free_energy": -7.53, "intermolecular_energy": -9.32, "internal_energy": -1.67, "cluster_size": 1, "cluster_id": 7, "rank_in_cluster": 1}

>  <energy>  (46) 
-7.1

>  <cluster_rmsd>  (46) 
0.12

>  <cluster>  (46) 
9

$$$$

     RDKit          3D

 49 52  0  0  0  0  0  0  0  0999 V2000
  139.0470   71.8570  220.6930 O   0  0  0  0  0  0  0  0  0  0  0  0
  139.0920   72.2720  221.8830 C   0  0  0  0  0  0  0  0  0  0  0  0
  138.8440   73.6920  222.1020 N   0  0  0  0  0  0  0  0  0  0  0  0
  138.5790   74.4500  220.9430 C   0  0  0  0  0  0  0  0  0  0  0  0
  139.6030   74.9810  220.0880 C   0  0  0  0  0  0  0  0  0  0  0  0
  139.1090   75.7290  219.1160 O   0  0  0  0  0  0  0  0  0  0  0  0
  140.9960   74.8850  220.0590 N   0  0  0  0  0  0  0  0  0  0  0  0
  141.9140   73.8210  219.6400 C   0  0  0  0  0  0  0  0  0  0  0  0
  142.9240   74.6450  218.7900 C   0  0  0  0  0  0  0  0  0  0  0  0
  142.6980   76.1070  219.2190 C   0  0  2  0  0  0  0  0  0  0  0  0
  143.9310   76.7150  219.3470 O   0  0  0  0  0  0  0  0  0  0  0  0
  141.9690   75.9140  220.5140 C   0  0  1  0  0  0  0  0  0  0  0  0
  141.4380   77.0730  221.1700 C   0  0  0  0  0  0  0  0  0  0  0  0
  140.7210   77.0930  222.3470 C   0  0  0  0  0  0  0  0  0  0  0  0
  140.2410   78.2460  222.9170 C   0  0  0  0  0  0  0  0  0  0  0  0
  140.4580   79.4620  222.3260 C   0  0  0  0  0  0  0  0  0  0  0  0
  141.1670   79.4880  221.1530 C   0  0  0  0  0  0  0  0  0  0  0  0
  141.6490   78.3310  220.5820 C   0  0  0  0  0  0  0  0  0  0  0  0
  139.3750   71.4070  223.0160 C   0  0  0  0  0  0  0  0  0  0  0  0
  139.0120   70.0820  222.9040 C   0  0  0  0  0  0  0  0  0  0  0  0
  139.2600   69.2210  223.9540 C   0  0  0  0  0  0  0  0  0  0  0  0
  139.8710   69.6750  225.1200 C   0  0  0  0  0  0  0  0  0  0  0  0
  140.1170   68.8140  226.1670 C   0  0  0  0  0  0  0  0  0  0  0  0
  140.7280   69.3230  227.3040 C   0  0  0  0  0  0  0  0  0  0  0  0
  141.0710   68.2690  228.6830 Cl  0  0  0  0  0  0  0  0  0  0  0  0
  141.0710   70.6650  227.3630 C   0  0  0  0  0  0  0  0  0  0  0  0
  140.8260   71.5250  226.3200 C   0  0  0  0  0  0  0  0  0  0  0  0
  140.2200   71.0220  225.1880 C   0  0  0  0  0  0  0  0  0  0  0  0
  139.9690   71.8590  224.1460 N   0  0  0  0  0  0  0  0  0  0  0  0
  138.8820   73.9610  223.0880 H   0  0  0  0  0  0  0  0  0  0  0  0
  137.9555   73.8095  220.3019 H   0  0  0  0  0  0  0  0  0  0  0  0
  138.1682   75.3717  221.3808 H   0  0  0  0  0  0  0  0  0  0  0  0
  142.4024   73.3421  220.5014 H   0  0  0  0  0  0  0  0  0  0  0  0
  141.4376   72.9850  219.1070 H   0  0  0  0  0  0  0  0  0  0  0  0
  143.9567   74.3332  219.0052 H   0  0  0  0  0  0  0  0  0  0  0  0
  142.7726   74.5009  217.7100 H   0  0  0  0  0  0  0  0  0  0  0  0
  142.1360   76.7546  218.5300 H   0  0  0  0  0  0  0  0  0  0  0  0
  143.9650   77.2520  220.1970 H   0  0  0  0  0  0  0  0  0  0  0  0
  142.6082   75.6225  221.3605 H   0  0  0  0  0  0  0  0  0  0  0  0
  140.5235   76.1375  222.8549 H   0  0  0  0  0  0  0  0  0  0  0  0
  139.6757   78.1924  223.8591 H   0  0  0  0  0  0  0  0  0  0  0  0
  140.0754   80.3889  222.7783 H   0  0  0  0  0  0  0  0  0  0  0  0
  141.3547   80.4522  220.6579 H   0  0  0  0  0  0  0  0  0  0  0  0
  142.2142   78.3938  219.6404 H   0  0  0  0  0  0  0  0  0  0  0  0
  138.5292   69.7142  221.9866 H   0  0  0  0  0  0  0  0  0  0  0  0
  138.9714   68.1630  223.8686 H   0  0  0  0  0  0  0  0  0  0  0  0
  139.8367   67.7522  226.1033 H   0  0  0  0  0  0  0  0  0  0  0  0
  141.5538   71.0528  228.2721 H   0  0  0  0  0  0  0  0  0  0  0  0
  141.1058   72.5868  226.3861 H   0  0  0  0  0  0  0  0  0  0  0  0
  1  2  2  0
  2  3  1  0
  3  4  1  0
  4  5  1  0
  5  6  2  0
  5  7  1  0
  7  8  1  0
  8  9  1  0
  9 10  1  0
 10 11  1  0
 10 12  1  0
 12 13  1  0
 13 14  2  0
 14 15  1  0
 15 16  2  0
 16 17  1  0
 17 18  2  0
  2 19  1  0
 19 20  2  0
 20 21  1  0
 21 22  2  0
 22 23  1  0
 23 24  2  0
 24 25  1  0
 24 26  1  0
 26 27  2  0
 27 28  1  0
 28 29  2  0
 12  7  1  0
 18 13  1  0
 29 19  1  0
 28 22  1  0
  3 30  1  0
  4 31  1  0
  4 32  1  0
  8 33  1  0
  8 34  1  0
  9 35  1  0
  9 36  1  0
 10 37  1  6
 11 38  1  0
 12 39  1  1
 14 40  1  0
 15 41  1  0
 16 42  1  0
 17 43  1  0
 18 44  1  0
 20 45  1  0
 21 46  1  0
 23 47  1  0
 26 48  1  0
 27 49  1  0
M  END
>  <smiles>  (47) 
O=C(NCC(=O)N1CC[C@H](O)[C@H]1c1ccccc1)c1ccc2cc(Cl)ccc2n1

>  <score_type>  (47) 
oracle

>  <origin>  (47) 
autodockgpu

>  <m_score__min__energy>  (47) 
-8.5600000000000005

>  <m_primary>  (47) 
energy

>  <rmsd>  (47) 
2.1318856048383137

>  <m_score__min__rmsd>  (47) 
2.1318856048383137

>  <meeko>  (47) 
{"free_energy": -7.77, "intermolecular_energy": -9.56, "internal_energy": -1.71, "cluster_size": 12, "cluster_id": 2, "rank_in_cluster": 11}

>  <energy>  (47) 
-7.0

>  <cluster_rmsd>  (47) 
0.18

>  <cluster>  (47) 
9

$$$$

     RDKit          3D

 49 52  0  0  0  0  0  0  0  0999 V2000
  141.4380   72.9640  221.1500 O   0  0  0  0  0  0  0  0  0  0  0  0
  140.7010   73.8410  221.6750 C   0  0  0  0  0  0  0  0  0  0  0  0
  139.5470   73.3730  222.4360 N   0  0  0  0  0  0  0  0  0  0  0  0
  139.3880   71.9740  222.4980 C   0  0  0  0  0  0  0  0  0  0  0  0
  138.2950   71.3270  223.1690 C   0  0  0  0  0  0  0  0  0  0  0  0
  137.3430   72.1770  223.5160 O   0  0  0  0  0  0  0  0  0  0  0  0
  138.0150   70.0070  223.5300 N   0  0  0  0  0  0  0  0  0  0  0  0
  137.1110   68.9920  222.9800 C   0  0  0  0  0  0  0  0  0  0  0  0
  138.0600   67.7590  222.9560 C   0  0  0  0  0  0  0  0  0  0  0  0
  139.2120   68.1310  223.9100 C   0  0  2  0  0  0  0  0  0  0  0  0
  139.5150   67.0220  224.6740 O   0  0  0  0  0  0  0  0  0  0  0  0
  138.5920   69.2580  224.6790 C   0  0  1  0  0  0  0  0  0  0  0  0
  139.4200   69.9910  225.5900 C   0  0  0  0  0  0  0  0  0  0  0  0
  139.3360   69.9790  226.9660 C   0  0  0  0  0  0  0  0  0  0  0  0
  140.1650   70.7120  227.7780 C   0  0  0  0  0  0  0  0  0  0  0  0
  141.1400   71.5110  227.2440 C   0  0  0  0  0  0  0  0  0  0  0  0
  141.2590   71.5530  225.8790 C   0  0  0  0  0  0  0  0  0  0  0  0
  140.4270   70.8170  225.0650 C   0  0  0  0  0  0  0  0  0  0  0  0
  140.9510   75.2680  221.5530 C   0  0  0  0  0  0  0  0  0  0  0  0
  141.8180   75.6730  220.5600 C   0  0  0  0  0  0  0  0  0  0  0  0
  142.0870   77.0170  220.4040 C   0  0  0  0  0  0  0  0  0  0  0  0
  141.4960   77.9650  221.2350 C   0  0  0  0  0  0  0  0  0  0  0  0
  141.7670   79.3060  221.0790 C   0  0  0  0  0  0  0  0  0  0  0  0
  141.1480   80.2050  221.9360 C   0  0  0  0  0  0  0  0  0  0  0  0
  141.4540   81.9400  221.7870 Cl  0  0  0  0  0  0  0  0  0  0  0  0
  140.2850   79.7410  222.9180 C   0  0  0  0  0  0  0  0  0  0  0  0
  140.0150   78.4040  223.0760 C   0  0  0  0  0  0  0  0  0  0  0  0
  140.6270   77.5080  222.2240 C   0  0  0  0  0  0  0  0  0  0  0  0
  140.3710   76.1810  222.3670 N   0  0  0  0  0  0  0  0  0  0  0  0
  138.9990   74.1320  222.8460 H   0  0  0  0  0  0  0  0  0  0  0  0
  139.3449   71.6303  221.4540 H   0  0  0  0  0  0  0  0  0  0  0  0
  140.2323   71.6917  223.1442 H   0  0  0  0  0  0  0  0  0  0  0  0
  136.2419   68.8241  223.6331 H   0  0  0  0  0  0  0  0  0  0  0  0
  136.6660   69.2498  222.0076 H   0  0  0  0  0  0  0  0  0  0  0  0
  137.5363   66.8598  223.3127 H   0  0  0  0  0  0  0  0  0  0  0  0
  138.4182   67.5301  221.9415 H   0  0  0  0  0  0  0  0  0  0  0  0
  140.1685   68.4284  223.4553 H   0  0  0  0  0  0  0  0  0  0  0  0
  140.4080   67.1430  225.1210 H   0  0  0  0  0  0  0  0  0  0  0  0
  137.8739   68.9453  225.4514 H   0  0  0  0  0  0  0  0  0  0  0  0
  138.5659   69.3503  227.4368 H   0  0  0  0  0  0  0  0  0  0  0  0
  140.0446   70.6568  228.8700 H   0  0  0  0  0  0  0  0  0  0  0  0
  141.8070   72.1008  227.8900 H   0  0  0  0  0  0  0  0  0  0  0  0
  142.0345   72.1872  225.4248 H   0  0  0  0  0  0  0  0  0  0  0  0
  140.5547   70.8778  223.9741 H   0  0  0  0  0  0  0  0  0  0  0  0
  142.2904   74.9316  219.8988 H   0  0  0  0  0  0  0  0  0  0  0  0
  142.7775   77.3440  219.6127 H   0  0  0  0  0  0  0  0  0  0  0  0
  142.4559   79.6554  220.2958 H   0  0  0  0  0  0  0  0  0  0  0  0
  139.8026   80.4658  223.5902 H   0  0  0  0  0  0  0  0  0  0  0  0
  139.3283   78.0562  223.8618 H   0  0  0  0  0  0  0  0  0  0  0  0
  1  2  2  0
  2  3  1  0
  3  4  1  0
  4  5  1  0
  5  6  2  0
  5  7  1  0
  7  8  1  0
  8  9  1  0
  9 10  1  0
 10 11  1  0
 10 12  1  0
 12 13  1  0
 13 14  2  0
 14 15  1  0
 15 16  2  0
 16 17  1  0
 17 18  2  0
  2 19  1  0
 19 20  2  0
 20 21  1  0
 21 22  2  0
 22 23  1  0
 23 24  2  0
 24 25  1  0
 24 26  1  0
 26 27  2  0
 27 28  1  0
 28 29  2  0
 12  7  1  0
 18 13  1  0
 29 19  1  0
 28 22  1  0
  3 30  1  0
  4 31  1  0
  4 32  1  0
  8 33  1  0
  8 34  1  0
  9 35  1  0
  9 36  1  0
 10 37  1  6
 11 38  1  0
 12 39  1  1
 14 40  1  0
 15 41  1  0
 16 42  1  0
 17 43  1  0
 18 44  1  0
 20 45  1  0
 21 46  1  0
 23 47  1  0
 26 48  1  0
 27 49  1  0
M  END
>  <smiles>  (48) 
O=C(NCC(=O)N1CC[C@H](O)[C@H]1c1ccccc1)c1ccc2cc(Cl)ccc2n1

>  <score_type>  (48) 
oracle

>  <origin>  (48) 
autodockgpu

>  <m_score__min__energy>  (48) 
-8.5600000000000005

>  <m_primary>  (48) 
energy

>  <rmsd>  (48) 
8.532981292213671

>  <m_score__min__rmsd>  (48) 
8.532981292213671

>  <meeko>  (48) 
{"free_energy": -8.11, "intermolecular_energy": -9.9, "internal_energy": -1.4, "cluster_size": 2, "cluster_id": 4, "rank_in_cluster": 1}

>  <energy>  (48) 
-6.53

>  <cluster_rmsd>  (48) 
0.0

>  <cluster>  (48) 
10

$$$$

     RDKit          3D

 49 52  0  0  0  0  0  0  0  0999 V2000
  134.0750   69.6010  226.4670 O   0  0  0  0  0  0  0  0  0  0  0  0
  134.3880   70.7310  226.0050 C   0  0  0  0  0  0  0  0  0  0  0  0
  135.4760   70.7760  225.0340 N   0  0  0  0  0  0  0  0  0  0  0  0
  136.0590   69.5320  224.7170 C   0  0  0  0  0  0  0  0  0  0  0  0
  137.4670   69.3460  224.5050 C   0  0  0  0  0  0  0  0  0  0  0  0
  137.9990   68.4980  225.3690 O   0  0  0  0  0  0  0  0  0  0  0  0
  138.3920   69.8560  223.5910 N   0  0  0  0  0  0  0  0  0  0  0  0
  138.3910   69.9720  222.1290 C   0  0  0  0  0  0  0  0  0  0  0  0
  138.8840   71.4390  221.9670 C   0  0  0  0  0  0  0  0  0  0  0  0
  139.5240   71.7920  223.3240 C   0  0  2  0  0  0  0  0  0  0  0  0
  140.6910   72.4880  223.0820 O   0  0  0  0  0  0  0  0  0  0  0  0
  139.7300   70.4250  223.9040 C   0  0  1  0  0  0  0  0  0  0  0  0
  140.1840   70.3280  225.2600 C   0  0  0  0  0  0  0  0  0  0  0  0
  140.6000   69.1840  225.9060 C   0  0  0  0  0  0  0  0  0  0  0  0
  141.0200   69.1670  227.2130 C   0  0  0  0  0  0  0  0  0  0  0  0
  141.0450   70.3170  227.9550 C   0  0  0  0  0  0  0  0  0  0  0  0
  140.6390   71.4790  227.3510 C   0  0  0  0  0  0  0  0  0  0  0  0
  140.2180   71.4960  226.0400 C   0  0  0  0  0  0  0  0  0  0  0  0
  133.7220   71.9630  226.3970 C   0  0  0  0  0  0  0  0  0  0  0  0
  132.5450   71.8450  227.1040 C   0  0  0  0  0  0  0  0  0  0  0  0
  131.8760   72.9850  227.4990 C   0  0  0  0  0  0  0  0  0  0  0  0
  132.3740   74.2480  227.1900 C   0  0  0  0  0  0  0  0  0  0  0  0
  131.7040   75.3860  227.5840 C   0  0  0  0  0  0  0  0  0  0  0  0
  132.2490   76.6170  227.2490 C   0  0  0  0  0  0  0  0  0  0  0  0
  131.4370   78.1140  227.7250 Cl  0  0  0  0  0  0  0  0  0  0  0  0
  133.4360   76.6760  226.5340 C   0  0  0  0  0  0  0  0  0  0  0  0
  134.1050   75.5430  226.1400 C   0  0  0  0  0  0  0  0  0  0  0  0
  133.5670   74.3180  226.4730 C   0  0  0  0  0  0  0  0  0  0  0  0
  134.2160   73.1860  226.0910 N   0  0  0  0  0  0  0  0  0  0  0  0
  135.6720   71.7180  224.6900 H   0  0  0  0  0  0  0  0  0  0  0  0
  135.7872   68.8546  225.5399 H   0  0  0  0  0  0  0  0  0  0  0  0
  135.6661   69.3638  223.7034 H   0  0  0  0  0  0  0  0  0  0  0  0
  139.0840   69.2558  221.6633 H   0  0  0  0  0  0  0  0  0  0  0  0
  137.4247   69.7552  221.6503 H   0  0  0  0  0  0  0  0  0  0  0  0
  139.6261   71.5112  221.1582 H   0  0  0  0  0  0  0  0  0  0  0  0
  138.0657   72.1251  221.7031 H   0  0  0  0  0  0  0  0  0  0  0  0
  138.9479   72.4380  224.0028 H   0  0  0  0  0  0  0  0  0  0  0  0
  140.5100   73.2650  222.4690 H   0  0  0  0  0  0  0  0  0  0  0  0
  140.5876   69.8754  223.4888 H   0  0  0  0  0  0  0  0  0  0  0  0
  140.5953   68.2370  225.3464 H   0  0  0  0  0  0  0  0  0  0  0  0
  141.3400   68.2185  227.6690 H   0  0  0  0  0  0  0  0  0  0  0  0
  141.3802   70.3091  229.0027 H   0  0  0  0  0  0  0  0  0  0  0  0
  140.6498   72.4170  227.9255 H   0  0  0  0  0  0  0  0  0  0  0  0
  139.9000   72.4489  225.5918 H   0  0  0  0  0  0  0  0  0  0  0  0
  132.1428   70.8514  227.3510 H   0  0  0  0  0  0  0  0  0  0  0  0
  130.9372   72.8950  228.0652 H   0  0  0  0  0  0  0  0  0  0  0  0
  130.7624   75.3201  228.1489 H   0  0  0  0  0  0  0  0  0  0  0  0
  133.8542   77.6598  226.2747 H   0  0  0  0  0  0  0  0  0  0  0  0
  135.0455   75.6112  225.5735 H   0  0  0  0  0  0  0  0  0  0  0  0
  1  2  2  0
  2  3  1  0
  3  4  1  0
  4  5  1  0
  5  6  2  0
  5  7  1  0
  7  8  1  0
  8  9  1  0
  9 10  1  0
 10 11  1  0
 10 12  1  0
 12 13  1  0
 13 14  2  0
 14 15  1  0
 15 16  2  0
 16 17  1  0
 17 18  2  0
  2 19  1  0
 19 20  2  0
 20 21  1  0
 21 22  2  0
 22 23  1  0
 23 24  2  0
 24 25  1  0
 24 26  1  0
 26 27  2  0
 27 28  1  0
 28 29  2  0
 12  7  1  0
 18 13  1  0
 29 19  1  0
 28 22  1  0
  3 30  1  0
  4 31  1  0
  4 32  1  0
  8 33  1  0
  8 34  1  0
  9 35  1  0
  9 36  1  0
 10 37  1  1
 11 38  1  0
 12 39  1  6
 14 40  1  0
 15 41  1  0
 16 42  1  0
 17 43  1  0
 18 44  1  0
 20 45  1  0
 21 46  1  0
 23 47  1  0
 26 48  1  0
 27 49  1  0
M  END
>  <smiles>  (49) 
O=C(NCC(=O)N1CC[C@H](O)[C@H]1c1ccccc1)c1ccc2cc(Cl)ccc2n1

>  <score_type>  (49) 
oracle

>  <origin>  (49) 
autodockgpu

>  <m_score__min__energy>  (49) 
-8.5600000000000005

>  <m_primary>  (49) 
energy

>  <rmsd>  (49) 
7.785321782222601

>  <m_score__min__rmsd>  (49) 
7.785321782222601

>  <meeko>  (49) 
{"free_energy": -8.49, "intermolecular_energy": -10.28, "internal_energy": -1.4, "cluster_size": 9, "cluster_id": 1, "rank_in_cluster": 2}

>  <energy>  (49) 
-6.52

>  <cluster_rmsd>  (49) 
0.13

>  <cluster>  (49) 
10

$$$$

     RDKit          3D

 49 52  0  0  0  0  0  0  0  0999 V2000
  134.1810   69.2600  226.4690 O   0  0  0  0  0  0  0  0  0  0  0  0
  134.5520   70.4020  226.0860 C   0  0  0  0  0  0  0  0  0  0  0  0
  135.7450   70.4690  225.2500 N   0  0  0  0  0  0  0  0  0  0  0  0
  136.3550   69.2310  224.9610 C   0  0  0  0  0  0  0  0  0  0  0  0
  137.7410   69.0890  224.6110 C   0  0  0  0  0  0  0  0  0  0  0  0
  138.3470   68.1530  225.3220 O   0  0  0  0  0  0  0  0  0  0  0  0
  138.5840   69.7160  223.6900 N   0  0  0  0  0  0  0  0  0  0  0  0
  138.5910   69.7770  222.2260 C   0  0  0  0  0  0  0  0  0  0  0  0
  138.8330   71.2990  222.0120 C   0  0  0  0  0  0  0  0  0  0  0  0
  139.3780   71.8040  223.3620 C   0  0  2  0  0  0  0  0  0  0  0  0
  140.4150   72.6790  223.1090 O   0  0  0  0  0  0  0  0  0  0  0  0
  139.8010   70.5140  223.9980 C   0  0  1  0  0  0  0  0  0  0  0  0
  140.2370   70.5440  225.3630 C   0  0  0  0  0  0  0  0  0  0  0  0
  140.5970   69.4590  226.1330 C   0  0  0  0  0  0  0  0  0  0  0  0
  141.0050   69.5650  227.4400 C   0  0  0  0  0  0  0  0  0  0  0  0
  141.0740   70.7860  228.0540 C   0  0  0  0  0  0  0  0  0  0  0  0
  140.7250   71.8930  227.3250 C   0  0  0  0  0  0  0  0  0  0  0  0
  140.3160   71.7860  226.0130 C   0  0  0  0  0  0  0  0  0  0  0  0
  133.8520   71.6260  226.4390 C   0  0  0  0  0  0  0  0  0  0  0  0
  132.6730   71.4970  227.1420 C   0  0  0  0  0  0  0  0  0  0  0  0
  131.9710   72.6300  227.5010 C   0  0  0  0  0  0  0  0  0  0  0  0
  132.4390   73.8970  227.1610 C   0  0  0  0  0  0  0  0  0  0  0  0
  131.7380   75.0270  227.5190 C   0  0  0  0  0  0  0  0  0  0  0  0
  132.2530   76.2620  227.1530 C   0  0  0  0  0  0  0  0  0  0  0  0
  131.3990   77.7500  227.5830 Cl  0  0  0  0  0  0  0  0  0  0  0  0
  133.4430   76.3330  226.4460 C   0  0  0  0  0  0  0  0  0  0  0  0
  134.1440   75.2070  226.0870 C   0  0  0  0  0  0  0  0  0  0  0  0
  133.6350   73.9770  226.4500 C   0  0  0  0  0  0  0  0  0  0  0  0
  134.3160   72.8530  226.1030 N   0  0  0  0  0  0  0  0  0  0  0  0
  135.9850   71.4200  224.9620 H   0  0  0  0  0  0  0  0  0  0  0  0
  136.2060   68.6074  225.8548 H   0  0  0  0  0  0  0  0  0  0  0  0
  135.8674   68.9702  224.0101 H   0  0  0  0  0  0  0  0  0  0  0  0
  139.4033   69.1716  221.7974 H   0  0  0  0  0  0  0  0  0  0  0  0
  137.6838   69.3830  221.7445 H   0  0  0  0  0  0  0  0  0  0  0  0
  139.5678   71.4657  221.2106 H   0  0  0  0  0  0  0  0  0  0  0  0
  137.9164   71.8270  221.7103 H   0  0  0  0  0  0  0  0  0  0  0  0
  138.6875   72.3670  224.0072 H   0  0  0  0  0  0  0  0  0  0  0  0
  141.0420   72.2840  222.4280 H   0  0  0  0  0  0  0  0  0  0  0  0
  140.7476   70.1038  223.6162 H   0  0  0  0  0  0  0  0  0  0  0  0
  140.5554   68.4584  225.6780 H   0  0  0  0  0  0  0  0  0  0  0  0
  141.2793   68.6585  227.9995 H   0  0  0  0  0  0  0  0  0  0  0  0
  141.3997   70.8763  229.1008 H   0  0  0  0  0  0  0  0  0  0  0  0
  140.7722   72.8859  227.7960 H   0  0  0  0  0  0  0  0  0  0  0  0
  140.0443   72.6977  225.4607 H   0  0  0  0  0  0  0  0  0  0  0  0
  132.2953   70.5004  227.4143 H   0  0  0  0  0  0  0  0  0  0  0  0
  131.0303   72.5310  228.0626 H   0  0  0  0  0  0  0  0  0  0  0  0
  130.7949   74.9523  228.0802 H   0  0  0  0  0  0  0  0  0  0  0  0
  133.8380   77.3201  226.1639 H   0  0  0  0  0  0  0  0  0  0  0  0
  135.0864   75.2842  225.5249 H   0  0  0  0  0  0  0  0  0  0  0  0
  1  2  2  0
  2  3  1  0
  3  4  1  0
  4  5  1  0
  5  6  2  0
  5  7  1  0
  7  8  1  0
  8  9  1  0
  9 10  1  0
 10 11  1  0
 10 12  1  0
 12 13  1  0
 13 14  2  0
 14 15  1  0
 15 16  2  0
 16 17  1  0
 17 18  2  0
  2 19  1  0
 19 20  2  0
 20 21  1  0
 21 22  2  0
 22 23  1  0
 23 24  2  0
 24 25  1  0
 24 26  1  0
 26 27  2  0
 27 28  1  0
 28 29  2  0
 12  7  1  0
 18 13  1  0
 29 19  1  0
 28 22  1  0
  3 30  1  0
  4 31  1  0
  4 32  1  0
  8 33  1  0
  8 34  1  0
  9 35  1  0
  9 36  1  0
 10 37  1  1
 11 38  1  0
 12 39  1  6
 14 40  1  0
 15 41  1  0
 16 42  1  0
 17 43  1  0
 18 44  1  0
 20 45  1  0
 21 46  1  0
 23 47  1  0
 26 48  1  0
 27 49  1  0
M  END
>  <smiles>  (50) 
O=C(NCC(=O)N1CC[C@H](O)[C@H]1c1ccccc1)c1ccc2cc(Cl)ccc2n1

>  <score_type>  (50) 
oracle

>  <origin>  (50) 
autodockgpu

>  <m_score__min__energy>  (50) 
-8.5600000000000005

>  <m_primary>  (50) 
energy

>  <rmsd>  (50) 
7.738003888650378

>  <m_score__min__rmsd>  (50) 
7.738003888650378

>  <meeko>  (50) 
{"free_energy": -8.41, "intermolecular_energy": -10.2, "internal_energy": -1.46, "cluster_size": 9, "cluster_id": 1, "rank_in_cluster": 7}

>  <energy>  (50) 
-6.35

>  <cluster_rmsd>  (50) 
0.43

>  <cluster>  (50) 
10

$$$$
