
     RDKit          3D

 50 52  0  0  0  0  0  0  0  0999 V2000
  139.1000   68.8670  224.2100 C   0  0  0  0  0  0  0  0  0  0  0  0
  139.7870   70.2370  224.2670 C   0  0  1  0  0  0  0  0  0  0  0  0
  139.0090   71.1090  223.4360 N   0  0  0  0  0  0  0  0  0  0  0  0
  139.6320   72.2480  222.8510 C   0  0  0  0  0  0  0  0  0  0  0  0
  140.8550   72.4120  223.1120 O   0  0  0  0  0  0  0  0  0  0  0  0
  138.8530   73.1680  221.9870 C   0  0  0  0  0  0  0  0  0  0  0  0
  139.3370   74.5230  222.1820 N   0  0  0  0  0  0  0  0  0  0  0  0
  140.2610   75.0540  221.2650 C   0  0  0  0  0  0  0  0  0  0  0  0
  140.6560   74.3400  220.2850 O   0  0  0  0  0  0  0  0  0  0  0  0
  140.7830   76.4160  221.4140 C   0  0  0  0  0  0  0  0  0  0  0  0
  141.0960   77.1600  220.3010 C   0  0  0  0  0  0  0  0  0  0  0  0
  141.5940   78.4540  220.3710 C   0  0  0  0  0  0  0  0  0  0  0  0
  141.7660   78.9780  221.6320 C   0  0  0  0  0  0  0  0  0  0  0  0
  142.2650   80.2770  221.7260 C   0  0  0  0  0  0  0  0  0  0  0  0
  142.4520   80.8380  222.9870 C   0  0  0  0  0  0  0  0  0  0  0  0
  142.1310   80.0750  224.1080 C   0  0  0  0  0  0  0  0  0  0  0  0
  141.6410   78.7970  224.0020 C   0  0  0  0  0  0  0  0  0  0  0  0
  141.4530   78.2360  222.7620 C   0  0  0  0  0  0  0  0  0  0  0  0
  140.9680   76.9700  222.6300 N   0  0  0  0  0  0  0  0  0  0  0  0
  139.8270   70.6110  225.7160 C   0  0  0  0  0  0  0  0  0  0  0  0
  141.0250   71.4580  226.0790 C   0  0  0  0  0  0  0  0  0  0  0  0
  141.0510   71.6430  227.5770 C   0  0  0  0  0  0  0  0  0  0  0  0
  141.0800   70.3310  228.3240 C   0  0  0  0  0  0  0  0  0  0  0  0
  139.8400   69.5600  227.9850 C   0  0  0  0  0  0  0  0  0  0  0  0
  139.8220   69.3040  226.5040 C   0  0  0  0  0  0  0  0  0  0  0  0
  138.9185   68.5050  225.2328 H   0  0  0  0  0  0  0  0  0  0  0  0
  138.1415   68.9593  223.6782 H   0  0  0  0  0  0  0  0  0  0  0  0
  139.7473   68.1541  223.6782 H   0  0  0  0  0  0  0  0  0  0  0  0
  140.8199   70.2749  223.8906 H   0  0  0  0  0  0  0  0  0  0  0  0
  138.0040   70.8810  223.2850 H   0  0  0  0  0  0  0  0  0  0  0  0
  138.9790   72.8795  220.9330 H   0  0  0  0  0  0  0  0  0  0  0  0
  137.7867   73.1126  222.2514 H   0  0  0  0  0  0  0  0  0  0  0  0
  139.0040   75.1030  222.9940 H   0  0  0  0  0  0  0  0  0  0  0  0
  140.9448   76.7091  219.3091 H   0  0  0  0  0  0  0  0  0  0  0  0
  141.8382   79.0301  219.4663 H   0  0  0  0  0  0  0  0  0  0  0  0
  142.5071   80.8495  220.8184 H   0  0  0  0  0  0  0  0  0  0  0  0
  142.8441   81.8600  223.0956 H   0  0  0  0  0  0  0  0  0  0  0  0
  142.2746   80.5099  225.1081 H   0  0  0  0  0  0  0  0  0  0  0  0
  141.3992   78.2229  224.9086 H   0  0  0  0  0  0  0  0  0  0  0  0
  138.9544   71.2355  225.9579 H   0  0  0  0  0  0  0  0  0  0  0  0
  141.9469   70.9547  225.7521 H   0  0  0  0  0  0  0  0  0  0  0  0
  140.9565   72.4367  225.5816 H   0  0  0  0  0  0  0  0  0  0  0  0
  141.9478   72.2209  227.8450 H   0  0  0  0  0  0  0  0  0  0  0  0
  140.1285   72.1691  227.8636 H   0  0  0  0  0  0  0  0  0  0  0  0
  141.9680   69.7544  228.0258 H   0  0  0  0  0  0  0  0  0  0  0  0
  141.1228   70.5164  229.4074 H   0  0  0  0  0  0  0  0  0  0  0  0
  139.8399   68.6024  228.5263 H   0  0  0  0  0  0  0  0  0  0  0  0
  138.9491   70.1354  228.2769 H   0  0  0  0  0  0  0  0  0  0  0  0
  140.7115   68.7173  226.2308 H   0  0  0  0  0  0  0  0  0  0  0  0
  138.9022   68.7532  226.2577 H   0  0  0  0  0  0  0  0  0  0  0  0
  1  2  1  0
  2  3  1  0
  3  4  1  0
  4  5  2  0
  4  6  1  0
  6  7  1  0
  7  8  1  0
  8  9  2  0
  8 10  1  0
 10 11  2  0
 11 12  1  0
 12 13  2  0
 13 14  1  0
 14 15  2  0
 15 16  1  0
 16 17  2  0
 17 18  1  0
 18 19  2  0
  2 20  1  0
 20 21  1  0
 21 22  1  0
 22 23  1  0
 23 24  1  0
 24 25  1  0
 19 10  1  0
 25 20  1  0
 18 13  1  0
  1 26  1  0
  1 27  1  0
  1 28  1  0
  2 29  1  6
  3 30  1  0
  6 31  1  0
  6 32  1  0
  7 33  1  0
 11 34  1  0
 12 35  1  0
 14 36  1  0
 15 37  1  0
 16 38  1  0
 17 39  1  0
 20 40  1  0
 21 41  1  0
 21 42  1  0
 22 43  1  0
 22 44  1  0
 23 45  1  0
 23 46  1  0
 24 47  1  0
 24 48  1  0
 25 49  1  0
 25 50  1  0
M  END
>  <smiles>  (1) 
C[C@@H](NC(=O)CNC(=O)c1ccc2ccccc2n1)C1CCCCC1

>  <score_type>  (1) 
oracle

>  <origin>  (1) 
autodockgpu

>  <m_score__min__energy>  (1) 
-9.0700000000000003

>  <m_primary>  (1) 
energy

>  <rmsd>  (1) 
10.42945119847633

>  <m_score__min__rmsd>  (1) 
10.42945119847633

>  <meeko>  (1) 
{"free_energy": -8.57, "intermolecular_energy": -10.06, "internal_energy": -1.13, "cluster_size": 24, "cluster_id": 1, "rank_in_cluster": 16}

>  <energy>  (1) 
-9.07

>  <cluster_rmsd>  (1) 
0.0

>  <cluster>  (1) 
1

$$$$

     RDKit          3D

 50 52  0  0  0  0  0  0  0  0999 V2000
  141.8870   77.5500  220.0490 C   0  0  0  0  0  0  0  0  0  0  0  0
  140.4660   77.7480  220.5900 C   0  0  1  0  0  0  0  0  0  0  0  0
  139.8080   76.4800  220.4570 N   0  0  0  0  0  0  0  0  0  0  0  0
  140.3140   75.3580  221.1730 C   0  0  0  0  0  0  0  0  0  0  0  0
  141.3310   75.5640  221.8920 O   0  0  0  0  0  0  0  0  0  0  0  0
  139.6550   74.0350  221.0560 C   0  0  0  0  0  0  0  0  0  0  0  0
  139.7080   73.3640  222.3430 N   0  0  0  0  0  0  0  0  0  0  0  0
  139.9290   71.9760  222.3780 C   0  0  0  0  0  0  0  0  0  0  0  0
  140.0780   71.3350  221.2860 O   0  0  0  0  0  0  0  0  0  0  0  0
  139.9910   71.2480  223.6490 C   0  0  0  0  0  0  0  0  0  0  0  0
  139.5410   69.9500  223.7240 C   0  0  0  0  0  0  0  0  0  0  0  0
  139.5710   69.2060  224.8940 C   0  0  0  0  0  0  0  0  0  0  0  0
  140.0830   69.8310  226.0080 C   0  0  0  0  0  0  0  0  0  0  0  0
  140.1230   69.1010  227.1950 C   0  0  0  0  0  0  0  0  0  0  0  0
  140.6350   69.7040  228.3410 C   0  0  0  0  0  0  0  0  0  0  0  0
  141.0890   71.0180  228.2540 C   0  0  0  0  0  0  0  0  0  0  0  0
  141.0440   71.7270  227.0800 C   0  0  0  0  0  0  0  0  0  0  0  0
  140.5410   71.1400  225.9440 C   0  0  0  0  0  0  0  0  0  0  0  0
  140.4850   71.8220  224.7660 N   0  0  0  0  0  0  0  0  0  0  0  0
  140.6300   78.2330  221.9960 C   0  0  0  0  0  0  0  0  0  0  0  0
  139.4990   79.1250  222.4540 C   0  0  0  0  0  0  0  0  0  0  0  0
  139.8410   79.6790  223.8160 C   0  0  0  0  0  0  0  0  0  0  0  0
  141.1500   80.4310  223.8250 C   0  0  0  0  0  0  0  0  0  0  0  0
  142.2470   79.4880  223.4320 C   0  0  0  0  0  0  0  0  0  0  0  0
  141.9640   78.9710  222.0490 C   0  0  0  0  0  0  0  0  0  0  0  0
  142.5892   77.4522  220.8900 H   0  0  0  0  0  0  0  0  0  0  0  0
  141.9216   76.6384  219.4344 H   0  0  0  0  0  0  0  0  0  0  0  0
  142.1695   78.4175  219.4344 H   0  0  0  0  0  0  0  0  0  0  0  0
  139.8465   78.4866  220.0602 H   0  0  0  0  0  0  0  0  0  0  0  0
  138.9740   76.4190  219.8370 H   0  0  0  0  0  0  0  0  0  0  0  0
  138.6060   74.1711  220.7541 H   0  0  0  0  0  0  0  0  0  0  0  0
  140.1730   73.4278  220.2991 H   0  0  0  0  0  0  0  0  0  0  0  0
  139.5830   73.9030  223.2370 H   0  0  0  0  0  0  0  0  0  0  0  0
  139.1389   69.4807  222.8140 H   0  0  0  0  0  0  0  0  0  0  0  0
  139.2044   68.1695  224.9297 H   0  0  0  0  0  0  0  0  0  0  0  0
  139.7558   68.0646  227.2259 H   0  0  0  0  0  0  0  0  0  0  0  0
  140.6799   69.1552  229.2933 H   0  0  0  0  0  0  0  0  0  0  0  0
  141.4961   71.5021  229.1539 H   0  0  0  0  0  0  0  0  0  0  0  0
  141.4101   72.7638  227.0484 H   0  0  0  0  0  0  0  0  0  0  0  0
  140.6110   77.3753  222.6845 H   0  0  0  0  0  0  0  0  0  0  0  0
  139.3673   79.9517  221.7404 H   0  0  0  0  0  0  0  0  0  0  0  0
  138.5644   78.5475  222.5081 H   0  0  0  0  0  0  0  0  0  0  0  0
  139.0392   80.3638  224.1293 H   0  0  0  0  0  0  0  0  0  0  0  0
  139.9408   78.8283  224.5062 H   0  0  0  0  0  0  0  0  0  0  0  0
  141.1034   81.2643  223.1084 H   0  0  0  0  0  0  0  0  0  0  0  0
  141.3440   80.8349  224.8296 H   0  0  0  0  0  0  0  0  0  0  0  0
  143.2111   80.0177  223.4394 H   0  0  0  0  0  0  0  0  0  0  0  0
  142.2947   78.6503  224.1434 H   0  0  0  0  0  0  0  0  0  0  0  0
  141.9327   79.8188  221.3489 H   0  0  0  0  0  0  0  0  0  0  0  0
  142.7620   78.2667  221.7713 H   0  0  0  0  0  0  0  0  0  0  0  0
  1  2  1  0
  2  3  1  0
  3  4  1  0
  4  5  2  0
  4  6  1  0
  6  7  1  0
  7  8  1  0
  8  9  2  0
  8 10  1  0
 10 11  2  0
 11 12  1  0
 12 13  2  0
 13 14  1  0
 14 15  2  0
 15 16  1  0
 16 17  2  0
 17 18  1  0
 18 19  2  0
  2 20  1  0
 20 21  1  0
 21 22  1  0
 22 23  1  0
 23 24  1  0
 24 25  1  0
 19 10  1  0
 25 20  1  0
 18 13  1  0
  1 26  1  0
  1 27  1  0
  1 28  1  0
  2 29  1  6
  3 30  1  0
  6 31  1  0
  6 32  1  0
  7 33  1  0
 11 34  1  0
 12 35  1  0
 14 36  1  0
 15 37  1  0
 16 38  1  0
 17 39  1  0
 20 40  1  0
 21 41  1  0
 21 42  1  0
 22 43  1  0
 22 44  1  0
 23 45  1  0
 23 46  1  0
 24 47  1  0
 24 48  1  0
 25 49  1  0
 25 50  1  0
M  END
>  <smiles>  (2) 
C[C@@H](NC(=O)CNC(=O)c1ccc2ccccc2n1)C1CCCCC1

>  <score_type>  (2) 
oracle

>  <origin>  (2) 
autodockgpu

>  <m_score__min__energy>  (2) 
-9.0700000000000003

>  <m_primary>  (2) 
energy

>  <rmsd>  (2) 
3.976275594029235

>  <m_score__min__rmsd>  (2) 
3.976275594029235

>  <meeko>  (2) 
{"free_energy": -8.28, "intermolecular_energy": -9.77, "internal_energy": -1.03, "cluster_size": 24, "cluster_id": 2, "rank_in_cluster": 13}

>  <energy>  (2) 
-9.04

>  <cluster_rmsd>  (2) 
0.26

>  <cluster>  (2) 
1

$$$$

     RDKit          3D

 50 52  0  0  0  0  0  0  0  0999 V2000
  139.2390   69.5050  223.8570 C   0  0  0  0  0  0  0  0  0  0  0  0
  139.9230   70.8430  224.1630 C   0  0  1  0  0  0  0  0  0  0  0  0
  139.1830   71.8430  223.4490 N   0  0  0  0  0  0  0  0  0  0  0  0
  139.8660   72.6820  222.5220 C   0  0  0  0  0  0  0  0  0  0  0  0
  141.1040   72.4800  222.3910 O   0  0  0  0  0  0  0  0  0  0  0  0
  139.1270   73.7250  221.7700 C   0  0  0  0  0  0  0  0  0  0  0  0
  139.6930   75.0250  222.0850 N   0  0  0  0  0  0  0  0  0  0  0  0
  138.8250   76.0930  222.3730 C   0  0  0  0  0  0  0  0  0  0  0  0
  137.5640   75.9020  222.3510 O   0  0  0  0  0  0  0  0  0  0  0  0
  139.3410   77.4260  222.6950 C   0  0  0  0  0  0  0  0  0  0  0  0
  138.4710   78.4600  222.9500 C   0  0  0  0  0  0  0  0  0  0  0  0
  138.8930   79.7450  223.2610 C   0  0  0  0  0  0  0  0  0  0  0  0
  140.2540   79.9510  223.3090 C   0  0  0  0  0  0  0  0  0  0  0  0
  140.7000   81.2350  223.6200 C   0  0  0  0  0  0  0  0  0  0  0  0
  142.0700   81.4770  223.6760 C   0  0  0  0  0  0  0  0  0  0  0  0
  142.9420   80.4220  223.4180 C   0  0  0  0  0  0  0  0  0  0  0  0
  142.4910   79.1620  223.1110 C   0  0  0  0  0  0  0  0  0  0  0  0
  141.1410   78.9140  223.0550 C   0  0  0  0  0  0  0  0  0  0  0  0
  140.6670   77.6740  222.7530 N   0  0  0  0  0  0  0  0  0  0  0  0
  139.9000   70.9800  225.6530 C   0  0  0  0  0  0  0  0  0  0  0  0
  141.0780   71.7550  226.1980 C   0  0  0  0  0  0  0  0  0  0  0  0
  141.0390   71.6970  227.7050 C   0  0  0  0  0  0  0  0  0  0  0  0
  141.0420   70.2830  228.2340 C   0  0  0  0  0  0  0  0  0  0  0  0
  139.8210   69.5790  227.7230 C   0  0  0  0  0  0  0  0  0  0  0  0
  139.8680   69.5640  226.2200 C   0  0  0  0  0  0  0  0  0  0  0  0
  138.9813   69.0008  224.8001 H   0  0  0  0  0  0  0  0  0  0  0  0
  138.3228   69.6860  223.2757 H   0  0  0  0  0  0  0  0  0  0  0  0
  139.9223   68.8684  223.2757 H   0  0  0  0  0  0  0  0  0  0  0  0
  140.9716   70.9329  223.8429 H   0  0  0  0  0  0  0  0  0  0  0  0
  138.1620   71.9250  223.6320 H   0  0  0  0  0  0  0  0  0  0  0  0
  139.2175   73.5351  220.6903 H   0  0  0  0  0  0  0  0  0  0  0  0
  138.0640   73.7040  222.0522 H   0  0  0  0  0  0  0  0  0  0  0  0
  140.7340   75.1700  222.0980 H   0  0  0  0  0  0  0  0  0  0  0  0
  137.3904   78.2593  222.9054 H   0  0  0  0  0  0  0  0  0  0  0  0
  138.1777   80.5569  223.4589 H   0  0  0  0  0  0  0  0  0  0  0  0
  139.9811   82.0437  223.8179 H   0  0  0  0  0  0  0  0  0  0  0  0
  142.4549   82.4785  223.9185 H   0  0  0  0  0  0  0  0  0  0  0  0
  144.0260   80.6039  223.4616 H   0  0  0  0  0  0  0  0  0  0  0  0
  143.2089   78.3531  222.9104 H   0  0  0  0  0  0  0  0  0  0  0  0
  139.0152   71.5599  225.9544 H   0  0  0  0  0  0  0  0  0  0  0  0
  142.0152   71.3083  225.8344 H   0  0  0  0  0  0  0  0  0  0  0  0
  141.0268   72.8010  225.8615 H   0  0  0  0  0  0  0  0  0  0  0  0
  141.9208   72.2225  228.1003 H   0  0  0  0  0  0  0  0  0  0  0  0
  140.1021   72.1719  228.0316 H   0  0  0  0  0  0  0  0  0  0  0  0
  141.9446   69.7591  227.8864 H   0  0  0  0  0  0  0  0  0  0  0  0
  141.0375   70.2931  229.3339 H   0  0  0  0  0  0  0  0  0  0  0  0
  139.8022   68.5470  228.1033 H   0  0  0  0  0  0  0  0  0  0  0  0
  138.9157   70.1019  228.0649 H   0  0  0  0  0  0  0  0  0  0  0  0
  140.7714   69.0272  225.8950 H   0  0  0  0  0  0  0  0  0  0  0  0
  138.9626   69.0615  225.8490 H   0  0  0  0  0  0  0  0  0  0  0  0
  1  2  1  0
  2  3  1  0
  3  4  1  0
  4  5  2  0
  4  6  1  0
  6  7  1  0
  7  8  1  0
  8  9  2  0
  8 10  1  0
 10 11  2  0
 11 12  1  0
 12 13  2  0
 13 14  1  0
 14 15  2  0
 15 16  1  0
 16 17  2  0
 17 18  1  0
 18 19  2  0
  2 20  1  0
 20 21  1  0
 21 22  1  0
 22 23  1  0
 23 24  1  0
 24 25  1  0
 19 10  1  0
 25 20  1  0
 18 13  1  0
  1 26  1  0
  1 27  1  0
  1 28  1  0
  2 29  1  6
  3 30  1  0
  6 31  1  0
  6 32  1  0
  7 33  1  0
 11 34  1  0
 12 35  1  0
 14 36  1  0
 15 37  1  0
 16 38  1  0
 17 39  1  0
 20 40  1  0
 21 41  1  0
 21 42  1  0
 22 43  1  0
 22 44  1  0
 23 45  1  0
 23 46  1  0
 24 47  1  0
 24 48  1  0
 25 49  1  0
 25 50  1  0
M  END
>  <smiles>  (3) 
C[C@@H](NC(=O)CNC(=O)c1ccc2ccccc2n1)C1CCCCC1

>  <score_type>  (3) 
oracle

>  <origin>  (3) 
autodockgpu

>  <m_score__min__energy>  (3) 
-9.0700000000000003

>  <m_primary>  (3) 
energy

>  <rmsd>  (3) 
10.282602928903268

>  <m_score__min__rmsd>  (3) 
10.282602928903268

>  <meeko>  (3) 
{"free_energy": -8.49, "intermolecular_energy": -9.98, "internal_energy": -1.26, "cluster_size": 24, "cluster_id": 1, "rank_in_cluster": 17}

>  <energy>  (3) 
-9.02

>  <cluster_rmsd>  (3) 
0.23

>  <cluster>  (3) 
1

$$$$

     RDKit          3D

 50 52  0  0  0  0  0  0  0  0999 V2000
  139.3250   69.4490  223.6730 C   0  0  0  0  0  0  0  0  0  0  0  0
  139.9400   70.7970  224.0710 C   0  0  1  0  0  0  0  0  0  0  0  0
  139.1510   71.8030  223.4210 N   0  0  0  0  0  0  0  0  0  0  0  0
  139.7850   72.7080  222.5210 C   0  0  0  0  0  0  0  0  0  0  0  0
  141.0270   72.5550  222.3570 O   0  0  0  0  0  0  0  0  0  0  0  0
  138.9960   73.7580  221.8340 C   0  0  0  0  0  0  0  0  0  0  0  0
  139.2840   75.0430  222.4480 N   0  0  0  0  0  0  0  0  0  0  0  0
  139.8020   76.0770  221.6490 C   0  0  0  0  0  0  0  0  0  0  0  0
  140.0100   75.8690  220.4080 O   0  0  0  0  0  0  0  0  0  0  0  0
  140.1120   77.3930  222.2150 C   0  0  0  0  0  0  0  0  0  0  0  0
  139.0950   78.2430  222.5830 C   0  0  0  0  0  0  0  0  0  0  0  0
  139.3190   79.5010  223.1240 C   0  0  0  0  0  0  0  0  0  0  0  0
  140.6340   79.8760  223.2850 C   0  0  0  0  0  0  0  0  0  0  0  0
  140.8820   81.1360  223.8290 C   0  0  0  0  0  0  0  0  0  0  0  0
  142.2010   81.5460  224.0050 C   0  0  0  0  0  0  0  0  0  0  0  0
  143.2230   80.6770  223.6300 C   0  0  0  0  0  0  0  0  0  0  0  0
  142.9660   79.4390  223.0960 C   0  0  0  0  0  0  0  0  0  0  0  0
  141.6680   79.0260  222.9190 C   0  0  0  0  0  0  0  0  0  0  0  0
  141.3860   77.8020  222.3910 N   0  0  0  0  0  0  0  0  0  0  0  0
  139.9050   70.8340  225.5670 C   0  0  0  0  0  0  0  0  0  0  0  0
  141.0660   71.5900  226.1710 C   0  0  0  0  0  0  0  0  0  0  0  0
  141.0190   71.4310  227.6710 C   0  0  0  0  0  0  0  0  0  0  0  0
  141.0430   69.9850  228.1040 C   0  0  0  0  0  0  0  0  0  0  0  0
  139.8370   69.2960  227.5380 C   0  0  0  0  0  0  0  0  0  0  0  0
  139.8940   69.3820  226.0380 C   0  0  0  0  0  0  0  0  0  0  0  0
  139.0663   68.8821  224.5795 H   0  0  0  0  0  0  0  0  0  0  0  0
  138.4167   69.6220  223.0771 H   0  0  0  0  0  0  0  0  0  0  0  0
  140.0510   68.8764  223.0771 H   0  0  0  0  0  0  0  0  0  0  0  0
  140.9835   70.9603  223.7638 H   0  0  0  0  0  0  0  0  0  0  0  0
  138.1320   71.8410  223.6270 H   0  0  0  0  0  0  0  0  0  0  0  0
  139.2703   73.7882  220.7692 H   0  0  0  0  0  0  0  0  0  0  0  0
  137.9226   73.5351  221.9238 H   0  0  0  0  0  0  0  0  0  0  0  0
  139.1090   75.2020  223.4720 H   0  0  0  0  0  0  0  0  0  0  0  0
  138.0561   77.9101  222.4419 H   0  0  0  0  0  0  0  0  0  0  0  0
  138.4891   80.1642  223.4094 H   0  0  0  0  0  0  0  0  0  0  0  0
  140.0490   81.7953  224.1144 H   0  0  0  0  0  0  0  0  0  0  0  0
  142.4308   82.5340  224.4306 H   0  0  0  0  0  0  0  0  0  0  0  0
  144.2680   80.9926  223.7660 H   0  0  0  0  0  0  0  0  0  0  0  0
  143.7981   78.7787  222.8102 H   0  0  0  0  0  0  0  0  0  0  0  0
  139.0086   71.3777  225.8999 H   0  0  0  0  0  0  0  0  0  0  0  0
  142.0128   71.1842  225.7852 H   0  0  0  0  0  0  0  0  0  0  0  0
  140.9988   72.6552  225.9047 H   0  0  0  0  0  0  0  0  0  0  0  0
  141.8893   71.9435  228.1068 H   0  0  0  0  0  0  0  0  0  0  0  0
  140.0724   71.8676  228.0222 H   0  0  0  0  0  0  0  0  0  0  0  0
  141.9566   69.5009  227.7287 H   0  0  0  0  0  0  0  0  0  0  0  0
  141.0314   69.9213  229.2021 H   0  0  0  0  0  0  0  0  0  0  0  0
  139.8335   68.2408  227.8486 H   0  0  0  0  0  0  0  0  0  0  0  0
  138.9206   69.7797  227.9071 H   0  0  0  0  0  0  0  0  0  0  0  0
  140.8087   68.8835  225.6848 H   0  0  0  0  0  0  0  0  0  0  0  0
  139.0000   68.8899  225.6272 H   0  0  0  0  0  0  0  0  0  0  0  0
  1  2  1  0
  2  3  1  0
  3  4  1  0
  4  5  2  0
  4  6  1  0
  6  7  1  0
  7  8  1  0
  8  9  2  0
  8 10  1  0
 10 11  2  0
 11 12  1  0
 12 13  2  0
 13 14  1  0
 14 15  2  0
 15 16  1  0
 16 17  2  0
 17 18  1  0
 18 19  2  0
  2 20  1  0
 20 21  1  0
 21 22  1  0
 22 23  1  0
 23 24  1  0
 24 25  1  0
 19 10  1  0
 25 20  1  0
 18 13  1  0
  1 26  1  0
  1 27  1  0
  1 28  1  0
  2 29  1  1
  3 30  1  0
  6 31  1  0
  6 32  1  0
  7 33  1  0
 11 34  1  0
 12 35  1  0
 14 36  1  0
 15 37  1  0
 16 38  1  0
 17 39  1  0
 20 40  1  0
 21 41  1  0
 21 42  1  0
 22 43  1  0
 22 44  1  0
 23 45  1  0
 23 46  1  0
 24 47  1  0
 24 48  1  0
 25 49  1  0
 25 50  1  0
M  END
>  <smiles>  (4) 
C[C@@H](NC(=O)CNC(=O)c1ccc2ccccc2n1)C1CCCCC1

>  <score_type>  (4) 
oracle

>  <origin>  (4) 
autodockgpu

>  <m_score__min__energy>  (4) 
-9.0700000000000003

>  <m_primary>  (4) 
energy

>  <rmsd>  (4) 
10.344680702913767

>  <m_score__min__rmsd>  (4) 
10.344680702913767

>  <meeko>  (4) 
{"free_energy": -8.84, "intermolecular_energy": -10.33, "internal_energy": -0.89, "cluster_size": 24, "cluster_id": 1, "rank_in_cluster": 8}

>  <energy>  (4) 
-9.0

>  <cluster_rmsd>  (4) 
0.42

>  <cluster>  (4) 
1

$$$$

     RDKit          3D

 50 52  0  0  0  0  0  0  0  0999 V2000
  139.8500   78.9810  220.0250 C   0  0  0  0  0  0  0  0  0  0  0  0
  139.6570   78.0990  221.2650 C   0  0  1  0  0  0  0  0  0  0  0  0
  140.0910   76.7850  220.8920 N   0  0  0  0  0  0  0  0  0  0  0  0
  139.6950   75.6710  221.6870 C   0  0  0  0  0  0  0  0  0  0  0  0
  138.9700   75.9280  222.6880 O   0  0  0  0  0  0  0  0  0  0  0  0
  140.1290   74.3000  221.3260 C   0  0  0  0  0  0  0  0  0  0  0  0
  139.8210   73.4020  222.4260 N   0  0  0  0  0  0  0  0  0  0  0  0
  140.5850   72.2320  222.5820 C   0  0  0  0  0  0  0  0  0  0  0  0
  141.5280   71.9820  221.7610 O   0  0  0  0  0  0  0  0  0  0  0  0
  140.3180   71.2900  223.6730 C   0  0  0  0  0  0  0  0  0  0  0  0
  139.5830   70.1510  223.4370 C   0  0  0  0  0  0  0  0  0  0  0  0
  139.2940   69.2190  224.4250 C   0  0  0  0  0  0  0  0  0  0  0  0
  139.7860   69.4840  225.6820 C   0  0  0  0  0  0  0  0  0  0  0  0
  139.5090   68.5600  226.6890 C   0  0  0  0  0  0  0  0  0  0  0  0
  139.9910   68.7970  227.9740 C   0  0  0  0  0  0  0  0  0  0  0  0
  140.7350   69.9530  228.2010 C   0  0  0  0  0  0  0  0  0  0  0  0
  141.0020   70.8550  227.2020 C   0  0  0  0  0  0  0  0  0  0  0  0
  140.5300   70.6290  225.9310 C   0  0  0  0  0  0  0  0  0  0  0  0
  140.7800   71.5090  224.9220 N   0  0  0  0  0  0  0  0  0  0  0  0
  140.4570   78.7470  222.3520 C   0  0  0  0  0  0  0  0  0  0  0  0
  139.8760   80.0640  222.8140 C   0  0  0  0  0  0  0  0  0  0  0  0
  140.8360   80.7000  223.7890 C   0  0  0  0  0  0  0  0  0  0  0  0
  142.2120   80.9020  223.2020 C   0  0  0  0  0  0  0  0  0  0  0  0
  142.7720   79.5630  222.8240 C   0  0  0  0  0  0  0  0  0  0  0  0
  141.8670   78.9340  221.8020 C   0  0  0  0  0  0  0  0  0  0  0  0
  140.0754   80.0109  220.3390 H   0  0  0  0  0  0  0  0  0  0  0  0
  140.6839   78.5903  219.4233 H   0  0  0  0  0  0  0  0  0  0  0  0
  138.9291   78.9743  219.4233 H   0  0  0  0  0  0  0  0  0  0  0  0
  138.6247   78.0014  221.6323 H   0  0  0  0  0  0  0  0  0  0  0  0
  140.6880   76.6830  220.0450 H   0  0  0  0  0  0  0  0  0  0  0  0
  139.5971   73.9709  220.4211 H   0  0  0  0  0  0  0  0  0  0  0  0
  141.2116   74.2918  221.1311 H   0  0  0  0  0  0  0  0  0  0  0  0
  139.0410   73.6180  223.0960 H   0  0  0  0  0  0  0  0  0  0  0  0
  139.2071   69.9705  222.4191 H   0  0  0  0  0  0  0  0  0  0  0  0
  138.7026   68.3160  224.2135 H   0  0  0  0  0  0  0  0  0  0  0  0
  138.9187   67.6576  226.4717 H   0  0  0  0  0  0  0  0  0  0  0  0
  139.7890   68.0882  228.7906 H   0  0  0  0  0  0  0  0  0  0  0  0
  141.1203   70.1486  229.2126 H   0  0  0  0  0  0  0  0  0  0  0  0
  141.5928   71.7574  227.4179 H   0  0  0  0  0  0  0  0  0  0  0  0
  140.4502   78.1054  223.2455 H   0  0  0  0  0  0  0  0  0  0  0  0
  139.7317   80.7287  221.9495 H   0  0  0  0  0  0  0  0  0  0  0  0
  138.9041   79.8951  223.3007 H   0  0  0  0  0  0  0  0  0  0  0  0
  140.4347   81.6787  224.0907 H   0  0  0  0  0  0  0  0  0  0  0  0
  140.9371   80.0203  224.6479 H   0  0  0  0  0  0  0  0  0  0  0  0
  142.1439   81.5407  222.3090 H   0  0  0  0  0  0  0  0  0  0  0  0
  142.8673   81.3890  223.9391 H   0  0  0  0  0  0  0  0  0  0  0  0
  143.7788   79.6892  222.3993 H   0  0  0  0  0  0  0  0  0  0  0  0
  142.8378   78.9193  223.7136 H   0  0  0  0  0  0  0  0  0  0  0  0
  141.8226   79.5828  220.9148 H   0  0  0  0  0  0  0  0  0  0  0  0
  142.2721   77.9453  221.5407 H   0  0  0  0  0  0  0  0  0  0  0  0
  1  2  1  0
  2  3  1  0
  3  4  1  0
  4  5  2  0
  4  6  1  0
  6  7  1  0
  7  8  1  0
  8  9  2  0
  8 10  1  0
 10 11  2  0
 11 12  1  0
 12 13  2  0
 13 14  1  0
 14 15  2  0
 15 16  1  0
 16 17  2  0
 17 18  1  0
 18 19  2  0
  2 20  1  0
 20 21  1  0
 21 22  1  0
 22 23  1  0
 23 24  1  0
 24 25  1  0
 19 10  1  0
 25 20  1  0
 18 13  1  0
  1 26  1  0
  1 27  1  0
  1 28  1  0
  2 29  1  1
  3 30  1  0
  6 31  1  0
  6 32  1  0
  7 33  1  0
 11 34  1  0
 12 35  1  0
 14 36  1  0
 15 37  1  0
 16 38  1  0
 17 39  1  0
 20 40  1  0
 21 41  1  0
 21 42  1  0
 22 43  1  0
 22 44  1  0
 23 45  1  0
 23 46  1  0
 24 47  1  0
 24 48  1  0
 25 49  1  0
 25 50  1  0
M  END
>  <smiles>  (5) 
C[C@@H](NC(=O)CNC(=O)c1ccc2ccccc2n1)C1CCCCC1

>  <score_type>  (5) 
oracle

>  <origin>  (5) 
autodockgpu

>  <m_score__min__energy>  (5) 
-9.0700000000000003

>  <m_primary>  (5) 
energy

>  <rmsd>  (5) 
3.849443156553612

>  <m_score__min__rmsd>  (5) 
3.849443156553612

>  <meeko>  (5) 
{"free_energy": -8.11, "intermolecular_energy": -9.6, "internal_energy": -1.36, "cluster_size": 24, "cluster_id": 2, "rank_in_cluster": 19}

>  <energy>  (5) 
-8.92

>  <cluster_rmsd>  (5) 
0.38

>  <cluster>  (5) 
1

$$$$

     RDKit          3D

 50 52  0  0  0  0  0  0  0  0999 V2000
  141.9050   76.7550  220.1820 C   0  0  0  0  0  0  0  0  0  0  0  0
  140.4690   77.1520  220.5470 C   0  0  1  0  0  0  0  0  0  0  0  0
  139.6990   75.9430  220.5110 N   0  0  0  0  0  0  0  0  0  0  0  0
  139.9550   74.9280  221.4770 C   0  0  0  0  0  0  0  0  0  0  0  0
  140.8640   75.1710  222.3170 O   0  0  0  0  0  0  0  0  0  0  0  0
  139.1750   73.6670  221.4640 C   0  0  0  0  0  0  0  0  0  0  0  0
  139.4750   72.9130  222.6680 N   0  0  0  0  0  0  0  0  0  0  0  0
  139.1210   71.5530  222.7250 C   0  0  0  0  0  0  0  0  0  0  0  0
  138.5450   71.0100  221.7250 O   0  0  0  0  0  0  0  0  0  0  0  0
  139.3990   70.7440  223.9160 C   0  0  0  0  0  0  0  0  0  0  0  0
  139.0580   69.4120  223.9400 C   0  0  0  0  0  0  0  0  0  0  0  0
  139.2930   68.5910  225.0340 C   0  0  0  0  0  0  0  0  0  0  0  0
  139.8980   69.1760  226.1230 C   0  0  0  0  0  0  0  0  0  0  0  0
  140.1440   68.3690  227.2340 C   0  0  0  0  0  0  0  0  0  0  0  0
  140.7550   68.9300  228.3530 C   0  0  0  0  0  0  0  0  0  0  0  0
  141.0970   70.2800  228.3160 C   0  0  0  0  0  0  0  0  0  0  0  0
  140.8490   71.0650  227.2180 C   0  0  0  0  0  0  0  0  0  0  0  0
  140.2470   70.5200  226.1090 C   0  0  0  0  0  0  0  0  0  0  0  0
  139.9900   71.2760  225.0060 N   0  0  0  0  0  0  0  0  0  0  0  0
  140.5580   77.8070  221.8900 C   0  0  0  0  0  0  0  0  0  0  0  0
  139.3470   78.6490  222.2230 C   0  0  0  0  0  0  0  0  0  0  0  0
  139.6090   79.3810  223.5160 C   0  0  0  0  0  0  0  0  0  0  0  0
  140.8520   80.2370  223.4580 C   0  0  0  0  0  0  0  0  0  0  0  0
  142.0310   79.3490  223.1960 C   0  0  0  0  0  0  0  0  0  0  0  0
  141.8270   78.6550  221.8780 C   0  0  0  0  0  0  0  0  0  0  0  0
  142.4861   76.5943  221.1021 H   0  0  0  0  0  0  0  0  0  0  0  0
  141.8900   75.8273  219.5911 H   0  0  0  0  0  0  0  0  0  0  0  0
  142.3687   77.5586  219.5911 H   0  0  0  0  0  0  0  0  0  0  0  0
  139.9776   77.8639  219.8675 H   0  0  0  0  0  0  0  0  0  0  0  0
  138.9700   75.8440  219.7740 H   0  0  0  0  0  0  0  0  0  0  0  0
  138.1001   73.8986  221.4321 H   0  0  0  0  0  0  0  0  0  0  0  0
  139.4429   73.0735  220.5775 H   0  0  0  0  0  0  0  0  0  0  0  0
  139.9490   73.3710  223.4870 H   0  0  0  0  0  0  0  0  0  0  0  0
  138.5769   68.9773  223.0514 H   0  0  0  0  0  0  0  0  0  0  0  0
  139.0104   67.5279  225.0309 H   0  0  0  0  0  0  0  0  0  0  0  0
  139.8599   67.3063  227.2265 H   0  0  0  0  0  0  0  0  0  0  0  0
  140.9627   68.3212  229.2453 H   0  0  0  0  0  0  0  0  0  0  0  0
  141.5812   70.7310  229.1947 H   0  0  0  0  0  0  0  0  0  0  0  0
  141.1314   72.1281  227.2254 H   0  0  0  0  0  0  0  0  0  0  0  0
  140.5911   77.0353  222.6731 H   0  0  0  0  0  0  0  0  0  0  0  0
  139.1674   79.3749  221.4163 H   0  0  0  0  0  0  0  0  0  0  0  0
  138.4606   78.0063  222.3286 H   0  0  0  0  0  0  0  0  0  0  0  0
  138.7464   80.0271  223.7359 H   0  0  0  0  0  0  0  0  0  0  0  0
  139.7613   78.6258  224.3011 H   0  0  0  0  0  0  0  0  0  0  0  0
  140.7565   80.9751  222.6480 H   0  0  0  0  0  0  0  0  0  0  0  0
  140.9867   80.7699  224.4108 H   0  0  0  0  0  0  0  0  0  0  0  0
  142.9490   79.9539  223.1579 H   0  0  0  0  0  0  0  0  0  0  0  0
  142.1268   78.6053  224.0008 H   0  0  0  0  0  0  0  0  0  0  0  0
  141.7454   79.4112  221.0834 H   0  0  0  0  0  0  0  0  0  0  0  0
  142.6863   77.9925  221.6971 H   0  0  0  0  0  0  0  0  0  0  0  0
  1  2  1  0
  2  3  1  0
  3  4  1  0
  4  5  2  0
  4  6  1  0
  6  7  1  0
  7  8  1  0
  8  9  2  0
  8 10  1  0
 10 11  2  0
 11 12  1  0
 12 13  2  0
 13 14  1  0
 14 15  2  0
 15 16  1  0
 16 17  2  0
 17 18  1  0
 18 19  2  0
  2 20  1  0
 20 21  1  0
 21 22  1  0
 22 23  1  0
 23 24  1  0
 24 25  1  0
 19 10  1  0
 25 20  1  0
 18 13  1  0
  1 26  1  0
  1 27  1  0
  1 28  1  0
  2 29  1  6
  3 30  1  0
  6 31  1  0
  6 32  1  0
  7 33  1  0
 11 34  1  0
 12 35  1  0
 14 36  1  0
 15 37  1  0
 16 38  1  0
 17 39  1  0
 20 40  1  0
 21 41  1  0
 21 42  1  0
 22 43  1  0
 22 44  1  0
 23 45  1  0
 23 46  1  0
 24 47  1  0
 24 48  1  0
 25 49  1  0
 25 50  1  0
M  END
>  <smiles>  (6) 
C[C@@H](NC(=O)CNC(=O)c1ccc2ccccc2n1)C1CCCCC1

>  <score_type>  (6) 
oracle

>  <origin>  (6) 
autodockgpu

>  <m_score__min__energy>  (6) 
-9.0700000000000003

>  <m_primary>  (6) 
energy

>  <rmsd>  (6) 
4.172067406919732

>  <m_score__min__rmsd>  (6) 
4.172067406919732

>  <meeko>  (6) 
{"free_energy": -8.02, "intermolecular_energy": -9.51, "internal_energy": -1.44, "cluster_size": 24, "cluster_id": 2, "rank_in_cluster": 22}

>  <energy>  (6) 
-8.92

>  <cluster_rmsd>  (6) 
0.48

>  <cluster>  (6) 
1

$$$$

     RDKit          3D

 50 52  0  0  0  0  0  0  0  0999 V2000
  141.1280   78.7260  219.4700 C   0  0  0  0  0  0  0  0  0  0  0  0
  140.6530   78.0050  220.7380 C   0  0  1  0  0  0  0  0  0  0  0  0
  140.7740   76.6020  220.4700 N   0  0  0  0  0  0  0  0  0  0  0  0
  140.0970   75.6730  221.3110 C   0  0  0  0  0  0  0  0  0  0  0  0
  139.4210   76.1640  222.2570 O   0  0  0  0  0  0  0  0  0  0  0  0
  140.2040   74.2160  221.0580 C   0  0  0  0  0  0  0  0  0  0  0  0
  139.9880   73.5020  222.3050 N   0  0  0  0  0  0  0  0  0  0  0  0
  140.4590   72.1830  222.4230 C   0  0  0  0  0  0  0  0  0  0  0  0
  141.0610   71.6390  221.4390 O   0  0  0  0  0  0  0  0  0  0  0  0
  140.2680   71.4150  223.6570 C   0  0  0  0  0  0  0  0  0  0  0  0
  139.6180   70.2040  223.6240 C   0  0  0  0  0  0  0  0  0  0  0  0
  139.4060   69.4280  224.7550 C   0  0  0  0  0  0  0  0  0  0  0  0
  139.8840   69.9300  225.9440 C   0  0  0  0  0  0  0  0  0  0  0  0
  139.6820   69.1660  227.0930 C   0  0  0  0  0  0  0  0  0  0  0  0
  140.1530   69.6450  228.3120 C   0  0  0  0  0  0  0  0  0  0  0  0
  140.8100   70.8730  228.3340 C   0  0  0  0  0  0  0  0  0  0  0  0
  141.0030   71.6160  227.1970 C   0  0  0  0  0  0  0  0  0  0  0  0
  140.5420   71.1510  225.9890 C   0  0  0  0  0  0  0  0  0  0  0  0
  140.7200   71.8690  224.8450 N   0  0  0  0  0  0  0  0  0  0  0  0
  141.5210   78.5160  221.8450 C   0  0  0  0  0  0  0  0  0  0  0  0
  140.8280   78.5260  223.1890 C   0  0  0  0  0  0  0  0  0  0  0  0
  141.7310   79.2000  224.1930 C   0  0  0  0  0  0  0  0  0  0  0  0
  142.1150   80.6010  223.7820 C   0  0  0  0  0  0  0  0  0  0  0  0
  142.8580   80.5310  222.4810 C   0  0  0  0  0  0  0  0  0  0  0  0
  141.9560   79.9220  221.4440 C   0  0  0  0  0  0  0  0  0  0  0  0
  141.7131   79.6142  219.7506 H   0  0  0  0  0  0  0  0  0  0  0  0
  141.7557   78.0463  218.8751 H   0  0  0  0  0  0  0  0  0  0  0  0
  140.2557   79.0345  218.8751 H   0  0  0  0  0  0  0  0  0  0  0  0
  139.6083   78.1845  221.0318 H   0  0  0  0  0  0  0  0  0  0  0  0
  141.3580   76.3020  219.6610 H   0  0  0  0  0  0  0  0  0  0  0  0
  139.4440   73.9126  220.3229 H   0  0  0  0  0  0  0  0  0  0  0  0
  141.2031   73.9799  220.6629 H   0  0  0  0  0  0  0  0  0  0  0  0
  139.4900   73.9610  223.1090 H   0  0  0  0  0  0  0  0  0  0  0  0
  139.2489   69.8330  222.6565 H   0  0  0  0  0  0  0  0  0  0  0  0
  138.8830   68.4617  224.7037 H   0  0  0  0  0  0  0  0  0  0  0  0
  139.1587   68.2001  227.0368 H   0  0  0  0  0  0  0  0  0  0  0  0
  140.0097   69.0670  229.2369 H   0  0  0  0  0  0  0  0  0  0  0  0
  141.1858   71.2591  229.2930 H   0  0  0  0  0  0  0  0  0  0  0  0
  141.5259   72.5822  227.2523 H   0  0  0  0  0  0  0  0  0  0  0  0
  142.3825   77.8446  221.9751 H   0  0  0  0  0  0  0  0  0  0  0  0
  139.8805   79.0795  223.1130 H   0  0  0  0  0  0  0  0  0  0  0  0
  140.6147   77.4954  223.5088 H   0  0  0  0  0  0  0  0  0  0  0  0
  141.2088   79.2475  225.1600 H   0  0  0  0  0  0  0  0  0  0  0  0
  142.6555   78.6076  224.2590 H   0  0  0  0  0  0  0  0  0  0  0  0
  141.2090   81.2126  223.6590 H   0  0  0  0  0  0  0  0  0  0  0  0
  142.7512   81.0582  224.5541 H   0  0  0  0  0  0  0  0  0  0  0  0
  143.1519   81.5436  222.1675 H   0  0  0  0  0  0  0  0  0  0  0  0
  143.7630   79.9168  222.5984 H   0  0  0  0  0  0  0  0  0  0  0  0
  141.0632   80.5544  221.3296 H   0  0  0  0  0  0  0  0  0  0  0  0
  142.5106   79.8569  220.4963 H   0  0  0  0  0  0  0  0  0  0  0  0
  1  2  1  0
  2  3  1  0
  3  4  1  0
  4  5  2  0
  4  6  1  0
  6  7  1  0
  7  8  1  0
  8  9  2  0
  8 10  1  0
 10 11  2  0
 11 12  1  0
 12 13  2  0
 13 14  1  0
 14 15  2  0
 15 16  1  0
 16 17  2  0
 17 18  1  0
 18 19  2  0
  2 20  1  0
 20 21  1  0
 21 22  1  0
 22 23  1  0
 23 24  1  0
 24 25  1  0
 19 10  1  0
 25 20  1  0
 18 13  1  0
  1 26  1  0
  1 27  1  0
  1 28  1  0
  2 29  1  1
  3 30  1  0
  6 31  1  0
  6 32  1  0
  7 33  1  0
 11 34  1  0
 12 35  1  0
 14 36  1  0
 15 37  1  0
 16 38  1  0
 17 39  1  0
 20 40  1  0
 21 41  1  0
 21 42  1  0
 22 43  1  0
 22 44  1  0
 23 45  1  0
 23 46  1  0
 24 47  1  0
 24 48  1  0
 25 49  1  0
 25 50  1  0
M  END
>  <smiles>  (7) 
C[C@@H](NC(=O)CNC(=O)c1ccc2ccccc2n1)C1CCCCC1

>  <score_type>  (7) 
oracle

>  <origin>  (7) 
autodockgpu

>  <m_score__min__energy>  (7) 
-9.0700000000000003

>  <m_primary>  (7) 
energy

>  <rmsd>  (7) 
3.933345649138368

>  <m_score__min__rmsd>  (7) 
3.933345649138368

>  <meeko>  (7) 
{"free_energy": -8.48, "intermolecular_energy": -9.97, "internal_energy": -1.35, "cluster_size": 24, "cluster_id": 2, "rank_in_cluster": 6}

>  <energy>  (7) 
-8.84

>  <cluster_rmsd>  (7) 
0.76

>  <cluster>  (7) 
1

$$$$

     RDKit          3D

 50 52  0  0  0  0  0  0  0  0999 V2000
  139.2640   68.7980  224.5600 C   0  0  0  0  0  0  0  0  0  0  0  0
  140.1100   70.0670  224.4040 C   0  0  1  0  0  0  0  0  0  0  0  0
  139.2310   71.0710  223.8770 N   0  0  0  0  0  0  0  0  0  0  0  0
  139.6250   71.8000  222.7190 C   0  0  0  0  0  0  0  0  0  0  0  0
  140.7480   71.5030  222.2260 O   0  0  0  0  0  0  0  0  0  0  0  0
  138.7380   72.8440  222.1520 C   0  0  0  0  0  0  0  0  0  0  0  0
  139.3590   74.1440  222.3360 N   0  0  0  0  0  0  0  0  0  0  0  0
  139.7730   74.8660  221.2030 C   0  0  0  0  0  0  0  0  0  0  0  0
  139.5970   74.3690  220.0410 O   0  0  0  0  0  0  0  0  0  0  0  0
  140.4060   76.1820  221.3300 C   0  0  0  0  0  0  0  0  0  0  0  0
  140.7650   76.8860  220.2040 C   0  0  0  0  0  0  0  0  0  0  0  0
  141.3680   78.1360  220.2540 C   0  0  0  0  0  0  0  0  0  0  0  0
  141.5970   78.6580  221.5070 C   0  0  0  0  0  0  0  0  0  0  0  0
  142.2010   79.9130  221.5800 C   0  0  0  0  0  0  0  0  0  0  0  0
  142.4470   80.4710  222.8320 C   0  0  0  0  0  0  0  0  0  0  0  0
  142.0780   79.7490  223.9650 C   0  0  0  0  0  0  0  0  0  0  0  0
  141.4850   78.5140  223.8800 C   0  0  0  0  0  0  0  0  0  0  0  0
  141.2370   77.9570  222.6490 C   0  0  0  0  0  0  0  0  0  0  0  0
  140.6500   76.7330  222.5370 N   0  0  0  0  0  0  0  0  0  0  0  0
  140.6610   70.3580  225.7650 C   0  0  0  0  0  0  0  0  0  0  0  0
  139.8270   69.7740  226.8820 C   0  0  0  0  0  0  0  0  0  0  0  0
  140.3790   70.2560  228.2000 C   0  0  0  0  0  0  0  0  0  0  0  0
  140.4210   71.7620  228.2980 C   0  0  0  0  0  0  0  0  0  0  0  0
  141.3140   72.2870  227.2150 C   0  0  0  0  0  0  0  0  0  0  0  0
  140.7490   71.8760  225.8840 C   0  0  0  0  0  0  0  0  0  0  0  0
  139.1202   68.5823  225.6290 H   0  0  0  0  0  0  0  0  0  0  0  0
  138.2851   68.9488  224.0815 H   0  0  0  0  0  0  0  0  0  0  0  0
  139.7797   67.9524  224.0815 H   0  0  0  0  0  0  0  0  0  0  0  0
  140.9637   69.9958  223.7140 H   0  0  0  0  0  0  0  0  0  0  0  0
  138.3240   71.2370  224.3610 H   0  0  0  0  0  0  0  0  0  0  0  0
  138.5868   72.6562  221.0787 H   0  0  0  0  0  0  0  0  0  0  0  0
  137.7643   72.8218  222.6634 H   0  0  0  0  0  0  0  0  0  0  0  0
  139.4990   74.5430  223.2980 H   0  0  0  0  0  0  0  0  0  0  0  0
  140.5654   76.4385  219.2192 H   0  0  0  0  0  0  0  0  0  0  0  0
  141.6480   78.6805  219.3401 H   0  0  0  0  0  0  0  0  0  0  0  0
  142.4787   80.4535  220.6631 H   0  0  0  0  0  0  0  0  0  0  0  0
  142.9217   81.4590  222.9243 H   0  0  0  0  0  0  0  0  0  0  0  0
  142.2677   80.1820  224.9582 H   0  0  0  0  0  0  0  0  0  0  0  0
  141.2088   77.9712  224.7960 H   0  0  0  0  0  0  0  0  0  0  0  0
  141.6478   69.8836  225.8705 H   0  0  0  0  0  0  0  0  0  0  0  0
  138.7828   70.1032  226.7754 H   0  0  0  0  0  0  0  0  0  0  0  0
  139.8613   68.6753  226.8405 H   0  0  0  0  0  0  0  0  0  0  0  0
  139.7443   69.8681  229.0104 H   0  0  0  0  0  0  0  0  0  0  0  0
  141.4126   69.8886  228.2817 H   0  0  0  0  0  0  0  0  0  0  0  0
  139.4072   72.1699  228.1726 H   0  0  0  0  0  0  0  0  0  0  0  0
  140.8072   72.0638  229.2827 H   0  0  0  0  0  0  0  0  0  0  0  0
  141.3618   73.3844  227.2740 H   0  0  0  0  0  0  0  0  0  0  0  0
  142.3283   71.8784  227.3342 H   0  0  0  0  0  0  0  0  0  0  0  0
  139.7412   72.3031  225.7751 H   0  0  0  0  0  0  0  0  0  0  0  0
  141.4167   72.2484  225.0931 H   0  0  0  0  0  0  0  0  0  0  0  0
  1  2  1  0
  2  3  1  0
  3  4  1  0
  4  5  2  0
  4  6  1  0
  6  7  1  0
  7  8  1  0
  8  9  2  0
  8 10  1  0
 10 11  2  0
 11 12  1  0
 12 13  2  0
 13 14  1  0
 14 15  2  0
 15 16  1  0
 16 17  2  0
 17 18  1  0
 18 19  2  0
  2 20  1  0
 20 21  1  0
 21 22  1  0
 22 23  1  0
 23 24  1  0
 24 25  1  0
 19 10  1  0
 25 20  1  0
 18 13  1  0
  1 26  1  0
  1 27  1  0
  1 28  1  0
  2 29  1  6
  3 30  1  0
  6 31  1  0
  6 32  1  0
  7 33  1  0
 11 34  1  0
 12 35  1  0
 14 36  1  0
 15 37  1  0
 16 38  1  0
 17 39  1  0
 20 40  1  0
 21 41  1  0
 21 42  1  0
 22 43  1  0
 22 44  1  0
 23 45  1  0
 23 46  1  0
 24 47  1  0
 24 48  1  0
 25 49  1  0
 25 50  1  0
M  END
>  <smiles>  (8) 
C[C@@H](NC(=O)CNC(=O)c1ccc2ccccc2n1)C1CCCCC1

>  <score_type>  (8) 
oracle

>  <origin>  (8) 
autodockgpu

>  <m_score__min__energy>  (8) 
-9.0700000000000003

>  <m_primary>  (8) 
energy

>  <rmsd>  (8) 
10.060532759971013

>  <m_score__min__rmsd>  (8) 
10.060532759971013

>  <meeko>  (8) 
{"free_energy": -8.16, "intermolecular_energy": -9.65, "internal_energy": -1.23, "cluster_size": 24, "cluster_id": 1, "rank_in_cluster": 24}

>  <energy>  (8) 
-8.84

>  <cluster_rmsd>  (8) 
0.34

>  <cluster>  (8) 
1

$$$$

     RDKit          3D

 50 52  0  0  0  0  0  0  0  0999 V2000
  139.3550   69.5540  223.9020 C   0  0  0  0  0  0  0  0  0  0  0  0
  140.0230   70.9030  224.1940 C   0  0  1  0  0  0  0  0  0  0  0  0
  139.2830   71.8830  223.4520 N   0  0  0  0  0  0  0  0  0  0  0  0
  139.9560   72.6610  222.4660 C   0  0  0  0  0  0  0  0  0  0  0  0
  141.1860   72.4250  222.3120 O   0  0  0  0  0  0  0  0  0  0  0  0
  139.2180   73.6810  221.6840 C   0  0  0  0  0  0  0  0  0  0  0  0
  139.7840   74.9900  221.9610 N   0  0  0  0  0  0  0  0  0  0  0  0
  138.9270   76.0330  222.3520 C   0  0  0  0  0  0  0  0  0  0  0  0
  137.6740   75.8130  222.4550 O   0  0  0  0  0  0  0  0  0  0  0  0
  139.4430   77.3740  222.6430 C   0  0  0  0  0  0  0  0  0  0  0  0
  138.5730   78.4150  222.8700 C   0  0  0  0  0  0  0  0  0  0  0  0
  138.9960   79.7060  223.1510 C   0  0  0  0  0  0  0  0  0  0  0  0
  140.3560   79.9120  223.1960 C   0  0  0  0  0  0  0  0  0  0  0  0
  140.8030   81.2030  223.4770 C   0  0  0  0  0  0  0  0  0  0  0  0
  142.1730   81.4450  223.5300 C   0  0  0  0  0  0  0  0  0  0  0  0
  143.0450   80.3830  223.2990 C   0  0  0  0  0  0  0  0  0  0  0  0
  142.5940   79.1170  223.0230 C   0  0  0  0  0  0  0  0  0  0  0  0
  141.2430   78.8690  222.9700 C   0  0  0  0  0  0  0  0  0  0  0  0
  140.7690   77.6210  222.6970 N   0  0  0  0  0  0  0  0  0  0  0  0
  139.9770   71.0660  225.6810 C   0  0  0  0  0  0  0  0  0  0  0  0
  141.1490   71.8480  226.2300 C   0  0  0  0  0  0  0  0  0  0  0  0
  141.0860   71.8160  227.7380 C   0  0  0  0  0  0  0  0  0  0  0  0
  141.0770   70.4120  228.2900 C   0  0  0  0  0  0  0  0  0  0  0  0
  139.8620   69.7020  227.7730 C   0  0  0  0  0  0  0  0  0  0  0  0
  139.9320   69.6610  226.2720 C   0  0  0  0  0  0  0  0  0  0  0  0
  139.1076   69.0544  224.8503 H   0  0  0  0  0  0  0  0  0  0  0  0
  138.4342   69.7185  223.3231 H   0  0  0  0  0  0  0  0  0  0  0  0
  140.0440   68.9214  223.3231 H   0  0  0  0  0  0  0  0  0  0  0  0
  141.0753   70.9971  223.8876 H   0  0  0  0  0  0  0  0  0  0  0  0
  138.2690   71.9970  223.6580 H   0  0  0  0  0  0  0  0  0  0  0  0
  139.3089   73.4596  220.6104 H   0  0  0  0  0  0  0  0  0  0  0  0
  138.1549   73.6684  221.9664 H   0  0  0  0  0  0  0  0  0  0  0  0
  140.8180   75.1600  221.8720 H   0  0  0  0  0  0  0  0  0  0  0  0
  137.4923   78.2146  222.8267 H   0  0  0  0  0  0  0  0  0  0  0  0
  138.2812   80.5230  223.3287 H   0  0  0  0  0  0  0  0  0  0  0  0
  140.0845   82.0170  223.6539 H   0  0  0  0  0  0  0  0  0  0  0  0
  142.5583   82.4517  223.7493 H   0  0  0  0  0  0  0  0  0  0  0  0
  144.1290   80.5654  223.3392 H   0  0  0  0  0  0  0  0  0  0  0  0
  143.3116   78.3026  222.8446 H   0  0  0  0  0  0  0  0  0  0  0  0
  139.0891   71.6529  225.9589 H   0  0  0  0  0  0  0  0  0  0  0  0
  142.0905   71.3929  225.8888 H   0  0  0  0  0  0  0  0  0  0  0  0
  141.1063   72.8880  225.8743 H   0  0  0  0  0  0  0  0  0  0  0  0
  141.9628   72.3460  228.1383 H   0  0  0  0  0  0  0  0  0  0  0  0
  140.1455   72.2988  228.0419 H   0  0  0  0  0  0  0  0  0  0  0  0
  141.9833   69.8802  227.9647 H   0  0  0  0  0  0  0  0  0  0  0  0
  141.0557   70.4408  229.3894 H   0  0  0  0  0  0  0  0  0  0  0  0
  139.8348   68.6768  228.1707 H   0  0  0  0  0  0  0  0  0  0  0  0
  138.9528   70.2326  228.0921 H   0  0  0  0  0  0  0  0  0  0  0  0
  140.8387   69.1161  225.9703 H   0  0  0  0  0  0  0  0  0  0  0  0
  139.0307   69.1548  225.8960 H   0  0  0  0  0  0  0  0  0  0  0  0
  1  2  1  0
  2  3  1  0
  3  4  1  0
  4  5  2  0
  4  6  1  0
  6  7  1  0
  7  8  1  0
  8  9  2  0
  8 10  1  0
 10 11  2  0
 11 12  1  0
 12 13  2  0
 13 14  1  0
 14 15  2  0
 15 16  1  0
 16 17  2  0
 17 18  1  0
 18 19  2  0
  2 20  1  0
 20 21  1  0
 21 22  1  0
 22 23  1  0
 23 24  1  0
 24 25  1  0
 19 10  1  0
 25 20  1  0
 18 13  1  0
  1 26  1  0
  1 27  1  0
  1 28  1  0
  2 29  1  6
  3 30  1  0
  6 31  1  0
  6 32  1  0
  7 33  1  0
 11 34  1  0
 12 35  1  0
 14 36  1  0
 15 37  1  0
 16 38  1  0
 17 39  1  0
 20 40  1  0
 21 41  1  0
 21 42  1  0
 22 43  1  0
 22 44  1  0
 23 45  1  0
 23 46  1  0
 24 47  1  0
 24 48  1  0
 25 49  1  0
 25 50  1  0
M  END
>  <smiles>  (9) 
C[C@@H](NC(=O)CNC(=O)c1ccc2ccccc2n1)C1CCCCC1

>  <score_type>  (9) 
oracle

>  <origin>  (9) 
autodockgpu

>  <m_score__min__energy>  (9) 
-9.0700000000000003

>  <m_primary>  (9) 
energy

>  <rmsd>  (9) 
10.241123497734597

>  <m_score__min__rmsd>  (9) 
10.241123497734597

>  <meeko>  (9) 
{"free_energy": -8.59, "intermolecular_energy": -10.08, "internal_energy": -1.24, "cluster_size": 24, "cluster_id": 1, "rank_in_cluster": 14}

>  <energy>  (9) 
-8.83

>  <cluster_rmsd>  (9) 
0.46

>  <cluster>  (9) 
1

$$$$

     RDKit          3D

 50 52  0  0  0  0  0  0  0  0999 V2000
  138.8990   69.1480  223.6510 C   0  0  0  0  0  0  0  0  0  0  0  0
  139.6750   70.4530  223.8650 C   0  0  1  0  0  0  0  0  0  0  0  0
  138.9590   71.4660  223.1450 N   0  0  0  0  0  0  0  0  0  0  0  0
  139.6670   72.6010  222.6540 C   0  0  0  0  0  0  0  0  0  0  0  0
  140.9050   72.6340  222.8950 O   0  0  0  0  0  0  0  0  0  0  0  0
  138.9530   73.6640  221.9070 C   0  0  0  0  0  0  0  0  0  0  0  0
  139.5700   74.9450  222.2020 N   0  0  0  0  0  0  0  0  0  0  0  0
  138.7480   76.0750  222.3610 C   0  0  0  0  0  0  0  0  0  0  0  0
  137.4840   75.9550  222.2420 O   0  0  0  0  0  0  0  0  0  0  0  0
  139.3170   77.3930  222.6590 C   0  0  0  0  0  0  0  0  0  0  0  0
  138.4880   78.4600  222.9180 C   0  0  0  0  0  0  0  0  0  0  0  0
  138.9610   79.7320  223.2080 C   0  0  0  0  0  0  0  0  0  0  0  0
  140.3280   79.8900  223.2260 C   0  0  0  0  0  0  0  0  0  0  0  0
  140.8250   81.1610  223.5150 C   0  0  0  0  0  0  0  0  0  0  0  0
  142.2030   81.3560  223.5420 C   0  0  0  0  0  0  0  0  0  0  0  0
  143.0330   80.2680  223.2790 C   0  0  0  0  0  0  0  0  0  0  0  0
  142.5320   79.0220  222.9950 C   0  0  0  0  0  0  0  0  0  0  0  0
  141.1740   78.8210  222.9670 C   0  0  0  0  0  0  0  0  0  0  0  0
  140.6510   77.5940  222.6880 N   0  0  0  0  0  0  0  0  0  0  0  0
  139.7340   70.6520  225.3480 C   0  0  0  0  0  0  0  0  0  0  0  0
  140.9170   71.4820  225.7900 C   0  0  0  0  0  0  0  0  0  0  0  0
  140.9670   71.4860  227.2990 C   0  0  0  0  0  0  0  0  0  0  0  0
  141.0440   70.0960  227.8820 C   0  0  0  0  0  0  0  0  0  0  0  0
  139.8180   69.3370  227.4730 C   0  0  0  0  0  0  0  0  0  0  0  0
  139.7780   69.2600  225.9720 C   0  0  0  0  0  0  0  0  0  0  0  0
  138.6395   68.7115  224.6268 H   0  0  0  0  0  0  0  0  0  0  0  0
  137.9784   69.3572  223.0864 H   0  0  0  0  0  0  0  0  0  0  0  0
  139.5224   68.4391  223.0864 H   0  0  0  0  0  0  0  0  0  0  0  0
  140.7095   70.4658  223.4914 H   0  0  0  0  0  0  0  0  0  0  0  0
  137.9350   71.3400  223.0010 H   0  0  0  0  0  0  0  0  0  0  0  0
  139.0179   73.4633  220.8274 H   0  0  0  0  0  0  0  0  0  0  0  0
  137.8951   73.6830  222.2077 H   0  0  0  0  0  0  0  0  0  0  0  0
  140.6130   75.0320  222.2970 H   0  0  0  0  0  0  0  0  0  0  0  0
  137.4004   78.2974  222.8941 H   0  0  0  0  0  0  0  0  0  0  0  0
  138.2788   80.5703  223.4128 H   0  0  0  0  0  0  0  0  0  0  0  0
  140.1386   81.9962  223.7184 H   0  0  0  0  0  0  0  0  0  0  0  0
  142.6270   82.3460  223.7658 H   0  0  0  0  0  0  0  0  0  0  0  0
  144.1233   80.4121  223.2996 H   0  0  0  0  0  0  0  0  0  0  0  0
  143.2171   78.1861  222.7902 H   0  0  0  0  0  0  0  0  0  0  0  0
  138.8511   71.2188  225.6784 H   0  0  0  0  0  0  0  0  0  0  0  0
  141.8448   71.0472  225.3898 H   0  0  0  0  0  0  0  0  0  0  0  0
  140.8146   72.5111  225.4151 H   0  0  0  0  0  0  0  0  0  0  0  0
  141.8536   72.0522  227.6204 H   0  0  0  0  0  0  0  0  0  0  0  0
  140.0367   71.9477  227.6614 H   0  0  0  0  0  0  0  0  0  0  0  0
  141.9406   69.5841  227.5023 H   0  0  0  0  0  0  0  0  0  0  0  0
  141.1030   70.1515  228.9790 H   0  0  0  0  0  0  0  0  0  0  0  0
  139.8530   68.3218  227.8951 H   0  0  0  0  0  0  0  0  0  0  0  0
  138.9184   69.8481  227.8465 H   0  0  0  0  0  0  0  0  0  0  0  0
  140.6769   68.7355  225.6157 H   0  0  0  0  0  0  0  0  0  0  0  0
  138.8685   68.7170  225.6756 H   0  0  0  0  0  0  0  0  0  0  0  0
  1  2  1  0
  2  3  1  0
  3  4  1  0
  4  5  2  0
  4  6  1  0
  6  7  1  0
  7  8  1  0
  8  9  2  0
  8 10  1  0
 10 11  2  0
 11 12  1  0
 12 13  2  0
 13 14  1  0
 14 15  2  0
 15 16  1  0
 16 17  2  0
 17 18  1  0
 18 19  2  0
  2 20  1  0
 20 21  1  0
 21 22  1  0
 22 23  1  0
 23 24  1  0
 24 25  1  0
 19 10  1  0
 25 20  1  0
 18 13  1  0
  1 26  1  0
  1 27  1  0
  1 28  1  0
  2 29  1  6
  3 30  1  0
  6 31  1  0
  6 32  1  0
  7 33  1  0
 11 34  1  0
 12 35  1  0
 14 36  1  0
 15 37  1  0
 16 38  1  0
 17 39  1  0
 20 40  1  0
 21 41  1  0
 21 42  1  0
 22 43  1  0
 22 44  1  0
 23 45  1  0
 23 46  1  0
 24 47  1  0
 24 48  1  0
 25 49  1  0
 25 50  1  0
M  END
>  <smiles>  (10) 
C[C@@H](NC(=O)CNC(=O)c1ccc2ccccc2n1)C1CCCCC1

>  <score_type>  (10) 
oracle

>  <origin>  (10) 
autodockgpu

>  <m_score__min__energy>  (10) 
-9.0700000000000003

>  <m_primary>  (10) 
energy

>  <rmsd>  (10) 
10.372120797151432

>  <m_score__min__rmsd>  (10) 
10.372120797151432

>  <meeko>  (10) 
{"free_energy": -8.18, "intermolecular_energy": -9.68, "internal_energy": -1.43, "cluster_size": 24, "cluster_id": 1, "rank_in_cluster": 23}

>  <energy>  (10) 
-8.69

>  <cluster_rmsd>  (10) 
0.88

>  <cluster>  (10) 
1

$$$$

     RDKit          3D

 50 52  0  0  0  0  0  0  0  0999 V2000
  139.4440   69.3070  223.8480 C   0  0  0  0  0  0  0  0  0  0  0  0
  139.9830   70.6530  224.3480 C   0  0  1  0  0  0  0  0  0  0  0  0
  139.1470   71.6600  223.7610 N   0  0  0  0  0  0  0  0  0  0  0  0
  139.5530   72.2760  222.5430 C   0  0  0  0  0  0  0  0  0  0  0  0
  140.6470   71.8810  222.0540 O   0  0  0  0  0  0  0  0  0  0  0  0
  138.7100   73.3210  221.9130 C   0  0  0  0  0  0  0  0  0  0  0  0
  139.2980   74.6230  222.1720 N   0  0  0  0  0  0  0  0  0  0  0  0
  140.0790   75.2270  221.1720 C   0  0  0  0  0  0  0  0  0  0  0  0
  140.2570   74.6240  220.0620 O   0  0  0  0  0  0  0  0  0  0  0  0
  140.6980   76.5400  221.3790 C   0  0  0  0  0  0  0  0  0  0  0  0
  141.1600   77.2630  220.3040 C   0  0  0  0  0  0  0  0  0  0  0  0
  141.7550   78.5110  220.4310 C   0  0  0  0  0  0  0  0  0  0  0  0
  141.8670   79.0110  221.7090 C   0  0  0  0  0  0  0  0  0  0  0  0
  142.4620   80.2640  221.8590 C   0  0  0  0  0  0  0  0  0  0  0  0
  142.5920   80.7990  223.1380 C   0  0  0  0  0  0  0  0  0  0  0  0
  142.1190   80.0580  224.2190 C   0  0  0  0  0  0  0  0  0  0  0  0
  141.5370   78.8260  224.0590 C   0  0  0  0  0  0  0  0  0  0  0  0
  141.4040   78.2910  222.8000 C   0  0  0  0  0  0  0  0  0  0  0  0
  140.8290   77.0700  222.6140 N   0  0  0  0  0  0  0  0  0  0  0  0
  139.9340   70.5800  225.8420 C   0  0  0  0  0  0  0  0  0  0  0  0
  141.0240   71.3850  226.5130 C   0  0  0  0  0  0  0  0  0  0  0  0
  140.9790   71.1160  227.9970 C   0  0  0  0  0  0  0  0  0  0  0  0
  141.1210   69.6500  228.3270 C   0  0  0  0  0  0  0  0  0  0  0  0
  139.9800   68.9060  227.6990 C   0  0  0  0  0  0  0  0  0  0  0  0
  140.0400   69.1030  226.2090 C   0  0  0  0  0  0  0  0  0  0  0  0
  139.1895   68.6713  224.7089 H   0  0  0  0  0  0  0  0  0  0  0  0
  138.5442   69.4760  223.2383 H   0  0  0  0  0  0  0  0  0  0  0  0
  140.2118   68.8083  223.2383 H   0  0  0  0  0  0  0  0  0  0  0  0
  141.0188   70.8933  224.0663 H   0  0  0  0  0  0  0  0  0  0  0  0
  138.2610   71.9120  224.2480 H   0  0  0  0  0  0  0  0  0  0  0  0
  138.6589   73.1488  220.8278 H   0  0  0  0  0  0  0  0  0  0  0  0
  137.6942   73.2820  222.3332 H   0  0  0  0  0  0  0  0  0  0  0  0
  139.1450   75.1110  223.0910 H   0  0  0  0  0  0  0  0  0  0  0  0
  141.0532   76.8327  219.2973 H   0  0  0  0  0  0  0  0  0  0  0  0
  142.1179   79.0709  219.5565 H   0  0  0  0  0  0  0  0  0  0  0  0
  142.8226   80.8202  220.9812 H   0  0  0  0  0  0  0  0  0  0  0  0
  143.0573   81.7839  223.2914 H   0  0  0  0  0  0  0  0  0  0  0  0
  142.2153   80.4740  225.2328 H   0  0  0  0  0  0  0  0  0  0  0  0
  141.1777   78.2678  224.9361 H   0  0  0  0  0  0  0  0  0  0  0  0
  138.9930   71.0224  226.2009 H   0  0  0  0  0  0  0  0  0  0  0  0
  142.0042   71.0874  226.1123 H   0  0  0  0  0  0  0  0  0  0  0  0
  140.8706   72.4572  226.3213 H   0  0  0  0  0  0  0  0  0  0  0  0
  141.7999   71.6666  228.4797 H   0  0  0  0  0  0  0  0  0  0  0  0
  139.9965   71.4462  228.3652 H   0  0  0  0  0  0  0  0  0  0  0  0
  142.0741   69.2712  227.9294 H   0  0  0  0  0  0  0  0  0  0  0  0
  141.1082   69.5071  229.4176 H   0  0  0  0  0  0  0  0  0  0  0  0
  140.0619   67.8347  227.9346 H   0  0  0  0  0  0  0  0  0  0  0  0
  139.0241   69.2850  228.0897 H   0  0  0  0  0  0  0  0  0  0  0  0
  140.9953   68.7078  225.8332 H   0  0  0  0  0  0  0  0  0  0  0  0
  139.1928   68.5696  225.7532 H   0  0  0  0  0  0  0  0  0  0  0  0
  1  2  1  0
  2  3  1  0
  3  4  1  0
  4  5  2  0
  4  6  1  0
  6  7  1  0
  7  8  1  0
  8  9  2  0
  8 10  1  0
 10 11  2  0
 11 12  1  0
 12 13  2  0
 13 14  1  0
 14 15  2  0
 15 16  1  0
 16 17  2  0
 17 18  1  0
 18 19  2  0
  2 20  1  0
 20 21  1  0
 21 22  1  0
 22 23  1  0
 23 24  1  0
 24 25  1  0
 19 10  1  0
 25 20  1  0
 18 13  1  0
  1 26  1  0
  1 27  1  0
  1 28  1  0
  2 29  1  1
  3 30  1  0
  6 31  1  0
  6 32  1  0
  7 33  1  0
 11 34  1  0
 12 35  1  0
 14 36  1  0
 15 37  1  0
 16 38  1  0
 17 39  1  0
 20 40  1  0
 21 41  1  0
 21 42  1  0
 22 43  1  0
 22 44  1  0
 23 45  1  0
 23 46  1  0
 24 47  1  0
 24 48  1  0
 25 49  1  0
 25 50  1  0
M  END
>  <smiles>  (11) 
C[C@@H](NC(=O)CNC(=O)c1ccc2ccccc2n1)C1CCCCC1

>  <score_type>  (11) 
oracle

>  <origin>  (11) 
autodockgpu

>  <m_score__min__energy>  (11) 
-9.0700000000000003

>  <m_primary>  (11) 
energy

>  <rmsd>  (11) 
10.41939915017805

>  <m_score__min__rmsd>  (11) 
10.41939915017805

>  <meeko>  (11) 
{"free_energy": -8.68, "intermolecular_energy": -10.17, "internal_energy": -1.09, "cluster_size": 24, "cluster_id": 1, "rank_in_cluster": 12}

>  <energy>  (11) 
-8.68

>  <cluster_rmsd>  (11) 
0.92

>  <cluster>  (11) 
1

$$$$

     RDKit          3D

 50 52  0  0  0  0  0  0  0  0999 V2000
  139.1210   69.2680  223.7650 C   0  0  0  0  0  0  0  0  0  0  0  0
  139.8430   70.6020  223.9970 C   0  0  1  0  0  0  0  0  0  0  0  0
  139.1070   71.5870  223.2590 N   0  0  0  0  0  0  0  0  0  0  0  0
  139.8150   72.6390  222.6100 C   0  0  0  0  0  0  0  0  0  0  0  0
  141.0700   72.6280  222.7330 O   0  0  0  0  0  0  0  0  0  0  0  0
  139.0810   73.6730  221.8400 C   0  0  0  0  0  0  0  0  0  0  0  0
  139.6740   74.9720  222.1080 N   0  0  0  0  0  0  0  0  0  0  0  0
  138.8310   76.0500  222.4280 C   0  0  0  0  0  0  0  0  0  0  0  0
  137.5700   75.8700  222.4770 O   0  0  0  0  0  0  0  0  0  0  0  0
  139.3750   77.3830  222.7070 C   0  0  0  0  0  0  0  0  0  0  0  0
  138.5260   78.4430  222.9260 C   0  0  0  0  0  0  0  0  0  0  0  0
  138.9750   79.7280  223.1950 C   0  0  0  0  0  0  0  0  0  0  0  0
  140.3390   79.9070  223.2360 C   0  0  0  0  0  0  0  0  0  0  0  0
  140.8120   81.1910  223.5050 C   0  0  0  0  0  0  0  0  0  0  0  0
  142.1870   81.4070  223.5540 C   0  0  0  0  0  0  0  0  0  0  0  0
  143.0370   80.3260  223.3310 C   0  0  0  0  0  0  0  0  0  0  0  0
  142.5600   79.0670  223.0660 C   0  0  0  0  0  0  0  0  0  0  0  0
  141.2050   78.8450  223.0170 C   0  0  0  0  0  0  0  0  0  0  0  0
  140.7050   77.6050  222.7570 N   0  0  0  0  0  0  0  0  0  0  0  0
  139.8600   70.8020  225.4800 C   0  0  0  0  0  0  0  0  0  0  0  0
  141.0800   71.5510  225.9650 C   0  0  0  0  0  0  0  0  0  0  0  0
  141.0740   71.5590  227.4740 C   0  0  0  0  0  0  0  0  0  0  0  0
  141.0340   70.1690  228.0630 C   0  0  0  0  0  0  0  0  0  0  0  0
  139.7740   69.4940  227.6090 C   0  0  0  0  0  0  0  0  0  0  0  0
  139.7850   69.4140  226.1080 C   0  0  0  0  0  0  0  0  0  0  0  0
  138.8739   68.8113  224.7347 H   0  0  0  0  0  0  0  0  0  0  0  0
  138.1959   69.4457  223.1970 H   0  0  0  0  0  0  0  0  0  0  0  0
  139.7757   68.5907  223.1970 H   0  0  0  0  0  0  0  0  0  0  0  0
  140.8850   70.6543  223.6485 H   0  0  0  0  0  0  0  0  0  0  0  0
  138.0700   71.5020  223.2200 H   0  0  0  0  0  0  0  0  0  0  0  0
  139.1502   73.4507  220.7649 H   0  0  0  0  0  0  0  0  0  0  0  0
  138.0227   73.6785  222.1400 H   0  0  0  0  0  0  0  0  0  0  0  0
  140.7150   75.1080  222.0640 H   0  0  0  0  0  0  0  0  0  0  0  0
  137.4415   78.2637  222.8860 H   0  0  0  0  0  0  0  0  0  0  0  0
  138.2769   80.5606  223.3666 H   0  0  0  0  0  0  0  0  0  0  0  0
  140.1099   82.0204  223.6759 H   0  0  0  0  0  0  0  0  0  0  0  0
  142.5924   82.4078  223.7639 H   0  0  0  0  0  0  0  0  0  0  0  0
  144.1245   80.4868  223.3685 H   0  0  0  0  0  0  0  0  0  0  0  0
  143.2610   78.2371  222.8931 H   0  0  0  0  0  0  0  0  0  0  0  0
  139.0059   71.4290  225.7756 H   0  0  0  0  0  0  0  0  0  0  0  0
  141.9900   71.0516  225.6010 H   0  0  0  0  0  0  0  0  0  0  0  0
  141.0623   72.5829  225.5845 H   0  0  0  0  0  0  0  0  0  0  0  0
  141.9847   72.0649  227.8270 H   0  0  0  0  0  0  0  0  0  0  0  0
  140.1646   72.0849  227.8003 H   0  0  0  0  0  0  0  0  0  0  0  0
  141.9069   69.5951  227.7185 H   0  0  0  0  0  0  0  0  0  0  0  0
  141.0559   70.2251  229.1614 H   0  0  0  0  0  0  0  0  0  0  0  0
  139.7233   68.4805  228.0335 H   0  0  0  0  0  0  0  0  0  0  0  0
  138.8984   70.0672  227.9477 H   0  0  0  0  0  0  0  0  0  0  0  0
  140.6585   68.8276  225.7867 H   0  0  0  0  0  0  0  0  0  0  0  0
  138.8517   68.9338  225.7789 H   0  0  0  0  0  0  0  0  0  0  0  0
  1  2  1  0
  2  3  1  0
  3  4  1  0
  4  5  2  0
  4  6  1  0
  6  7  1  0
  7  8  1  0
  8  9  2  0
  8 10  1  0
 10 11  2  0
 11 12  1  0
 12 13  2  0
 13 14  1  0
 14 15  2  0
 15 16  1  0
 16 17  2  0
 17 18  1  0
 18 19  2  0
  2 20  1  0
 20 21  1  0
 21 22  1  0
 22 23  1  0
 23 24  1  0
 24 25  1  0
 19 10  1  0
 25 20  1  0
 18 13  1  0
  1 26  1  0
  1 27  1  0
  1 28  1  0
  2 29  1  6
  3 30  1  0
  6 31  1  0
  6 32  1  0
  7 33  1  0
 11 34  1  0
 12 35  1  0
 14 36  1  0
 15 37  1  0
 16 38  1  0
 17 39  1  0
 20 40  1  0
 21 41  1  0
 21 42  1  0
 22 43  1  0
 22 44  1  0
 23 45  1  0
 23 46  1  0
 24 47  1  0
 24 48  1  0
 25 49  1  0
 25 50  1  0
M  END
>  <smiles>  (12) 
C[C@@H](NC(=O)CNC(=O)c1ccc2ccccc2n1)C1CCCCC1

>  <score_type>  (12) 
oracle

>  <origin>  (12) 
autodockgpu

>  <m_score__min__energy>  (12) 
-9.0700000000000003

>  <m_primary>  (12) 
energy

>  <rmsd>  (12) 
10.340097441296246

>  <m_score__min__rmsd>  (12) 
10.340097441296246

>  <meeko>  (12) 
{"free_energy": -8.35, "intermolecular_energy": -9.84, "internal_energy": -1.35, "cluster_size": 24, "cluster_id": 1, "rank_in_cluster": 20}

>  <energy>  (12) 
-8.68

>  <cluster_rmsd>  (12) 
0.92

>  <cluster>  (12) 
1

$$$$

     RDKit          3D

 50 52  0  0  0  0  0  0  0  0999 V2000
  141.0220   78.7880  219.5300 C   0  0  0  0  0  0  0  0  0  0  0  0
  140.6030   78.0390  220.8020 C   0  0  1  0  0  0  0  0  0  0  0  0
  140.7280   76.6420  220.5030 N   0  0  0  0  0  0  0  0  0  0  0  0
  140.1420   75.6890  221.3840 C   0  0  0  0  0  0  0  0  0  0  0  0
  139.5400   76.1530  222.3910 O   0  0  0  0  0  0  0  0  0  0  0  0
  140.2560   74.2380  221.1010 C   0  0  0  0  0  0  0  0  0  0  0  0
  140.0220   73.4970  222.3280 N   0  0  0  0  0  0  0  0  0  0  0  0
  140.4590   72.1630  222.4110 C   0  0  0  0  0  0  0  0  0  0  0  0
  141.0480   71.6310  221.4120 O   0  0  0  0  0  0  0  0  0  0  0  0
  140.2490   71.3680  223.6240 C   0  0  0  0  0  0  0  0  0  0  0  0
  139.6040   70.1550  223.5520 C   0  0  0  0  0  0  0  0  0  0  0  0
  139.3740   69.3540  224.6620 C   0  0  0  0  0  0  0  0  0  0  0  0
  139.8290   69.8310  225.8700 C   0  0  0  0  0  0  0  0  0  0  0  0
  139.6090   69.0410  226.9980 C   0  0  0  0  0  0  0  0  0  0  0  0
  140.0570   69.4940  228.2360 C   0  0  0  0  0  0  0  0  0  0  0  0
  140.7100   70.7230  228.2970 C   0  0  0  0  0  0  0  0  0  0  0  0
  140.9210   71.4920  227.1800 C   0  0  0  0  0  0  0  0  0  0  0  0
  140.4830   71.0520  225.9540 C   0  0  0  0  0  0  0  0  0  0  0  0
  140.6790   71.7960  224.8300 N   0  0  0  0  0  0  0  0  0  0  0  0
  141.5080   78.5390  221.8840 C   0  0  0  0  0  0  0  0  0  0  0  0
  140.8390   78.5980  223.2390 C   0  0  0  0  0  0  0  0  0  0  0  0
  141.7820   79.2580  224.2150 C   0  0  0  0  0  0  0  0  0  0  0  0
  142.2070   80.6370  223.7710 C   0  0  0  0  0  0  0  0  0  0  0  0
  142.9250   80.5180  222.4600 C   0  0  0  0  0  0  0  0  0  0  0  0
  141.9840   79.9220  221.4490 C   0  0  0  0  0  0  0  0  0  0  0  0
  141.5419   79.7173  219.8061 H   0  0  0  0  0  0  0  0  0  0  0  0
  141.6961   78.1533  218.9360 H   0  0  0  0  0  0  0  0  0  0  0  0
  140.1284   79.0303  218.9360 H   0  0  0  0  0  0  0  0  0  0  0  0
  139.5687   78.2018  221.1391 H   0  0  0  0  0  0  0  0  0  0  0  0
  141.2470   76.3660  219.6430 H   0  0  0  0  0  0  0  0  0  0  0  0
  139.5083   73.9494  220.3476 H   0  0  0  0  0  0  0  0  0  0  0  0
  141.2616   74.0123  220.7166 H   0  0  0  0  0  0  0  0  0  0  0  0
  139.5350   73.9460  223.1450 H   0  0  0  0  0  0  0  0  0  0  0  0
  139.2546   69.8038  222.5699 H   0  0  0  0  0  0  0  0  0  0  0  0
  138.8548   68.3877  224.5803 H   0  0  0  0  0  0  0  0  0  0  0  0
  139.0897   68.0752  226.9110 H   0  0  0  0  0  0  0  0  0  0  0  0
  139.8989   68.8952  229.1451 H   0  0  0  0  0  0  0  0  0  0  0  0
  141.0677   71.0885  229.2709 H   0  0  0  0  0  0  0  0  0  0  0  0
  141.4395   72.4583  227.2659 H   0  0  0  0  0  0  0  0  0  0  0  0
  142.3481   77.8405  222.0121 H   0  0  0  0  0  0  0  0  0  0  0  0
  139.9102   79.1831  223.1682 H   0  0  0  0  0  0  0  0  0  0  0  0
  140.5955   77.5815  223.5817 H   0  0  0  0  0  0  0  0  0  0  0  0
  141.2786   79.3414  225.1895 H   0  0  0  0  0  0  0  0  0  0  0  0
  142.6864   78.6349  224.2770 H   0  0  0  0  0  0  0  0  0  0  0  0
  141.3206   81.2772  223.6511 H   0  0  0  0  0  0  0  0  0  0  0  0
  142.8717   81.0857  224.5239 H   0  0  0  0  0  0  0  0  0  0  0  0
  143.2484   81.5139  222.1230 H   0  0  0  0  0  0  0  0  0  0  0  0
  143.8103   79.8751  222.5737 H   0  0  0  0  0  0  0  0  0  0  0  0
  141.1117   80.5829  221.3379 H   0  0  0  0  0  0  0  0  0  0  0  0
  142.5191   79.8208  220.4933 H   0  0  0  0  0  0  0  0  0  0  0  0
  1  2  1  0
  2  3  1  0
  3  4  1  0
  4  5  2  0
  4  6  1  0
  6  7  1  0
  7  8  1  0
  8  9  2  0
  8 10  1  0
 10 11  2  0
 11 12  1  0
 12 13  2  0
 13 14  1  0
 14 15  2  0
 15 16  1  0
 16 17  2  0
 17 18  1  0
 18 19  2  0
  2 20  1  0
 20 21  1  0
 21 22  1  0
 22 23  1  0
 23 24  1  0
 24 25  1  0
 19 10  1  0
 25 20  1  0
 18 13  1  0
  1 26  1  0
  1 27  1  0
  1 28  1  0
  2 29  1  1
  3 30  1  0
  6 31  1  0
  6 32  1  0
  7 33  1  0
 11 34  1  0
 12 35  1  0
 14 36  1  0
 15 37  1  0
 16 38  1  0
 17 39  1  0
 20 40  1  0
 21 41  1  0
 21 42  1  0
 22 43  1  0
 22 44  1  0
 23 45  1  0
 23 46  1  0
 24 47  1  0
 24 48  1  0
 25 49  1  0
 25 50  1  0
M  END
>  <smiles>  (13) 
C[C@@H](NC(=O)CNC(=O)c1ccc2ccccc2n1)C1CCCCC1

>  <score_type>  (13) 
oracle

>  <origin>  (13) 
autodockgpu

>  <m_score__min__energy>  (13) 
-9.0700000000000003

>  <m_primary>  (13) 
energy

>  <rmsd>  (13) 
3.9192069554046607

>  <m_score__min__rmsd>  (13) 
3.9192069554046607

>  <meeko>  (13) 
{"free_energy": -8.45, "intermolecular_energy": -9.94, "internal_energy": -1.39, "cluster_size": 24, "cluster_id": 2, "rank_in_cluster": 10}

>  <energy>  (13) 
-8.66

>  <cluster_rmsd>  (13) 
0.91

>  <cluster>  (13) 
1

$$$$

     RDKit          3D

 50 52  0  0  0  0  0  0  0  0999 V2000
  139.0150   69.2320  223.6600 C   0  0  0  0  0  0  0  0  0  0  0  0
  139.7650   70.5530  223.8680 C   0  0  1  0  0  0  0  0  0  0  0  0
  139.0550   71.5390  223.1060 N   0  0  0  0  0  0  0  0  0  0  0  0
  139.7760   72.6270  222.5340 C   0  0  0  0  0  0  0  0  0  0  0  0
  141.0200   72.6450  222.7440 O   0  0  0  0  0  0  0  0  0  0  0  0
  139.0680   73.6610  221.7420 C   0  0  0  0  0  0  0  0  0  0  0  0
  139.6620   74.9570  222.0180 N   0  0  0  0  0  0  0  0  0  0  0  0
  138.8220   76.0330  222.3530 C   0  0  0  0  0  0  0  0  0  0  0  0
  137.5600   75.8530  222.4060 O   0  0  0  0  0  0  0  0  0  0  0  0
  139.3670   77.3630  222.6410 C   0  0  0  0  0  0  0  0  0  0  0  0
  138.5190   78.4250  222.8540 C   0  0  0  0  0  0  0  0  0  0  0  0
  138.9700   79.7090  223.1310 C   0  0  0  0  0  0  0  0  0  0  0  0
  140.3340   79.8830  223.1880 C   0  0  0  0  0  0  0  0  0  0  0  0
  140.8090   81.1640  223.4650 C   0  0  0  0  0  0  0  0  0  0  0  0
  142.1830   81.3750  223.5300 C   0  0  0  0  0  0  0  0  0  0  0  0
  143.0320   80.2920  223.3130 C   0  0  0  0  0  0  0  0  0  0  0  0
  142.5540   79.0350  223.0400 C   0  0  0  0  0  0  0  0  0  0  0  0
  141.1990   78.8180  222.9760 C   0  0  0  0  0  0  0  0  0  0  0  0
  140.6970   77.5800  222.7060 N   0  0  0  0  0  0  0  0  0  0  0  0
  139.7800   70.7850  225.3460 C   0  0  0  0  0  0  0  0  0  0  0  0
  141.0080   71.5280  225.8200 C   0  0  0  0  0  0  0  0  0  0  0  0
  140.9970   71.5670  227.3290 C   0  0  0  0  0  0  0  0  0  0  0  0
  140.9370   70.1900  227.9460 C   0  0  0  0  0  0  0  0  0  0  0  0
  139.6700   69.5220  227.5020 C   0  0  0  0  0  0  0  0  0  0  0  0
  139.6850   69.4110  226.0030 C   0  0  0  0  0  0  0  0  0  0  0  0
  138.7662   68.7937  224.6378 H   0  0  0  0  0  0  0  0  0  0  0  0
  138.0893   69.4207  223.0965 H   0  0  0  0  0  0  0  0  0  0  0  0
  139.6514   68.5338  223.0965 H   0  0  0  0  0  0  0  0  0  0  0  0
  140.8096   70.5734  223.5239 H   0  0  0  0  0  0  0  0  0  0  0  0
  138.0260   71.4290  222.9930 H   0  0  0  0  0  0  0  0  0  0  0  0
  139.1620   73.4330  220.6700 H   0  0  0  0  0  0  0  0  0  0  0  0
  138.0028   73.6744  222.0162 H   0  0  0  0  0  0  0  0  0  0  0  0
  140.7040   75.0940  221.9710 H   0  0  0  0  0  0  0  0  0  0  0  0
  137.4343   78.2492  222.8026 H   0  0  0  0  0  0  0  0  0  0  0  0
  138.2730   80.5438  223.2963 H   0  0  0  0  0  0  0  0  0  0  0  0
  140.1082   81.9957  223.6297 H   0  0  0  0  0  0  0  0  0  0  0  0
  142.5893   82.3738  223.7477 H   0  0  0  0  0  0  0  0  0  0  0  0
  144.1196   80.4494  223.3620 H   0  0  0  0  0  0  0  0  0  0  0  0
  143.2541   78.2032  222.8728 H   0  0  0  0  0  0  0  0  0  0  0  0
  138.9336   71.4299  225.6247 H   0  0  0  0  0  0  0  0  0  0  0  0
  141.9127   71.0095  225.4696 H   0  0  0  0  0  0  0  0  0  0  0  0
  141.0050   72.5521  225.4184 H   0  0  0  0  0  0  0  0  0  0  0  0
  141.9130   72.0683  227.6750 H   0  0  0  0  0  0  0  0  0  0  0  0
  140.0935   72.1112  227.6412 H   0  0  0  0  0  0  0  0  0  0  0  0
  141.8034   69.5980  227.6161 H   0  0  0  0  0  0  0  0  0  0  0  0
  140.9562   70.2684  229.0430 H   0  0  0  0  0  0  0  0  0  0  0  0
  139.6049   68.5182  227.9471 H   0  0  0  0  0  0  0  0  0  0  0  0
  138.8006   70.1130  227.8259 H   0  0  0  0  0  0  0  0  0  0  0  0
  140.5519   68.8069  225.6971 H   0  0  0  0  0  0  0  0  0  0  0  0
  138.7465   68.9363  225.6807 H   0  0  0  0  0  0  0  0  0  0  0  0
  1  2  1  0
  2  3  1  0
  3  4  1  0
  4  5  2  0
  4  6  1  0
  6  7  1  0
  7  8  1  0
  8  9  2  0
  8 10  1  0
 10 11  2  0
 11 12  1  0
 12 13  2  0
 13 14  1  0
 14 15  2  0
 15 16  1  0
 16 17  2  0
 17 18  1  0
 18 19  2  0
  2 20  1  0
 20 21  1  0
 21 22  1  0
 22 23  1  0
 23 24  1  0
 24 25  1  0
 19 10  1  0
 25 20  1  0
 18 13  1  0
  1 26  1  0
  1 27  1  0
  1 28  1  0
  2 29  1  6
  3 30  1  0
  6 31  1  0
  6 32  1  0
  7 33  1  0
 11 34  1  0
 12 35  1  0
 14 36  1  0
 15 37  1  0
 16 38  1  0
 17 39  1  0
 20 40  1  0
 21 41  1  0
 21 42  1  0
 22 43  1  0
 22 44  1  0
 23 45  1  0
 23 46  1  0
 24 47  1  0
 24 48  1  0
 25 49  1  0
 25 50  1  0
M  END
>  <smiles>  (14) 
C[C@@H](NC(=O)CNC(=O)c1ccc2ccccc2n1)C1CCCCC1

>  <score_type>  (14) 
oracle

>  <origin>  (14) 
autodockgpu

>  <m_score__min__energy>  (14) 
-9.0700000000000003

>  <m_primary>  (14) 
energy

>  <rmsd>  (14) 
10.324983209968437

>  <m_score__min__rmsd>  (14) 
10.324983209968437

>  <meeko>  (14) 
{"free_energy": -8.32, "intermolecular_energy": -9.81, "internal_energy": -1.36, "cluster_size": 24, "cluster_id": 1, "rank_in_cluster": 21}

>  <energy>  (14) 
-8.59

>  <cluster_rmsd>  (14) 
0.93

>  <cluster>  (14) 
1

$$$$

     RDKit          3D

 50 52  0  0  0  0  0  0  0  0999 V2000
  139.0520   69.2170  223.6160 C   0  0  0  0  0  0  0  0  0  0  0  0
  139.8000   70.5440  223.8010 C   0  0  1  0  0  0  0  0  0  0  0  0
  139.0790   71.5180  223.0350 N   0  0  0  0  0  0  0  0  0  0  0  0
  139.7730   72.6560  222.5310 C   0  0  0  0  0  0  0  0  0  0  0  0
  141.0030   72.7260  222.8020 O   0  0  0  0  0  0  0  0  0  0  0  0
  139.0550   73.6810  221.7360 C   0  0  0  0  0  0  0  0  0  0  0  0
  139.6530   74.9800  221.9880 N   0  0  0  0  0  0  0  0  0  0  0  0
  138.8290   76.0400  222.4050 C   0  0  0  0  0  0  0  0  0  0  0  0
  137.5770   75.8420  222.5530 O   0  0  0  0  0  0  0  0  0  0  0  0
  139.3790   77.3720  222.6720 C   0  0  0  0  0  0  0  0  0  0  0  0
  138.5350   78.4370  222.8850 C   0  0  0  0  0  0  0  0  0  0  0  0
  138.9910   79.7220  223.1430 C   0  0  0  0  0  0  0  0  0  0  0  0
  140.3560   79.8950  223.1800 C   0  0  0  0  0  0  0  0  0  0  0  0
  140.8350   81.1790  223.4380 C   0  0  0  0  0  0  0  0  0  0  0  0
  142.2110   81.3900  223.4810 C   0  0  0  0  0  0  0  0  0  0  0  0
  143.0560   80.3030  223.2640 C   0  0  0  0  0  0  0  0  0  0  0  0
  142.5720   79.0440  223.0110 C   0  0  0  0  0  0  0  0  0  0  0  0
  141.2160   78.8280  222.9670 C   0  0  0  0  0  0  0  0  0  0  0  0
  140.7100   77.5880  222.7170 N   0  0  0  0  0  0  0  0  0  0  0  0
  139.8280   70.7920  225.2770 C   0  0  0  0  0  0  0  0  0  0  0  0
  141.0730   71.5160  225.7360 C   0  0  0  0  0  0  0  0  0  0  0  0
  141.0710   71.5720  227.2440 C   0  0  0  0  0  0  0  0  0  0  0  0
  140.9870   70.2050  227.8770 C   0  0  0  0  0  0  0  0  0  0  0  0
  139.7040   69.5570  227.4480 C   0  0  0  0  0  0  0  0  0  0  0  0
  139.7090   69.4280  225.9500 C   0  0  0  0  0  0  0  0  0  0  0  0
  138.8119   68.7910  224.6013 H   0  0  0  0  0  0  0  0  0  0  0  0
  138.1216   69.3954  223.0570 H   0  0  0  0  0  0  0  0  0  0  0  0
  139.6864   68.5133  223.0570 H   0  0  0  0  0  0  0  0  0  0  0  0
  140.8410   70.5651  223.4462 H   0  0  0  0  0  0  0  0  0  0  0  0
  138.0630   71.3630  222.8690 H   0  0  0  0  0  0  0  0  0  0  0  0
  139.1345   73.4399  220.6657 H   0  0  0  0  0  0  0  0  0  0  0  0
  137.9936   73.6985  222.0245 H   0  0  0  0  0  0  0  0  0  0  0  0
  140.6860   75.1310  221.8620 H   0  0  0  0  0  0  0  0  0  0  0  0
  137.4496   78.2622  222.8492 H   0  0  0  0  0  0  0  0  0  0  0  0
  138.2973   80.5593  223.3094 H   0  0  0  0  0  0  0  0  0  0  0  0
  140.1368   82.0124  223.6050 H   0  0  0  0  0  0  0  0  0  0  0  0
  142.6212   82.3908  223.6815 H   0  0  0  0  0  0  0  0  0  0  0  0
  144.1444   80.4591  223.2966 H   0  0  0  0  0  0  0  0  0  0  0  0
  143.2686   78.2093  222.8437 H   0  0  0  0  0  0  0  0  0  0  0  0
  138.9961   71.4566  225.5530 H   0  0  0  0  0  0  0  0  0  0  0  0
  141.9654   70.9760  225.3867 H   0  0  0  0  0  0  0  0  0  0  0  0
  141.0880   72.5353  225.3228 H   0  0  0  0  0  0  0  0  0  0  0  0
  141.9987   72.0588  227.5794 H   0  0  0  0  0  0  0  0  0  0  0  0
  140.1799   72.1374  227.5544 H   0  0  0  0  0  0  0  0  0  0  0  0
  141.8395   69.5919  227.5493 H   0  0  0  0  0  0  0  0  0  0  0  0
  141.0139   70.2960  228.9729 H   0  0  0  0  0  0  0  0  0  0  0  0
  139.6213   68.5601  227.9055 H   0  0  0  0  0  0  0  0  0  0  0  0
  138.8482   70.1688  227.7696 H   0  0  0  0  0  0  0  0  0  0  0  0
  140.5621   68.8032  225.6469 H   0  0  0  0  0  0  0  0  0  0  0  0
  138.7597   68.9682  225.6378 H   0  0  0  0  0  0  0  0  0  0  0  0
  1  2  1  0
  2  3  1  0
  3  4  1  0
  4  5  2  0
  4  6  1  0
  6  7  1  0
  7  8  1  0
  8  9  2  0
  8 10  1  0
 10 11  2  0
 11 12  1  0
 12 13  2  0
 13 14  1  0
 14 15  2  0
 15 16  1  0
 16 17  2  0
 17 18  1  0
 18 19  2  0
  2 20  1  0
 20 21  1  0
 21 22  1  0
 22 23  1  0
 23 24  1  0
 24 25  1  0
 19 10  1  0
 25 20  1  0
 18 13  1  0
  1 26  1  0
  1 27  1  0
  1 28  1  0
  2 29  1  6
  3 30  1  0
  6 31  1  0
  6 32  1  0
  7 33  1  0
 11 34  1  0
 12 35  1  0
 14 36  1  0
 15 37  1  0
 16 38  1  0
 17 39  1  0
 20 40  1  0
 21 41  1  0
 21 42  1  0
 22 43  1  0
 22 44  1  0
 23 45  1  0
 23 46  1  0
 24 47  1  0
 24 48  1  0
 25 49  1  0
 25 50  1  0
M  END
>  <smiles>  (15) 
C[C@@H](NC(=O)CNC(=O)c1ccc2ccccc2n1)C1CCCCC1

>  <score_type>  (15) 
oracle

>  <origin>  (15) 
autodockgpu

>  <m_score__min__energy>  (15) 
-9.0700000000000003

>  <m_primary>  (15) 
energy

>  <rmsd>  (15) 
10.317982195906463

>  <m_score__min__rmsd>  (15) 
10.317982195906463

>  <meeko>  (15) 
{"free_energy": -8.23, "intermolecular_energy": -9.73, "internal_energy": -1.36, "cluster_size": 24, "cluster_id": 1, "rank_in_cluster": 22}

>  <energy>  (15) 
-8.59

>  <cluster_rmsd>  (15) 
0.92

>  <cluster>  (15) 
1

$$$$

     RDKit          3D

 50 52  0  0  0  0  0  0  0  0999 V2000
  140.1860   78.7050  219.5550 C   0  0  0  0  0  0  0  0  0  0  0  0
  140.0810   77.9360  220.8770 C   0  0  1  0  0  0  0  0  0  0  0  0
  140.2270   76.5480  220.5440 N   0  0  0  0  0  0  0  0  0  0  0  0
  140.0030   75.5660  221.5510 C   0  0  0  0  0  0  0  0  0  0  0  0
  139.6840   75.9980  222.6930 O   0  0  0  0  0  0  0  0  0  0  0  0
  140.1470   74.1240  221.2370 C   0  0  0  0  0  0  0  0  0  0  0  0
  139.9600   73.3530  222.4540 N   0  0  0  0  0  0  0  0  0  0  0  0
  140.3240   71.9960  222.4620 C   0  0  0  0  0  0  0  0  0  0  0  0
  140.8090   71.4680  221.4070 O   0  0  0  0  0  0  0  0  0  0  0  0
  140.1570   71.1710  223.6620 C   0  0  0  0  0  0  0  0  0  0  0  0
  139.5810   69.9250  223.5680 C   0  0  0  0  0  0  0  0  0  0  0  0
  139.3940   69.0940  224.6640 C   0  0  0  0  0  0  0  0  0  0  0  0
  139.8180   69.5760  225.8810 C   0  0  0  0  0  0  0  0  0  0  0  0
  139.6400   68.7570  226.9960 C   0  0  0  0  0  0  0  0  0  0  0  0
  140.0580   69.2150  228.2430 C   0  0  0  0  0  0  0  0  0  0  0  0
  140.6400   70.4780  228.3260 C   0  0  0  0  0  0  0  0  0  0  0  0
  140.8100   71.2750  227.2220 C   0  0  0  0  0  0  0  0  0  0  0  0
  140.4010   70.8320  225.9870 C   0  0  0  0  0  0  0  0  0  0  0  0
  140.5580   71.6030  224.8760 N   0  0  0  0  0  0  0  0  0  0  0  0
  141.1550   78.4920  221.7580 C   0  0  0  0  0  0  0  0  0  0  0  0
  140.7360   78.6120  223.2050 C   0  0  0  0  0  0  0  0  0  0  0  0
  141.8270   79.3240  223.9670 C   0  0  0  0  0  0  0  0  0  0  0  0
  142.1470   80.6830  223.3920 C   0  0  0  0  0  0  0  0  0  0  0  0
  142.6240   80.5040  221.9810 C   0  0  0  0  0  0  0  0  0  0  0  0
  141.5280   79.8550  221.1820 C   0  0  0  0  0  0  0  0  0  0  0  0
  140.3321   79.7751  219.7639 H   0  0  0  0  0  0  0  0  0  0  0  0
  141.0405   78.3244  218.9763 H   0  0  0  0  0  0  0  0  0  0  0  0
  139.2607   78.5674  218.9763 H   0  0  0  0  0  0  0  0  0  0  0  0
  139.1291   78.0369  221.4190 H   0  0  0  0  0  0  0  0  0  0  0  0
  140.4930   76.3000  219.5690 H   0  0  0  0  0  0  0  0  0  0  0  0
  139.3897   73.8309  220.4949 H   0  0  0  0  0  0  0  0  0  0  0  0
  141.1491   73.9318  220.8261 H   0  0  0  0  0  0  0  0  0  0  0  0
  139.5590   73.7990  223.3170 H   0  0  0  0  0  0  0  0  0  0  0  0
  139.2537   69.5713  222.5792 H   0  0  0  0  0  0  0  0  0  0  0  0
  138.9307   68.1013  224.5647 H   0  0  0  0  0  0  0  0  0  0  0  0
  139.1767   67.7648  226.8920 H   0  0  0  0  0  0  0  0  0  0  0  0
  139.9315   68.5937  229.1419 H   0  0  0  0  0  0  0  0  0  0  0  0
  140.9736   70.8478  229.3068 H   0  0  0  0  0  0  0  0  0  0  0  0
  141.2731   72.2674  227.3254 H   0  0  0  0  0  0  0  0  0  0  0  0
  142.0136   77.8045  221.7680 H   0  0  0  0  0  0  0  0  0  0  0  0
  139.8009   79.1873  223.2731 H   0  0  0  0  0  0  0  0  0  0  0  0
  140.5720   77.6116  223.6320 H   0  0  0  0  0  0  0  0  0  0  0  0
  141.5025   79.4507  225.0104 H   0  0  0  0  0  0  0  0  0  0  0  0
  142.7371   78.7102  223.8960 H   0  0  0  0  0  0  0  0  0  0  0  0
  141.2443   81.3115  223.4013 H   0  0  0  0  0  0  0  0  0  0  0  0
  142.9272   81.1721  223.9938 H   0  0  0  0  0  0  0  0  0  0  0  0
  142.8692   81.4840  221.5457 H   0  0  0  0  0  0  0  0  0  0  0  0
  143.5241   79.8719  221.9663 H   0  0  0  0  0  0  0  0  0  0  0  0
  140.6408   80.5051  221.1965 H   0  0  0  0  0  0  0  0  0  0  0  0
  141.8876   79.7104  220.1525 H   0  0  0  0  0  0  0  0  0  0  0  0
  1  2  1  0
  2  3  1  0
  3  4  1  0
  4  5  2  0
  4  6  1  0
  6  7  1  0
  7  8  1  0
  8  9  2  0
  8 10  1  0
 10 11  2  0
 11 12  1  0
 12 13  2  0
 13 14  1  0
 14 15  2  0
 15 16  1  0
 16 17  2  0
 17 18  1  0
 18 19  2  0
  2 20  1  0
 20 21  1  0
 21 22  1  0
 22 23  1  0
 23 24  1  0
 24 25  1  0
 19 10  1  0
 25 20  1  0
 18 13  1  0
  1 26  1  0
  1 27  1  0
  1 28  1  0
  2 29  1  1
  3 30  1  0
  6 31  1  0
  6 32  1  0
  7 33  1  0
 11 34  1  0
 12 35  1  0
 14 36  1  0
 15 37  1  0
 16 38  1  0
 17 39  1  0
 20 40  1  0
 21 41  1  0
 21 42  1  0
 22 43  1  0
 22 44  1  0
 23 45  1  0
 23 46  1  0
 24 47  1  0
 24 48  1  0
 25 49  1  0
 25 50  1  0
M  END
>  <smiles>  (16) 
C[C@@H](NC(=O)CNC(=O)c1ccc2ccccc2n1)C1CCCCC1

>  <score_type>  (16) 
oracle

>  <origin>  (16) 
autodockgpu

>  <m_score__min__energy>  (16) 
-9.0700000000000003

>  <m_primary>  (16) 
energy

>  <rmsd>  (16) 
3.9722448266115187

>  <m_score__min__rmsd>  (16) 
3.9722448266115187

>  <meeko>  (16) 
{"free_energy": -8.21, "intermolecular_energy": -9.7, "internal_energy": -1.44, "cluster_size": 24, "cluster_id": 2, "rank_in_cluster": 15}

>  <energy>  (16) 
-8.57

>  <cluster_rmsd>  (16) 
1.06

>  <cluster>  (16) 
1

$$$$

     RDKit          3D

 50 52  0  0  0  0  0  0  0  0999 V2000
  139.0400   79.1530  220.3540 C   0  0  0  0  0  0  0  0  0  0  0  0
  139.7420   78.4480  221.5220 C   0  0  1  0  0  0  0  0  0  0  0  0
  140.0800   77.1360  221.0510 N   0  0  0  0  0  0  0  0  0  0  0  0
  139.5550   75.9990  221.7300 C   0  0  0  0  0  0  0  0  0  0  0  0
  138.8110   76.2330  222.7220 O   0  0  0  0  0  0  0  0  0  0  0  0
  139.8880   74.6300  221.2670 C   0  0  0  0  0  0  0  0  0  0  0  0
  139.6290   73.6900  222.3440 N   0  0  0  0  0  0  0  0  0  0  0  0
  140.4570   72.5620  222.4750 C   0  0  0  0  0  0  0  0  0  0  0  0
  141.4130   72.3840  221.6510 O   0  0  0  0  0  0  0  0  0  0  0  0
  140.2410   71.5810  223.5430 C   0  0  0  0  0  0  0  0  0  0  0  0
  139.5640   70.4130  223.2800 C   0  0  0  0  0  0  0  0  0  0  0  0
  139.3270   69.4430  224.2450 C   0  0  0  0  0  0  0  0  0  0  0  0
  139.8080   69.7010  225.5080 C   0  0  0  0  0  0  0  0  0  0  0  0
  139.5810   68.7400  226.4920 C   0  0  0  0  0  0  0  0  0  0  0  0
  140.0550   68.9700  227.7810 C   0  0  0  0  0  0  0  0  0  0  0  0
  140.7400   70.1560  228.0360 C   0  0  0  0  0  0  0  0  0  0  0  0
  140.9570   71.0950  227.0590 C   0  0  0  0  0  0  0  0  0  0  0  0
  140.4940   70.8760  225.7840 C   0  0  0  0  0  0  0  0  0  0  0  0
  140.6960   71.7920  224.7960 N   0  0  0  0  0  0  0  0  0  0  0  0
  140.9100   79.3150  221.8760 C   0  0  0  0  0  0  0  0  0  0  0  0
  141.6860   78.8090  223.0710 C   0  0  0  0  0  0  0  0  0  0  0  0
  142.7340   79.8310  223.4340 C   0  0  0  0  0  0  0  0  0  0  0  0
  142.1460   81.1920  223.7200 C   0  0  0  0  0  0  0  0  0  0  0  0
  141.4490   81.6790  222.4850 C   0  0  0  0  0  0  0  0  0  0  0  0
  140.3520   80.7110  222.1370 C   0  0  0  0  0  0  0  0  0  0  0  0
  138.3152   79.8809  220.7474 H   0  0  0  0  0  0  0  0  0  0  0  0
  139.7872   79.6755  219.7386 H   0  0  0  0  0  0  0  0  0  0  0  0
  138.5143   78.4080  219.7386 H   0  0  0  0  0  0  0  0  0  0  0  0
  139.1441   78.3153  222.4357 H   0  0  0  0  0  0  0  0  0  0  0  0
  140.7030   77.0540  220.2210 H   0  0  0  0  0  0  0  0  0  0  0  0
  139.2663   74.3737  220.3964 H   0  0  0  0  0  0  0  0  0  0  0  0
  140.9488   74.5827  220.9798 H   0  0  0  0  0  0  0  0  0  0  0  0
  138.8370   73.8470  223.0170 H   0  0  0  0  0  0  0  0  0  0  0  0
  139.1935   70.2394  222.2589 H   0  0  0  0  0  0  0  0  0  0  0  0
  138.7827   68.5160  224.0117 H   0  0  0  0  0  0  0  0  0  0  0  0
  139.0360   67.8146  226.2540 H   0  0  0  0  0  0  0  0  0  0  0  0
  139.8922   68.2317  228.5800 H   0  0  0  0  0  0  0  0  0  0  0  0
  141.1185   70.3455  229.0513 H   0  0  0  0  0  0  0  0  0  0  0  0
  141.5007   72.0214  227.2962 H   0  0  0  0  0  0  0  0  0  0  0  0
  141.6333   79.3137  221.0473 H   0  0  0  0  0  0  0  0  0  0  0  0
  141.0030   78.6612  223.9205 H   0  0  0  0  0  0  0  0  0  0  0  0
  142.1660   77.8496  222.8277 H   0  0  0  0  0  0  0  0  0  0  0  0
  143.2691   79.4834  224.3301 H   0  0  0  0  0  0  0  0  0  0  0  0
  143.4092   79.9352  222.5719 H   0  0  0  0  0  0  0  0  0  0  0  0
  141.4255   81.1182  224.5479 H   0  0  0  0  0  0  0  0  0  0  0  0
  142.9433   81.8945  224.0043 H   0  0  0  0  0  0  0  0  0  0  0  0
  141.0192   82.6744  222.6707 H   0  0  0  0  0  0  0  0  0  0  0  0
  142.1653   81.7485  221.6531 H   0  0  0  0  0  0  0  0  0  0  0  0
  139.6385   80.6617  222.9728 H   0  0  0  0  0  0  0  0  0  0  0  0
  139.8538   81.0636  221.2219 H   0  0  0  0  0  0  0  0  0  0  0  0
  1  2  1  0
  2  3  1  0
  3  4  1  0
  4  5  2  0
  4  6  1  0
  6  7  1  0
  7  8  1  0
  8  9  2  0
  8 10  1  0
 10 11  2  0
 11 12  1  0
 12 13  2  0
 13 14  1  0
 14 15  2  0
 15 16  1  0
 16 17  2  0
 17 18  1  0
 18 19  2  0
  2 20  1  0
 20 21  1  0
 21 22  1  0
 22 23  1  0
 23 24  1  0
 24 25  1  0
 19 10  1  0
 25 20  1  0
 18 13  1  0
  1 26  1  0
  1 27  1  0
  1 28  1  0
  2 29  1  1
  3 30  1  0
  6 31  1  0
  6 32  1  0
  7 33  1  0
 11 34  1  0
 12 35  1  0
 14 36  1  0
 15 37  1  0
 16 38  1  0
 17 39  1  0
 20 40  1  0
 21 41  1  0
 21 42  1  0
 22 43  1  0
 22 44  1  0
 23 45  1  0
 23 46  1  0
 24 47  1  0
 24 48  1  0
 25 49  1  0
 25 50  1  0
M  END
>  <smiles>  (17) 
C[C@@H](NC(=O)CNC(=O)c1ccc2ccccc2n1)C1CCCCC1

>  <score_type>  (17) 
oracle

>  <origin>  (17) 
autodockgpu

>  <m_score__min__energy>  (17) 
-9.0700000000000003

>  <m_primary>  (17) 
energy

>  <rmsd>  (17) 
3.9272332535691388

>  <m_score__min__rmsd>  (17) 
3.9272332535691388

>  <meeko>  (17) 
{"free_energy": -8.27, "intermolecular_energy": -9.76, "internal_energy": -1.27, "cluster_size": 24, "cluster_id": 2, "rank_in_cluster": 14}

>  <energy>  (17) 
-8.49

>  <cluster_rmsd>  (17) 
0.93

>  <cluster>  (17) 
1

$$$$

     RDKit          3D

 50 52  0  0  0  0  0  0  0  0999 V2000
  139.1630   69.2520  224.1140 C   0  0  0  0  0  0  0  0  0  0  0  0
  139.8700   70.6080  224.2230 C   0  0  1  0  0  0  0  0  0  0  0  0
  139.1190   71.5180  223.4080 N   0  0  0  0  0  0  0  0  0  0  0  0
  139.8130   72.4920  222.6340 C   0  0  0  0  0  0  0  0  0  0  0  0
  141.0720   72.4840  222.7240 O   0  0  0  0  0  0  0  0  0  0  0  0
  139.0630   73.4450  221.7820 C   0  0  0  0  0  0  0  0  0  0  0  0
  139.1960   74.7810  222.3370 N   0  0  0  0  0  0  0  0  0  0  0  0
  140.0380   75.7050  221.6940 C   0  0  0  0  0  0  0  0  0  0  0  0
  140.6680   75.3550  220.6420 O   0  0  0  0  0  0  0  0  0  0  0  0
  140.2100   77.0660  222.2110 C   0  0  0  0  0  0  0  0  0  0  0  0
  139.1120   77.8110  222.5720 C   0  0  0  0  0  0  0  0  0  0  0  0
  139.2050   79.1040  223.0680 C   0  0  0  0  0  0  0  0  0  0  0  0
  140.4730   79.6260  223.1900 C   0  0  0  0  0  0  0  0  0  0  0  0
  140.5890   80.9230  223.6870 C   0  0  0  0  0  0  0  0  0  0  0  0
  141.8570   81.4820  223.8230 C   0  0  0  0  0  0  0  0  0  0  0  0
  142.9630   80.7170  223.4550 C   0  0  0  0  0  0  0  0  0  0  0  0
  142.8350   79.4410  222.9670 C   0  0  0  0  0  0  0  0  0  0  0  0
  141.5880   78.8820  222.8300 C   0  0  0  0  0  0  0  0  0  0  0  0
  141.4340   77.6180  222.3480 N   0  0  0  0  0  0  0  0  0  0  0  0
  139.8940   70.9370  225.6830 C   0  0  0  0  0  0  0  0  0  0  0  0
  141.0860   71.7740  226.0860 C   0  0  0  0  0  0  0  0  0  0  0  0
  141.0940   71.9120  227.5890 C   0  0  0  0  0  0  0  0  0  0  0  0
  141.1180   70.5790  228.2950 C   0  0  0  0  0  0  0  0  0  0  0  0
  139.8830   69.8160  227.9190 C   0  0  0  0  0  0  0  0  0  0  0  0
  139.8830   69.6060  226.4300 C   0  0  0  0  0  0  0  0  0  0  0  0
  138.9598   68.8623  225.1224 H   0  0  0  0  0  0  0  0  0  0  0  0
  138.2146   69.3756  223.5707 H   0  0  0  0  0  0  0  0  0  0  0  0
  139.8073   68.5452  223.5707 H   0  0  0  0  0  0  0  0  0  0  0  0
  140.9088   70.6403  223.8628 H   0  0  0  0  0  0  0  0  0  0  0  0
  138.0810   71.4370  223.4060 H   0  0  0  0  0  0  0  0  0  0  0  0
  139.4717   73.4274  220.7609 H   0  0  0  0  0  0  0  0  0  0  0  0
  138.0012   73.1595  221.7506 H   0  0  0  0  0  0  0  0  0  0  0  0
  138.6720   75.0580  223.2060 H   0  0  0  0  0  0  0  0  0  0  0  0
  138.1140   77.3615  222.4627 H   0  0  0  0  0  0  0  0  0  0  0  0
  138.3120   79.6816  223.3490 H   0  0  0  0  0  0  0  0  0  0  0  0
  139.6929   81.4960  223.9674 H   0  0  0  0  0  0  0  0  0  0  0  0
  141.9832   82.5033  224.2117 H   0  0  0  0  0  0  0  0  0  0  0  0
  143.9690   81.1496  223.5591 H   0  0  0  0  0  0  0  0  0  0  0  0
  143.7300   78.8665  222.6859 H   0  0  0  0  0  0  0  0  0  0  0  0
  139.0178   71.5528  225.9341 H   0  0  0  0  0  0  0  0  0  0  0  0
  142.0126   71.2825  225.7544 H   0  0  0  0  0  0  0  0  0  0  0  0
  141.0217   72.7677  225.6186 H   0  0  0  0  0  0  0  0  0  0  0  0
  141.9859   72.4835  227.8854 H   0  0  0  0  0  0  0  0  0  0  0  0
  140.1664   72.4263  227.8808 H   0  0  0  0  0  0  0  0  0  0  0  0
  142.0105   70.0136  227.9888 H   0  0  0  0  0  0  0  0  0  0  0  0
  141.1487   70.7311  229.3840 H   0  0  0  0  0  0  0  0  0  0  0  0
  139.8790   68.8422  228.4305 H   0  0  0  0  0  0  0  0  0  0  0  0
  138.9873   70.3798  228.2188 H   0  0  0  0  0  0  0  0  0  0  0  0
  140.7771   69.0300  226.1492 H   0  0  0  0  0  0  0  0  0  0  0  0
  138.9676   69.0612  226.1559 H   0  0  0  0  0  0  0  0  0  0  0  0
  1  2  1  0
  2  3  1  0
  3  4  1  0
  4  5  2  0
  4  6  1  0
  6  7  1  0
  7  8  1  0
  8  9  2  0
  8 10  1  0
 10 11  2  0
 11 12  1  0
 12 13  2  0
 13 14  1  0
 14 15  2  0
 15 16  1  0
 16 17  2  0
 17 18  1  0
 18 19  2  0
  2 20  1  0
 20 21  1  0
 21 22  1  0
 22 23  1  0
 23 24  1  0
 24 25  1  0
 19 10  1  0
 25 20  1  0
 18 13  1  0
  1 26  1  0
  1 27  1  0
  1 28  1  0
  2 29  1  6
  3 30  1  0
  6 31  1  0
  6 32  1  0
  7 33  1  0
 11 34  1  0
 12 35  1  0
 14 36  1  0
 15 37  1  0
 16 38  1  0
 17 39  1  0
 20 40  1  0
 21 41  1  0
 21 42  1  0
 22 43  1  0
 22 44  1  0
 23 45  1  0
 23 46  1  0
 24 47  1  0
 24 48  1  0
 25 49  1  0
 25 50  1  0
M  END
>  <smiles>  (18) 
C[C@@H](NC(=O)CNC(=O)c1ccc2ccccc2n1)C1CCCCC1

>  <score_type>  (18) 
oracle

>  <origin>  (18) 
autodockgpu

>  <m_score__min__energy>  (18) 
-9.0700000000000003

>  <m_primary>  (18) 
energy

>  <rmsd>  (18) 
10.271727970181274

>  <m_score__min__rmsd>  (18) 
10.271727970181274

>  <meeko>  (18) 
{"free_energy": -8.92, "intermolecular_energy": -10.41, "internal_energy": -0.94, "cluster_size": 24, "cluster_id": 1, "rank_in_cluster": 5}

>  <energy>  (18) 
-8.36

>  <cluster_rmsd>  (18) 
0.95

>  <cluster>  (18) 
1

$$$$

     RDKit          3D

 50 52  0  0  0  0  0  0  0  0999 V2000
  139.7310   78.9710  219.4900 C   0  0  0  0  0  0  0  0  0  0  0  0
  139.9810   78.2520  220.8210 C   0  0  1  0  0  0  0  0  0  0  0  0
  140.2330   76.8790  220.4920 N   0  0  0  0  0  0  0  0  0  0  0  0
  139.9340   75.8690  221.4510 C   0  0  0  0  0  0  0  0  0  0  0  0
  139.4560   76.2640  222.5490 O   0  0  0  0  0  0  0  0  0  0  0  0
  140.1840   74.4410  221.1380 C   0  0  0  0  0  0  0  0  0  0  0  0
  139.9720   73.6500  222.3380 N   0  0  0  0  0  0  0  0  0  0  0  0
  140.4140   72.3160  222.3600 C   0  0  0  0  0  0  0  0  0  0  0  0
  140.9890   71.8260  221.3320 O   0  0  0  0  0  0  0  0  0  0  0  0
  140.2250   71.4710  223.5440 C   0  0  0  0  0  0  0  0  0  0  0  0
  139.6150   70.2440  223.4260 C   0  0  0  0  0  0  0  0  0  0  0  0
  139.4060   69.3970  224.5050 C   0  0  0  0  0  0  0  0  0  0  0  0
  139.8450   69.8430  225.7310 C   0  0  0  0  0  0  0  0  0  0  0  0
  139.6450   69.0070  226.8290 C   0  0  0  0  0  0  0  0  0  0  0  0
  140.0770   69.4270  228.0840 C   0  0  0  0  0  0  0  0  0  0  0  0
  140.6950   70.6720  228.1910 C   0  0  0  0  0  0  0  0  0  0  0  0
  140.8850   71.4860  227.1030 C   0  0  0  0  0  0  0  0  0  0  0  0
  140.4630   71.0790  225.8610 C   0  0  0  0  0  0  0  0  0  0  0  0
  140.6390   71.8680  224.7650 N   0  0  0  0  0  0  0  0  0  0  0  0
  141.1270   78.9700  221.4620 C   0  0  0  0  0  0  0  0  0  0  0  0
  141.3980   78.5150  222.8780 C   0  0  0  0  0  0  0  0  0  0  0  0
  142.4590   79.4060  223.4770 C   0  0  0  0  0  0  0  0  0  0  0  0
  142.0750   80.8660  223.4520 C   0  0  0  0  0  0  0  0  0  0  0  0
  141.8860   81.2850  222.0250 C   0  0  0  0  0  0  0  0  0  0  0  0
  140.7860   80.4570  221.4210 C   0  0  0  0  0  0  0  0  0  0  0  0
  139.3756   79.9933  219.6866 H   0  0  0  0  0  0  0  0  0  0  0  0
  140.6674   79.0127  218.9143 H   0  0  0  0  0  0  0  0  0  0  0  0
  138.9707   78.4228  218.9143 H   0  0  0  0  0  0  0  0  0  0  0  0
  139.1469   78.2613  221.5380 H   0  0  0  0  0  0  0  0  0  0  0  0
  140.6300   76.6610  219.5540 H   0  0  0  0  0  0  0  0  0  0  0  0
  139.4914   74.1093  220.3504 H   0  0  0  0  0  0  0  0  0  0  0  0
  141.2184   74.3130  220.7863 H   0  0  0  0  0  0  0  0  0  0  0  0
  139.4960   74.0640  223.1790 H   0  0  0  0  0  0  0  0  0  0  0  0
  139.2774   69.9193  222.4307 H   0  0  0  0  0  0  0  0  0  0  0  0
  138.9150   68.4198  224.3868 H   0  0  0  0  0  0  0  0  0  0  0  0
  139.1535   68.0307  226.7054 H   0  0  0  0  0  0  0  0  0  0  0  0
  139.9340   68.7914  228.9704 H   0  0  0  0  0  0  0  0  0  0  0  0
  141.0410   71.0123  229.1782 H   0  0  0  0  0  0  0  0  0  0  0  0
  141.3747   72.4634  227.2253 H   0  0  0  0  0  0  0  0  0  0  0  0
  142.0532   78.7486  220.9114 H   0  0  0  0  0  0  0  0  0  0  0  0
  140.4755   78.5863  223.4728 H   0  0  0  0  0  0  0  0  0  0  0  0
  141.7422   77.4702  222.8770 H   0  0  0  0  0  0  0  0  0  0  0  0
  142.6243   79.1033  224.5215 H   0  0  0  0  0  0  0  0  0  0  0  0
  143.3702   79.2914  222.8716 H   0  0  0  0  0  0  0  0  0  0  0  0
  141.1377   81.0125  224.0088 H   0  0  0  0  0  0  0  0  0  0  0  0
  142.8652   81.4711  223.9205 H   0  0  0  0  0  0  0  0  0  0  0  0
  141.6124   82.3497  221.9850 H   0  0  0  0  0  0  0  0  0  0  0  0
  142.8198   81.1345  221.4634 H   0  0  0  0  0  0  0  0  0  0  0  0
  139.8574   80.6277  221.9855 H   0  0  0  0  0  0  0  0  0  0  0  0
  140.6622   80.7566  220.3699 H   0  0  0  0  0  0  0  0  0  0  0  0
  1  2  1  0
  2  3  1  0
  3  4  1  0
  4  5  2  0
  4  6  1  0
  6  7  1  0
  7  8  1  0
  8  9  2  0
  8 10  1  0
 10 11  2  0
 11 12  1  0
 12 13  2  0
 13 14  1  0
 14 15  2  0
 15 16  1  0
 16 17  2  0
 17 18  1  0
 18 19  2  0
  2 20  1  0
 20 21  1  0
 21 22  1  0
 22 23  1  0
 23 24  1  0
 24 25  1  0
 19 10  1  0
 25 20  1  0
 18 13  1  0
  1 26  1  0
  1 27  1  0
  1 28  1  0
  2 29  1  1
  3 30  1  0
  6 31  1  0
  6 32  1  0
  7 33  1  0
 11 34  1  0
 12 35  1  0
 14 36  1  0
 15 37  1  0
 16 38  1  0
 17 39  1  0
 20 40  1  0
 21 41  1  0
 21 42  1  0
 22 43  1  0
 22 44  1  0
 23 45  1  0
 23 46  1  0
 24 47  1  0
 24 48  1  0
 25 49  1  0
 25 50  1  0
M  END
>  <smiles>  (19) 
C[C@@H](NC(=O)CNC(=O)c1ccc2ccccc2n1)C1CCCCC1

>  <score_type>  (19) 
oracle

>  <origin>  (19) 
autodockgpu

>  <m_score__min__energy>  (19) 
-9.0700000000000003

>  <m_primary>  (19) 
energy

>  <rmsd>  (19) 
3.952579806213684

>  <m_score__min__rmsd>  (19) 
3.952579806213684

>  <meeko>  (19) 
{"free_energy": -8.1, "intermolecular_energy": -9.59, "internal_energy": -1.45, "cluster_size": 24, "cluster_id": 2, "rank_in_cluster": 20}

>  <energy>  (19) 
-8.35

>  <cluster_rmsd>  (19) 
0.99

>  <cluster>  (19) 
1

$$$$

     RDKit          3D

 50 52  0  0  0  0  0  0  0  0999 V2000
  139.2820   69.5700  223.8520 C   0  0  0  0  0  0  0  0  0  0  0  0
  139.9720   70.9010  224.1760 C   0  0  1  0  0  0  0  0  0  0  0  0
  139.2430   71.9130  223.4680 N   0  0  0  0  0  0  0  0  0  0  0  0
  139.9200   72.7050  222.4980 C   0  0  0  0  0  0  0  0  0  0  0  0
  141.1450   72.4540  222.3260 O   0  0  0  0  0  0  0  0  0  0  0  0
  139.1920   73.7590  221.7510 C   0  0  0  0  0  0  0  0  0  0  0  0
  139.7660   75.0530  222.0780 N   0  0  0  0  0  0  0  0  0  0  0  0
  138.9030   76.1230  222.3760 C   0  0  0  0  0  0  0  0  0  0  0  0
  137.6410   75.9390  222.3520 O   0  0  0  0  0  0  0  0  0  0  0  0
  139.4270   77.4500  222.7130 C   0  0  0  0  0  0  0  0  0  0  0  0
  138.5630   78.4740  223.0250 C   0  0  0  0  0  0  0  0  0  0  0  0
  138.9920   79.7520  223.3520 C   0  0  0  0  0  0  0  0  0  0  0  0
  140.3520   79.9620  223.3550 C   0  0  0  0  0  0  0  0  0  0  0  0
  140.8060   81.2400  223.6820 C   0  0  0  0  0  0  0  0  0  0  0  0
  142.1760   81.4870  223.6940 C   0  0  0  0  0  0  0  0  0  0  0  0
  143.0420   80.4420  223.3780 C   0  0  0  0  0  0  0  0  0  0  0  0
  142.5840   79.1890  223.0570 C   0  0  0  0  0  0  0  0  0  0  0  0
  141.2330   78.9360  223.0430 C   0  0  0  0  0  0  0  0  0  0  0  0
  140.7520   77.7010  222.7280 N   0  0  0  0  0  0  0  0  0  0  0  0
  139.9400   71.0220  225.6680 C   0  0  0  0  0  0  0  0  0  0  0  0
  141.1050   71.8060  226.2270 C   0  0  0  0  0  0  0  0  0  0  0  0
  141.0590   71.7330  227.7330 C   0  0  0  0  0  0  0  0  0  0  0  0
  141.0770   70.3130  228.2470 C   0  0  0  0  0  0  0  0  0  0  0  0
  139.8670   69.6000  227.7230 C   0  0  0  0  0  0  0  0  0  0  0  0
  139.9220   69.6000  226.2200 C   0  0  0  0  0  0  0  0  0  0  0  0
  139.0162   69.0573  224.7882 H   0  0  0  0  0  0  0  0  0  0  0  0
  138.3701   69.7624  223.2677 H   0  0  0  0  0  0  0  0  0  0  0  0
  139.9648   68.9357  223.2677 H   0  0  0  0  0  0  0  0  0  0  0  0
  141.0230   70.9882  223.8631 H   0  0  0  0  0  0  0  0  0  0  0  0
  138.2330   72.0370  223.6870 H   0  0  0  0  0  0  0  0  0  0  0  0
  139.2856   73.5765  220.6703 H   0  0  0  0  0  0  0  0  0  0  0  0
  138.1278   73.7437  222.0290 H   0  0  0  0  0  0  0  0  0  0  0  0
  140.8070   75.1920  222.0940 H   0  0  0  0  0  0  0  0  0  0  0  0
  137.4821   78.2700  223.0147 H   0  0  0  0  0  0  0  0  0  0  0  0
  138.2819   80.5558  223.5962 H   0  0  0  0  0  0  0  0  0  0  0  0
  140.0922   82.0404  223.9267 H   0  0  0  0  0  0  0  0  0  0  0  0
  142.5659   82.4840  223.9471 H   0  0  0  0  0  0  0  0  0  0  0  0
  144.1263   80.6273  223.3861 H   0  0  0  0  0  0  0  0  0  0  0  0
  143.2969   78.3882  222.8112 H   0  0  0  0  0  0  0  0  0  0  0  0
  139.0467   71.5878  225.9711 H   0  0  0  0  0  0  0  0  0  0  0  0
  142.0496   71.3746  225.8642 H   0  0  0  0  0  0  0  0  0  0  0  0
  141.0422   72.8546  225.9005 H   0  0  0  0  0  0  0  0  0  0  0  0
  141.9322   72.2653  228.1382 H   0  0  0  0  0  0  0  0  0  0  0  0
  140.1150   72.1935  228.0600 H   0  0  0  0  0  0  0  0  0  0  0  0
  141.9874   69.8039  227.8978 H   0  0  0  0  0  0  0  0  0  0  0  0
  141.0676   70.3111  229.3470 H   0  0  0  0  0  0  0  0  0  0  0  0
  139.8582   68.5642  228.0933 H   0  0  0  0  0  0  0  0  0  0  0  0
  138.9539   70.1091  228.0652 H   0  0  0  0  0  0  0  0  0  0  0  0
  140.8335   69.0773  225.8944 H   0  0  0  0  0  0  0  0  0  0  0  0
  139.0249   69.0900  225.8389 H   0  0  0  0  0  0  0  0  0  0  0  0
  1  2  1  0
  2  3  1  0
  3  4  1  0
  4  5  2  0
  4  6  1  0
  6  7  1  0
  7  8  1  0
  8  9  2  0
  8 10  1  0
 10 11  2  0
 11 12  1  0
 12 13  2  0
 13 14  1  0
 14 15  2  0
 15 16  1  0
 16 17  2  0
 17 18  1  0
 18 19  2  0
  2 20  1  0
 20 21  1  0
 21 22  1  0
 22 23  1  0
 23 24  1  0
 24 25  1  0
 19 10  1  0
 25 20  1  0
 18 13  1  0
  1 26  1  0
  1 27  1  0
  1 28  1  0
  2 29  1  6
  3 30  1  0
  6 31  1  0
  6 32  1  0
  7 33  1  0
 11 34  1  0
 12 35  1  0
 14 36  1  0
 15 37  1  0
 16 38  1  0
 17 39  1  0
 20 40  1  0
 21 41  1  0
 21 42  1  0
 22 43  1  0
 22 44  1  0
 23 45  1  0
 23 46  1  0
 24 47  1  0
 24 48  1  0
 25 49  1  0
 25 50  1  0
M  END
>  <smiles>  (20) 
C[C@@H](NC(=O)CNC(=O)c1ccc2ccccc2n1)C1CCCCC1

>  <score_type>  (20) 
oracle

>  <origin>  (20) 
autodockgpu

>  <m_score__min__energy>  (20) 
-9.0700000000000003

>  <m_primary>  (20) 
energy

>  <rmsd>  (20) 
10.261562758267475

>  <m_score__min__rmsd>  (20) 
10.261562758267475

>  <meeko>  (20) 
{"free_energy": -8.59, "intermolecular_energy": -10.08, "internal_energy": -1.24, "cluster_size": 24, "cluster_id": 1, "rank_in_cluster": 15}

>  <energy>  (20) 
-8.35

>  <cluster_rmsd>  (20) 
0.99

>  <cluster>  (20) 
1

$$$$

     RDKit          3D

 50 52  0  0  0  0  0  0  0  0999 V2000
  139.1830   68.8650  224.1990 C   0  0  0  0  0  0  0  0  0  0  0  0
  139.8370   70.2500  224.1360 C   0  0  1  0  0  0  0  0  0  0  0  0
  139.0430   71.0260  223.2280 N   0  0  0  0  0  0  0  0  0  0  0  0
  139.5640   72.2540  222.7260 C   0  0  0  0  0  0  0  0  0  0  0  0
  140.7160   72.5780  223.1260 O   0  0  0  0  0  0  0  0  0  0  0  0
  138.7660   73.0770  221.7860 C   0  0  0  0  0  0  0  0  0  0  0  0
  138.8060   74.4630  222.2210 N   0  0  0  0  0  0  0  0  0  0  0  0
  139.9470   75.2320  221.9360 C   0  0  0  0  0  0  0  0  0  0  0  0
  140.9220   74.7030  221.3060 O   0  0  0  0  0  0  0  0  0  0  0  0
  140.0420   76.6350  222.3510 C   0  0  0  0  0  0  0  0  0  0  0  0
  138.9000   77.3640  222.5860 C   0  0  0  0  0  0  0  0  0  0  0  0
  138.9200   78.6940  222.9820 C   0  0  0  0  0  0  0  0  0  0  0  0
  140.1600   79.2720  223.1350 C   0  0  0  0  0  0  0  0  0  0  0  0
  140.2030   80.6080  223.5320 C   0  0  0  0  0  0  0  0  0  0  0  0
  141.4410   81.2230  223.6970 C   0  0  0  0  0  0  0  0  0  0  0  0
  142.5920   80.4740  223.4570 C   0  0  0  0  0  0  0  0  0  0  0  0
  142.5360   79.1600  223.0660 C   0  0  0  0  0  0  0  0  0  0  0  0
  141.3190   78.5450  222.9020 C   0  0  0  0  0  0  0  0  0  0  0  0
  141.2360   77.2420  222.5140 N   0  0  0  0  0  0  0  0  0  0  0  0
  139.8600   70.7520  225.5460 C   0  0  0  0  0  0  0  0  0  0  0  0
  141.1010   71.5520  225.8740 C   0  0  0  0  0  0  0  0  0  0  0  0
  141.0950   71.8710  227.3480 C   0  0  0  0  0  0  0  0  0  0  0  0
  141.0160   70.6340  228.2110 C   0  0  0  0  0  0  0  0  0  0  0  0
  139.7380   69.9150  227.8990 C   0  0  0  0  0  0  0  0  0  0  0  0
  139.7460   69.5260  226.4470 C   0  0  0  0  0  0  0  0  0  0  0  0
  139.0448   68.5723  225.2503 H   0  0  0  0  0  0  0  0  0  0  0  0
  138.2053   68.8979  223.6960 H   0  0  0  0  0  0  0  0  0  0  0  0
  139.8296   68.1309  223.6960 H   0  0  0  0  0  0  0  0  0  0  0  0
  140.8707   70.2790  223.7611 H   0  0  0  0  0  0  0  0  0  0  0  0
  138.1040   70.6660  222.9620 H   0  0  0  0  0  0  0  0  0  0  0  0
  139.1889   72.9956  220.7738 H   0  0  0  0  0  0  0  0  0  0  0  0
  137.7252   72.7215  221.7715 H   0  0  0  0  0  0  0  0  0  0  0  0
  137.9960   74.8880  222.7400 H   0  0  0  0  0  0  0  0  0  0  0  0
  137.9259   76.8704  222.4541 H   0  0  0  0  0  0  0  0  0  0  0  0
  137.9929   79.2572  223.1642 H   0  0  0  0  0  0  0  0  0  0  0  0
  139.2731   81.1673  223.7120 H   0  0  0  0  0  0  0  0  0  0  0  0
  141.5094   82.2755  224.0095 H   0  0  0  0  0  0  0  0  0  0  0  0
  143.5749   80.9509  223.5850 H   0  0  0  0  0  0  0  0  0  0  0  0
  143.4649   78.5997  222.8841 H   0  0  0  0  0  0  0  0  0  0  0  0
  139.0240   71.4501  225.7000 H   0  0  0  0  0  0  0  0  0  0  0  0
  141.9969   70.9637  225.6262 H   0  0  0  0  0  0  0  0  0  0  0  0
  141.1120   72.4835  225.2890 H   0  0  0  0  0  0  0  0  0  0  0  0
  142.0195   72.4138  227.5945 H   0  0  0  0  0  0  0  0  0  0  0  0
  140.2006   72.4775  227.5534 H   0  0  0  0  0  0  0  0  0  0  0  0
  141.8724   69.9776  227.9973 H   0  0  0  0  0  0  0  0  0  0  0  0
  141.0396   70.9150  229.2742 H   0  0  0  0  0  0  0  0  0  0  0  0
  139.6589   69.0129  228.5235 H   0  0  0  0  0  0  0  0  0  0  0  0
  138.8791   70.5700  228.1068 H   0  0  0  0  0  0  0  0  0  0  0  0
  140.6023   68.8618  226.2586 H   0  0  0  0  0  0  0  0  0  0  0  0
  138.7994   69.0141  226.2192 H   0  0  0  0  0  0  0  0  0  0  0  0
  1  2  1  0
  2  3  1  0
  3  4  1  0
  4  5  2  0
  4  6  1  0
  6  7  1  0
  7  8  1  0
  8  9  2  0
  8 10  1  0
 10 11  2  0
 11 12  1  0
 12 13  2  0
 13 14  1  0
 14 15  2  0
 15 16  1  0
 16 17  2  0
 17 18  1  0
 18 19  2  0
  2 20  1  0
 20 21  1  0
 21 22  1  0
 22 23  1  0
 23 24  1  0
 24 25  1  0
 19 10  1  0
 25 20  1  0
 18 13  1  0
  1 26  1  0
  1 27  1  0
  1 28  1  0
  2 29  1  6
  3 30  1  0
  6 31  1  0
  6 32  1  0
  7 33  1  0
 11 34  1  0
 12 35  1  0
 14 36  1  0
 15 37  1  0
 16 38  1  0
 17 39  1  0
 20 40  1  0
 21 41  1  0
 21 42  1  0
 22 43  1  0
 22 44  1  0
 23 45  1  0
 23 46  1  0
 24 47  1  0
 24 48  1  0
 25 49  1  0
 25 50  1  0
M  END
>  <smiles>  (21) 
C[C@@H](NC(=O)CNC(=O)c1ccc2ccccc2n1)C1CCCCC1

>  <score_type>  (21) 
oracle

>  <origin>  (21) 
autodockgpu

>  <m_score__min__energy>  (21) 
-9.0700000000000003

>  <m_primary>  (21) 
energy

>  <rmsd>  (21) 
10.253024227186005

>  <m_score__min__rmsd>  (21) 
10.253024227186005

>  <meeko>  (21) 
{"free_energy": -8.84, "intermolecular_energy": -10.34, "internal_energy": -0.95, "cluster_size": 24, "cluster_id": 1, "rank_in_cluster": 7}

>  <energy>  (21) 
-8.32

>  <cluster_rmsd>  (21) 
1.01

>  <cluster>  (21) 
1

$$$$

     RDKit          3D

 50 52  0  0  0  0  0  0  0  0999 V2000
  139.1880   68.1480  224.6280 C   0  0  0  0  0  0  0  0  0  0  0  0
  139.4960   69.6470  224.5330 C   0  0  1  0  0  0  0  0  0  0  0  0
  138.3990   70.2360  223.8200 N   0  0  0  0  0  0  0  0  0  0  0  0
  138.6010   71.4660  223.1310 C   0  0  0  0  0  0  0  0  0  0  0  0
  139.7580   71.9620  223.1980 O   0  0  0  0  0  0  0  0  0  0  0  0
  137.4850   72.0990  222.3860 C   0  0  0  0  0  0  0  0  0  0  0  0
  136.5890   72.7400  223.3320 N   0  0  0  0  0  0  0  0  0  0  0  0
  135.6290   71.9580  223.9980 C   0  0  0  0  0  0  0  0  0  0  0  0
  135.5630   70.7060  223.7600 O   0  0  0  0  0  0  0  0  0  0  0  0
  134.6990   72.5530  224.9620 C   0  0  0  0  0  0  0  0  0  0  0  0
  133.8440   71.7510  225.6810 C   0  0  0  0  0  0  0  0  0  0  0  0
  132.9390   72.2500  226.6080 C   0  0  0  0  0  0  0  0  0  0  0  0
  132.9310   73.6140  226.7860 C   0  0  0  0  0  0  0  0  0  0  0  0
  132.0300   74.1370  227.7130 C   0  0  0  0  0  0  0  0  0  0  0  0
  131.9950   75.5140  227.9180 C   0  0  0  0  0  0  0  0  0  0  0  0
  132.8660   76.3160  227.1840 C   0  0  0  0  0  0  0  0  0  0  0  0
  133.7480   75.7900  226.2740 C   0  0  0  0  0  0  0  0  0  0  0  0
  133.7900   74.4330  226.0660 C   0  0  0  0  0  0  0  0  0  0  0  0
  134.6560   73.8860  225.1680 N   0  0  0  0  0  0  0  0  0  0  0  0
  139.6610   70.1180  225.9440 C   0  0  0  0  0  0  0  0  0  0  0  0
  140.7120   71.1930  226.0940 C   0  0  0  0  0  0  0  0  0  0  0  0
  140.9060   71.4790  227.5630 C   0  0  0  0  0  0  0  0  0  0  0  0
  141.2870   70.2480  228.3500 C   0  0  0  0  0  0  0  0  0  0  0  0
  140.1830   69.2410  228.2270 C   0  0  0  0  0  0  0  0  0  0  0  0
  140.0140   68.8880  226.7750 C   0  0  0  0  0  0  0  0  0  0  0  0
  139.1273   67.8525  225.6858 H   0  0  0  0  0  0  0  0  0  0  0  0
  138.2281   67.9388  224.1332 H   0  0  0  0  0  0  0  0  0  0  0  0
  139.9876   67.5773  224.1332 H   0  0  0  0  0  0  0  0  0  0  0  0
  140.4128   69.9176  223.9886 H   0  0  0  0  0  0  0  0  0  0  0  0
  137.4830   69.7420  223.8280 H   0  0  0  0  0  0  0  0  0  0  0  0
  137.8856   72.8507  221.6899 H   0  0  0  0  0  0  0  0  0  0  0  0
  136.9379   71.3341  221.8154 H   0  0  0  0  0  0  0  0  0  0  0  0
  136.6520   73.7730  223.5190 H   0  0  0  0  0  0  0  0  0  0  0  0
  133.8787   70.6643  225.5140 H   0  0  0  0  0  0  0  0  0  0  0  0
  132.2635   71.5890  227.1709 H   0  0  0  0  0  0  0  0  0  0  0  0
  131.3570   73.4718  228.2739 H   0  0  0  0  0  0  0  0  0  0  0  0
  131.2962   75.9578  228.6423 H   0  0  0  0  0  0  0  0  0  0  0  0
  132.8461   77.4049  227.3388 H   0  0  0  0  0  0  0  0  0  0  0  0
  134.4207   76.4543  225.7117 H   0  0  0  0  0  0  0  0  0  0  0  0
  138.7263   70.5864  226.2860 H   0  0  0  0  0  0  0  0  0  0  0  0
  141.6600   70.8474  225.6559 H   0  0  0  0  0  0  0  0  0  0  0  0
  140.3898   72.1071  225.5738 H   0  0  0  0  0  0  0  0  0  0  0  0
  141.7037   72.2284  227.6735 H   0  0  0  0  0  0  0  0  0  0  0  0
  139.9475   71.8443  227.9602 H   0  0  0  0  0  0  0  0  0  0  0  0
  142.2201   69.8258  227.9488 H   0  0  0  0  0  0  0  0  0  0  0  0
  141.4403   70.5104  229.4072 H   0  0  0  0  0  0  0  0  0  0  0  0
  140.4397   68.3380  228.8003 H   0  0  0  0  0  0  0  0  0  0  0  0
  139.2464   69.6605  228.6228 H   0  0  0  0  0  0  0  0  0  0  0  0
  140.9543   68.4588  226.3986 H   0  0  0  0  0  0  0  0  0  0  0  0
  139.1926   68.1616  226.6871 H   0  0  0  0  0  0  0  0  0  0  0  0
  1  2  1  0
  2  3  1  0
  3  4  1  0
  4  5  2  0
  4  6  1  0
  6  7  1  0
  7  8  1  0
  8  9  2  0
  8 10  1  0
 10 11  2  0
 11 12  1  0
 12 13  2  0
 13 14  1  0
 14 15  2  0
 15 16  1  0
 16 17  2  0
 17 18  1  0
 18 19  2  0
  2 20  1  0
 20 21  1  0
 21 22  1  0
 22 23  1  0
 23 24  1  0
 24 25  1  0
 19 10  1  0
 25 20  1  0
 18 13  1  0
  1 26  1  0
  1 27  1  0
  1 28  1  0
  2 29  1  6
  3 30  1  0
  6 31  1  0
  6 32  1  0
  7 33  1  0
 11 34  1  0
 12 35  1  0
 14 36  1  0
 15 37  1  0
 16 38  1  0
 17 39  1  0
 20 40  1  0
 21 41  1  0
 21 42  1  0
 22 43  1  0
 22 44  1  0
 23 45  1  0
 23 46  1  0
 24 47  1  0
 24 48  1  0
 25 49  1  0
 25 50  1  0
M  END
>  <smiles>  (22) 
C[C@@H](NC(=O)CNC(=O)c1ccc2ccccc2n1)C1CCCCC1

>  <score_type>  (22) 
oracle

>  <origin>  (22) 
autodockgpu

>  <m_score__min__energy>  (22) 
-9.0700000000000003

>  <m_primary>  (22) 
energy

>  <rmsd>  (22) 
10.333833654731396

>  <m_score__min__rmsd>  (22) 
10.333833654731396

>  <meeko>  (22) 
{"free_energy": -7.31, "intermolecular_energy": -8.8, "internal_energy": -2.03, "cluster_size": 2, "cluster_id": 3, "rank_in_cluster": 1}

>  <energy>  (22) 
-8.23

>  <cluster_rmsd>  (22) 
1.05

>  <cluster>  (22) 
1

$$$$

     RDKit          3D

 50 52  0  0  0  0  0  0  0  0999 V2000
  139.5490   69.7180  223.7760 C   0  0  0  0  0  0  0  0  0  0  0  0
  140.2220   71.0370  224.1760 C   0  0  1  0  0  0  0  0  0  0  0  0
  139.5640   72.0650  223.4230 N   0  0  0  0  0  0  0  0  0  0  0  0
  140.2440   72.6630  222.3240 C   0  0  0  0  0  0  0  0  0  0  0  0
  141.4070   72.2350  222.0850 O   0  0  0  0  0  0  0  0  0  0  0  0
  139.5900   73.7290  221.5270 C   0  0  0  0  0  0  0  0  0  0  0  0
  140.1080   75.0190  221.9470 N   0  0  0  0  0  0  0  0  0  0  0  0
  139.2050   76.0680  222.1910 C   0  0  0  0  0  0  0  0  0  0  0  0
  137.9540   75.8700  222.0380 O   0  0  0  0  0  0  0  0  0  0  0  0
  139.6720   77.3910  222.6160 C   0  0  0  0  0  0  0  0  0  0  0  0
  138.7680   78.3430  223.0290 C   0  0  0  0  0  0  0  0  0  0  0  0
  139.1440   79.6130  223.4430 C   0  0  0  0  0  0  0  0  0  0  0  0
  140.4920   79.8910  223.4260 C   0  0  0  0  0  0  0  0  0  0  0  0
  140.8920   81.1620  223.8400 C   0  0  0  0  0  0  0  0  0  0  0  0
  142.2480   81.4770  223.8350 C   0  0  0  0  0  0  0  0  0  0  0  0
  143.1540   80.5050  223.4160 C   0  0  0  0  0  0  0  0  0  0  0  0
  142.7490   79.2580  223.0110 C   0  0  0  0  0  0  0  0  0  0  0  0
  141.4120   78.9390  223.0130 C   0  0  0  0  0  0  0  0  0  0  0  0
  140.9840   77.7080  222.6160 N   0  0  0  0  0  0  0  0  0  0  0  0
  140.0640   71.1390  225.6610 C   0  0  0  0  0  0  0  0  0  0  0  0
  141.2120   71.8580  226.3330 C   0  0  0  0  0  0  0  0  0  0  0  0
  141.0300   71.7660  227.8280 C   0  0  0  0  0  0  0  0  0  0  0  0
  140.9360   70.3410  228.3160 C   0  0  0  0  0  0  0  0  0  0  0  0
  139.7450   69.6940  227.6760 C   0  0  0  0  0  0  0  0  0  0  0  0
  139.9310   69.7120  226.1840 C   0  0  0  0  0  0  0  0  0  0  0  0
  139.2652   69.1618  224.6816 H   0  0  0  0  0  0  0  0  0  0  0  0
  138.6496   69.9313  223.1798 H   0  0  0  0  0  0  0  0  0  0  0  0
  140.2496   69.1149  223.1798 H   0  0  0  0  0  0  0  0  0  0  0  0
  141.2966   71.1173  223.9551 H   0  0  0  0  0  0  0  0  0  0  0  0
  138.6020   72.3450  223.7050 H   0  0  0  0  0  0  0  0  0  0  0  0
  139.8047   73.5753  220.4592 H   0  0  0  0  0  0  0  0  0  0  0  0
  138.5019   73.6963  221.6849 H   0  0  0  0  0  0  0  0  0  0  0  0
  141.1410   75.1710  222.0690 H   0  0  0  0  0  0  0  0  0  0  0  0
  137.6986   78.0854  223.0310 H   0  0  0  0  0  0  0  0  0  0  0  0
  138.4034   80.3587  223.7678 H   0  0  0  0  0  0  0  0  0  0  0  0
  140.1475   81.9036  224.1653 H   0  0  0  0  0  0  0  0  0  0  0  0
  142.5961   82.4703  224.1545 H   0  0  0  0  0  0  0  0  0  0  0  0
  144.2276   80.7447  223.4096 H   0  0  0  0  0  0  0  0  0  0  0  0
  143.4925   78.5155  222.6855 H   0  0  0  0  0  0  0  0  0  0  0  0
  139.1748   71.7428  225.8952 H   0  0  0  0  0  0  0  0  0  0  0  0
  142.1633   71.3862  226.0460 H   0  0  0  0  0  0  0  0  0  0  0  0
  141.2284   72.9127  226.0211 H   0  0  0  0  0  0  0  0  0  0  0  0
  141.8880   72.2499  228.3175 H   0  0  0  0  0  0  0  0  0  0  0  0
  140.0833   72.2667  228.0792 H   0  0  0  0  0  0  0  0  0  0  0  0
  141.8488   69.7934  228.0388 H   0  0  0  0  0  0  0  0  0  0  0  0
  140.8295   70.3249  229.4107 H   0  0  0  0  0  0  0  0  0  0  0  0
  139.6557   68.6548  228.0255 H   0  0  0  0  0  0  0  0  0  0  0  0
  138.8301   70.2416  227.9465 H   0  0  0  0  0  0  0  0  0  0  0  0
  140.8418   69.1503  225.9293 H   0  0  0  0  0  0  0  0  0  0  0  0
  139.0477   69.2514  225.7176 H   0  0  0  0  0  0  0  0  0  0  0  0
  1  2  1  0
  2  3  1  0
  3  4  1  0
  4  5  2  0
  4  6  1  0
  6  7  1  0
  7  8  1  0
  8  9  2  0
  8 10  1  0
 10 11  2  0
 11 12  1  0
 12 13  2  0
 13 14  1  0
 14 15  2  0
 15 16  1  0
 16 17  2  0
 17 18  1  0
 18 19  2  0
  2 20  1  0
 20 21  1  0
 21 22  1  0
 22 23  1  0
 23 24  1  0
 24 25  1  0
 19 10  1  0
 25 20  1  0
 18 13  1  0
  1 26  1  0
  1 27  1  0
  1 28  1  0
  2 29  1  1
  3 30  1  0
  6 31  1  0
  6 32  1  0
  7 33  1  0
 11 34  1  0
 12 35  1  0
 14 36  1  0
 15 37  1  0
 16 38  1  0
 17 39  1  0
 20 40  1  0
 21 41  1  0
 21 42  1  0
 22 43  1  0
 22 44  1  0
 23 45  1  0
 23 46  1  0
 24 47  1  0
 24 48  1  0
 25 49  1  0
 25 50  1  0
M  END
>  <smiles>  (23) 
C[C@@H](NC(=O)CNC(=O)c1ccc2ccccc2n1)C1CCCCC1

>  <score_type>  (23) 
oracle

>  <origin>  (23) 
autodockgpu

>  <m_score__min__energy>  (23) 
-9.0700000000000003

>  <m_primary>  (23) 
energy

>  <rmsd>  (23) 
10.184441091874575

>  <m_score__min__rmsd>  (23) 
10.184441091874575

>  <meeko>  (23) 
{"free_energy": -8.69, "intermolecular_energy": -10.18, "internal_energy": -1.18, "cluster_size": 24, "cluster_id": 1, "rank_in_cluster": 10}

>  <energy>  (23) 
-8.18

>  <cluster_rmsd>  (23) 
1.02

>  <cluster>  (23) 
1

$$$$

     RDKit          3D

 50 52  0  0  0  0  0  0  0  0999 V2000
  139.2020   69.1550  223.8080 C   0  0  0  0  0  0  0  0  0  0  0  0
  139.8180   70.5500  223.9710 C   0  0  1  0  0  0  0  0  0  0  0  0
  138.9940   71.4430  223.2100 N   0  0  0  0  0  0  0  0  0  0  0  0
  139.5920   72.5690  222.5750 C   0  0  0  0  0  0  0  0  0  0  0  0
  140.8370   72.7030  222.7320 O   0  0  0  0  0  0  0  0  0  0  0  0
  138.7650   73.5100  221.7820 C   0  0  0  0  0  0  0  0  0  0  0  0
  138.9250   74.8500  222.3210 N   0  0  0  0  0  0  0  0  0  0  0  0
  139.9340   75.6760  221.7980 C   0  0  0  0  0  0  0  0  0  0  0  0
  140.6880   75.2370  220.8680 O   0  0  0  0  0  0  0  0  0  0  0  0
  140.1410   77.0370  222.3050 C   0  0  0  0  0  0  0  0  0  0  0  0
  139.0660   77.7950  222.7040 C   0  0  0  0  0  0  0  0  0  0  0  0
  139.1930   79.0880  223.1930 C   0  0  0  0  0  0  0  0  0  0  0  0
  140.4700   79.5960  223.2650 C   0  0  0  0  0  0  0  0  0  0  0  0
  140.6200   80.8930  223.7530 C   0  0  0  0  0  0  0  0  0  0  0  0
  141.8990   81.4380  223.8390 C   0  0  0  0  0  0  0  0  0  0  0  0
  142.9810   80.6600  223.4320 C   0  0  0  0  0  0  0  0  0  0  0  0
  142.8200   79.3840  222.9520 C   0  0  0  0  0  0  0  0  0  0  0  0
  141.5620   78.8390  222.8650 C   0  0  0  0  0  0  0  0  0  0  0  0
  141.3760   77.5750  222.3930 N   0  0  0  0  0  0  0  0  0  0  0  0
  139.8450   70.8120  225.4450 C   0  0  0  0  0  0  0  0  0  0  0  0
  141.0740   71.5700  225.8930 C   0  0  0  0  0  0  0  0  0  0  0  0
  141.0750   71.6410  227.4000 C   0  0  0  0  0  0  0  0  0  0  0  0
  141.0260   70.2770  228.0460 C   0  0  0  0  0  0  0  0  0  0  0  0
  139.7580   69.5950  227.6270 C   0  0  0  0  0  0  0  0  0  0  0  0
  139.7610   69.4520  226.1310 C   0  0  0  0  0  0  0  0  0  0  0  0
  139.0102   68.7207  224.8002 H   0  0  0  0  0  0  0  0  0  0  0  0
  138.2554   69.2347  223.2534 H   0  0  0  0  0  0  0  0  0  0  0  0
  139.8986   68.5091  223.2534 H   0  0  0  0  0  0  0  0  0  0  0  0
  140.8460   70.6699  223.5984 H   0  0  0  0  0  0  0  0  0  0  0  0
  137.9750   71.2390  223.1440 H   0  0  0  0  0  0  0  0  0  0  0  0
  139.0919   73.4934  220.7318 H   0  0  0  0  0  0  0  0  0  0  0  0
  137.7076   73.2116  221.8356 H   0  0  0  0  0  0  0  0  0  0  0  0
  138.2970   75.2000  223.0880 H   0  0  0  0  0  0  0  0  0  0  0  0
  138.0594   77.3572  222.6326 H   0  0  0  0  0  0  0  0  0  0  0  0
  138.3180   79.6762  223.5067 H   0  0  0  0  0  0  0  0  0  0  0  0
  139.7419   81.4772  224.0654 H   0  0  0  0  0  0  0  0  0  0  0  0
  142.0513   82.4588  224.2194 H   0  0  0  0  0  0  0  0  0  0  0  0
  143.9951   81.0811  223.4973 H   0  0  0  0  0  0  0  0  0  0  0  0
  143.6968   78.7989  222.6376 H   0  0  0  0  0  0  0  0  0  0  0  0
  138.9982   71.4588  225.7179 H   0  0  0  0  0  0  0  0  0  0  0  0
  141.9780   71.0478  225.5463 H   0  0  0  0  0  0  0  0  0  0  0  0
  141.0636   72.5852  225.4697 H   0  0  0  0  0  0  0  0  0  0  0  0
  141.9915   72.1533  227.7279 H   0  0  0  0  0  0  0  0  0  0  0  0
  140.1718   72.1880  227.7082 H   0  0  0  0  0  0  0  0  0  0  0  0
  141.8920   69.6816  227.7210 H   0  0  0  0  0  0  0  0  0  0  0  0
  141.0543   70.3783  229.1410 H   0  0  0  0  0  0  0  0  0  0  0  0
  139.7004   68.6007  228.0940 H   0  0  0  0  0  0  0  0  0  0  0  0
  138.8891   70.1896  227.9455 H   0  0  0  0  0  0  0  0  0  0  0  0
  140.6278   68.8449  225.8307 H   0  0  0  0  0  0  0  0  0  0  0  0
  138.8220   68.9666  225.8264 H   0  0  0  0  0  0  0  0  0  0  0  0
  1  2  1  0
  2  3  1  0
  3  4  1  0
  4  5  2  0
  4  6  1  0
  6  7  1  0
  7  8  1  0
  8  9  2  0
  8 10  1  0
 10 11  2  0
 11 12  1  0
 12 13  2  0
 13 14  1  0
 14 15  2  0
 15 16  1  0
 16 17  2  0
 17 18  1  0
 18 19  2  0
  2 20  1  0
 20 21  1  0
 21 22  1  0
 22 23  1  0
 23 24  1  0
 24 25  1  0
 19 10  1  0
 25 20  1  0
 18 13  1  0
  1 26  1  0
  1 27  1  0
  1 28  1  0
  2 29  1  6
  3 30  1  0
  6 31  1  0
  6 32  1  0
  7 33  1  0
 11 34  1  0
 12 35  1  0
 14 36  1  0
 15 37  1  0
 16 38  1  0
 17 39  1  0
 20 40  1  0
 21 41  1  0
 21 42  1  0
 22 43  1  0
 22 44  1  0
 23 45  1  0
 23 46  1  0
 24 47  1  0
 24 48  1  0
 25 49  1  0
 25 50  1  0
M  END
>  <smiles>  (24) 
C[C@@H](NC(=O)CNC(=O)c1ccc2ccccc2n1)C1CCCCC1

>  <score_type>  (24) 
oracle

>  <origin>  (24) 
autodockgpu

>  <m_score__min__energy>  (24) 
-9.0700000000000003

>  <m_primary>  (24) 
energy

>  <rmsd>  (24) 
10.284550468858578

>  <m_score__min__rmsd>  (24) 
10.284550468858578

>  <meeko>  (24) 
{"free_energy": -8.92, "intermolecular_energy": -10.41, "internal_energy": -0.95, "cluster_size": 24, "cluster_id": 1, "rank_in_cluster": 6}

>  <energy>  (24) 
-8.16

>  <cluster_rmsd>  (24) 
1.15

>  <cluster>  (24) 
1

$$$$

     RDKit          3D

 50 52  0  0  0  0  0  0  0  0999 V2000
  140.1510   78.8170  219.5760 C   0  0  0  0  0  0  0  0  0  0  0  0
  140.2440   78.1190  220.9380 C   0  0  1  0  0  0  0  0  0  0  0  0
  140.5640   76.7480  220.6640 N   0  0  0  0  0  0  0  0  0  0  0  0
  139.9100   75.7220  221.4040 C   0  0  0  0  0  0  0  0  0  0  0  0
  139.0760   76.1020  222.2710 O   0  0  0  0  0  0  0  0  0  0  0  0
  140.2200   74.2960  221.1430 C   0  0  0  0  0  0  0  0  0  0  0  0
  139.9460   73.5240  222.3430 N   0  0  0  0  0  0  0  0  0  0  0  0
  140.5260   72.2510  222.4800 C   0  0  0  0  0  0  0  0  0  0  0  0
  141.2760   71.7980  221.5530 O   0  0  0  0  0  0  0  0  0  0  0  0
  140.2840   71.4290  223.6690 C   0  0  0  0  0  0  0  0  0  0  0  0
  139.6180   70.2310  223.5560 C   0  0  0  0  0  0  0  0  0  0  0  0
  139.3560   69.4060  224.6410 C   0  0  0  0  0  0  0  0  0  0  0  0
  139.8020   69.8430  225.8680 C   0  0  0  0  0  0  0  0  0  0  0  0
  139.5500   69.0290  226.9710 C   0  0  0  0  0  0  0  0  0  0  0  0
  139.9870   69.4410  228.2270 C   0  0  0  0  0  0  0  0  0  0  0  0
  140.6620   70.6570  228.3300 C   0  0  0  0  0  0  0  0  0  0  0  0
  140.9030   71.4500  227.2360 C   0  0  0  0  0  0  0  0  0  0  0  0
  140.4760   71.0500  225.9930 C   0  0  0  0  0  0  0  0  0  0  0  0
  140.7020   71.8180  224.8920 N   0  0  0  0  0  0  0  0  0  0  0  0
  141.2850   78.8700  221.7090 C   0  0  0  0  0  0  0  0  0  0  0  0
  141.2630   78.5680  223.1900 C   0  0  0  0  0  0  0  0  0  0  0  0
  142.2360   79.4870  223.8850 C   0  0  0  0  0  0  0  0  0  0  0  0
  141.9390   80.9460  223.6360 C   0  0  0  0  0  0  0  0  0  0  0  0
  142.0410   81.2100  222.1630 C   0  0  0  0  0  0  0  0  0  0  0  0
  141.0330   80.3530  221.4500 C   0  0  0  0  0  0  0  0  0  0  0  0
  140.0071   79.8971  219.7266 H   0  0  0  0  0  0  0  0  0  0  0  0
  141.0799   78.6460  219.0121 H   0  0  0  0  0  0  0  0  0  0  0  0
  139.2993   78.4087  219.0121 H   0  0  0  0  0  0  0  0  0  0  0  0
  139.3251   78.1180  221.5427 H   0  0  0  0  0  0  0  0  0  0  0  0
  141.2680   76.5440  219.9250 H   0  0  0  0  0  0  0  0  0  0  0  0
  139.5939   73.9279  220.3169 H   0  0  0  0  0  0  0  0  0  0  0  0
  141.2798   74.1908  220.8679 H   0  0  0  0  0  0  0  0  0  0  0  0
  139.3260   73.9080  223.1000 H   0  0  0  0  0  0  0  0  0  0  0  0
  139.2773   69.9120  222.5599 H   0  0  0  0  0  0  0  0  0  0  0  0
  138.8198   68.4524  224.5265 H   0  0  0  0  0  0  0  0  0  0  0  0
  139.0142   68.0759  226.8510 H   0  0  0  0  0  0  0  0  0  0  0  0
  139.8041   68.8217  229.1175 H   0  0  0  0  0  0  0  0  0  0  0  0
  141.0119   70.9907  229.3180 H   0  0  0  0  0  0  0  0  0  0  0  0
  141.4372   72.4043  227.3543 H   0  0  0  0  0  0  0  0  0  0  0  0
  142.2853   78.5610  221.3715 H   0  0  0  0  0  0  0  0  0  0  0  0
  140.2503   78.7329  223.5865 H   0  0  0  0  0  0  0  0  0  0  0  0
  141.5482   77.5198  223.3632 H   0  0  0  0  0  0  0  0  0  0  0  0
  142.1870   79.2977  224.9675 H   0  0  0  0  0  0  0  0  0  0  0  0
  143.2373   79.2781  223.4803 H   0  0  0  0  0  0  0  0  0  0  0  0
  140.9231   81.1824  223.9855 H   0  0  0  0  0  0  0  0  0  0  0  0
  142.6584   81.5746  224.1814 H   0  0  0  0  0  0  0  0  0  0  0  0
  141.8333   82.2713  221.9617 H   0  0  0  0  0  0  0  0  0  0  0  0
  143.0545   80.9712  221.8083 H   0  0  0  0  0  0  0  0  0  0  0  0
  140.0253   80.6130  221.8064 H   0  0  0  0  0  0  0  0  0  0  0  0
  141.1226   80.5372  220.3692 H   0  0  0  0  0  0  0  0  0  0  0  0
  1  2  1  0
  2  3  1  0
  3  4  1  0
  4  5  2  0
  4  6  1  0
  6  7  1  0
  7  8  1  0
  8  9  2  0
  8 10  1  0
 10 11  2  0
 11 12  1  0
 12 13  2  0
 13 14  1  0
 14 15  2  0
 15 16  1  0
 16 17  2  0
 17 18  1  0
 18 19  2  0
  2 20  1  0
 20 21  1  0
 21 22  1  0
 22 23  1  0
 23 24  1  0
 24 25  1  0
 19 10  1  0
 25 20  1  0
 18 13  1  0
  1 26  1  0
  1 27  1  0
  1 28  1  0
  2 29  1  1
  3 30  1  0
  6 31  1  0
  6 32  1  0
  7 33  1  0
 11 34  1  0
 12 35  1  0
 14 36  1  0
 15 37  1  0
 16 38  1  0
 17 39  1  0
 20 40  1  0
 21 41  1  0
 21 42  1  0
 22 43  1  0
 22 44  1  0
 23 45  1  0
 23 46  1  0
 24 47  1  0
 24 48  1  0
 25 49  1  0
 25 50  1  0
M  END
>  <smiles>  (25) 
C[C@@H](NC(=O)CNC(=O)c1ccc2ccccc2n1)C1CCCCC1

>  <score_type>  (25) 
oracle

>  <origin>  (25) 
autodockgpu

>  <m_score__min__energy>  (25) 
-9.0700000000000003

>  <m_primary>  (25) 
energy

>  <rmsd>  (25) 
3.921797137070466

>  <m_score__min__rmsd>  (25) 
3.921797137070466

>  <meeko>  (25) 
{"free_energy": -8.28, "intermolecular_energy": -9.77, "internal_energy": -1.35, "cluster_size": 24, "cluster_id": 2, "rank_in_cluster": 12}

>  <energy>  (25) 
-8.97

>  <cluster_rmsd>  (25) 
0.0

>  <cluster>  (25) 
2

$$$$

     RDKit          3D

 50 52  0  0  0  0  0  0  0  0999 V2000
  139.5520   69.5070  223.9380 C   0  0  0  0  0  0  0  0  0  0  0  0
  140.0470   70.9200  224.2710 C   0  0  1  0  0  0  0  0  0  0  0  0
  139.1840   71.8230  223.5640 N   0  0  0  0  0  0  0  0  0  0  0  0
  139.7230   72.6150  222.5110 C   0  0  0  0  0  0  0  0  0  0  0  0
  140.9520   72.4630  222.2680 O   0  0  0  0  0  0  0  0  0  0  0  0
  138.8560   73.5570  221.7630 C   0  0  0  0  0  0  0  0  0  0  0  0
  139.0090   74.8880  222.3240 N   0  0  0  0  0  0  0  0  0  0  0  0
  140.0070   75.7330  221.8080 C   0  0  0  0  0  0  0  0  0  0  0  0
  140.7570   75.3180  220.8630 O   0  0  0  0  0  0  0  0  0  0  0  0
  140.2070   77.0860  222.3370 C   0  0  0  0  0  0  0  0  0  0  0  0
  139.1270   77.8360  222.7410 C   0  0  0  0  0  0  0  0  0  0  0  0
  139.2480   79.1210  223.2500 C   0  0  0  0  0  0  0  0  0  0  0  0
  140.5230   79.6300  223.3390 C   0  0  0  0  0  0  0  0  0  0  0  0
  140.6670   80.9210  223.8490 C   0  0  0  0  0  0  0  0  0  0  0  0
  141.9430   81.4660  223.9530 C   0  0  0  0  0  0  0  0  0  0  0  0
  143.0300   80.6970  223.5410 C   0  0  0  0  0  0  0  0  0  0  0  0
  142.8760   79.4290  223.0410 C   0  0  0  0  0  0  0  0  0  0  0  0
  141.6200   78.8820  222.9360 C   0  0  0  0  0  0  0  0  0  0  0  0
  141.4400   77.6260  222.4420 N   0  0  0  0  0  0  0  0  0  0  0  0
  139.9920   71.0290  225.7630 C   0  0  0  0  0  0  0  0  0  0  0  0
  141.1590   71.7900  226.3480 C   0  0  0  0  0  0  0  0  0  0  0  0
  141.0880   71.7030  227.8520 C   0  0  0  0  0  0  0  0  0  0  0  0
  141.0770   70.2790  228.3530 C   0  0  0  0  0  0  0  0  0  0  0  0
  139.8650   69.5880  227.8030 C   0  0  0  0  0  0  0  0  0  0  0  0
  139.9440   69.6020  226.3010 C   0  0  0  0  0  0  0  0  0  0  0  0
  139.3592   68.9567  224.8708 H   0  0  0  0  0  0  0  0  0  0  0  0
  138.6232   69.5724  223.3522 H   0  0  0  0  0  0  0  0  0  0  0  0
  140.3185   68.9785  223.3522 H   0  0  0  0  0  0  0  0  0  0  0  0
  141.0766   71.1550  223.9634 H   0  0  0  0  0  0  0  0  0  0  0  0
  138.1830   71.8710  223.8450 H   0  0  0  0  0  0  0  0  0  0  0  0
  139.1509   73.5674  220.7033 H   0  0  0  0  0  0  0  0  0  0  0  0
  137.8061   73.2387  221.8426 H   0  0  0  0  0  0  0  0  0  0  0  0
  138.3860   75.2200  223.1030 H   0  0  0  0  0  0  0  0  0  0  0  0
  138.1219   77.3971  222.6567 H   0  0  0  0  0  0  0  0  0  0  0  0
  138.3697   79.7029  223.5661 H   0  0  0  0  0  0  0  0  0  0  0  0
  139.7855   81.4987  224.1639 H   0  0  0  0  0  0  0  0  0  0  0  0
  142.0905   82.4807  224.3513 H   0  0  0  0  0  0  0  0  0  0  0  0
  144.0424   81.1199  223.6192 H   0  0  0  0  0  0  0  0  0  0  0  0
  143.7568   78.8509  222.7246 H   0  0  0  0  0  0  0  0  0  0  0  0
  139.1027   71.6059  226.0568 H   0  0  0  0  0  0  0  0  0  0  0  0
  142.1028   71.3483  225.9958 H   0  0  0  0  0  0  0  0  0  0  0  0
  141.1167   72.8425  226.0311 H   0  0  0  0  0  0  0  0  0  0  0  0
  141.9623   72.2186  228.2761 H   0  0  0  0  0  0  0  0  0  0  0  0
  140.1454   72.1739  228.1681 H   0  0  0  0  0  0  0  0  0  0  0  0
  141.9855   69.7598  228.0139 H   0  0  0  0  0  0  0  0  0  0  0  0
  141.0497   70.2675  229.4526 H   0  0  0  0  0  0  0  0  0  0  0  0
  139.8358   68.5489  228.1628 H   0  0  0  0  0  0  0  0  0  0  0  0
  138.9537   70.1064  228.1359 H   0  0  0  0  0  0  0  0  0  0  0  0
  140.8527   69.0688  225.9847 H   0  0  0  0  0  0  0  0  0  0  0  0
  139.0455   69.1095  225.9009 H   0  0  0  0  0  0  0  0  0  0  0  0
  1  2  1  0
  2  3  1  0
  3  4  1  0
  4  5  2  0
  4  6  1  0
  6  7  1  0
  7  8  1  0
  8  9  2  0
  8 10  1  0
 10 11  2  0
 11 12  1  0
 12 13  2  0
 13 14  1  0
 14 15  2  0
 15 16  1  0
 16 17  2  0
 17 18  1  0
 18 19  2  0
  2 20  1  0
 20 21  1  0
 21 22  1  0
 22 23  1  0
 23 24  1  0
 24 25  1  0
 19 10  1  0
 25 20  1  0
 18 13  1  0
  1 26  1  0
  1 27  1  0
  1 28  1  0
  2 29  1  6
  3 30  1  0
  6 31  1  0
  6 32  1  0
  7 33  1  0
 11 34  1  0
 12 35  1  0
 14 36  1  0
 15 37  1  0
 16 38  1  0
 17 39  1  0
 20 40  1  0
 21 41  1  0
 21 42  1  0
 22 43  1  0
 22 44  1  0
 23 45  1  0
 23 46  1  0
 24 47  1  0
 24 48  1  0
 25 49  1  0
 25 50  1  0
M  END
>  <smiles>  (26) 
C[C@@H](NC(=O)CNC(=O)c1ccc2ccccc2n1)C1CCCCC1

>  <score_type>  (26) 
oracle

>  <origin>  (26) 
autodockgpu

>  <m_score__min__energy>  (26) 
-9.0700000000000003

>  <m_primary>  (26) 
energy

>  <rmsd>  (26) 
10.22616779622265

>  <m_score__min__rmsd>  (26) 
10.22616779622265

>  <meeko>  (26) 
{"free_energy": -9.04, "intermolecular_energy": -10.53, "internal_energy": -0.91, "cluster_size": 24, "cluster_id": 1, "rank_in_cluster": 2}

>  <energy>  (26) 
-8.91

>  <cluster_rmsd>  (26) 
0.09

>  <cluster>  (26) 
2

$$$$

     RDKit          3D

 50 52  0  0  0  0  0  0  0  0999 V2000
  140.9830   78.8210  219.5040 C   0  0  0  0  0  0  0  0  0  0  0  0
  140.5590   78.0800  220.7780 C   0  0  1  0  0  0  0  0  0  0  0  0
  140.6490   76.6810  220.4750 N   0  0  0  0  0  0  0  0  0  0  0  0
  140.1110   75.7360  221.3950 C   0  0  0  0  0  0  0  0  0  0  0  0
  139.5790   76.2090  222.4370 O   0  0  0  0  0  0  0  0  0  0  0  0
  140.1900   74.2830  221.1090 C   0  0  0  0  0  0  0  0  0  0  0  0
  139.9650   73.5450  222.3400 N   0  0  0  0  0  0  0  0  0  0  0  0
  140.4540   72.2320  222.4450 C   0  0  0  0  0  0  0  0  0  0  0  0
  141.0810   71.7130  221.4630 O   0  0  0  0  0  0  0  0  0  0  0  0
  140.2550   71.4410  223.6640 C   0  0  0  0  0  0  0  0  0  0  0  0
  139.6000   70.2330  223.6030 C   0  0  0  0  0  0  0  0  0  0  0  0
  139.3800   69.4360  224.7180 C   0  0  0  0  0  0  0  0  0  0  0  0
  139.8540   69.9130  225.9190 C   0  0  0  0  0  0  0  0  0  0  0  0
  139.6430   69.1280  227.0520 C   0  0  0  0  0  0  0  0  0  0  0  0
  140.1100   69.5810  228.2830 C   0  0  0  0  0  0  0  0  0  0  0  0
  140.7720   70.8060  228.3320 C   0  0  0  0  0  0  0  0  0  0  0  0
  140.9730   71.5700  227.2100 C   0  0  0  0  0  0  0  0  0  0  0  0
  140.5160   71.1300  225.9910 C   0  0  0  0  0  0  0  0  0  0  0  0
  140.7030   71.8700  224.8620 N   0  0  0  0  0  0  0  0  0  0  0  0
  141.4840   78.5570  221.8530 C   0  0  0  0  0  0  0  0  0  0  0  0
  140.8360   78.6070  223.2180 C   0  0  0  0  0  0  0  0  0  0  0  0
  141.8000   79.2460  224.1870 C   0  0  0  0  0  0  0  0  0  0  0  0
  142.2340   80.6250  223.7530 C   0  0  0  0  0  0  0  0  0  0  0  0
  142.9320   80.5120  222.4310 C   0  0  0  0  0  0  0  0  0  0  0  0
  141.9710   79.9390  221.4270 C   0  0  0  0  0  0  0  0  0  0  0  0
  141.5122   79.7459  219.7767 H   0  0  0  0  0  0  0  0  0  0  0  0
  141.6500   78.1782  218.9107 H   0  0  0  0  0  0  0  0  0  0  0  0
  140.0909   79.0703  218.9107 H   0  0  0  0  0  0  0  0  0  0  0  0
  139.5319   78.2661  221.1251 H   0  0  0  0  0  0  0  0  0  0  0  0
  141.1090   76.3970  219.5850 H   0  0  0  0  0  0  0  0  0  0  0  0
  139.4221   74.0104  220.3701 H   0  0  0  0  0  0  0  0  0  0  0  0
  141.1833   74.0375  220.7051 H   0  0  0  0  0  0  0  0  0  0  0  0
  139.4460   73.9830  223.1430 H   0  0  0  0  0  0  0  0  0  0  0  0
  139.2340   69.8827  222.6266 H   0  0  0  0  0  0  0  0  0  0  0  0
  138.8539   68.4727  224.6455 H   0  0  0  0  0  0  0  0  0  0  0  0
  139.1158   68.1657  226.9744 H   0  0  0  0  0  0  0  0  0  0  0  0
  139.9598   68.9856  229.1956 H   0  0  0  0  0  0  0  0  0  0  0  0
  141.1450   71.1720  229.2999 H   0  0  0  0  0  0  0  0  0  0  0  0
  141.4991   72.5330  227.2862 H   0  0  0  0  0  0  0  0  0  0  0  0
  142.3172   77.8471  221.9615 H   0  0  0  0  0  0  0  0  0  0  0  0
  139.9123   79.2022  223.1678 H   0  0  0  0  0  0  0  0  0  0  0  0
  140.5871   77.5891  223.5527 H   0  0  0  0  0  0  0  0  0  0  0  0
  141.3116   79.3238  225.1696 H   0  0  0  0  0  0  0  0  0  0  0  0
  142.6984   78.6126  224.2282 H   0  0  0  0  0  0  0  0  0  0  0  0
  141.3533   81.2764  223.6527 H   0  0  0  0  0  0  0  0  0  0  0  0
  142.9138   81.0583  224.5014 H   0  0  0  0  0  0  0  0  0  0  0  0
  143.2628   81.5077  222.1006 H   0  0  0  0  0  0  0  0  0  0  0  0
  143.8107   79.8570  222.5255 H   0  0  0  0  0  0  0  0  0  0  0  0
  141.1054   80.6115  221.3350 H   0  0  0  0  0  0  0  0  0  0  0  0
  142.4921   79.8420  220.4631 H   0  0  0  0  0  0  0  0  0  0  0  0
  1  2  1  0
  2  3  1  0
  3  4  1  0
  4  5  2  0
  4  6  1  0
  6  7  1  0
  7  8  1  0
  8  9  2  0
  8 10  1  0
 10 11  2  0
 11 12  1  0
 12 13  2  0
 13 14  1  0
 14 15  2  0
 15 16  1  0
 16 17  2  0
 17 18  1  0
 18 19  2  0
  2 20  1  0
 20 21  1  0
 21 22  1  0
 22 23  1  0
 23 24  1  0
 24 25  1  0
 19 10  1  0
 25 20  1  0
 18 13  1  0
  1 26  1  0
  1 27  1  0
  1 28  1  0
  2 29  1  1
  3 30  1  0
  6 31  1  0
  6 32  1  0
  7 33  1  0
 11 34  1  0
 12 35  1  0
 14 36  1  0
 15 37  1  0
 16 38  1  0
 17 39  1  0
 20 40  1  0
 21 41  1  0
 21 42  1  0
 22 43  1  0
 22 44  1  0
 23 45  1  0
 23 46  1  0
 24 47  1  0
 24 48  1  0
 25 49  1  0
 25 50  1  0
M  END
>  <smiles>  (27) 
C[C@@H](NC(=O)CNC(=O)c1ccc2ccccc2n1)C1CCCCC1

>  <score_type>  (27) 
oracle

>  <origin>  (27) 
autodockgpu

>  <m_score__min__energy>  (27) 
-9.0700000000000003

>  <m_primary>  (27) 
energy

>  <rmsd>  (27) 
3.9268974175273486

>  <m_score__min__rmsd>  (27) 
3.9268974175273486

>  <meeko>  (27) 
{"free_energy": -8.51, "intermolecular_energy": -10.0, "internal_energy": -1.34, "cluster_size": 24, "cluster_id": 2, "rank_in_cluster": 5}

>  <energy>  (27) 
-8.74

>  <cluster_rmsd>  (27) 
0.4

>  <cluster>  (27) 
2

$$$$

     RDKit          3D

 50 52  0  0  0  0  0  0  0  0999 V2000
  139.3190   69.3160  224.0930 C   0  0  0  0  0  0  0  0  0  0  0  0
  139.8850   70.7350  224.2310 C   0  0  1  0  0  0  0  0  0  0  0  0
  139.0510   71.5780  223.4250 N   0  0  0  0  0  0  0  0  0  0  0  0
  139.6570   72.5540  222.5840 C   0  0  0  0  0  0  0  0  0  0  0  0
  140.9170   72.6090  222.6080 O   0  0  0  0  0  0  0  0  0  0  0  0
  138.8200   73.4400  221.7400 C   0  0  0  0  0  0  0  0  0  0  0  0
  138.9080   74.7990  222.2480 N   0  0  0  0  0  0  0  0  0  0  0  0
  140.0090   75.5910  221.8810 C   0  0  0  0  0  0  0  0  0  0  0  0
  140.9070   75.1060  221.1150 O   0  0  0  0  0  0  0  0  0  0  0  0
  140.1500   76.9680  222.3640 C   0  0  0  0  0  0  0  0  0  0  0  0
  139.0360   77.6950  222.7110 C   0  0  0  0  0  0  0  0  0  0  0  0
  139.0990   79.0020  223.1760 C   0  0  0  0  0  0  0  0  0  0  0  0
  140.3540   79.5570  223.2800 C   0  0  0  0  0  0  0  0  0  0  0  0
  140.4410   80.8690  223.7450 C   0  0  0  0  0  0  0  0  0  0  0  0
  141.6960   81.4610  223.8620 C   0  0  0  0  0  0  0  0  0  0  0  0
  142.8190   80.7140  223.5080 C   0  0  0  0  0  0  0  0  0  0  0  0
  142.7200   79.4240  223.0510 C   0  0  0  0  0  0  0  0  0  0  0  0
  141.4860   78.8320  222.9330 C   0  0  0  0  0  0  0  0  0  0  0  0
  141.3610   77.5530  222.4820 N   0  0  0  0  0  0  0  0  0  0  0  0
  139.8670   71.0390  225.6960 C   0  0  0  0  0  0  0  0  0  0  0  0
  141.0520   71.8620  226.1480 C   0  0  0  0  0  0  0  0  0  0  0  0
  141.0160   71.9740  227.6530 C   0  0  0  0  0  0  0  0  0  0  0  0
  141.0110   70.6280  228.3370 C   0  0  0  0  0  0  0  0  0  0  0  0
  139.7830   69.8800  227.9110 C   0  0  0  0  0  0  0  0  0  0  0  0
  139.8260   69.6960  226.4190 C   0  0  0  0  0  0  0  0  0  0  0  0
  139.1491   68.8901  225.0929 H   0  0  0  0  0  0  0  0  0  0  0  0
  138.3668   69.3529  223.5436 H   0  0  0  0  0  0  0  0  0  0  0  0
  140.0352   68.6874  223.5436 H   0  0  0  0  0  0  0  0  0  0  0  0
  140.9176   70.8787  223.8803 H   0  0  0  0  0  0  0  0  0  0  0  0
  138.0190   71.4490  223.4800 H   0  0  0  0  0  0  0  0  0  0  0  0
  139.1822   73.4102  220.7018 H   0  0  0  0  0  0  0  0  0  0  0  0
  137.7742   73.1000  221.7675 H   0  0  0  0  0  0  0  0  0  0  0  0
  138.1630   75.1870  222.8790 H   0  0  0  0  0  0  0  0  0  0  0  0
  138.0488   77.2193  222.6159 H   0  0  0  0  0  0  0  0  0  0  0  0
  138.1932   79.5642  223.4470 H   0  0  0  0  0  0  0  0  0  0  0  0
  139.5325   81.4274  224.0151 H   0  0  0  0  0  0  0  0  0  0  0  0
  141.7991   82.4941  224.2253 H   0  0  0  0  0  0  0  0  0  0  0  0
  143.8147   81.1729  223.5979 H   0  0  0  0  0  0  0  0  0  0  0  0
  143.6274   78.8647  222.7795 H   0  0  0  0  0  0  0  0  0  0  0  0
  138.9872   71.6557  225.9320 H   0  0  0  0  0  0  0  0  0  0  0  0
  141.9851   71.3705  225.8354 H   0  0  0  0  0  0  0  0  0  0  0  0
  141.0076   72.8638  225.6959 H   0  0  0  0  0  0  0  0  0  0  0  0
  141.9021   72.5345  227.9856 H   0  0  0  0  0  0  0  0  0  0  0  0
  140.0831   72.4891  227.9258 H   0  0  0  0  0  0  0  0  0  0  0  0
  141.9088   70.0619  228.0479 H   0  0  0  0  0  0  0  0  0  0  0  0
  141.0103   70.7611  229.4289 H   0  0  0  0  0  0  0  0  0  0  0  0
  139.7578   68.8974  228.4049 H   0  0  0  0  0  0  0  0  0  0  0  0
  138.8823   70.4446  228.1940 H   0  0  0  0  0  0  0  0  0  0  0  0
  140.7246   69.1192  226.1548 H   0  0  0  0  0  0  0  0  0  0  0  0
  138.9158   69.1621  226.1085 H   0  0  0  0  0  0  0  0  0  0  0  0
  1  2  1  0
  2  3  1  0
  3  4  1  0
  4  5  2  0
  4  6  1  0
  6  7  1  0
  7  8  1  0
  8  9  2  0
  8 10  1  0
 10 11  2  0
 11 12  1  0
 12 13  2  0
 13 14  1  0
 14 15  2  0
 15 16  1  0
 16 17  2  0
 17 18  1  0
 18 19  2  0
  2 20  1  0
 20 21  1  0
 21 22  1  0
 22 23  1  0
 23 24  1  0
 24 25  1  0
 19 10  1  0
 25 20  1  0
 18 13  1  0
  1 26  1  0
  1 27  1  0
  1 28  1  0
  2 29  1  6
  3 30  1  0
  6 31  1  0
  6 32  1  0
  7 33  1  0
 11 34  1  0
 12 35  1  0
 14 36  1  0
 15 37  1  0
 16 38  1  0
 17 39  1  0
 20 40  1  0
 21 41  1  0
 21 42  1  0
 22 43  1  0
 22 44  1  0
 23 45  1  0
 23 46  1  0
 24 47  1  0
 24 48  1  0
 25 49  1  0
 25 50  1  0
M  END
>  <smiles>  (28) 
C[C@@H](NC(=O)CNC(=O)c1ccc2ccccc2n1)C1CCCCC1

>  <score_type>  (28) 
oracle

>  <origin>  (28) 
autodockgpu

>  <m_score__min__energy>  (28) 
-9.0700000000000003

>  <m_primary>  (28) 
energy

>  <rmsd>  (28) 
10.203858456975482

>  <m_score__min__rmsd>  (28) 
10.203858456975482

>  <meeko>  (28) 
{"free_energy": -8.83, "intermolecular_energy": -10.32, "internal_energy": -0.94, "cluster_size": 24, "cluster_id": 1, "rank_in_cluster": 9}

>  <energy>  (28) 
-8.59

>  <cluster_rmsd>  (28) 
1.11

>  <cluster>  (28) 
2

$$$$

     RDKit          3D

 50 52  0  0  0  0  0  0  0  0999 V2000
  139.2040   69.2560  224.1160 C   0  0  0  0  0  0  0  0  0  0  0  0
  139.8670   70.6350  224.2270 C   0  0  1  0  0  0  0  0  0  0  0  0
  139.0830   71.5210  223.4160 N   0  0  0  0  0  0  0  0  0  0  0  0
  139.7420   72.5140  222.6360 C   0  0  0  0  0  0  0  0  0  0  0  0
  141.0010   72.5430  222.7150 O   0  0  0  0  0  0  0  0  0  0  0  0
  138.9580   73.4440  221.7880 C   0  0  0  0  0  0  0  0  0  0  0  0
  139.0700   74.7870  222.3310 N   0  0  0  0  0  0  0  0  0  0  0  0
  140.0580   75.6470  221.8190 C   0  0  0  0  0  0  0  0  0  0  0  0
  140.8330   75.2340  220.8940 O   0  0  0  0  0  0  0  0  0  0  0  0
  140.2170   77.0110  222.3300 C   0  0  0  0  0  0  0  0  0  0  0  0
  139.1140   77.7390  222.7100 C   0  0  0  0  0  0  0  0  0  0  0  0
  139.1960   79.0350  223.2020 C   0  0  0  0  0  0  0  0  0  0  0  0
  140.4570   79.5780  223.2980 C   0  0  0  0  0  0  0  0  0  0  0  0
  140.5620   80.8790  223.7890 C   0  0  0  0  0  0  0  0  0  0  0  0
  141.8230   81.4580  223.8990 C   0  0  0  0  0  0  0  0  0  0  0  0
  142.9340   80.7110  223.5120 C   0  0  0  0  0  0  0  0  0  0  0  0
  142.8180   79.4320  223.0280 C   0  0  0  0  0  0  0  0  0  0  0  0
  141.5770   78.8520  222.9180 C   0  0  0  0  0  0  0  0  0  0  0  0
  141.4350   77.5840  222.4410 N   0  0  0  0  0  0  0  0  0  0  0  0
  139.8850   70.9610  225.6870 C   0  0  0  0  0  0  0  0  0  0  0  0
  141.0840   71.7850  226.0990 C   0  0  0  0  0  0  0  0  0  0  0  0
  141.0840   71.9200  227.6020 C   0  0  0  0  0  0  0  0  0  0  0  0
  141.0890   70.5840  228.3060 C   0  0  0  0  0  0  0  0  0  0  0  0
  139.8480   69.8360  227.9200 C   0  0  0  0  0  0  0  0  0  0  0  0
  139.8550   69.6290  226.4310 C   0  0  0  0  0  0  0  0  0  0  0  0
  139.0130   68.8588  225.1238 H   0  0  0  0  0  0  0  0  0  0  0  0
  138.2523   69.3494  223.5723 H   0  0  0  0  0  0  0  0  0  0  0  0
  139.8712   68.5710  223.5723 H   0  0  0  0  0  0  0  0  0  0  0  0
  140.9033   70.7028  223.8645 H   0  0  0  0  0  0  0  0  0  0  0  0
  138.0480   71.4110  223.4230 H   0  0  0  0  0  0  0  0  0  0  0  0
  139.3515   73.4274  220.7609 H   0  0  0  0  0  0  0  0  0  0  0  0
  137.9024   73.1350  221.7749 H   0  0  0  0  0  0  0  0  0  0  0  0
  138.4260   75.1160  223.0940 H   0  0  0  0  0  0  0  0  0  0  0  0
  138.1214   77.2735  222.6202 H   0  0  0  0  0  0  0  0  0  0  0  0
  138.2994   79.5985  223.4996 H   0  0  0  0  0  0  0  0  0  0  0  0
  139.6625   81.4388  224.0847 H   0  0  0  0  0  0  0  0  0  0  0  0
  141.9400   82.4822  224.2828 H   0  0  0  0  0  0  0  0  0  0  0  0
  143.9345   81.1602  223.5970 H   0  0  0  0  0  0  0  0  0  0  0  0
  143.7164   78.8723  222.7288 H   0  0  0  0  0  0  0  0  0  0  0  0
  139.0139   71.5856  225.9340 H   0  0  0  0  0  0  0  0  0  0  0  0
  142.0073   71.2843  225.7722 H   0  0  0  0  0  0  0  0  0  0  0  0
  141.0333   72.7801  225.6330 H   0  0  0  0  0  0  0  0  0  0  0  0
  141.9802   72.4811  227.9051 H   0  0  0  0  0  0  0  0  0  0  0  0
  140.1604   72.4439  227.8890 H   0  0  0  0  0  0  0  0  0  0  0  0
  141.9771   70.0093  228.0043 H   0  0  0  0  0  0  0  0  0  0  0  0
  141.1147   70.7331  229.3955 H   0  0  0  0  0  0  0  0  0  0  0  0
  139.8296   68.8612  228.4294 H   0  0  0  0  0  0  0  0  0  0  0  0
  138.9570   70.4097  228.2150 H   0  0  0  0  0  0  0  0  0  0  0  0
  140.7445   69.0439  226.1546 H   0  0  0  0  0  0  0  0  0  0  0  0
  138.9355   69.0946  226.1501 H   0  0  0  0  0  0  0  0  0  0  0  0
  1  2  1  0
  2  3  1  0
  3  4  1  0
  4  5  2  0
  4  6  1  0
  6  7  1  0
  7  8  1  0
  8  9  2  0
  8 10  1  0
 10 11  2  0
 11 12  1  0
 12 13  2  0
 13 14  1  0
 14 15  2  0
 15 16  1  0
 16 17  2  0
 17 18  1  0
 18 19  2  0
  2 20  1  0
 20 21  1  0
 21 22  1  0
 22 23  1  0
 23 24  1  0
 24 25  1  0
 19 10  1  0
 25 20  1  0
 18 13  1  0
  1 26  1  0
  1 27  1  0
  1 28  1  0
  2 29  1  6
  3 30  1  0
  6 31  1  0
  6 32  1  0
  7 33  1  0
 11 34  1  0
 12 35  1  0
 14 36  1  0
 15 37  1  0
 16 38  1  0
 17 39  1  0
 20 40  1  0
 21 41  1  0
 21 42  1  0
 22 43  1  0
 22 44  1  0
 23 45  1  0
 23 46  1  0
 24 47  1  0
 24 48  1  0
 25 49  1  0
 25 50  1  0
M  END
>  <smiles>  (29) 
C[C@@H](NC(=O)CNC(=O)c1ccc2ccccc2n1)C1CCCCC1

>  <score_type>  (29) 
oracle

>  <origin>  (29) 
autodockgpu

>  <m_score__min__energy>  (29) 
-9.0700000000000003

>  <m_primary>  (29) 
energy

>  <rmsd>  (29) 
10.24595071476974

>  <m_score__min__rmsd>  (29) 
10.24595071476974

>  <meeko>  (29) 
{"free_energy": -9.0, "intermolecular_energy": -10.49, "internal_energy": -0.94, "cluster_size": 24, "cluster_id": 1, "rank_in_cluster": 4}

>  <energy>  (29) 
-8.51

>  <cluster_rmsd>  (29) 
0.93

>  <cluster>  (29) 
2

$$$$

     RDKit          3D

 50 52  0  0  0  0  0  0  0  0999 V2000
  139.5610   69.5490  223.8280 C   0  0  0  0  0  0  0  0  0  0  0  0
  140.1100   70.9130  224.2650 C   0  0  1  0  0  0  0  0  0  0  0  0
  139.3180   71.8980  223.5880 N   0  0  0  0  0  0  0  0  0  0  0  0
  139.8030   72.4640  222.3740 C   0  0  0  0  0  0  0  0  0  0  0  0
  140.9240   72.0470  221.9710 O   0  0  0  0  0  0  0  0  0  0  0  0
  139.0070   73.4850  221.6520 C   0  0  0  0  0  0  0  0  0  0  0  0
  139.2110   74.7770  222.2840 N   0  0  0  0  0  0  0  0  0  0  0  0
  139.8910   75.7820  221.5730 C   0  0  0  0  0  0  0  0  0  0  0  0
  140.3150   75.5410  220.3950 O   0  0  0  0  0  0  0  0  0  0  0  0
  140.1260   77.1040  222.1620 C   0  0  0  0  0  0  0  0  0  0  0  0
  139.0720   77.8350  222.6580 C   0  0  0  0  0  0  0  0  0  0  0  0
  139.2260   79.0910  223.2280 C   0  0  0  0  0  0  0  0  0  0  0  0
  140.5070   79.5910  223.2800 C   0  0  0  0  0  0  0  0  0  0  0  0
  140.6840   80.8510  223.8490 C   0  0  0  0  0  0  0  0  0  0  0  0
  141.9680   81.3860  223.9160 C   0  0  0  0  0  0  0  0  0  0  0  0
  143.0280   80.6360  223.4110 C   0  0  0  0  0  0  0  0  0  0  0  0
  142.8410   79.3960  222.8530 C   0  0  0  0  0  0  0  0  0  0  0  0
  141.5780   78.8610  222.7830 C   0  0  0  0  0  0  0  0  0  0  0  0
  141.3650   77.6330  222.2330 N   0  0  0  0  0  0  0  0  0  0  0  0
  140.0070   70.9320  225.7580 C   0  0  0  0  0  0  0  0  0  0  0  0
  141.1080   71.7280  226.4200 C   0  0  0  0  0  0  0  0  0  0  0  0
  141.0000   71.5520  227.9150 C   0  0  0  0  0  0  0  0  0  0  0  0
  141.0620   70.1030  228.3360 C   0  0  0  0  0  0  0  0  0  0  0  0
  139.9120   69.3730  227.7100 C   0  0  0  0  0  0  0  0  0  0  0  0
  140.0320   69.4770  226.2150 C   0  0  0  0  0  0  0  0  0  0  0  0
  139.3195   68.9489  224.7177 H   0  0  0  0  0  0  0  0  0  0  0  0
  138.6517   69.6953  223.2265 H   0  0  0  0  0  0  0  0  0  0  0  0
  140.3181   69.0246  223.2265 H   0  0  0  0  0  0  0  0  0  0  0  0
  141.1599   71.1163  224.0071 H   0  0  0  0  0  0  0  0  0  0  0  0
  138.4060   72.1720  224.0070 H   0  0  0  0  0  0  0  0  0  0  0  0
  139.3327   73.5323  220.6024 H   0  0  0  0  0  0  0  0  0  0  0  0
  137.9404   73.2182  221.6871 H   0  0  0  0  0  0  0  0  0  0  0  0
  138.8570   74.9640  223.2560 H   0  0  0  0  0  0  0  0  0  0  0  0
  138.0613   77.4048  222.6004 H   0  0  0  0  0  0  0  0  0  0  0  0
  138.3679   79.6579  223.6183 H   0  0  0  0  0  0  0  0  0  0  0  0
  139.8231   81.4139  224.2390 H   0  0  0  0  0  0  0  0  0  0  0  0
  142.1414   82.3784  224.3577 H   0  0  0  0  0  0  0  0  0  0  0  0
  144.0458   81.0502  223.4610 H   0  0  0  0  0  0  0  0  0  0  0  0
  143.7009   78.8319  222.4627 H   0  0  0  0  0  0  0  0  0  0  0  0
  139.0754   71.4356  226.0555 H   0  0  0  0  0  0  0  0  0  0  0  0
  142.0869   71.3645  226.0742 H   0  0  0  0  0  0  0  0  0  0  0  0
  141.0098   72.7922  226.1597 H   0  0  0  0  0  0  0  0  0  0  0  0
  141.8289   72.0937  228.3941 H   0  0  0  0  0  0  0  0  0  0  0  0
  140.0221   71.9476  228.2269 H   0  0  0  0  0  0  0  0  0  0  0  0
  142.0103   69.6594  227.9985 H   0  0  0  0  0  0  0  0  0  0  0  0
  141.0031   70.0274  229.4318 H   0  0  0  0  0  0  0  0  0  0  0  0
  139.9372   68.3152  228.0108 H   0  0  0  0  0  0  0  0  0  0  0  0
  138.9614   69.8162  228.0416 H   0  0  0  0  0  0  0  0  0  0  0  0
  140.9803   69.0181  225.8986 H   0  0  0  0  0  0  0  0  0  0  0  0
  139.1770   68.9551  225.7604 H   0  0  0  0  0  0  0  0  0  0  0  0
  1  2  1  0
  2  3  1  0
  3  4  1  0
  4  5  2  0
  4  6  1  0
  6  7  1  0
  7  8  1  0
  8  9  2  0
  8 10  1  0
 10 11  2  0
 11 12  1  0
 12 13  2  0
 13 14  1  0
 14 15  2  0
 15 16  1  0
 16 17  2  0
 17 18  1  0
 18 19  2  0
  2 20  1  0
 20 21  1  0
 21 22  1  0
 22 23  1  0
 23 24  1  0
 24 25  1  0
 19 10  1  0
 25 20  1  0
 18 13  1  0
  1 26  1  0
  1 27  1  0
  1 28  1  0
  2 29  1  1
  3 30  1  0
  6 31  1  0
  6 32  1  0
  7 33  1  0
 11 34  1  0
 12 35  1  0
 14 36  1  0
 15 37  1  0
 16 38  1  0
 17 39  1  0
 20 40  1  0
 21 41  1  0
 21 42  1  0
 22 43  1  0
 22 44  1  0
 23 45  1  0
 23 46  1  0
 24 47  1  0
 24 48  1  0
 25 49  1  0
 25 50  1  0
M  END
>  <smiles>  (30) 
C[C@@H](NC(=O)CNC(=O)c1ccc2ccccc2n1)C1CCCCC1

>  <score_type>  (30) 
oracle

>  <origin>  (30) 
autodockgpu

>  <m_score__min__energy>  (30) 
-9.0700000000000003

>  <m_primary>  (30) 
energy

>  <rmsd>  (30) 
10.233426713424334

>  <m_score__min__rmsd>  (30) 
10.233426713424334

>  <meeko>  (30) 
{"free_energy": -9.07, "intermolecular_energy": -10.56, "internal_energy": -0.88, "cluster_size": 24, "cluster_id": 1, "rank_in_cluster": 1}

>  <energy>  (30) 
-8.48

>  <cluster_rmsd>  (30) 
0.93

>  <cluster>  (30) 
2

$$$$

     RDKit          3D

 50 52  0  0  0  0  0  0  0  0999 V2000
  140.9420   78.7210  219.4810 C   0  0  0  0  0  0  0  0  0  0  0  0
  140.5670   77.9760  220.7680 C   0  0  1  0  0  0  0  0  0  0  0  0
  140.7040   76.5790  220.4750 N   0  0  0  0  0  0  0  0  0  0  0  0
  140.1720   75.6230  221.3870 C   0  0  0  0  0  0  0  0  0  0  0  0
  139.6040   76.0860  222.4150 O   0  0  0  0  0  0  0  0  0  0  0  0
  140.2990   74.1720  221.1110 C   0  0  0  0  0  0  0  0  0  0  0  0
  140.0520   73.4330  222.3370 N   0  0  0  0  0  0  0  0  0  0  0  0
  140.5020   72.1050  222.4330 C   0  0  0  0  0  0  0  0  0  0  0  0
  141.1140   71.5750  221.4470 O   0  0  0  0  0  0  0  0  0  0  0  0
  140.2810   71.3120  223.6460 C   0  0  0  0  0  0  0  0  0  0  0  0
  139.6320   70.1020  223.5710 C   0  0  0  0  0  0  0  0  0  0  0  0
  139.3900   69.3040  224.6800 C   0  0  0  0  0  0  0  0  0  0  0  0
  139.8380   69.7810  225.8910 C   0  0  0  0  0  0  0  0  0  0  0  0
  139.6060   68.9940  227.0190 C   0  0  0  0  0  0  0  0  0  0  0  0
  140.0450   69.4480  228.2600 C   0  0  0  0  0  0  0  0  0  0  0  0
  140.7020   70.6750  228.3240 C   0  0  0  0  0  0  0  0  0  0  0  0
  140.9240   71.4410  227.2070 C   0  0  0  0  0  0  0  0  0  0  0  0
  140.4940   71.0010  225.9780 C   0  0  0  0  0  0  0  0  0  0  0  0
  140.7020   71.7420  224.8550 N   0  0  0  0  0  0  0  0  0  0  0  0
  141.4930   78.4960  221.8230 C   0  0  0  0  0  0  0  0  0  0  0  0
  140.8700   78.5240  223.2000 C   0  0  0  0  0  0  0  0  0  0  0  0
  141.8260   79.2060  224.1490 C   0  0  0  0  0  0  0  0  0  0  0  0
  142.1930   80.6000  223.7020 C   0  0  0  0  0  0  0  0  0  0  0  0
  142.8680   80.5120  222.3660 C   0  0  0  0  0  0  0  0  0  0  0  0
  141.9120   79.8950  221.3840 C   0  0  0  0  0  0  0  0  0  0  0  0
  141.4230   79.6765  219.7373 H   0  0  0  0  0  0  0  0  0  0  0  0
  141.6383   78.1066  218.8913 H   0  0  0  0  0  0  0  0  0  0  0  0
  140.0338   78.9142  218.8913 H   0  0  0  0  0  0  0  0  0  0  0  0
  139.5397   78.1272  221.1310 H   0  0  0  0  0  0  0  0  0  0  0  0
  141.1910   76.3040  219.5970 H   0  0  0  0  0  0  0  0  0  0  0  0
  139.5640   73.8762  220.3479 H   0  0  0  0  0  0  0  0  0  0  0  0
  141.3116   73.9515  220.7423 H   0  0  0  0  0  0  0  0  0  0  0  0
  139.5460   73.8800  223.1430 H   0  0  0  0  0  0  0  0  0  0  0  0
  139.2890   69.7506  222.5867 H   0  0  0  0  0  0  0  0  0  0  0  0
  138.8671   68.3399  224.5958 H   0  0  0  0  0  0  0  0  0  0  0  0
  139.0844   68.0297  226.9296 H   0  0  0  0  0  0  0  0  0  0  0  0
  139.8770   68.8516  229.1689 H   0  0  0  0  0  0  0  0  0  0  0  0
  141.0536   71.0411  229.2999 H   0  0  0  0  0  0  0  0  0  0  0  0
  141.4453   72.4056  227.2953 H   0  0  0  0  0  0  0  0  0  0  0  0
  142.3578   77.8227  221.9165 H   0  0  0  0  0  0  0  0  0  0  0  0
  139.9217   79.0805  223.1662 H   0  0  0  0  0  0  0  0  0  0  0  0
  140.6698   77.4979  223.5422 H   0  0  0  0  0  0  0  0  0  0  0  0
  141.3542   79.2670  225.1408 H   0  0  0  0  0  0  0  0  0  0  0  0
  142.7506   78.6106  224.1751 H   0  0  0  0  0  0  0  0  0  0  0  0
  141.2839   81.2136  223.6181 H   0  0  0  0  0  0  0  0  0  0  0  0
  142.8696   81.0637  224.4350 H   0  0  0  0  0  0  0  0  0  0  0  0
  143.1491   81.5197  222.0260 H   0  0  0  0  0  0  0  0  0  0  0  0
  143.7756   79.8955  222.4441 H   0  0  0  0  0  0  0  0  0  0  0  0
  141.0169   80.5298  221.3081 H   0  0  0  0  0  0  0  0  0  0  0  0
  142.4172   79.8165  220.4100 H   0  0  0  0  0  0  0  0  0  0  0  0
  1  2  1  0
  2  3  1  0
  3  4  1  0
  4  5  2  0
  4  6  1  0
  6  7  1  0
  7  8  1  0
  8  9  2  0
  8 10  1  0
 10 11  2  0
 11 12  1  0
 12 13  2  0
 13 14  1  0
 14 15  2  0
 15 16  1  0
 16 17  2  0
 17 18  1  0
 18 19  2  0
  2 20  1  0
 20 21  1  0
 21 22  1  0
 22 23  1  0
 23 24  1  0
 24 25  1  0
 19 10  1  0
 25 20  1  0
 18 13  1  0
  1 26  1  0
  1 27  1  0
  1 28  1  0
  2 29  1  1
  3 30  1  0
  6 31  1  0
  6 32  1  0
  7 33  1  0
 11 34  1  0
 12 35  1  0
 14 36  1  0
 15 37  1  0
 16 38  1  0
 17 39  1  0
 20 40  1  0
 21 41  1  0
 21 42  1  0
 22 43  1  0
 22 44  1  0
 23 45  1  0
 23 46  1  0
 24 47  1  0
 24 48  1  0
 25 49  1  0
 25 50  1  0
M  END
>  <smiles>  (31) 
C[C@@H](NC(=O)CNC(=O)c1ccc2ccccc2n1)C1CCCCC1

>  <score_type>  (31) 
oracle

>  <origin>  (31) 
autodockgpu

>  <m_score__min__energy>  (31) 
-9.0700000000000003

>  <m_primary>  (31) 
energy

>  <rmsd>  (31) 
3.945216517384257

>  <m_score__min__rmsd>  (31) 
3.945216517384257

>  <meeko>  (31) 
{"free_energy": -8.46, "intermolecular_energy": -9.95, "internal_energy": -1.39, "cluster_size": 24, "cluster_id": 2, "rank_in_cluster": 9}

>  <energy>  (31) 
-8.48

>  <cluster_rmsd>  (31) 
0.93

>  <cluster>  (31) 
2

$$$$

     RDKit          3D

 50 52  0  0  0  0  0  0  0  0999 V2000
  140.4420   78.6000  219.3900 C   0  0  0  0  0  0  0  0  0  0  0  0
  140.2520   77.8570  220.7180 C   0  0  1  0  0  0  0  0  0  0  0  0
  140.4330   76.4650  220.4270 N   0  0  0  0  0  0  0  0  0  0  0  0
  140.0910   75.4990  221.4170 C   0  0  0  0  0  0  0  0  0  0  0  0
  139.6420   75.9490  222.5070 O   0  0  0  0  0  0  0  0  0  0  0  0
  140.2680   74.0520  221.1450 C   0  0  0  0  0  0  0  0  0  0  0  0
  140.0430   73.3090  222.3730 N   0  0  0  0  0  0  0  0  0  0  0  0
  140.4760   71.9740  222.4480 C   0  0  0  0  0  0  0  0  0  0  0  0
  141.0550   71.4420  221.4430 O   0  0  0  0  0  0  0  0  0  0  0  0
  140.2750   71.1760  223.6620 C   0  0  0  0  0  0  0  0  0  0  0  0
  139.6250   69.9660  223.5930 C   0  0  0  0  0  0  0  0  0  0  0  0
  139.4020   69.1630  224.7030 C   0  0  0  0  0  0  0  0  0  0  0  0
  139.8700   69.6360  225.9080 C   0  0  0  0  0  0  0  0  0  0  0  0
  139.6570   68.8440  227.0360 C   0  0  0  0  0  0  0  0  0  0  0  0
  140.1170   69.2930  228.2710 C   0  0  0  0  0  0  0  0  0  0  0  0
  140.7750   70.5200  228.3290 C   0  0  0  0  0  0  0  0  0  0  0  0
  140.9780   71.2900  227.2120 C   0  0  0  0  0  0  0  0  0  0  0  0
  140.5280   70.8550  225.9890 C   0  0  0  0  0  0  0  0  0  0  0  0
  140.7170   71.6000  224.8650 N   0  0  0  0  0  0  0  0  0  0  0  0
  141.2570   78.4440  221.6590 C   0  0  0  0  0  0  0  0  0  0  0  0
  140.7890   78.4610  223.0960 C   0  0  0  0  0  0  0  0  0  0  0  0
  141.8030   79.2100  223.9260 C   0  0  0  0  0  0  0  0  0  0  0  0
  142.0400   80.6150  223.4270 C   0  0  0  0  0  0  0  0  0  0  0  0
  142.5690   80.5410  222.0250 C   0  0  0  0  0  0  0  0  0  0  0  0
  141.5470   79.8570  221.1610 C   0  0  0  0  0  0  0  0  0  0  0  0
  140.7099   79.6477  219.5911 H   0  0  0  0  0  0  0  0  0  0  0  0
  141.2463   78.1201  218.8132 H   0  0  0  0  0  0  0  0  0  0  0  0
  139.5060   78.5651  218.8132 H   0  0  0  0  0  0  0  0  0  0  0  0
  139.2636   77.9581  221.1901 H   0  0  0  0  0  0  0  0  0  0  0  0
  140.8110   76.2000  219.4940 H   0  0  0  0  0  0  0  0  0  0  0  0
  139.5454   73.7293  220.3810 H   0  0  0  0  0  0  0  0  0  0  0  0
  141.2882   73.8647  220.7789 H   0  0  0  0  0  0  0  0  0  0  0  0
  139.5650   73.7580  223.1940 H   0  0  0  0  0  0  0  0  0  0  0  0
  139.2653   69.6186  222.6132 H   0  0  0  0  0  0  0  0  0  0  0  0
  138.8785   68.1988  224.6238 H   0  0  0  0  0  0  0  0  0  0  0  0
  139.1339   67.8800  226.9513 H   0  0  0  0  0  0  0  0  0  0  0  0
  139.9645   68.6929  229.1802 H   0  0  0  0  0  0  0  0  0  0  0  0
  141.1429   70.8822  229.3003 H   0  0  0  0  0  0  0  0  0  0  0  0
  141.5004   72.2544  227.2954 H   0  0  0  0  0  0  0  0  0  0  0  0
  142.1628   77.8200  221.6639 H   0  0  0  0  0  0  0  0  0  0  0  0
  139.8129   78.9639  223.1615 H   0  0  0  0  0  0  0  0  0  0  0  0
  140.6862   77.4313  223.4690 H   0  0  0  0  0  0  0  0  0  0  0  0
  141.4401   79.2613  224.9631 H   0  0  0  0  0  0  0  0  0  0  0  0
  142.7569   78.6668  223.8555 H   0  0  0  0  0  0  0  0  0  0  0  0
  141.0942   81.1766  223.4373 H   0  0  0  0  0  0  0  0  0  0  0  0
  142.7652   81.1275  224.0762 H   0  0  0  0  0  0  0  0  0  0  0  0
  142.7550   81.5565  221.6453 H   0  0  0  0  0  0  0  0  0  0  0  0
  143.5125   79.9757  222.0093 H   0  0  0  0  0  0  0  0  0  0  0  0
  140.6151   80.4411  221.1775 H   0  0  0  0  0  0  0  0  0  0  0  0
  141.9459   79.7898  220.1381 H   0  0  0  0  0  0  0  0  0  0  0  0
  1  2  1  0
  2  3  1  0
  3  4  1  0
  4  5  2  0
  4  6  1  0
  6  7  1  0
  7  8  1  0
  8  9  2  0
  8 10  1  0
 10 11  2  0
 11 12  1  0
 12 13  2  0
 13 14  1  0
 14 15  2  0
 15 16  1  0
 16 17  2  0
 17 18  1  0
 18 19  2  0
  2 20  1  0
 20 21  1  0
 21 22  1  0
 22 23  1  0
 23 24  1  0
 24 25  1  0
 19 10  1  0
 25 20  1  0
 18 13  1  0
  1 26  1  0
  1 27  1  0
  1 28  1  0
  2 29  1  1
  3 30  1  0
  6 31  1  0
  6 32  1  0
  7 33  1  0
 11 34  1  0
 12 35  1  0
 14 36  1  0
 15 37  1  0
 16 38  1  0
 17 39  1  0
 20 40  1  0
 21 41  1  0
 21 42  1  0
 22 43  1  0
 22 44  1  0
 23 45  1  0
 23 46  1  0
 24 47  1  0
 24 48  1  0
 25 49  1  0
 25 50  1  0
M  END
>  <smiles>  (32) 
C[C@@H](NC(=O)CNC(=O)c1ccc2ccccc2n1)C1CCCCC1

>  <score_type>  (32) 
oracle

>  <origin>  (32) 
autodockgpu

>  <m_score__min__energy>  (32) 
-9.0700000000000003

>  <m_primary>  (32) 
energy

>  <rmsd>  (32) 
3.98883500153059

>  <m_score__min__rmsd>  (32) 
3.98883500153059

>  <meeko>  (32) 
{"free_energy": -8.34, "intermolecular_energy": -9.83, "internal_energy": -1.39, "cluster_size": 24, "cluster_id": 2, "rank_in_cluster": 11}

>  <energy>  (32) 
-8.47

>  <cluster_rmsd>  (32) 
0.94

>  <cluster>  (32) 
2

$$$$

     RDKit          3D

 50 52  0  0  0  0  0  0  0  0999 V2000
  140.2120   78.6210  219.4960 C   0  0  0  0  0  0  0  0  0  0  0  0
  140.0160   77.8610  220.8140 C   0  0  1  0  0  0  0  0  0  0  0  0
  140.1720   76.4710  220.5000 N   0  0  0  0  0  0  0  0  0  0  0  0
  139.9370   75.5000  221.5160 C   0  0  0  0  0  0  0  0  0  0  0  0
  139.5980   75.9440  222.6470 O   0  0  0  0  0  0  0  0  0  0  0  0
  140.0910   74.0550  221.2210 C   0  0  0  0  0  0  0  0  0  0  0  0
  139.9480   73.3020  222.4560 N   0  0  0  0  0  0  0  0  0  0  0  0
  140.2890   71.9390  222.4640 C   0  0  0  0  0  0  0  0  0  0  0  0
  140.7130   71.3890  221.3940 O   0  0  0  0  0  0  0  0  0  0  0  0
  140.1640   71.1310  223.6810 C   0  0  0  0  0  0  0  0  0  0  0  0
  139.5680   69.8920  223.6290 C   0  0  0  0  0  0  0  0  0  0  0  0
  139.4190   69.0780  224.7430 C   0  0  0  0  0  0  0  0  0  0  0  0
  139.9030   69.5700  225.9340 C   0  0  0  0  0  0  0  0  0  0  0  0
  139.7640   68.7680  227.0660 C   0  0  0  0  0  0  0  0  0  0  0  0
  140.2430   69.2350  228.2870 C   0  0  0  0  0  0  0  0  0  0  0  0
  140.8450   70.4910  228.3270 C   0  0  0  0  0  0  0  0  0  0  0  0
  140.9760   71.2720  227.2060 C   0  0  0  0  0  0  0  0  0  0  0  0
  140.5070   70.8180  225.9970 C   0  0  0  0  0  0  0  0  0  0  0  0
  140.6240   71.5730  224.8700 N   0  0  0  0  0  0  0  0  0  0  0  0
  141.0360   78.4170  221.7580 C   0  0  0  0  0  0  0  0  0  0  0  0
  140.4960   78.6420  223.1520 C   0  0  0  0  0  0  0  0  0  0  0  0
  141.5510   79.3440  223.9710 C   0  0  0  0  0  0  0  0  0  0  0  0
  141.9930   80.6500  223.3550 C   0  0  0  0  0  0  0  0  0  0  0  0
  142.5830   80.3660  222.0060 C   0  0  0  0  0  0  0  0  0  0  0  0
  141.5300   79.7240  221.1450 C   0  0  0  0  0  0  0  0  0  0  0  0
  140.4814   79.6655  219.7116 H   0  0  0  0  0  0  0  0  0  0  0  0
  141.0173   78.1470  218.9156 H   0  0  0  0  0  0  0  0  0  0  0  0
  139.2779   78.5955  218.9156 H   0  0  0  0  0  0  0  0  0  0  0  0
  139.0322   77.9711  221.2936 H   0  0  0  0  0  0  0  0  0  0  0  0
  140.4550   76.2110  219.5320 H   0  0  0  0  0  0  0  0  0  0  0  0
  139.3172   73.7402  220.5054 H   0  0  0  0  0  0  0  0  0  0  0  0
  141.0834   73.8685  220.7848 H   0  0  0  0  0  0  0  0  0  0  0  0
  139.5970   73.7660  223.3310 H   0  0  0  0  0  0  0  0  0  0  0  0
  139.1925   69.5302  222.6604 H   0  0  0  0  0  0  0  0  0  0  0  0
  138.9389   68.0905  224.6776 H   0  0  0  0  0  0  0  0  0  0  0  0
  139.2832   67.7812  226.9955 H   0  0  0  0  0  0  0  0  0  0  0  0
  140.1484   68.6268  229.1987 H   0  0  0  0  0  0  0  0  0  0  0  0
  141.2272   70.8684  229.2870 H   0  0  0  0  0  0  0  0  0  0  0  0
  141.4556   72.2595  227.2754 H   0  0  0  0  0  0  0  0  0  0  0  0
  141.8535   77.6919  221.8841 H   0  0  0  0  0  0  0  0  0  0  0  0
  139.5906   79.2647  223.1024 H   0  0  0  0  0  0  0  0  0  0  0  0
  140.2411   77.6777  223.6158 H   0  0  0  0  0  0  0  0  0  0  0  0
  141.1422   79.5474  224.9718 H   0  0  0  0  0  0  0  0  0  0  0  0
  142.4298   78.6840  224.0172 H   0  0  0  0  0  0  0  0  0  0  0  0
  141.1279   81.3208  223.2475 H   0  0  0  0  0  0  0  0  0  0  0  0
  142.7417   81.1352  223.9985 H   0  0  0  0  0  0  0  0  0  0  0  0
  142.9174   81.3060  221.5428 H   0  0  0  0  0  0  0  0  0  0  0  0
  143.4459   79.6915  222.1086 H   0  0  0  0  0  0  0  0  0  0  0  0
  140.6806   80.4153  221.0419 H   0  0  0  0  0  0  0  0  0  0  0  0
  141.9718   79.5022  220.1623 H   0  0  0  0  0  0  0  0  0  0  0  0
  1  2  1  0
  2  3  1  0
  3  4  1  0
  4  5  2  0
  4  6  1  0
  6  7  1  0
  7  8  1  0
  8  9  2  0
  8 10  1  0
 10 11  2  0
 11 12  1  0
 12 13  2  0
 13 14  1  0
 14 15  2  0
 15 16  1  0
 16 17  2  0
 17 18  1  0
 18 19  2  0
  2 20  1  0
 20 21  1  0
 21 22  1  0
 22 23  1  0
 23 24  1  0
 24 25  1  0
 19 10  1  0
 25 20  1  0
 18 13  1  0
  1 26  1  0
  1 27  1  0
  1 28  1  0
  2 29  1  1
  3 30  1  0
  6 31  1  0
  6 32  1  0
  7 33  1  0
 11 34  1  0
 12 35  1  0
 14 36  1  0
 15 37  1  0
 16 38  1  0
 17 39  1  0
 20 40  1  0
 21 41  1  0
 21 42  1  0
 22 43  1  0
 22 44  1  0
 23 45  1  0
 23 46  1  0
 24 47  1  0
 24 48  1  0
 25 49  1  0
 25 50  1  0
M  END
>  <smiles>  (33) 
C[C@@H](NC(=O)CNC(=O)c1ccc2ccccc2n1)C1CCCCC1

>  <score_type>  (33) 
oracle

>  <origin>  (33) 
autodockgpu

>  <m_score__min__energy>  (33) 
-9.0700000000000003

>  <m_primary>  (33) 
energy

>  <rmsd>  (33) 
3.9867381161558635

>  <m_score__min__rmsd>  (33) 
3.9867381161558635

>  <meeko>  (33) 
{"free_energy": -8.19, "intermolecular_energy": -9.68, "internal_energy": -1.47, "cluster_size": 24, "cluster_id": 2, "rank_in_cluster": 16}

>  <energy>  (33) 
-8.46

>  <cluster_rmsd>  (33) 
0.9

>  <cluster>  (33) 
2

$$$$

     RDKit          3D

 50 52  0  0  0  0  0  0  0  0999 V2000
  139.0390   69.2980  223.7420 C   0  0  0  0  0  0  0  0  0  0  0  0
  139.7910   70.6190  223.9500 C   0  0  1  0  0  0  0  0  0  0  0  0
  139.0750   71.6090  223.2000 N   0  0  0  0  0  0  0  0  0  0  0  0
  139.8010   72.6520  222.5560 C   0  0  0  0  0  0  0  0  0  0  0  0
  141.0550   72.6290  222.6950 O   0  0  0  0  0  0  0  0  0  0  0  0
  139.0870   73.6890  221.7730 C   0  0  0  0  0  0  0  0  0  0  0  0
  139.6810   74.9850  222.0540 N   0  0  0  0  0  0  0  0  0  0  0  0
  138.8400   76.0600  222.3900 C   0  0  0  0  0  0  0  0  0  0  0  0
  137.5780   75.8800  222.4410 O   0  0  0  0  0  0  0  0  0  0  0  0
  139.3840   77.3900  222.6820 C   0  0  0  0  0  0  0  0  0  0  0  0
  138.5360   78.4510  222.8960 C   0  0  0  0  0  0  0  0  0  0  0  0
  138.9870   79.7340  223.1770 C   0  0  0  0  0  0  0  0  0  0  0  0
  140.3500   79.9080  223.2360 C   0  0  0  0  0  0  0  0  0  0  0  0
  140.8240   81.1890  223.5170 C   0  0  0  0  0  0  0  0  0  0  0  0
  142.1990   81.3990  223.5840 C   0  0  0  0  0  0  0  0  0  0  0  0
  143.0490   80.3170  223.3670 C   0  0  0  0  0  0  0  0  0  0  0  0
  142.5700   79.0600  223.0900 C   0  0  0  0  0  0  0  0  0  0  0  0
  141.2150   78.8430  223.0230 C   0  0  0  0  0  0  0  0  0  0  0  0
  140.7150   77.6060  222.7500 N   0  0  0  0  0  0  0  0  0  0  0  0
  139.8180   70.8420  225.4300 C   0  0  0  0  0  0  0  0  0  0  0  0
  141.0680   71.5490  225.9020 C   0  0  0  0  0  0  0  0  0  0  0  0
  141.0650   71.5800  227.4110 C   0  0  0  0  0  0  0  0  0  0  0  0
  140.9690   70.2030  228.0220 C   0  0  0  0  0  0  0  0  0  0  0  0
  139.6820   69.5730  227.5800 C   0  0  0  0  0  0  0  0  0  0  0  0
  139.6880   69.4680  226.0800 C   0  0  0  0  0  0  0  0  0  0  0  0
  138.7897   68.8601  224.7198 H   0  0  0  0  0  0  0  0  0  0  0  0
  138.1135   69.4877  223.1785 H   0  0  0  0  0  0  0  0  0  0  0  0
  139.6746   68.5990  223.1785 H   0  0  0  0  0  0  0  0  0  0  0  0
  140.8323   70.6420  223.5963 H   0  0  0  0  0  0  0  0  0  0  0  0
  138.0370   71.5340  223.1480 H   0  0  0  0  0  0  0  0  0  0  0  0
  139.1762   73.4672  220.6993 H   0  0  0  0  0  0  0  0  0  0  0  0
  138.0230   73.6990  222.0519 H   0  0  0  0  0  0  0  0  0  0  0  0
  140.7220   75.1220  222.0080 H   0  0  0  0  0  0  0  0  0  0  0  0
  137.4514   78.2756  222.8422 H   0  0  0  0  0  0  0  0  0  0  0  0
  138.2898   80.5683  223.3439 H   0  0  0  0  0  0  0  0  0  0  0  0
  140.1230   82.0203  223.6831 H   0  0  0  0  0  0  0  0  0  0  0  0
  142.6050   82.3975  223.8035 H   0  0  0  0  0  0  0  0  0  0  0  0
  144.1365   80.4740  223.4191 H   0  0  0  0  0  0  0  0  0  0  0  0
  143.2701   78.2283  222.9221 H   0  0  0  0  0  0  0  0  0  0  0  0
  138.9903   71.5076  225.7163 H   0  0  0  0  0  0  0  0  0  0  0  0
  141.9567   71.0082  225.5445 H   0  0  0  0  0  0  0  0  0  0  0  0
  141.0910   72.5749  225.5058 H   0  0  0  0  0  0  0  0  0  0  0  0
  141.9964   72.0535  227.7551 H   0  0  0  0  0  0  0  0  0  0  0  0
  140.1782   72.1474  227.7298 H   0  0  0  0  0  0  0  0  0  0  0  0
  141.8172   69.5884  227.6861 H   0  0  0  0  0  0  0  0  0  0  0  0
  140.9947   70.2758  229.1193 H   0  0  0  0  0  0  0  0  0  0  0  0
  139.5903   68.5695  228.0211 H   0  0  0  0  0  0  0  0  0  0  0  0
  138.8310   70.1870  227.9098 H   0  0  0  0  0  0  0  0  0  0  0  0
  140.5368   68.8419  225.7678 H   0  0  0  0  0  0  0  0  0  0  0  0
  138.7360   69.0201  225.7589 H   0  0  0  0  0  0  0  0  0  0  0  0
  1  2  1  0
  2  3  1  0
  3  4  1  0
  4  5  2  0
  4  6  1  0
  6  7  1  0
  7  8  1  0
  8  9  2  0
  8 10  1  0
 10 11  2  0
 11 12  1  0
 12 13  2  0
 13 14  1  0
 14 15  2  0
 15 16  1  0
 16 17  2  0
 17 18  1  0
 18 19  2  0
  2 20  1  0
 20 21  1  0
 21 22  1  0
 22 23  1  0
 23 24  1  0
 24 25  1  0
 19 10  1  0
 25 20  1  0
 18 13  1  0
  1 26  1  0
  1 27  1  0
  1 28  1  0
  2 29  1  6
  3 30  1  0
  6 31  1  0
  6 32  1  0
  7 33  1  0
 11 34  1  0
 12 35  1  0
 14 36  1  0
 15 37  1  0
 16 38  1  0
 17 39  1  0
 20 40  1  0
 21 41  1  0
 21 42  1  0
 22 43  1  0
 22 44  1  0
 23 45  1  0
 23 46  1  0
 24 47  1  0
 24 48  1  0
 25 49  1  0
 25 50  1  0
M  END
>  <smiles>  (34) 
C[C@@H](NC(=O)CNC(=O)c1ccc2ccccc2n1)C1CCCCC1

>  <score_type>  (34) 
oracle

>  <origin>  (34) 
autodockgpu

>  <m_score__min__energy>  (34) 
-9.0700000000000003

>  <m_primary>  (34) 
energy

>  <rmsd>  (34) 
10.32274971564764

>  <m_score__min__rmsd>  (34) 
10.32274971564764

>  <meeko>  (34) 
{"free_energy": -8.35, "intermolecular_energy": -9.84, "internal_energy": -1.34, "cluster_size": 24, "cluster_id": 1, "rank_in_cluster": 19}

>  <energy>  (34) 
-8.45

>  <cluster_rmsd>  (34) 
0.91

>  <cluster>  (34) 
2

$$$$

     RDKit          3D

 50 52  0  0  0  0  0  0  0  0999 V2000
  141.9350   76.7370  220.1580 C   0  0  0  0  0  0  0  0  0  0  0  0
  140.4970   77.1310  220.5190 C   0  0  1  0  0  0  0  0  0  0  0  0
  139.7300   75.9200  220.4790 N   0  0  0  0  0  0  0  0  0  0  0  0
  139.9600   74.9200  221.4670 C   0  0  0  0  0  0  0  0  0  0  0  0
  140.8450   75.1770  222.3280 O   0  0  0  0  0  0  0  0  0  0  0  0
  139.1820   73.6570  221.4500 C   0  0  0  0  0  0  0  0  0  0  0  0
  139.4740   72.9050  222.6580 N   0  0  0  0  0  0  0  0  0  0  0  0
  139.1320   71.5430  222.7100 C   0  0  0  0  0  0  0  0  0  0  0  0
  138.5730   70.9950  221.7030 O   0  0  0  0  0  0  0  0  0  0  0  0
  139.4030   70.7360  223.9040 C   0  0  0  0  0  0  0  0  0  0  0  0
  139.0690   69.4020  223.9260 C   0  0  0  0  0  0  0  0  0  0  0  0
  139.2990   68.5830  225.0230 C   0  0  0  0  0  0  0  0  0  0  0  0
  139.8900   69.1720  226.1170 C   0  0  0  0  0  0  0  0  0  0  0  0
  140.1300   68.3670  227.2300 C   0  0  0  0  0  0  0  0  0  0  0  0
  140.7260   68.9310  228.3550 C   0  0  0  0  0  0  0  0  0  0  0  0
  141.0610   70.2840  228.3210 C   0  0  0  0  0  0  0  0  0  0  0  0
  140.8190   71.0660  227.2200 C   0  0  0  0  0  0  0  0  0  0  0  0
  140.2310   70.5170  226.1060 C   0  0  0  0  0  0  0  0  0  0  0  0
  139.9810   71.2720  225.0000 N   0  0  0  0  0  0  0  0  0  0  0  0
  140.5810   77.7840  221.8630 C   0  0  0  0  0  0  0  0  0  0  0  0
  139.3520   78.5950  222.2080 C   0  0  0  0  0  0  0  0  0  0  0  0
  139.6060   79.3300  223.5010 C   0  0  0  0  0  0  0  0  0  0  0  0
  140.8260   80.2160  223.4370 C   0  0  0  0  0  0  0  0  0  0  0  0
  142.0250   79.3580  223.1620 C   0  0  0  0  0  0  0  0  0  0  0  0
  141.8280   78.6630  221.8440 C   0  0  0  0  0  0  0  0  0  0  0  0
  142.5141   76.5783  221.0797 H   0  0  0  0  0  0  0  0  0  0  0  0
  141.9237   75.8089  219.5677 H   0  0  0  0  0  0  0  0  0  0  0  0
  142.3984   77.5413  219.5677 H   0  0  0  0  0  0  0  0  0  0  0  0
  140.0060   77.8430  219.8393 H   0  0  0  0  0  0  0  0  0  0  0  0
  139.0220   75.8090  219.7230 H   0  0  0  0  0  0  0  0  0  0  0  0
  138.1070   73.8866  221.4094 H   0  0  0  0  0  0  0  0  0  0  0  0
  139.4580   73.0626  220.5665 H   0  0  0  0  0  0  0  0  0  0  0  0
  139.9350   73.3680  223.4820 H   0  0  0  0  0  0  0  0  0  0  0  0
  138.5981   68.9640  223.0336 H   0  0  0  0  0  0  0  0  0  0  0  0
  139.0230   67.5182  225.0179 H   0  0  0  0  0  0  0  0  0  0  0  0
  139.8527   67.3026  227.2194 H   0  0  0  0  0  0  0  0  0  0  0  0
  140.9278   68.3234  229.2495 H   0  0  0  0  0  0  0  0  0  0  0  0
  141.5339   70.7384  229.2041 H   0  0  0  0  0  0  0  0  0  0  0  0
  141.0952   72.1307  227.2290 H   0  0  0  0  0  0  0  0  0  0  0  0
  140.6399   77.0109  222.6433 H   0  0  0  0  0  0  0  0  0  0  0  0
  139.1481   79.3183  221.4047 H   0  0  0  0  0  0  0  0  0  0  0  0
  138.4827   77.9302  222.3188 H   0  0  0  0  0  0  0  0  0  0  0  0
  138.7294   79.9541  223.7292 H   0  0  0  0  0  0  0  0  0  0  0  0
  139.7832   78.5764  224.2825 H   0  0  0  0  0  0  0  0  0  0  0  0
  140.7059   80.9547  222.6309 H   0  0  0  0  0  0  0  0  0  0  0  0
  140.9550   80.7483  224.3909 H   0  0  0  0  0  0  0  0  0  0  0  0
  142.9272   79.9858  223.1183 H   0  0  0  0  0  0  0  0  0  0  0  0
  142.1456   78.6144  223.9635 H   0  0  0  0  0  0  0  0  0  0  0  0
  141.7216   79.4192  221.0523 H   0  0  0  0  0  0  0  0  0  0  0  0
  142.7020   78.0225  221.6546 H   0  0  0  0  0  0  0  0  0  0  0  0
  1  2  1  0
  2  3  1  0
  3  4  1  0
  4  5  2  0
  4  6  1  0
  6  7  1  0
  7  8  1  0
  8  9  2  0
  8 10  1  0
 10 11  2  0
 11 12  1  0
 12 13  2  0
 13 14  1  0
 14 15  2  0
 15 16  1  0
 16 17  2  0
 17 18  1  0
 18 19  2  0
  2 20  1  0
 20 21  1  0
 21 22  1  0
 22 23  1  0
 23 24  1  0
 24 25  1  0
 19 10  1  0
 25 20  1  0
 18 13  1  0
  1 26  1  0
  1 27  1  0
  1 28  1  0
  2 29  1  6
  3 30  1  0
  6 31  1  0
  6 32  1  0
  7 33  1  0
 11 34  1  0
 12 35  1  0
 14 36  1  0
 15 37  1  0
 16 38  1  0
 17 39  1  0
 20 40  1  0
 21 41  1  0
 21 42  1  0
 22 43  1  0
 22 44  1  0
 23 45  1  0
 23 46  1  0
 24 47  1  0
 24 48  1  0
 25 49  1  0
 25 50  1  0
M  END
>  <smiles>  (35) 
C[C@@H](NC(=O)CNC(=O)c1ccc2ccccc2n1)C1CCCCC1

>  <score_type>  (35) 
oracle

>  <origin>  (35) 
autodockgpu

>  <m_score__min__energy>  (35) 
-9.0700000000000003

>  <m_primary>  (35) 
energy

>  <rmsd>  (35) 
4.17409692729663

>  <m_score__min__rmsd>  (35) 
4.17409692729663

>  <meeko>  (35) 
{"free_energy": -8.01, "intermolecular_energy": -9.5, "internal_energy": -1.43, "cluster_size": 24, "cluster_id": 2, "rank_in_cluster": 23}

>  <energy>  (35) 
-8.34

>  <cluster_rmsd>  (35) 
0.89

>  <cluster>  (35) 
2

$$$$

     RDKit          3D

 50 52  0  0  0  0  0  0  0  0999 V2000
  139.1560   69.2870  223.8140 C   0  0  0  0  0  0  0  0  0  0  0  0
  139.8520   70.6230  224.1030 C   0  0  1  0  0  0  0  0  0  0  0  0
  139.1030   71.6240  223.4010 N   0  0  0  0  0  0  0  0  0  0  0  0
  139.8000   72.6370  222.6820 C   0  0  0  0  0  0  0  0  0  0  0  0
  141.0600   72.5790  222.7150 O   0  0  0  0  0  0  0  0  0  0  0  0
  139.0520   73.6850  221.9470 C   0  0  0  0  0  0  0  0  0  0  0  0
  139.6520   74.9780  222.2260 N   0  0  0  0  0  0  0  0  0  0  0  0
  138.8130   76.0930  222.4020 C   0  0  0  0  0  0  0  0  0  0  0  0
  137.5490   75.9490  222.3130 O   0  0  0  0  0  0  0  0  0  0  0  0
  139.3640   77.4220  222.6850 C   0  0  0  0  0  0  0  0  0  0  0  0
  138.5210   78.4890  222.8900 C   0  0  0  0  0  0  0  0  0  0  0  0
  138.9770   79.7710  223.1620 C   0  0  0  0  0  0  0  0  0  0  0  0
  140.3420   79.9390  223.2220 C   0  0  0  0  0  0  0  0  0  0  0  0
  140.8220   81.2190  223.4940 C   0  0  0  0  0  0  0  0  0  0  0  0
  142.1970   81.4240  223.5620 C   0  0  0  0  0  0  0  0  0  0  0  0
  143.0420   80.3350  223.3530 C   0  0  0  0  0  0  0  0  0  0  0  0
  142.5580   79.0800  223.0850 C   0  0  0  0  0  0  0  0  0  0  0  0
  141.2020   78.8690  223.0180 C   0  0  0  0  0  0  0  0  0  0  0  0
  140.6950   77.6320  222.7530 N   0  0  0  0  0  0  0  0  0  0  0  0
  139.8580   70.7650  225.5930 C   0  0  0  0  0  0  0  0  0  0  0  0
  141.0460   71.5430  226.1120 C   0  0  0  0  0  0  0  0  0  0  0  0
  141.0360   71.4900  227.6200 C   0  0  0  0  0  0  0  0  0  0  0  0
  141.0520   70.0770  228.1530 C   0  0  0  0  0  0  0  0  0  0  0  0
  139.8220   69.3700  227.6680 C   0  0  0  0  0  0  0  0  0  0  0  0
  139.8390   69.3500  226.1650 C   0  0  0  0  0  0  0  0  0  0  0  0
  138.8994   68.7944  224.7634 H   0  0  0  0  0  0  0  0  0  0  0  0
  138.2382   69.4692  223.2357 H   0  0  0  0  0  0  0  0  0  0  0  0
  139.8313   68.6393  223.2357 H   0  0  0  0  0  0  0  0  0  0  0  0
  140.8946   70.7066  223.7625 H   0  0  0  0  0  0  0  0  0  0  0  0
  138.0630   71.5790  223.4380 H   0  0  0  0  0  0  0  0  0  0  0  0
  139.0984   73.4823  220.8668 H   0  0  0  0  0  0  0  0  0  0  0  0
  138.0003   73.6861  222.2693 H   0  0  0  0  0  0  0  0  0  0  0  0
  140.6950   75.0840  222.2970 H   0  0  0  0  0  0  0  0  0  0  0  0
  137.4357   78.3184  222.8359 H   0  0  0  0  0  0  0  0  0  0  0  0
  138.2835   80.6098  223.3215 H   0  0  0  0  0  0  0  0  0  0  0  0
  140.1245   82.0547  223.6526 H   0  0  0  0  0  0  0  0  0  0  0  0
  142.6074   82.4220  223.7757 H   0  0  0  0  0  0  0  0  0  0  0  0
  144.1302   80.4869  223.4046 H   0  0  0  0  0  0  0  0  0  0  0  0
  143.2543   78.2438  222.9240 H   0  0  0  0  0  0  0  0  0  0  0  0
  138.9787   71.3449  225.9102 H   0  0  0  0  0  0  0  0  0  0  0  0
  141.9763   71.0958  225.7318 H   0  0  0  0  0  0  0  0  0  0  0  0
  140.9877   72.5878  225.7728 H   0  0  0  0  0  0  0  0  0  0  0  0
  141.9242   72.0184  227.9967 H   0  0  0  0  0  0  0  0  0  0  0  0
  140.1048   71.9644  227.9632 H   0  0  0  0  0  0  0  0  0  0  0  0
  141.9484   69.5535  227.7890 H   0  0  0  0  0  0  0  0  0  0  0  0
  141.0696   70.0899  229.2528 H   0  0  0  0  0  0  0  0  0  0  0  0
  139.8119   68.3392  228.0519 H   0  0  0  0  0  0  0  0  0  0  0  0
  138.9231   69.8934  228.0258 H   0  0  0  0  0  0  0  0  0  0  0  0
  140.7364   68.8132  225.8237 H   0  0  0  0  0  0  0  0  0  0  0  0
  138.9271   68.8451  225.8136 H   0  0  0  0  0  0  0  0  0  0  0  0
  1  2  1  0
  2  3  1  0
  3  4  1  0
  4  5  2  0
  4  6  1  0
  6  7  1  0
  7  8  1  0
  8  9  2  0
  8 10  1  0
 10 11  2  0
 11 12  1  0
 12 13  2  0
 13 14  1  0
 14 15  2  0
 15 16  1  0
 16 17  2  0
 17 18  1  0
 18 19  2  0
  2 20  1  0
 20 21  1  0
 21 22  1  0
 22 23  1  0
 23 24  1  0
 24 25  1  0
 19 10  1  0
 25 20  1  0
 18 13  1  0
  1 26  1  0
  1 27  1  0
  1 28  1  0
  2 29  1  6
  3 30  1  0
  6 31  1  0
  6 32  1  0
  7 33  1  0
 11 34  1  0
 12 35  1  0
 14 36  1  0
 15 37  1  0
 16 38  1  0
 17 39  1  0
 20 40  1  0
 21 41  1  0
 21 42  1  0
 22 43  1  0
 22 44  1  0
 23 45  1  0
 23 46  1  0
 24 47  1  0
 24 48  1  0
 25 49  1  0
 25 50  1  0
M  END
>  <smiles>  (36) 
C[C@@H](NC(=O)CNC(=O)c1ccc2ccccc2n1)C1CCCCC1

>  <score_type>  (36) 
oracle

>  <origin>  (36) 
autodockgpu

>  <m_score__min__energy>  (36) 
-9.0700000000000003

>  <m_primary>  (36) 
energy

>  <rmsd>  (36) 
10.378301032831969

>  <m_score__min__rmsd>  (36) 
10.378301032831969

>  <meeko>  (36) 
{"free_energy": -8.36, "intermolecular_energy": -9.86, "internal_energy": -1.34, "cluster_size": 24, "cluster_id": 1, "rank_in_cluster": 18}

>  <energy>  (36) 
-8.28

>  <cluster_rmsd>  (36) 
0.69

>  <cluster>  (36) 
2

$$$$

     RDKit          3D

 50 52  0  0  0  0  0  0  0  0999 V2000
  139.4260   69.3010  223.8740 C   0  0  0  0  0  0  0  0  0  0  0  0
  139.9850   70.6490  224.3440 C   0  0  1  0  0  0  0  0  0  0  0  0
  139.1560   71.6560  223.7460 N   0  0  0  0  0  0  0  0  0  0  0  0
  139.5780   72.2710  222.5330 C   0  0  0  0  0  0  0  0  0  0  0  0
  140.6780   71.8760  222.0580 O   0  0  0  0  0  0  0  0  0  0  0  0
  138.7420   73.3150  221.8920 C   0  0  0  0  0  0  0  0  0  0  0  0
  139.3310   74.6170  222.1510 N   0  0  0  0  0  0  0  0  0  0  0  0
  140.0870   75.2350  221.1400 C   0  0  0  0  0  0  0  0  0  0  0  0
  140.2430   74.6440  220.0210 O   0  0  0  0  0  0  0  0  0  0  0  0
  140.7050   76.5490  221.3480 C   0  0  0  0  0  0  0  0  0  0  0  0
  141.1560   77.2760  220.2720 C   0  0  0  0  0  0  0  0  0  0  0  0
  141.7500   78.5250  220.3990 C   0  0  0  0  0  0  0  0  0  0  0  0
  141.8710   79.0210  221.6770 C   0  0  0  0  0  0  0  0  0  0  0  0
  142.4640   80.2740  221.8270 C   0  0  0  0  0  0  0  0  0  0  0  0
  142.6030   80.8050  223.1070 C   0  0  0  0  0  0  0  0  0  0  0  0
  142.1410   80.0590  224.1890 C   0  0  0  0  0  0  0  0  0  0  0  0
  141.5600   78.8260  224.0290 C   0  0  0  0  0  0  0  0  0  0  0  0
  141.4180   78.2950  222.7700 C   0  0  0  0  0  0  0  0  0  0  0  0
  140.8450   77.0740  222.5830 N   0  0  0  0  0  0  0  0  0  0  0  0
  139.9490   70.6050  225.8400 C   0  0  0  0  0  0  0  0  0  0  0  0
  141.0560   71.4050  226.4860 C   0  0  0  0  0  0  0  0  0  0  0  0
  141.0210   71.1640  227.9750 C   0  0  0  0  0  0  0  0  0  0  0  0
  141.1430   69.7020  228.3310 C   0  0  0  0  0  0  0  0  0  0  0  0
  139.9860   68.9640  227.7270 C   0  0  0  0  0  0  0  0  0  0  0  0
  140.0350   69.1330  226.2330 C   0  0  0  0  0  0  0  0  0  0  0  0
  139.1705   68.6849  224.7487 H   0  0  0  0  0  0  0  0  0  0  0  0
  138.5236   69.4695  223.2680 H   0  0  0  0  0  0  0  0  0  0  0  0
  140.1828   68.7814  223.2680 H   0  0  0  0  0  0  0  0  0  0  0  0
  141.0210   70.8707  224.0482 H   0  0  0  0  0  0  0  0  0  0  0  0
  138.2650   71.9080  224.2210 H   0  0  0  0  0  0  0  0  0  0  0  0
  138.6993   73.1387  220.8071 H   0  0  0  0  0  0  0  0  0  0  0  0
  137.7226   73.2796  222.3037 H   0  0  0  0  0  0  0  0  0  0  0  0
  139.1960   75.0940  223.0780 H   0  0  0  0  0  0  0  0  0  0  0  0
  141.0412   76.8492  219.2647 H   0  0  0  0  0  0  0  0  0  0  0  0
  142.1053   79.0885  219.5236 H   0  0  0  0  0  0  0  0  0  0  0  0
  142.8164   80.8342  220.9484 H   0  0  0  0  0  0  0  0  0  0  0  0
  143.0668   81.7906  223.2601 H   0  0  0  0  0  0  0  0  0  0  0  0
  142.2452   80.4712  225.2035 H   0  0  0  0  0  0  0  0  0  0  0  0
  141.2088   78.2641  224.9070 H   0  0  0  0  0  0  0  0  0  0  0  0
  139.0188   71.0692  226.1994 H   0  0  0  0  0  0  0  0  0  0  0  0
  142.0280   71.0855  226.0820 H   0  0  0  0  0  0  0  0  0  0  0  0
  140.9164   72.4757  226.2761 H   0  0  0  0  0  0  0  0  0  0  0  0
  141.8550   71.7103  228.4397 H   0  0  0  0  0  0  0  0  0  0  0  0
  140.0473   71.5164  228.3461 H   0  0  0  0  0  0  0  0  0  0  0  0
  142.0868   69.3012  227.9326 H   0  0  0  0  0  0  0  0  0  0  0  0
  141.1370   69.5798  229.4242 H   0  0  0  0  0  0  0  0  0  0  0  0
  140.0544   67.8960  227.9814 H   0  0  0  0  0  0  0  0  0  0  0  0
  139.0394   69.3642  228.1192 H   0  0  0  0  0  0  0  0  0  0  0  0
  140.9803   68.7157  225.8557 H   0  0  0  0  0  0  0  0  0  0  0  0
  139.1751   68.6051  225.7948 H   0  0  0  0  0  0  0  0  0  0  0  0
  1  2  1  0
  2  3  1  0
  3  4  1  0
  4  5  2  0
  4  6  1  0
  6  7  1  0
  7  8  1  0
  8  9  2  0
  8 10  1  0
 10 11  2  0
 11 12  1  0
 12 13  2  0
 13 14  1  0
 14 15  2  0
 15 16  1  0
 16 17  2  0
 17 18  1  0
 18 19  2  0
  2 20  1  0
 20 21  1  0
 21 22  1  0
 22 23  1  0
 23 24  1  0
 24 25  1  0
 19 10  1  0
 25 20  1  0
 18 13  1  0
  1 26  1  0
  1 27  1  0
  1 28  1  0
  2 29  1  1
  3 30  1  0
  6 31  1  0
  6 32  1  0
  7 33  1  0
 11 34  1  0
 12 35  1  0
 14 36  1  0
 15 37  1  0
 16 38  1  0
 17 39  1  0
 20 40  1  0
 21 41  1  0
 21 42  1  0
 22 43  1  0
 22 44  1  0
 23 45  1  0
 23 46  1  0
 24 47  1  0
 24 48  1  0
 25 49  1  0
 25 50  1  0
M  END
>  <smiles>  (37) 
C[C@@H](NC(=O)CNC(=O)c1ccc2ccccc2n1)C1CCCCC1

>  <score_type>  (37) 
oracle

>  <origin>  (37) 
autodockgpu

>  <m_score__min__energy>  (37) 
-9.0700000000000003

>  <m_primary>  (37) 
energy

>  <rmsd>  (37) 
10.418207535224065

>  <m_score__min__rmsd>  (37) 
10.418207535224065

>  <meeko>  (37) 
{"free_energy": -8.68, "intermolecular_energy": -10.17, "internal_energy": -1.1, "cluster_size": 24, "cluster_id": 1, "rank_in_cluster": 11}

>  <energy>  (37) 
-8.28

>  <cluster_rmsd>  (37) 
1.34

>  <cluster>  (37) 
2

$$$$

     RDKit          3D

 50 52  0  0  0  0  0  0  0  0999 V2000
  141.2050   78.6110  219.3980 C   0  0  0  0  0  0  0  0  0  0  0  0
  140.7250   77.9200  220.6810 C   0  0  1  0  0  0  0  0  0  0  0  0
  140.8510   76.5110  220.4470 N   0  0  0  0  0  0  0  0  0  0  0  0
  140.0650   75.6070  221.2170 C   0  0  0  0  0  0  0  0  0  0  0  0
  139.2940   76.1230  222.0710 O   0  0  0  0  0  0  0  0  0  0  0  0
  140.1740   74.1440  220.9970 C   0  0  0  0  0  0  0  0  0  0  0  0
  139.9940   73.4610  222.2660 N   0  0  0  0  0  0  0  0  0  0  0  0
  140.4130   72.1240  222.3840 C   0  0  0  0  0  0  0  0  0  0  0  0
  140.9390   71.5390  221.3810 O   0  0  0  0  0  0  0  0  0  0  0  0
  140.2540   71.3850  223.6410 C   0  0  0  0  0  0  0  0  0  0  0  0
  139.6190   70.1660  223.6490 C   0  0  0  0  0  0  0  0  0  0  0  0
  139.4360   69.4160  224.8030 C   0  0  0  0  0  0  0  0  0  0  0  0
  139.9300   69.9530  225.9700 C   0  0  0  0  0  0  0  0  0  0  0  0
  139.7570   69.2160  227.1410 C   0  0  0  0  0  0  0  0  0  0  0  0
  140.2450   69.7310  228.3390 C   0  0  0  0  0  0  0  0  0  0  0  0
  140.8880   70.9670  228.3190 C   0  0  0  0  0  0  0  0  0  0  0  0
  141.0510   71.6830  227.1600 C   0  0  0  0  0  0  0  0  0  0  0  0
  140.5740   71.1830  225.9730 C   0  0  0  0  0  0  0  0  0  0  0  0
  140.7220   71.8740  224.8080 N   0  0  0  0  0  0  0  0  0  0  0  0
  141.5870   78.4600  221.7790 C   0  0  0  0  0  0  0  0  0  0  0  0
  140.9630   78.3190  223.1490 C   0  0  0  0  0  0  0  0  0  0  0  0
  141.8370   79.0310  224.1530 C   0  0  0  0  0  0  0  0  0  0  0  0
  142.0490   80.4860  223.8120 C   0  0  0  0  0  0  0  0  0  0  0  0
  142.7320   80.5700  222.4790 C   0  0  0  0  0  0  0  0  0  0  0  0
  141.8500   79.9250  221.4460 C   0  0  0  0  0  0  0  0  0  0  0  0
  141.8145   79.4884  219.6601 H   0  0  0  0  0  0  0  0  0  0  0  0
  141.8100   77.9076  218.8070 H   0  0  0  0  0  0  0  0  0  0  0  0
  140.3347   78.9324  218.8070 H   0  0  0  0  0  0  0  0  0  0  0  0
  139.6785   78.1038  220.9658 H   0  0  0  0  0  0  0  0  0  0  0  0
  141.5190   76.1900  219.7150 H   0  0  0  0  0  0  0  0  0  0  0  0
  139.3973   73.8185  220.2894 H   0  0  0  0  0  0  0  0  0  0  0  0
  141.1638   73.9030  220.5820 H   0  0  0  0  0  0  0  0  0  0  0  0
  139.5580   73.9530  223.0860 H   0  0  0  0  0  0  0  0  0  0  0  0
  139.2384   69.7663  222.6975 H   0  0  0  0  0  0  0  0  0  0  0  0
  138.9229   68.4432  224.7855 H   0  0  0  0  0  0  0  0  0  0  0  0
  139.2434   68.2435  227.1187 H   0  0  0  0  0  0  0  0  0  0  0  0
  140.1256   69.1745  229.2803 H   0  0  0  0  0  0  0  0  0  0  0  0
  141.2767   71.3813  229.2610 H   0  0  0  0  0  0  0  0  0  0  0  0
  141.5631   72.6563  227.1814 H   0  0  0  0  0  0  0  0  0  0  0  0
  142.5206   77.8807  221.8315 H   0  0  0  0  0  0  0  0  0  0  0  0
  139.9592   78.7689  223.1469 H   0  0  0  0  0  0  0  0  0  0  0  0
  140.8765   77.2550  223.4144 H   0  0  0  0  0  0  0  0  0  0  0  0
  141.3604   78.9672  225.1423 H   0  0  0  0  0  0  0  0  0  0  0  0
  142.8216   78.5405  224.1435 H   0  0  0  0  0  0  0  0  0  0  0  0
  141.0781   81.0008  223.7641 H   0  0  0  0  0  0  0  0  0  0  0  0
  142.6691   80.9665  224.5832 H   0  0  0  0  0  0  0  0  0  0  0  0
  142.9014   81.6244  222.2153 H   0  0  0  0  0  0  0  0  0  0  0  0
  143.7018   80.0527  222.5207 H   0  0  0  0  0  0  0  0  0  0  0  0
  140.8906   80.4618  221.4083 H   0  0  0  0  0  0  0  0  0  0  0  0
  142.3615   79.9737  220.4734 H   0  0  0  0  0  0  0  0  0  0  0  0
  1  2  1  0
  2  3  1  0
  3  4  1  0
  4  5  2  0
  4  6  1  0
  6  7  1  0
  7  8  1  0
  8  9  2  0
  8 10  1  0
 10 11  2  0
 11 12  1  0
 12 13  2  0
 13 14  1  0
 14 15  2  0
 15 16  1  0
 16 17  2  0
 17 18  1  0
 18 19  2  0
  2 20  1  0
 20 21  1  0
 21 22  1  0
 22 23  1  0
 23 24  1  0
 24 25  1  0
 19 10  1  0
 25 20  1  0
 18 13  1  0
  1 26  1  0
  1 27  1  0
  1 28  1  0
  2 29  1  1
  3 30  1  0
  6 31  1  0
  6 32  1  0
  7 33  1  0
 11 34  1  0
 12 35  1  0
 14 36  1  0
 15 37  1  0
 16 38  1  0
 17 39  1  0
 20 40  1  0
 21 41  1  0
 21 42  1  0
 22 43  1  0
 22 44  1  0
 23 45  1  0
 23 46  1  0
 24 47  1  0
 24 48  1  0
 25 49  1  0
 25 50  1  0
M  END
>  <smiles>  (38) 
C[C@@H](NC(=O)CNC(=O)c1ccc2ccccc2n1)C1CCCCC1

>  <score_type>  (38) 
oracle

>  <origin>  (38) 
autodockgpu

>  <m_score__min__energy>  (38) 
-9.0700000000000003

>  <m_primary>  (38) 
energy

>  <rmsd>  (38) 
3.9726623087937947

>  <m_score__min__rmsd>  (38) 
3.9726623087937947

>  <meeko>  (38) 
{"free_energy": -8.47, "intermolecular_energy": -9.97, "internal_energy": -1.32, "cluster_size": 24, "cluster_id": 2, "rank_in_cluster": 8}

>  <energy>  (38) 
-8.27

>  <cluster_rmsd>  (38) 
0.72

>  <cluster>  (38) 
2

$$$$

     RDKit          3D

 50 52  0  0  0  0  0  0  0  0999 V2000
  139.6240   78.4750  220.7040 C   0  0  0  0  0  0  0  0  0  0  0  0
  140.3240   78.0020  221.9840 C   0  0  1  0  0  0  0  0  0  0  0  0
  140.8000   76.6770  221.7120 N   0  0  0  0  0  0  0  0  0  0  0  0
  139.8620   75.6100  221.6100 C   0  0  0  0  0  0  0  0  0  0  0  0
  138.6480   75.9150  221.7690 O   0  0  0  0  0  0  0  0  0  0  0  0
  140.3250   74.2290  221.3310 C   0  0  0  0  0  0  0  0  0  0  0  0
  139.9790   73.3780  222.4560 N   0  0  0  0  0  0  0  0  0  0  0  0
  140.6580   72.1580  222.6200 C   0  0  0  0  0  0  0  0  0  0  0  0
  141.5590   71.8220  221.7810 O   0  0  0  0  0  0  0  0  0  0  0  0
  140.3490   71.2590  223.7360 C   0  0  0  0  0  0  0  0  0  0  0  0
  139.5930   70.1300  223.5250 C   0  0  0  0  0  0  0  0  0  0  0  0
  139.2650   69.2390  224.5370 C   0  0  0  0  0  0  0  0  0  0  0  0
  139.7400   69.5350  225.7940 C   0  0  0  0  0  0  0  0  0  0  0  0
  139.4220   68.6530  226.8260 C   0  0  0  0  0  0  0  0  0  0  0  0
  139.8860   68.9230  228.1110 C   0  0  0  0  0  0  0  0  0  0  0  0
  140.6520   70.0700  228.3140 C   0  0  0  0  0  0  0  0  0  0  0  0
  140.9570   70.9310  227.2900 C   0  0  0  0  0  0  0  0  0  0  0  0
  140.5040   70.6720  226.0190 C   0  0  0  0  0  0  0  0  0  0  0  0
  140.7930   71.5110  224.9860 N   0  0  0  0  0  0  0  0  0  0  0  0
  141.3910   79.0150  222.2600 C   0  0  0  0  0  0  0  0  0  0  0  0
  141.8650   79.0030  223.6950 C   0  0  0  0  0  0  0  0  0  0  0  0
  142.8160   80.1570  223.9000 C   0  0  0  0  0  0  0  0  0  0  0  0
  142.1970   81.4900  223.5540 C   0  0  0  0  0  0  0  0  0  0  0  0
  141.8080   81.4760  222.1060 C   0  0  0  0  0  0  0  0  0  0  0  0
  140.8080   80.3750  221.8880 C   0  0  0  0  0  0  0  0  0  0  0  0
  138.7395   79.0727  220.9693 H   0  0  0  0  0  0  0  0  0  0  0  0
  140.3181   79.0900  220.1123 H   0  0  0  0  0  0  0  0  0  0  0  0
  139.3124   77.6016  220.1123 H   0  0  0  0  0  0  0  0  0  0  0  0
  139.6940   77.9366  222.8834 H   0  0  0  0  0  0  0  0  0  0  0  0
  141.8250   76.5340  221.5970 H   0  0  0  0  0  0  0  0  0  0  0  0
  139.8361   73.8531  220.4201 H   0  0  0  0  0  0  0  0  0  0  0  0
  141.4151   74.2251  221.1835 H   0  0  0  0  0  0  0  0  0  0  0  0
  139.2340   73.6650  223.1400 H   0  0  0  0  0  0  0  0  0  0  0  0
  139.2315   69.9235  222.5068 H   0  0  0  0  0  0  0  0  0  0  0  0
  138.6570   68.3428  224.3444 H   0  0  0  0  0  0  0  0  0  0  0  0
  138.8141   67.7578  226.6283 H   0  0  0  0  0  0  0  0  0  0  0  0
  139.6534   68.2467  228.9467 H   0  0  0  0  0  0  0  0  0  0  0  0
  141.0231   70.2915  229.3256 H   0  0  0  0  0  0  0  0  0  0  0  0
  141.5634   71.8275  227.4865 H   0  0  0  0  0  0  0  0  0  0  0  0
  142.2846   78.7786  221.6637 H   0  0  0  0  0  0  0  0  0  0  0  0
  141.0033   79.1090  224.3704 H   0  0  0  0  0  0  0  0  0  0  0  0
  142.3754   78.0533  223.9133 H   0  0  0  0  0  0  0  0  0  0  0  0
  143.1246   80.1756  224.9557 H   0  0  0  0  0  0  0  0  0  0  0  0
  143.6737   80.0043  223.2284 H   0  0  0  0  0  0  0  0  0  0  0  0
  141.3050   81.6568  224.1757 H   0  0  0  0  0  0  0  0  0  0  0  0
  142.9184   82.2990  223.7413 H   0  0  0  0  0  0  0  0  0  0  0  0
  141.3598   82.4429  221.8335 H   0  0  0  0  0  0  0  0  0  0  0  0
  142.6964   81.3057  221.4801 H   0  0  0  0  0  0  0  0  0  0  0  0
  139.9218   80.5674  222.5106 H   0  0  0  0  0  0  0  0  0  0  0  0
  140.5381   80.3572  220.8218 H   0  0  0  0  0  0  0  0  0  0  0  0
  1  2  1  0
  2  3  1  0
  3  4  1  0
  4  5  2  0
  4  6  1  0
  6  7  1  0
  7  8  1  0
  8  9  2  0
  8 10  1  0
 10 11  2  0
 11 12  1  0
 12 13  2  0
 13 14  1  0
 14 15  2  0
 15 16  1  0
 16 17  2  0
 17 18  1  0
 18 19  2  0
  2 20  1  0
 20 21  1  0
 21 22  1  0
 22 23  1  0
 23 24  1  0
 24 25  1  0
 19 10  1  0
 25 20  1  0
 18 13  1  0
  1 26  1  0
  1 27  1  0
  1 28  1  0
  2 29  1  1
  3 30  1  0
  6 31  1  0
  6 32  1  0
  7 33  1  0
 11 34  1  0
 12 35  1  0
 14 36  1  0
 15 37  1  0
 16 38  1  0
 17 39  1  0
 20 40  1  0
 21 41  1  0
 21 42  1  0
 22 43  1  0
 22 44  1  0
 23 45  1  0
 23 46  1  0
 24 47  1  0
 24 48  1  0
 25 49  1  0
 25 50  1  0
M  END
>  <smiles>  (39) 
C[C@@H](NC(=O)CNC(=O)c1ccc2ccccc2n1)C1CCCCC1

>  <score_type>  (39) 
oracle

>  <origin>  (39) 
autodockgpu

>  <m_score__min__energy>  (39) 
-9.0700000000000003

>  <m_primary>  (39) 
energy

>  <rmsd>  (39) 
3.908591244251905

>  <m_score__min__rmsd>  (39) 
3.908591244251905

>  <meeko>  (39) 
{"free_energy": -8.91, "intermolecular_energy": -10.4, "internal_energy": -0.94, "cluster_size": 24, "cluster_id": 2, "rank_in_cluster": 2}

>  <energy>  (39) 
-8.21

>  <cluster_rmsd>  (39) 
0.89

>  <cluster>  (39) 
2

$$$$

     RDKit          3D

 50 52  0  0  0  0  0  0  0  0999 V2000
  137.4620   77.6730  221.9890 C   0  0  0  0  0  0  0  0  0  0  0  0
  138.6620   77.4050  222.9070 C   0  0  1  0  0  0  0  0  0  0  0  0
  139.0540   76.0470  222.6660 N   0  0  0  0  0  0  0  0  0  0  0  0
  139.3630   75.6400  221.3360 C   0  0  0  0  0  0  0  0  0  0  0  0
  139.2680   76.5250  220.4430 O   0  0  0  0  0  0  0  0  0  0  0  0
  139.7710   74.2420  221.0560 C   0  0  0  0  0  0  0  0  0  0  0  0
  139.5330   73.4340  222.2400 N   0  0  0  0  0  0  0  0  0  0  0  0
  140.4180   72.3820  222.5350 C   0  0  0  0  0  0  0  0  0  0  0  0
  141.4070   72.1570  221.7620 O   0  0  0  0  0  0  0  0  0  0  0  0
  140.2260   71.5340  223.7150 C   0  0  0  0  0  0  0  0  0  0  0  0
  139.5370   70.3490  223.6090 C   0  0  0  0  0  0  0  0  0  0  0  0
  139.3200   69.5010  224.6860 C   0  0  0  0  0  0  0  0  0  0  0  0
  139.8360   69.9020  225.8980 C   0  0  0  0  0  0  0  0  0  0  0  0
  139.6300   69.0640  226.9940 C   0  0  0  0  0  0  0  0  0  0  0  0
  140.1370   69.4400  228.2340 C   0  0  0  0  0  0  0  0  0  0  0  0
  140.8340   70.6430  228.3300 C   0  0  0  0  0  0  0  0  0  0  0  0
  141.0300   71.4590  227.2450 C   0  0  0  0  0  0  0  0  0  0  0  0
  140.5330   71.0960  226.0160 C   0  0  0  0  0  0  0  0  0  0  0  0
  140.7130   71.8880  224.9230 N   0  0  0  0  0  0  0  0  0  0  0  0
  139.6860   78.4350  222.5450 C   0  0  0  0  0  0  0  0  0  0  0  0
  141.1070   77.9490  222.7230 C   0  0  0  0  0  0  0  0  0  0  0  0
  142.0470   79.1050  222.4850 C   0  0  0  0  0  0  0  0  0  0  0  0
  141.7680   80.2780  223.3940 C   0  0  0  0  0  0  0  0  0  0  0  0
  140.3750   80.7660  223.1310 C   0  0  0  0  0  0  0  0  0  0  0  0
  139.4110   79.6510  223.4240 C   0  0  0  0  0  0  0  0  0  0  0  0
  136.5697   77.8723  222.6007 H   0  0  0  0  0  0  0  0  0  0  0  0
  137.6738   78.5460  221.3541 H   0  0  0  0  0  0  0  0  0  0  0  0
  137.2823   76.7929  221.3541 H   0  0  0  0  0  0  0  0  0  0  0  0
  138.4740   77.4953  223.9870 H   0  0  0  0  0  0  0  0  0  0  0  0
  139.1010   75.3960  223.4760 H   0  0  0  0  0  0  0  0  0  0  0  0
  139.1816   73.8471  220.2153 H   0  0  0  0  0  0  0  0  0  0  0  0
  140.8388   74.2118  220.7937 H   0  0  0  0  0  0  0  0  0  0  0  0
  138.7140   73.6290  222.8700 H   0  0  0  0  0  0  0  0  0  0  0  0
  139.1393   70.0596  222.6251 H   0  0  0  0  0  0  0  0  0  0  0  0
  138.7647   68.5577  224.5771 H   0  0  0  0  0  0  0  0  0  0  0  0
  139.0755   68.1209  226.8798 H   0  0  0  0  0  0  0  0  0  0  0  0
  139.9910   68.8023  229.1183 H   0  0  0  0  0  0  0  0  0  0  0  0
  141.2395   70.9476  229.3061 H   0  0  0  0  0  0  0  0  0  0  0  0
  141.5841   72.4025  227.3583 H   0  0  0  0  0  0  0  0  0  0  0  0
  139.6000   78.6777  221.4755 H   0  0  0  0  0  0  0  0  0  0  0  0
  141.2421   77.5666  223.7455 H   0  0  0  0  0  0  0  0  0  0  0  0
  141.3189   77.1403  222.0081 H   0  0  0  0  0  0  0  0  0  0  0  0
  143.0777   78.7623  222.6587 H   0  0  0  0  0  0  0  0  0  0  0  0
  141.9011   79.4447  221.4490 H   0  0  0  0  0  0  0  0  0  0  0  0
  141.8582   79.9628  224.4440 H   0  0  0  0  0  0  0  0  0  0  0  0
  142.4914   81.0838  223.2005 H   0  0  0  0  0  0  0  0  0  0  0  0
  140.1551   81.6259  223.7808 H   0  0  0  0  0  0  0  0  0  0  0  0
  140.2791   81.0783  222.0806 H   0  0  0  0  0  0  0  0  0  0  0  0
  139.5105   79.3596  224.4800 H   0  0  0  0  0  0  0  0  0  0  0  0
  138.3923   80.0085  223.2131 H   0  0  0  0  0  0  0  0  0  0  0  0
  1  2  1  0
  2  3  1  0
  3  4  1  0
  4  5  2  0
  4  6  1  0
  6  7  1  0
  7  8  1  0
  8  9  2  0
  8 10  1  0
 10 11  2  0
 11 12  1  0
 12 13  2  0
 13 14  1  0
 14 15  2  0
 15 16  1  0
 16 17  2  0
 17 18  1  0
 18 19  2  0
  2 20  1  0
 20 21  1  0
 21 22  1  0
 22 23  1  0
 23 24  1  0
 24 25  1  0
 19 10  1  0
 25 20  1  0
 18 13  1  0
  1 26  1  0
  1 27  1  0
  1 28  1  0
  2 29  1  1
  3 30  1  0
  6 31  1  0
  6 32  1  0
  7 33  1  0
 11 34  1  0
 12 35  1  0
 14 36  1  0
 15 37  1  0
 16 38  1  0
 17 39  1  0
 20 40  1  0
 21 41  1  0
 21 42  1  0
 22 43  1  0
 22 44  1  0
 23 45  1  0
 23 46  1  0
 24 47  1  0
 24 48  1  0
 25 49  1  0
 25 50  1  0
M  END
>  <smiles>  (40) 
C[C@@H](NC(=O)CNC(=O)c1ccc2ccccc2n1)C1CCCCC1

>  <score_type>  (40) 
oracle

>  <origin>  (40) 
autodockgpu

>  <m_score__min__energy>  (40) 
-9.0700000000000003

>  <m_primary>  (40) 
energy

>  <rmsd>  (40) 
4.409549126942259

>  <m_score__min__rmsd>  (40) 
4.409549126942259

>  <meeko>  (40) 
{"free_energy": -8.59, "intermolecular_energy": -10.08, "internal_energy": -0.78, "cluster_size": 24, "cluster_id": 2, "rank_in_cluster": 4}

>  <energy>  (40) 
-8.19

>  <cluster_rmsd>  (40) 
0.93

>  <cluster>  (40) 
2

$$$$

     RDKit          3D

 50 52  0  0  0  0  0  0  0  0999 V2000
  141.0220   78.8090  219.5000 C   0  0  0  0  0  0  0  0  0  0  0  0
  140.5830   78.0690  220.7700 C   0  0  1  0  0  0  0  0  0  0  0  0
  140.6900   76.6700  220.4750 N   0  0  0  0  0  0  0  0  0  0  0  0
  140.1400   75.7240  221.3870 C   0  0  0  0  0  0  0  0  0  0  0  0
  139.5840   76.1970  222.4160 O   0  0  0  0  0  0  0  0  0  0  0  0
  140.2360   74.2710  221.1080 C   0  0  0  0  0  0  0  0  0  0  0  0
  140.0150   73.5370  222.3420 N   0  0  0  0  0  0  0  0  0  0  0  0
  140.4700   72.2100  222.4350 C   0  0  0  0  0  0  0  0  0  0  0  0
  141.0650   71.6770  221.4400 O   0  0  0  0  0  0  0  0  0  0  0  0
  140.2730   71.4220  223.6550 C   0  0  0  0  0  0  0  0  0  0  0  0
  139.6330   70.2060  223.5960 C   0  0  0  0  0  0  0  0  0  0  0  0
  139.4150   69.4110  224.7130 C   0  0  0  0  0  0  0  0  0  0  0  0
  139.8770   69.8990  225.9140 C   0  0  0  0  0  0  0  0  0  0  0  0
  139.6680   69.1160  227.0490 C   0  0  0  0  0  0  0  0  0  0  0  0
  140.1230   69.5790  228.2810 C   0  0  0  0  0  0  0  0  0  0  0  0
  140.7710   70.8120  228.3290 C   0  0  0  0  0  0  0  0  0  0  0  0
  140.9700   71.5740  227.2050 C   0  0  0  0  0  0  0  0  0  0  0  0
  140.5250   71.1240  225.9850 C   0  0  0  0  0  0  0  0  0  0  0  0
  140.7100   71.8610  224.8550 N   0  0  0  0  0  0  0  0  0  0  0  0
  141.4870   78.5580  221.8580 C   0  0  0  0  0  0  0  0  0  0  0  0
  140.8090   78.6340  223.2070 C   0  0  0  0  0  0  0  0  0  0  0  0
  141.7540   79.2830  224.1880 C   0  0  0  0  0  0  0  0  0  0  0  0
  142.2070   80.6520  223.7420 C   0  0  0  0  0  0  0  0  0  0  0  0
  142.9330   80.5140  222.4370 C   0  0  0  0  0  0  0  0  0  0  0  0
  141.9910   79.9300  221.4210 C   0  0  0  0  0  0  0  0  0  0  0  0
  141.5650   79.7243  219.7781 H   0  0  0  0  0  0  0  0  0  0  0  0
  141.6803   78.1584  218.9056 H   0  0  0  0  0  0  0  0  0  0  0  0
  140.1355   79.0749  218.9056 H   0  0  0  0  0  0  0  0  0  0  0  0
  139.5486   78.2477  221.0988 H   0  0  0  0  0  0  0  0  0  0  0  0
  141.1700   76.3860  219.5950 H   0  0  0  0  0  0  0  0  0  0  0  0
  139.4735   73.9864  220.3680 H   0  0  0  0  0  0  0  0  0  0  0  0
  141.2331   74.0344  220.7082 H   0  0  0  0  0  0  0  0  0  0  0  0
  139.5230   73.9860  223.1550 H   0  0  0  0  0  0  0  0  0  0  0  0
  139.2776   69.8469  222.6189 H   0  0  0  0  0  0  0  0  0  0  0  0
  138.8999   68.4417  224.6418 H   0  0  0  0  0  0  0  0  0  0  0  0
  139.1518   68.1477  226.9722 H   0  0  0  0  0  0  0  0  0  0  0  0
  139.9744   68.9854  229.1951 H   0  0  0  0  0  0  0  0  0  0  0  0
  141.1341   71.1859  229.2976 H   0  0  0  0  0  0  0  0  0  0  0  0
  141.4848   72.5432  227.2804 H   0  0  0  0  0  0  0  0  0  0  0  0
  142.3133   77.8452  221.9965 H   0  0  0  0  0  0  0  0  0  0  0  0
  139.8903   79.2335  223.1262 H   0  0  0  0  0  0  0  0  0  0  0  0
  140.5471   77.6229  223.5521 H   0  0  0  0  0  0  0  0  0  0  0  0
  141.2431   79.3799  225.1573 H   0  0  0  0  0  0  0  0  0  0  0  0
  142.6471   78.6449  224.2608 H   0  0  0  0  0  0  0  0  0  0  0  0
  141.3332   81.3075  223.6125 H   0  0  0  0  0  0  0  0  0  0  0  0
  142.8736   81.0922  224.4982 H   0  0  0  0  0  0  0  0  0  0  0  0
  143.2765   81.5025  222.0981 H   0  0  0  0  0  0  0  0  0  0  0  0
  143.8055   79.8558  222.5612 H   0  0  0  0  0  0  0  0  0  0  0  0
  141.1315   80.6055  221.2991 H   0  0  0  0  0  0  0  0  0  0  0  0
  142.5327   79.8148  220.4706 H   0  0  0  0  0  0  0  0  0  0  0  0
  1  2  1  0
  2  3  1  0
  3  4  1  0
  4  5  2  0
  4  6  1  0
  6  7  1  0
  7  8  1  0
  8  9  2  0
  8 10  1  0
 10 11  2  0
 11 12  1  0
 12 13  2  0
 13 14  1  0
 14 15  2  0
 15 16  1  0
 16 17  2  0
 17 18  1  0
 18 19  2  0
  2 20  1  0
 20 21  1  0
 21 22  1  0
 22 23  1  0
 23 24  1  0
 24 25  1  0
 19 10  1  0
 25 20  1  0
 18 13  1  0
  1 26  1  0
  1 27  1  0
  1 28  1  0
  2 29  1  1
  3 30  1  0
  6 31  1  0
  6 32  1  0
  7 33  1  0
 11 34  1  0
 12 35  1  0
 14 36  1  0
 15 37  1  0
 16 38  1  0
 17 39  1  0
 20 40  1  0
 21 41  1  0
 21 42  1  0
 22 43  1  0
 22 44  1  0
 23 45  1  0
 23 46  1  0
 24 47  1  0
 24 48  1  0
 25 49  1  0
 25 50  1  0
M  END
>  <smiles>  (41) 
C[C@@H](NC(=O)CNC(=O)c1ccc2ccccc2n1)C1CCCCC1

>  <score_type>  (41) 
oracle

>  <origin>  (41) 
autodockgpu

>  <m_score__min__energy>  (41) 
-9.0700000000000003

>  <m_primary>  (41) 
energy

>  <rmsd>  (41) 
3.919954038808191

>  <m_score__min__rmsd>  (41) 
3.919954038808191

>  <meeko>  (41) 
{"free_energy": -8.48, "intermolecular_energy": -9.97, "internal_energy": -1.37, "cluster_size": 24, "cluster_id": 2, "rank_in_cluster": 7}

>  <energy>  (41) 
-8.15

>  <cluster_rmsd>  (41) 
0.75

>  <cluster>  (41) 
2

$$$$

     RDKit          3D

 50 52  0  0  0  0  0  0  0  0999 V2000
  139.4440   67.8430  226.4190 C   0  0  0  0  0  0  0  0  0  0  0  0
  139.3750   68.9360  225.3460 C   0  0  1  0  0  0  0  0  0  0  0  0
  138.0410   68.8950  224.8190 N   0  0  0  0  0  0  0  0  0  0  0  0
  137.8380   69.1140  223.4260 C   0  0  0  0  0  0  0  0  0  0  0  0
  138.8720   69.3350  222.7380 O   0  0  0  0  0  0  0  0  0  0  0  0
  136.4710   69.0780  222.8540 C   0  0  0  0  0  0  0  0  0  0  0  0
  135.6590   70.0930  223.5040 N   0  0  0  0  0  0  0  0  0  0  0  0
  134.9960   69.7690  224.7000 C   0  0  0  0  0  0  0  0  0  0  0  0
  135.1170   68.5980  225.1900 O   0  0  0  0  0  0  0  0  0  0  0  0
  134.1630   70.7540  225.3980 C   0  0  0  0  0  0  0  0  0  0  0  0
  133.0620   70.3430  226.1140 C   0  0  0  0  0  0  0  0  0  0  0  0
  132.2330   71.2220  226.7960 C   0  0  0  0  0  0  0  0  0  0  0  0
  132.5640   72.5560  226.7300 C   0  0  0  0  0  0  0  0  0  0  0  0
  131.7440   73.4570  227.4090 C   0  0  0  0  0  0  0  0  0  0  0  0
  132.0500   74.8150  227.3620 C   0  0  0  0  0  0  0  0  0  0  0  0
  133.1680   75.2190  226.6350 C   0  0  0  0  0  0  0  0  0  0  0  0
  133.9660   74.3230  225.9700 C   0  0  0  0  0  0  0  0  0  0  0  0
  133.6730   72.9820  226.0110 C   0  0  0  0  0  0  0  0  0  0  0  0
  134.4490   72.0720  225.3600 N   0  0  0  0  0  0  0  0  0  0  0  0
  139.7430   70.2100  226.0390 C   0  0  0  0  0  0  0  0  0  0  0  0
  141.1230   70.7090  225.6740 C   0  0  0  0  0  0  0  0  0  0  0  0
  141.4510   71.9000  226.5410 C   0  0  0  0  0  0  0  0  0  0  0  0
  141.3720   71.5860  228.0150 C   0  0  0  0  0  0  0  0  0  0  0  0
  139.9700   71.1640  228.3400 C   0  0  0  0  0  0  0  0  0  0  0  0
  139.6390   69.9370  227.5370 C   0  0  0  0  0  0  0  0  0  0  0  0
  139.4148   68.3060  227.4164 H   0  0  0  0  0  0  0  0  0  0  0  0
  138.5870   67.1628  226.3052 H   0  0  0  0  0  0  0  0  0  0  0  0
  140.3797   67.2760  226.3052 H   0  0  0  0  0  0  0  0  0  0  0  0
  140.0596   68.8181  224.4931 H   0  0  0  0  0  0  0  0  0  0  0  0
  137.2560   68.7040  225.4760 H   0  0  0  0  0  0  0  0  0  0  0  0
  136.5179   69.2794  221.7736 H   0  0  0  0  0  0  0  0  0  0  0  0
  136.0259   68.0854  223.0173 H   0  0  0  0  0  0  0  0  0  0  0  0
  135.5660   71.0550  223.0900 H   0  0  0  0  0  0  0  0  0  0  0  0
  132.8285   69.2686  226.1471 H   0  0  0  0  0  0  0  0  0  0  0  0
  131.3565   70.8707  227.3603 H   0  0  0  0  0  0  0  0  0  0  0  0
  130.8693   73.1007  227.9728 H   0  0  0  0  0  0  0  0  0  0  0  0
  131.4236   75.5515  227.8866 H   0  0  0  0  0  0  0  0  0  0  0  0
  133.4184   76.2893  226.5930 H   0  0  0  0  0  0  0  0  0  0  0  0
  134.8399   74.6784  225.4044 H   0  0  0  0  0  0  0  0  0  0  0  0
  139.0586   71.0108  225.7223 H   0  0  0  0  0  0  0  0  0  0  0  0
  141.8620   69.9122  225.8444 H   0  0  0  0  0  0  0  0  0  0  0  0
  141.1487   70.9988  224.6132 H   0  0  0  0  0  0  0  0  0  0  0  0
  142.4721   72.2354  226.3068 H   0  0  0  0  0  0  0  0  0  0  0  0
  140.7073   72.6818  226.3272 H   0  0  0  0  0  0  0  0  0  0  0  0
  142.0700   70.7714  228.2583 H   0  0  0  0  0  0  0  0  0  0  0  0
  141.6428   72.4750  228.6036 H   0  0  0  0  0  0  0  0  0  0  0  0
  139.8910   70.9367  229.4133 H   0  0  0  0  0  0  0  0  0  0  0  0
  139.2677   71.9741  228.0943 H   0  0  0  0  0  0  0  0  0  0  0  0
  140.3411   69.1336  227.8044 H   0  0  0  0  0  0  0  0  0  0  0  0
  138.6043   69.6414  227.7651 H   0  0  0  0  0  0  0  0  0  0  0  0
  1  2  1  0
  2  3  1  0
  3  4  1  0
  4  5  2  0
  4  6  1  0
  6  7  1  0
  7  8  1  0
  8  9  2  0
  8 10  1  0
 10 11  2  0
 11 12  1  0
 12 13  2  0
 13 14  1  0
 14 15  2  0
 15 16  1  0
 16 17  2  0
 17 18  1  0
 18 19  2  0
  2 20  1  0
 20 21  1  0
 21 22  1  0
 22 23  1  0
 23 24  1  0
 24 25  1  0
 19 10  1  0
 25 20  1  0
 18 13  1  0
  1 26  1  0
  1 27  1  0
  1 28  1  0
  2 29  1  6
  3 30  1  0
  6 31  1  0
  6 32  1  0
  7 33  1  0
 11 34  1  0
 12 35  1  0
 14 36  1  0
 15 37  1  0
 16 38  1  0
 17 39  1  0
 20 40  1  0
 21 41  1  0
 21 42  1  0
 22 43  1  0
 22 44  1  0
 23 45  1  0
 23 46  1  0
 24 47  1  0
 24 48  1  0
 25 49  1  0
 25 50  1  0
M  END
>  <smiles>  (42) 
C[C@@H](NC(=O)CNC(=O)c1ccc2ccccc2n1)C1CCCCC1

>  <score_type>  (42) 
oracle

>  <origin>  (42) 
autodockgpu

>  <m_score__min__energy>  (42) 
-9.0700000000000003

>  <m_primary>  (42) 
energy

>  <rmsd>  (42) 
10.610092611355663

>  <m_score__min__rmsd>  (42) 
10.610092611355663

>  <meeko>  (42) 
{"free_energy": -7.3, "intermolecular_energy": -8.79, "internal_energy": -1.96, "cluster_size": 2, "cluster_id": 3, "rank_in_cluster": 2}

>  <energy>  (42) 
-8.12

>  <cluster_rmsd>  (42) 
1.49

>  <cluster>  (42) 
2

$$$$

     RDKit          3D

 50 52  0  0  0  0  0  0  0  0999 V2000
  141.2880   75.6250  221.4910 C   0  0  0  0  0  0  0  0  0  0  0  0
  139.8320   76.0950  221.5990 C   0  0  1  0  0  0  0  0  0  0  0  0
  139.0650   74.9380  221.9600 N   0  0  0  0  0  0  0  0  0  0  0  0
  138.7010   74.0040  220.9490 C   0  0  0  0  0  0  0  0  0  0  0  0
  139.0890   74.2670  219.7780 O   0  0  0  0  0  0  0  0  0  0  0  0
  137.9070   72.7990  221.2920 C   0  0  0  0  0  0  0  0  0  0  0  0
  138.2790   72.3520  222.6230 N   0  0  0  0  0  0  0  0  0  0  0  0
  139.4480   71.5880  222.7820 C   0  0  0  0  0  0  0  0  0  0  0  0
  140.1570   71.3020  221.7600 O   0  0  0  0  0  0  0  0  0  0  0  0
  139.8710   71.1090  224.1010 C   0  0  0  0  0  0  0  0  0  0  0  0
  140.6860   71.8870  224.8900 C   0  0  0  0  0  0  0  0  0  0  0  0
  141.1210   71.4940  226.1470 C   0  0  0  0  0  0  0  0  0  0  0  0
  140.6940   70.2620  226.5880 C   0  0  0  0  0  0  0  0  0  0  0  0
  141.1200   69.8470  227.8500 C   0  0  0  0  0  0  0  0  0  0  0  0
  140.7070   68.6060  228.3260 C   0  0  0  0  0  0  0  0  0  0  0  0
  139.8800   67.8260  227.5190 C   0  0  0  0  0  0  0  0  0  0  0  0
  139.4690   68.2450  226.2790 C   0  0  0  0  0  0  0  0  0  0  0  0
  139.8710   69.4690  225.8010 C   0  0  0  0  0  0  0  0  0  0  0  0
  139.4770   69.9080  224.5740 N   0  0  0  0  0  0  0  0  0  0  0  0
  139.8360   77.1950  222.6140 C   0  0  0  0  0  0  0  0  0  0  0  0
  138.7140   78.1890  222.4180 C   0  0  0  0  0  0  0  0  0  0  0  0
  138.9040   79.3300  223.3870 C   0  0  0  0  0  0  0  0  0  0  0  0
  140.2460   80.0050  223.2350 C   0  0  0  0  0  0  0  0  0  0  0  0
  141.3220   78.9970  223.5070 C   0  0  0  0  0  0  0  0  0  0  0  0
  141.1960   77.8790  222.5100 C   0  0  0  0  0  0  0  0  0  0  0  0
  141.7056   75.4902  222.4997 H   0  0  0  0  0  0  0  0  0  0  0  0
  141.3254   74.6691  220.9479 H   0  0  0  0  0  0  0  0  0  0  0  0
  141.8772   76.3786  220.9479 H   0  0  0  0  0  0  0  0  0  0  0  0
  139.3853   76.4999  220.6789 H   0  0  0  0  0  0  0  0  0  0  0  0
  138.7960   74.8160  222.9590 H   0  0  0  0  0  0  0  0  0  0  0  0
  136.8351   73.0453  221.2716 H   0  0  0  0  0  0  0  0  0  0  0  0
  138.1075   72.0010  220.5619 H   0  0  0  0  0  0  0  0  0  0  0  0
  137.6870   72.5930  223.4580 H   0  0  0  0  0  0  0  0  0  0  0  0
  141.0077   72.8664  224.5062 H   0  0  0  0  0  0  0  0  0  0  0  0
  141.7733   72.1336  226.7597 H   0  0  0  0  0  0  0  0  0  0  0  0
  141.7719   70.4904  228.4592 H   0  0  0  0  0  0  0  0  0  0  0  0
  141.0258   68.2488  229.3163 H   0  0  0  0  0  0  0  0  0  0  0  0
  139.5469   66.8446  227.8877 H   0  0  0  0  0  0  0  0  0  0  0  0
  138.8184   67.6019  225.6681 H   0  0  0  0  0  0  0  0  0  0  0  0
  139.6686   76.7711  223.6152 H   0  0  0  0  0  0  0  0  0  0  0  0
  138.7344   78.5717  221.3869 H   0  0  0  0  0  0  0  0  0  0  0  0
  137.7449   77.7010  222.5989 H   0  0  0  0  0  0  0  0  0  0  0  0
  138.1135   80.0749  223.2131 H   0  0  0  0  0  0  0  0  0  0  0  0
  138.8540   78.9144  224.4042 H   0  0  0  0  0  0  0  0  0  0  0  0
  140.3519   80.3929  222.2111 H   0  0  0  0  0  0  0  0  0  0  0  0
  140.3278   80.8424  223.9435 H   0  0  0  0  0  0  0  0  0  0  0  0
  142.3089   79.4726  223.4075 H   0  0  0  0  0  0  0  0  0  0  0  0
  141.2175   78.6027  224.5286 H   0  0  0  0  0  0  0  0  0  0  0  0
  141.3149   78.2880  221.4958 H   0  0  0  0  0  0  0  0  0  0  0  0
  141.9768   77.1340  222.7228 H   0  0  0  0  0  0  0  0  0  0  0  0
  1  2  1  0
  2  3  1  0
  3  4  1  0
  4  5  2  0
  4  6  1  0
  6  7  1  0
  7  8  1  0
  8  9  2  0
  8 10  1  0
 10 11  2  0
 11 12  1  0
 12 13  2  0
 13 14  1  0
 14 15  2  0
 15 16  1  0
 16 17  2  0
 17 18  1  0
 18 19  2  0
  2 20  1  0
 20 21  1  0
 21 22  1  0
 22 23  1  0
 23 24  1  0
 24 25  1  0
 19 10  1  0
 25 20  1  0
 18 13  1  0
  1 26  1  0
  1 27  1  0
  1 28  1  0
  2 29  1  6
  3 30  1  0
  6 31  1  0
  6 32  1  0
  7 33  1  0
 11 34  1  0
 12 35  1  0
 14 36  1  0
 15 37  1  0
 16 38  1  0
 17 39  1  0
 20 40  1  0
 21 41  1  0
 21 42  1  0
 22 43  1  0
 22 44  1  0
 23 45  1  0
 23 46  1  0
 24 47  1  0
 24 48  1  0
 25 49  1  0
 25 50  1  0
M  END
>  <smiles>  (43) 
C[C@@H](NC(=O)CNC(=O)c1ccc2ccccc2n1)C1CCCCC1

>  <score_type>  (43) 
oracle

>  <origin>  (43) 
autodockgpu

>  <m_score__min__energy>  (43) 
-9.0700000000000003

>  <m_primary>  (43) 
energy

>  <rmsd>  (43) 
4.1500344190382625

>  <m_score__min__rmsd>  (43) 
4.1500344190382625

>  <meeko>  (43) 
{"free_energy": -8.12, "intermolecular_energy": -9.61, "internal_energy": -1.13, "cluster_size": 24, "cluster_id": 2, "rank_in_cluster": 18}

>  <energy>  (43) 
-8.11

>  <cluster_rmsd>  (43) 
0.78

>  <cluster>  (43) 
2

$$$$

     RDKit          3D

 50 52  0  0  0  0  0  0  0  0999 V2000
  138.9720   79.2880  220.1300 C   0  0  0  0  0  0  0  0  0  0  0  0
  139.2140   78.5080  221.4280 C   0  0  1  0  0  0  0  0  0  0  0  0
  139.7770   77.2480  221.0380 N   0  0  0  0  0  0  0  0  0  0  0  0
  139.2990   76.0550  221.6520 C   0  0  0  0  0  0  0  0  0  0  0  0
  138.3920   76.1960  222.5170 O   0  0  0  0  0  0  0  0  0  0  0  0
  139.8620   74.7380  221.2690 C   0  0  0  0  0  0  0  0  0  0  0  0
  139.6240   73.7910  222.3440 N   0  0  0  0  0  0  0  0  0  0  0  0
  140.4470   72.6560  222.4450 C   0  0  0  0  0  0  0  0  0  0  0  0
  141.3810   72.4780  221.5960 O   0  0  0  0  0  0  0  0  0  0  0  0
  140.2510   71.6670  223.5100 C   0  0  0  0  0  0  0  0  0  0  0  0
  139.6120   70.4790  223.2400 C   0  0  0  0  0  0  0  0  0  0  0  0
  139.3960   69.5020  224.2010 C   0  0  0  0  0  0  0  0  0  0  0  0
  139.8570   69.7720  225.4690 C   0  0  0  0  0  0  0  0  0  0  0  0
  139.6500   68.8030  226.4500 C   0  0  0  0  0  0  0  0  0  0  0  0
  140.1050   69.0460  227.7440 C   0  0  0  0  0  0  0  0  0  0  0  0
  140.7510   70.2520  228.0060 C   0  0  0  0  0  0  0  0  0  0  0  0
  140.9490   71.1980  227.0320 C   0  0  0  0  0  0  0  0  0  0  0  0
  140.5040   70.9670  225.7520 C   0  0  0  0  0  0  0  0  0  0  0  0
  140.6870   71.8900  224.7670 N   0  0  0  0  0  0  0  0  0  0  0  0
  140.1090   79.3720  222.2600 C   0  0  0  0  0  0  0  0  0  0  0  0
  140.8460   80.4170  221.4530 C   0  0  0  0  0  0  0  0  0  0  0  0
  141.8300   81.1200  222.3560 C   0  0  0  0  0  0  0  0  0  0  0  0
  142.8020   80.1690  223.0100 C   0  0  0  0  0  0  0  0  0  0  0  0
  142.0290   79.1990  223.8530 C   0  0  0  0  0  0  0  0  0  0  0  0
  141.0860   78.4360  222.9650 C   0  0  0  0  0  0  0  0  0  0  0  0
  138.6540   80.3129  220.3720 H   0  0  0  0  0  0  0  0  0  0  0  0
  139.9020   79.3215  219.5435 H   0  0  0  0  0  0  0  0  0  0  0  0
  138.1864   78.7892  219.5435 H   0  0  0  0  0  0  0  0  0  0  0  0
  138.3212   78.2857  222.0309 H   0  0  0  0  0  0  0  0  0  0  0  0
  140.5230   77.2440  220.3120 H   0  0  0  0  0  0  0  0  0  0  0  0
  139.3747   74.3820  220.3493 H   0  0  0  0  0  0  0  0  0  0  0  0
  140.9433   74.8338  221.0909 H   0  0  0  0  0  0  0  0  0  0  0  0
  138.8500   73.9480  223.0390 H   0  0  0  0  0  0  0  0  0  0  0  0
  139.2561   70.2954  222.2155 H   0  0  0  0  0  0  0  0  0  0  0  0
  138.8822   68.5593  223.9614 H   0  0  0  0  0  0  0  0  0  0  0  0
  139.1356   67.8618  226.2060 H   0  0  0  0  0  0  0  0  0  0  0  0
  139.9575   68.3023  228.5410 H   0  0  0  0  0  0  0  0  0  0  0  0
  141.1136   70.4521  229.0251 H   0  0  0  0  0  0  0  0  0  0  0  0
  141.4630   72.1397  227.2750 H   0  0  0  0  0  0  0  0  0  0  0  0
  139.5028   79.9438  222.9780 H   0  0  0  0  0  0  0  0  0  0  0  0
  141.3841   79.9333  220.6244 H   0  0  0  0  0  0  0  0  0  0  0  0
  140.1315   81.1438  221.0391 H   0  0  0  0  0  0  0  0  0  0  0  0
  142.3981   81.8481  221.7584 H   0  0  0  0  0  0  0  0  0  0  0  0
  141.2556   81.6103  223.1558 H   0  0  0  0  0  0  0  0  0  0  0  0
  143.3631   79.6231  222.2372 H   0  0  0  0  0  0  0  0  0  0  0  0
  143.5115   80.7291  223.6368 H   0  0  0  0  0  0  0  0  0  0  0  0
  142.7224   78.5004  224.3440 H   0  0  0  0  0  0  0  0  0  0  0  0
  141.4625   79.7407  224.6248 H   0  0  0  0  0  0  0  0  0  0  0  0
  141.6688   77.8903  222.2083 H   0  0  0  0  0  0  0  0  0  0  0  0
  140.5090   77.7381  223.5895 H   0  0  0  0  0  0  0  0  0  0  0  0
  1  2  1  0
  2  3  1  0
  3  4  1  0
  4  5  2  0
  4  6  1  0
  6  7  1  0
  7  8  1  0
  8  9  2  0
  8 10  1  0
 10 11  2  0
 11 12  1  0
 12 13  2  0
 13 14  1  0
 14 15  2  0
 15 16  1  0
 16 17  2  0
 17 18  1  0
 18 19  2  0
  2 20  1  0
 20 21  1  0
 21 22  1  0
 22 23  1  0
 23 24  1  0
 24 25  1  0
 19 10  1  0
 25 20  1  0
 18 13  1  0
  1 26  1  0
  1 27  1  0
  1 28  1  0
  2 29  1  1
  3 30  1  0
  6 31  1  0
  6 32  1  0
  7 33  1  0
 11 34  1  0
 12 35  1  0
 14 36  1  0
 15 37  1  0
 16 38  1  0
 17 39  1  0
 20 40  1  0
 21 41  1  0
 21 42  1  0
 22 43  1  0
 22 44  1  0
 23 45  1  0
 23 46  1  0
 24 47  1  0
 24 48  1  0
 25 49  1  0
 25 50  1  0
M  END
>  <smiles>  (44) 
C[C@@H](NC(=O)CNC(=O)c1ccc2ccccc2n1)C1CCCCC1

>  <score_type>  (44) 
oracle

>  <origin>  (44) 
autodockgpu

>  <m_score__min__energy>  (44) 
-9.0700000000000003

>  <m_primary>  (44) 
energy

>  <rmsd>  (44) 
4.040303772729366

>  <m_score__min__rmsd>  (44) 
4.040303772729366

>  <meeko>  (44) 
{"free_energy": -8.08, "intermolecular_energy": -9.57, "internal_energy": -1.37, "cluster_size": 24, "cluster_id": 2, "rank_in_cluster": 21}

>  <energy>  (44) 
-8.1

>  <cluster_rmsd>  (44) 
0.83

>  <cluster>  (44) 
2

$$$$

     RDKit          3D

 50 52  0  0  0  0  0  0  0  0999 V2000
  139.3850   78.4260  221.2170 C   0  0  0  0  0  0  0  0  0  0  0  0
  140.3110   77.9230  222.3320 C   0  0  1  0  0  0  0  0  0  0  0  0
  140.7700   76.6300  221.9160 N   0  0  0  0  0  0  0  0  0  0  0  0
  139.8780   75.5210  221.9840 C   0  0  0  0  0  0  0  0  0  0  0  0
  138.7170   75.7630  222.4160 O   0  0  0  0  0  0  0  0  0  0  0  0
  140.3250   74.1720  221.5620 C   0  0  0  0  0  0  0  0  0  0  0  0
  139.9470   73.2080  222.5800 N   0  0  0  0  0  0  0  0  0  0  0  0
  140.7310   72.0530  222.7490 C   0  0  0  0  0  0  0  0  0  0  0  0
  141.7530   71.8740  222.0080 O   0  0  0  0  0  0  0  0  0  0  0  0
  140.3950   71.0470  223.7600 C   0  0  0  0  0  0  0  0  0  0  0  0
  139.5760   69.9900  223.4380 C   0  0  0  0  0  0  0  0  0  0  0  0
  139.2200   69.0040  224.3470 C   0  0  0  0  0  0  0  0  0  0  0  0
  139.7330   69.1260  225.6180 C   0  0  0  0  0  0  0  0  0  0  0  0
  139.3880   68.1460  226.5480 C   0  0  0  0  0  0  0  0  0  0  0  0
  139.8900   68.2390  227.8440 C   0  0  0  0  0  0  0  0  0  0  0  0
  140.7200   69.3120  228.1590 C   0  0  0  0  0  0  0  0  0  0  0  0
  141.0520   70.2720  227.2350 C   0  0  0  0  0  0  0  0  0  0  0  0
  140.5620   70.1870  225.9550 C   0  0  0  0  0  0  0  0  0  0  0  0
  140.8760   71.1260  225.0190 N   0  0  0  0  0  0  0  0  0  0  0  0
  141.3800   78.9610  222.4720 C   0  0  0  0  0  0  0  0  0  0  0  0
  141.8600   79.1330  223.8950 C   0  0  0  0  0  0  0  0  0  0  0  0
  142.8140   80.3010  223.9450 C   0  0  0  0  0  0  0  0  0  0  0  0
  142.1940   81.5800  223.4340 C   0  0  0  0  0  0  0  0  0  0  0  0
  141.7990   81.3810  222.0020 C   0  0  0  0  0  0  0  0  0  0  0  0
  140.7970   80.2630  221.9300 C   0  0  0  0  0  0  0  0  0  0  0  0
  138.5014   78.9060  221.6629 H   0  0  0  0  0  0  0  0  0  0  0  0
  139.9235   79.1556  220.5943 H   0  0  0  0  0  0  0  0  0  0  0  0
  139.0661   77.5771  220.5943 H   0  0  0  0  0  0  0  0  0  0  0  0
  139.8491   77.7948  223.3220 H   0  0  0  0  0  0  0  0  0  0  0  0
  141.7490   76.5400  221.5740 H   0  0  0  0  0  0  0  0  0  0  0  0
  139.8467   73.9069  220.6076 H   0  0  0  0  0  0  0  0  0  0  0  0
  141.4173   74.1664  221.4326 H   0  0  0  0  0  0  0  0  0  0  0  0
  139.1010   73.3660  223.1850 H   0  0  0  0  0  0  0  0  0  0  0  0
  139.1850   69.9232  222.4120 H   0  0  0  0  0  0  0  0  0  0  0  0
  138.5620   68.1684  224.0663 H   0  0  0  0  0  0  0  0  0  0  0  0
  138.7296   67.3123  226.2626 H   0  0  0  0  0  0  0  0  0  0  0  0
  139.6367   67.4824  228.6012 H   0  0  0  0  0  0  0  0  0  0  0  0
  141.1221   69.3930  229.1797 H   0  0  0  0  0  0  0  0  0  0  0  0
  141.7089   71.1072  227.5195 H   0  0  0  0  0  0  0  0  0  0  0  0
  142.2712   78.6481  221.9082 H   0  0  0  0  0  0  0  0  0  0  0  0
  141.0014   79.3277  224.5545 H   0  0  0  0  0  0  0  0  0  0  0  0
  142.3691   78.2181  224.2324 H   0  0  0  0  0  0  0  0  0  0  0  0
  143.1288   80.4543  224.9878 H   0  0  0  0  0  0  0  0  0  0  0  0
  143.6679   80.0616  223.2942 H   0  0  0  0  0  0  0  0  0  0  0  0
  141.3048   81.8259  224.0330 H   0  0  0  0  0  0  0  0  0  0  0  0
  142.9164   82.4057  223.5133 H   0  0  0  0  0  0  0  0  0  0  0  0
  141.3508   82.3057  221.6096 H   0  0  0  0  0  0  0  0  0  0  0  0
  142.6848   81.1301  221.4000 H   0  0  0  0  0  0  0  0  0  0  0  0
  139.9129   80.5351  222.5253 H   0  0  0  0  0  0  0  0  0  0  0  0
  140.5235   80.1089  220.8757 H   0  0  0  0  0  0  0  0  0  0  0  0
  1  2  1  0
  2  3  1  0
  3  4  1  0
  4  5  2  0
  4  6  1  0
  6  7  1  0
  7  8  1  0
  8  9  2  0
  8 10  1  0
 10 11  2  0
 11 12  1  0
 12 13  2  0
 13 14  1  0
 14 15  2  0
 15 16  1  0
 16 17  2  0
 17 18  1  0
 18 19  2  0
  2 20  1  0
 20 21  1  0
 21 22  1  0
 22 23  1  0
 23 24  1  0
 24 25  1  0
 19 10  1  0
 25 20  1  0
 18 13  1  0
  1 26  1  0
  1 27  1  0
  1 28  1  0
  2 29  1  1
  3 30  1  0
  6 31  1  0
  6 32  1  0
  7 33  1  0
 11 34  1  0
 12 35  1  0
 14 36  1  0
 15 37  1  0
 16 38  1  0
 17 39  1  0
 20 40  1  0
 21 41  1  0
 21 42  1  0
 22 43  1  0
 22 44  1  0
 23 45  1  0
 23 46  1  0
 24 47  1  0
 24 48  1  0
 25 49  1  0
 25 50  1  0
M  END
>  <smiles>  (45) 
C[C@@H](NC(=O)CNC(=O)c1ccc2ccccc2n1)C1CCCCC1

>  <score_type>  (45) 
oracle

>  <origin>  (45) 
autodockgpu

>  <m_score__min__energy>  (45) 
-9.0700000000000003

>  <m_primary>  (45) 
energy

>  <rmsd>  (45) 
3.920080531051387

>  <m_score__min__rmsd>  (45) 
3.920080531051387

>  <meeko>  (45) 
{"free_energy": -8.74, "intermolecular_energy": -10.23, "internal_energy": -1.04, "cluster_size": 24, "cluster_id": 2, "rank_in_cluster": 3}

>  <energy>  (45) 
-8.08

>  <cluster_rmsd>  (45) 
0.81

>  <cluster>  (45) 
2

$$$$

     RDKit          3D

 50 52  0  0  0  0  0  0  0  0999 V2000
  139.5980   78.4150  220.8300 C   0  0  0  0  0  0  0  0  0  0  0  0
  140.3160   77.9520  222.1030 C   0  0  1  0  0  0  0  0  0  0  0  0
  140.7910   76.6260  221.8340 N   0  0  0  0  0  0  0  0  0  0  0  0
  139.8460   75.5850  221.5990 C   0  0  0  0  0  0  0  0  0  0  0  0
  138.6290   75.9130  221.6450 O   0  0  0  0  0  0  0  0  0  0  0  0
  140.3070   74.2040  221.3180 C   0  0  0  0  0  0  0  0  0  0  0  0
  139.9660   73.3540  222.4450 N   0  0  0  0  0  0  0  0  0  0  0  0
  140.6910   72.1660  222.6450 C   0  0  0  0  0  0  0  0  0  0  0  0
  141.6290   71.8580  221.8380 O   0  0  0  0  0  0  0  0  0  0  0  0
  140.3890   71.2700  223.7650 C   0  0  0  0  0  0  0  0  0  0  0  0
  139.6210   70.1460  223.5630 C   0  0  0  0  0  0  0  0  0  0  0  0
  139.2990   69.2580  224.5790 C   0  0  0  0  0  0  0  0  0  0  0  0
  139.7910   69.5500  225.8310 C   0  0  0  0  0  0  0  0  0  0  0  0
  139.4790   68.6700  226.8670 C   0  0  0  0  0  0  0  0  0  0  0  0
  139.9600   68.9360  228.1460 C   0  0  0  0  0  0  0  0  0  0  0  0
  140.7380   70.0770  228.3390 C   0  0  0  0  0  0  0  0  0  0  0  0
  141.0370   70.9360  227.3120 C   0  0  0  0  0  0  0  0  0  0  0  0
  140.5670   70.6800  226.0460 C   0  0  0  0  0  0  0  0  0  0  0  0
  140.8500   71.5170  225.0090 N   0  0  0  0  0  0  0  0  0  0  0  0
  141.3850   78.9680  222.3590 C   0  0  0  0  0  0  0  0  0  0  0  0
  141.8170   79.0260  223.8070 C   0  0  0  0  0  0  0  0  0  0  0  0
  142.7730   80.1800  223.9800 C   0  0  0  0  0  0  0  0  0  0  0  0
  142.1780   81.4990  223.5490 C   0  0  0  0  0  0  0  0  0  0  0  0
  141.8320   81.4140  222.0920 C   0  0  0  0  0  0  0  0  0  0  0  0
  140.8270   80.3120  221.9010 C   0  0  0  0  0  0  0  0  0  0  0  0
  138.7026   78.9924  221.1035 H   0  0  0  0  0  0  0  0  0  0  0  0
  140.2749   79.0472  220.2366 H   0  0  0  0  0  0  0  0  0  0  0  0
  139.3014   77.5376  220.2366 H   0  0  0  0  0  0  0  0  0  0  0  0
  139.6975   77.8919  223.0107 H   0  0  0  0  0  0  0  0  0  0  0  0
  141.8190   76.4620  221.8190 H   0  0  0  0  0  0  0  0  0  0  0  0
  139.8135   73.8280  220.4097 H   0  0  0  0  0  0  0  0  0  0  0  0
  141.3963   74.1994  221.1648 H   0  0  0  0  0  0  0  0  0  0  0  0
  139.1900   73.6180  223.1040 H   0  0  0  0  0  0  0  0  0  0  0  0
  139.2452   69.9424  222.5494 H   0  0  0  0  0  0  0  0  0  0  0  0
  138.6822   68.3663  224.3936 H   0  0  0  0  0  0  0  0  0  0  0  0
  138.8623   67.7793  226.6764 H   0  0  0  0  0  0  0  0  0  0  0  0
  139.7317   68.2619  228.9847 H   0  0  0  0  0  0  0  0  0  0  0  0
  141.1239   70.2950  229.3458 H   0  0  0  0  0  0  0  0  0  0  0  0
  141.6519   71.8282  227.5014 H   0  0  0  0  0  0  0  0  0  0  0  0
  142.2933   78.6929  221.8028 H   0  0  0  0  0  0  0  0  0  0  0  0
  140.9371   79.1745  224.4502 H   0  0  0  0  0  0  0  0  0  0  0  0
  142.3108   78.0844  224.0891 H   0  0  0  0  0  0  0  0  0  0  0  0
  143.0518   80.2499  225.0418 H   0  0  0  0  0  0  0  0  0  0  0  0
  143.6475   79.9856  223.3418 H   0  0  0  0  0  0  0  0  0  0  0  0
  141.2697   81.7048  224.1343 H   0  0  0  0  0  0  0  0  0  0  0  0
  142.9013   82.3106  223.7170 H   0  0  0  0  0  0  0  0  0  0  0  0
  141.4024   82.3695  221.7568 H   0  0  0  0  0  0  0  0  0  0  0  0
  142.7367   81.2038  221.5026 H   0  0  0  0  0  0  0  0  0  0  0  0
  139.9252   80.5439  222.4866 H   0  0  0  0  0  0  0  0  0  0  0  0
  140.5877   80.2419  220.8296 H   0  0  0  0  0  0  0  0  0  0  0  0
  1  2  1  0
  2  3  1  0
  3  4  1  0
  4  5  2  0
  4  6  1  0
  6  7  1  0
  7  8  1  0
  8  9  2  0
  8 10  1  0
 10 11  2  0
 11 12  1  0
 12 13  2  0
 13 14  1  0
 14 15  2  0
 15 16  1  0
 16 17  2  0
 17 18  1  0
 18 19  2  0
  2 20  1  0
 20 21  1  0
 21 22  1  0
 22 23  1  0
 23 24  1  0
 24 25  1  0
 19 10  1  0
 25 20  1  0
 18 13  1  0
  1 26  1  0
  1 27  1  0
  1 28  1  0
  2 29  1  1
  3 30  1  0
  6 31  1  0
  6 32  1  0
  7 33  1  0
 11 34  1  0
 12 35  1  0
 14 36  1  0
 15 37  1  0
 16 38  1  0
 17 39  1  0
 20 40  1  0
 21 41  1  0
 21 42  1  0
 22 43  1  0
 22 44  1  0
 23 45  1  0
 23 46  1  0
 24 47  1  0
 24 48  1  0
 25 49  1  0
 25 50  1  0
M  END
>  <smiles>  (46) 
C[C@@H](NC(=O)CNC(=O)c1ccc2ccccc2n1)C1CCCCC1

>  <score_type>  (46) 
oracle

>  <origin>  (46) 
autodockgpu

>  <m_score__min__energy>  (46) 
-9.0700000000000003

>  <m_primary>  (46) 
energy

>  <rmsd>  (46) 
3.913346993623042

>  <m_score__min__rmsd>  (46) 
3.913346993623042

>  <meeko>  (46) 
{"free_energy": -8.97, "intermolecular_energy": -10.46, "internal_energy": -0.86, "cluster_size": 24, "cluster_id": 2, "rank_in_cluster": 1}

>  <energy>  (46) 
-8.02

>  <cluster_rmsd>  (46) 
1.52

>  <cluster>  (46) 
2

$$$$

     RDKit          3D

 50 52  0  0  0  0  0  0  0  0999 V2000
  139.4870   79.1490  219.8260 C   0  0  0  0  0  0  0  0  0  0  0  0
  139.9120   78.4290  221.1120 C   0  0  1  0  0  0  0  0  0  0  0  0
  140.2460   77.0890  220.7280 N   0  0  0  0  0  0  0  0  0  0  0  0
  139.8730   76.0090  221.5790 C   0  0  0  0  0  0  0  0  0  0  0  0
  139.2580   76.3170  222.6370 O   0  0  0  0  0  0  0  0  0  0  0  0
  140.2050   74.6120  221.2080 C   0  0  0  0  0  0  0  0  0  0  0  0
  139.9150   73.7420  222.3340 N   0  0  0  0  0  0  0  0  0  0  0  0
  140.5510   72.4900  222.4070 C   0  0  0  0  0  0  0  0  0  0  0  0
  141.3640   72.1430  221.4890 O   0  0  0  0  0  0  0  0  0  0  0  0
  140.2950   71.5710  223.5210 C   0  0  0  0  0  0  0  0  0  0  0  0
  139.6280   70.3890  223.3010 C   0  0  0  0  0  0  0  0  0  0  0  0
  139.3540   69.4760  224.3090 C   0  0  0  0  0  0  0  0  0  0  0  0
  139.7880   69.8070  225.5730 C   0  0  0  0  0  0  0  0  0  0  0  0
  139.5240   68.9030  226.6020 C   0  0  0  0  0  0  0  0  0  0  0  0
  139.9490   69.2080  227.8920 C   0  0  0  0  0  0  0  0  0  0  0  0
  140.6250   70.4080  228.1030 C   0  0  0  0  0  0  0  0  0  0  0  0
  140.8780   71.2900  227.0830 C   0  0  0  0  0  0  0  0  0  0  0  0
  140.4630   70.9970  225.8060 C   0  0  0  0  0  0  0  0  0  0  0  0
  140.7020   71.8550  224.7760 N   0  0  0  0  0  0  0  0  0  0  0  0
  141.0460   79.2300  221.6700 C   0  0  0  0  0  0  0  0  0  0  0  0
  141.5510   78.7050  222.9940 C   0  0  0  0  0  0  0  0  0  0  0  0
  142.5780   79.6690  223.5370 C   0  0  0  0  0  0  0  0  0  0  0  0
  142.0350   81.0690  223.6920 C   0  0  0  0  0  0  0  0  0  0  0  0
  141.6130   81.5710  222.3440 C   0  0  0  0  0  0  0  0  0  0  0  0
  140.5410   80.6640  221.8070 C   0  0  0  0  0  0  0  0  0  0  0  0
  138.9434   80.0699  220.0839 H   0  0  0  0  0  0  0  0  0  0  0  0
  140.3798   79.4033  219.2359 H   0  0  0  0  0  0  0  0  0  0  0  0
  138.8329   78.4902  219.2359 H   0  0  0  0  0  0  0  0  0  0  0  0
  139.1466   78.3541  221.8984 H   0  0  0  0  0  0  0  0  0  0  0  0
  140.7550   76.9440  219.8310 H   0  0  0  0  0  0  0  0  0  0  0  0
  139.6005   74.3071  220.3411 H   0  0  0  0  0  0  0  0  0  0  0  0
  141.2714   74.5400  220.9478 H   0  0  0  0  0  0  0  0  0  0  0  0
  139.2420   74.0390  223.0850 H   0  0  0  0  0  0  0  0  0  0  0  0
  139.2962   70.1565  222.2783 H   0  0  0  0  0  0  0  0  0  0  0  0
  138.8179   68.5366  224.1088 H   0  0  0  0  0  0  0  0  0  0  0  0
  138.9886   67.9642  226.3974 H   0  0  0  0  0  0  0  0  0  0  0  0
  139.7556   68.5173  228.7260 H   0  0  0  0  0  0  0  0  0  0  0  0
  140.9664   70.6559  229.1189 H   0  0  0  0  0  0  0  0  0  0  0  0
  141.4120   72.2298  227.2869 H   0  0  0  0  0  0  0  0  0  0  0  0
  141.9094   79.1651  220.9915 H   0  0  0  0  0  0  0  0  0  0  0  0
  140.7134   78.6190  223.7018 H   0  0  0  0  0  0  0  0  0  0  0  0
  142.0049   77.7127  222.8551 H   0  0  0  0  0  0  0  0  0  0  0  0
  142.9125   79.3098  224.5214 H   0  0  0  0  0  0  0  0  0  0  0  0
  143.4086   79.7115  222.8170 H   0  0  0  0  0  0  0  0  0  0  0  0
  141.1694   81.0576  224.3707 H   0  0  0  0  0  0  0  0  0  0  0  0
  142.8092   81.7276  224.1125 H   0  0  0  0  0  0  0  0  0  0  0  0
  141.2203   82.5944  222.4362 H   0  0  0  0  0  0  0  0  0  0  0  0
  142.4746   81.5795  221.6602 H   0  0  0  0  0  0  0  0  0  0  0  0
  139.6825   80.6775  222.4946 H   0  0  0  0  0  0  0  0  0  0  0  0
  140.2469   81.0255  220.8106 H   0  0  0  0  0  0  0  0  0  0  0  0
  1  2  1  0
  2  3  1  0
  3  4  1  0
  4  5  2  0
  4  6  1  0
  6  7  1  0
  7  8  1  0
  8  9  2  0
  8 10  1  0
 10 11  2  0
 11 12  1  0
 12 13  2  0
 13 14  1  0
 14 15  2  0
 15 16  1  0
 16 17  2  0
 17 18  1  0
 18 19  2  0
  2 20  1  0
 20 21  1  0
 21 22  1  0
 22 23  1  0
 23 24  1  0
 24 25  1  0
 19 10  1  0
 25 20  1  0
 18 13  1  0
  1 26  1  0
  1 27  1  0
  1 28  1  0
  2 29  1  1
  3 30  1  0
  6 31  1  0
  6 32  1  0
  7 33  1  0
 11 34  1  0
 12 35  1  0
 14 36  1  0
 15 37  1  0
 16 38  1  0
 17 39  1  0
 20 40  1  0
 21 41  1  0
 21 42  1  0
 22 43  1  0
 22 44  1  0
 23 45  1  0
 23 46  1  0
 24 47  1  0
 24 48  1  0
 25 49  1  0
 25 50  1  0
M  END
>  <smiles>  (47) 
C[C@@H](NC(=O)CNC(=O)c1ccc2ccccc2n1)C1CCCCC1

>  <score_type>  (47) 
oracle

>  <origin>  (47) 
autodockgpu

>  <m_score__min__energy>  (47) 
-9.0700000000000003

>  <m_primary>  (47) 
energy

>  <rmsd>  (47) 
3.9067950110325342

>  <m_score__min__rmsd>  (47) 
3.9067950110325342

>  <meeko>  (47) 
{"free_energy": -8.15, "intermolecular_energy": -9.65, "internal_energy": -1.4, "cluster_size": 24, "cluster_id": 2, "rank_in_cluster": 17}

>  <energy>  (47) 
-8.01

>  <cluster_rmsd>  (47) 
1.52

>  <cluster>  (47) 
2

$$$$

     RDKit          3D

 50 52  0  0  0  0  0  0  0  0999 V2000
  139.5680   69.6950  223.7960 C   0  0  0  0  0  0  0  0  0  0  0  0
  140.2140   71.0330  224.1790 C   0  0  1  0  0  0  0  0  0  0  0  0
  139.5160   72.0410  223.4340 N   0  0  0  0  0  0  0  0  0  0  0  0
  140.1500   72.6310  222.3030 C   0  0  0  0  0  0  0  0  0  0  0  0
  141.3090   72.2140  222.0300 O   0  0  0  0  0  0  0  0  0  0  0  0
  139.4530   73.6760  221.5140 C   0  0  0  0  0  0  0  0  0  0  0  0
  139.9830   74.9770  221.8810 N   0  0  0  0  0  0  0  0  0  0  0  0
  139.0940   75.9760  222.3150 C   0  0  0  0  0  0  0  0  0  0  0  0
  137.8460   75.7230  222.3780 O   0  0  0  0  0  0  0  0  0  0  0  0
  139.5740   77.3080  222.6970 C   0  0  0  0  0  0  0  0  0  0  0  0
  138.6800   78.2800  223.0790 C   0  0  0  0  0  0  0  0  0  0  0  0
  139.0680   79.5590  223.4520 C   0  0  0  0  0  0  0  0  0  0  0  0
  140.4180   79.8250  223.4250 C   0  0  0  0  0  0  0  0  0  0  0  0
  140.8290   81.1050  223.7960 C   0  0  0  0  0  0  0  0  0  0  0  0
  142.1880   81.4080  223.7800 C   0  0  0  0  0  0  0  0  0  0  0  0
  143.0850   80.4140  223.3910 C   0  0  0  0  0  0  0  0  0  0  0  0
  142.6680   79.1590  223.0270 C   0  0  0  0  0  0  0  0  0  0  0  0
  141.3290   78.8510  223.0410 C   0  0  0  0  0  0  0  0  0  0  0  0
  140.8890   77.6130  222.6850 N   0  0  0  0  0  0  0  0  0  0  0  0
  140.0800   71.1370  225.6660 C   0  0  0  0  0  0  0  0  0  0  0  0
  141.2280   71.8760  226.3160 C   0  0  0  0  0  0  0  0  0  0  0  0
  141.0740   71.7850  227.8140 C   0  0  0  0  0  0  0  0  0  0  0  0
  141.0110   70.3600  228.3080 C   0  0  0  0  0  0  0  0  0  0  0  0
  139.8180   69.6930  227.6900 C   0  0  0  0  0  0  0  0  0  0  0  0
  139.9780   69.7100  226.1950 C   0  0  0  0  0  0  0  0  0  0  0  0
  139.3011   69.1421  224.7087 H   0  0  0  0  0  0  0  0  0  0  0  0
  138.6611   69.8823  223.2023 H   0  0  0  0  0  0  0  0  0  0  0  0
  140.2787   69.1013  223.2023 H   0  0  0  0  0  0  0  0  0  0  0  0
  141.2820   71.1400  223.9384 H   0  0  0  0  0  0  0  0  0  0  0  0
  138.5600   72.3120  223.7450 H   0  0  0  0  0  0  0  0  0  0  0  0
  139.6183   73.4997  220.4409 H   0  0  0  0  0  0  0  0  0  0  0  0
  138.3736   73.6418  221.7232 H   0  0  0  0  0  0  0  0  0  0  0  0
  141.0150   75.1740  221.8240 H   0  0  0  0  0  0  0  0  0  0  0  0
  137.6082   78.0326  223.0894 H   0  0  0  0  0  0  0  0  0  0  0  0
  138.3343   80.3210  223.7537 H   0  0  0  0  0  0  0  0  0  0  0  0
  140.0911   81.8634  224.0966 H   0  0  0  0  0  0  0  0  0  0  0  0
  142.5454   82.4078  224.0674 H   0  0  0  0  0  0  0  0  0  0  0  0
  144.1607   80.6434  223.3755 H   0  0  0  0  0  0  0  0  0  0  0  0
  143.4045   78.4001  222.7243 H   0  0  0  0  0  0  0  0  0  0  0  0
  139.1857   71.7276  225.9141 H   0  0  0  0  0  0  0  0  0  0  0  0
  142.1816   71.4188  226.0133 H   0  0  0  0  0  0  0  0  0  0  0  0
  141.2219   72.9301  226.0015 H   0  0  0  0  0  0  0  0  0  0  0  0
  141.9329   72.2837  228.2869 H   0  0  0  0  0  0  0  0  0  0  0  0
  140.1239   72.2711  228.0803 H   0  0  0  0  0  0  0  0  0  0  0  0
  141.9271   69.8256  228.0163 H   0  0  0  0  0  0  0  0  0  0  0  0
  140.9245   70.3453  229.4045 H   0  0  0  0  0  0  0  0  0  0  0  0
  139.7505   68.6535  228.0434 H   0  0  0  0  0  0  0  0  0  0  0  0
  138.8998   70.2274  227.9752 H   0  0  0  0  0  0  0  0  0  0  0  0
  140.8929   69.1616  225.9261 H   0  0  0  0  0  0  0  0  0  0  0  0
  139.0938   69.2348  225.7452 H   0  0  0  0  0  0  0  0  0  0  0  0
  1  2  1  0
  2  3  1  0
  3  4  1  0
  4  5  2  0
  4  6  1  0
  6  7  1  0
  7  8  1  0
  8  9  2  0
  8 10  1  0
 10 11  2  0
 11 12  1  0
 12 13  2  0
 13 14  1  0
 14 15  2  0
 15 16  1  0
 16 17  2  0
 17 18  1  0
 18 19  2  0
  2 20  1  0
 20 21  1  0
 21 22  1  0
 22 23  1  0
 23 24  1  0
 24 25  1  0
 19 10  1  0
 25 20  1  0
 18 13  1  0
  1 26  1  0
  1 27  1  0
  1 28  1  0
  2 29  1  1
  3 30  1  0
  6 31  1  0
  6 32  1  0
  7 33  1  0
 11 34  1  0
 12 35  1  0
 14 36  1  0
 15 37  1  0
 16 38  1  0
 17 39  1  0
 20 40  1  0
 21 41  1  0
 21 42  1  0
 22 43  1  0
 22 44  1  0
 23 45  1  0
 23 46  1  0
 24 47  1  0
 24 48  1  0
 25 49  1  0
 25 50  1  0
M  END
>  <smiles>  (48) 
C[C@@H](NC(=O)CNC(=O)c1ccc2ccccc2n1)C1CCCCC1

>  <score_type>  (48) 
oracle

>  <origin>  (48) 
autodockgpu

>  <m_score__min__energy>  (48) 
-9.0700000000000003

>  <m_primary>  (48) 
energy

>  <rmsd>  (48) 
10.160885294728425

>  <m_score__min__rmsd>  (48) 
10.160885294728425

>  <meeko>  (48) 
{"free_energy": -8.66, "intermolecular_energy": -10.15, "internal_energy": -1.2, "cluster_size": 24, "cluster_id": 1, "rank_in_cluster": 13}

>  <energy>  (48) 
-7.67

>  <cluster_rmsd>  (48) 
0.96

>  <cluster>  (48) 
2

$$$$

     RDKit          3D

 50 52  0  0  0  0  0  0  0  0999 V2000
  139.1530   69.4660  224.0340 C   0  0  0  0  0  0  0  0  0  0  0  0
  139.9290   70.7660  224.2770 C   0  0  1  0  0  0  0  0  0  0  0  0
  139.2530   71.7810  223.5220 N   0  0  0  0  0  0  0  0  0  0  0  0
  139.9280   72.4020  222.4320 C   0  0  0  0  0  0  0  0  0  0  0  0
  141.1030   72.0040  222.2030 O   0  0  0  0  0  0  0  0  0  0  0  0
  139.2540   73.4550  221.6350 C   0  0  0  0  0  0  0  0  0  0  0  0
  139.4660   74.7420  222.2750 N   0  0  0  0  0  0  0  0  0  0  0  0
  139.9200   75.8210  221.4970 C   0  0  0  0  0  0  0  0  0  0  0  0
  140.1360   75.6530  220.2520 O   0  0  0  0  0  0  0  0  0  0  0  0
  140.1510   77.1420  222.0910 C   0  0  0  0  0  0  0  0  0  0  0  0
  139.0910   77.8890  222.5480 C   0  0  0  0  0  0  0  0  0  0  0  0
  139.2420   79.1450  223.1200 C   0  0  0  0  0  0  0  0  0  0  0  0
  140.5270   79.6260  223.2160 C   0  0  0  0  0  0  0  0  0  0  0  0
  140.7010   80.8860  223.7880 C   0  0  0  0  0  0  0  0  0  0  0  0
  141.9890   81.4040  223.9000 C   0  0  0  0  0  0  0  0  0  0  0  0
  143.0560   80.6380  223.4340 C   0  0  0  0  0  0  0  0  0  0  0  0
  142.8720   79.3990  222.8730 C   0  0  0  0  0  0  0  0  0  0  0  0
  141.6050   78.8800  222.7590 C   0  0  0  0  0  0  0  0  0  0  0  0
  141.3950   77.6540  222.2050 N   0  0  0  0  0  0  0  0  0  0  0  0
  139.9260   70.9710  225.7590 C   0  0  0  0  0  0  0  0  0  0  0  0
  141.0770   71.8220  226.2450 C   0  0  0  0  0  0  0  0  0  0  0  0
  141.0670   71.8320  227.7540 C   0  0  0  0  0  0  0  0  0  0  0  0
  141.1450   70.4450  228.3450 C   0  0  0  0  0  0  0  0  0  0  0  0
  139.9480   69.6640  227.8910 C   0  0  0  0  0  0  0  0  0  0  0  0
  139.9690   69.5820  226.3900 C   0  0  0  0  0  0  0  0  0  0  0  0
  138.8832   69.0140  224.9999 H   0  0  0  0  0  0  0  0  0  0  0  0
  138.2384   69.6860  223.4639 H   0  0  0  0  0  0  0  0  0  0  0  0
  139.7808   68.7654  223.4639 H   0  0  0  0  0  0  0  0  0  0  0  0
  140.9790   70.7693  223.9492 H   0  0  0  0  0  0  0  0  0  0  0  0
  138.2810   72.0350  223.7960 H   0  0  0  0  0  0  0  0  0  0  0  0
  139.6751   73.4747  220.6190 H   0  0  0  0  0  0  0  0  0  0  0  0
  138.1763   73.2429  221.5754 H   0  0  0  0  0  0  0  0  0  0  0  0
  139.2850   74.8680  223.3030 H   0  0  0  0  0  0  0  0  0  0  0  0
  138.0771   77.4725  222.4562 H   0  0  0  0  0  0  0  0  0  0  0  0
  138.3788   79.7253  223.4778 H   0  0  0  0  0  0  0  0  0  0  0  0
  139.8344   81.4618  224.1451 H   0  0  0  0  0  0  0  0  0  0  0  0
  142.1602   82.3949  224.3460 H   0  0  0  0  0  0  0  0  0  0  0  0
  144.0769   81.0387  223.5184 H   0  0  0  0  0  0  0  0  0  0  0  0
  143.7377   78.8223  222.5152 H   0  0  0  0  0  0  0  0  0  0  0  0
  139.0213   71.5243  226.0512 H   0  0  0  0  0  0  0  0  0  0  0  0
  142.0270   71.4012  225.8838 H   0  0  0  0  0  0  0  0  0  0  0  0
  140.9726   72.8480  225.8624 H   0  0  0  0  0  0  0  0  0  0  0  0
  141.9302   72.4147  228.1080 H   0  0  0  0  0  0  0  0  0  0  0  0
  140.1153   72.2786  228.0776 H   0  0  0  0  0  0  0  0  0  0  0  0
  142.0641   69.9472  228.0023 H   0  0  0  0  0  0  0  0  0  0  0  0
  141.1606   70.5046  229.4433 H   0  0  0  0  0  0  0  0  0  0  0  0
  139.9831   68.6508  228.3179 H   0  0  0  0  0  0  0  0  0  0  0  0
  139.0259   70.1609  228.2270 H   0  0  0  0  0  0  0  0  0  0  0  0
  140.8902   69.0720  226.0717 H   0  0  0  0  0  0  0  0  0  0  0  0
  139.0811   69.0227  226.0600 H   0  0  0  0  0  0  0  0  0  0  0  0
  1  2  1  0
  2  3  1  0
  3  4  1  0
  4  5  2  0
  4  6  1  0
  6  7  1  0
  7  8  1  0
  8  9  2  0
  8 10  1  0
 10 11  2  0
 11 12  1  0
 12 13  2  0
 13 14  1  0
 14 15  2  0
 15 16  1  0
 16 17  2  0
 17 18  1  0
 18 19  2  0
  2 20  1  0
 20 21  1  0
 21 22  1  0
 22 23  1  0
 23 24  1  0
 24 25  1  0
 19 10  1  0
 25 20  1  0
 18 13  1  0
  1 26  1  0
  1 27  1  0
  1 28  1  0
  2 29  1  6
  3 30  1  0
  6 31  1  0
  6 32  1  0
  7 33  1  0
 11 34  1  0
 12 35  1  0
 14 36  1  0
 15 37  1  0
 16 38  1  0
 17 39  1  0
 20 40  1  0
 21 41  1  0
 21 42  1  0
 22 43  1  0
 22 44  1  0
 23 45  1  0
 23 46  1  0
 24 47  1  0
 24 48  1  0
 25 49  1  0
 25 50  1  0
M  END
>  <smiles>  (49) 
C[C@@H](NC(=O)CNC(=O)c1ccc2ccccc2n1)C1CCCCC1

>  <score_type>  (49) 
oracle

>  <origin>  (49) 
autodockgpu

>  <m_score__min__energy>  (49) 
-9.0700000000000003

>  <m_primary>  (49) 
energy

>  <rmsd>  (49) 
10.24377150166564

>  <m_score__min__rmsd>  (49) 
10.24377150166564

>  <meeko>  (49) 
{"free_energy": -9.02, "intermolecular_energy": -10.51, "internal_energy": -0.89, "cluster_size": 24, "cluster_id": 1, "rank_in_cluster": 3}

>  <energy>  (49) 
-7.31

>  <cluster_rmsd>  (49) 
0.0

>  <cluster>  (49) 
3

$$$$

     RDKit          3D

 50 52  0  0  0  0  0  0  0  0999 V2000
  138.8270   78.4640  219.5140 C   0  0  0  0  0  0  0  0  0  0  0  0
  139.0950   77.8180  220.8790 C   0  0  1  0  0  0  0  0  0  0  0  0
  139.6220   76.5120  220.6060 N   0  0  0  0  0  0  0  0  0  0  0  0
  139.5630   75.5140  221.6210 C   0  0  0  0  0  0  0  0  0  0  0  0
  139.0380   75.8590  222.7150 O   0  0  0  0  0  0  0  0  0  0  0  0
  140.1000   74.1550  221.3680 C   0  0  0  0  0  0  0  0  0  0  0  0
  139.9400   73.3520  222.5680 N   0  0  0  0  0  0  0  0  0  0  0  0
  140.3450   72.0070  222.5450 C   0  0  0  0  0  0  0  0  0  0  0  0
  140.8410   71.5170  221.4770 O   0  0  0  0  0  0  0  0  0  0  0  0
  140.2050   71.1500  223.7270 C   0  0  0  0  0  0  0  0  0  0  0  0
  139.5910   69.9240  223.6220 C   0  0  0  0  0  0  0  0  0  0  0  0
  139.4280   69.0650  224.7000 C   0  0  0  0  0  0  0  0  0  0  0  0
  139.9170   69.4990  225.9110 C   0  0  0  0  0  0  0  0  0  0  0  0
  139.7630   68.6510  227.0080 C   0  0  0  0  0  0  0  0  0  0  0  0
  140.2470   69.0590  228.2480 C   0  0  0  0  0  0  0  0  0  0  0  0
  140.8680   70.3030  228.3430 C   0  0  0  0  0  0  0  0  0  0  0  0
  141.0120   71.1290  227.2560 C   0  0  0  0  0  0  0  0  0  0  0  0
  140.5390   70.7340  226.0280 C   0  0  0  0  0  0  0  0  0  0  0  0
  140.6700   71.5340  224.9340 N   0  0  0  0  0  0  0  0  0  0  0  0
  140.0310   78.7430  221.5900 C   0  0  0  0  0  0  0  0  0  0  0  0
  141.4690   78.2790  221.5540 C   0  0  0  0  0  0  0  0  0  0  0  0
  142.2950   79.1930  222.4260 C   0  0  0  0  0  0  0  0  0  0  0  0
  141.7900   79.2520  223.8480 C   0  0  0  0  0  0  0  0  0  0  0  0
  140.3880   79.7830  223.8360 C   0  0  0  0  0  0  0  0  0  0  0  0
  139.5280   78.8530  223.0260 C   0  0  0  0  0  0  0  0  0  0  0  0
  138.4092   79.4710  219.6606 H   0  0  0  0  0  0  0  0  0  0  0  0
  139.7694   78.5363  218.9512 H   0  0  0  0  0  0  0  0  0  0  0  0
  138.1102   77.8480  218.9512 H   0  0  0  0  0  0  0  0  0  0  0  0
  138.2175   77.6795  221.5276 H   0  0  0  0  0  0  0  0  0  0  0  0
  140.0340   76.3320  219.6670 H   0  0  0  0  0  0  0  0  0  0  0  0
  139.5496   73.6898  220.5369 H   0  0  0  0  0  0  0  0  0  0  0  0
  141.1658   74.2199  221.1038 H   0  0  0  0  0  0  0  0  0  0  0  0
  139.5290   73.7670  223.4430 H   0  0  0  0  0  0  0  0  0  0  0  0
  139.2116   69.6097  222.6385 H   0  0  0  0  0  0  0  0  0  0  0  0
  138.9337   68.0883  224.5920 H   0  0  0  0  0  0  0  0  0  0  0  0
  139.2671   67.6756  226.8951 H   0  0  0  0  0  0  0  0  0  0  0  0
  140.1416   68.4140  229.1328 H   0  0  0  0  0  0  0  0  0  0  0  0
  141.2545   70.6330  229.3186 H   0  0  0  0  0  0  0  0  0  0  0  0
  141.5054   72.1057  227.3680 H   0  0  0  0  0  0  0  0  0  0  0  0
  140.0357   79.7197  221.0839 H   0  0  0  0  0  0  0  0  0  0  0  0
  141.5347   77.2480  221.9319 H   0  0  0  0  0  0  0  0  0  0  0  0
  141.8455   78.3060  220.5208 H   0  0  0  0  0  0  0  0  0  0  0  0
  143.3326   78.8279  222.4355 H   0  0  0  0  0  0  0  0  0  0  0  0
  142.2255   80.2071  222.0055 H   0  0  0  0  0  0  0  0  0  0  0  0
  141.8006   78.2435  224.2872 H   0  0  0  0  0  0  0  0  0  0  0  0
  142.4356   79.9091  224.4491 H   0  0  0  0  0  0  0  0  0  0  0  0
  140.0046   79.8395  224.8655 H   0  0  0  0  0  0  0  0  0  0  0  0
  140.3720   80.7898  223.3932 H   0  0  0  0  0  0  0  0  0  0  0  0
  139.5444   77.8553  223.4889 H   0  0  0  0  0  0  0  0  0  0  0  0
  138.5045   79.2556  223.0056 H   0  0  0  0  0  0  0  0  0  0  0  0
  1  2  1  0
  2  3  1  0
  3  4  1  0
  4  5  2  0
  4  6  1  0
  6  7  1  0
  7  8  1  0
  8  9  2  0
  8 10  1  0
 10 11  2  0
 11 12  1  0
 12 13  2  0
 13 14  1  0
 14 15  2  0
 15 16  1  0
 16 17  2  0
 17 18  1  0
 18 19  2  0
  2 20  1  0
 20 21  1  0
 21 22  1  0
 22 23  1  0
 23 24  1  0
 24 25  1  0
 19 10  1  0
 25 20  1  0
 18 13  1  0
  1 26  1  0
  1 27  1  0
  1 28  1  0
  2 29  1  1
  3 30  1  0
  6 31  1  0
  6 32  1  0
  7 33  1  0
 11 34  1  0
 12 35  1  0
 14 36  1  0
 15 37  1  0
 16 38  1  0
 17 39  1  0
 20 40  1  0
 21 41  1  0
 21 42  1  0
 22 43  1  0
 22 44  1  0
 23 45  1  0
 23 46  1  0
 24 47  1  0
 24 48  1  0
 25 49  1  0
 25 50  1  0
M  END
>  <smiles>  (50) 
C[C@@H](NC(=O)CNC(=O)c1ccc2ccccc2n1)C1CCCCC1

>  <score_type>  (50) 
oracle

>  <origin>  (50) 
autodockgpu

>  <m_score__min__energy>  (50) 
-9.0700000000000003

>  <m_primary>  (50) 
energy

>  <rmsd>  (50) 
4.457283496911692

>  <m_score__min__rmsd>  (50) 
4.457283496911692

>  <meeko>  (50) 
{"free_energy": -7.67, "intermolecular_energy": -9.16, "internal_energy": -1.59, "cluster_size": 24, "cluster_id": 2, "rank_in_cluster": 24}

>  <energy>  (50) 
-7.3

>  <cluster_rmsd>  (50) 
1.67

>  <cluster>  (50) 
3

$$$$
